
     RDKit          3D

 70 75  0  0  1  0  0  0  0  0999 V2000
  140.2400   68.3520  226.6440 C   0  0  0  0  0  0  0  0  0  0  0  0
  141.4240   69.0640  226.4630 C   0  0  0  0  0  0  0  0  0  0  0  0
  141.3520   70.1590  225.6350 C   0  0  0  0  0  0  0  0  0  0  0  0
  140.2030   70.5700  224.9990 C   0  0  0  0  0  0  0  0  0  0  0  0
  139.0590   69.8370  225.2060 C   0  0  0  0  0  0  0  0  0  0  0  0
  139.0600   68.7310  226.0220 C   0  0  0  0  0  0  0  0  0  0  0  0
  137.8290   70.3150  224.4940 C   0  0  0  0  0  0  0  0  0  0  0  0
  138.3150   70.6110  223.0660 C   0  0  0  0  0  0  0  0  0  0  0  0
  139.2010   71.8330  223.0990 C   0  0  2  0  0  0  0  0  0  0  0  0
  139.7770   71.9990  221.7680 N   0  0  0  0  0  0  0  0  0  0  0  0
  140.5360   73.1190  221.4000 C   0  0  0  0  0  0  0  0  0  0  0  0
  141.5870   73.0990  220.5730 N   0  0  0  0  0  0  0  0  0  0  0  0
  142.3070   74.1810  220.2280 C   0  0  0  0  0  0  0  0  0  0  0  0
  143.4230   74.1000  219.3350 N   0  0  0  0  0  0  0  0  0  0  0  0
  143.4150   73.1790  218.1940 C   0  0  0  0  0  0  0  0  0  0  0  0
  144.0980   71.9300  218.6350 C   0  0  0  0  0  0  0  0  0  0  0  0
  145.2350   72.1780  219.5970 C   0  0  2  0  0  0  0  0  0  0  0  0
  144.8080   72.3570  221.0180 C   0  0  0  0  0  0  0  0  0  0  0  0
  146.0260   73.0640  221.6030 C   0  0  0  0  0  0  0  0  0  0  0  0
  146.3870   74.0020  220.4730 C   0  0  0  0  0  0  0  0  0  0  0  0
  145.9340   73.4040  219.2560 N   0  0  0  0  0  0  0  0  0  0  0  0
  141.9390   75.3820  220.7590 N   0  0  0  0  0  0  0  0  0  0  0  0
  140.8780   75.4550  221.6050 C   0  0  0  0  0  0  0  0  0  0  0  0
  140.4930   76.7100  222.1550 N   0  0  0  0  0  0  0  0  0  0  0  0
  139.1860   77.2440  221.8480 C   0  0  0  0  0  0  0  0  0  0  0  0
  138.7850   78.3320  222.8230 C   0  0  0  0  0  0  0  0  0  0  0  0
  139.8600   79.3390  222.9850 C   0  0  0  0  0  0  0  0  0  0  0  0
  139.6150   80.6920  223.0490 C   0  0  0  0  0  0  0  0  0  0  0  0
  140.6620   81.6030  223.2030 C   0  0  0  0  0  0  0  0  0  0  0  0
  141.9640   81.1550  223.2940 C   0  0  0  0  0  0  0  0  0  0  0  0
  142.1770   79.7930  223.2270 C   0  0  0  0  0  0  0  0  0  0  0  0
  141.1540   78.8800  223.0760 C   0  0  0  0  0  0  0  0  0  0  0  0
  141.4070   77.4260  223.0070 C   0  0  0  0  0  0  0  0  0  0  0  0
  140.2050   74.3410  221.9060 N   0  0  0  0  0  0  0  0  0  0  0  0
  140.2830   71.7700  224.1400 C   0  0  0  0  0  0  0  0  0  0  0  0
  140.2414   67.4667  227.2969 H   0  0  0  0  0  0  0  0  0  0  0  0
  142.3623   68.7670  226.9544 H   0  0  0  0  0  0  0  0  0  0  0  0
  142.2697   70.7428  225.4707 H   0  0  0  0  0  0  0  0  0  0  0  0
  138.1368   68.1540  226.1796 H   0  0  0  0  0  0  0  0  0  0  0  0
  137.0528   69.5356  224.4888 H   0  0  0  0  0  0  0  0  0  0  0  0
  137.3757   71.1933  224.9767 H   0  0  0  0  0  0  0  0  0  0  0  0
  138.8845   69.7512  222.6833 H   0  0  0  0  0  0  0  0  0  0  0  0
  137.4530   70.7911  222.4068 H   0  0  0  0  0  0  0  0  0  0  0  0
  138.5824   72.6976  223.3814 H   0  0  0  0  0  0  0  0  0  0  0  0
  139.6030   71.2370  221.0750 H   0  0  0  0  0  0  0  0  0  0  0  0
  144.2220   74.7250  219.5450 H   0  0  0  0  0  0  0  0  0  0  0  0
  142.3798   72.9577  217.8949 H   0  0  0  0  0  0  0  0  0  0  0  0
  143.9297   73.6225  217.3289 H   0  0  0  0  0  0  0  0  0  0  0  0
  143.3579   71.2832  219.1287 H   0  0  0  0  0  0  0  0  0  0  0  0
  144.5273   71.4597  217.7380 H   0  0  0  0  0  0  0  0  0  0  0  0
  145.8618   71.2784  219.5084 H   0  0  0  0  0  0  0  0  0  0  0  0
  143.9049   72.9805  221.0926 H   0  0  0  0  0  0  0  0  0  0  0  0
  144.5376   71.4221  221.5307 H   0  0  0  0  0  0  0  0  0  0  0  0
  145.7710   73.6157  222.5198 H   0  0  0  0  0  0  0  0  0  0  0  0
  146.8387   72.3885  221.9082 H   0  0  0  0  0  0  0  0  0  0  0  0
  145.8938   74.9742  220.6200 H   0  0  0  0  0  0  0  0  0  0  0  0
  147.4737   74.1695  220.4410 H   0  0  0  0  0  0  0  0  0  0  0  0
  146.6630   73.2860  218.5320 H   0  0  0  0  0  0  0  0  0  0  0  0
  139.2017   77.6638  220.8314 H   0  0  0  0  0  0  0  0  0  0  0  0
  138.4538   76.4267  221.9243 H   0  0  0  0  0  0  0  0  0  0  0  0
  137.8801   78.8324  222.4479 H   0  0  0  0  0  0  0  0  0  0  0  0
  138.5977   77.8665  223.8019 H   0  0  0  0  0  0  0  0  0  0  0  0
  138.5810   81.0604  222.9779 H   0  0  0  0  0  0  0  0  0  0  0  0
  140.4483   82.6809  223.2519 H   0  0  0  0  0  0  0  0  0  0  0  0
  142.8015   81.8577  223.4155 H   0  0  0  0  0  0  0  0  0  0  0  0
  143.2090   79.4187  223.2972 H   0  0  0  0  0  0  0  0  0  0  0  0
  142.4274   77.2706  222.6268 H   0  0  0  0  0  0  0  0  0  0  0  0
  141.2679   77.0312  224.0242 H   0  0  0  0  0  0  0  0  0  0  0  0
  141.2577   71.7692  223.6300 H   0  0  0  0  0  0  0  0  0  0  0  0
  140.1558   72.6457  224.7934 H   0  0  0  0  0  0  0  0  0  0  0  0
  1  2  2  0
  2  3  1  0
  3  4  2  0
  4  5  1  0
  5  6  2  0
  5  7  1  0
  7  8  1  0
  8  9  1  0
  9 10  1  0
 10 11  1  0
 11 12  2  0
 12 13  1  0
 13 14  1  0
 14 15  1  0
 15 16  1  0
 16 17  1  0
 17 18  1  0
 18 19  1  0
 19 20  1  0
 20 21  1  0
 13 22  2  0
 22 23  1  0
 23 24  1  0
 24 25  1  0
 25 26  1  0
 26 27  1  0
 27 28  2  0
 28 29  1  0
 29 30  2  0
 30 31  1  0
 31 32  2  0
 32 33  1  0
 23 34  2  0
  9 35  1  0
  6  1  1  0
 34 11  1  0
 35  4  1  0
 21 17  1  0
 33 24  1  0
 32 27  1  0
  1 36  1  0
  2 37  1  0
  3 38  1  0
  6 39  1  0
  7 40  1  0
  7 41  1  0
  8 42  1  0
  8 43  1  0
  9 44  1  1
 10 45  1  0
 14 46  1  0
 15 47  1  0
 15 48  1  0
 16 49  1  0
 16 50  1  0
 17 51  1  1
 18 52  1  0
 18 53  1  0
 19 54  1  0
 19 55  1  0
 20 56  1  0
 20 57  1  0
 21 58  1  0
 25 59  1  0
 25 60  1  0
 26 61  1  0
 26 62  1  0
 28 63  1  0
 29 64  1  0
 30 65  1  0
 31 66  1  0
 33 67  1  0
 33 68  1  0
 35 69  1  0
 35 70  1  0
M  END
>  <smiles>  (1) 
c1ccc2c(c1)CCC(Nc1nc(NCCC3CCCN3)nc(N3CCc4ccccc4C3)n1)C2

>  <score_type>  (1) 
oracle

>  <origin>  (1) 
autodockgpu

>  <m_score__min__energy>  (1) 
-9.8699999999999992

>  <m_primary>  (1) 
energy

>  <rmsd>  (1) 
11.587838542812865

>  <m_score__min__rmsd>  (1) 
11.587838542812865

>  <meeko>  (1) 
{"free_energy": -9.39, "intermolecular_energy": -11.47, "internal_energy": -1.53, "cluster_size": 17, "cluster_id": 3, "rank_in_cluster": 4}

>  <energy>  (1) 
-9.87

>  <cluster_rmsd>  (1) 
0.0

>  <cluster>  (1) 
1

$$$$

     RDKit          3D

 70 75  0  0  1  0  0  0  0  0999 V2000
  140.1040   67.7940  226.9080 C   0  0  0  0  0  0  0  0  0  0  0  0
  141.0540   68.7330  227.3040 C   0  0  0  0  0  0  0  0  0  0  0  0
  141.0830   69.9060  226.5880 C   0  0  0  0  0  0  0  0  0  0  0  0
  140.2450   70.1850  225.5330 C   0  0  0  0  0  0  0  0  0  0  0  0
  139.3230   69.2290  225.1760 C   0  0  0  0  0  0  0  0  0  0  0  0
  139.2400   68.0350  225.8490 C   0  0  0  0  0  0  0  0  0  0  0  0
  138.4300   69.5710  224.0210 C   0  0  0  0  0  0  0  0  0  0  0  0
  139.3850   70.1600  222.9710 C   0  0  0  0  0  0  0  0  0  0  0  0
  139.8660   71.5070  223.4540 C   0  0  2  0  0  0  0  0  0  0  0  0
  140.8910   71.9730  222.5240 N   0  0  0  0  0  0  0  0  0  0  0  0
  140.8760   73.2530  221.9520 C   0  0  0  0  0  0  0  0  0  0  0  0
  141.7400   73.6950  221.0330 N   0  0  0  0  0  0  0  0  0  0  0  0
  141.7160   74.9260  220.4920 C   0  0  0  0  0  0  0  0  0  0  0  0
  142.6680   75.3450  219.5090 N   0  0  0  0  0  0  0  0  0  0  0  0
  143.2440   76.6930  219.5380 C   0  0  0  0  0  0  0  0  0  0  0  0
  142.2050   77.6250  219.0160 C   0  0  0  0  0  0  0  0  0  0  0  0
  141.5560   78.4600  220.0930 C   0  0  2  0  0  0  0  0  0  0  0  0
  141.6700   79.9350  219.8770 C   0  0  0  0  0  0  0  0  0  0  0  0
  141.4090   80.4580  221.2860 C   0  0  0  0  0  0  0  0  0  0  0  0
  142.1610   79.4410  222.1160 C   0  0  0  0  0  0  0  0  0  0  0  0
  142.1850   78.2170  221.3780 N   0  0  0  0  0  0  0  0  0  0  0  0
  140.7390   75.7820  220.9100 N   0  0  0  0  0  0  0  0  0  0  0  0
  139.8360   75.3800  221.8430 C   0  0  0  0  0  0  0  0  0  0  0  0
  138.8150   76.2720  222.2750 N   0  0  0  0  0  0  0  0  0  0  0  0
  137.4350   75.8480  222.2180 C   0  0  0  0  0  0  0  0  0  0  0  0
  136.5480   76.7160  223.0860 C   0  0  0  0  0  0  0  0  0  0  0  0
  136.7800   78.1570  222.8300 C   0  0  0  0  0  0  0  0  0  0  0  0
  135.7590   79.0770  222.7460 C   0  0  0  0  0  0  0  0  0  0  0  0
  136.0280   80.4250  222.5030 C   0  0  0  0  0  0  0  0  0  0  0  0
  137.3280   80.8560  222.3420 C   0  0  0  0  0  0  0  0  0  0  0  0
  138.3300   79.9100  222.4310 C   0  0  0  0  0  0  0  0  0  0  0  0
  138.0820   78.5750  222.6710 C   0  0  0  0  0  0  0  0  0  0  0  0
  139.1710   77.5800  222.7630 C   0  0  0  0  0  0  0  0  0  0  0  0
  139.9180   74.1420  222.3400 N   0  0  0  0  0  0  0  0  0  0  0  0
  140.3960   71.4940  224.8610 C   0  0  0  0  0  0  0  0  0  0  0  0
  140.0371   66.8380  227.4480 H   0  0  0  0  0  0  0  0  0  0  0  0
  141.7417   68.5463  228.1420 H   0  0  0  0  0  0  0  0  0  0  0  0
  141.8216   70.6685  226.8762 H   0  0  0  0  0  0  0  0  0  0  0  0
  138.4980   67.2790  225.5525 H   0  0  0  0  0  0  0  0  0  0  0  0
  137.9307   68.6707  223.6334 H   0  0  0  0  0  0  0  0  0  0  0  0
  137.6269   70.2690  224.3002 H   0  0  0  0  0  0  0  0  0  0  0  0
  140.2446   69.4875  222.8342 H   0  0  0  0  0  0  0  0  0  0  0  0
  138.8616   70.2720  222.0100 H   0  0  0  0  0  0  0  0  0  0  0  0
  139.0034   72.1891  223.4786 H   0  0  0  0  0  0  0  0  0  0  0  0
  141.6580   71.3060  222.2890 H   0  0  0  0  0  0  0  0  0  0  0  0
  142.9190   74.6440  218.7890 H   0  0  0  0  0  0  0  0  0  0  0  0
  143.5124   76.9665  220.5691 H   0  0  0  0  0  0  0  0  0  0  0  0
  144.1567   76.7419  218.9260 H   0  0  0  0  0  0  0  0  0  0  0  0
  142.6766   78.3006  218.2872 H   0  0  0  0  0  0  0  0  0  0  0  0
  141.4150   77.0098  218.5606 H   0  0  0  0  0  0  0  0  0  0  0  0
  140.4980   78.1606  220.0620 H   0  0  0  0  0  0  0  0  0  0  0  0
  142.6728   80.2147  219.5218 H   0  0  0  0  0  0  0  0  0  0  0  0
  140.9881   80.3347  219.1120 H   0  0  0  0  0  0  0  0  0  0  0  0
  141.8156   81.4709  221.4226 H   0  0  0  0  0  0  0  0  0  0  0  0
  140.3439   80.5547  221.5434 H   0  0  0  0  0  0  0  0  0  0  0  0
  143.1882   79.7902  222.2977 H   0  0  0  0  0  0  0  0  0  0  0  0
  141.6702   79.2966  223.0898 H   0  0  0  0  0  0  0  0  0  0  0  0
  141.8090   77.3960  221.8830 H   0  0  0  0  0  0  0  0  0  0  0  0
  137.0855   75.9095  221.1768 H   0  0  0  0  0  0  0  0  0  0  0  0
  137.3770   74.8151  222.5919 H   0  0  0  0  0  0  0  0  0  0  0  0
  135.4955   76.4796  222.8704 H   0  0  0  0  0  0  0  0  0  0  0  0
  136.7880   76.5097  224.1395 H   0  0  0  0  0  0  0  0  0  0  0  0
  134.7178   78.7454  222.8720 H   0  0  0  0  0  0  0  0  0  0  0  0
  135.1998   81.1462  222.4397 H   0  0  0  0  0  0  0  0  0  0  0  0
  137.5583   81.9143  222.1498 H   0  0  0  0  0  0  0  0  0  0  0  0
  139.3729   80.2361  222.3048 H   0  0  0  0  0  0  0  0  0  0  0  0
  140.0252   77.9474  222.1753 H   0  0  0  0  0  0  0  0  0  0  0  0
  139.4079   77.4666  223.8312 H   0  0  0  0  0  0  0  0  0  0  0  0
  141.4653   71.7505  224.8333 H   0  0  0  0  0  0  0  0  0  0  0  0
  139.8082   72.2244  225.4364 H   0  0  0  0  0  0  0  0  0  0  0  0
  1  2  2  0
  2  3  1  0
  3  4  2  0
  4  5  1  0
  5  6  2  0
  5  7  1  0
  7  8  1  0
  8  9  1  0
  9 10  1  0
 10 11  1  0
 11 12  2  0
 12 13  1  0
 13 14  1  0
 14 15  1  0
 15 16  1  0
 16 17  1  0
 17 18  1  0
 18 19  1  0
 19 20  1  0
 20 21  1  0
 13 22  2  0
 22 23  1  0
 23 24  1  0
 24 25  1  0
 25 26  1  0
 26 27  1  0
 27 28  2  0
 28 29  1  0
 29 30  2  0
 30 31  1  0
 31 32  2  0
 32 33  1  0
 23 34  2  0
  9 35  1  0
  6  1  1  0
 34 11  1  0
 35  4  1  0
 21 17  1  0
 33 24  1  0
 32 27  1  0
  1 36  1  0
  2 37  1  0
  3 38  1  0
  6 39  1  0
  7 40  1  0
  7 41  1  0
  8 42  1  0
  8 43  1  0
  9 44  1  1
 10 45  1  0
 14 46  1  0
 15 47  1  0
 15 48  1  0
 16 49  1  0
 16 50  1  0
 17 51  1  1
 18 52  1  0
 18 53  1  0
 19 54  1  0
 19 55  1  0
 20 56  1  0
 20 57  1  0
 21 58  1  0
 25 59  1  0
 25 60  1  0
 26 61  1  0
 26 62  1  0
 28 63  1  0
 29 64  1  0
 30 65  1  0
 31 66  1  0
 33 67  1  0
 33 68  1  0
 35 69  1  0
 35 70  1  0
M  END
>  <smiles>  (2) 
c1ccc2c(c1)CCC(Nc1nc(NCCC3CCCN3)nc(N3CCc4ccccc4C3)n1)C2

>  <score_type>  (2) 
oracle

>  <origin>  (2) 
autodockgpu

>  <m_score__min__energy>  (2) 
-9.8699999999999992

>  <m_primary>  (2) 
energy

>  <rmsd>  (2) 
11.906840673167215

>  <m_score__min__rmsd>  (2) 
11.906840673167215

>  <meeko>  (2) 
{"free_energy": -8.49, "intermolecular_energy": -10.58, "internal_energy": -2.28, "cluster_size": 3, "cluster_id": 6, "rank_in_cluster": 3}

>  <energy>  (2) 
-9.83

>  <cluster_rmsd>  (2) 
0.0

>  <cluster>  (2) 
2

$$$$

     RDKit          3D

 70 75  0  0  1  0  0  0  0  0999 V2000
  141.7390   81.0770  223.8110 C   0  0  0  0  0  0  0  0  0  0  0  0
  142.9480   80.5880  223.3210 C   0  0  0  0  0  0  0  0  0  0  0  0
  142.8690   79.4950  222.4910 C   0  0  0  0  0  0  0  0  0  0  0  0
  141.6890   78.8820  222.1360 C   0  0  0  0  0  0  0  0  0  0  0  0
  140.5200   79.3980  222.6430 C   0  0  0  0  0  0  0  0  0  0  0  0
  140.5270   80.4890  223.4770 C   0  0  0  0  0  0  0  0  0  0  0  0
  139.2570   78.7020  222.2320 C   0  0  0  0  0  0  0  0  0  0  0  0
  139.5830   77.2090  222.3950 C   0  0  0  0  0  0  0  0  0  0  0  0
  140.5690   76.8080  221.3250 C   0  0  2  0  0  0  0  0  0  0  0  0
  140.9860   75.4350  221.5970 N   0  0  0  0  0  0  0  0  0  0  0  0
  140.0830   74.3650  221.6700 C   0  0  0  0  0  0  0  0  0  0  0  0
  139.0170   74.2020  220.8800 N   0  0  0  0  0  0  0  0  0  0  0  0
  138.1580   73.1700  220.9610 C   0  0  0  0  0  0  0  0  0  0  0  0
  137.0320   73.0470  220.0870 N   0  0  0  0  0  0  0  0  0  0  0  0
  135.7900   73.7820  220.3420 C   0  0  0  0  0  0  0  0  0  0  0  0
  135.1740   73.1910  221.5630 C   0  0  0  0  0  0  0  0  0  0  0  0
  135.5820   73.8920  222.8360 C   0  0  2  0  0  0  0  0  0  0  0  0
  134.5480   74.8260  223.3800 C   0  0  0  0  0  0  0  0  0  0  0  0
  135.3980   75.7050  224.2920 C   0  0  0  0  0  0  0  0  0  0  0  0
  136.6460   75.8690  223.4540 C   0  0  0  0  0  0  0  0  0  0  0  0
  136.7550   74.7180  222.6130 N   0  0  0  0  0  0  0  0  0  0  0  0
  138.3930   72.2230  221.9150 N   0  0  0  0  0  0  0  0  0  0  0  0
  139.4650   72.3430  222.7420 C   0  0  0  0  0  0  0  0  0  0  0  0
  139.7110   71.3540  223.7350 N   0  0  0  0  0  0  0  0  0  0  0  0
  138.8790   70.1730  223.7760 C   0  0  0  0  0  0  0  0  0  0  0  0
  139.5240   69.0640  224.5810 C   0  0  0  0  0  0  0  0  0  0  0  0
  139.9970   69.5530  225.8980 C   0  0  0  0  0  0  0  0  0  0  0  0
  139.8400   68.8370  227.0630 C   0  0  0  0  0  0  0  0  0  0  0  0
  140.3030   69.3400  228.2800 C   0  0  0  0  0  0  0  0  0  0  0  0
  140.9270   70.5690  228.3310 C   0  0  0  0  0  0  0  0  0  0  0  0
  141.0690   71.2630  227.1470 C   0  0  0  0  0  0  0  0  0  0  0  0
  140.6180   70.7810  225.9360 C   0  0  0  0  0  0  0  0  0  0  0  0
  140.7810   71.5420  224.6800 C   0  0  0  0  0  0  0  0  0  0  0  0
  140.2790   73.3950  222.6090 N   0  0  0  0  0  0  0  0  0  0  0  0
  141.7650   77.7140  221.2320 C   0  0  0  0  0  0  0  0  0  0  0  0
  141.7452   81.9508  224.4792 H   0  0  0  0  0  0  0  0  0  0  0  0
  143.9111   81.0502  223.5834 H   0  0  0  0  0  0  0  0  0  0  0  0
  143.8061   79.0854  222.0859 H   0  0  0  0  0  0  0  0  0  0  0  0
  139.5840   80.8917  223.8753 H   0  0  0  0  0  0  0  0  0  0  0  0
  138.4206   78.9928  222.8846 H   0  0  0  0  0  0  0  0  0  0  0  0
  138.9477   78.9577  221.2078 H   0  0  0  0  0  0  0  0  0  0  0  0
  140.0225   77.0326  223.3879 H   0  0  0  0  0  0  0  0  0  0  0  0
  138.6637   76.6126  222.2992 H   0  0  0  0  0  0  0  0  0  0  0  0
  140.0681   76.8920  220.3493 H   0  0  0  0  0  0  0  0  0  0  0  0
  142.0060   75.2670  221.7410 H   0  0  0  0  0  0  0  0  0  0  0  0
  137.1520   72.4140  219.2750 H   0  0  0  0  0  0  0  0  0  0  0  0
  136.0091   74.8471  220.5077 H   0  0  0  0  0  0  0  0  0  0  0  0
  135.1069   73.7064  219.4831 H   0  0  0  0  0  0  0  0  0  0  0  0
  134.0799   73.2513  221.4664 H   0  0  0  0  0  0  0  0  0  0  0  0
  135.5267   72.1516  221.6357 H   0  0  0  0  0  0  0  0  0  0  0  0
  135.7549   73.0719  223.5485 H   0  0  0  0  0  0  0  0  0  0  0  0
  134.0741   75.4138  222.5800 H   0  0  0  0  0  0  0  0  0  0  0  0
  133.7086   74.3269  223.8862 H   0  0  0  0  0  0  0  0  0  0  0  0
  134.9126   76.6726  224.4874 H   0  0  0  0  0  0  0  0  0  0  0  0
  135.5757   75.2824  225.2919 H   0  0  0  0  0  0  0  0  0  0  0  0
  136.5681   76.7774  222.8386 H   0  0  0  0  0  0  0  0  0  0  0  0
  137.5337   75.9640  224.0966 H   0  0  0  0  0  0  0  0  0  0  0  0
  137.6510   74.2070  222.6890 H   0  0  0  0  0  0  0  0  0  0  0  0
  137.9136   70.4323  224.2351 H   0  0  0  0  0  0  0  0  0  0  0  0
  138.7403   69.8140  222.7455 H   0  0  0  0  0  0  0  0  0  0  0  0
  138.7870   68.2632  224.7407 H   0  0  0  0  0  0  0  0  0  0  0  0
  140.3928   68.6903  224.0193 H   0  0  0  0  0  0  0  0  0  0  0  0
  139.3433   67.8559  227.0346 H   0  0  0  0  0  0  0  0  0  0  0  0
  140.1697   68.7542  229.2015 H   0  0  0  0  0  0  0  0  0  0  0  0
  141.2980   70.9809  229.2811 H   0  0  0  0  0  0  0  0  0  0  0  0
  141.5642   72.2450  227.1699 H   0  0  0  0  0  0  0  0  0  0  0  0
  140.8376   72.6119  224.9293 H   0  0  0  0  0  0  0  0  0  0  0  0
  141.6974   71.1684  224.1997 H   0  0  0  0  0  0  0  0  0  0  0  0
  142.6633   77.1329  221.4879 H   0  0  0  0  0  0  0  0  0  0  0  0
  141.7995   78.1015  220.2031 H   0  0  0  0  0  0  0  0  0  0  0  0
  1  2  2  0
  2  3  1  0
  3  4  2  0
  4  5  1  0
  5  6  2  0
  5  7  1  0
  7  8  1  0
  8  9  1  0
  9 10  1  0
 10 11  1  0
 11 12  2  0
 12 13  1  0
 13 14  1  0
 14 15  1  0
 15 16  1  0
 16 17  1  0
 17 18  1  0
 18 19  1  0
 19 20  1  0
 20 21  1  0
 13 22  2  0
 22 23  1  0
 23 24  1  0
 24 25  1  0
 25 26  1  0
 26 27  1  0
 27 28  2  0
 28 29  1  0
 29 30  2  0
 30 31  1  0
 31 32  2  0
 32 33  1  0
 23 34  2  0
  9 35  1  0
  6  1  1  0
 34 11  1  0
 35  4  1  0
 21 17  1  0
 33 24  1  0
 32 27  1  0
  1 36  1  0
  2 37  1  0
  3 38  1  0
  6 39  1  0
  7 40  1  0
  7 41  1  0
  8 42  1  0
  8 43  1  0
  9 44  1  6
 10 45  1  0
 14 46  1  0
 15 47  1  0
 15 48  1  0
 16 49  1  0
 16 50  1  0
 17 51  1  1
 18 52  1  0
 18 53  1  0
 19 54  1  0
 19 55  1  0
 20 56  1  0
 20 57  1  0
 21 58  1  0
 25 59  1  0
 25 60  1  0
 26 61  1  0
 26 62  1  0
 28 63  1  0
 29 64  1  0
 30 65  1  0
 31 66  1  0
 33 67  1  0
 33 68  1  0
 35 69  1  0
 35 70  1  0
M  END
>  <smiles>  (3) 
c1ccc2c(c1)CCC(Nc1nc(NCCC3CCCN3)nc(N3CCc4ccccc4C3)n1)C2

>  <score_type>  (3) 
oracle

>  <origin>  (3) 
autodockgpu

>  <m_score__min__energy>  (3) 
-9.8699999999999992

>  <m_primary>  (3) 
energy

>  <rmsd>  (3) 
4.321128563185863

>  <m_score__min__rmsd>  (3) 
4.321128563185863

>  <meeko>  (3) 
{"free_energy": -9.72, "intermolecular_energy": -11.81, "internal_energy": -2.38, "cluster_size": 17, "cluster_id": 2, "rank_in_cluster": 5}

>  <energy>  (3) 
-9.83

>  <cluster_rmsd>  (3) 
0.35

>  <cluster>  (3) 
2

$$$$

     RDKit          3D

 70 75  0  0  1  0  0  0  0  0999 V2000
  141.4040   80.7050  223.8860 C   0  0  0  0  0  0  0  0  0  0  0  0
  142.5900   80.3900  223.2260 C   0  0  0  0  0  0  0  0  0  0  0  0
  142.5290   79.3450  222.3350 C   0  0  0  0  0  0  0  0  0  0  0  0
  141.3880   78.6200  222.0750 C   0  0  0  0  0  0  0  0  0  0  0  0
  140.2410   78.9660  222.7500 C   0  0  0  0  0  0  0  0  0  0  0  0
  140.2330   80.0000  223.6540 C   0  0  0  0  0  0  0  0  0  0  0  0
  139.0210   78.1510  222.4410 C   0  0  0  0  0  0  0  0  0  0  0  0
  139.5260   76.7000  222.4570 C   0  0  0  0  0  0  0  0  0  0  0  0
  140.4110   76.4800  221.2540 C   0  0  2  0  0  0  0  0  0  0  0  0
  141.0050   75.1520  221.3760 N   0  0  0  0  0  0  0  0  0  0  0  0
  140.2440   73.9900  221.5650 C   0  0  0  0  0  0  0  0  0  0  0  0
  139.3610   73.4980  220.6900 N   0  0  0  0  0  0  0  0  0  0  0  0
  138.6360   72.3820  220.8830 C   0  0  0  0  0  0  0  0  0  0  0  0
  137.7040   71.9010  219.9090 N   0  0  0  0  0  0  0  0  0  0  0  0
  136.3210   72.3850  219.8800 C   0  0  0  0  0  0  0  0  0  0  0  0
  135.7140   72.0570  221.2010 C   0  0  0  0  0  0  0  0  0  0  0  0
  136.1270   73.0060  222.2990 C   0  0  2  0  0  0  0  0  0  0  0  0
  135.0400   73.3250  223.2750 C   0  0  0  0  0  0  0  0  0  0  0  0
  135.5710   74.6130  223.8950 C   0  0  0  0  0  0  0  0  0  0  0  0
  136.1470   75.3030  222.6790 C   0  0  0  0  0  0  0  0  0  0  0  0
  136.5250   74.2880  221.7460 N   0  0  0  0  0  0  0  0  0  0  0  0
  138.8160   71.7040  222.0530 N   0  0  0  0  0  0  0  0  0  0  0  0
  139.7030   72.1630  222.9750 C   0  0  0  0  0  0  0  0  0  0  0  0
  139.8930   71.4540  224.1940 N   0  0  0  0  0  0  0  0  0  0  0  0
  140.9320   71.8790  225.1040 C   0  0  0  0  0  0  0  0  0  0  0  0
  140.7230   71.3120  226.4930 C   0  0  0  0  0  0  0  0  0  0  0  0
  140.4750   69.8510  226.4510 C   0  0  0  0  0  0  0  0  0  0  0  0
  141.0330   68.9710  227.3500 C   0  0  0  0  0  0  0  0  0  0  0  0
  140.7680   67.6020  227.2700 C   0  0  0  0  0  0  0  0  0  0  0  0
  139.9400   67.1110  226.2830 C   0  0  0  0  0  0  0  0  0  0  0  0
  139.3950   68.0190  225.3970 C   0  0  0  0  0  0  0  0  0  0  0  0
  139.6460   69.3740  225.4620 C   0  0  0  0  0  0  0  0  0  0  0  0
  139.0510   70.3270  224.5020 C   0  0  0  0  0  0  0  0  0  0  0  0
  140.3910   73.2800  222.7200 N   0  0  0  0  0  0  0  0  0  0  0  0
  141.4790   77.5240  221.0870 C   0  0  0  0  0  0  0  0  0  0  0  0
  141.3966   81.5338  224.6092 H   0  0  0  0  0  0  0  0  0  0  0  0
  143.5218   80.9457  223.4075 H   0  0  0  0  0  0  0  0  0  0  0  0
  143.4484   79.0713  221.7967 H   0  0  0  0  0  0  0  0  0  0  0  0
  139.3085   80.2656  224.1876 H   0  0  0  0  0  0  0  0  0  0  0  0
  138.2456   78.3031  223.2063 H   0  0  0  0  0  0  0  0  0  0  0  0
  138.5606   78.4273  221.4809 H   0  0  0  0  0  0  0  0  0  0  0  0
  140.1009   76.5187  223.3771 H   0  0  0  0  0  0  0  0  0  0  0  0
  138.6726   76.0067  222.4251 H   0  0  0  0  0  0  0  0  0  0  0  0
  139.7876   76.5612  220.3513 H   0  0  0  0  0  0  0  0  0  0  0  0
  142.0460   75.0890  221.3190 H   0  0  0  0  0  0  0  0  0  0  0  0
  138.0670   71.2010  219.2360 H   0  0  0  0  0  0  0  0  0  0  0  0
  136.3053   73.4728  219.7172 H   0  0  0  0  0  0  0  0  0  0  0  0
  135.7578   71.9119  219.0621 H   0  0  0  0  0  0  0  0  0  0  0  0
  134.6192   72.0937  221.1011 H   0  0  0  0  0  0  0  0  0  0  0  0
  136.0707   71.0557  221.4842 H   0  0  0  0  0  0  0  0  0  0  0  0
  136.9451   72.4796  222.8124 H   0  0  0  0  0  0  0  0  0  0  0  0
  134.0775   73.4881  222.7680 H   0  0  0  0  0  0  0  0  0  0  0  0
  134.8344   72.5245  224.0010 H   0  0  0  0  0  0  0  0  0  0  0  0
  134.7634   75.2048  224.3505 H   0  0  0  0  0  0  0  0  0  0  0  0
  136.2908   74.4594  224.7125 H   0  0  0  0  0  0  0  0  0  0  0  0
  135.3912   75.9636  222.2292 H   0  0  0  0  0  0  0  0  0  0  0  0
  137.0171   75.9156  222.9577 H   0  0  0  0  0  0  0  0  0  0  0  0
  137.5110   74.3260  221.4370 H   0  0  0  0  0  0  0  0  0  0  0  0
  141.9044   71.5358  224.7209 H   0  0  0  0  0  0  0  0  0  0  0  0
  140.9018   72.9765  225.1723 H   0  0  0  0  0  0  0  0  0  0  0  0
  141.6219   71.5049  227.0969 H   0  0  0  0  0  0  0  0  0  0  0  0
  139.8420   71.7993  226.9361 H   0  0  0  0  0  0  0  0  0  0  0  0
  141.6960   69.3505  228.1415 H   0  0  0  0  0  0  0  0  0  0  0  0
  141.2217   66.9128  227.9974 H   0  0  0  0  0  0  0  0  0  0  0  0
  139.7217   66.0358  226.2043 H   0  0  0  0  0  0  0  0  0  0  0  0
  138.7309   67.6452  224.6037 H   0  0  0  0  0  0  0  0  0  0  0  0
  138.8391   69.7882  223.5667 H   0  0  0  0  0  0  0  0  0  0  0  0
  138.1432   70.7292  224.9755 H   0  0  0  0  0  0  0  0  0  0  0  0
  142.4605   77.0390  221.1937 H   0  0  0  0  0  0  0  0  0  0  0  0
  141.3426   77.9718  220.0916 H   0  0  0  0  0  0  0  0  0  0  0  0
  1  2  2  0
  2  3  1  0
  3  4  2  0
  4  5  1  0
  5  6  2  0
  5  7  1  0
  7  8  1  0
  8  9  1  0
  9 10  1  0
 10 11  1  0
 11 12  2  0
 12 13  1  0
 13 14  1  0
 14 15  1  0
 15 16  1  0
 16 17  1  0
 17 18  1  0
 18 19  1  0
 19 20  1  0
 20 21  1  0
 13 22  2  0
 22 23  1  0
 23 24  1  0
 24 25  1  0
 25 26  1  0
 26 27  1  0
 27 28  2  0
 28 29  1  0
 29 30  2  0
 30 31  1  0
 31 32  2  0
 32 33  1  0
 23 34  2  0
  9 35  1  0
  6  1  1  0
 34 11  1  0
 35  4  1  0
 21 17  1  0
 33 24  1  0
 32 27  1  0
  1 36  1  0
  2 37  1  0
  3 38  1  0
  6 39  1  0
  7 40  1  0
  7 41  1  0
  8 42  1  0
  8 43  1  0
  9 44  1  6
 10 45  1  0
 14 46  1  0
 15 47  1  0
 15 48  1  0
 16 49  1  0
 16 50  1  0
 17 51  1  1
 18 52  1  0
 18 53  1  0
 19 54  1  0
 19 55  1  0
 20 56  1  0
 20 57  1  0
 21 58  1  0
 25 59  1  0
 25 60  1  0
 26 61  1  0
 26 62  1  0
 28 63  1  0
 29 64  1  0
 30 65  1  0
 31 66  1  0
 33 67  1  0
 33 68  1  0
 35 69  1  0
 35 70  1  0
M  END
>  <smiles>  (4) 
c1ccc2c(c1)CCC(Nc1nc(NCCC3CCCN3)nc(N3CCc4ccccc4C3)n1)C2

>  <score_type>  (4) 
oracle

>  <origin>  (4) 
autodockgpu

>  <m_score__min__energy>  (4) 
-9.8699999999999992

>  <m_primary>  (4) 
energy

>  <rmsd>  (4) 
4.451168793500876

>  <m_score__min__rmsd>  (4) 
4.451168793500876

>  <meeko>  (4) 
{"free_energy": -8.63, "intermolecular_energy": -10.72, "internal_energy": -2.21, "cluster_size": 17, "cluster_id": 2, "rank_in_cluster": 15}

>  <energy>  (4) 
-9.78

>  <cluster_rmsd>  (4) 
0.39

>  <cluster>  (4) 
2

$$$$

     RDKit          3D

 70 75  0  0  1  0  0  0  0  0999 V2000
  142.0760   81.1170  221.4850 C   0  0  0  0  0  0  0  0  0  0  0  0
  140.9000   81.2270  220.7460 C   0  0  0  0  0  0  0  0  0  0  0  0
  139.9610   80.2440  220.9500 C   0  0  0  0  0  0  0  0  0  0  0  0
  140.1240   79.1920  221.8220 C   0  0  0  0  0  0  0  0  0  0  0  0
  141.3000   79.1230  222.5310 C   0  0  0  0  0  0  0  0  0  0  0  0
  142.2810   80.0730  222.3750 C   0  0  0  0  0  0  0  0  0  0  0  0
  141.4400   77.9620  223.4690 C   0  0  0  0  0  0  0  0  0  0  0  0
  140.9550   76.7570  222.6470 C   0  0  0  0  0  0  0  0  0  0  0  0
  139.4630   76.8720  222.4500 C   0  0  2  0  0  0  0  0  0  0  0  0
  139.0530   75.8100  221.5360 N   0  0  0  0  0  0  0  0  0  0  0  0
  139.7290   74.5870  221.4360 C   0  0  0  0  0  0  0  0  0  0  0  0
  140.5020   74.2150  220.4100 N   0  0  0  0  0  0  0  0  0  0  0  0
  141.1450   73.0370  220.3270 C   0  0  0  0  0  0  0  0  0  0  0  0
  141.9620   72.6940  219.2030 N   0  0  0  0  0  0  0  0  0  0  0  0
  143.4210   72.8240  219.2580 C   0  0  0  0  0  0  0  0  0  0  0  0
  143.7200   74.1980  219.7480 C   0  0  0  0  0  0  0  0  0  0  0  0
  142.8950   75.2660  219.0730 C   0  0  2  0  0  0  0  0  0  0  0  0
  143.6180   76.0110  217.9970 C   0  0  0  0  0  0  0  0  0  0  0  0
  142.7640   77.2700  217.8880 C   0  0  0  0  0  0  0  0  0  0  0  0
  142.4550   77.5370  219.3440 C   0  0  0  0  0  0  0  0  0  0  0  0
  142.4910   76.2820  220.0280 N   0  0  0  0  0  0  0  0  0  0  0  0
  141.0000   72.1610  221.3620 N   0  0  0  0  0  0  0  0  0  0  0  0
  140.2240   72.4920  222.4290 C   0  0  0  0  0  0  0  0  0  0  0  0
  140.0760   71.5790  223.5100 N   0  0  0  0  0  0  0  0  0  0  0  0
  138.9220   70.7100  223.5470 C   0  0  0  0  0  0  0  0  0  0  0  0
  139.1300   69.5460  224.4930 C   0  0  0  0  0  0  0  0  0  0  0  0
  139.6230   70.0020  225.8150 C   0  0  0  0  0  0  0  0  0  0  0  0
  139.1630   69.4860  227.0050 C   0  0  0  0  0  0  0  0  0  0  0  0
  139.6590   69.9490  228.2250 C   0  0  0  0  0  0  0  0  0  0  0  0
  140.6230   70.9340  228.2540 C   0  0  0  0  0  0  0  0  0  0  0  0
  141.0640   71.4320  227.0450 C   0  0  0  0  0  0  0  0  0  0  0  0
  140.5850   70.9870  225.8310 C   0  0  0  0  0  0  0  0  0  0  0  0
  141.0730   71.5340  224.5480 C   0  0  0  0  0  0  0  0  0  0  0  0
  139.6120   73.6800  222.4480 N   0  0  0  0  0  0  0  0  0  0  0  0
  139.0210   78.2130  221.9350 C   0  0  0  0  0  0  0  0  0  0  0  0
  142.8614   81.8769  221.3595 H   0  0  0  0  0  0  0  0  0  0  0  0
  140.7325   82.0534  220.0396 H   0  0  0  0  0  0  0  0  0  0  0  0
  139.0213   80.3019  220.3811 H   0  0  0  0  0  0  0  0  0  0  0  0
  143.2171   80.0062  222.9488 H   0  0  0  0  0  0  0  0  0  0  0  0
  142.4887   77.8303  223.7739 H   0  0  0  0  0  0  0  0  0  0  0  0
  140.8672   78.0979  224.3982 H   0  0  0  0  0  0  0  0  0  0  0  0
  141.4578   76.7503  221.6686 H   0  0  0  0  0  0  0  0  0  0  0  0
  141.1912   75.8229  223.1777 H   0  0  0  0  0  0  0  0  0  0  0  0
  138.9784   76.7682  223.4320 H   0  0  0  0  0  0  0  0  0  0  0  0
  138.2160   75.9940  220.9390 H   0  0  0  0  0  0  0  0  0  0  0  0
  141.4610   72.3530  218.3620 H   0  0  0  0  0  0  0  0  0  0  0  0
  143.8406   72.0775  219.9485 H   0  0  0  0  0  0  0  0  0  0  0  0
  143.8667   72.6563  218.2664 H   0  0  0  0  0  0  0  0  0  0  0  0
  143.5204   74.2341  220.8291 H   0  0  0  0  0  0  0  0  0  0  0  0
  144.7747   74.4048  219.5136 H   0  0  0  0  0  0  0  0  0  0  0  0
  142.0483   74.7139  218.6389 H   0  0  0  0  0  0  0  0  0  0  0  0
  144.6504   76.2479  218.2938 H   0  0  0  0  0  0  0  0  0  0  0  0
  143.7257   75.4540  217.0546 H   0  0  0  0  0  0  0  0  0  0  0  0
  143.3253   78.1007  217.4354 H   0  0  0  0  0  0  0  0  0  0  0  0
  141.8754   77.1609  217.2488 H   0  0  0  0  0  0  0  0  0  0  0  0
  143.2072   78.2180  219.7688 H   0  0  0  0  0  0  0  0  0  0  0  0
  141.4666   78.0080  219.4503 H   0  0  0  0  0  0  0  0  0  0  0  0
  141.6320   76.0490  220.5550 H   0  0  0  0  0  0  0  0  0  0  0  0
  138.0491   71.2900  223.8813 H   0  0  0  0  0  0  0  0  0  0  0  0
  138.7625   70.3070  222.5360 H   0  0  0  0  0  0  0  0  0  0  0  0
  138.1730   69.0212  224.6299 H   0  0  0  0  0  0  0  0  0  0  0  0
  139.8847   68.8760  224.0554 H   0  0  0  0  0  0  0  0  0  0  0  0
  138.3948   68.6988  226.9947 H   0  0  0  0  0  0  0  0  0  0  0  0
  139.2792   69.5262  229.1668 H   0  0  0  0  0  0  0  0  0  0  0  0
  141.0260   71.3093  229.2062 H   0  0  0  0  0  0  0  0  0  0  0  0
  141.8322   72.2193  227.0499 H   0  0  0  0  0  0  0  0  0  0  0  0
  141.4344   72.5579  224.7243 H   0  0  0  0  0  0  0  0  0  0  0  0
  141.8661   70.8577  224.1964 H   0  0  0  0  0  0  0  0  0  0  0  0
  138.5747   78.0742  220.9392 H   0  0  0  0  0  0  0  0  0  0  0  0
  138.3006   78.6181  222.6609 H   0  0  0  0  0  0  0  0  0  0  0  0
  1  2  2  0
  2  3  1  0
  3  4  2  0
  4  5  1  0
  5  6  2  0
  5  7  1  0
  7  8  1  0
  8  9  1  0
  9 10  1  0
 10 11  1  0
 11 12  2  0
 12 13  1  0
 13 14  1  0
 14 15  1  0
 15 16  1  0
 16 17  1  0
 17 18  1  0
 18 19  1  0
 19 20  1  0
 20 21  1  0
 13 22  2  0
 22 23  1  0
 23 24  1  0
 24 25  1  0
 25 26  1  0
 26 27  1  0
 27 28  2  0
 28 29  1  0
 29 30  2  0
 30 31  1  0
 31 32  2  0
 32 33  1  0
 23 34  2  0
  9 35  1  0
  6  1  1  0
 34 11  1  0
 35  4  1  0
 21 17  1  0
 33 24  1  0
 32 27  1  0
  1 36  1  0
  2 37  1  0
  3 38  1  0
  6 39  1  0
  7 40  1  0
  7 41  1  0
  8 42  1  0
  8 43  1  0
  9 44  1  1
 10 45  1  0
 14 46  1  0
 15 47  1  0
 15 48  1  0
 16 49  1  0
 16 50  1  0
 17 51  1  6
 18 52  1  0
 18 53  1  0
 19 54  1  0
 19 55  1  0
 20 56  1  0
 20 57  1  0
 21 58  1  0
 25 59  1  0
 25 60  1  0
 26 61  1  0
 26 62  1  0
 28 63  1  0
 29 64  1  0
 30 65  1  0
 31 66  1  0
 33 67  1  0
 33 68  1  0
 35 69  1  0
 35 70  1  0
M  END
>  <smiles>  (5) 
c1ccc2c(c1)CCC(Nc1nc(NCCC3CCCN3)nc(N3CCc4ccccc4C3)n1)C2

>  <score_type>  (5) 
oracle

>  <origin>  (5) 
autodockgpu

>  <m_score__min__energy>  (5) 
-9.8699999999999992

>  <m_primary>  (5) 
energy

>  <rmsd>  (5) 
3.2502301255357313

>  <m_score__min__rmsd>  (5) 
3.2502301255357313

>  <meeko>  (5) 
{"free_energy": -8.5, "intermolecular_energy": -10.58, "internal_energy": -2.53, "cluster_size": 17, "cluster_id": 3, "rank_in_cluster": 14}

>  <energy>  (5) 
-9.75

>  <cluster_rmsd>  (5) 
0.36

>  <cluster>  (5) 
2

$$$$

     RDKit          3D

 70 75  0  0  1  0  0  0  0  0999 V2000
  141.8250   79.1930  217.6810 C   0  0  0  0  0  0  0  0  0  0  0  0
  141.6450   79.1510  219.0620 C   0  0  0  0  0  0  0  0  0  0  0  0
  142.1550   78.0500  219.7070 C   0  0  0  0  0  0  0  0  0  0  0  0
  142.8140   77.0220  219.0730 C   0  0  0  0  0  0  0  0  0  0  0  0
  142.9690   77.1050  217.7090 C   0  0  0  0  0  0  0  0  0  0  0  0
  142.4830   78.1780  217.0020 C   0  0  0  0  0  0  0  0  0  0  0  0
  143.6900   75.9650  217.0540 C   0  0  0  0  0  0  0  0  0  0  0  0
  143.0670   74.7130  217.6920 C   0  0  0  0  0  0  0  0  0  0  0  0
  143.5100   74.6300  219.1320 C   0  0  2  0  0  0  0  0  0  0  0  0
  142.7800   73.5300  219.7580 N   0  0  0  0  0  0  0  0  0  0  0  0
  141.6920   73.7290  220.6190 C   0  0  0  0  0  0  0  0  0  0  0  0
  140.9010   74.8070  220.6240 N   0  0  0  0  0  0  0  0  0  0  0  0
  139.8600   74.9860  221.4550 C   0  0  0  0  0  0  0  0  0  0  0  0
  139.0460   76.1630  221.4130 N   0  0  0  0  0  0  0  0  0  0  0  0
  139.5140   77.4290  221.9850 C   0  0  0  0  0  0  0  0  0  0  0  0
  140.9030   77.2010  222.4750 C   0  0  0  0  0  0  0  0  0  0  0  0
  141.4760   78.3840  223.2190 C   0  0  2  0  0  0  0  0  0  0  0  0
  140.4810   79.4590  223.5190 C   0  0  0  0  0  0  0  0  0  0  0  0
  141.4030   80.6470  223.7760 C   0  0  0  0  0  0  0  0  0  0  0  0
  142.4530   80.4350  222.7080 C   0  0  0  0  0  0  0  0  0  0  0  0
  142.5060   79.0340  222.4300 N   0  0  0  0  0  0  0  0  0  0  0  0
  139.5910   73.9980  222.3550 N   0  0  0  0  0  0  0  0  0  0  0  0
  140.3650   72.8810  222.3910 C   0  0  0  0  0  0  0  0  0  0  0  0
  140.0820   71.8490  223.3280 N   0  0  0  0  0  0  0  0  0  0  0  0
  138.8050   71.1740  223.2710 C   0  0  0  0  0  0  0  0  0  0  0  0
  138.8330   69.8620  224.0270 C   0  0  0  0  0  0  0  0  0  0  0  0
  139.4010   70.0300  225.3860 C   0  0  0  0  0  0  0  0  0  0  0  0
  138.8740   69.4180  226.5000 C   0  0  0  0  0  0  0  0  0  0  0  0
  139.4450   69.6070  227.7590 C   0  0  0  0  0  0  0  0  0  0  0  0
  140.5530   70.4150  227.9050 C   0  0  0  0  0  0  0  0  0  0  0  0
  141.0590   71.0150  226.7700 C   0  0  0  0  0  0  0  0  0  0  0  0
  140.5070   70.8390  225.5180 C   0  0  0  0  0  0  0  0  0  0  0  0
  141.0670   71.4920  224.3160 C   0  0  0  0  0  0  0  0  0  0  0  0
  141.3860   72.7670  221.5360 N   0  0  0  0  0  0  0  0  0  0  0  0
  143.3090   75.9040  219.9040 C   0  0  0  0  0  0  0  0  0  0  0  0
  141.4357   80.0522  217.1152 H   0  0  0  0  0  0  0  0  0  0  0  0
  141.1243   79.9535  219.6050 H   0  0  0  0  0  0  0  0  0  0  0  0
  142.0285   77.9866  220.7979 H   0  0  0  0  0  0  0  0  0  0  0  0
  142.6140   78.2316  215.9111 H   0  0  0  0  0  0  0  0  0  0  0  0
  143.5258   75.9721  215.9664 H   0  0  0  0  0  0  0  0  0  0  0  0
  144.7794   76.0153  217.1980 H   0  0  0  0  0  0  0  0  0  0  0  0
  141.9701   74.7813  217.6459 H   0  0  0  0  0  0  0  0  0  0  0  0
  143.3933   73.8143  217.1480 H   0  0  0  0  0  0  0  0  0  0  0  0
  144.5958   74.4546  219.1464 H   0  0  0  0  0  0  0  0  0  0  0  0
  143.1030   72.5610  219.5410 H   0  0  0  0  0  0  0  0  0  0  0  0
  138.1200   76.0620  220.9590 H   0  0  0  0  0  0  0  0  0  0  0  0
  139.5095   78.2153  221.2157 H   0  0  0  0  0  0  0  0  0  0  0  0
  138.8576   77.7545  222.8055 H   0  0  0  0  0  0  0  0  0  0  0  0
  140.8967   76.3332  223.1510 H   0  0  0  0  0  0  0  0  0  0  0  0
  141.5367   77.0338  221.5916 H   0  0  0  0  0  0  0  0  0  0  0  0
  141.8526   77.9528  224.1583 H   0  0  0  0  0  0  0  0  0  0  0  0
  139.8147   79.6427  222.6633 H   0  0  0  0  0  0  0  0  0  0  0  0
  139.7995   79.2263  224.3505 H   0  0  0  0  0  0  0  0  0  0  0  0
  140.8766   81.6034  223.6406 H   0  0  0  0  0  0  0  0  0  0  0  0
  141.8019   80.6978  224.7999 H   0  0  0  0  0  0  0  0  0  0  0  0
  142.1798   80.9885  221.7975 H   0  0  0  0  0  0  0  0  0  0  0  0
  143.4328   80.7995  223.0501 H   0  0  0  0  0  0  0  0  0  0  0  0
  143.4430   78.6060  222.5270 H   0  0  0  0  0  0  0  0  0  0  0  0
  138.0371   71.8250  223.7143 H   0  0  0  0  0  0  0  0  0  0  0  0
  138.5768   70.9585  222.2167 H   0  0  0  0  0  0  0  0  0  0  0  0
  137.8060   69.4775  224.1138 H   0  0  0  0  0  0  0  0  0  0  0  0
  139.4693   69.1572  223.4717 H   0  0  0  0  0  0  0  0  0  0  0  0
  137.9905   68.7709  226.3966 H   0  0  0  0  0  0  0  0  0  0  0  0
  139.0098   69.1097  228.6383 H   0  0  0  0  0  0  0  0  0  0  0  0
  141.0163   70.5753  228.8897 H   0  0  0  0  0  0  0  0  0  0  0  0
  141.9425   71.6629  226.8680 H   0  0  0  0  0  0  0  0  0  0  0  0
  141.5876   72.4082  224.6315 H   0  0  0  0  0  0  0  0  0  0  0  0
  141.7405   70.7620  223.8431 H   0  0  0  0  0  0  0  0  0  0  0  0
  142.5790   75.7150  220.7049 H   0  0  0  0  0  0  0  0  0  0  0  0
  144.2912   76.2029  220.2989 H   0  0  0  0  0  0  0  0  0  0  0  0
  1  2  2  0
  2  3  1  0
  3  4  2  0
  4  5  1  0
  5  6  2  0
  5  7  1  0
  7  8  1  0
  8  9  1  0
  9 10  1  0
 10 11  1  0
 11 12  2  0
 12 13  1  0
 13 14  1  0
 14 15  1  0
 15 16  1  0
 16 17  1  0
 17 18  1  0
 18 19  1  0
 19 20  1  0
 20 21  1  0
 13 22  2  0
 22 23  1  0
 23 24  1  0
 24 25  1  0
 25 26  1  0
 26 27  1  0
 27 28  2  0
 28 29  1  0
 29 30  2  0
 30 31  1  0
 31 32  2  0
 32 33  1  0
 23 34  2  0
  9 35  1  0
  6  1  1  0
 34 11  1  0
 35  4  1  0
 21 17  1  0
 33 24  1  0
 32 27  1  0
  1 36  1  0
  2 37  1  0
  3 38  1  0
  6 39  1  0
  7 40  1  0
  7 41  1  0
  8 42  1  0
  8 43  1  0
  9 44  1  6
 10 45  1  0
 14 46  1  0
 15 47  1  0
 15 48  1  0
 16 49  1  0
 16 50  1  0
 17 51  1  1
 18 52  1  0
 18 53  1  0
 19 54  1  0
 19 55  1  0
 20 56  1  0
 20 57  1  0
 21 58  1  0
 25 59  1  0
 25 60  1  0
 26 61  1  0
 26 62  1  0
 28 63  1  0
 29 64  1  0
 30 65  1  0
 31 66  1  0
 33 67  1  0
 33 68  1  0
 35 69  1  0
 35 70  1  0
M  END
>  <smiles>  (6) 
c1ccc2c(c1)CCC(Nc1nc(NCCC3CCCN3)nc(N3CCc4ccccc4C3)n1)C2

>  <score_type>  (6) 
oracle

>  <origin>  (6) 
autodockgpu

>  <m_score__min__energy>  (6) 
-9.8699999999999992

>  <m_primary>  (6) 
energy

>  <rmsd>  (6) 
6.030073090710263

>  <m_score__min__rmsd>  (6) 
6.030073090710263

>  <meeko>  (6) 
{"free_energy": -9.49, "intermolecular_energy": -11.57, "internal_energy": -1.68, "cluster_size": 3, "cluster_id": 5, "rank_in_cluster": 1}

>  <energy>  (6) 
-9.72

>  <cluster_rmsd>  (6) 
0.38

>  <cluster>  (6) 
2

$$$$

     RDKit          3D

 70 75  0  0  1  0  0  0  0  0999 V2000
  140.3960   68.1330  227.5580 C   0  0  0  0  0  0  0  0  0  0  0  0
  141.0790   69.3120  227.8490 C   0  0  0  0  0  0  0  0  0  0  0  0
  140.8710   70.3630  226.9870 C   0  0  0  0  0  0  0  0  0  0  0  0
  140.0460   70.3040  225.8860 C   0  0  0  0  0  0  0  0  0  0  0  0
  139.3920   69.1200  225.6380 C   0  0  0  0  0  0  0  0  0  0  0  0
  139.5550   68.0320  226.4590 C   0  0  0  0  0  0  0  0  0  0  0  0
  138.5040   69.0970  224.4300 C   0  0  0  0  0  0  0  0  0  0  0  0
  139.3480   69.7640  223.3320 C   0  0  0  0  0  0  0  0  0  0  0  0
  139.4760   71.2360  223.6460 C   0  0  2  0  0  0  0  0  0  0  0  0
  140.4110   71.8150  222.6850 N   0  0  0  0  0  0  0  0  0  0  0  0
  140.0730   72.8810  221.8410 C   0  0  0  0  0  0  0  0  0  0  0  0
  139.7050   72.7630  220.5600 N   0  0  0  0  0  0  0  0  0  0  0  0
  139.3830   73.7950  219.7600 C   0  0  0  0  0  0  0  0  0  0  0  0
  138.9950   73.6080  218.3960 N   0  0  0  0  0  0  0  0  0  0  0  0
  139.9120   73.9260  217.2970 C   0  0  0  0  0  0  0  0  0  0  0  0
  141.2900   73.6170  217.7720 C   0  0  0  0  0  0  0  0  0  0  0  0
  141.8790   74.7020  218.6410 C   0  0  2  0  0  0  0  0  0  0  0  0
  143.1510   75.2850  218.1140 C   0  0  0  0  0  0  0  0  0  0  0  0
  143.7270   75.9190  219.3760 C   0  0  0  0  0  0  0  0  0  0  0  0
  143.3850   74.8690  220.4100 C   0  0  0  0  0  0  0  0  0  0  0  0
  142.2190   74.1790  219.9520 N   0  0  0  0  0  0  0  0  0  0  0  0
  139.4330   75.0490  220.2930 N   0  0  0  0  0  0  0  0  0  0  0  0
  139.8010   75.2230  221.5910 C   0  0  0  0  0  0  0  0  0  0  0  0
  139.8490   76.5320  222.1470 N   0  0  0  0  0  0  0  0  0  0  0  0
  138.6690   77.3640  222.0990 C   0  0  0  0  0  0  0  0  0  0  0  0
  138.7560   78.5130  223.0810 C   0  0  0  0  0  0  0  0  0  0  0  0
  140.0460   79.2340  222.9600 C   0  0  0  0  0  0  0  0  0  0  0  0
  140.1440   80.6060  223.0050 C   0  0  0  0  0  0  0  0  0  0  0  0
  141.3830   81.2400  222.8870 C   0  0  0  0  0  0  0  0  0  0  0  0
  142.5310   80.4940  222.7210 C   0  0  0  0  0  0  0  0  0  0  0  0
  142.4000   79.1210  222.6790 C   0  0  0  0  0  0  0  0  0  0  0  0
  141.1850   78.4790  222.7950 C   0  0  0  0  0  0  0  0  0  0  0  0
  141.0690   77.0070  222.7470 C   0  0  0  0  0  0  0  0  0  0  0  0
  140.1090   74.1540  222.3310 N   0  0  0  0  0  0  0  0  0  0  0  0
  139.9220   71.5190  225.0530 C   0  0  0  0  0  0  0  0  0  0  0  0
  140.5267   67.2609  228.2156 H   0  0  0  0  0  0  0  0  0  0  0  0
  141.7467   69.3973  228.7190 H   0  0  0  0  0  0  0  0  0  0  0  0
  141.3956   71.3085  227.1893 H   0  0  0  0  0  0  0  0  0  0  0  0
  139.0252   67.0913  226.2482 H   0  0  0  0  0  0  0  0  0  0  0  0
  138.2486   68.0636  224.1527 H   0  0  0  0  0  0  0  0  0  0  0  0
  137.5473   69.6128  224.5992 H   0  0  0  0  0  0  0  0  0  0  0  0
  140.3467   69.3038  223.3020 H   0  0  0  0  0  0  0  0  0  0  0  0
  138.8631   69.6304  222.3537 H   0  0  0  0  0  0  0  0  0  0  0  0
  138.4784   71.6922  223.5637 H   0  0  0  0  0  0  0  0  0  0  0  0
  141.3680   71.4000  222.6430 H   0  0  0  0  0  0  0  0  0  0  0  0
  138.0400   73.2380  218.2390 H   0  0  0  0  0  0  0  0  0  0  0  0
  139.6708   73.3140  216.4154 H   0  0  0  0  0  0  0  0  0  0  0  0
  139.8255   74.9841  217.0090 H   0  0  0  0  0  0  0  0  0  0  0  0
  141.2580   72.6833  218.3527 H   0  0  0  0  0  0  0  0  0  0  0  0
  141.9298   73.5293  216.8815 H   0  0  0  0  0  0  0  0  0  0  0  0
  141.0982   75.4763  218.6692 H   0  0  0  0  0  0  0  0  0  0  0  0
  143.8166   74.5062  217.7135 H   0  0  0  0  0  0  0  0  0  0  0  0
  143.0155   75.9853  217.2766 H   0  0  0  0  0  0  0  0  0  0  0  0
  144.8141   76.0659  219.2940 H   0  0  0  0  0  0  0  0  0  0  0  0
  143.3323   76.9210  219.6002 H   0  0  0  0  0  0  0  0  0  0  0  0
  144.2211   74.1625  220.5188 H   0  0  0  0  0  0  0  0  0  0  0  0
  143.2001   75.3350  221.3891 H   0  0  0  0  0  0  0  0  0  0  0  0
  141.4290   74.1690  220.6200 H   0  0  0  0  0  0  0  0  0  0  0  0
  138.5602   77.7706  221.0827 H   0  0  0  0  0  0  0  0  0  0  0  0
  137.8009   76.7452  222.3700 H   0  0  0  0  0  0  0  0  0  0  0  0
  137.9335   79.2160  222.8826 H   0  0  0  0  0  0  0  0  0  0  0  0
  138.6835   78.1033  224.0993 H   0  0  0  0  0  0  0  0  0  0  0  0
  139.2348   81.2112  223.1356 H   0  0  0  0  0  0  0  0  0  0  0  0
  141.4433   82.3376  222.9266 H   0  0  0  0  0  0  0  0  0  0  0  0
  143.5152   80.9759  222.6255 H   0  0  0  0  0  0  0  0  0  0  0  0
  143.3057   78.5109  222.5470 H   0  0  0  0  0  0  0  0  0  0  0  0
  141.9158   76.6126  222.1662 H   0  0  0  0  0  0  0  0  0  0  0  0
  141.0676   76.6551  223.7892 H   0  0  0  0  0  0  0  0  0  0  0  0
  140.9022   72.0167  225.0145 H   0  0  0  0  0  0  0  0  0  0  0  0
  139.1514   72.1527  225.5163 H   0  0  0  0  0  0  0  0  0  0  0  0
  1  2  2  0
  2  3  1  0
  3  4  2  0
  4  5  1  0
  5  6  2  0
  5  7  1  0
  7  8  1  0
  8  9  1  0
  9 10  1  0
 10 11  1  0
 11 12  2  0
 12 13  1  0
 13 14  1  0
 14 15  1  0
 15 16  1  0
 16 17  1  0
 17 18  1  0
 18 19  1  0
 19 20  1  0
 20 21  1  0
 13 22  2  0
 22 23  1  0
 23 24  1  0
 24 25  1  0
 25 26  1  0
 26 27  1  0
 27 28  2  0
 28 29  1  0
 29 30  2  0
 30 31  1  0
 31 32  2  0
 32 33  1  0
 23 34  2  0
  9 35  1  0
  6  1  1  0
 34 11  1  0
 35  4  1  0
 21 17  1  0
 33 24  1  0
 32 27  1  0
  1 36  1  0
  2 37  1  0
  3 38  1  0
  6 39  1  0
  7 40  1  0
  7 41  1  0
  8 42  1  0
  8 43  1  0
  9 44  1  6
 10 45  1  0
 14 46  1  0
 15 47  1  0
 15 48  1  0
 16 49  1  0
 16 50  1  0
 17 51  1  1
 18 52  1  0
 18 53  1  0
 19 54  1  0
 19 55  1  0
 20 56  1  0
 20 57  1  0
 21 58  1  0
 25 59  1  0
 25 60  1  0
 26 61  1  0
 26 62  1  0
 28 63  1  0
 29 64  1  0
 30 65  1  0
 31 66  1  0
 33 67  1  0
 33 68  1  0
 35 69  1  0
 35 70  1  0
M  END
>  <smiles>  (7) 
c1ccc2c(c1)CCC(Nc1nc(NCCC3CCCN3)nc(N3CCc4ccccc4C3)n1)C2

>  <score_type>  (7) 
oracle

>  <origin>  (7) 
autodockgpu

>  <m_score__min__energy>  (7) 
-9.8699999999999992

>  <m_primary>  (7) 
energy

>  <rmsd>  (7) 
11.976071484473541

>  <m_score__min__rmsd>  (7) 
11.976071484473541

>  <meeko>  (7) 
{"free_energy": -8.81, "intermolecular_energy": -10.9, "internal_energy": -2.89, "cluster_size": 17, "cluster_id": 3, "rank_in_cluster": 9}

>  <energy>  (7) 
-9.61

>  <cluster_rmsd>  (7) 
0.76

>  <cluster>  (7) 
2

$$$$

     RDKit          3D

 70 75  0  0  1  0  0  0  0  0999 V2000
  140.5400   81.5120  222.4740 C   0  0  0  0  0  0  0  0  0  0  0  0
  140.2380   80.8610  223.6680 C   0  0  0  0  0  0  0  0  0  0  0  0
  140.4400   79.5020  223.6860 C   0  0  0  0  0  0  0  0  0  0  0  0
  140.9110   78.7790  222.6130 C   0  0  0  0  0  0  0  0  0  0  0  0
  141.1960   79.4630  221.4550 C   0  0  0  0  0  0  0  0  0  0  0  0
  141.0170   80.8220  221.3690 C   0  0  0  0  0  0  0  0  0  0  0  0
  141.7060   78.6400  220.3100 C   0  0  0  0  0  0  0  0  0  0  0  0
  140.7730   77.4190  220.2830 C   0  0  0  0  0  0  0  0  0  0  0  0
  141.0630   76.5600  221.4900 C   0  0  2  0  0  0  0  0  0  0  0  0
  140.0620   75.4970  221.5300 N   0  0  0  0  0  0  0  0  0  0  0  0
  140.3860   74.1400  221.4070 C   0  0  0  0  0  0  0  0  0  0  0  0
  140.9000   73.5670  220.3140 N   0  0  0  0  0  0  0  0  0  0  0  0
  141.2070   72.2610  220.2090 C   0  0  0  0  0  0  0  0  0  0  0  0
  141.7580   71.7030  219.0110 N   0  0  0  0  0  0  0  0  0  0  0  0
  142.2780   72.5630  217.9440 C   0  0  0  0  0  0  0  0  0  0  0  0
  143.7180   72.2220  217.7690 C   0  0  0  0  0  0  0  0  0  0  0  0
  144.6190   72.9030  218.7700 C   0  0  2  0  0  0  0  0  0  0  0  0
  144.6690   72.2320  220.1060 C   0  0  0  0  0  0  0  0  0  0  0  0
  145.1960   73.3640  220.9820 C   0  0  0  0  0  0  0  0  0  0  0  0
  144.4440   74.5460  220.4120 C   0  0  0  0  0  0  0  0  0  0  0  0
  144.1530   74.2510  219.0440 N   0  0  0  0  0  0  0  0  0  0  0  0
  140.9780   71.4670  221.2940 N   0  0  0  0  0  0  0  0  0  0  0  0
  140.4570   72.0020  222.4300 C   0  0  0  0  0  0  0  0  0  0  0  0
  140.2210   71.1740  223.5620 N   0  0  0  0  0  0  0  0  0  0  0  0
  139.1330   70.2230  223.5280 C   0  0  0  0  0  0  0  0  0  0  0  0
  139.2860   69.1620  224.5980 C   0  0  0  0  0  0  0  0  0  0  0  0
  139.5600   69.7640  225.9250 C   0  0  0  0  0  0  0  0  0  0  0  0
  138.9760   69.3150  227.0870 C   0  0  0  0  0  0  0  0  0  0  0  0
  139.2670   69.9150  228.3130 C   0  0  0  0  0  0  0  0  0  0  0  0
  140.1500   70.9720  228.3770 C   0  0  0  0  0  0  0  0  0  0  0  0
  140.7210   71.4000  227.1950 C   0  0  0  0  0  0  0  0  0  0  0  0
  140.4440   70.8190  225.9750 C   0  0  0  0  0  0  0  0  0  0  0  0
  141.0670   71.2930  224.7220 C   0  0  0  0  0  0  0  0  0  0  0  0
  140.1740   73.3080  222.4670 N   0  0  0  0  0  0  0  0  0  0  0  0
  141.0790   77.3210  222.7860 C   0  0  0  0  0  0  0  0  0  0  0  0
  140.3966   82.6005  222.4056 H   0  0  0  0  0  0  0  0  0  0  0  0
  139.8594   81.4040  224.5465 H   0  0  0  0  0  0  0  0  0  0  0  0
  140.2114   78.9583  224.6145 H   0  0  0  0  0  0  0  0  0  0  0  0
  141.2489   81.3565  220.4360 H   0  0  0  0  0  0  0  0  0  0  0  0
  141.6421   79.2015  219.3663 H   0  0  0  0  0  0  0  0  0  0  0  0
  142.7636   78.3614  220.4277 H   0  0  0  0  0  0  0  0  0  0  0  0
  139.7254   77.7533  220.3100 H   0  0  0  0  0  0  0  0  0  0  0  0
  140.9405   76.8402  219.3627 H   0  0  0  0  0  0  0  0  0  0  0  0
  142.0792   76.1524  221.3844 H   0  0  0  0  0  0  0  0  0  0  0  0
  139.0670   75.7860  221.6570 H   0  0  0  0  0  0  0  0  0  0  0  0
  141.7650   70.6690  218.9510 H   0  0  0  0  0  0  0  0  0  0  0  0
  141.7298   72.3770  217.0086 H   0  0  0  0  0  0  0  0  0  0  0  0
  142.1558   73.6251  218.2027 H   0  0  0  0  0  0  0  0  0  0  0  0
  143.8348   71.1337  217.8780 H   0  0  0  0  0  0  0  0  0  0  0  0
  144.0168   72.5731  216.7703 H   0  0  0  0  0  0  0  0  0  0  0  0
  145.6129   72.8712  218.2997 H   0  0  0  0  0  0  0  0  0  0  0  0
  143.6708   71.9021  220.4298 H   0  0  0  0  0  0  0  0  0  0  0  0
  145.2801   71.3177  220.1311 H   0  0  0  0  0  0  0  0  0  0  0  0
  144.9503   73.2022  222.0419 H   0  0  0  0  0  0  0  0  0  0  0  0
  146.2904   73.4746  220.9693 H   0  0  0  0  0  0  0  0  0  0  0  0
  143.5087   74.7006  220.9700 H   0  0  0  0  0  0  0  0  0  0  0  0
  145.0464   75.4630  220.4909 H   0  0  0  0  0  0  0  0  0  0  0  0
  144.4870   74.9570  218.3660 H   0  0  0  0  0  0  0  0  0  0  0  0
  138.1857   70.7585  223.6891 H   0  0  0  0  0  0  0  0  0  0  0  0
  139.1413   69.7257  222.5468 H   0  0  0  0  0  0  0  0  0  0  0  0
  138.3566   68.5764  224.6562 H   0  0  0  0  0  0  0  0  0  0  0  0
  140.1373   68.5198  224.3280 H   0  0  0  0  0  0  0  0  0  0  0  0
  138.2704   68.4720  227.0492 H   0  0  0  0  0  0  0  0  0  0  0  0
  138.7900   69.5432  229.2318 H   0  0  0  0  0  0  0  0  0  0  0  0
  140.3907   71.4566  229.3347 H   0  0  0  0  0  0  0  0  0  0  0  0
  141.4283   72.2418  227.2277 H   0  0  0  0  0  0  0  0  0  0  0  0
  141.3331   72.3529  224.8481 H   0  0  0  0  0  0  0  0  0  0  0  0
  141.9434   70.6530  224.5420 H   0  0  0  0  0  0  0  0  0  0  0  0
  140.2603   76.9484  223.4191 H   0  0  0  0  0  0  0  0  0  0  0  0
  142.0658   77.1602  223.2447 H   0  0  0  0  0  0  0  0  0  0  0  0
  1  2  2  0
  2  3  1  0
  3  4  2  0
  4  5  1  0
  5  6  2  0
  5  7  1  0
  7  8  1  0
  8  9  1  0
  9 10  1  0
 10 11  1  0
 11 12  2  0
 12 13  1  0
 13 14  1  0
 14 15  1  0
 15 16  1  0
 16 17  1  0
 17 18  1  0
 18 19  1  0
 19 20  1  0
 20 21  1  0
 13 22  2  0
 22 23  1  0
 23 24  1  0
 24 25  1  0
 25 26  1  0
 26 27  1  0
 27 28  2  0
 28 29  1  0
 29 30  2  0
 30 31  1  0
 31 32  2  0
 32 33  1  0
 23 34  2  0
  9 35  1  0
  6  1  1  0
 34 11  1  0
 35  4  1  0
 21 17  1  0
 33 24  1  0
 32 27  1  0
  1 36  1  0
  2 37  1  0
  3 38  1  0
  6 39  1  0
  7 40  1  0
  7 41  1  0
  8 42  1  0
  8 43  1  0
  9 44  1  6
 10 45  1  0
 14 46  1  0
 15 47  1  0
 15 48  1  0
 16 49  1  0
 16 50  1  0
 17 51  1  6
 18 52  1  0
 18 53  1  0
 19 54  1  0
 19 55  1  0
 20 56  1  0
 20 57  1  0
 21 58  1  0
 25 59  1  0
 25 60  1  0
 26 61  1  0
 26 62  1  0
 28 63  1  0
 29 64  1  0
 30 65  1  0
 31 66  1  0
 33 67  1  0
 33 68  1  0
 35 69  1  0
 35 70  1  0
M  END
>  <smiles>  (8) 
c1ccc2c(c1)CCC(Nc1nc(NCCC3CCCN3)nc(N3CCc4ccccc4C3)n1)C2

>  <score_type>  (8) 
oracle

>  <origin>  (8) 
autodockgpu

>  <m_score__min__energy>  (8) 
-9.8699999999999992

>  <m_primary>  (8) 
energy

>  <rmsd>  (8) 
3.6533534785853745

>  <m_score__min__rmsd>  (8) 
3.6533534785853745

>  <meeko>  (8) 
{"free_energy": -9.29, "intermolecular_energy": -11.38, "internal_energy": -1.47, "cluster_size": 17, "cluster_id": 3, "rank_in_cluster": 5}

>  <energy>  (8) 
-9.52

>  <cluster_rmsd>  (8) 
0.58

>  <cluster>  (8) 
2

$$$$

     RDKit          3D

 70 75  0  0  1  0  0  0  0  0999 V2000
  141.8010   81.2620  224.0880 C   0  0  0  0  0  0  0  0  0  0  0  0
  143.0020   80.8630  223.5080 C   0  0  0  0  0  0  0  0  0  0  0  0
  142.9240   79.8390  222.5930 C   0  0  0  0  0  0  0  0  0  0  0  0
  141.7520   79.2120  222.2380 C   0  0  0  0  0  0  0  0  0  0  0  0
  140.5900   79.6390  222.8360 C   0  0  0  0  0  0  0  0  0  0  0  0
  140.5970   80.6570  223.7580 C   0  0  0  0  0  0  0  0  0  0  0  0
  139.3340   78.9300  222.4230 C   0  0  0  0  0  0  0  0  0  0  0  0
  139.7200   77.4420  222.4460 C   0  0  0  0  0  0  0  0  0  0  0  0
  140.6700   77.1700  221.3050 C   0  0  2  0  0  0  0  0  0  0  0  0
  141.1470   75.7960  221.4430 N   0  0  0  0  0  0  0  0  0  0  0  0
  140.3030   74.6820  221.3440 C   0  0  0  0  0  0  0  0  0  0  0  0
  139.4650   74.4390  220.3310 N   0  0  0  0  0  0  0  0  0  0  0  0
  138.6590   73.3650  220.2480 C   0  0  0  0  0  0  0  0  0  0  0  0
  137.7830   73.1560  219.1360 N   0  0  0  0  0  0  0  0  0  0  0  0
  136.3480   73.4370  219.2380 C   0  0  0  0  0  0  0  0  0  0  0  0
  136.2070   74.8890  219.5450 C   0  0  0  0  0  0  0  0  0  0  0  0
  135.8360   75.1620  220.9820 C   0  0  2  0  0  0  0  0  0  0  0  0
  136.8460   75.9680  221.7340 C   0  0  0  0  0  0  0  0  0  0  0  0
  136.4670   75.6430  223.1750 C   0  0  0  0  0  0  0  0  0  0  0  0
  136.1490   74.1680  223.0650 C   0  0  0  0  0  0  0  0  0  0  0  0
  135.7160   73.9210  221.7250 N   0  0  0  0  0  0  0  0  0  0  0  0
  138.7000   72.4620  221.2690 N   0  0  0  0  0  0  0  0  0  0  0  0
  139.5350   72.6640  222.3230 C   0  0  0  0  0  0  0  0  0  0  0  0
  139.5800   71.7190  223.3860 N   0  0  0  0  0  0  0  0  0  0  0  0
  138.4920   70.7810  223.5430 C   0  0  0  0  0  0  0  0  0  0  0  0
  138.8870   69.6110  224.4190 C   0  0  0  0  0  0  0  0  0  0  0  0
  139.5180   70.0660  225.6810 C   0  0  0  0  0  0  0  0  0  0  0  0
  139.2450   69.4970  226.9040 C   0  0  0  0  0  0  0  0  0  0  0  0
  139.8670   69.9610  228.0640 C   0  0  0  0  0  0  0  0  0  0  0  0
  140.7680   71.0020  228.0010 C   0  0  0  0  0  0  0  0  0  0  0  0
  141.0210   71.5530  226.7610 C   0  0  0  0  0  0  0  0  0  0  0  0
  140.4160   71.1070  225.6040 C   0  0  0  0  0  0  0  0  0  0  0  0
  140.7030   71.7120  224.2870 C   0  0  0  0  0  0  0  0  0  0  0  0
  140.3100   73.7530  222.3420 N   0  0  0  0  0  0  0  0  0  0  0  0
  141.8270   78.1270  221.2370 C   0  0  0  0  0  0  0  0  0  0  0  0
  141.8068   82.0773  224.8264 H   0  0  0  0  0  0  0  0  0  0  0  0
  143.9590   81.3396  223.7668 H   0  0  0  0  0  0  0  0  0  0  0  0
  143.8556   79.5007  222.1159 H   0  0  0  0  0  0  0  0  0  0  0  0
  139.6597   80.9884  224.2288 H   0  0  0  0  0  0  0  0  0  0  0  0
  138.5190   79.1332  223.1333 H   0  0  0  0  0  0  0  0  0  0  0  0
  138.9685   79.2567  221.4383 H   0  0  0  0  0  0  0  0  0  0  0  0
  140.2102   77.2016  223.4009 H   0  0  0  0  0  0  0  0  0  0  0  0
  138.8192   76.8198  222.3397 H   0  0  0  0  0  0  0  0  0  0  0  0
  140.1230   77.3148  220.3617 H   0  0  0  0  0  0  0  0  0  0  0  0
  142.1670   75.6630  221.6240 H   0  0  0  0  0  0  0  0  0  0  0  0
  138.2230   72.7980  218.2690 H   0  0  0  0  0  0  0  0  0  0  0  0
  135.8489   73.2022  218.2863 H   0  0  0  0  0  0  0  0  0  0  0  0
  135.8836   72.8235  220.0241 H   0  0  0  0  0  0  0  0  0  0  0  0
  137.1650   75.3857  219.3313 H   0  0  0  0  0  0  0  0  0  0  0  0
  135.3903   75.2767  218.9184 H   0  0  0  0  0  0  0  0  0  0  0  0
  134.8915   75.7215  220.9115 H   0  0  0  0  0  0  0  0  0  0  0  0
  137.8721   75.6453  221.5040 H   0  0  0  0  0  0  0  0  0  0  0  0
  136.8370   77.0417  221.4949 H   0  0  0  0  0  0  0  0  0  0  0  0
  137.3050   75.8252  223.8639 H   0  0  0  0  0  0  0  0  0  0  0  0
  135.6458   76.2549  223.5766 H   0  0  0  0  0  0  0  0  0  0  0  0
  137.0473   73.5726  223.2853 H   0  0  0  0  0  0  0  0  0  0  0  0
  135.3656   73.8857  223.7838 H   0  0  0  0  0  0  0  0  0  0  0  0
  134.7900   73.4680  221.6440 H   0  0  0  0  0  0  0  0  0  0  0  0
  137.6376   71.2990  224.0031 H   0  0  0  0  0  0  0  0  0  0  0  0
  138.2266   70.3923  222.5488 H   0  0  0  0  0  0  0  0  0  0  0  0
  137.9877   69.0252  224.6600 H   0  0  0  0  0  0  0  0  0  0  0  0
  139.6171   68.9991  223.8691 H   0  0  0  0  0  0  0  0  0  0  0  0
  138.5273   68.6658  226.9681 H   0  0  0  0  0  0  0  0  0  0  0  0
  139.6371   69.4937  229.0329 H   0  0  0  0  0  0  0  0  0  0  0  0
  141.2671   71.3798  228.9055 H   0  0  0  0  0  0  0  0  0  0  0  0
  141.7371   72.3851  226.6922 H   0  0  0  0  0  0  0  0  0  0  0  0
  141.0239   72.7519  224.4471 H   0  0  0  0  0  0  0  0  0  0  0  0
  141.4826   71.0943  223.8173 H   0  0  0  0  0  0  0  0  0  0  0  0
  142.7564   77.5626  221.4037 H   0  0  0  0  0  0  0  0  0  0  0  0
  141.7993   78.5994  220.2440 H   0  0  0  0  0  0  0  0  0  0  0  0
  1  2  2  0
  2  3  1  0
  3  4  2  0
  4  5  1  0
  5  6  2  0
  5  7  1  0
  7  8  1  0
  8  9  1  0
  9 10  1  0
 10 11  1  0
 11 12  2  0
 12 13  1  0
 13 14  1  0
 14 15  1  0
 15 16  1  0
 16 17  1  0
 17 18  1  0
 18 19  1  0
 19 20  1  0
 20 21  1  0
 13 22  2  0
 22 23  1  0
 23 24  1  0
 24 25  1  0
 25 26  1  0
 26 27  1  0
 27 28  2  0
 28 29  1  0
 29 30  2  0
 30 31  1  0
 31 32  2  0
 32 33  1  0
 23 34  2  0
  9 35  1  0
  6  1  1  0
 34 11  1  0
 35  4  1  0
 21 17  1  0
 33 24  1  0
 32 27  1  0
  1 36  1  0
  2 37  1  0
  3 38  1  0
  6 39  1  0
  7 40  1  0
  7 41  1  0
  8 42  1  0
  8 43  1  0
  9 44  1  6
 10 45  1  0
 14 46  1  0
 15 47  1  0
 15 48  1  0
 16 49  1  0
 16 50  1  0
 17 51  1  6
 18 52  1  0
 18 53  1  0
 19 54  1  0
 19 55  1  0
 20 56  1  0
 20 57  1  0
 21 58  1  0
 25 59  1  0
 25 60  1  0
 26 61  1  0
 26 62  1  0
 28 63  1  0
 29 64  1  0
 30 65  1  0
 31 66  1  0
 33 67  1  0
 33 68  1  0
 35 69  1  0
 35 70  1  0
M  END
>  <smiles>  (9) 
c1ccc2c(c1)CCC(Nc1nc(NCCC3CCCN3)nc(N3CCc4ccccc4C3)n1)C2

>  <score_type>  (9) 
oracle

>  <origin>  (9) 
autodockgpu

>  <m_score__min__energy>  (9) 
-9.8699999999999992

>  <m_primary>  (9) 
energy

>  <rmsd>  (9) 
4.2290825732714366

>  <m_score__min__rmsd>  (9) 
4.2290825732714366

>  <meeko>  (9) 
{"free_energy": -9.24, "intermolecular_energy": -11.33, "internal_energy": -2.01, "cluster_size": 17, "cluster_id": 2, "rank_in_cluster": 12}

>  <energy>  (9) 
-9.46

>  <cluster_rmsd>  (9) 
0.71

>  <cluster>  (9) 
2

$$$$

     RDKit          3D

 70 75  0  0  1  0  0  0  0  0999 V2000
  141.7380   81.3830  222.6080 C   0  0  0  0  0  0  0  0  0  0  0  0
  141.3610   80.7690  223.8010 C   0  0  0  0  0  0  0  0  0  0  0  0
  141.1720   79.4090  223.7500 C   0  0  0  0  0  0  0  0  0  0  0  0
  141.3320   78.6510  222.6130 C   0  0  0  0  0  0  0  0  0  0  0  0
  141.7040   79.2980  221.4580 C   0  0  0  0  0  0  0  0  0  0  0  0
  141.9100   80.6560  221.4390 C   0  0  0  0  0  0  0  0  0  0  0  0
  141.8660   78.4380  220.2410 C   0  0  0  0  0  0  0  0  0  0  0  0
  140.6280   77.5280  220.2580 C   0  0  0  0  0  0  0  0  0  0  0  0
  140.7600   76.5500  221.4000 C   0  0  2  0  0  0  0  0  0  0  0  0
  139.5060   75.8070  221.4960 N   0  0  0  0  0  0  0  0  0  0  0  0
  139.4270   74.4190  221.3220 C   0  0  0  0  0  0  0  0  0  0  0  0
  139.2230   73.7990  220.1550 N   0  0  0  0  0  0  0  0  0  0  0  0
  139.1500   72.4650  220.0020 C   0  0  0  0  0  0  0  0  0  0  0  0
  138.9310   71.8570  218.7250 N   0  0  0  0  0  0  0  0  0  0  0  0
  140.0420   71.6220  217.7970 C   0  0  0  0  0  0  0  0  0  0  0  0
  141.2690   71.4370  218.6210 C   0  0  0  0  0  0  0  0  0  0  0  0
  141.8890   72.7380  219.0700 C   0  0  2  0  0  0  0  0  0  0  0  0
  143.2840   72.9540  218.5790 C   0  0  0  0  0  0  0  0  0  0  0  0
  143.7800   74.0110  219.5600 C   0  0  0  0  0  0  0  0  0  0  0  0
  143.1710   73.5140  220.8530 C   0  0  0  0  0  0  0  0  0  0  0  0
  141.9880   72.7850  220.5180 N   0  0  0  0  0  0  0  0  0  0  0  0
  139.2940   71.6910  221.1150 N   0  0  0  0  0  0  0  0  0  0  0  0
  139.5030   72.2730  222.3260 C   0  0  0  0  0  0  0  0  0  0  0  0
  139.6570   71.4640  223.4860 N   0  0  0  0  0  0  0  0  0  0  0  0
  138.7120   70.3990  223.7350 C   0  0  0  0  0  0  0  0  0  0  0  0
  139.2490   69.3990  224.7380 C   0  0  0  0  0  0  0  0  0  0  0  0
  139.7770   70.0740  225.9470 C   0  0  0  0  0  0  0  0  0  0  0  0
  139.5580   69.6050  227.2230 C   0  0  0  0  0  0  0  0  0  0  0  0
  140.0780   70.2760  228.3310 C   0  0  0  0  0  0  0  0  0  0  0  0
  140.8210   71.4250  228.1630 C   0  0  0  0  0  0  0  0  0  0  0  0
  141.0230   71.8710  226.8720 C   0  0  0  0  0  0  0  0  0  0  0  0
  140.5170   71.2200  225.7660 C   0  0  0  0  0  0  0  0  0  0  0  0
  140.7470   71.7160  224.3930 C   0  0  0  0  0  0  0  0  0  0  0  0
  139.5650   73.6050  222.4080 N   0  0  0  0  0  0  0  0  0  0  0  0
  141.0940   77.1950  222.7160 C   0  0  0  0  0  0  0  0  0  0  0  0
  141.9032   82.4704  222.5929 H   0  0  0  0  0  0  0  0  0  0  0  0
  141.2226   81.3406  224.7305 H   0  0  0  0  0  0  0  0  0  0  0  0
  140.8743   78.8944  224.6755 H   0  0  0  0  0  0  0  0  0  0  0  0
  142.2077   81.1609  220.5082 H   0  0  0  0  0  0  0  0  0  0  0  0
  141.8867   79.0522  219.3287 H   0  0  0  0  0  0  0  0  0  0  0  0
  142.8079   77.8698  220.2478 H   0  0  0  0  0  0  0  0  0  0  0  0
  139.7228   78.1376  220.3958 H   0  0  0  0  0  0  0  0  0  0  0  0
  140.5512   76.9829  219.3056 H   0  0  0  0  0  0  0  0  0  0  0  0
  141.6082   75.8838  221.1836 H   0  0  0  0  0  0  0  0  0  0  0  0
  138.6430   76.3570  221.7040 H   0  0  0  0  0  0  0  0  0  0  0  0
  137.9520   71.5980  218.5040 H   0  0  0  0  0  0  0  0  0  0  0  0
  139.8495   70.7192  217.1988 H   0  0  0  0  0  0  0  0  0  0  0  0
  140.1594   72.4684  217.1043 H   0  0  0  0  0  0  0  0  0  0  0  0
  141.0052   70.8499  219.5130 H   0  0  0  0  0  0  0  0  0  0  0  0
  142.0101   70.9235  217.9908 H   0  0  0  0  0  0  0  0  0  0  0  0
  141.2243   73.5086  218.6524 H   0  0  0  0  0  0  0  0  0  0  0  0
  143.8814   72.0325  218.6424 H   0  0  0  0  0  0  0  0  0  0  0  0
  143.3508   73.2509  217.5219 H   0  0  0  0  0  0  0  0  0  0  0  0
  144.8786   74.0299  219.6120 H   0  0  0  0  0  0  0  0  0  0  0  0
  143.5019   75.0417  219.2947 H   0  0  0  0  0  0  0  0  0  0  0  0
  143.8821   72.8568  221.3749 H   0  0  0  0  0  0  0  0  0  0  0  0
  142.9316   74.3570  221.5178 H   0  0  0  0  0  0  0  0  0  0  0  0
  141.1270   73.1120  220.9890 H   0  0  0  0  0  0  0  0  0  0  0  0
  137.7806   70.8330  224.1275 H   0  0  0  0  0  0  0  0  0  0  0  0
  138.5311   69.8714  222.7869 H   0  0  0  0  0  0  0  0  0  0  0  0
  138.4371   68.7184  225.0342 H   0  0  0  0  0  0  0  0  0  0  0  0
  140.0722   68.8433  224.2652 H   0  0  0  0  0  0  0  0  0  0  0  0
  138.9657   68.6900  227.3710 H   0  0  0  0  0  0  0  0  0  0  0  0
  139.8941   69.8861  229.3430 H   0  0  0  0  0  0  0  0  0  0  0  0
  141.2374   71.9663  229.0253 H   0  0  0  0  0  0  0  0  0  0  0  0
  141.6137   72.7862  226.7185 H   0  0  0  0  0  0  0  0  0  0  0  0
  140.9119   72.8025  224.4414 H   0  0  0  0  0  0  0  0  0  0  0  0
  141.6182   71.1709  224.0008 H   0  0  0  0  0  0  0  0  0  0  0  0
  140.2566   77.0268  223.4092 H   0  0  0  0  0  0  0  0  0  0  0  0
  142.0283   76.7378  223.0738 H   0  0  0  0  0  0  0  0  0  0  0  0
  1  2  2  0
  2  3  1  0
  3  4  2  0
  4  5  1  0
  5  6  2  0
  5  7  1  0
  7  8  1  0
  8  9  1  0
  9 10  1  0
 10 11  1  0
 11 12  2  0
 12 13  1  0
 13 14  1  0
 14 15  1  0
 15 16  1  0
 16 17  1  0
 17 18  1  0
 18 19  1  0
 19 20  1  0
 20 21  1  0
 13 22  2  0
 22 23  1  0
 23 24  1  0
 24 25  1  0
 25 26  1  0
 26 27  1  0
 27 28  2  0
 28 29  1  0
 29 30  2  0
 30 31  1  0
 31 32  2  0
 32 33  1  0
 23 34  2  0
  9 35  1  0
  6  1  1  0
 34 11  1  0
 35  4  1  0
 21 17  1  0
 33 24  1  0
 32 27  1  0
  1 36  1  0
  2 37  1  0
  3 38  1  0
  6 39  1  0
  7 40  1  0
  7 41  1  0
  8 42  1  0
  8 43  1  0
  9 44  1  6
 10 45  1  0
 14 46  1  0
 15 47  1  0
 15 48  1  0
 16 49  1  0
 16 50  1  0
 17 51  1  6
 18 52  1  0
 18 53  1  0
 19 54  1  0
 19 55  1  0
 20 56  1  0
 20 57  1  0
 21 58  1  0
 25 59  1  0
 25 60  1  0
 26 61  1  0
 26 62  1  0
 28 63  1  0
 29 64  1  0
 30 65  1  0
 31 66  1  0
 33 67  1  0
 33 68  1  0
 35 69  1  0
 35 70  1  0
M  END
>  <smiles>  (10) 
c1ccc2c(c1)CCC(Nc1nc(NCCC3CCCN3)nc(N3CCc4ccccc4C3)n1)C2

>  <score_type>  (10) 
oracle

>  <origin>  (10) 
autodockgpu

>  <m_score__min__energy>  (10) 
-9.8699999999999992

>  <m_primary>  (10) 
energy

>  <rmsd>  (10) 
3.8463664057794014

>  <m_score__min__rmsd>  (10) 
3.8463664057794014

>  <meeko>  (10) 
{"free_energy": -8.6, "intermolecular_energy": -10.69, "internal_energy": -3.03, "cluster_size": 17, "cluster_id": 3, "rank_in_cluster": 12}

>  <energy>  (10) 
-9.38

>  <cluster_rmsd>  (10) 
0.63

>  <cluster>  (10) 
2

$$$$

     RDKit          3D

 70 75  0  0  1  0  0  0  0  0999 V2000
  140.1820   68.8330  227.4360 C   0  0  0  0  0  0  0  0  0  0  0  0
  141.1960   69.7870  227.4710 C   0  0  0  0  0  0  0  0  0  0  0  0
  141.1720   70.7350  226.4750 C   0  0  0  0  0  0  0  0  0  0  0  0
  140.2250   70.7800  225.4780 C   0  0  0  0  0  0  0  0  0  0  0  0
  139.2430   69.8180  225.4820 C   0  0  0  0  0  0  0  0  0  0  0  0
  139.2080   68.8420  226.4490 C   0  0  0  0  0  0  0  0  0  0  0  0
  138.2310   69.9010  224.3790 C   0  0  0  0  0  0  0  0  0  0  0  0
  139.0730   70.1480  223.1170 C   0  0  0  0  0  0  0  0  0  0  0  0
  139.6420   71.5450  223.1790 C   0  0  2  0  0  0  0  0  0  0  0  0
  140.5640   71.7000  222.0570 N   0  0  0  0  0  0  0  0  0  0  0  0
  140.7070   72.9000  221.3480 C   0  0  0  0  0  0  0  0  0  0  0  0
  141.1510   73.0040  220.0910 N   0  0  0  0  0  0  0  0  0  0  0  0
  141.2830   74.1630  219.4210 C   0  0  0  0  0  0  0  0  0  0  0  0
  141.7640   74.2130  218.0740 N   0  0  0  0  0  0  0  0  0  0  0  0
  143.0570   74.8240  217.7530 C   0  0  0  0  0  0  0  0  0  0  0  0
  144.0620   73.7250  217.7100 C   0  0  0  0  0  0  0  0  0  0  0  0
  144.4070   73.1780  219.0740 C   0  0  2  0  0  0  0  0  0  0  0  0
  144.4890   74.2150  220.1480 C   0  0  0  0  0  0  0  0  0  0  0  0
  145.3100   73.4810  221.2020 C   0  0  0  0  0  0  0  0  0  0  0  0
  146.3210   72.7640  220.3340 C   0  0  0  0  0  0  0  0  0  0  0  0
  145.7150   72.5490  219.0580 N   0  0  0  0  0  0  0  0  0  0  0  0
  140.9400   75.3120  220.0700 N   0  0  0  0  0  0  0  0  0  0  0  0
  140.4830   75.2600  221.3500 C   0  0  0  0  0  0  0  0  0  0  0  0
  140.1210   76.4590  222.0250 N   0  0  0  0  0  0  0  0  0  0  0  0
  138.7850   76.9860  221.8630 C   0  0  0  0  0  0  0  0  0  0  0  0
  138.4440   77.9860  222.9480 C   0  0  0  0  0  0  0  0  0  0  0  0
  139.5110   79.0020  223.1040 C   0  0  0  0  0  0  0  0  0  0  0  0
  139.2500   80.3410  223.2920 C   0  0  0  0  0  0  0  0  0  0  0  0
  140.2900   81.2600  223.4350 C   0  0  0  0  0  0  0  0  0  0  0  0
  141.6020   80.8380  223.3900 C   0  0  0  0  0  0  0  0  0  0  0  0
  141.8320   79.4900  223.2010 C   0  0  0  0  0  0  0  0  0  0  0  0
  140.8170   78.5680  223.0580 C   0  0  0  0  0  0  0  0  0  0  0  0
  141.0870   77.1290  222.8560 C   0  0  0  0  0  0  0  0  0  0  0  0
  140.3750   74.0750  221.9570 N   0  0  0  0  0  0  0  0  0  0  0  0
  140.3310   71.8630  224.4770 C   0  0  0  0  0  0  0  0  0  0  0  0
  140.1530   68.0527  228.2108 H   0  0  0  0  0  0  0  0  0  0  0  0
  141.9718   69.7825  228.2508 H   0  0  0  0  0  0  0  0  0  0  0  0
  141.9581   71.5044  226.4755 H   0  0  0  0  0  0  0  0  0  0  0  0
  138.4172   68.0775  226.4401 H   0  0  0  0  0  0  0  0  0  0  0  0
  137.6672   68.9603  224.2945 H   0  0  0  0  0  0  0  0  0  0  0  0
  137.4837   70.6900  224.5496 H   0  0  0  0  0  0  0  0  0  0  0  0
  139.8930   69.4163  223.0704 H   0  0  0  0  0  0  0  0  0  0  0  0
  138.4447   70.0392  222.2207 H   0  0  0  0  0  0  0  0  0  0  0  0
  138.8064   72.2576  223.1157 H   0  0  0  0  0  0  0  0  0  0  0  0
  141.1300   70.8650  221.7890 H   0  0  0  0  0  0  0  0  0  0  0  0
  141.1470   73.7950  217.3540 H   0  0  0  0  0  0  0  0  0  0  0  0
  143.0049   75.3261  216.7757 H   0  0  0  0  0  0  0  0  0  0  0  0
  143.3321   75.5770  218.5062 H   0  0  0  0  0  0  0  0  0  0  0  0
  143.6576   72.9058  217.0973 H   0  0  0  0  0  0  0  0  0  0  0  0
  144.9854   74.1443  217.2839 H   0  0  0  0  0  0  0  0  0  0  0  0
  143.5883   72.4773  219.2949 H   0  0  0  0  0  0  0  0  0  0  0  0
  145.0027   75.1215  219.7954 H   0  0  0  0  0  0  0  0  0  0  0  0
  143.5128   74.5753  220.5047 H   0  0  0  0  0  0  0  0  0  0  0  0
  145.7978   74.1826  221.8946 H   0  0  0  0  0  0  0  0  0  0  0  0
  144.7219   72.8185  221.8541 H   0  0  0  0  0  0  0  0  0  0  0  0
  147.2245   73.3813  220.2216 H   0  0  0  0  0  0  0  0  0  0  0  0
  146.6141   71.8069  220.7902 H   0  0  0  0  0  0  0  0  0  0  0  0
  145.7060   71.5640  218.7410 H   0  0  0  0  0  0  0  0  0  0  0  0
  138.7137   77.4831  220.8843 H   0  0  0  0  0  0  0  0  0  0  0  0
  138.0747   76.1489  221.9315 H   0  0  0  0  0  0  0  0  0  0  0  0
  137.5037   78.4925  222.6847 H   0  0  0  0  0  0  0  0  0  0  0  0
  138.3427   77.4426  223.8991 H   0  0  0  0  0  0  0  0  0  0  0  0
  138.2077   80.6907  223.3299 H   0  0  0  0  0  0  0  0  0  0  0  0
  140.0624   82.3258  223.5843 H   0  0  0  0  0  0  0  0  0  0  0  0
  142.4342   81.5488  223.5006 H   0  0  0  0  0  0  0  0  0  0  0  0
  142.8726   79.1353  223.1628 H   0  0  0  0  0  0  0  0  0  0  0  0
  142.0765   77.0261  222.3866 H   0  0  0  0  0  0  0  0  0  0  0  0
  141.0346   76.6550  223.8473 H   0  0  0  0  0  0  0  0  0  0  0  0
  141.3962   72.0447  224.2711 H   0  0  0  0  0  0  0  0  0  0  0  0
  139.8331   72.7475  224.9011 H   0  0  0  0  0  0  0  0  0  0  0  0
  1  2  2  0
  2  3  1  0
  3  4  2  0
  4  5  1  0
  5  6  2  0
  5  7  1  0
  7  8  1  0
  8  9  1  0
  9 10  1  0
 10 11  1  0
 11 12  2  0
 12 13  1  0
 13 14  1  0
 14 15  1  0
 15 16  1  0
 16 17  1  0
 17 18  1  0
 18 19  1  0
 19 20  1  0
 20 21  1  0
 13 22  2  0
 22 23  1  0
 23 24  1  0
 24 25  1  0
 25 26  1  0
 26 27  1  0
 27 28  2  0
 28 29  1  0
 29 30  2  0
 30 31  1  0
 31 32  2  0
 32 33  1  0
 23 34  2  0
  9 35  1  0
  6  1  1  0
 34 11  1  0
 35  4  1  0
 21 17  1  0
 33 24  1  0
 32 27  1  0
  1 36  1  0
  2 37  1  0
  3 38  1  0
  6 39  1  0
  7 40  1  0
  7 41  1  0
  8 42  1  0
  8 43  1  0
  9 44  1  6
 10 45  1  0
 14 46  1  0
 15 47  1  0
 15 48  1  0
 16 49  1  0
 16 50  1  0
 17 51  1  1
 18 52  1  0
 18 53  1  0
 19 54  1  0
 19 55  1  0
 20 56  1  0
 20 57  1  0
 21 58  1  0
 25 59  1  0
 25 60  1  0
 26 61  1  0
 26 62  1  0
 28 63  1  0
 29 64  1  0
 30 65  1  0
 31 66  1  0
 33 67  1  0
 33 68  1  0
 35 69  1  0
 35 70  1  0
M  END
>  <smiles>  (11) 
c1ccc2c(c1)CCC(Nc1nc(NCCC3CCCN3)nc(N3CCc4ccccc4C3)n1)C2

>  <score_type>  (11) 
oracle

>  <origin>  (11) 
autodockgpu

>  <m_score__min__energy>  (11) 
-9.8699999999999992

>  <m_primary>  (11) 
energy

>  <rmsd>  (11) 
11.566014112040472

>  <m_score__min__rmsd>  (11) 
11.566014112040472

>  <meeko>  (11) 
{"free_energy": -9.71, "intermolecular_energy": -11.8, "internal_energy": -1.28, "cluster_size": 17, "cluster_id": 3, "rank_in_cluster": 2}

>  <energy>  (11) 
-9.31

>  <cluster_rmsd>  (11) 
0.67

>  <cluster>  (11) 
2

$$$$

     RDKit          3D

 70 75  0  0  1  0  0  0  0  0999 V2000
  140.1970   69.1280  227.4260 C   0  0  0  0  0  0  0  0  0  0  0  0
  141.0810   70.2040  227.4740 C   0  0  0  0  0  0  0  0  0  0  0  0
  141.0650   71.0510  226.3920 C   0  0  0  0  0  0  0  0  0  0  0  0
  140.2440   70.8890  225.2990 C   0  0  0  0  0  0  0  0  0  0  0  0
  139.3880   69.8130  225.2950 C   0  0  0  0  0  0  0  0  0  0  0  0
  139.3520   68.9280  226.3450 C   0  0  0  0  0  0  0  0  0  0  0  0
  138.5110   69.6710  224.0870 C   0  0  0  0  0  0  0  0  0  0  0  0
  139.4620   69.9140  222.9040 C   0  0  0  0  0  0  0  0  0  0  0  0
  139.8520   71.3720  222.8860 C   0  0  2  0  0  0  0  0  0  0  0  0
  140.8760   71.5460  221.8590 N   0  0  0  0  0  0  0  0  0  0  0  0
  141.3930   72.7990  221.5030 C   0  0  0  0  0  0  0  0  0  0  0  0
  142.5030   72.9980  220.7850 N   0  0  0  0  0  0  0  0  0  0  0  0
  142.9890   74.2060  220.4490 C   0  0  0  0  0  0  0  0  0  0  0  0
  144.1840   74.3580  219.6760 N   0  0  0  0  0  0  0  0  0  0  0  0
  145.1750   73.2810  219.5940 C   0  0  0  0  0  0  0  0  0  0  0  0
  144.5500   72.1670  218.8270 C   0  0  0  0  0  0  0  0  0  0  0  0
  144.4620   70.8790  219.6090 C   0  0  2  0  0  0  0  0  0  0  0  0
  145.1830   69.7300  218.9790 C   0  0  0  0  0  0  0  0  0  0  0  0
  144.5140   68.5490  219.6730 C   0  0  0  0  0  0  0  0  0  0  0  0
  143.0740   69.0120  219.7100 C   0  0  0  0  0  0  0  0  0  0  0  0
  143.0830   70.4420  219.7230 N   0  0  0  0  0  0  0  0  0  0  0  0
  142.3000   75.3050  220.8710 N   0  0  0  0  0  0  0  0  0  0  0  0
  141.1650   75.1560  221.6040 C   0  0  0  0  0  0  0  0  0  0  0  0
  140.4450   76.3030  222.0400 N   0  0  0  0  0  0  0  0  0  0  0  0
  139.0890   76.5020  221.5810 C   0  0  0  0  0  0  0  0  0  0  0  0
  138.3480   77.4990  222.4480 C   0  0  0  0  0  0  0  0  0  0  0  0
  139.1370   78.7370  222.6480 C   0  0  0  0  0  0  0  0  0  0  0  0
  138.5820   79.9960  222.6070 C   0  0  0  0  0  0  0  0  0  0  0  0
  139.3680   81.1330  222.8030 C   0  0  0  0  0  0  0  0  0  0  0  0
  140.7200   81.0090  223.0410 C   0  0  0  0  0  0  0  0  0  0  0  0
  141.2490   79.7350  223.0760 C   0  0  0  0  0  0  0  0  0  0  0  0
  140.4870   78.6010  222.8860 C   0  0  0  0  0  0  0  0  0  0  0  0
  141.0740   77.2460  222.9280 C   0  0  0  0  0  0  0  0  0  0  0  0
  140.7370   73.9260  221.9030 N   0  0  0  0  0  0  0  0  0  0  0  0
  140.3400   71.8860  224.2120 C   0  0  0  0  0  0  0  0  0  0  0  0
  140.1688   68.4194  228.2669 H   0  0  0  0  0  0  0  0  0  0  0  0
  141.7534   70.3662  228.3293 H   0  0  0  0  0  0  0  0  0  0  0  0
  141.7504   71.9113  226.3998 H   0  0  0  0  0  0  0  0  0  0  0  0
  138.6617   68.0717  226.3284 H   0  0  0  0  0  0  0  0  0  0  0  0
  138.0751   68.6623  224.0371 H   0  0  0  0  0  0  0  0  0  0  0  0
  137.6616   70.3699  224.0969 H   0  0  0  0  0  0  0  0  0  0  0  0
  140.3618   69.2919  223.0190 H   0  0  0  0  0  0  0  0  0  0  0  0
  138.9614   69.6490  221.9611 H   0  0  0  0  0  0  0  0  0  0  0  0
  138.9524   71.9641  222.6623 H   0  0  0  0  0  0  0  0  0  0  0  0
  141.2220   70.6840  221.3830 H   0  0  0  0  0  0  0  0  0  0  0  0
  144.2990   75.2640  219.1870 H   0  0  0  0  0  0  0  0  0  0  0  0
  146.0769   73.6371  219.0746 H   0  0  0  0  0  0  0  0  0  0  0  0
  145.4724   72.9457  220.5986 H   0  0  0  0  0  0  0  0  0  0  0  0
  143.5329   72.4699  218.5377 H   0  0  0  0  0  0  0  0  0  0  0  0
  145.1896   71.9743  217.9531 H   0  0  0  0  0  0  0  0  0  0  0  0
  144.9233   71.1221  220.5775 H   0  0  0  0  0  0  0  0  0  0  0  0
  145.0243   69.7016  217.8909 H   0  0  0  0  0  0  0  0  0  0  0  0
  146.2764   69.7632  219.0947 H   0  0  0  0  0  0  0  0  0  0  0  0
  144.6254   67.6225  219.0906 H   0  0  0  0  0  0  0  0  0  0  0  0
  144.9365   68.3042  220.6587 H   0  0  0  0  0  0  0  0  0  0  0  0
  142.5393   68.6478  218.8204 H   0  0  0  0  0  0  0  0  0  0  0  0
  142.5634   68.6194  220.6017 H   0  0  0  0  0  0  0  0  0  0  0  0
  142.5670   70.8730  220.5090 H   0  0  0  0  0  0  0  0  0  0  0  0
  139.1134   76.8767  220.5471 H   0  0  0  0  0  0  0  0  0  0  0  0
  138.5617   75.5383  221.6370 H   0  0  0  0  0  0  0  0  0  0  0  0
  137.3955   77.7569  221.9619 H   0  0  0  0  0  0  0  0  0  0  0  0
  138.1737   77.0383  223.4316 H   0  0  0  0  0  0  0  0  0  0  0  0
  137.5043   80.1078  222.4172 H   0  0  0  0  0  0  0  0  0  0  0  0
  138.9069   82.1311  222.7674 H   0  0  0  0  0  0  0  0  0  0  0  0
  141.3545   81.8939  223.1974 H   0  0  0  0  0  0  0  0  0  0  0  0
  142.3266   79.6185  223.2638 H   0  0  0  0  0  0  0  0  0  0  0  0
  142.1367   77.3217  222.6544 H   0  0  0  0  0  0  0  0  0  0  0  0
  140.9232   76.8675  223.9497 H   0  0  0  0  0  0  0  0  0  0  0  0
  141.3933   72.1841  224.1042 H   0  0  0  0  0  0  0  0  0  0  0  0
  139.6948   72.7325  224.4897 H   0  0  0  0  0  0  0  0  0  0  0  0
  1  2  2  0
  2  3  1  0
  3  4  2  0
  4  5  1  0
  5  6  2  0
  5  7  1  0
  7  8  1  0
  8  9  1  0
  9 10  1  0
 10 11  1  0
 11 12  2  0
 12 13  1  0
 13 14  1  0
 14 15  1  0
 15 16  1  0
 16 17  1  0
 17 18  1  0
 18 19  1  0
 19 20  1  0
 20 21  1  0
 13 22  2  0
 22 23  1  0
 23 24  1  0
 24 25  1  0
 25 26  1  0
 26 27  1  0
 27 28  2  0
 28 29  1  0
 29 30  2  0
 30 31  1  0
 31 32  2  0
 32 33  1  0
 23 34  2  0
  9 35  1  0
  6  1  1  0
 34 11  1  0
 35  4  1  0
 21 17  1  0
 33 24  1  0
 32 27  1  0
  1 36  1  0
  2 37  1  0
  3 38  1  0
  6 39  1  0
  7 40  1  0
  7 41  1  0
  8 42  1  0
  8 43  1  0
  9 44  1  6
 10 45  1  0
 14 46  1  0
 15 47  1  0
 15 48  1  0
 16 49  1  0
 16 50  1  0
 17 51  1  1
 18 52  1  0
 18 53  1  0
 19 54  1  0
 19 55  1  0
 20 56  1  0
 20 57  1  0
 21 58  1  0
 25 59  1  0
 25 60  1  0
 26 61  1  0
 26 62  1  0
 28 63  1  0
 29 64  1  0
 30 65  1  0
 31 66  1  0
 33 67  1  0
 33 68  1  0
 35 69  1  0
 35 70  1  0
M  END
>  <smiles>  (12) 
c1ccc2c(c1)CCC(Nc1nc(NCCC3CCCN3)nc(N3CCc4ccccc4C3)n1)C2

>  <score_type>  (12) 
oracle

>  <origin>  (12) 
autodockgpu

>  <m_score__min__energy>  (12) 
-9.8699999999999992

>  <m_primary>  (12) 
energy

>  <rmsd>  (12) 
11.456261923352402

>  <m_score__min__rmsd>  (12) 
11.456261923352402

>  <meeko>  (12) 
{"free_energy": -8.92, "intermolecular_energy": -11.01, "internal_energy": -2.07, "cluster_size": 1, "cluster_id": 9, "rank_in_cluster": 1}

>  <energy>  (12) 
-9.3

>  <cluster_rmsd>  (12) 
1.09

>  <cluster>  (12) 
2

$$$$

     RDKit          3D

 70 75  0  0  1  0  0  0  0  0999 V2000
  140.4040   68.1650  227.6650 C   0  0  0  0  0  0  0  0  0  0  0  0
  141.0610   69.3620  227.9370 C   0  0  0  0  0  0  0  0  0  0  0  0
  140.8560   70.3840  227.0410 C   0  0  0  0  0  0  0  0  0  0  0  0
  140.0590   70.2810  225.9240 C   0  0  0  0  0  0  0  0  0  0  0  0
  139.4290   69.0800  225.6950 C   0  0  0  0  0  0  0  0  0  0  0  0
  139.5910   68.0180  226.5510 C   0  0  0  0  0  0  0  0  0  0  0  0
  138.5710   69.0080  224.4680 C   0  0  0  0  0  0  0  0  0  0  0  0
  139.4300   69.6580  223.3710 C   0  0  0  0  0  0  0  0  0  0  0  0
  139.5270   71.1400  223.6460 C   0  0  2  0  0  0  0  0  0  0  0  0
  140.4750   71.7070  222.6900 N   0  0  0  0  0  0  0  0  0  0  0  0
  140.1500   72.7680  221.8340 C   0  0  0  0  0  0  0  0  0  0  0  0
  139.8320   72.6450  220.5410 N   0  0  0  0  0  0  0  0  0  0  0  0
  139.5230   73.6720  219.7300 C   0  0  0  0  0  0  0  0  0  0  0  0
  139.1890   73.4790  218.3520 N   0  0  0  0  0  0  0  0  0  0  0  0
  139.9350   74.1600  217.2890 C   0  0  0  0  0  0  0  0  0  0  0  0
  141.3840   73.9650  217.5760 C   0  0  0  0  0  0  0  0  0  0  0  0
  141.9210   74.9240  218.6110 C   0  0  2  0  0  0  0  0  0  0  0  0
  143.1560   75.6530  218.1880 C   0  0  0  0  0  0  0  0  0  0  0  0
  143.7070   76.1020  219.5370 C   0  0  0  0  0  0  0  0  0  0  0  0
  143.4290   74.8810  220.3850 C   0  0  0  0  0  0  0  0  0  0  0  0
  142.2990   74.2130  219.8200 N   0  0  0  0  0  0  0  0  0  0  0  0
  139.5340   74.9270  220.2650 N   0  0  0  0  0  0  0  0  0  0  0  0
  139.8500   75.1050  221.5750 C   0  0  0  0  0  0  0  0  0  0  0  0
  139.8570   76.4140  222.1320 N   0  0  0  0  0  0  0  0  0  0  0  0
  138.6520   77.2100  222.0820 C   0  0  0  0  0  0  0  0  0  0  0  0
  138.7020   78.3600  223.0660 C   0  0  0  0  0  0  0  0  0  0  0  0
  139.9690   79.1210  222.9480 C   0  0  0  0  0  0  0  0  0  0  0  0
  140.0250   80.4950  222.9950 C   0  0  0  0  0  0  0  0  0  0  0  0
  141.2440   81.1660  222.8800 C   0  0  0  0  0  0  0  0  0  0  0  0
  142.4150   80.4570  222.7170 C   0  0  0  0  0  0  0  0  0  0  0  0
  142.3260   79.0800  222.6730 C   0  0  0  0  0  0  0  0  0  0  0  0
  141.1310   78.4010  222.7850 C   0  0  0  0  0  0  0  0  0  0  0  0
  141.0610   76.9260  222.7360 C   0  0  0  0  0  0  0  0  0  0  0  0
  140.1480   74.0410  222.3250 N   0  0  0  0  0  0  0  0  0  0  0  0
  139.9350   71.4700  225.0540 C   0  0  0  0  0  0  0  0  0  0  0  0
  140.5330   67.3146  228.3507 H   0  0  0  0  0  0  0  0  0  0  0  0
  141.7074   69.4830  228.8188 H   0  0  0  0  0  0  0  0  0  0  0  0
  141.3602   71.3435  227.2285 H   0  0  0  0  0  0  0  0  0  0  0  0
  139.0821   67.0626  226.3553 H   0  0  0  0  0  0  0  0  0  0  0  0
  138.3391   67.9630  224.2145 H   0  0  0  0  0  0  0  0  0  0  0  0
  137.6024   69.5123  224.6000 H   0  0  0  0  0  0  0  0  0  0  0  0
  140.4363   69.2138  223.3771 H   0  0  0  0  0  0  0  0  0  0  0  0
  138.9705   69.4890  222.3860 H   0  0  0  0  0  0  0  0  0  0  0  0
  138.5245   71.5772  223.5282 H   0  0  0  0  0  0  0  0  0  0  0  0
  141.4300   71.2870  222.6610 H   0  0  0  0  0  0  0  0  0  0  0  0
  138.3990   72.8370  218.1590 H   0  0  0  0  0  0  0  0  0  0  0  0
  139.6820   73.7236  216.3115 H   0  0  0  0  0  0  0  0  0  0  0  0
  139.6828   75.2303  217.2578 H   0  0  0  0  0  0  0  0  0  0  0  0
  141.5327   72.9380  217.9409 H   0  0  0  0  0  0  0  0  0  0  0  0
  141.9304   74.1551  216.6404 H   0  0  0  0  0  0  0  0  0  0  0  0
  141.1001   75.6400  218.7640 H   0  0  0  0  0  0  0  0  0  0  0  0
  143.8591   74.9872  217.6661 H   0  0  0  0  0  0  0  0  0  0  0  0
  142.9769   76.4725  217.4765 H   0  0  0  0  0  0  0  0  0  0  0  0
  144.7841   76.3182  219.4814 H   0  0  0  0  0  0  0  0  0  0  0  0
  143.2615   77.0313  219.9215 H   0  0  0  0  0  0  0  0  0  0  0  0
  144.3025   74.2124  220.3782 H   0  0  0  0  0  0  0  0  0  0  0  0
  143.2264   75.1710  221.4266 H   0  0  0  0  0  0  0  0  0  0  0  0
  141.5160   74.0520  220.4760 H   0  0  0  0  0  0  0  0  0  0  0  0
  138.5333   77.6145  221.0660 H   0  0  0  0  0  0  0  0  0  0  0  0
  137.8023   76.5649  222.3499 H   0  0  0  0  0  0  0  0  0  0  0  0
  137.8583   79.0373  222.8674 H   0  0  0  0  0  0  0  0  0  0  0  0
  138.6410   77.9466  224.0835 H   0  0  0  0  0  0  0  0  0  0  0  0
  139.0976   81.0721  223.1248 H   0  0  0  0  0  0  0  0  0  0  0  0
  141.2701   82.2650  222.9196 H   0  0  0  0  0  0  0  0  0  0  0  0
  143.3841   80.9693  222.6254 H   0  0  0  0  0  0  0  0  0  0  0  0
  143.2503   78.4980  222.5427 H   0  0  0  0  0  0  0  0  0  0  0  0
  141.9212   76.5584  222.1572 H   0  0  0  0  0  0  0  0  0  0  0  0
  141.0681   76.5733  223.7779 H   0  0  0  0  0  0  0  0  0  0  0  0
  140.9076   71.9829  225.0239 H   0  0  0  0  0  0  0  0  0  0  0  0
  139.1436   72.1035  225.4811 H   0  0  0  0  0  0  0  0  0  0  0  0
  1  2  2  0
  2  3  1  0
  3  4  2  0
  4  5  1  0
  5  6  2  0
  5  7  1  0
  7  8  1  0
  8  9  1  0
  9 10  1  0
 10 11  1  0
 11 12  2  0
 12 13  1  0
 13 14  1  0
 14 15  1  0
 15 16  1  0
 16 17  1  0
 17 18  1  0
 18 19  1  0
 19 20  1  0
 20 21  1  0
 13 22  2  0
 22 23  1  0
 23 24  1  0
 24 25  1  0
 25 26  1  0
 26 27  1  0
 27 28  2  0
 28 29  1  0
 29 30  2  0
 30 31  1  0
 31 32  2  0
 32 33  1  0
 23 34  2  0
  9 35  1  0
  6  1  1  0
 34 11  1  0
 35  4  1  0
 21 17  1  0
 33 24  1  0
 32 27  1  0
  1 36  1  0
  2 37  1  0
  3 38  1  0
  6 39  1  0
  7 40  1  0
  7 41  1  0
  8 42  1  0
  8 43  1  0
  9 44  1  6
 10 45  1  0
 14 46  1  0
 15 47  1  0
 15 48  1  0
 16 49  1  0
 16 50  1  0
 17 51  1  1
 18 52  1  0
 18 53  1  0
 19 54  1  0
 19 55  1  0
 20 56  1  0
 20 57  1  0
 21 58  1  0
 25 59  1  0
 25 60  1  0
 26 61  1  0
 26 62  1  0
 28 63  1  0
 29 64  1  0
 30 65  1  0
 31 66  1  0
 33 67  1  0
 33 68  1  0
 35 69  1  0
 35 70  1  0
M  END
>  <smiles>  (13) 
c1ccc2c(c1)CCC(Nc1nc(NCCC3CCCN3)nc(N3CCc4ccccc4C3)n1)C2

>  <score_type>  (13) 
oracle

>  <origin>  (13) 
autodockgpu

>  <m_score__min__energy>  (13) 
-9.8699999999999992

>  <m_primary>  (13) 
energy

>  <rmsd>  (13) 
12.018842525915096

>  <m_score__min__rmsd>  (13) 
12.018842525915096

>  <meeko>  (13) 
{"free_energy": -8.85, "intermolecular_energy": -10.94, "internal_energy": -2.88, "cluster_size": 17, "cluster_id": 3, "rank_in_cluster": 8}

>  <energy>  (13) 
-9.24

>  <cluster_rmsd>  (13) 
0.91

>  <cluster>  (13) 
2

$$$$

     RDKit          3D

 70 75  0  0  1  0  0  0  0  0999 V2000
  140.9800   80.8020  223.7920 C   0  0  0  0  0  0  0  0  0  0  0  0
  142.1940   80.6260  223.1320 C   0  0  0  0  0  0  0  0  0  0  0  0
  142.2660   79.5570  222.2700 C   0  0  0  0  0  0  0  0  0  0  0  0
  141.2280   78.6830  222.0390 C   0  0  0  0  0  0  0  0  0  0  0  0
  140.0480   78.8960  222.7120 C   0  0  0  0  0  0  0  0  0  0  0  0
  139.9090   79.9450  223.5880 C   0  0  0  0  0  0  0  0  0  0  0  0
  138.9430   77.9220  222.4330 C   0  0  0  0  0  0  0  0  0  0  0  0
  139.6320   76.5490  222.4860 C   0  0  0  0  0  0  0  0  0  0  0  0
  140.5340   76.4120  221.2830 C   0  0  2  0  0  0  0  0  0  0  0  0
  141.2960   75.1760  221.4370 N   0  0  0  0  0  0  0  0  0  0  0  0
  140.6930   73.9140  221.5200 C   0  0  0  0  0  0  0  0  0  0  0  0
  140.0950   73.2780  220.5070 N   0  0  0  0  0  0  0  0  0  0  0  0
  139.5190   72.0660  220.6000 C   0  0  0  0  0  0  0  0  0  0  0  0
  138.8940   71.4330  219.4790 N   0  0  0  0  0  0  0  0  0  0  0  0
  139.6280   70.4810  218.6400 C   0  0  0  0  0  0  0  0  0  0  0  0
  140.7960   70.0060  219.4340 C   0  0  0  0  0  0  0  0  0  0  0  0
  141.9430   70.9860  219.4530 C   0  0  2  0  0  0  0  0  0  0  0  0
  143.2000   70.4700  218.8290 C   0  0  0  0  0  0  0  0  0  0  0  0
  144.2360   71.4120  219.4340 C   0  0  0  0  0  0  0  0  0  0  0  0
  143.7230   71.5350  220.8520 C   0  0  0  0  0  0  0  0  0  0  0  0
  142.3100   71.3200  220.8170 N   0  0  0  0  0  0  0  0  0  0  0  0
  139.5490   71.4420  221.8120 N   0  0  0  0  0  0  0  0  0  0  0  0
  140.1460   72.0470  222.8740 C   0  0  0  0  0  0  0  0  0  0  0  0
  140.1800   71.3930  224.1370 N   0  0  0  0  0  0  0  0  0  0  0  0
  141.0670   71.8890  225.1650 C   0  0  0  0  0  0  0  0  0  0  0  0
  140.6780   71.3710  226.5340 C   0  0  0  0  0  0  0  0  0  0  0  0
  140.4780   69.9030  226.5230 C   0  0  0  0  0  0  0  0  0  0  0  0
  140.9260   69.0780  227.5300 C   0  0  0  0  0  0  0  0  0  0  0  0
  140.7120   67.6990  227.4740 C   0  0  0  0  0  0  0  0  0  0  0  0
  140.0460   67.1420  226.4030 C   0  0  0  0  0  0  0  0  0  0  0  0
  139.6090   67.9950  225.4100 C   0  0  0  0  0  0  0  0  0  0  0  0
  139.8110   69.3580  225.4490 C   0  0  0  0  0  0  0  0  0  0  0  0
  139.3330   70.2520  224.3730 C   0  0  0  0  0  0  0  0  0  0  0  0
  140.6990   73.2520  222.7130 N   0  0  0  0  0  0  0  0  0  0  0  0
  141.4570   77.5810  221.0800 C   0  0  0  0  0  0  0  0  0  0  0  0
  140.8680   81.6423  224.4930 H   0  0  0  0  0  0  0  0  0  0  0  0
  143.0461   81.3032  223.2912 H   0  0  0  0  0  0  0  0  0  0  0  0
  143.2109   79.3901  221.7322 H   0  0  0  0  0  0  0  0  0  0  0  0
  138.9599   80.1032  224.1210 H   0  0  0  0  0  0  0  0  0  0  0  0
  138.1563   77.9940  223.1985 H   0  0  0  0  0  0  0  0  0  0  0  0
  138.4482   78.1094  221.4686 H   0  0  0  0  0  0  0  0  0  0  0  0
  140.2287   76.4698  223.4067 H   0  0  0  0  0  0  0  0  0  0  0  0
  138.8758   75.7502  222.4797 H   0  0  0  0  0  0  0  0  0  0  0  0
  139.9022   76.3863  220.3829 H   0  0  0  0  0  0  0  0  0  0  0  0
  142.3360   75.2620  221.4860 H   0  0  0  0  0  0  0  0  0  0  0  0
  137.9050   71.6870  219.3040 H   0  0  0  0  0  0  0  0  0  0  0  0
  138.9799   69.6318  218.3775 H   0  0  0  0  0  0  0  0  0  0  0  0
  139.9582   70.9572  217.7050 H   0  0  0  0  0  0  0  0  0  0  0  0
  140.4673   69.8332  220.4694 H   0  0  0  0  0  0  0  0  0  0  0  0
  141.1620   69.0853  218.9562 H   0  0  0  0  0  0  0  0  0  0  0  0
  141.5679   71.8463  218.8793 H   0  0  0  0  0  0  0  0  0  0  0  0
  143.3913   69.4244  219.1119 H   0  0  0  0  0  0  0  0  0  0  0  0
  143.1872   70.4576  217.7291 H   0  0  0  0  0  0  0  0  0  0  0  0
  145.2448   70.9743  219.4061 H   0  0  0  0  0  0  0  0  0  0  0  0
  144.3399   72.3709  218.9051 H   0  0  0  0  0  0  0  0  0  0  0  0
  144.2023   70.7794  221.4918 H   0  0  0  0  0  0  0  0  0  0  0  0
  143.9540   72.5288  221.2632 H   0  0  0  0  0  0  0  0  0  0  0  0
  141.7440   72.0810  221.2320 H   0  0  0  0  0  0  0  0  0  0  0  0
  142.0932   71.5638  224.9385 H   0  0  0  0  0  0  0  0  0  0  0  0
  140.9972   72.9867  225.1797 H   0  0  0  0  0  0  0  0  0  0  0  0
  141.4763   71.6175  227.2494 H   0  0  0  0  0  0  0  0  0  0  0  0
  139.7298   71.8461  226.8259 H   0  0  0  0  0  0  0  0  0  0  0  0
  141.4592   69.5104  228.3895 H   0  0  0  0  0  0  0  0  0  0  0  0
  141.0763   67.0547  228.2877 H   0  0  0  0  0  0  0  0  0  0  0  0
  139.8695   66.0580  226.3422 H   0  0  0  0  0  0  0  0  0  0  0  0
  139.0752   67.5678  224.5483 H   0  0  0  0  0  0  0  0  0  0  0  0
  139.2707   69.6695  223.4420 H   0  0  0  0  0  0  0  0  0  0  0  0
  138.3567   70.6429  224.6955 H   0  0  0  0  0  0  0  0  0  0  0  0
  142.4936   77.2305  221.1925 H   0  0  0  0  0  0  0  0  0  0  0  0
  141.2600   77.9796  220.0739 H   0  0  0  0  0  0  0  0  0  0  0  0
  1  2  2  0
  2  3  1  0
  3  4  2  0
  4  5  1  0
  5  6  2  0
  5  7  1  0
  7  8  1  0
  8  9  1  0
  9 10  1  0
 10 11  1  0
 11 12  2  0
 12 13  1  0
 13 14  1  0
 14 15  1  0
 15 16  1  0
 16 17  1  0
 17 18  1  0
 18 19  1  0
 19 20  1  0
 20 21  1  0
 13 22  2  0
 22 23  1  0
 23 24  1  0
 24 25  1  0
 25 26  1  0
 26 27  1  0
 27 28  2  0
 28 29  1  0
 29 30  2  0
 30 31  1  0
 31 32  2  0
 32 33  1  0
 23 34  2  0
  9 35  1  0
  6  1  1  0
 34 11  1  0
 35  4  1  0
 21 17  1  0
 33 24  1  0
 32 27  1  0
  1 36  1  0
  2 37  1  0
  3 38  1  0
  6 39  1  0
  7 40  1  0
  7 41  1  0
  8 42  1  0
  8 43  1  0
  9 44  1  6
 10 45  1  0
 14 46  1  0
 15 47  1  0
 15 48  1  0
 16 49  1  0
 16 50  1  0
 17 51  1  6
 18 52  1  0
 18 53  1  0
 19 54  1  0
 19 55  1  0
 20 56  1  0
 20 57  1  0
 21 58  1  0
 25 59  1  0
 25 60  1  0
 26 61  1  0
 26 62  1  0
 28 63  1  0
 29 64  1  0
 30 65  1  0
 31 66  1  0
 33 67  1  0
 33 68  1  0
 35 69  1  0
 35 70  1  0
M  END
>  <smiles>  (14) 
c1ccc2c(c1)CCC(Nc1nc(NCCC3CCCN3)nc(N3CCc4ccccc4C3)n1)C2

>  <score_type>  (14) 
oracle

>  <origin>  (14) 
autodockgpu

>  <m_score__min__energy>  (14) 
-9.8699999999999992

>  <m_primary>  (14) 
energy

>  <rmsd>  (14) 
4.344210092747116

>  <m_score__min__rmsd>  (14) 
4.344210092747116

>  <meeko>  (14) 
{"free_energy": -8.73, "intermolecular_energy": -10.82, "internal_energy": -2.68, "cluster_size": 17, "cluster_id": 3, "rank_in_cluster": 11}

>  <energy>  (14) 
-9.08

>  <cluster_rmsd>  (14) 
0.81

>  <cluster>  (14) 
2

$$$$

     RDKit          3D

 70 75  0  0  1  0  0  0  0  0999 V2000
  141.2860   80.5690  223.8540 C   0  0  0  0  0  0  0  0  0  0  0  0
  142.4840   80.2860  223.2030 C   0  0  0  0  0  0  0  0  0  0  0  0
  142.4560   79.2450  222.3050 C   0  0  0  0  0  0  0  0  0  0  0  0
  141.3350   78.4950  222.0310 C   0  0  0  0  0  0  0  0  0  0  0  0
  140.1740   78.8100  222.6980 C   0  0  0  0  0  0  0  0  0  0  0  0
  140.1330   79.8380  223.6070 C   0  0  0  0  0  0  0  0  0  0  0  0
  138.9760   77.9690  222.3720 C   0  0  0  0  0  0  0  0  0  0  0  0
  139.5140   76.5290  222.3850 C   0  0  0  0  0  0  0  0  0  0  0  0
  140.4150   76.3370  221.1890 C   0  0  2  0  0  0  0  0  0  0  0  0
  141.0390   75.0230  221.3090 N   0  0  0  0  0  0  0  0  0  0  0  0
  140.3070   73.8480  221.5280 C   0  0  0  0  0  0  0  0  0  0  0  0
  139.4650   73.2900  220.6520 N   0  0  0  0  0  0  0  0  0  0  0  0
  138.7680   72.1620  220.8750 C   0  0  0  0  0  0  0  0  0  0  0  0
  137.8810   71.6100  219.8960 N   0  0  0  0  0  0  0  0  0  0  0  0
  136.5920   71.0300  220.2840 C   0  0  0  0  0  0  0  0  0  0  0  0
  136.8740   69.6950  220.8820 C   0  0  0  0  0  0  0  0  0  0  0  0
  136.7570   69.6770  222.3870 C   0  0  2  0  0  0  0  0  0  0  0  0
  135.7450   68.7100  222.9110 C   0  0  0  0  0  0  0  0  0  0  0  0
  135.5040   69.2680  224.3100 C   0  0  0  0  0  0  0  0  0  0  0  0
  135.5120   70.7550  224.0330 C   0  0  0  0  0  0  0  0  0  0  0  0
  136.3310   70.9740  222.8820 N   0  0  0  0  0  0  0  0  0  0  0  0
  138.9320   71.5440  222.0790 N   0  0  0  0  0  0  0  0  0  0  0  0
  139.7760   72.0710  223.0050 C   0  0  0  0  0  0  0  0  0  0  0  0
  139.9490   71.4230  224.2600 N   0  0  0  0  0  0  0  0  0  0  0  0
  140.9610   71.9080  225.1710 C   0  0  0  0  0  0  0  0  0  0  0  0
  140.7290   71.4040  226.5810 C   0  0  0  0  0  0  0  0  0  0  0  0
  140.5040   69.9390  226.6040 C   0  0  0  0  0  0  0  0  0  0  0  0
  141.0540   69.1110  227.5560 C   0  0  0  0  0  0  0  0  0  0  0  0
  140.8110   67.7370  227.5360 C   0  0  0  0  0  0  0  0  0  0  0  0
  140.0120   67.1870  226.5560 C   0  0  0  0  0  0  0  0  0  0  0  0
  139.4740   68.0420  225.6160 C   0  0  0  0  0  0  0  0  0  0  0  0
  139.7040   69.4020  225.6210 C   0  0  0  0  0  0  0  0  0  0  0  0
  139.1170   70.2990  224.6030 C   0  0  0  0  0  0  0  0  0  0  0  0
  140.4390   73.1960  222.7190 N   0  0  0  0  0  0  0  0  0  0  0  0
  141.4600   77.4070  221.0380 C   0  0  0  0  0  0  0  0  0  0  0  0
  141.2530   81.3927  224.5823 H   0  0  0  0  0  0  0  0  0  0  0  0
  143.4007   80.8625  223.3961 H   0  0  0  0  0  0  0  0  0  0  0  0
  143.3863   78.9965  221.7732 H   0  0  0  0  0  0  0  0  0  0  0  0
  139.1975   80.0791  224.1330 H   0  0  0  0  0  0  0  0  0  0  0  0
  138.1897   78.0989  223.1302 H   0  0  0  0  0  0  0  0  0  0  0  0
  138.5192   78.2403  221.4088 H   0  0  0  0  0  0  0  0  0  0  0  0
  140.0843   76.3555  223.3095 H   0  0  0  0  0  0  0  0  0  0  0  0
  138.6772   75.8163  222.3415 H   0  0  0  0  0  0  0  0  0  0  0  0
  139.7981   76.4089  220.2811 H   0  0  0  0  0  0  0  0  0  0  0  0
  142.0790   74.9810  221.2260 H   0  0  0  0  0  0  0  0  0  0  0  0
  138.2060   71.6470  218.9130 H   0  0  0  0  0  0  0  0  0  0  0  0
  136.0943   71.6764  221.0219 H   0  0  0  0  0  0  0  0  0  0  0  0
  135.9271   70.9359  219.4127 H   0  0  0  0  0  0  0  0  0  0  0  0
  136.1590   68.9690  220.4677 H   0  0  0  0  0  0  0  0  0  0  0  0
  137.9149   69.4405  220.6335 H   0  0  0  0  0  0  0  0  0  0  0  0
  137.7609   69.3868  222.7304 H   0  0  0  0  0  0  0  0  0  0  0  0
  134.8252   68.7217  222.3077 H   0  0  0  0  0  0  0  0  0  0  0  0
  136.0704   67.6594  222.8924 H   0  0  0  0  0  0  0  0  0  0  0  0
  134.5362   68.9378  224.7154 H   0  0  0  0  0  0  0  0  0  0  0  0
  136.2392   68.9427  225.0608 H   0  0  0  0  0  0  0  0  0  0  0  0
  134.4880   71.1060  223.8374 H   0  0  0  0  0  0  0  0  0  0  0  0
  135.9052   71.3079  224.8988 H   0  0  0  0  0  0  0  0  0  0  0  0
  137.1030   71.6480  223.0190 H   0  0  0  0  0  0  0  0  0  0  0  0
  141.9469   71.5629  224.8261 H   0  0  0  0  0  0  0  0  0  0  0  0
  140.9128   73.0068  225.1858 H   0  0  0  0  0  0  0  0  0  0  0  0
  141.6110   71.6399  227.1946 H   0  0  0  0  0  0  0  0  0  0  0  0
  139.8308   71.8975  226.9805 H   0  0  0  0  0  0  0  0  0  0  0  0
  141.6934   69.5378  228.3428 H   0  0  0  0  0  0  0  0  0  0  0  0
  141.2586   67.0902  228.3050 H   0  0  0  0  0  0  0  0  0  0  0  0
  139.8108   66.1060  226.5247 H   0  0  0  0  0  0  0  0  0  0  0  0
  138.8332   67.6202  224.8276 H   0  0  0  0  0  0  0  0  0  0  0  0
  138.9345   69.7130  223.6902 H   0  0  0  0  0  0  0  0  0  0  0  0
  138.1929   70.7090  225.0365 H   0  0  0  0  0  0  0  0  0  0  0  0
  142.4515   76.9442  221.1509 H   0  0  0  0  0  0  0  0  0  0  0  0
  141.3218   77.8575  220.0440 H   0  0  0  0  0  0  0  0  0  0  0  0
  1  2  2  0
  2  3  1  0
  3  4  2  0
  4  5  1  0
  5  6  2  0
  5  7  1  0
  7  8  1  0
  8  9  1  0
  9 10  1  0
 10 11  1  0
 11 12  2  0
 12 13  1  0
 13 14  1  0
 14 15  1  0
 15 16  1  0
 16 17  1  0
 17 18  1  0
 18 19  1  0
 19 20  1  0
 20 21  1  0
 13 22  2  0
 22 23  1  0
 23 24  1  0
 24 25  1  0
 25 26  1  0
 26 27  1  0
 27 28  2  0
 28 29  1  0
 29 30  2  0
 30 31  1  0
 31 32  2  0
 32 33  1  0
 23 34  2  0
  9 35  1  0
  6  1  1  0
 34 11  1  0
 35  4  1  0
 21 17  1  0
 33 24  1  0
 32 27  1  0
  1 36  1  0
  2 37  1  0
  3 38  1  0
  6 39  1  0
  7 40  1  0
  7 41  1  0
  8 42  1  0
  8 43  1  0
  9 44  1  6
 10 45  1  0
 14 46  1  0
 15 47  1  0
 15 48  1  0
 16 49  1  0
 16 50  1  0
 17 51  1  1
 18 52  1  0
 18 53  1  0
 19 54  1  0
 19 55  1  0
 20 56  1  0
 20 57  1  0
 21 58  1  0
 25 59  1  0
 25 60  1  0
 26 61  1  0
 26 62  1  0
 28 63  1  0
 29 64  1  0
 30 65  1  0
 31 66  1  0
 33 67  1  0
 33 68  1  0
 35 69  1  0
 35 70  1  0
M  END
>  <smiles>  (15) 
c1ccc2c(c1)CCC(Nc1nc(NCCC3CCCN3)nc(N3CCc4ccccc4C3)n1)C2

>  <score_type>  (15) 
oracle

>  <origin>  (15) 
autodockgpu

>  <m_score__min__energy>  (15) 
-9.8699999999999992

>  <m_primary>  (15) 
energy

>  <rmsd>  (15) 
4.515488449601748

>  <m_score__min__rmsd>  (15) 
4.515488449601748

>  <meeko>  (15) 
{"free_energy": -8.54, "intermolecular_energy": -10.63, "internal_energy": -2.18, "cluster_size": 17, "cluster_id": 2, "rank_in_cluster": 16}

>  <energy>  (15) 
-9.07

>  <cluster_rmsd>  (15) 
0.56

>  <cluster>  (15) 
2

$$$$

     RDKit          3D

 70 75  0  0  1  0  0  0  0  0999 V2000
  142.1970   81.6470  223.3970 C   0  0  0  0  0  0  0  0  0  0  0  0
  142.9110   80.5430  223.8580 C   0  0  0  0  0  0  0  0  0  0  0  0
  142.5520   79.3260  223.3310 C   0  0  0  0  0  0  0  0  0  0  0  0
  141.5530   79.1530  222.4010 C   0  0  0  0  0  0  0  0  0  0  0  0
  140.8740   80.2710  221.9740 C   0  0  0  0  0  0  0  0  0  0  0  0
  141.1830   81.5180  222.4600 C   0  0  0  0  0  0  0  0  0  0  0  0
  139.7920   80.0410  220.9620 C   0  0  0  0  0  0  0  0  0  0  0  0
  139.0250   78.8250  221.5040 C   0  0  0  0  0  0  0  0  0  0  0  0
  139.8980   77.6010  221.3700 C   0  0  2  0  0  0  0  0  0  0  0  0
  139.2160   76.4940  222.0350 N   0  0  0  0  0  0  0  0  0  0  0  0
  139.1950   75.1910  221.5190 C   0  0  0  0  0  0  0  0  0  0  0  0
  139.0020   74.8740  220.2350 N   0  0  0  0  0  0  0  0  0  0  0  0
  138.9840   73.6190  219.7520 C   0  0  0  0  0  0  0  0  0  0  0  0
  138.7740   73.3400  218.3650 N   0  0  0  0  0  0  0  0  0  0  0  0
  139.6780   73.8700  217.3390 C   0  0  0  0  0  0  0  0  0  0  0  0
  141.0680   73.5610  217.7780 C   0  0  0  0  0  0  0  0  0  0  0  0
  141.6230   74.5670  218.7570 C   0  0  2  0  0  0  0  0  0  0  0  0
  142.9780   75.0860  218.4000 C   0  0  0  0  0  0  0  0  0  0  0  0
  143.4490   75.6280  219.7460 C   0  0  0  0  0  0  0  0  0  0  0  0
  142.9300   74.5610  220.6840 C   0  0  0  0  0  0  0  0  0  0  0  0
  141.7820   73.9700  220.0700 N   0  0  0  0  0  0  0  0  0  0  0  0
  139.1780   72.5980  220.6360 N   0  0  0  0  0  0  0  0  0  0  0  0
  139.3790   72.8680  221.9530 C   0  0  0  0  0  0  0  0  0  0  0  0
  139.5850   71.8020  222.8740 N   0  0  0  0  0  0  0  0  0  0  0  0
  138.6750   70.6800  222.8690 C   0  0  0  0  0  0  0  0  0  0  0  0
  139.2640   69.4810  223.5820 C   0  0  0  0  0  0  0  0  0  0  0  0
  139.8070   69.8520  224.9110 C   0  0  0  0  0  0  0  0  0  0  0  0
  139.6350   69.0750  226.0340 C   0  0  0  0  0  0  0  0  0  0  0  0
  140.1660   69.4670  227.2640 C   0  0  0  0  0  0  0  0  0  0  0  0
  140.8740   70.6450  227.3710 C   0  0  0  0  0  0  0  0  0  0  0  0
  141.0300   71.4020  226.2270 C   0  0  0  0  0  0  0  0  0  0  0  0
  140.5120   71.0300  225.0040 C   0  0  0  0  0  0  0  0  0  0  0  0
  140.6920   71.8570  223.7930 C   0  0  0  0  0  0  0  0  0  0  0  0
  139.3850   74.1380  222.3660 N   0  0  0  0  0  0  0  0  0  0  0  0
  141.2830   77.7790  221.9260 C   0  0  0  0  0  0  0  0  0  0  0  0
  142.4438   82.6459  223.7860 H   0  0  0  0  0  0  0  0  0  0  0  0
  143.7160   80.6401  224.6013 H   0  0  0  0  0  0  0  0  0  0  0  0
  143.0973   78.4344  223.6740 H   0  0  0  0  0  0  0  0  0  0  0  0
  140.6326   82.4038  222.1101 H   0  0  0  0  0  0  0  0  0  0  0  0
  139.1323   80.9182  220.8893 H   0  0  0  0  0  0  0  0  0  0  0  0
  140.1890   79.8732  219.9500 H   0  0  0  0  0  0  0  0  0  0  0  0
  138.7754   78.9871  222.5630 H   0  0  0  0  0  0  0  0  0  0  0  0
  138.0946   78.6851  220.9340 H   0  0  0  0  0  0  0  0  0  0  0  0
  140.0432   77.4001  220.2983 H   0  0  0  0  0  0  0  0  0  0  0  0
  138.7290   76.7070  222.9340 H   0  0  0  0  0  0  0  0  0  0  0  0
  137.9550   72.7470  218.1370 H   0  0  0  0  0  0  0  0  0  0  0  0
  139.4726   73.3901  216.3708 H   0  0  0  0  0  0  0  0  0  0  0  0
  139.5381   74.9541  217.2160 H   0  0  0  0  0  0  0  0  0  0  0  0
  141.0709   72.5703  218.2561 H   0  0  0  0  0  0  0  0  0  0  0  0
  141.7065   73.5914  216.8828 H   0  0  0  0  0  0  0  0  0  0  0  0
  140.8927   75.3894  218.7375 H   0  0  0  0  0  0  0  0  0  0  0  0
  143.6351   74.2822  218.0364 H   0  0  0  0  0  0  0  0  0  0  0  0
  142.9787   75.8282  217.5881 H   0  0  0  0  0  0  0  0  0  0  0  0
  144.5454   75.7053  219.7891 H   0  0  0  0  0  0  0  0  0  0  0  0
  143.0952   76.6441  219.9747 H   0  0  0  0  0  0  0  0  0  0  0  0
  143.7037   73.7964  220.8478 H   0  0  0  0  0  0  0  0  0  0  0  0
  142.6664   74.9972  221.6588 H   0  0  0  0  0  0  0  0  0  0  0  0
  140.9240   73.9840  220.6480 H   0  0  0  0  0  0  0  0  0  0  0  0
  137.7434   70.9738  223.3747 H   0  0  0  0  0  0  0  0  0  0  0  0
  138.4825   70.3980  221.8233 H   0  0  0  0  0  0  0  0  0  0  0  0
  138.4781   68.7231  223.7158 H   0  0  0  0  0  0  0  0  0  0  0  0
  140.0885   69.0862  222.9702 H   0  0  0  0  0  0  0  0  0  0  0  0
  139.0718   68.1329  225.9613 H   0  0  0  0  0  0  0  0  0  0  0  0
  140.0190   68.8336  228.1512 H   0  0  0  0  0  0  0  0  0  0  0  0
  141.2989   70.9698  228.3322 H   0  0  0  0  0  0  0  0  0  0  0  0
  141.5930   72.3446  226.2939 H   0  0  0  0  0  0  0  0  0  0  0  0
  140.8296   72.9025  224.1059 H   0  0  0  0  0  0  0  0  0  0  0  0
  141.5665   71.4543  223.2609 H   0  0  0  0  0  0  0  0  0  0  0  0
  141.4112   77.0865  222.7710 H   0  0  0  0  0  0  0  0  0  0  0  0
  141.9899   77.5732  221.1088 H   0  0  0  0  0  0  0  0  0  0  0  0
  1  2  2  0
  2  3  1  0
  3  4  2  0
  4  5  1  0
  5  6  2  0
  5  7  1  0
  7  8  1  0
  8  9  1  0
  9 10  1  0
 10 11  1  0
 11 12  2  0
 12 13  1  0
 13 14  1  0
 14 15  1  0
 15 16  1  0
 16 17  1  0
 17 18  1  0
 18 19  1  0
 19 20  1  0
 20 21  1  0
 13 22  2  0
 22 23  1  0
 23 24  1  0
 24 25  1  0
 25 26  1  0
 26 27  1  0
 27 28  2  0
 28 29  1  0
 29 30  2  0
 30 31  1  0
 31 32  2  0
 32 33  1  0
 23 34  2  0
  9 35  1  0
  6  1  1  0
 34 11  1  0
 35  4  1  0
 21 17  1  0
 33 24  1  0
 32 27  1  0
  1 36  1  0
  2 37  1  0
  3 38  1  0
  6 39  1  0
  7 40  1  0
  7 41  1  0
  8 42  1  0
  8 43  1  0
  9 44  1  6
 10 45  1  0
 14 46  1  0
 15 47  1  0
 15 48  1  0
 16 49  1  0
 16 50  1  0
 17 51  1  1
 18 52  1  0
 18 53  1  0
 19 54  1  0
 19 55  1  0
 20 56  1  0
 20 57  1  0
 21 58  1  0
 25 59  1  0
 25 60  1  0
 26 61  1  0
 26 62  1  0
 28 63  1  0
 29 64  1  0
 30 65  1  0
 31 66  1  0
 33 67  1  0
 33 68  1  0
 35 69  1  0
 35 70  1  0
M  END
>  <smiles>  (16) 
c1ccc2c(c1)CCC(Nc1nc(NCCC3CCCN3)nc(N3CCc4ccccc4C3)n1)C2

>  <score_type>  (16) 
oracle

>  <origin>  (16) 
autodockgpu

>  <m_score__min__energy>  (16) 
-9.8699999999999992

>  <m_primary>  (16) 
energy

>  <rmsd>  (16) 
4.162382990964195

>  <m_score__min__rmsd>  (16) 
4.162382990964195

>  <meeko>  (16) 
{"free_energy": -8.05, "intermolecular_energy": -10.14, "internal_energy": -3.1, "cluster_size": 17, "cluster_id": 3, "rank_in_cluster": 16}

>  <energy>  (16) 
-8.63

>  <cluster_rmsd>  (16) 
1.15

>  <cluster>  (16) 
2

$$$$

     RDKit          3D

 70 75  0  0  1  0  0  0  0  0999 V2000
  141.7420   81.1070  223.8430 C   0  0  0  0  0  0  0  0  0  0  0  0
  142.9570   80.6160  223.3720 C   0  0  0  0  0  0  0  0  0  0  0  0
  142.8900   79.5210  222.5440 C   0  0  0  0  0  0  0  0  0  0  0  0
  141.7150   78.9070  222.1730 C   0  0  0  0  0  0  0  0  0  0  0  0
  140.5390   79.4250  222.6630 C   0  0  0  0  0  0  0  0  0  0  0  0
  140.5350   80.5180  223.4940 C   0  0  0  0  0  0  0  0  0  0  0  0
  139.2810   78.7280  222.2370 C   0  0  0  0  0  0  0  0  0  0  0  0
  139.6050   77.2350  222.4080 C   0  0  0  0  0  0  0  0  0  0  0  0
  140.6070   76.8320  221.3520 C   0  0  2  0  0  0  0  0  0  0  0  0
  141.0190   75.4590  221.6330 N   0  0  0  0  0  0  0  0  0  0  0  0
  140.1170   74.3880  221.6880 C   0  0  0  0  0  0  0  0  0  0  0  0
  139.0580   74.2320  220.8870 N   0  0  0  0  0  0  0  0  0  0  0  0
  138.1990   73.1980  220.9500 C   0  0  0  0  0  0  0  0  0  0  0  0
  137.0810   73.0830  220.0640 N   0  0  0  0  0  0  0  0  0  0  0  0
  135.8100   73.7530  220.3560 C   0  0  0  0  0  0  0  0  0  0  0  0
  135.2500   73.1150  221.5800 C   0  0  0  0  0  0  0  0  0  0  0  0
  135.6340   73.8280  222.8540 C   0  0  2  0  0  0  0  0  0  0  0  0
  134.5710   74.7300  223.3960 C   0  0  0  0  0  0  0  0  0  0  0  0
  135.3920   75.6340  224.3090 C   0  0  0  0  0  0  0  0  0  0  0  0
  136.6360   75.8370  223.4730 C   0  0  0  0  0  0  0  0  0  0  0  0
  136.7810   74.6890  222.6330 N   0  0  0  0  0  0  0  0  0  0  0  0
  138.4260   72.2430  221.8970 N   0  0  0  0  0  0  0  0  0  0  0  0
  139.4910   72.3560  222.7350 C   0  0  0  0  0  0  0  0  0  0  0  0
  139.7290   71.3570  223.7200 N   0  0  0  0  0  0  0  0  0  0  0  0
  138.8820   70.1860  223.7570 C   0  0  0  0  0  0  0  0  0  0  0  0
  139.5170   69.0640  224.5520 C   0  0  0  0  0  0  0  0  0  0  0  0
  140.0000   69.5390  225.8710 C   0  0  0  0  0  0  0  0  0  0  0  0
  139.8400   68.8180  227.0320 C   0  0  0  0  0  0  0  0  0  0  0  0
  140.3150   69.3070  228.2500 C   0  0  0  0  0  0  0  0  0  0  0  0
  140.9540   70.5280  228.3070 C   0  0  0  0  0  0  0  0  0  0  0  0
  141.1000   71.2270  227.1260 C   0  0  0  0  0  0  0  0  0  0  0  0
  140.6370   70.7590  225.9140 C   0  0  0  0  0  0  0  0  0  0  0  0
  140.8050   71.5250  224.6620 C   0  0  0  0  0  0  0  0  0  0  0  0
  140.3050   73.4090  222.6190 N   0  0  0  0  0  0  0  0  0  0  0  0
  141.8030   77.7380  221.2730 C   0  0  0  0  0  0  0  0  0  0  0  0
  141.7390   81.9832  224.5080 H   0  0  0  0  0  0  0  0  0  0  0  0
  143.9164   81.0785  223.6471 H   0  0  0  0  0  0  0  0  0  0  0  0
  143.8329   79.1101  222.1539 H   0  0  0  0  0  0  0  0  0  0  0  0
  139.5867   80.9218  223.8784 H   0  0  0  0  0  0  0  0  0  0  0  0
  138.4361   79.0204  222.8778 H   0  0  0  0  0  0  0  0  0  0  0  0
  138.9850   78.9812  221.2083 H   0  0  0  0  0  0  0  0  0  0  0  0
  140.0304   77.0608  223.4074 H   0  0  0  0  0  0  0  0  0  0  0  0
  138.6873   76.6380  222.3007 H   0  0  0  0  0  0  0  0  0  0  0  0
  140.1209   76.9142  220.3687 H   0  0  0  0  0  0  0  0  0  0  0  0
  142.0370   75.2930  221.7980 H   0  0  0  0  0  0  0  0  0  0  0  0
  137.2280   72.5040  219.2170 H   0  0  0  0  0  0  0  0  0  0  0  0
  135.9806   74.8251  220.5336 H   0  0  0  0  0  0  0  0  0  0  0  0
  135.1132   73.6567  219.5104 H   0  0  0  0  0  0  0  0  0  0  0  0
  134.1529   73.1094  221.5001 H   0  0  0  0  0  0  0  0  0  0  0  0
  135.6666   72.0985  221.6373 H   0  0  0  0  0  0  0  0  0  0  0  0
  135.8304   73.0137  223.5669 H   0  0  0  0  0  0  0  0  0  0  0  0
  134.0809   75.3031  222.5951 H   0  0  0  0  0  0  0  0  0  0  0  0
  133.7461   74.2056  223.9006 H   0  0  0  0  0  0  0  0  0  0  0  0
  134.8767   76.5861  224.5040 H   0  0  0  0  0  0  0  0  0  0  0  0
  135.5812   75.2164  225.3089 H   0  0  0  0  0  0  0  0  0  0  0  0
  136.5310   76.7423  222.8570 H   0  0  0  0  0  0  0  0  0  0  0  0
  137.5195   75.9604  224.1165 H   0  0  0  0  0  0  0  0  0  0  0  0
  137.6930   74.2060  222.7110 H   0  0  0  0  0  0  0  0  0  0  0  0
  137.9220   70.4543  224.2222 H   0  0  0  0  0  0  0  0  0  0  0  0
  138.7339   69.8356  222.7249 H   0  0  0  0  0  0  0  0  0  0  0  0
  138.7715   68.2705  224.7088 H   0  0  0  0  0  0  0  0  0  0  0  0
  140.3795   68.6840  223.9848 H   0  0  0  0  0  0  0  0  0  0  0  0
  139.3310   67.8434  226.9998 H   0  0  0  0  0  0  0  0  0  0  0  0
  140.1792   68.7163  229.1680 H   0  0  0  0  0  0  0  0  0  0  0  0
  141.3331   70.9297  229.2583 H   0  0  0  0  0  0  0  0  0  0  0  0
  141.6089   72.2019  227.1525 H   0  0  0  0  0  0  0  0  0  0  0  0
  140.8767   72.5925  224.9174 H   0  0  0  0  0  0  0  0  0  0  0  0
  141.7143   71.1418  224.1758 H   0  0  0  0  0  0  0  0  0  0  0  0
  142.6981   77.1578  221.5417 H   0  0  0  0  0  0  0  0  0  0  0  0
  141.8505   78.1236  220.2439 H   0  0  0  0  0  0  0  0  0  0  0  0
  1  2  2  0
  2  3  1  0
  3  4  2  0
  4  5  1  0
  5  6  2  0
  5  7  1  0
  7  8  1  0
  8  9  1  0
  9 10  1  0
 10 11  1  0
 11 12  2  0
 12 13  1  0
 13 14  1  0
 14 15  1  0
 15 16  1  0
 16 17  1  0
 17 18  1  0
 18 19  1  0
 19 20  1  0
 20 21  1  0
 13 22  2  0
 22 23  1  0
 23 24  1  0
 24 25  1  0
 25 26  1  0
 26 27  1  0
 27 28  2  0
 28 29  1  0
 29 30  2  0
 30 31  1  0
 31 32  2  0
 32 33  1  0
 23 34  2  0
  9 35  1  0
  6  1  1  0
 34 11  1  0
 35  4  1  0
 21 17  1  0
 33 24  1  0
 32 27  1  0
  1 36  1  0
  2 37  1  0
  3 38  1  0
  6 39  1  0
  7 40  1  0
  7 41  1  0
  8 42  1  0
  8 43  1  0
  9 44  1  6
 10 45  1  0
 14 46  1  0
 15 47  1  0
 15 48  1  0
 16 49  1  0
 16 50  1  0
 17 51  1  1
 18 52  1  0
 18 53  1  0
 19 54  1  0
 19 55  1  0
 20 56  1  0
 20 57  1  0
 21 58  1  0
 25 59  1  0
 25 60  1  0
 26 61  1  0
 26 62  1  0
 28 63  1  0
 29 64  1  0
 30 65  1  0
 31 66  1  0
 33 67  1  0
 33 68  1  0
 35 69  1  0
 35 70  1  0
M  END
>  <smiles>  (17) 
c1ccc2c(c1)CCC(Nc1nc(NCCC3CCCN3)nc(N3CCc4ccccc4C3)n1)C2

>  <score_type>  (17) 
oracle

>  <origin>  (17) 
autodockgpu

>  <m_score__min__energy>  (17) 
-9.8699999999999992

>  <m_primary>  (17) 
energy

>  <rmsd>  (17) 
4.315767511903673

>  <m_score__min__rmsd>  (17) 
4.315767511903673

>  <meeko>  (17) 
{"free_energy": -9.75, "intermolecular_energy": -11.84, "internal_energy": -2.39, "cluster_size": 17, "cluster_id": 2, "rank_in_cluster": 4}

>  <energy>  (17) 
-8.54

>  <cluster_rmsd>  (17) 
1.79

>  <cluster>  (17) 
2

$$$$

     RDKit          3D

 70 75  0  0  1  0  0  0  0  0999 V2000
  141.7820   81.2110  223.8480 C   0  0  0  0  0  0  0  0  0  0  0  0
  142.7200   80.1830  223.7910 C   0  0  0  0  0  0  0  0  0  0  0  0
  142.3430   79.0560  223.1000 C   0  0  0  0  0  0  0  0  0  0  0  0
  141.1230   78.9020  222.4840 C   0  0  0  0  0  0  0  0  0  0  0  0
  140.2270   79.9430  222.5660 C   0  0  0  0  0  0  0  0  0  0  0  0
  140.5400   81.0970  223.2410 C   0  0  0  0  0  0  0  0  0  0  0  0
  138.9080   79.7360  221.8830 C   0  0  0  0  0  0  0  0  0  0  0  0
  138.4910   78.3160  222.2980 C   0  0  0  0  0  0  0  0  0  0  0  0
  139.4010   77.3240  221.6140 C   0  0  2  0  0  0  0  0  0  0  0  0
  139.0920   75.9990  222.1460 N   0  0  0  0  0  0  0  0  0  0  0  0
  139.9230   74.8870  221.9520 C   0  0  0  0  0  0  0  0  0  0  0  0
  140.9390   74.8270  221.0840 N   0  0  0  0  0  0  0  0  0  0  0  0
  141.7290   73.7530  220.9080 C   0  0  0  0  0  0  0  0  0  0  0  0
  142.8040   73.7460  219.9630 N   0  0  0  0  0  0  0  0  0  0  0  0
  142.5500   73.8570  218.5240 C   0  0  0  0  0  0  0  0  0  0  0  0
  143.1060   75.1660  218.0800 C   0  0  0  0  0  0  0  0  0  0  0  0
  142.4290   76.3520  218.7240 C   0  0  2  0  0  0  0  0  0  0  0  0
  141.1300   76.7350  218.0900 C   0  0  0  0  0  0  0  0  0  0  0  0
  140.9760   78.1700  218.5820 C   0  0  0  0  0  0  0  0  0  0  0  0
  142.4000   78.6670  218.4760 C   0  0  0  0  0  0  0  0  0  0  0  0
  143.2620   77.5360  218.6190 N   0  0  0  0  0  0  0  0  0  0  0  0
  141.4770   72.6490  221.6680 N   0  0  0  0  0  0  0  0  0  0  0  0
  140.4560   72.6600  222.5660 C   0  0  0  0  0  0  0  0  0  0  0  0
  140.1960   71.5090  223.3610 N   0  0  0  0  0  0  0  0  0  0  0  0
  139.0380   70.6950  223.0680 C   0  0  0  0  0  0  0  0  0  0  0  0
  139.1450   69.3240  223.7030 C   0  0  0  0  0  0  0  0  0  0  0  0
  139.5080   69.4180  225.1380 C   0  0  0  0  0  0  0  0  0  0  0  0
  138.9290   68.6340  226.1100 C   0  0  0  0  0  0  0  0  0  0  0  0
  139.3050   68.7580  227.4480 C   0  0  0  0  0  0  0  0  0  0  0  0
  140.2670   69.6750  227.8170 C   0  0  0  0  0  0  0  0  0  0  0  0
  140.8290   70.4470  226.8200 C   0  0  0  0  0  0  0  0  0  0  0  0
  140.4700   70.3360  225.4930 C   0  0  0  0  0  0  0  0  0  0  0  0
  141.0860   71.1740  224.4420 C   0  0  0  0  0  0  0  0  0  0  0  0
  139.7080   73.7610  222.6910 N   0  0  0  0  0  0  0  0  0  0  0  0
  140.8630   77.6300  221.7760 C   0  0  0  0  0  0  0  0  0  0  0  0
  142.0323   82.1362  224.3878 H   0  0  0  0  0  0  0  0  0  0  0  0
  143.7059   80.2680  224.2713 H   0  0  0  0  0  0  0  0  0  0  0  0
  143.0617   78.2258  223.0358 H   0  0  0  0  0  0  0  0  0  0  0  0
  139.8142   81.9215  223.2997 H   0  0  0  0  0  0  0  0  0  0  0  0
  138.1700   80.4759  222.2262 H   0  0  0  0  0  0  0  0  0  0  0  0
  138.9740   79.8551  220.7915 H   0  0  0  0  0  0  0  0  0  0  0  0
  138.5798   78.2083  223.3891 H   0  0  0  0  0  0  0  0  0  0  0  0
  137.4472   78.1313  222.0040 H   0  0  0  0  0  0  0  0  0  0  0  0
  139.2150   77.3783  220.5312 H   0  0  0  0  0  0  0  0  0  0  0  0
  138.2070   75.8990  222.6910 H   0  0  0  0  0  0  0  0  0  0  0  0
  143.7580   73.6600  220.3580 H   0  0  0  0  0  0  0  0  0  0  0  0
  143.0474   73.0348  217.9887 H   0  0  0  0  0  0  0  0  0  0  0  0
  141.4724   73.7972  218.3112 H   0  0  0  0  0  0  0  0  0  0  0  0
  144.1760   75.1948  218.3334 H   0  0  0  0  0  0  0  0  0  0  0  0
  142.9344   75.2420  216.9961 H   0  0  0  0  0  0  0  0  0  0  0  0
  142.2563   76.0301  219.7616 H   0  0  0  0  0  0  0  0  0  0  0  0
  141.1873   76.6885  216.9925 H   0  0  0  0  0  0  0  0  0  0  0  0
  140.2884   76.0752  218.3478 H   0  0  0  0  0  0  0  0  0  0  0  0
  140.2977   78.7475  217.9367 H   0  0  0  0  0  0  0  0  0  0  0  0
  140.5386   78.2597  219.5873 H   0  0  0  0  0  0  0  0  0  0  0  0
  142.5606   79.1400  217.4960 H   0  0  0  0  0  0  0  0  0  0  0  0
  142.6085   79.4139  219.2562 H   0  0  0  0  0  0  0  0  0  0  0  0
  143.9700   77.6210  219.3690 H   0  0  0  0  0  0  0  0  0  0  0  0
  138.1402   71.1988  223.4555 H   0  0  0  0  0  0  0  0  0  0  0  0
  138.9758   70.5651  221.9775 H   0  0  0  0  0  0  0  0  0  0  0  0
  138.1762   68.8110  223.6120 H   0  0  0  0  0  0  0  0  0  0  0  0
  139.9350   68.7626  223.1826 H   0  0  0  0  0  0  0  0  0  0  0  0
  138.1597   67.9000  225.8282 H   0  0  0  0  0  0  0  0  0  0  0  0
  138.8325   68.1222  228.2112 H   0  0  0  0  0  0  0  0  0  0  0  0
  140.5751   69.7871  228.8670 H   0  0  0  0  0  0  0  0  0  0  0  0
  141.5976   71.1837  227.0964 H   0  0  0  0  0  0  0  0  0  0  0  0
  141.4340   72.1090  224.9054 H   0  0  0  0  0  0  0  0  0  0  0  0
  141.9065   70.5848  224.0066 H   0  0  0  0  0  0  0  0  0  0  0  0
  141.3291   76.8125  222.3457 H   0  0  0  0  0  0  0  0  0  0  0  0
  141.2875   77.7285  220.7660 H   0  0  0  0  0  0  0  0  0  0  0  0
  1  2  2  0
  2  3  1  0
  3  4  2  0
  4  5  1  0
  5  6  2  0
  5  7  1  0
  7  8  1  0
  8  9  1  0
  9 10  1  0
 10 11  1  0
 11 12  2  0
 12 13  1  0
 13 14  1  0
 14 15  1  0
 15 16  1  0
 16 17  1  0
 17 18  1  0
 18 19  1  0
 19 20  1  0
 20 21  1  0
 13 22  2  0
 22 23  1  0
 23 24  1  0
 24 25  1  0
 25 26  1  0
 26 27  1  0
 27 28  2  0
 28 29  1  0
 29 30  2  0
 30 31  1  0
 31 32  2  0
 32 33  1  0
 23 34  2  0
  9 35  1  0
  6  1  1  0
 34 11  1  0
 35  4  1  0
 21 17  1  0
 33 24  1  0
 32 27  1  0
  1 36  1  0
  2 37  1  0
  3 38  1  0
  6 39  1  0
  7 40  1  0
  7 41  1  0
  8 42  1  0
  8 43  1  0
  9 44  1  6
 10 45  1  0
 14 46  1  0
 15 47  1  0
 15 48  1  0
 16 49  1  0
 16 50  1  0
 17 51  1  1
 18 52  1  0
 18 53  1  0
 19 54  1  0
 19 55  1  0
 20 56  1  0
 20 57  1  0
 21 58  1  0
 25 59  1  0
 25 60  1  0
 26 61  1  0
 26 62  1  0
 28 63  1  0
 29 64  1  0
 30 65  1  0
 31 66  1  0
 33 67  1  0
 33 68  1  0
 35 69  1  0
 35 70  1  0
M  END
>  <smiles>  (18) 
c1ccc2c(c1)CCC(Nc1nc(NCCC3CCCN3)nc(N3CCc4ccccc4C3)n1)C2

>  <score_type>  (18) 
oracle

>  <origin>  (18) 
autodockgpu

>  <m_score__min__energy>  (18) 
-9.8699999999999992

>  <m_primary>  (18) 
energy

>  <rmsd>  (18) 
4.441085801325028

>  <m_score__min__rmsd>  (18) 
4.441085801325028

>  <meeko>  (18) 
{"free_energy": -9.09, "intermolecular_energy": -11.18, "internal_energy": -1.74, "cluster_size": 17, "cluster_id": 3, "rank_in_cluster": 7}

>  <energy>  (18) 
-7.86

>  <cluster_rmsd>  (18) 
1.18

>  <cluster>  (18) 
2

$$$$

     RDKit          3D

 70 75  0  0  1  0  0  0  0  0999 V2000
  140.0760   67.1910  226.8250 C   0  0  0  0  0  0  0  0  0  0  0  0
  140.5030   68.2570  227.6140 C   0  0  0  0  0  0  0  0  0  0  0  0
  140.3330   69.5130  227.0800 C   0  0  0  0  0  0  0  0  0  0  0  0
  139.7810   69.7560  225.8430 C   0  0  0  0  0  0  0  0  0  0  0  0
  139.3730   68.6730  225.1000 C   0  0  0  0  0  0  0  0  0  0  0  0
  139.5130   67.3920  225.5730 C   0  0  0  0  0  0  0  0  0  0  0  0
  138.7770   68.9790  223.7580 C   0  0  0  0  0  0  0  0  0  0  0  0
  139.7300   70.0240  223.1550 C   0  0  0  0  0  0  0  0  0  0  0  0
  139.5740   71.3190  223.9140 C   0  0  2  0  0  0  0  0  0  0  0  0
  140.5980   72.2430  223.4330 N   0  0  0  0  0  0  0  0  0  0  0  0
  140.4850   72.9440  222.2250 C   0  0  0  0  0  0  0  0  0  0  0  0
  140.1910   72.3960  221.0410 N   0  0  0  0  0  0  0  0  0  0  0  0
  140.0860   73.0810  219.8880 C   0  0  0  0  0  0  0  0  0  0  0  0
  139.7670   72.4410  218.6490 N   0  0  0  0  0  0  0  0  0  0  0  0
  140.8210   71.9840  217.7380 C   0  0  0  0  0  0  0  0  0  0  0  0
  141.9630   71.5320  218.5820 C   0  0  0  0  0  0  0  0  0  0  0  0
  142.8920   72.6530  218.9790 C   0  0  2  0  0  0  0  0  0  0  0  0
  144.3280   72.4060  218.6460 C   0  0  0  0  0  0  0  0  0  0  0  0
  145.0200   73.3970  219.5760 C   0  0  0  0  0  0  0  0  0  0  0  0
  144.1770   73.2580  220.8250 C   0  0  0  0  0  0  0  0  0  0  0  0
  142.8680   72.8530  220.4170 N   0  0  0  0  0  0  0  0  0  0  0  0
  140.2920   74.4290  219.9310 N   0  0  0  0  0  0  0  0  0  0  0  0
  140.5930   75.0340  221.1110 C   0  0  0  0  0  0  0  0  0  0  0  0
  140.8050   76.4400  221.1550 N   0  0  0  0  0  0  0  0  0  0  0  0
  141.3590   77.1070  219.9980 C   0  0  0  0  0  0  0  0  0  0  0  0
  141.1230   78.6020  220.0510 C   0  0  0  0  0  0  0  0  0  0  0  0
  141.5210   79.1690  221.3620 C   0  0  0  0  0  0  0  0  0  0  0  0
  142.1960   80.3620  221.4890 C   0  0  0  0  0  0  0  0  0  0  0  0
  142.5500   80.8550  222.7460 C   0  0  0  0  0  0  0  0  0  0  0  0
  142.2250   80.1480  223.8850 C   0  0  0  0  0  0  0  0  0  0  0  0
  141.5480   78.9560  223.7260 C   0  0  0  0  0  0  0  0  0  0  0  0
  141.1920   78.4550  222.4920 C   0  0  0  0  0  0  0  0  0  0  0  0
  140.4660   77.1750  222.3450 C   0  0  0  0  0  0  0  0  0  0  0  0
  140.6830   74.2940  222.2190 N   0  0  0  0  0  0  0  0  0  0  0  0
  139.6630   71.1630  225.4060 C   0  0  0  0  0  0  0  0  0  0  0  0
  140.1880   66.1645  227.2041 H   0  0  0  0  0  0  0  0  0  0  0  0
  140.9504   68.1029  228.6070 H   0  0  0  0  0  0  0  0  0  0  0  0
  140.6583   70.3766  227.6786 H   0  0  0  0  0  0  0  0  0  0  0  0
  139.1829   66.5355  224.9669 H   0  0  0  0  0  0  0  0  0  0  0  0
  138.7409   68.0756  223.1314 H   0  0  0  0  0  0  0  0  0  0  0  0
  137.7412   69.3426  223.8286 H   0  0  0  0  0  0  0  0  0  0  0  0
  140.7680   69.6694  223.2381 H   0  0  0  0  0  0  0  0  0  0  0  0
  139.4889   70.1814  222.0933 H   0  0  0  0  0  0  0  0  0  0  0  0
  138.5614   71.7052  223.7257 H   0  0  0  0  0  0  0  0  0  0  0  0
  141.4440   72.3690  224.0320 H   0  0  0  0  0  0  0  0  0  0  0  0
  138.7580   72.3230  218.4420 H   0  0  0  0  0  0  0  0  0  0  0  0
  140.4527   71.1496  217.1230 H   0  0  0  0  0  0  0  0  0  0  0  0
  141.1309   72.7930  217.0601 H   0  0  0  0  0  0  0  0  0  0  0  0
  141.5606   71.0716  219.4964 H   0  0  0  0  0  0  0  0  0  0  0  0
  142.5492   70.8197  217.9828 H   0  0  0  0  0  0  0  0  0  0  0  0
  142.5223   73.5197  218.4115 H   0  0  0  0  0  0  0  0  0  0  0  0
  144.6217   71.3698  218.8699 H   0  0  0  0  0  0  0  0  0  0  0  0
  144.5745   72.5363  217.5819 H   0  0  0  0  0  0  0  0  0  0  0  0
  146.0666   73.1138  219.7615 H   0  0  0  0  0  0  0  0  0  0  0  0
  145.0809   74.4222  219.1818 H   0  0  0  0  0  0  0  0  0  0  0  0
  144.6144   72.4995  221.4908 H   0  0  0  0  0  0  0  0  0  0  0  0
  144.1347   74.2114  221.3720 H   0  0  0  0  0  0  0  0  0  0  0  0
  142.1010   73.4650  220.7440 H   0  0  0  0  0  0  0  0  0  0  0  0
  142.4419   76.9175  219.9611 H   0  0  0  0  0  0  0  0  0  0  0  0
  140.8604   76.7113  219.1009 H   0  0  0  0  0  0  0  0  0  0  0  0
  141.7133   79.0853  219.2585 H   0  0  0  0  0  0  0  0  0  0  0  0
  140.0483   78.7870  219.9070 H   0  0  0  0  0  0  0  0  0  0  0  0
  142.4600   80.9346  220.5876 H   0  0  0  0  0  0  0  0  0  0  0  0
  143.0896   81.8100  222.8285 H   0  0  0  0  0  0  0  0  0  0  0  0
  142.4957   80.5208  224.8839 H   0  0  0  0  0  0  0  0  0  0  0  0
  141.2805   78.3799  224.6241 H   0  0  0  0  0  0  0  0  0  0  0  0
  140.6961   76.5453  223.2171 H   0  0  0  0  0  0  0  0  0  0  0  0
  139.3971   77.4236  222.2703 H   0  0  0  0  0  0  0  0  0  0  0  0
  140.5459   71.7140  225.7622 H   0  0  0  0  0  0  0  0  0  0  0  0
  138.7278   71.5574  225.8301 H   0  0  0  0  0  0  0  0  0  0  0  0
  1  2  2  0
  2  3  1  0
  3  4  2  0
  4  5  1  0
  5  6  2  0
  5  7  1  0
  7  8  1  0
  8  9  1  0
  9 10  1  0
 10 11  1  0
 11 12  2  0
 12 13  1  0
 13 14  1  0
 14 15  1  0
 15 16  1  0
 16 17  1  0
 17 18  1  0
 18 19  1  0
 19 20  1  0
 20 21  1  0
 13 22  2  0
 22 23  1  0
 23 24  1  0
 24 25  1  0
 25 26  1  0
 26 27  1  0
 27 28  2  0
 28 29  1  0
 29 30  2  0
 30 31  1  0
 31 32  2  0
 32 33  1  0
 23 34  2  0
  9 35  1  0
  6  1  1  0
 34 11  1  0
 35  4  1  0
 21 17  1  0
 33 24  1  0
 32 27  1  0
  1 36  1  0
  2 37  1  0
  3 38  1  0
  6 39  1  0
  7 40  1  0
  7 41  1  0
  8 42  1  0
  8 43  1  0
  9 44  1  1
 10 45  1  0
 14 46  1  0
 15 47  1  0
 15 48  1  0
 16 49  1  0
 16 50  1  0
 17 51  1  6
 18 52  1  0
 18 53  1  0
 19 54  1  0
 19 55  1  0
 20 56  1  0
 20 57  1  0
 21 58  1  0
 25 59  1  0
 25 60  1  0
 26 61  1  0
 26 62  1  0
 28 63  1  0
 29 64  1  0
 30 65  1  0
 31 66  1  0
 33 67  1  0
 33 68  1  0
 35 69  1  0
 35 70  1  0
M  END
>  <smiles>  (19) 
c1ccc2c(c1)CCC(Nc1nc(NCCC3CCCN3)nc(N3CCc4ccccc4C3)n1)C2

>  <score_type>  (19) 
oracle

>  <origin>  (19) 
autodockgpu

>  <m_score__min__energy>  (19) 
-9.8699999999999992

>  <m_primary>  (19) 
energy

>  <rmsd>  (19) 
12.190320551887849

>  <m_score__min__rmsd>  (19) 
12.190320551887849

>  <meeko>  (19) 
{"free_energy": -8.4, "intermolecular_energy": -10.49, "internal_energy": -2.83, "cluster_size": 17, "cluster_id": 3, "rank_in_cluster": 15}

>  <energy>  (19) 
-9.76

>  <cluster_rmsd>  (19) 
0.0

>  <cluster>  (19) 
3

$$$$

     RDKit          3D

 70 75  0  0  1  0  0  0  0  0999 V2000
  141.0420   68.1430  228.0630 C   0  0  0  0  0  0  0  0  0  0  0  0
  141.4230   69.4500  228.3590 C   0  0  0  0  0  0  0  0  0  0  0  0
  140.9550   70.4250  227.5100 C   0  0  0  0  0  0  0  0  0  0  0  0
  140.1550   70.1770  226.4180 C   0  0  0  0  0  0  0  0  0  0  0  0
  139.8040   68.8720  226.1640 C   0  0  0  0  0  0  0  0  0  0  0  0
  140.2370   67.8490  226.9720 C   0  0  0  0  0  0  0  0  0  0  0  0
  138.9330   68.6430  224.9650 C   0  0  0  0  0  0  0  0  0  0  0  0
  139.5760   69.5040  223.8660 C   0  0  0  0  0  0  0  0  0  0  0  0
  139.3470   70.9600  224.1950 C   0  0  2  0  0  0  0  0  0  0  0  0
  140.1010   71.7560  223.2300 N   0  0  0  0  0  0  0  0  0  0  0  0
  139.5080   72.7370  222.4230 C   0  0  0  0  0  0  0  0  0  0  0  0
  138.3830   72.5780  221.7190 N   0  0  0  0  0  0  0  0  0  0  0  0
  137.8240   73.5280  220.9480 C   0  0  0  0  0  0  0  0  0  0  0  0
  136.6150   73.3010  220.2160 N   0  0  0  0  0  0  0  0  0  0  0  0
  135.3070   73.3700  220.8750 C   0  0  0  0  0  0  0  0  0  0  0  0
  135.4010   72.5600  222.1220 C   0  0  0  0  0  0  0  0  0  0  0  0
  135.7480   73.3790  223.3410 C   0  0  2  0  0  0  0  0  0  0  0  0
  134.5620   73.9090  224.0810 C   0  0  0  0  0  0  0  0  0  0  0  0
  135.1980   75.0410  224.8810 C   0  0  0  0  0  0  0  0  0  0  0  0
  136.1590   75.6110  223.8620 C   0  0  0  0  0  0  0  0  0  0  0  0
  136.5150   74.5530  222.9680 N   0  0  0  0  0  0  0  0  0  0  0  0
  138.4500   74.7380  220.8800 N   0  0  0  0  0  0  0  0  0  0  0  0
  139.5980   74.9500  221.5780 C   0  0  0  0  0  0  0  0  0  0  0  0
  140.2480   76.2140  221.5090 N   0  0  0  0  0  0  0  0  0  0  0  0
  141.5280   76.3150  220.8450 C   0  0  0  0  0  0  0  0  0  0  0  0
  141.8630   77.7490  220.4950 C   0  0  0  0  0  0  0  0  0  0  0  0
  141.6790   78.6500  221.6580 C   0  0  0  0  0  0  0  0  0  0  0  0
  142.5630   79.6570  221.9730 C   0  0  0  0  0  0  0  0  0  0  0  0
  142.3460   80.4800  223.0800 C   0  0  0  0  0  0  0  0  0  0  0  0
  141.2370   80.2930  223.8770 C   0  0  0  0  0  0  0  0  0  0  0  0
  140.3690   79.2750  223.5360 C   0  0  0  0  0  0  0  0  0  0  0  0
  140.5680   78.4530  222.4470 C   0  0  0  0  0  0  0  0  0  0  0  0
  139.6250   77.3700  222.1000 C   0  0  0  0  0  0  0  0  0  0  0  0
  140.0990   73.9630  222.3250 N   0  0  0  0  0  0  0  0  0  0  0  0
  139.7290   71.3320  225.6000 C   0  0  0  0  0  0  0  0  0  0  0  0
  141.3881   67.3238  228.7104 H   0  0  0  0  0  0  0  0  0  0  0  0
  142.0616   69.6882  229.2224 H   0  0  0  0  0  0  0  0  0  0  0  0
  141.2375   71.4679  227.7164 H   0  0  0  0  0  0  0  0  0  0  0  0
  139.9490   66.8094  226.7567 H   0  0  0  0  0  0  0  0  0  0  0  0
  138.9330   67.5808  224.6792 H   0  0  0  0  0  0  0  0  0  0  0  0
  137.8817   68.9090  225.1493 H   0  0  0  0  0  0  0  0  0  0  0  0
  140.6560   69.3003  223.8207 H   0  0  0  0  0  0  0  0  0  0  0  0
  139.1258   69.2649  222.8913 H   0  0  0  0  0  0  0  0  0  0  0  0
  138.2675   71.1609  224.1290 H   0  0  0  0  0  0  0  0  0  0  0  0
  141.1250   71.5690  223.1550 H   0  0  0  0  0  0  0  0  0  0  0  0
  136.7240   73.0900  219.2080 H   0  0  0  0  0  0  0  0  0  0  0  0
  135.0630   74.4141  221.1208 H   0  0  0  0  0  0  0  0  0  0  0  0
  134.5158   72.9833  220.2159 H   0  0  0  0  0  0  0  0  0  0  0  0
  134.4310   72.0709  222.2945 H   0  0  0  0  0  0  0  0  0  0  0  0
  136.2125   71.8317  221.9770 H   0  0  0  0  0  0  0  0  0  0  0  0
  136.3049   72.6802  223.9825 H   0  0  0  0  0  0  0  0  0  0  0  0
  133.7913   74.2850  223.3920 H   0  0  0  0  0  0  0  0  0  0  0  0
  134.0387   73.1600  224.6936 H   0  0  0  0  0  0  0  0  0  0  0  0
  134.4503   75.7856  225.1917 H   0  0  0  0  0  0  0  0  0  0  0  0
  135.6714   74.7212  225.8210 H   0  0  0  0  0  0  0  0  0  0  0  0
  135.6753   76.4268  223.3048 H   0  0  0  0  0  0  0  0  0  0  0  0
  137.0533   76.0169  224.3575 H   0  0  0  0  0  0  0  0  0  0  0  0
  137.5310   74.3820  222.8790 H   0  0  0  0  0  0  0  0  0  0  0  0
  142.3081   75.9187  221.5116 H   0  0  0  0  0  0  0  0  0  0  0  0
  141.4776   75.7359  219.9111 H   0  0  0  0  0  0  0  0  0  0  0  0
  142.9111   77.8008  220.1652 H   0  0  0  0  0  0  0  0  0  0  0  0
  141.1835   78.0763  219.6943 H   0  0  0  0  0  0  0  0  0  0  0  0
  143.4518   79.8154  221.3446 H   0  0  0  0  0  0  0  0  0  0  0  0
  143.0625   81.2803  223.3168 H   0  0  0  0  0  0  0  0  0  0  0  0
  141.0504   80.9317  224.7529 H   0  0  0  0  0  0  0  0  0  0  0  0
  139.4787   79.1124  224.1612 H   0  0  0  0  0  0  0  0  0  0  0  0
  139.1101   77.0529  223.0189 H   0  0  0  0  0  0  0  0  0  0  0  0
  138.9362   77.7790  221.3461 H   0  0  0  0  0  0  0  0  0  0  0  0
  140.5584   72.0532  225.5564 H   0  0  0  0  0  0  0  0  0  0  0  0
  138.8338   71.7561  226.0784 H   0  0  0  0  0  0  0  0  0  0  0  0
  1  2  2  0
  2  3  1  0
  3  4  2  0
  4  5  1  0
  5  6  2  0
  5  7  1  0
  7  8  1  0
  8  9  1  0
  9 10  1  0
 10 11  1  0
 11 12  2  0
 12 13  1  0
 13 14  1  0
 14 15  1  0
 15 16  1  0
 16 17  1  0
 17 18  1  0
 18 19  1  0
 19 20  1  0
 20 21  1  0
 13 22  2  0
 22 23  1  0
 23 24  1  0
 24 25  1  0
 25 26  1  0
 26 27  1  0
 27 28  2  0
 28 29  1  0
 29 30  2  0
 30 31  1  0
 31 32  2  0
 32 33  1  0
 23 34  2  0
  9 35  1  0
  6  1  1  0
 34 11  1  0
 35  4  1  0
 21 17  1  0
 33 24  1  0
 32 27  1  0
  1 36  1  0
  2 37  1  0
  3 38  1  0
  6 39  1  0
  7 40  1  0
  7 41  1  0
  8 42  1  0
  8 43  1  0
  9 44  1  1
 10 45  1  0
 14 46  1  0
 15 47  1  0
 15 48  1  0
 16 49  1  0
 16 50  1  0
 17 51  1  1
 18 52  1  0
 18 53  1  0
 19 54  1  0
 19 55  1  0
 20 56  1  0
 20 57  1  0
 21 58  1  0
 25 59  1  0
 25 60  1  0
 26 61  1  0
 26 62  1  0
 28 63  1  0
 29 64  1  0
 30 65  1  0
 31 66  1  0
 33 67  1  0
 33 68  1  0
 35 69  1  0
 35 70  1  0
M  END
>  <smiles>  (20) 
c1ccc2c(c1)CCC(Nc1nc(NCCC3CCCN3)nc(N3CCc4ccccc4C3)n1)C2

>  <score_type>  (20) 
oracle

>  <origin>  (20) 
autodockgpu

>  <m_score__min__energy>  (20) 
-9.8699999999999992

>  <m_primary>  (20) 
energy

>  <rmsd>  (20) 
12.202520979525772

>  <m_score__min__rmsd>  (20) 
12.202520979525772

>  <meeko>  (20) 
{"free_energy": -9.3, "intermolecular_energy": -11.38, "internal_energy": -2.18, "cluster_size": 17, "cluster_id": 2, "rank_in_cluster": 11}

>  <energy>  (20) 
-9.71

>  <cluster_rmsd>  (20) 
1.28

>  <cluster>  (20) 
3

$$$$

     RDKit          3D

 70 75  0  0  1  0  0  0  0  0999 V2000
  142.0190   81.2650  223.6490 C   0  0  0  0  0  0  0  0  0  0  0  0
  142.9490   80.2280  223.6880 C   0  0  0  0  0  0  0  0  0  0  0  0
  142.5620   79.0440  223.1070 C   0  0  0  0  0  0  0  0  0  0  0  0
  141.3390   78.8430  222.5090 C   0  0  0  0  0  0  0  0  0  0  0  0
  140.4520   79.8940  222.4940 C   0  0  0  0  0  0  0  0  0  0  0  0
  140.7750   81.1050  223.0570 C   0  0  0  0  0  0  0  0  0  0  0  0
  139.1310   79.6340  221.8350 C   0  0  0  0  0  0  0  0  0  0  0  0
  138.7030   78.2630  222.3820 C   0  0  0  0  0  0  0  0  0  0  0  0
  139.6040   77.2030  221.7940 C   0  0  2  0  0  0  0  0  0  0  0  0
  139.2860   75.9370  222.4480 N   0  0  0  0  0  0  0  0  0  0  0  0
  139.6400   74.6920  221.9120 C   0  0  0  0  0  0  0  0  0  0  0  0
  140.0180   74.4770  220.6470 N   0  0  0  0  0  0  0  0  0  0  0  0
  140.3560   73.2760  220.1450 C   0  0  0  0  0  0  0  0  0  0  0  0
  140.7540   73.1070  218.7810 N   0  0  0  0  0  0  0  0  0  0  0  0
  141.9510   72.3360  218.4310 C   0  0  0  0  0  0  0  0  0  0  0  0
  143.1070   73.2740  218.4830 C   0  0  0  0  0  0  0  0  0  0  0  0
  144.0620   72.9840  219.6160 C   0  0  2  0  0  0  0  0  0  0  0  0
  144.3220   74.1520  220.5120 C   0  0  0  0  0  0  0  0  0  0  0  0
  145.6260   73.7250  221.1790 C   0  0  0  0  0  0  0  0  0  0  0  0
  146.3540   73.0930  220.0130 C   0  0  0  0  0  0  0  0  0  0  0  0
  145.3650   72.6050  219.1030 N   0  0  0  0  0  0  0  0  0  0  0  0
  140.3110   72.2030  220.9850 N   0  0  0  0  0  0  0  0  0  0  0  0
  139.9330   72.3680  222.2800 C   0  0  0  0  0  0  0  0  0  0  0  0
  139.8890   71.2480  223.1570 N   0  0  0  0  0  0  0  0  0  0  0  0
  138.8560   70.2530  222.9800 C   0  0  0  0  0  0  0  0  0  0  0  0
  139.2010   68.9600  223.6890 C   0  0  0  0  0  0  0  0  0  0  0  0
  139.6140   69.2030  225.0920 C   0  0  0  0  0  0  0  0  0  0  0  0
  139.2090   68.4090  226.1410 C   0  0  0  0  0  0  0  0  0  0  0  0
  139.6260   68.6790  227.4460 C   0  0  0  0  0  0  0  0  0  0  0  0
  140.4540   69.7510  227.7020 C   0  0  0  0  0  0  0  0  0  0  0  0
  140.8440   70.5280  226.6300 C   0  0  0  0  0  0  0  0  0  0  0  0
  140.4410   70.2760  225.3350 C   0  0  0  0  0  0  0  0  0  0  0  0
  140.8710   71.1220  224.2030 C   0  0  0  0  0  0  0  0  0  0  0  0
  139.6100   73.5900  222.7150 N   0  0  0  0  0  0  0  0  0  0  0  0
  141.0690   77.5120  221.9240 C   0  0  0  0  0  0  0  0  0  0  0  0
  142.2780   82.2348  224.0990 H   0  0  0  0  0  0  0  0  0  0  0  0
  143.9365   80.3500  224.1570 H   0  0  0  0  0  0  0  0  0  0  0  0
  143.2737   78.2054  223.1209 H   0  0  0  0  0  0  0  0  0  0  0  0
  140.0559   81.9372  223.0385 H   0  0  0  0  0  0  0  0  0  0  0  0
  138.3994   80.4089  222.1075 H   0  0  0  0  0  0  0  0  0  0  0  0
  139.1966   79.6489  220.7371 H   0  0  0  0  0  0  0  0  0  0  0  0
  138.7923   78.2578  223.4784 H   0  0  0  0  0  0  0  0  0  0  0  0
  137.6574   78.0601  222.1070 H   0  0  0  0  0  0  0  0  0  0  0  0
  139.4159   77.1558  220.7112 H   0  0  0  0  0  0  0  0  0  0  0  0
  138.7700   75.9860  223.3550 H   0  0  0  0  0  0  0  0  0  0  0  0
  140.1500   73.5570  218.0690 H   0  0  0  0  0  0  0  0  0  0  0  0
  142.0966   71.5175  219.1513 H   0  0  0  0  0  0  0  0  0  0  0  0
  141.8518   71.8921  217.4294 H   0  0  0  0  0  0  0  0  0  0  0  0
  143.6587   73.2009  217.5342 H   0  0  0  0  0  0  0  0  0  0  0  0
  142.7006   74.2824  218.6500 H   0  0  0  0  0  0  0  0  0  0  0  0
  143.5672   72.1824  220.1840 H   0  0  0  0  0  0  0  0  0  0  0  0
  144.4480   75.0814  219.9373 H   0  0  0  0  0  0  0  0  0  0  0  0
  143.5055   74.3740  221.2148 H   0  0  0  0  0  0  0  0  0  0  0  0
  146.1770   74.5891  221.5787 H   0  0  0  0  0  0  0  0  0  0  0  0
  145.4953   73.0603  222.0457 H   0  0  0  0  0  0  0  0  0  0  0  0
  146.9863   73.8423  219.5142 H   0  0  0  0  0  0  0  0  0  0  0  0
  147.0011   72.2733  220.3584 H   0  0  0  0  0  0  0  0  0  0  0  0
  145.4500   71.6010  218.8660 H   0  0  0  0  0  0  0  0  0  0  0  0
  137.9114   70.6426  223.3873 H   0  0  0  0  0  0  0  0  0  0  0  0
  138.7621   70.0416  221.9046 H   0  0  0  0  0  0  0  0  0  0  0  0
  138.3183   68.3036  223.6848 H   0  0  0  0  0  0  0  0  0  0  0  0
  140.0417   68.4892  223.1584 H   0  0  0  0  0  0  0  0  0  0  0  0
  138.5484   67.5508  225.9488 H   0  0  0  0  0  0  0  0  0  0  0  0
  139.2927   68.0342  228.2725 H   0  0  0  0  0  0  0  0  0  0  0  0
  140.7917   69.9789  228.7238 H   0  0  0  0  0  0  0  0  0  0  0  0
  141.5058   71.3866  226.8166 H   0  0  0  0  0  0  0  0  0  0  0  0
  141.0957   72.1273  224.5889 H   0  0  0  0  0  0  0  0  0  0  0  0
  141.7490   70.6323  223.7566 H   0  0  0  0  0  0  0  0  0  0  0  0
  141.5307   76.7483  222.5672 H   0  0  0  0  0  0  0  0  0  0  0  0
  141.4922   77.5117  220.9087 H   0  0  0  0  0  0  0  0  0  0  0  0
  1  2  2  0
  2  3  1  0
  3  4  2  0
  4  5  1  0
  5  6  2  0
  5  7  1  0
  7  8  1  0
  8  9  1  0
  9 10  1  0
 10 11  1  0
 11 12  2  0
 12 13  1  0
 13 14  1  0
 14 15  1  0
 15 16  1  0
 16 17  1  0
 17 18  1  0
 18 19  1  0
 19 20  1  0
 20 21  1  0
 13 22  2  0
 22 23  1  0
 23 24  1  0
 24 25  1  0
 25 26  1  0
 26 27  1  0
 27 28  2  0
 28 29  1  0
 29 30  2  0
 30 31  1  0
 31 32  2  0
 32 33  1  0
 23 34  2  0
  9 35  1  0
  6  1  1  0
 34 11  1  0
 35  4  1  0
 21 17  1  0
 33 24  1  0
 32 27  1  0
  1 36  1  0
  2 37  1  0
  3 38  1  0
  6 39  1  0
  7 40  1  0
  7 41  1  0
  8 42  1  0
  8 43  1  0
  9 44  1  6
 10 45  1  0
 14 46  1  0
 15 47  1  0
 15 48  1  0
 16 49  1  0
 16 50  1  0
 17 51  1  1
 18 52  1  0
 18 53  1  0
 19 54  1  0
 19 55  1  0
 20 56  1  0
 20 57  1  0
 21 58  1  0
 25 59  1  0
 25 60  1  0
 26 61  1  0
 26 62  1  0
 28 63  1  0
 29 64  1  0
 30 65  1  0
 31 66  1  0
 33 67  1  0
 33 68  1  0
 35 69  1  0
 35 70  1  0
M  END
>  <smiles>  (21) 
c1ccc2c(c1)CCC(Nc1nc(NCCC3CCCN3)nc(N3CCc4ccccc4C3)n1)C2

>  <score_type>  (21) 
oracle

>  <origin>  (21) 
autodockgpu

>  <m_score__min__energy>  (21) 
-9.8699999999999992

>  <m_primary>  (21) 
energy

>  <rmsd>  (21) 
4.395678573989036

>  <m_score__min__rmsd>  (21) 
4.395678573989036

>  <meeko>  (21) 
{"free_energy": -9.76, "intermolecular_energy": -11.85, "internal_energy": -1.16, "cluster_size": 17, "cluster_id": 3, "rank_in_cluster": 1}

>  <energy>  (21) 
-9.43

>  <cluster_rmsd>  (21) 
1.93

>  <cluster>  (21) 
3

$$$$

     RDKit          3D

 70 75  0  0  1  0  0  0  0  0999 V2000
  138.1580   80.3780  222.8500 C   0  0  0  0  0  0  0  0  0  0  0  0
  138.5730   80.2170  221.5300 C   0  0  0  0  0  0  0  0  0  0  0  0
  138.0550   79.1360  220.8590 C   0  0  0  0  0  0  0  0  0  0  0  0
  137.1750   78.2340  221.4130 C   0  0  0  0  0  0  0  0  0  0  0  0
  136.7920   78.4320  222.7180 C   0  0  0  0  0  0  0  0  0  0  0  0
  137.2720   79.4930  223.4470 C   0  0  0  0  0  0  0  0  0  0  0  0
  135.8330   77.4280  223.2860 C   0  0  0  0  0  0  0  0  0  0  0  0
  136.4030   76.0730  222.8390 C   0  0  0  0  0  0  0  0  0  0  0  0
  136.2150   75.9350  221.3470 C   0  0  2  0  0  0  0  0  0  0  0  0
  136.9050   74.7200  220.9230 N   0  0  0  0  0  0  0  0  0  0  0  0
  138.1840   74.3710  221.3770 C   0  0  0  0  0  0  0  0  0  0  0  0
  139.3000   75.0730  221.1510 N   0  0  0  0  0  0  0  0  0  0  0  0
  140.5220   74.7270  221.5930 C   0  0  0  0  0  0  0  0  0  0  0  0
  141.6820   75.5190  221.3210 N   0  0  0  0  0  0  0  0  0  0  0  0
  141.6310   76.6370  220.3730 C   0  0  0  0  0  0  0  0  0  0  0  0
  140.9290   77.7590  221.0570 C   0  0  0  0  0  0  0  0  0  0  0  0
  141.8070   78.5110  222.0270 C   0  0  2  0  0  0  0  0  0  0  0  0
  141.1710   78.7720  223.3550 C   0  0  0  0  0  0  0  0  0  0  0  0
  142.0350   79.9160  223.8740 C   0  0  0  0  0  0  0  0  0  0  0  0
  142.2340   80.7240  222.6110 C   0  0  0  0  0  0  0  0  0  0  0  0
  142.1410   79.8230  221.5050 N   0  0  0  0  0  0  0  0  0  0  0  0
  140.6300   73.5800  222.3240 N   0  0  0  0  0  0  0  0  0  0  0  0
  139.5250   72.8310  222.5820 C   0  0  0  0  0  0  0  0  0  0  0  0
  139.6380   71.6370  223.3470 N   0  0  0  0  0  0  0  0  0  0  0  0
  138.6890   70.5680  223.1330 C   0  0  0  0  0  0  0  0  0  0  0  0
  139.1930   69.2550  223.6940 C   0  0  0  0  0  0  0  0  0  0  0  0
  139.6710   69.4080  225.0890 C   0  0  0  0  0  0  0  0  0  0  0  0
  139.4060   68.4870  226.0770 C   0  0  0  0  0  0  0  0  0  0  0  0
  139.8790   68.6760  227.3770 C   0  0  0  0  0  0  0  0  0  0  0  0
  140.6230   69.7950  227.6900 C   0  0  0  0  0  0  0  0  0  0  0  0
  140.8720   70.7000  226.6780 C   0  0  0  0  0  0  0  0  0  0  0  0
  140.4120   70.5290  225.3890 C   0  0  0  0  0  0  0  0  0  0  0  0
  140.6910   71.5110  224.3210 C   0  0  0  0  0  0  0  0  0  0  0  0
  138.3400   73.2330  222.1120 N   0  0  0  0  0  0  0  0  0  0  0  0
  136.7030   77.1210  220.5620 C   0  0  0  0  0  0  0  0  0  0  0  0
  138.5423   81.2277  223.4333 H   0  0  0  0  0  0  0  0  0  0  0  0
  139.2755   80.9157  221.0522 H   0  0  0  0  0  0  0  0  0  0  0  0
  138.3625   78.9816  219.8142 H   0  0  0  0  0  0  0  0  0  0  0  0
  136.9577   79.6389  224.4910 H   0  0  0  0  0  0  0  0  0  0  0  0
  135.8010   77.4956  224.3835 H   0  0  0  0  0  0  0  0  0  0  0  0
  134.8007   77.5870  222.9408 H   0  0  0  0  0  0  0  0  0  0  0  0
  137.4745   76.0240  223.0828 H   0  0  0  0  0  0  0  0  0  0  0  0
  135.8795   75.2572  223.3590 H   0  0  0  0  0  0  0  0  0  0  0  0
  135.1358   75.8787  221.1414 H   0  0  0  0  0  0  0  0  0  0  0  0
  136.4030   74.0990  220.2500 H   0  0  0  0  0  0  0  0  0  0  0  0
  142.5450   75.2550  221.8300 H   0  0  0  0  0  0  0  0  0  0  0  0
  142.6504   76.9430  220.0952 H   0  0  0  0  0  0  0  0  0  0  0  0
  141.1022   76.3468  219.4531 H   0  0  0  0  0  0  0  0  0  0  0  0
  140.5701   78.4638  220.2925 H   0  0  0  0  0  0  0  0  0  0  0  0
  140.1038   77.3208  221.6376 H   0  0  0  0  0  0  0  0  0  0  0  0
  142.6822   77.8572  222.1559 H   0  0  0  0  0  0  0  0  0  0  0  0
  140.1199   79.0774  223.2461 H   0  0  0  0  0  0  0  0  0  0  0  0
  141.1336   77.8958  224.0190 H   0  0  0  0  0  0  0  0  0  0  0  0
  141.5126   80.4979  224.6476 H   0  0  0  0  0  0  0  0  0  0  0  0
  142.9689   79.5949  224.3585 H   0  0  0  0  0  0  0  0  0  0  0  0
  141.4547   81.4964  222.5327 H   0  0  0  0  0  0  0  0  0  0  0  0
  143.2135   81.2244  222.6216 H   0  0  0  0  0  0  0  0  0  0  0  0
  142.9560   79.8290  220.8690 H   0  0  0  0  0  0  0  0  0  0  0  0
  137.7414   70.8274  223.6278 H   0  0  0  0  0  0  0  0  0  0  0  0
  138.5457   70.4468  222.0491 H   0  0  0  0  0  0  0  0  0  0  0  0
  138.3743   68.5205  223.6752 H   0  0  0  0  0  0  0  0  0  0  0  0
  140.0370   68.9165  223.0751 H   0  0  0  0  0  0  0  0  0  0  0  0
  138.8141   67.5908  225.8394 H   0  0  0  0  0  0  0  0  0  0  0  0
  139.6577   67.9300  228.1545 H   0  0  0  0  0  0  0  0  0  0  0  0
  141.0038   69.9599  228.7087 H   0  0  0  0  0  0  0  0  0  0  0  0
  141.4638   71.5978  226.9099 H   0  0  0  0  0  0  0  0  0  0  0  0
  140.8482   72.4942  224.7885 H   0  0  0  0  0  0  0  0  0  0  0  0
  141.5791   71.1491  223.7822 H   0  0  0  0  0  0  0  0  0  0  0  0
  137.5349   76.7959  219.9199 H   0  0  0  0  0  0  0  0  0  0  0  0
  135.8501   77.4975  219.9782 H   0  0  0  0  0  0  0  0  0  0  0  0
  1  2  2  0
  2  3  1  0
  3  4  2  0
  4  5  1  0
  5  6  2  0
  5  7  1  0
  7  8  1  0
  8  9  1  0
  9 10  1  0
 10 11  1  0
 11 12  2  0
 12 13  1  0
 13 14  1  0
 14 15  1  0
 15 16  1  0
 16 17  1  0
 17 18  1  0
 18 19  1  0
 19 20  1  0
 20 21  1  0
 13 22  2  0
 22 23  1  0
 23 24  1  0
 24 25  1  0
 25 26  1  0
 26 27  1  0
 27 28  2  0
 28 29  1  0
 29 30  2  0
 30 31  1  0
 31 32  2  0
 32 33  1  0
 23 34  2  0
  9 35  1  0
  6  1  1  0
 34 11  1  0
 35  4  1  0
 21 17  1  0
 33 24  1  0
 32 27  1  0
  1 36  1  0
  2 37  1  0
  3 38  1  0
  6 39  1  0
  7 40  1  0
  7 41  1  0
  8 42  1  0
  8 43  1  0
  9 44  1  1
 10 45  1  0
 14 46  1  0
 15 47  1  0
 15 48  1  0
 16 49  1  0
 16 50  1  0
 17 51  1  1
 18 52  1  0
 18 53  1  0
 19 54  1  0
 19 55  1  0
 20 56  1  0
 20 57  1  0
 21 58  1  0
 25 59  1  0
 25 60  1  0
 26 61  1  0
 26 62  1  0
 28 63  1  0
 29 64  1  0
 30 65  1  0
 31 66  1  0
 33 67  1  0
 33 68  1  0
 35 69  1  0
 35 70  1  0
M  END
>  <smiles>  (22) 
c1ccc2c(c1)CCC(Nc1nc(NCCC3CCCN3)nc(N3CCc4ccccc4C3)n1)C2

>  <score_type>  (22) 
oracle

>  <origin>  (22) 
autodockgpu

>  <m_score__min__energy>  (22) 
-9.8699999999999992

>  <m_primary>  (22) 
energy

>  <rmsd>  (22) 
5.607259439460206

>  <m_score__min__rmsd>  (22) 
5.607259439460206

>  <meeko>  (22) 
{"free_energy": -8.73, "intermolecular_energy": -10.81, "internal_energy": -2.1, "cluster_size": 1, "cluster_id": 10, "rank_in_cluster": 1}

>  <energy>  (22) 
-9.39

>  <cluster_rmsd>  (22) 
1.53

>  <cluster>  (22) 
3

$$$$

     RDKit          3D

 70 75  0  0  1  0  0  0  0  0999 V2000
  142.1730   80.2480  223.6700 C   0  0  0  0  0  0  0  0  0  0  0  0
  142.7600   79.5820  222.5950 C   0  0  0  0  0  0  0  0  0  0  0  0
  141.9010   78.9230  221.7480 C   0  0  0  0  0  0  0  0  0  0  0  0
  140.5340   78.8910  221.9090 C   0  0  0  0  0  0  0  0  0  0  0  0
  139.9990   79.5610  222.9840 C   0  0  0  0  0  0  0  0  0  0  0  0
  140.8010   80.2410  223.8690 C   0  0  0  0  0  0  0  0  0  0  0  0
  138.5080   79.5010  223.1250 C   0  0  0  0  0  0  0  0  0  0  0  0
  138.1680   78.0220  222.8830 C   0  0  0  0  0  0  0  0  0  0  0  0
  138.3980   77.7030  221.4250 C   0  0  2  0  0  0  0  0  0  0  0  0
  138.2260   76.2630  221.2530 N   0  0  0  0  0  0  0  0  0  0  0  0
  139.2720   75.3450  221.4220 C   0  0  0  0  0  0  0  0  0  0  0  0
  140.5060   75.4840  220.9270 N   0  0  0  0  0  0  0  0  0  0  0  0
  141.5010   74.5960  221.0960 C   0  0  0  0  0  0  0  0  0  0  0  0
  142.8050   74.7990  220.5430 N   0  0  0  0  0  0  0  0  0  0  0  0
  143.2470   74.0630  219.3540 C   0  0  0  0  0  0  0  0  0  0  0  0
  143.6920   75.0740  218.3540 C   0  0  0  0  0  0  0  0  0  0  0  0
  142.6690   76.1550  218.1020 C   0  0  2  0  0  0  0  0  0  0  0  0
  142.9620   77.0090  216.9100 C   0  0  0  0  0  0  0  0  0  0  0  0
  142.1080   78.2360  217.2130 C   0  0  0  0  0  0  0  0  0  0  0  0
  142.3230   78.3770  218.7040 C   0  0  0  0  0  0  0  0  0  0  0  0
  142.6120   77.0770  219.2210 N   0  0  0  0  0  0  0  0  0  0  0  0
  141.2320   73.4750  221.8250 N   0  0  0  0  0  0  0  0  0  0  0  0
  139.9920   73.2860  222.3500 C   0  0  0  0  0  0  0  0  0  0  0  0
  139.7140   72.1180  223.1140 N   0  0  0  0  0  0  0  0  0  0  0  0
  138.3950   71.5300  223.0480 C   0  0  0  0  0  0  0  0  0  0  0  0
  138.3950   70.1040  223.5580 C   0  0  0  0  0  0  0  0  0  0  0  0
  139.0720   69.9970  224.8720 C   0  0  0  0  0  0  0  0  0  0  0  0
  138.5910   69.2220  225.9020 C   0  0  0  0  0  0  0  0  0  0  0  0
  139.2660   69.1530  227.1220 C   0  0  0  0  0  0  0  0  0  0  0  0
  140.4310   69.8650  227.3130 C   0  0  0  0  0  0  0  0  0  0  0  0
  140.8890   70.6330  226.2610 C   0  0  0  0  0  0  0  0  0  0  0  0
  140.2350   70.7120  225.0490 C   0  0  0  0  0  0  0  0  0  0  0  0
  140.7440   71.5410  223.9370 C   0  0  0  0  0  0  0  0  0  0  0  0
  139.0490   74.2090  222.1440 N   0  0  0  0  0  0  0  0  0  0  0  0
  139.7410   78.1400  220.9120 C   0  0  0  0  0  0  0  0  0  0  0  0
  142.8147   80.7928  224.3781 H   0  0  0  0  0  0  0  0  0  0  0  0
  143.8481   79.5838  222.4339 H   0  0  0  0  0  0  0  0  0  0  0  0
  142.3323   78.3884  220.8888 H   0  0  0  0  0  0  0  0  0  0  0  0
  140.3598   80.7731  224.7247 H   0  0  0  0  0  0  0  0  0  0  0  0
  138.1982   79.8130  224.1333 H   0  0  0  0  0  0  0  0  0  0  0  0
  137.9903   80.1733  222.4250 H   0  0  0  0  0  0  0  0  0  0  0  0
  138.8142   77.3871  223.5069 H   0  0  0  0  0  0  0  0  0  0  0  0
  137.1171   77.8318  223.1463 H   0  0  0  0  0  0  0  0  0  0  0  0
  137.6665   78.2706  220.8312 H   0  0  0  0  0  0  0  0  0  0  0  0
  137.2730   75.9250  220.9920 H   0  0  0  0  0  0  0  0  0  0  0  0
  143.4050   75.4890  221.0290 H   0  0  0  0  0  0  0  0  0  0  0  0
  144.0818   73.3949  219.6124 H   0  0  0  0  0  0  0  0  0  0  0  0
  142.4315   73.4451  218.9501 H   0  0  0  0  0  0  0  0  0  0  0  0
  144.6152   75.5458  218.7216 H   0  0  0  0  0  0  0  0  0  0  0  0
  143.8476   74.5445  217.4025 H   0  0  0  0  0  0  0  0  0  0  0  0
  141.7306   75.6034  217.9435 H   0  0  0  0  0  0  0  0  0  0  0  0
  144.0300   77.2653  216.8495 H   0  0  0  0  0  0  0  0  0  0  0  0
  142.7412   76.5305  215.9445 H   0  0  0  0  0  0  0  0  0  0  0  0
  142.4659   79.1218  216.6678 H   0  0  0  0  0  0  0  0  0  0  0  0
  141.0538   78.1395  216.9142 H   0  0  0  0  0  0  0  0  0  0  0  0
  143.1669   79.0550  218.8993 H   0  0  0  0  0  0  0  0  0  0  0  0
  141.4276   78.7956  219.1867 H   0  0  0  0  0  0  0  0  0  0  0  0
  141.9940   76.7670  219.9910 H   0  0  0  0  0  0  0  0  0  0  0  0
  137.7060   72.1288  223.6618 H   0  0  0  0  0  0  0  0  0  0  0  0
  138.0749   71.5194  221.9957 H   0  0  0  0  0  0  0  0  0  0  0  0
  137.3548   69.7619  223.6630 H   0  0  0  0  0  0  0  0  0  0  0  0
  138.9417   69.4794  222.8362 H   0  0  0  0  0  0  0  0  0  0  0  0
  137.6623   68.6492  225.7623 H   0  0  0  0  0  0  0  0  0  0  0  0
  138.8667   68.5279  227.9343 H   0  0  0  0  0  0  0  0  0  0  0  0
  140.9753   69.8228  228.2679 H   0  0  0  0  0  0  0  0  0  0  0  0
  141.8172   71.2078  226.3954 H   0  0  0  0  0  0  0  0  0  0  0  0
  141.3444   72.3586  224.3626 H   0  0  0  0  0  0  0  0  0  0  0  0
  141.3318   70.8748  223.2884 H   0  0  0  0  0  0  0  0  0  0  0  0
  140.3092   77.2458  220.6163 H   0  0  0  0  0  0  0  0  0  0  0  0
  139.5604   78.8168  220.0639 H   0  0  0  0  0  0  0  0  0  0  0  0
  1  2  2  0
  2  3  1  0
  3  4  2  0
  4  5  1  0
  5  6  2  0
  5  7  1  0
  7  8  1  0
  8  9  1  0
  9 10  1  0
 10 11  1  0
 11 12  2  0
 12 13  1  0
 13 14  1  0
 14 15  1  0
 15 16  1  0
 16 17  1  0
 17 18  1  0
 18 19  1  0
 19 20  1  0
 20 21  1  0
 13 22  2  0
 22 23  1  0
 23 24  1  0
 24 25  1  0
 25 26  1  0
 26 27  1  0
 27 28  2  0
 28 29  1  0
 29 30  2  0
 30 31  1  0
 31 32  2  0
 32 33  1  0
 23 34  2  0
  9 35  1  0
  6  1  1  0
 34 11  1  0
 35  4  1  0
 21 17  1  0
 33 24  1  0
 32 27  1  0
  1 36  1  0
  2 37  1  0
  3 38  1  0
  6 39  1  0
  7 40  1  0
  7 41  1  0
  8 42  1  0
  8 43  1  0
  9 44  1  6
 10 45  1  0
 14 46  1  0
 15 47  1  0
 15 48  1  0
 16 49  1  0
 16 50  1  0
 17 51  1  6
 18 52  1  0
 18 53  1  0
 19 54  1  0
 19 55  1  0
 20 56  1  0
 20 57  1  0
 21 58  1  0
 25 59  1  0
 25 60  1  0
 26 61  1  0
 26 62  1  0
 28 63  1  0
 29 64  1  0
 30 65  1  0
 31 66  1  0
 33 67  1  0
 33 68  1  0
 35 69  1  0
 35 70  1  0
M  END
>  <smiles>  (23) 
c1ccc2c(c1)CCC(Nc1nc(NCCC3CCCN3)nc(N3CCc4ccccc4C3)n1)C2

>  <score_type>  (23) 
oracle

>  <origin>  (23) 
autodockgpu

>  <m_score__min__energy>  (23) 
-9.8699999999999992

>  <m_primary>  (23) 
energy

>  <rmsd>  (23) 
4.610673501249228

>  <m_score__min__rmsd>  (23) 
4.610673501249228

>  <meeko>  (23) 
{"free_energy": -8.62, "intermolecular_energy": -10.71, "internal_energy": -2.37, "cluster_size": 3, "cluster_id": 6, "rank_in_cluster": 2}

>  <energy>  (23) 
-9.29

>  <cluster_rmsd>  (23) 
1.39

>  <cluster>  (23) 
3

$$$$

     RDKit          3D

 70 75  0  0  1  0  0  0  0  0999 V2000
  141.8000   81.2300  223.8860 C   0  0  0  0  0  0  0  0  0  0  0  0
  143.0100   80.7080  223.4340 C   0  0  0  0  0  0  0  0  0  0  0  0
  142.9270   79.6290  222.5870 C   0  0  0  0  0  0  0  0  0  0  0  0
  141.7420   79.0590  222.1800 C   0  0  0  0  0  0  0  0  0  0  0  0
  140.5720   79.6070  222.6510 C   0  0  0  0  0  0  0  0  0  0  0  0
  140.5840   80.6860  223.5000 C   0  0  0  0  0  0  0  0  0  0  0  0
  139.3030   78.9580  222.1850 C   0  0  0  0  0  0  0  0  0  0  0  0
  139.5750   77.4520  222.3390 C   0  0  0  0  0  0  0  0  0  0  0  0
  140.5870   77.0340  221.3000 C   0  0  2  0  0  0  0  0  0  0  0  0
  140.9490   75.6440  221.5680 N   0  0  0  0  0  0  0  0  0  0  0  0
  140.0100   74.6040  221.6000 C   0  0  0  0  0  0  0  0  0  0  0  0
  138.9200   74.5280  220.8300 N   0  0  0  0  0  0  0  0  0  0  0  0
  138.0260   73.5240  220.8710 C   0  0  0  0  0  0  0  0  0  0  0  0
  136.8750   73.4940  220.0200 N   0  0  0  0  0  0  0  0  0  0  0  0
  135.5660   73.9480  220.5000 C   0  0  0  0  0  0  0  0  0  0  0  0
  135.6680   74.0930  221.9790 C   0  0  0  0  0  0  0  0  0  0  0  0
  136.2230   75.4280  222.4130 C   0  0  2  0  0  0  0  0  0  0  0  0
  135.2860   76.2380  223.2500 C   0  0  0  0  0  0  0  0  0  0  0  0
  135.8820   77.6330  223.0900 C   0  0  0  0  0  0  0  0  0  0  0  0
  136.2600   77.6190  221.6250 C   0  0  0  0  0  0  0  0  0  0  0  0
  136.5120   76.2600  221.2590 N   0  0  0  0  0  0  0  0  0  0  0  0
  138.2490   72.5130  221.7590 N   0  0  0  0  0  0  0  0  0  0  0  0
  139.3440   72.5440  222.5630 C   0  0  0  0  0  0  0  0  0  0  0  0
  139.5780   71.4870  223.4870 N   0  0  0  0  0  0  0  0  0  0  0  0
  138.6880   70.3480  223.4970 C   0  0  0  0  0  0  0  0  0  0  0  0
  139.3060   69.1630  224.2100 C   0  0  0  0  0  0  0  0  0  0  0  0
  139.8550   69.5510  225.5310 C   0  0  0  0  0  0  0  0  0  0  0  0
  139.7080   68.7770  226.6600 C   0  0  0  0  0  0  0  0  0  0  0  0
  140.2450   69.1850  227.8820 C   0  0  0  0  0  0  0  0  0  0  0  0
  140.9330   70.3760  227.9760 C   0  0  0  0  0  0  0  0  0  0  0  0
  141.0640   71.1300  226.8280 C   0  0  0  0  0  0  0  0  0  0  0  0
  140.5400   70.7420  225.6120 C   0  0  0  0  0  0  0  0  0  0  0  0
  140.6930   71.5660  224.3950 C   0  0  0  0  0  0  0  0  0  0  0  0
  140.1930   73.5720  222.4720 N   0  0  0  0  0  0  0  0  0  0  0  0
  141.8130   77.9020  221.2630 C   0  0  0  0  0  0  0  0  0  0  0  0
  141.8093   82.0948  224.5657 H   0  0  0  0  0  0  0  0  0  0  0  0
  143.9770   81.1353  223.7379 H   0  0  0  0  0  0  0  0  0  0  0  0
  143.8650   79.1942  222.2113 H   0  0  0  0  0  0  0  0  0  0  0  0
  139.6404   81.1139  223.8696 H   0  0  0  0  0  0  0  0  0  0  0  0
  138.4531   79.2676  222.8110 H   0  0  0  0  0  0  0  0  0  0  0  0
  139.0395   79.2367  221.1540 H   0  0  0  0  0  0  0  0  0  0  0  0
  139.9714   77.2485  223.3447 H   0  0  0  0  0  0  0  0  0  0  0  0
  138.6415   76.8867  222.2015 H   0  0  0  0  0  0  0  0  0  0  0  0
  140.1263   77.1473  220.3076 H   0  0  0  0  0  0  0  0  0  0  0  0
  141.9590   75.4410  221.7410 H   0  0  0  0  0  0  0  0  0  0  0  0
  137.0270   73.1370  219.0590 H   0  0  0  0  0  0  0  0  0  0  0  0
  135.3112   74.9154  220.0427 H   0  0  0  0  0  0  0  0  0  0  0  0
  134.7790   73.2283  220.2305 H   0  0  0  0  0  0  0  0  0  0  0  0
  134.6632   73.9759  222.4111 H   0  0  0  0  0  0  0  0  0  0  0  0
  136.3656   73.3201  222.3340 H   0  0  0  0  0  0  0  0  0  0  0  0
  137.1165   75.1690  223.0000 H   0  0  0  0  0  0  0  0  0  0  0  0
  134.2571   76.1919  222.8638 H   0  0  0  0  0  0  0  0  0  0  0  0
  135.2017   75.8985  224.2929 H   0  0  0  0  0  0  0  0  0  0  0  0
  135.1413   78.4163  223.3086 H   0  0  0  0  0  0  0  0  0  0  0  0
  136.7174   77.8502  223.7718 H   0  0  0  0  0  0  0  0  0  0  0  0
  135.4351   78.0240  221.0204 H   0  0  0  0  0  0  0  0  0  0  0  0
  137.1512   78.2392  221.4490 H   0  0  0  0  0  0  0  0  0  0  0  0
  137.4410   76.0890  220.8380 H   0  0  0  0  0  0  0  0  0  0  0  0
  137.7564   70.6275  224.0108 H   0  0  0  0  0  0  0  0  0  0  0  0
  138.4901   70.0572  222.4548 H   0  0  0  0  0  0  0  0  0  0  0  0
  138.5355   68.3916  224.3556 H   0  0  0  0  0  0  0  0  0  0  0  0
  140.1312   68.7797  223.5919 H   0  0  0  0  0  0  0  0  0  0  0  0
  139.1604   67.8250  226.5982 H   0  0  0  0  0  0  0  0  0  0  0  0
  140.1187   68.5536  228.7738 H   0  0  0  0  0  0  0  0  0  0  0  0
  141.3618   70.7128  228.9313 H   0  0  0  0  0  0  0  0  0  0  0  0
  141.6105   72.0829  226.8847 H   0  0  0  0  0  0  0  0  0  0  0  0
  140.8151   72.6154  224.7015 H   0  0  0  0  0  0  0  0  0  0  0  0
  141.5690   71.1759  223.8561 H   0  0  0  0  0  0  0  0  0  0  0  0
  142.6826   77.2889  221.5421 H   0  0  0  0  0  0  0  0  0  0  0  0
  141.8964   78.3022  220.2418 H   0  0  0  0  0  0  0  0  0  0  0  0
  1  2  2  0
  2  3  1  0
  3  4  2  0
  4  5  1  0
  5  6  2  0
  5  7  1  0
  7  8  1  0
  8  9  1  0
  9 10  1  0
 10 11  1  0
 11 12  2  0
 12 13  1  0
 13 14  1  0
 14 15  1  0
 15 16  1  0
 16 17  1  0
 17 18  1  0
 18 19  1  0
 19 20  1  0
 20 21  1  0
 13 22  2  0
 22 23  1  0
 23 24  1  0
 24 25  1  0
 25 26  1  0
 26 27  1  0
 27 28  2  0
 28 29  1  0
 29 30  2  0
 30 31  1  0
 31 32  2  0
 32 33  1  0
 23 34  2  0
  9 35  1  0
  6  1  1  0
 34 11  1  0
 35  4  1  0
 21 17  1  0
 33 24  1  0
 32 27  1  0
  1 36  1  0
  2 37  1  0
  3 38  1  0
  6 39  1  0
  7 40  1  0
  7 41  1  0
  8 42  1  0
  8 43  1  0
  9 44  1  6
 10 45  1  0
 14 46  1  0
 15 47  1  0
 15 48  1  0
 16 49  1  0
 16 50  1  0
 17 51  1  1
 18 52  1  0
 18 53  1  0
 19 54  1  0
 19 55  1  0
 20 56  1  0
 20 57  1  0
 21 58  1  0
 25 59  1  0
 25 60  1  0
 26 61  1  0
 26 62  1  0
 28 63  1  0
 29 64  1  0
 30 65  1  0
 31 66  1  0
 33 67  1  0
 33 68  1  0
 35 69  1  0
 35 70  1  0
M  END
>  <smiles>  (24) 
c1ccc2c(c1)CCC(Nc1nc(NCCC3CCCN3)nc(N3CCc4ccccc4C3)n1)C2

>  <score_type>  (24) 
oracle

>  <origin>  (24) 
autodockgpu

>  <m_score__min__energy>  (24) 
-9.8699999999999992

>  <m_primary>  (24) 
energy

>  <rmsd>  (24) 
4.259920877765152

>  <m_score__min__rmsd>  (24) 
4.259920877765152

>  <meeko>  (24) 
{"free_energy": -9.08, "intermolecular_energy": -11.16, "internal_energy": -2.26, "cluster_size": 17, "cluster_id": 2, "rank_in_cluster": 13}

>  <energy>  (24) 
-9.21

>  <cluster_rmsd>  (24) 
1.38

>  <cluster>  (24) 
3

$$$$

     RDKit          3D

 70 75  0  0  1  0  0  0  0  0999 V2000
  141.9040   81.1660  224.1040 C   0  0  0  0  0  0  0  0  0  0  0  0
  143.0920   80.6850  223.5580 C   0  0  0  0  0  0  0  0  0  0  0  0
  142.9700   79.6810  222.6270 C   0  0  0  0  0  0  0  0  0  0  0  0
  141.7670   79.1480  222.2230 C   0  0  0  0  0  0  0  0  0  0  0  0
  140.6200   79.6530  222.7880 C   0  0  0  0  0  0  0  0  0  0  0  0
  140.6710   80.6570  223.7240 C   0  0  0  0  0  0  0  0  0  0  0  0
  139.3310   79.0450  222.3230 C   0  0  0  0  0  0  0  0  0  0  0  0
  139.6040   77.5330  222.3370 C   0  0  0  0  0  0  0  0  0  0  0  0
  140.5700   77.2040  221.2240 C   0  0  2  0  0  0  0  0  0  0  0  0
  140.9390   75.7970  221.3580 N   0  0  0  0  0  0  0  0  0  0  0  0
  139.9930   74.7690  221.4720 C   0  0  0  0  0  0  0  0  0  0  0  0
  138.8620   74.6820  220.7640 N   0  0  0  0  0  0  0  0  0  0  0  0
  137.9620   73.6890  220.8830 C   0  0  0  0  0  0  0  0  0  0  0  0
  136.7670   73.6470  220.0970 N   0  0  0  0  0  0  0  0  0  0  0  0
  135.4550   73.4550  220.7220 C   0  0  0  0  0  0  0  0  0  0  0  0
  135.4890   72.1370  221.4160 C   0  0  0  0  0  0  0  0  0  0  0  0
  135.4940   72.2530  222.9210 C   0  0  2  0  0  0  0  0  0  0  0  0
  134.1360   72.2010  223.5440 C   0  0  0  0  0  0  0  0  0  0  0  0
  134.4150   72.8300  224.9050 C   0  0  0  0  0  0  0  0  0  0  0  0
  135.3690   73.9390  224.5220 C   0  0  0  0  0  0  0  0  0  0  0  0
  136.0500   73.5290  223.3330 N   0  0  0  0  0  0  0  0  0  0  0  0
  138.2230   72.7020  221.7870 N   0  0  0  0  0  0  0  0  0  0  0  0
  139.3610   72.7450  222.5310 C   0  0  0  0  0  0  0  0  0  0  0  0
  139.6340   71.7130  223.4720 N   0  0  0  0  0  0  0  0  0  0  0  0
  138.8270   70.5140  223.4590 C   0  0  0  0  0  0  0  0  0  0  0  0
  139.5000   69.3800  224.2050 C   0  0  0  0  0  0  0  0  0  0  0  0
  139.9710   69.8140  225.5420 C   0  0  0  0  0  0  0  0  0  0  0  0
  139.8380   69.0380  226.6710 C   0  0  0  0  0  0  0  0  0  0  0  0
  140.2990   69.4910  227.9090 C   0  0  0  0  0  0  0  0  0  0  0  0
  140.8970   70.7280  228.0170 C   0  0  0  0  0  0  0  0  0  0  0  0
  141.0170   71.4830  226.8670 C   0  0  0  0  0  0  0  0  0  0  0  0
  140.5680   71.0510  225.6370 C   0  0  0  0  0  0  0  0  0  0  0  0
  140.7070   71.8760  224.4180 C   0  0  0  0  0  0  0  0  0  0  0  0
  140.2130   73.7600  222.3630 N   0  0  0  0  0  0  0  0  0  0  0  0
  141.7970   78.0720  221.2090 C   0  0  0  0  0  0  0  0  0  0  0  0
  141.9448   81.9690  224.8547 H   0  0  0  0  0  0  0  0  0  0  0  0
  144.0723   81.0860  223.8551 H   0  0  0  0  0  0  0  0  0  0  0  0
  143.8899   79.2790  222.1774 H   0  0  0  0  0  0  0  0  0  0  0  0
  139.7451   81.0526  224.1669 H   0  0  0  0  0  0  0  0  0  0  0  0
  138.5092   79.2999  223.0084 H   0  0  0  0  0  0  0  0  0  0  0  0
  139.0253   79.4099  221.3313 H   0  0  0  0  0  0  0  0  0  0  0  0
  140.0419   77.2451  223.3041 H   0  0  0  0  0  0  0  0  0  0  0  0
  138.6635   76.9814  222.1916 H   0  0  0  0  0  0  0  0  0  0  0  0
  140.0675   77.4005  220.2654 H   0  0  0  0  0  0  0  0  0  0  0  0
  141.9580   75.5710  221.3680 H   0  0  0  0  0  0  0  0  0  0  0  0
  136.8880   73.7610  219.0740 H   0  0  0  0  0  0  0  0  0  0  0  0
  135.2615   74.2587  221.4477 H   0  0  0  0  0  0  0  0  0  0  0  0
  134.6547   73.4798  219.9678 H   0  0  0  0  0  0  0  0  0  0  0  0
  134.6024   71.5605  221.1135 H   0  0  0  0  0  0  0  0  0  0  0  0
  136.4264   71.6404  221.1250 H   0  0  0  0  0  0  0  0  0  0  0  0
  136.0887   71.3898  223.2545 H   0  0  0  0  0  0  0  0  0  0  0  0
  133.4053   72.7892  222.9694 H   0  0  0  0  0  0  0  0  0  0  0  0
  133.6977   71.1932  223.5919 H   0  0  0  0  0  0  0  0  0  0  0  0
  133.4967   73.2273  225.3620 H   0  0  0  0  0  0  0  0  0  0  0  0
  134.8121   72.1298  225.6546 H   0  0  0  0  0  0  0  0  0  0  0  0
  134.8096   74.8671  224.3333 H   0  0  0  0  0  0  0  0  0  0  0  0
  136.0869   74.1298  225.3333 H   0  0  0  0  0  0  0  0  0  0  0  0
  137.0820   73.5390  223.3980 H   0  0  0  0  0  0  0  0  0  0  0  0
  137.8593   70.7299  223.9354 H   0  0  0  0  0  0  0  0  0  0  0  0
  138.6894   70.2035  222.4127 H   0  0  0  0  0  0  0  0  0  0  0  0
  138.7807   68.5570  224.3291 H   0  0  0  0  0  0  0  0  0  0  0  0
  140.3727   69.0522  223.6210 H   0  0  0  0  0  0  0  0  0  0  0  0
  139.3627   68.0487  226.5973 H   0  0  0  0  0  0  0  0  0  0  0  0
  140.1844   68.8581  228.8013 H   0  0  0  0  0  0  0  0  0  0  0  0
  141.2654   71.1004  228.9843 H   0  0  0  0  0  0  0  0  0  0  0  0
  141.4918   72.4729  226.9352 H   0  0  0  0  0  0  0  0  0  0  0  0
  140.7444   72.9334  224.7190 H   0  0  0  0  0  0  0  0  0  0  0  0
  141.6270   71.5447  223.9141 H   0  0  0  0  0  0  0  0  0  0  0  0
  142.6753   77.4377  221.3994 H   0  0  0  0  0  0  0  0  0  0  0  0
  141.8403   78.5564  220.2223 H   0  0  0  0  0  0  0  0  0  0  0  0
  1  2  2  0
  2  3  1  0
  3  4  2  0
  4  5  1  0
  5  6  2  0
  5  7  1  0
  7  8  1  0
  8  9  1  0
  9 10  1  0
 10 11  1  0
 11 12  2  0
 12 13  1  0
 13 14  1  0
 14 15  1  0
 15 16  1  0
 16 17  1  0
 17 18  1  0
 18 19  1  0
 19 20  1  0
 20 21  1  0
 13 22  2  0
 22 23  1  0
 23 24  1  0
 24 25  1  0
 25 26  1  0
 26 27  1  0
 27 28  2  0
 28 29  1  0
 29 30  2  0
 30 31  1  0
 31 32  2  0
 32 33  1  0
 23 34  2  0
  9 35  1  0
  6  1  1  0
 34 11  1  0
 35  4  1  0
 21 17  1  0
 33 24  1  0
 32 27  1  0
  1 36  1  0
  2 37  1  0
  3 38  1  0
  6 39  1  0
  7 40  1  0
  7 41  1  0
  8 42  1  0
  8 43  1  0
  9 44  1  6
 10 45  1  0
 14 46  1  0
 15 47  1  0
 15 48  1  0
 16 49  1  0
 16 50  1  0
 17 51  1  1
 18 52  1  0
 18 53  1  0
 19 54  1  0
 19 55  1  0
 20 56  1  0
 20 57  1  0
 21 58  1  0
 25 59  1  0
 25 60  1  0
 26 61  1  0
 26 62  1  0
 28 63  1  0
 29 64  1  0
 30 65  1  0
 31 66  1  0
 33 67  1  0
 33 68  1  0
 35 69  1  0
 35 70  1  0
M  END
>  <smiles>  (25) 
c1ccc2c(c1)CCC(Nc1nc(NCCC3CCCN3)nc(N3CCc4ccccc4C3)n1)C2

>  <score_type>  (25) 
oracle

>  <origin>  (25) 
autodockgpu

>  <m_score__min__energy>  (25) 
-9.8699999999999992

>  <m_primary>  (25) 
energy

>  <rmsd>  (25) 
4.28718521982793

>  <m_score__min__rmsd>  (25) 
4.28718521982793

>  <meeko>  (25) 
{"free_energy": -9.61, "intermolecular_energy": -11.7, "internal_energy": -1.97, "cluster_size": 17, "cluster_id": 2, "rank_in_cluster": 6}

>  <energy>  (25) 
-9.09

>  <cluster_rmsd>  (25) 
1.9

>  <cluster>  (25) 
3

$$$$

     RDKit          3D

 70 75  0  0  1  0  0  0  0  0999 V2000
  141.7780   81.2420  224.1590 C   0  0  0  0  0  0  0  0  0  0  0  0
  142.9810   80.8580  223.5690 C   0  0  0  0  0  0  0  0  0  0  0  0
  142.9050   79.8500  222.6380 C   0  0  0  0  0  0  0  0  0  0  0  0
  141.7350   79.2230  222.2750 C   0  0  0  0  0  0  0  0  0  0  0  0
  140.5720   79.6340  222.8830 C   0  0  0  0  0  0  0  0  0  0  0  0
  140.5760   80.6360  223.8220 C   0  0  0  0  0  0  0  0  0  0  0  0
  139.3190   78.9260  222.4610 C   0  0  0  0  0  0  0  0  0  0  0  0
  139.7120   77.4400  222.4580 C   0  0  0  0  0  0  0  0  0  0  0  0
  140.6610   77.1910  221.3100 C   0  0  2  0  0  0  0  0  0  0  0  0
  141.1450   75.8180  221.4240 N   0  0  0  0  0  0  0  0  0  0  0  0
  140.3000   74.7030  221.3420 C   0  0  0  0  0  0  0  0  0  0  0  0
  139.4550   74.4490  220.3370 N   0  0  0  0  0  0  0  0  0  0  0  0
  138.6490   73.3740  220.2700 C   0  0  0  0  0  0  0  0  0  0  0  0
  137.7640   73.1540  219.1680 N   0  0  0  0  0  0  0  0  0  0  0  0
  136.3130   73.2990  219.3190 C   0  0  0  0  0  0  0  0  0  0  0  0
  136.0710   74.6100  219.9840 C   0  0  0  0  0  0  0  0  0  0  0  0
  136.0800   74.5260  221.4910 C   0  0  2  0  0  0  0  0  0  0  0  0
  134.9540   75.2540  222.1520 C   0  0  0  0  0  0  0  0  0  0  0  0
  135.4990   75.4170  223.5660 C   0  0  0  0  0  0  0  0  0  0  0  0
  136.9510   75.7340  223.2820 C   0  0  0  0  0  0  0  0  0  0  0  0
  137.2860   75.1290  222.0300 N   0  0  0  0  0  0  0  0  0  0  0  0
  138.6990   72.4800  221.3000 N   0  0  0  0  0  0  0  0  0  0  0  0
  139.5420   72.6930  222.3450 C   0  0  0  0  0  0  0  0  0  0  0  0
  139.5960   71.7580  223.4160 N   0  0  0  0  0  0  0  0  0  0  0  0
  138.5080   70.8240  223.5930 C   0  0  0  0  0  0  0  0  0  0  0  0
  138.9090   69.6610  224.4760 C   0  0  0  0  0  0  0  0  0  0  0  0
  139.5550   70.1260  225.7270 C   0  0  0  0  0  0  0  0  0  0  0  0
  139.2940   69.5690  226.9580 C   0  0  0  0  0  0  0  0  0  0  0  0
  139.9290   70.0420  228.1080 C   0  0  0  0  0  0  0  0  0  0  0  0
  140.8320   71.0810  228.0250 C   0  0  0  0  0  0  0  0  0  0  0  0
  141.0730   71.6200  226.7770 C   0  0  0  0  0  0  0  0  0  0  0  0
  140.4550   71.1640  225.6310 C   0  0  0  0  0  0  0  0  0  0  0  0
  140.7290   71.7560  224.3050 C   0  0  0  0  0  0  0  0  0  0  0  0
  140.3160   73.7820  222.3480 N   0  0  0  0  0  0  0  0  0  0  0  0
  141.8130   78.1550  221.2550 C   0  0  0  0  0  0  0  0  0  0  0  0
  141.7815   82.0454  224.9104 H   0  0  0  0  0  0  0  0  0  0  0  0
  143.9365   81.3345  223.8334 H   0  0  0  0  0  0  0  0  0  0  0  0
  143.8370   79.5242  222.1530 H   0  0  0  0  0  0  0  0  0  0  0  0
  139.6383   80.9542  224.3010 H   0  0  0  0  0  0  0  0  0  0  0  0
  138.5047   79.1133  223.1764 H   0  0  0  0  0  0  0  0  0  0  0  0
  138.9498   79.2674  221.4827 H   0  0  0  0  0  0  0  0  0  0  0  0
  140.2056   77.1860  223.4077 H   0  0  0  0  0  0  0  0  0  0  0  0
  138.8137   76.8156  222.3431 H   0  0  0  0  0  0  0  0  0  0  0  0
  140.1109   77.3481  220.3705 H   0  0  0  0  0  0  0  0  0  0  0  0
  142.1700   75.6860  221.5730 H   0  0  0  0  0  0  0  0  0  0  0  0
  138.2100   72.8900  218.2700 H   0  0  0  0  0  0  0  0  0  0  0  0
  135.8272   73.2810  218.3322 H   0  0  0  0  0  0  0  0  0  0  0  0
  135.8970   72.4742  219.9162 H   0  0  0  0  0  0  0  0  0  0  0  0
  136.8573   75.3117  219.6688 H   0  0  0  0  0  0  0  0  0  0  0  0
  135.0685   74.9479  219.6826 H   0  0  0  0  0  0  0  0  0  0  0  0
  135.9998   73.4489  221.6991 H   0  0  0  0  0  0  0  0  0  0  0  0
  134.7690   76.2283  221.6761 H   0  0  0  0  0  0  0  0  0  0  0  0
  133.9859   74.7346  222.0976 H   0  0  0  0  0  0  0  0  0  0  0  0
  135.0021   76.2419  224.0977 H   0  0  0  0  0  0  0  0  0  0  0  0
  135.3447   74.5421  224.2147 H   0  0  0  0  0  0  0  0  0  0  0  0
  137.0930   76.8232  223.2228 H   0  0  0  0  0  0  0  0  0  0  0  0
  137.5963   75.3470  224.0844 H   0  0  0  0  0  0  0  0  0  0  0  0
  138.0990   74.4910  222.0590 H   0  0  0  0  0  0  0  0  0  0  0  0
  137.6595   71.3483  224.0569 H   0  0  0  0  0  0  0  0  0  0  0  0
  138.2320   70.4265  222.6052 H   0  0  0  0  0  0  0  0  0  0  0  0
  138.0106   69.0803  224.7321 H   0  0  0  0  0  0  0  0  0  0  0  0
  139.6314   69.0417  223.9241 H   0  0  0  0  0  0  0  0  0  0  0  0
  138.5754   68.7399  227.0370 H   0  0  0  0  0  0  0  0  0  0  0  0
  139.7082   69.5843  229.0836 H   0  0  0  0  0  0  0  0  0  0  0  0
  141.3417   71.4662  228.9204 H   0  0  0  0  0  0  0  0  0  0  0  0
  141.7898   72.4501  226.6927 H   0  0  0  0  0  0  0  0  0  0  0  0
  141.0546   72.7964  224.4519 H   0  0  0  0  0  0  0  0  0  0  0  0
  141.5015   71.1315  223.8325 H   0  0  0  0  0  0  0  0  0  0  0  0
  142.7457   77.5927  221.4097 H   0  0  0  0  0  0  0  0  0  0  0  0
  141.7803   78.6439  220.2701 H   0  0  0  0  0  0  0  0  0  0  0  0
  1  2  2  0
  2  3  1  0
  3  4  2  0
  4  5  1  0
  5  6  2  0
  5  7  1  0
  7  8  1  0
  8  9  1  0
  9 10  1  0
 10 11  1  0
 11 12  2  0
 12 13  1  0
 13 14  1  0
 14 15  1  0
 15 16  1  0
 16 17  1  0
 17 18  1  0
 18 19  1  0
 19 20  1  0
 20 21  1  0
 13 22  2  0
 22 23  1  0
 23 24  1  0
 24 25  1  0
 25 26  1  0
 26 27  1  0
 27 28  2  0
 28 29  1  0
 29 30  2  0
 30 31  1  0
 31 32  2  0
 32 33  1  0
 23 34  2  0
  9 35  1  0
  6  1  1  0
 34 11  1  0
 35  4  1  0
 21 17  1  0
 33 24  1  0
 32 27  1  0
  1 36  1  0
  2 37  1  0
  3 38  1  0
  6 39  1  0
  7 40  1  0
  7 41  1  0
  8 42  1  0
  8 43  1  0
  9 44  1  6
 10 45  1  0
 14 46  1  0
 15 47  1  0
 15 48  1  0
 16 49  1  0
 16 50  1  0
 17 51  1  6
 18 52  1  0
 18 53  1  0
 19 54  1  0
 19 55  1  0
 20 56  1  0
 20 57  1  0
 21 58  1  0
 25 59  1  0
 25 60  1  0
 26 61  1  0
 26 62  1  0
 28 63  1  0
 29 64  1  0
 30 65  1  0
 31 66  1  0
 33 67  1  0
 33 68  1  0
 35 69  1  0
 35 70  1  0
M  END
>  <smiles>  (26) 
c1ccc2c(c1)CCC(Nc1nc(NCCC3CCCN3)nc(N3CCc4ccccc4C3)n1)C2

>  <score_type>  (26) 
oracle

>  <origin>  (26) 
autodockgpu

>  <m_score__min__energy>  (26) 
-9.8699999999999992

>  <m_primary>  (26) 
energy

>  <rmsd>  (26) 
4.240176586809754

>  <m_score__min__rmsd>  (26) 
4.240176586809754

>  <meeko>  (26) 
{"free_energy": -9.31, "intermolecular_energy": -11.39, "internal_energy": -3.09, "cluster_size": 17, "cluster_id": 2, "rank_in_cluster": 10}

>  <energy>  (26) 
-8.85

>  <cluster_rmsd>  (26) 
1.59

>  <cluster>  (26) 
3

$$$$

     RDKit          3D

 70 75  0  0  1  0  0  0  0  0999 V2000
  134.5270   74.1250  225.6770 C   0  0  0  0  0  0  0  0  0  0  0  0
  135.3010   75.2660  225.4820 C   0  0  0  0  0  0  0  0  0  0  0  0
  135.6350   75.5580  224.1810 C   0  0  0  0  0  0  0  0  0  0  0  0
  135.2530   74.7990  223.0990 C   0  0  0  0  0  0  0  0  0  0  0  0
  134.4890   73.6810  223.3380 C   0  0  0  0  0  0  0  0  0  0  0  0
  134.1200   73.3310  224.6140 C   0  0  0  0  0  0  0  0  0  0  0  0
  134.0950   72.8790  222.1330 C   0  0  0  0  0  0  0  0  0  0  0  0
  135.3900   72.7760  221.3120 C   0  0  0  0  0  0  0  0  0  0  0  0
  135.7110   74.1360  220.7400 C   0  0  2  0  0  0  0  0  0  0  0  0
  137.0230   74.0510  220.1030 N   0  0  0  0  0  0  0  0  0  0  0  0
  138.2200   73.9820  220.8290 C   0  0  0  0  0  0  0  0  0  0  0  0
  139.2490   74.8250  220.6980 N   0  0  0  0  0  0  0  0  0  0  0  0
  140.3930   74.7480  221.4010 C   0  0  0  0  0  0  0  0  0  0  0  0
  141.4620   75.6820  221.2200 N   0  0  0  0  0  0  0  0  0  0  0  0
  141.4910   76.5870  220.0680 C   0  0  0  0  0  0  0  0  0  0  0  0
  140.9970   77.9120  220.5390 C   0  0  0  0  0  0  0  0  0  0  0  0
  141.6320   78.3590  221.8330 C   0  0  2  0  0  0  0  0  0  0  0  0
  140.6760   78.4790  222.9760 C   0  0  0  0  0  0  0  0  0  0  0  0
  141.4580   79.3880  223.9190 C   0  0  0  0  0  0  0  0  0  0  0  0
  142.0720   80.3620  222.9380 C   0  0  0  0  0  0  0  0  0  0  0  0
  142.2130   79.6820  221.6880 N   0  0  0  0  0  0  0  0  0  0  0  0
  140.5100   73.7390  222.3110 N   0  0  0  0  0  0  0  0  0  0  0  0
  139.4910   72.8550  222.4810 C   0  0  0  0  0  0  0  0  0  0  0  0
  139.6130   71.8040  223.4330 N   0  0  0  0  0  0  0  0  0  0  0  0
  138.6400   70.7360  223.4340 C   0  0  0  0  0  0  0  0  0  0  0  0
  139.1430   69.5250  224.1920 C   0  0  0  0  0  0  0  0  0  0  0  0
  139.6740   69.8990  225.5240 C   0  0  0  0  0  0  0  0  0  0  0  0
  139.4310   69.1640  226.6620 C   0  0  0  0  0  0  0  0  0  0  0  0
  139.9540   69.5580  227.8950 C   0  0  0  0  0  0  0  0  0  0  0  0
  140.7270   70.6960  227.9890 C   0  0  0  0  0  0  0  0  0  0  0  0
  140.9530   71.4130  226.8310 C   0  0  0  0  0  0  0  0  0  0  0  0
  140.4440   71.0380  225.6060 C   0  0  0  0  0  0  0  0  0  0  0  0
  140.7000   71.8200  224.3790 C   0  0  0  0  0  0  0  0  0  0  0  0
  138.3810   72.9890  221.7500 N   0  0  0  0  0  0  0  0  0  0  0  0
  135.6890   75.2430  221.7570 C   0  0  0  0  0  0  0  0  0  0  0  0
  134.2308   73.8461  226.6990 H   0  0  0  0  0  0  0  0  0  0  0  0
  135.6267   75.8978  226.3215 H   0  0  0  0  0  0  0  0  0  0  0  0
  136.2453   76.4537  223.9934 H   0  0  0  0  0  0  0  0  0  0  0  0
  133.5098   72.4330  224.7910 H   0  0  0  0  0  0  0  0  0  0  0  0
  133.7389   71.8808  222.4276 H   0  0  0  0  0  0  0  0  0  0  0  0
  133.2725   73.3419  221.5681 H   0  0  0  0  0  0  0  0  0  0  0  0
  136.2139   72.4436  221.9606 H   0  0  0  0  0  0  0  0  0  0  0  0
  135.2600   72.0483  220.4974 H   0  0  0  0  0  0  0  0  0  0  0  0
  134.9257   74.3965  220.0151 H   0  0  0  0  0  0  0  0  0  0  0  0
  137.0450   74.0440  219.0590 H   0  0  0  0  0  0  0  0  0  0  0  0
  142.2020   75.6750  221.9460 H   0  0  0  0  0  0  0  0  0  0  0  0
  142.5189   76.6810  219.6878 H   0  0  0  0  0  0  0  0  0  0  0  0
  140.8618   76.2021  219.2519 H   0  0  0  0  0  0  0  0  0  0  0  0
  141.2164   78.6620  219.7648 H   0  0  0  0  0  0  0  0  0  0  0  0
  139.9172   77.8110  220.7232 H   0  0  0  0  0  0  0  0  0  0  0  0
  142.3747   77.5771  222.0498 H   0  0  0  0  0  0  0  0  0  0  0  0
  139.7286   78.9419  222.6627 H   0  0  0  0  0  0  0  0  0  0  0  0
  140.3773   77.5174  223.4188 H   0  0  0  0  0  0  0  0  0  0  0  0
  140.7935   79.8978  224.6321 H   0  0  0  0  0  0  0  0  0  0  0  0
  142.1873   78.8632  224.5536 H   0  0  0  0  0  0  0  0  0  0  0  0
  141.4165   81.2371  222.8176 H   0  0  0  0  0  0  0  0  0  0  0  0
  143.0496   80.7125  223.3007 H   0  0  0  0  0  0  0  0  0  0  0  0
  143.1710   79.6810  221.2980 H   0  0  0  0  0  0  0  0  0  0  0  0
  137.7153   71.0958  223.9089 H   0  0  0  0  0  0  0  0  0  0  0  0
  138.4554   70.4374  222.3915 H   0  0  0  0  0  0  0  0  0  0  0  0
  138.3124   68.8162  224.3247 H   0  0  0  0  0  0  0  0  0  0  0  0
  139.9585   69.0691  223.6114 H   0  0  0  0  0  0  0  0  0  0  0  0
  138.8164   68.2539  226.5992 H   0  0  0  0  0  0  0  0  0  0  0  0
  139.7488   68.9588  228.7943 H   0  0  0  0  0  0  0  0  0  0  0  0
  141.1484   71.0208  228.9518 H   0  0  0  0  0  0  0  0  0  0  0  0
  141.5666   72.3242  226.8884 H   0  0  0  0  0  0  0  0  0  0  0  0
  140.8907   72.8640  224.6683 H   0  0  0  0  0  0  0  0  0  0  0  0
  141.5617   71.3531  223.8796 H   0  0  0  0  0  0  0  0  0  0  0  0
  136.7034   75.6603  221.8402 H   0  0  0  0  0  0  0  0  0  0  0  0
  134.9597   75.9894  221.4090 H   0  0  0  0  0  0  0  0  0  0  0  0
  1  2  2  0
  2  3  1  0
  3  4  2  0
  4  5  1  0
  5  6  2  0
  5  7  1  0
  7  8  1  0
  8  9  1  0
  9 10  1  0
 10 11  1  0
 11 12  2  0
 12 13  1  0
 13 14  1  0
 14 15  1  0
 15 16  1  0
 16 17  1  0
 17 18  1  0
 18 19  1  0
 19 20  1  0
 20 21  1  0
 13 22  2  0
 22 23  1  0
 23 24  1  0
 24 25  1  0
 25 26  1  0
 26 27  1  0
 27 28  2  0
 28 29  1  0
 29 30  2  0
 30 31  1  0
 31 32  2  0
 32 33  1  0
 23 34  2  0
  9 35  1  0
  6  1  1  0
 34 11  1  0
 35  4  1  0
 21 17  1  0
 33 24  1  0
 32 27  1  0
  1 36  1  0
  2 37  1  0
  3 38  1  0
  6 39  1  0
  7 40  1  0
  7 41  1  0
  8 42  1  0
  8 43  1  0
  9 44  1  6
 10 45  1  0
 14 46  1  0
 15 47  1  0
 15 48  1  0
 16 49  1  0
 16 50  1  0
 17 51  1  1
 18 52  1  0
 18 53  1  0
 19 54  1  0
 19 55  1  0
 20 56  1  0
 20 57  1  0
 21 58  1  0
 25 59  1  0
 25 60  1  0
 26 61  1  0
 26 62  1  0
 28 63  1  0
 29 64  1  0
 30 65  1  0
 31 66  1  0
 33 67  1  0
 33 68  1  0
 35 69  1  0
 35 70  1  0
M  END
>  <smiles>  (27) 
c1ccc2c(c1)CCC(Nc1nc(NCCC3CCCN3)nc(N3CCc4ccccc4C3)n1)C2

>  <score_type>  (27) 
oracle

>  <origin>  (27) 
autodockgpu

>  <m_score__min__energy>  (27) 
-9.8699999999999992

>  <m_primary>  (27) 
energy

>  <rmsd>  (27) 
9.268332980949062

>  <m_score__min__rmsd>  (27) 
9.268332980949062

>  <meeko>  (27) 
{"free_energy": -9.14, "intermolecular_energy": -11.22, "internal_energy": -1.56, "cluster_size": 1, "cluster_id": 7, "rank_in_cluster": 1}

>  <energy>  (27) 
-8.81

>  <cluster_rmsd>  (27) 
1.57

>  <cluster>  (27) 
3

$$$$

     RDKit          3D

 70 75  0  0  1  0  0  0  0  0999 V2000
  146.3190   67.1450  218.2330 C   0  0  0  0  0  0  0  0  0  0  0  0
  145.3480   66.6320  219.0910 C   0  0  0  0  0  0  0  0  0  0  0  0
  144.3800   67.5140  219.5080 C   0  0  0  0  0  0  0  0  0  0  0  0
  144.3280   68.8360  219.1310 C   0  0  0  0  0  0  0  0  0  0  0  0
  145.3060   69.3000  218.2840 C   0  0  0  0  0  0  0  0  0  0  0  0
  146.3030   68.4720  217.8280 C   0  0  0  0  0  0  0  0  0  0  0  0
  145.2160   70.7460  217.8970 C   0  0  0  0  0  0  0  0  0  0  0  0
  144.9270   71.4700  219.2220 C   0  0  0  0  0  0  0  0  0  0  0  0
  143.5220   71.1340  219.6620 C   0  0  2  0  0  0  0  0  0  0  0  0
  143.3280   71.6980  220.9950 N   0  0  0  0  0  0  0  0  0  0  0  0
  142.1860   72.4260  221.3550 C   0  0  0  0  0  0  0  0  0  0  0  0
  141.0610   71.9000  221.8510 N   0  0  0  0  0  0  0  0  0  0  0  0
  139.9720   72.6110  222.1930 C   0  0  0  0  0  0  0  0  0  0  0  0
  138.7950   71.9920  222.7220 N   0  0  0  0  0  0  0  0  0  0  0  0
  138.6470   70.5330  222.7380 C   0  0  0  0  0  0  0  0  0  0  0  0
  138.5310   70.1210  224.1650 C   0  0  0  0  0  0  0  0  0  0  0  0
  139.8570   70.0830  224.8850 C   0  0  2  0  0  0  0  0  0  0  0  0
  139.7590   69.7190  226.3320 C   0  0  0  0  0  0  0  0  0  0  0  0
  141.0890   70.2470  226.8580 C   0  0  0  0  0  0  0  0  0  0  0  0
  141.2080   71.5470  226.0930 C   0  0  0  0  0  0  0  0  0  0  0  0
  140.4860   71.3910  224.8680 N   0  0  0  0  0  0  0  0  0  0  0  0
  140.0190   73.9630  222.0220 N   0  0  0  0  0  0  0  0  0  0  0  0
  141.1400   74.5470  221.5210 C   0  0  0  0  0  0  0  0  0  0  0  0
  141.1890   75.9580  221.3470 N   0  0  0  0  0  0  0  0  0  0  0  0
  141.7990   76.5020  220.1550 C   0  0  0  0  0  0  0  0  0  0  0  0
  141.3950   77.9440  219.9290 C   0  0  0  0  0  0  0  0  0  0  0  0
  141.5710   78.7550  221.1570 C   0  0  0  0  0  0  0  0  0  0  0  0
  142.0900   80.0290  221.1460 C   0  0  0  0  0  0  0  0  0  0  0  0
  142.2360   80.7540  222.3300 C   0  0  0  0  0  0  0  0  0  0  0  0
  141.8580   80.2000  223.5350 C   0  0  0  0  0  0  0  0  0  0  0  0
  141.3400   78.9200  223.5140 C   0  0  0  0  0  0  0  0  0  0  0  0
  141.1900   78.1900  222.3540 C   0  0  0  0  0  0  0  0  0  0  0  0
  140.6320   76.8220  222.3560 C   0  0  0  0  0  0  0  0  0  0  0  0
  142.1870   73.7820  221.2010 N   0  0  0  0  0  0  0  0  0  0  0  0
  143.2220   69.6610  219.6620 C   0  0  0  0  0  0  0  0  0  0  0  0
  147.1173   66.4820  217.8681 H   0  0  0  0  0  0  0  0  0  0  0  0
  145.3559   65.5811  219.4159 H   0  0  0  0  0  0  0  0  0  0  0  0
  143.5983   67.1396  220.1853 H   0  0  0  0  0  0  0  0  0  0  0  0
  147.0792   68.8564  217.1500 H   0  0  0  0  0  0  0  0  0  0  0  0
  146.1641   71.0934  217.4606 H   0  0  0  0  0  0  0  0  0  0  0  0
  144.4439   70.9327  217.1361 H   0  0  0  0  0  0  0  0  0  0  0  0
  145.6437   71.1394  219.9882 H   0  0  0  0  0  0  0  0  0  0  0  0
  145.0263   72.5568  219.0842 H   0  0  0  0  0  0  0  0  0  0  0  0
  142.8214   71.5689  218.9339 H   0  0  0  0  0  0  0  0  0  0  0  0
  144.0870   71.5390  221.6940 H   0  0  0  0  0  0  0  0  0  0  0  0
  138.0670   72.6330  223.0870 H   0  0  0  0  0  0  0  0  0  0  0  0
  137.7423   70.2393  222.1856 H   0  0  0  0  0  0  0  0  0  0  0  0
  139.5091   70.0464  222.2584 H   0  0  0  0  0  0  0  0  0  0  0  0
  137.8732   70.8350  224.6822 H   0  0  0  0  0  0  0  0  0  0  0  0
  138.1243   69.0990  224.1771 H   0  0  0  0  0  0  0  0  0  0  0  0
  140.4314   69.3150  224.3463 H   0  0  0  0  0  0  0  0  0  0  0  0
  138.9067   70.2176  226.8168 H   0  0  0  0  0  0  0  0  0  0  0  0
  139.5915   68.6480  226.5189 H   0  0  0  0  0  0  0  0  0  0  0  0
  141.0540   70.4193  227.9439 H   0  0  0  0  0  0  0  0  0  0  0  0
  141.9364   69.5598  226.7179 H   0  0  0  0  0  0  0  0  0  0  0  0
  140.7765   72.3702  226.6814 H   0  0  0  0  0  0  0  0  0  0  0  0
  142.2633   71.7849  225.8938 H   0  0  0  0  0  0  0  0  0  0  0  0
  141.0350   71.5850  224.0130 H   0  0  0  0  0  0  0  0  0  0  0  0
  142.8929   76.4500  220.2585 H   0  0  0  0  0  0  0  0  0  0  0  0
  141.4567   75.9102  219.2932 H   0  0  0  0  0  0  0  0  0  0  0  0
  142.0177   78.3685  219.1277 H   0  0  0  0  0  0  0  0  0  0  0  0
  140.3311   77.9653  219.6502 H   0  0  0  0  0  0  0  0  0  0  0  0
  142.3941   80.4826  220.1911 H   0  0  0  0  0  0  0  0  0  0  0  0
  142.6541   81.7710  222.3017 H   0  0  0  0  0  0  0  0  0  0  0  0
  141.9651   80.7568  224.4776 H   0  0  0  0  0  0  0  0  0  0  0  0
  141.0331   78.4621  224.4659 H   0  0  0  0  0  0  0  0  0  0  0  0
  140.8247   76.3718  223.3410 H   0  0  0  0  0  0  0  0  0  0  0  0
  139.5587   76.9170  222.1348 H   0  0  0  0  0  0  0  0  0  0  0  0
  143.0182   69.3468  220.6963 H   0  0  0  0  0  0  0  0  0  0  0  0
  142.3558   69.5063  219.0018 H   0  0  0  0  0  0  0  0  0  0  0  0
  1  2  2  0
  2  3  1  0
  3  4  2  0
  4  5  1  0
  5  6  2  0
  5  7  1  0
  7  8  1  0
  8  9  1  0
  9 10  1  0
 10 11  1  0
 11 12  2  0
 12 13  1  0
 13 14  1  0
 14 15  1  0
 15 16  1  0
 16 17  1  0
 17 18  1  0
 18 19  1  0
 19 20  1  0
 20 21  1  0
 13 22  2  0
 22 23  1  0
 23 24  1  0
 24 25  1  0
 25 26  1  0
 26 27  1  0
 27 28  2  0
 28 29  1  0
 29 30  2  0
 30 31  1  0
 31 32  2  0
 32 33  1  0
 23 34  2  0
  9 35  1  0
  6  1  1  0
 34 11  1  0
 35  4  1  0
 21 17  1  0
 33 24  1  0
 32 27  1  0
  1 36  1  0
  2 37  1  0
  3 38  1  0
  6 39  1  0
  7 40  1  0
  7 41  1  0
  8 42  1  0
  8 43  1  0
  9 44  1  6
 10 45  1  0
 14 46  1  0
 15 47  1  0
 15 48  1  0
 16 49  1  0
 16 50  1  0
 17 51  1  6
 18 52  1  0
 18 53  1  0
 19 54  1  0
 19 55  1  0
 20 56  1  0
 20 57  1  0
 21 58  1  0
 25 59  1  0
 25 60  1  0
 26 61  1  0
 26 62  1  0
 28 63  1  0
 29 64  1  0
 30 65  1  0
 31 66  1  0
 33 67  1  0
 33 68  1  0
 35 69  1  0
 35 70  1  0
M  END
>  <smiles>  (28) 
c1ccc2c(c1)CCC(Nc1nc(NCCC3CCCN3)nc(N3CCc4ccccc4C3)n1)C2

>  <score_type>  (28) 
oracle

>  <origin>  (28) 
autodockgpu

>  <m_score__min__energy>  (28) 
-9.8699999999999992

>  <m_primary>  (28) 
energy

>  <rmsd>  (28) 
12.553506749043233

>  <m_score__min__rmsd>  (28) 
12.553506749043233

>  <meeko>  (28) 
{"free_energy": -9.87, "intermolecular_energy": -11.96, "internal_energy": -1.63, "cluster_size": 1, "cluster_id": 1, "rank_in_cluster": 1}

>  <energy>  (28) 
-8.8

>  <cluster_rmsd>  (28) 
1.74

>  <cluster>  (28) 
3

$$$$

     RDKit          3D

 70 75  0  0  1  0  0  0  0  0999 V2000
  141.6380   81.3760  223.9780 C   0  0  0  0  0  0  0  0  0  0  0  0
  142.8120   80.9060  223.3930 C   0  0  0  0  0  0  0  0  0  0  0  0
  142.6830   79.8190  222.5620 C   0  0  0  0  0  0  0  0  0  0  0  0
  141.4880   79.1930  222.2920 C   0  0  0  0  0  0  0  0  0  0  0  0
  140.3540   79.6900  222.8910 C   0  0  0  0  0  0  0  0  0  0  0  0
  140.4120   80.7750  223.7320 C   0  0  0  0  0  0  0  0  0  0  0  0
  139.0720   78.9810  222.5720 C   0  0  0  0  0  0  0  0  0  0  0  0
  139.4290   77.4910  222.6970 C   0  0  0  0  0  0  0  0  0  0  0  0
  140.3360   77.1110  221.5510 C   0  0  2  0  0  0  0  0  0  0  0  0
  140.7890   75.7420  221.7780 N   0  0  0  0  0  0  0  0  0  0  0  0
  139.9510   74.6280  221.6350 C   0  0  0  0  0  0  0  0  0  0  0  0
  139.0810   74.4420  220.6370 N   0  0  0  0  0  0  0  0  0  0  0  0
  138.2810   73.3680  220.5100 C   0  0  0  0  0  0  0  0  0  0  0  0
  137.3690   73.2230  219.4180 N   0  0  0  0  0  0  0  0  0  0  0  0
  135.9490   73.5560  219.5670 C   0  0  0  0  0  0  0  0  0  0  0  0
  135.8760   74.8290  220.3380 C   0  0  0  0  0  0  0  0  0  0  0  0
  135.7910   74.6190  221.8300 C   0  0  2  0  0  0  0  0  0  0  0  0
  134.6500   75.3300  222.4850 C   0  0  0  0  0  0  0  0  0  0  0  0
  135.1140   75.3530  223.9370 C   0  0  0  0  0  0  0  0  0  0  0  0
  136.5890   75.6400  223.7650 C   0  0  0  0  0  0  0  0  0  0  0  0
  136.9800   75.1300  222.4880 N   0  0  0  0  0  0  0  0  0  0  0  0
  138.3660   72.4000  221.4670 N   0  0  0  0  0  0  0  0  0  0  0  0
  139.2360   72.5410  222.5020 C   0  0  0  0  0  0  0  0  0  0  0  0
  139.3260   71.5280  223.4980 N   0  0  0  0  0  0  0  0  0  0  0  0
  138.2140   70.6250  223.6890 C   0  0  0  0  0  0  0  0  0  0  0  0
  138.6270   69.3860  224.4560 C   0  0  0  0  0  0  0  0  0  0  0  0
  139.3800   69.7340  225.6850 C   0  0  0  0  0  0  0  0  0  0  0  0
  139.1830   69.0980  226.8890 C   0  0  0  0  0  0  0  0  0  0  0  0
  139.9180   69.4610  228.0190 C   0  0  0  0  0  0  0  0  0  0  0  0
  140.8560   70.4690  227.9430 C   0  0  0  0  0  0  0  0  0  0  0  0
  141.0310   71.0880  226.7220 C   0  0  0  0  0  0  0  0  0  0  0  0
  140.3140   70.7420  225.5960 C   0  0  0  0  0  0  0  0  0  0  0  0
  140.5180   71.4190  224.2980 C   0  0  0  0  0  0  0  0  0  0  0  0
  140.0010   73.6340  222.5680 N   0  0  0  0  0  0  0  0  0  0  0  0
  141.5090   78.0340  221.3750 C   0  0  0  0  0  0  0  0  0  0  0  0
  141.6843   82.2447  224.6512 H   0  0  0  0  0  0  0  0  0  0  0  0
  143.7867   81.3781  223.5854 H   0  0  0  0  0  0  0  0  0  0  0  0
  143.5915   79.4251  222.0830 H   0  0  0  0  0  0  0  0  0  0  0  0
  139.4974   81.1625  224.2046 H   0  0  0  0  0  0  0  0  0  0  0  0
  138.2845   79.2557  223.2892 H   0  0  0  0  0  0  0  0  0  0  0  0
  138.6814   79.2404  221.5769 H   0  0  0  0  0  0  0  0  0  0  0  0
  139.9453   77.3132  223.6519 H   0  0  0  0  0  0  0  0  0  0  0  0
  138.5128   76.8830  222.6665 H   0  0  0  0  0  0  0  0  0  0  0  0
  139.7616   77.1954  220.6167 H   0  0  0  0  0  0  0  0  0  0  0  0
  141.7860   75.6110  222.0610 H   0  0  0  0  0  0  0  0  0  0  0  0
  137.7720   72.8730  218.5290 H   0  0  0  0  0  0  0  0  0  0  0  0
  135.4864   73.6870  218.5777 H   0  0  0  0  0  0  0  0  0  0  0  0
  135.4108   72.7509  220.0887 H   0  0  0  0  0  0  0  0  0  0  0  0
  136.7766   75.4217  220.1195 H   0  0  0  0  0  0  0  0  0  0  0  0
  134.9552   75.3451  220.0286 H   0  0  0  0  0  0  0  0  0  0  0  0
  135.6647   73.5318  221.9396 H   0  0  0  0  0  0  0  0  0  0  0  0
  134.5251   76.3471  222.0850 H   0  0  0  0  0  0  0  0  0  0  0  0
  133.6708   74.8534  222.3302 H   0  0  0  0  0  0  0  0  0  0  0  0
  134.6120   76.1474  224.5088 H   0  0  0  0  0  0  0  0  0  0  0  0
  134.8938   74.4326  224.4977 H   0  0  0  0  0  0  0  0  0  0  0  0
  136.7680   76.7245  223.8071 H   0  0  0  0  0  0  0  0  0  0  0  0
  137.1723   75.1644  224.5672 H   0  0  0  0  0  0  0  0  0  0  0  0
  137.7700   74.4630  222.5090 H   0  0  0  0  0  0  0  0  0  0  0  0
  137.4239   71.1454  224.2502 H   0  0  0  0  0  0  0  0  0  0  0  0
  137.8514   70.3117  222.6989 H   0  0  0  0  0  0  0  0  0  0  0  0
  137.7252   68.8222  224.7368 H   0  0  0  0  0  0  0  0  0  0  0  0
  139.2808   68.7819  223.8099 H   0  0  0  0  0  0  0  0  0  0  0  0
  138.4368   68.2932  226.9622 H   0  0  0  0  0  0  0  0  0  0  0  0
  139.7483   68.9411  228.9734 H   0  0  0  0  0  0  0  0  0  0  0  0
  141.4433   70.7687  228.8235 H   0  0  0  0  0  0  0  0  0  0  0  0
  141.7759   71.8936  226.6434 H   0  0  0  0  0  0  0  0  0  0  0  0
  140.8970   72.4331  224.4931 H   0  0  0  0  0  0  0  0  0  0  0  0
  141.2279   70.8026  223.7270 H   0  0  0  0  0  0  0  0  0  0  0  0
  142.4318   77.4632  221.5559 H   0  0  0  0  0  0  0  0  0  0  0  0
  141.4588   78.4304  220.3501 H   0  0  0  0  0  0  0  0  0  0  0  0
  1  2  2  0
  2  3  1  0
  3  4  2  0
  4  5  1  0
  5  6  2  0
  5  7  1  0
  7  8  1  0
  8  9  1  0
  9 10  1  0
 10 11  1  0
 11 12  2  0
 12 13  1  0
 13 14  1  0
 14 15  1  0
 15 16  1  0
 16 17  1  0
 17 18  1  0
 18 19  1  0
 19 20  1  0
 20 21  1  0
 13 22  2  0
 22 23  1  0
 23 24  1  0
 24 25  1  0
 25 26  1  0
 26 27  1  0
 27 28  2  0
 28 29  1  0
 29 30  2  0
 30 31  1  0
 31 32  2  0
 32 33  1  0
 23 34  2  0
  9 35  1  0
  6  1  1  0
 34 11  1  0
 35  4  1  0
 21 17  1  0
 33 24  1  0
 32 27  1  0
  1 36  1  0
  2 37  1  0
  3 38  1  0
  6 39  1  0
  7 40  1  0
  7 41  1  0
  8 42  1  0
  8 43  1  0
  9 44  1  6
 10 45  1  0
 14 46  1  0
 15 47  1  0
 15 48  1  0
 16 49  1  0
 16 50  1  0
 17 51  1  6
 18 52  1  0
 18 53  1  0
 19 54  1  0
 19 55  1  0
 20 56  1  0
 20 57  1  0
 21 58  1  0
 25 59  1  0
 25 60  1  0
 26 61  1  0
 26 62  1  0
 28 63  1  0
 29 64  1  0
 30 65  1  0
 31 66  1  0
 33 67  1  0
 33 68  1  0
 35 69  1  0
 35 70  1  0
M  END
>  <smiles>  (29) 
c1ccc2c(c1)CCC(Nc1nc(NCCC3CCCN3)nc(N3CCc4ccccc4C3)n1)C2

>  <score_type>  (29) 
oracle

>  <origin>  (29) 
autodockgpu

>  <m_score__min__energy>  (29) 
-9.8699999999999992

>  <m_primary>  (29) 
energy

>  <rmsd>  (29) 
4.184476658482134

>  <m_score__min__rmsd>  (29) 
4.184476658482134

>  <meeko>  (29) 
{"free_energy": -9.07, "intermolecular_energy": -11.15, "internal_energy": -2.87, "cluster_size": 17, "cluster_id": 2, "rank_in_cluster": 14}

>  <energy>  (29) 
-8.73

>  <cluster_rmsd>  (29) 
1.82

>  <cluster>  (29) 
3

$$$$

     RDKit          3D

 70 75  0  0  1  0  0  0  0  0999 V2000
  141.7610   81.0640  223.8280 C   0  0  0  0  0  0  0  0  0  0  0  0
  142.9750   80.5650  223.3630 C   0  0  0  0  0  0  0  0  0  0  0  0
  142.9030   79.4730  222.5300 C   0  0  0  0  0  0  0  0  0  0  0  0
  141.7250   78.8710  222.1490 C   0  0  0  0  0  0  0  0  0  0  0  0
  140.5510   79.3980  222.6330 C   0  0  0  0  0  0  0  0  0  0  0  0
  140.5510   80.4880  223.4690 C   0  0  0  0  0  0  0  0  0  0  0  0
  139.2900   78.7140  222.1960 C   0  0  0  0  0  0  0  0  0  0  0  0
  139.5990   77.2170  222.3640 C   0  0  0  0  0  0  0  0  0  0  0  0
  140.6040   76.8090  221.3130 C   0  0  2  0  0  0  0  0  0  0  0  0
  141.0030   75.4320  221.5920 N   0  0  0  0  0  0  0  0  0  0  0  0
  140.0890   74.3710  221.6510 C   0  0  0  0  0  0  0  0  0  0  0  0
  139.0270   74.2240  220.8530 N   0  0  0  0  0  0  0  0  0  0  0  0
  138.1570   73.2000  220.9200 C   0  0  0  0  0  0  0  0  0  0  0  0
  137.0360   73.0940  220.0360 N   0  0  0  0  0  0  0  0  0  0  0  0
  135.7010   73.5370  220.4480 C   0  0  0  0  0  0  0  0  0  0  0  0
  135.3840   72.8410  221.7270 C   0  0  0  0  0  0  0  0  0  0  0  0
  135.7340   73.6510  222.9510 C   0  0  2  0  0  0  0  0  0  0  0  0
  134.6010   74.4600  223.4950 C   0  0  0  0  0  0  0  0  0  0  0  0
  135.3520   75.4890  224.3340 C   0  0  0  0  0  0  0  0  0  0  0  0
  136.5370   75.7820  223.4400 C   0  0  0  0  0  0  0  0  0  0  0  0
  136.7740   74.6160  222.6460 N   0  0  0  0  0  0  0  0  0  0  0  0
  138.3750   72.2450  221.8690 N   0  0  0  0  0  0  0  0  0  0  0  0
  139.4410   72.3490  222.7060 C   0  0  0  0  0  0  0  0  0  0  0  0
  139.6700   71.3500  223.6940 N   0  0  0  0  0  0  0  0  0  0  0  0
  138.8120   70.1880  223.7340 C   0  0  0  0  0  0  0  0  0  0  0  0
  139.4350   69.0620  224.5320 C   0  0  0  0  0  0  0  0  0  0  0  0
  139.9240   69.5360  225.8490 C   0  0  0  0  0  0  0  0  0  0  0  0
  139.7570   68.8200  227.0130 C   0  0  0  0  0  0  0  0  0  0  0  0
  140.2360   69.3080  228.2290 C   0  0  0  0  0  0  0  0  0  0  0  0
  140.8870   70.5230  228.2820 C   0  0  0  0  0  0  0  0  0  0  0  0
  141.0400   71.2170  227.1000 C   0  0  0  0  0  0  0  0  0  0  0  0
  140.5730   70.7500  225.8890 C   0  0  0  0  0  0  0  0  0  0  0  0
  140.7480   71.5110  224.6350 C   0  0  0  0  0  0  0  0  0  0  0  0
  140.2670   73.3930  222.5850 N   0  0  0  0  0  0  0  0  0  0  0  0
  141.8090   77.7040  221.2460 C   0  0  0  0  0  0  0  0  0  0  0  0
  141.7614   81.9372  224.4970 H   0  0  0  0  0  0  0  0  0  0  0  0
  143.9366   81.0183  223.6457 H   0  0  0  0  0  0  0  0  0  0  0  0
  143.8446   79.0549  222.1445 H   0  0  0  0  0  0  0  0  0  0  0  0
  139.6039   80.8988  223.8489 H   0  0  0  0  0  0  0  0  0  0  0  0
  138.4434   79.0119  222.8320 H   0  0  0  0  0  0  0  0  0  0  0  0
  139.0036   78.9734  221.1661 H   0  0  0  0  0  0  0  0  0  0  0  0
  140.0163   77.0353  223.3654 H   0  0  0  0  0  0  0  0  0  0  0  0
  138.6767   76.6287  222.2489 H   0  0  0  0  0  0  0  0  0  0  0  0
  140.1244   76.8991  220.3272 H   0  0  0  0  0  0  0  0  0  0  0  0
  142.0190   75.2540  221.7510 H   0  0  0  0  0  0  0  0  0  0  0  0
  137.2290   72.6910  219.1010 H   0  0  0  0  0  0  0  0  0  0  0  0
  135.6950   74.6265  220.5997 H   0  0  0  0  0  0  0  0  0  0  0  0
  134.9539   73.2985  219.6767 H   0  0  0  0  0  0  0  0  0  0  0  0
  134.3058   72.6244  221.7485 H   0  0  0  0  0  0  0  0  0  0  0  0
  135.9920   71.9249  221.7583 H   0  0  0  0  0  0  0  0  0  0  0  0
  136.0416   72.8975  223.6910 H   0  0  0  0  0  0  0  0  0  0  0  0
  134.0241   74.9389  222.6902 H   0  0  0  0  0  0  0  0  0  0  0  0
  133.8558   73.8761  224.0551 H   0  0  0  0  0  0  0  0  0  0  0  0
  134.7446   76.3895  224.5075 H   0  0  0  0  0  0  0  0  0  0  0  0
  135.6202   75.1424  225.3429 H   0  0  0  0  0  0  0  0  0  0  0  0
  136.3138   76.6405  222.7896 H   0  0  0  0  0  0  0  0  0  0  0  0
  137.4246   76.0290  224.0410 H   0  0  0  0  0  0  0  0  0  0  0  0
  137.7340   74.2360  222.7080 H   0  0  0  0  0  0  0  0  0  0  0  0
  137.8545   70.4671  224.1980 H   0  0  0  0  0  0  0  0  0  0  0  0
  138.6611   69.8362  222.7027 H   0  0  0  0  0  0  0  0  0  0  0  0
  138.6809   68.2773  224.6919 H   0  0  0  0  0  0  0  0  0  0  0  0
  140.2929   68.6707  223.9655 H   0  0  0  0  0  0  0  0  0  0  0  0
  139.2389   67.8501  226.9838 H   0  0  0  0  0  0  0  0  0  0  0  0
  140.0940   68.7218  229.1489 H   0  0  0  0  0  0  0  0  0  0  0  0
  141.2700   70.9237  229.2321 H   0  0  0  0  0  0  0  0  0  0  0  0
  141.5580   72.1871  227.1241 H   0  0  0  0  0  0  0  0  0  0  0  0
  140.8296   72.5785  224.8873 H   0  0  0  0  0  0  0  0  0  0  0  0
  141.6538   71.1185  224.1497 H   0  0  0  0  0  0  0  0  0  0  0  0
  142.6966   77.1147  221.5197 H   0  0  0  0  0  0  0  0  0  0  0  0
  141.8680   78.0924  220.2185 H   0  0  0  0  0  0  0  0  0  0  0  0
  1  2  2  0
  2  3  1  0
  3  4  2  0
  4  5  1  0
  5  6  2  0
  5  7  1  0
  7  8  1  0
  8  9  1  0
  9 10  1  0
 10 11  1  0
 11 12  2  0
 12 13  1  0
 13 14  1  0
 14 15  1  0
 15 16  1  0
 16 17  1  0
 17 18  1  0
 18 19  1  0
 19 20  1  0
 20 21  1  0
 13 22  2  0
 22 23  1  0
 23 24  1  0
 24 25  1  0
 25 26  1  0
 26 27  1  0
 27 28  2  0
 28 29  1  0
 29 30  2  0
 30 31  1  0
 31 32  2  0
 32 33  1  0
 23 34  2  0
  9 35  1  0
  6  1  1  0
 34 11  1  0
 35  4  1  0
 21 17  1  0
 33 24  1  0
 32 27  1  0
  1 36  1  0
  2 37  1  0
  3 38  1  0
  6 39  1  0
  7 40  1  0
  7 41  1  0
  8 42  1  0
  8 43  1  0
  9 44  1  6
 10 45  1  0
 14 46  1  0
 15 47  1  0
 15 48  1  0
 16 49  1  0
 16 50  1  0
 17 51  1  1
 18 52  1  0
 18 53  1  0
 19 54  1  0
 19 55  1  0
 20 56  1  0
 20 57  1  0
 21 58  1  0
 25 59  1  0
 25 60  1  0
 26 61  1  0
 26 62  1  0
 28 63  1  0
 29 64  1  0
 30 65  1  0
 31 66  1  0
 33 67  1  0
 33 68  1  0
 35 69  1  0
 35 70  1  0
M  END
>  <smiles>  (30) 
c1ccc2c(c1)CCC(Nc1nc(NCCC3CCCN3)nc(N3CCc4ccccc4C3)n1)C2

>  <score_type>  (30) 
oracle

>  <origin>  (30) 
autodockgpu

>  <m_score__min__energy>  (30) 
-9.8699999999999992

>  <m_primary>  (30) 
energy

>  <rmsd>  (30) 
4.335508363338656

>  <m_score__min__rmsd>  (30) 
4.335508363338656

>  <meeko>  (30) 
{"free_energy": -9.83, "intermolecular_energy": -11.92, "internal_energy": -2.37, "cluster_size": 17, "cluster_id": 2, "rank_in_cluster": 2}

>  <energy>  (30) 
-8.6

>  <cluster_rmsd>  (30) 
1.41

>  <cluster>  (30) 
3

$$$$

     RDKit          3D

 70 75  0  0  1  0  0  0  0  0999 V2000
  145.0970   74.3280  220.8400 C   0  0  0  0  0  0  0  0  0  0  0  0
  145.1520   72.9620  221.1090 C   0  0  0  0  0  0  0  0  0  0  0  0
  144.2750   72.1690  220.4080 C   0  0  0  0  0  0  0  0  0  0  0  0
  143.3740   72.6470  219.4840 C   0  0  0  0  0  0  0  0  0  0  0  0
  143.3540   74.0020  219.2500 C   0  0  0  0  0  0  0  0  0  0  0  0
  144.2040   74.8510  219.9160 C   0  0  0  0  0  0  0  0  0  0  0  0
  142.3580   74.4840  218.2380 C   0  0  0  0  0  0  0  0  0  0  0  0
  141.0640   73.7380  218.6020 C   0  0  0  0  0  0  0  0  0  0  0  0
  141.2340   72.2770  218.2620 C   0  0  2  0  0  0  0  0  0  0  0  0
  140.0620   71.5640  218.7630 N   0  0  0  0  0  0  0  0  0  0  0  0
  139.3900   71.9320  219.9370 C   0  0  0  0  0  0  0  0  0  0  0  0
  138.4160   72.8450  220.0130 N   0  0  0  0  0  0  0  0  0  0  0  0
  137.7800   73.1890  221.1470 C   0  0  0  0  0  0  0  0  0  0  0  0
  136.7410   74.1730  221.1680 N   0  0  0  0  0  0  0  0  0  0  0  0
  137.0530   75.6050  221.1290 C   0  0  0  0  0  0  0  0  0  0  0  0
  137.4320   76.0090  222.5120 C   0  0  0  0  0  0  0  0  0  0  0  0
  138.9240   76.0950  222.7210 C   0  0  2  0  0  0  0  0  0  0  0  0
  139.5970   77.1520  221.9060 C   0  0  0  0  0  0  0  0  0  0  0  0
  141.0430   76.6690  221.9370 C   0  0  0  0  0  0  0  0  0  0  0  0
  140.8530   75.1750  221.7960 C   0  0  0  0  0  0  0  0  0  0  0  0
  139.5680   74.8530  222.3330 N   0  0  0  0  0  0  0  0  0  0  0  0
  138.1540   72.5620  222.2990 N   0  0  0  0  0  0  0  0  0  0  0  0
  139.1410   71.6260  222.2740 C   0  0  0  0  0  0  0  0  0  0  0  0
  139.5280   70.9700  223.4760 N   0  0  0  0  0  0  0  0  0  0  0  0
  138.7910   69.8070  223.9150 C   0  0  0  0  0  0  0  0  0  0  0  0
  139.5720   69.0050  224.9350 C   0  0  0  0  0  0  0  0  0  0  0  0
  140.0970   69.8700  226.0190 C   0  0  0  0  0  0  0  0  0  0  0  0
  140.0770   69.5040  227.3460 C   0  0  0  0  0  0  0  0  0  0  0  0
  140.5850   70.3540  228.3300 C   0  0  0  0  0  0  0  0  0  0  0  0
  141.1180   71.5770  227.9850 C   0  0  0  0  0  0  0  0  0  0  0  0
  141.1250   71.9160  226.6460 C   0  0  0  0  0  0  0  0  0  0  0  0
  140.6270   71.0890  225.6610 C   0  0  0  0  0  0  0  0  0  0  0  0
  140.6450   71.4720  224.2340 C   0  0  0  0  0  0  0  0  0  0  0  0
  139.7320   71.3320  221.1130 N   0  0  0  0  0  0  0  0  0  0  0  0
  142.4950   71.6690  218.8090 C   0  0  0  0  0  0  0  0  0  0  0  0
  145.7779   75.0080  221.3730 H   0  0  0  0  0  0  0  0  0  0  0  0
  145.8574   72.5419  221.8410 H   0  0  0  0  0  0  0  0  0  0  0  0
  144.2945   71.0856  220.5972 H   0  0  0  0  0  0  0  0  0  0  0  0
  144.1769   75.9329  219.7190 H   0  0  0  0  0  0  0  0  0  0  0  0
  142.2169   75.5721  218.3164 H   0  0  0  0  0  0  0  0  0  0  0  0
  142.6798   74.2920  217.2038 H   0  0  0  0  0  0  0  0  0  0  0  0
  140.8647   73.8465  219.6783 H   0  0  0  0  0  0  0  0  0  0  0  0
  140.2185   74.1577  218.0372 H   0  0  0  0  0  0  0  0  0  0  0  0
  141.3232   72.1890  217.1692 H   0  0  0  0  0  0  0  0  0  0  0  0
  139.7270   70.7480  218.2050 H   0  0  0  0  0  0  0  0  0  0  0  0
  135.7710   73.8120  221.2110 H   0  0  0  0  0  0  0  0  0  0  0  0
  137.8896   75.7902  220.4392 H   0  0  0  0  0  0  0  0  0  0  0  0
  136.1876   76.1846  220.7753 H   0  0  0  0  0  0  0  0  0  0  0  0
  136.9928   76.9958  222.7202 H   0  0  0  0  0  0  0  0  0  0  0  0
  137.0517   75.2339  223.1936 H   0  0  0  0  0  0  0  0  0  0  0  0
  139.0308   76.3261  223.7911 H   0  0  0  0  0  0  0  0  0  0  0  0
  139.2033   77.1820  220.8793 H   0  0  0  0  0  0  0  0  0  0  0  0
  139.4531   78.1751  222.2836 H   0  0  0  0  0  0  0  0  0  0  0  0
  141.6248   77.0827  221.1002 H   0  0  0  0  0  0  0  0  0  0  0  0
  141.6024   76.9717  222.8345 H   0  0  0  0  0  0  0  0  0  0  0  0
  140.8991   74.8890  220.7348 H   0  0  0  0  0  0  0  0  0  0  0  0
  141.6445   74.6313  222.3325 H   0  0  0  0  0  0  0  0  0  0  0  0
  139.5750   74.1320  223.0750 H   0  0  0  0  0  0  0  0  0  0  0  0
  137.8436   70.1346  224.3678 H   0  0  0  0  0  0  0  0  0  0  0  0
  138.6070   69.1657  223.0404 H   0  0  0  0  0  0  0  0  0  0  0  0
  138.9104   68.2436  225.3738 H   0  0  0  0  0  0  0  0  0  0  0  0
  140.4253   68.5345  224.4246 H   0  0  0  0  0  0  0  0  0  0  0  0
  139.6555   68.5298  227.6345 H   0  0  0  0  0  0  0  0  0  0  0  0
  140.5597   70.0460  229.3857 H   0  0  0  0  0  0  0  0  0  0  0  0
  141.5230   72.2582  228.7478 H   0  0  0  0  0  0  0  0  0  0  0  0
  141.5464   72.8887  226.3522 H   0  0  0  0  0  0  0  0  0  0  0  0
  140.6395   72.5702  224.1710 H   0  0  0  0  0  0  0  0  0  0  0  0
  141.5507   71.0258  223.7973 H   0  0  0  0  0  0  0  0  0  0  0  0
  142.2198   70.8890  219.5342 H   0  0  0  0  0  0  0  0  0  0  0  0
  143.0568   71.2633  217.9547 H   0  0  0  0  0  0  0  0  0  0  0  0
  1  2  2  0
  2  3  1  0
  3  4  2  0
  4  5  1  0
  5  6  2  0
  5  7  1  0
  7  8  1  0
  8  9  1  0
  9 10  1  0
 10 11  1  0
 11 12  2  0
 12 13  1  0
 13 14  1  0
 14 15  1  0
 15 16  1  0
 16 17  1  0
 17 18  1  0
 18 19  1  0
 19 20  1  0
 20 21  1  0
 13 22  2  0
 22 23  1  0
 23 24  1  0
 24 25  1  0
 25 26  1  0
 26 27  1  0
 27 28  2  0
 28 29  1  0
 29 30  2  0
 30 31  1  0
 31 32  2  0
 32 33  1  0
 23 34  2  0
  9 35  1  0
  6  1  1  0
 34 11  1  0
 35  4  1  0
 21 17  1  0
 33 24  1  0
 32 27  1  0
  1 36  1  0
  2 37  1  0
  3 38  1  0
  6 39  1  0
  7 40  1  0
  7 41  1  0
  8 42  1  0
  8 43  1  0
  9 44  1  6
 10 45  1  0
 14 46  1  0
 15 47  1  0
 15 48  1  0
 16 49  1  0
 16 50  1  0
 17 51  1  1
 18 52  1  0
 18 53  1  0
 19 54  1  0
 19 55  1  0
 20 56  1  0
 20 57  1  0
 21 58  1  0
 25 59  1  0
 25 60  1  0
 26 61  1  0
 26 62  1  0
 28 63  1  0
 29 64  1  0
 30 65  1  0
 31 66  1  0
 33 67  1  0
 33 68  1  0
 35 69  1  0
 35 70  1  0
M  END
>  <smiles>  (31) 
c1ccc2c(c1)CCC(Nc1nc(NCCC3CCCN3)nc(N3CCc4ccccc4C3)n1)C2

>  <score_type>  (31) 
oracle

>  <origin>  (31) 
autodockgpu

>  <m_score__min__energy>  (31) 
-9.8699999999999992

>  <m_primary>  (31) 
energy

>  <rmsd>  (31) 
9.077186251393798

>  <m_score__min__rmsd>  (31) 
9.077186251393798

>  <meeko>  (31) 
{"free_energy": -8.24, "intermolecular_energy": -10.32, "internal_energy": -2.69, "cluster_size": 2, "cluster_id": 12, "rank_in_cluster": 2}

>  <energy>  (31) 
-8.56

>  <cluster_rmsd>  (31) 
1.35

>  <cluster>  (31) 
3

$$$$

     RDKit          3D

 70 75  0  0  1  0  0  0  0  0999 V2000
  141.8560   80.0470  223.7130 C   0  0  0  0  0  0  0  0  0  0  0  0
  142.5270   79.3890  222.6850 C   0  0  0  0  0  0  0  0  0  0  0  0
  141.7470   78.6530  221.8250 C   0  0  0  0  0  0  0  0  0  0  0  0
  140.3800   78.5390  221.9320 C   0  0  0  0  0  0  0  0  0  0  0  0
  139.7590   79.2050  222.9630 C   0  0  0  0  0  0  0  0  0  0  0  0
  140.4790   79.9590  223.8570 C   0  0  0  0  0  0  0  0  0  0  0  0
  138.2700   79.0550  223.0460 C   0  0  0  0  0  0  0  0  0  0  0  0
  138.0330   77.5500  222.8370 C   0  0  0  0  0  0  0  0  0  0  0  0
  138.3430   77.2050  221.4010 C   0  0  2  0  0  0  0  0  0  0  0  0
  138.2680   75.7530  221.2670 N   0  0  0  0  0  0  0  0  0  0  0  0
  139.3630   74.9090  221.4970 C   0  0  0  0  0  0  0  0  0  0  0  0
  140.5820   75.0670  220.9700 N   0  0  0  0  0  0  0  0  0  0  0  0
  141.6250   74.2500  221.1990 C   0  0  0  0  0  0  0  0  0  0  0  0
  142.9090   74.4700  220.6070 N   0  0  0  0  0  0  0  0  0  0  0  0
  143.3790   73.6490  219.4870 C   0  0  0  0  0  0  0  0  0  0  0  0
  143.8380   74.5830  218.4210 C   0  0  0  0  0  0  0  0  0  0  0  0
  142.8620   75.7020  218.1460 C   0  0  2  0  0  0  0  0  0  0  0  0
  143.2400   76.5750  216.9930 C   0  0  0  0  0  0  0  0  0  0  0  0
  142.4090   77.8200  217.2840 C   0  0  0  0  0  0  0  0  0  0  0  0
  142.5540   77.9190  218.7860 C   0  0  0  0  0  0  0  0  0  0  0  0
  142.7770   76.5980  219.2850 N   0  0  0  0  0  0  0  0  0  0  0  0
  141.4250   73.1850  222.0280 N   0  0  0  0  0  0  0  0  0  0  0  0
  140.2040   72.9800  222.5900 C   0  0  0  0  0  0  0  0  0  0  0  0
  139.9980   71.8710  223.4570 N   0  0  0  0  0  0  0  0  0  0  0  0
  138.7610   71.1290  223.3720 C   0  0  0  0  0  0  0  0  0  0  0  0
  138.8790   69.7720  224.0340 C   0  0  0  0  0  0  0  0  0  0  0  0
  139.4610   69.8800  225.3930 C   0  0  0  0  0  0  0  0  0  0  0  0
  138.9900   69.1630  226.4690 C   0  0  0  0  0  0  0  0  0  0  0  0
  139.5730   69.2980  227.7310 C   0  0  0  0  0  0  0  0  0  0  0  0
  140.6350   70.1580  227.9160 C   0  0  0  0  0  0  0  0  0  0  0  0
  141.0850   70.8630  226.8180 C   0  0  0  0  0  0  0  0  0  0  0  0
  140.5210   70.7410  225.5660 C   0  0  0  0  0  0  0  0  0  0  0  0
  141.0200   71.5070  224.4040 C   0  0  0  0  0  0  0  0  0  0  0  0
  139.2100   73.8310  222.3200 N   0  0  0  0  0  0  0  0  0  0  0  0
  139.6770   77.7110  220.9290 C   0  0  0  0  0  0  0  0  0  0  0  0
  142.4324   80.6516  224.4287 H   0  0  0  0  0  0  0  0  0  0  0  0
  143.6188   79.4545  222.5680 H   0  0  0  0  0  0  0  0  0  0  0  0
  142.2463   78.1227  221.0007 H   0  0  0  0  0  0  0  0  0  0  0  0
  139.9701   80.4866  224.6771 H   0  0  0  0  0  0  0  0  0  0  0  0
  137.8994   79.3757  224.0308 H   0  0  0  0  0  0  0  0  0  0  0  0
  137.7413   79.6728  222.3052 H   0  0  0  0  0  0  0  0  0  0  0  0
  138.6908   76.9755  223.5058 H   0  0  0  0  0  0  0  0  0  0  0  0
  136.9859   77.3009  223.0641 H   0  0  0  0  0  0  0  0  0  0  0  0
  137.6032   77.7082  220.7611 H   0  0  0  0  0  0  0  0  0  0  0  0
  137.3480   75.3470  220.9860 H   0  0  0  0  0  0  0  0  0  0  0  0
  143.4750   75.2370  221.0150 H   0  0  0  0  0  0  0  0  0  0  0  0
  144.2124   73.0089  219.8122 H   0  0  0  0  0  0  0  0  0  0  0  0
  142.5751   72.9963  219.1159 H   0  0  0  0  0  0  0  0  0  0  0  0
  144.7963   75.0243  218.7324 H   0  0  0  0  0  0  0  0  0  0  0  0
  143.9325   73.9982  217.4942 H   0  0  0  0  0  0  0  0  0  0  0  0
  141.9166   75.1844  217.9263 H   0  0  0  0  0  0  0  0  0  0  0  0
  144.3169   76.7994  216.9926 H   0  0  0  0  0  0  0  0  0  0  0  0
  143.0541   76.1270  216.0057 H   0  0  0  0  0  0  0  0  0  0  0  0
  142.8196   78.7069  216.7792 H   0  0  0  0  0  0  0  0  0  0  0  0
  141.3685   77.7633  216.9316 H   0  0  0  0  0  0  0  0  0  0  0  0
  143.4077   78.5649  219.0390 H   0  0  0  0  0  0  0  0  0  0  0  0
  141.6488   78.3545  219.2344 H   0  0  0  0  0  0  0  0  0  0  0  0
  142.1120   76.2910  220.0150 H   0  0  0  0  0  0  0  0  0  0  0  0
  137.9658   71.7020  223.8714 H   0  0  0  0  0  0  0  0  0  0  0  0
  138.5247   70.9741  222.3089 H   0  0  0  0  0  0  0  0  0  0  0  0
  137.8779   69.3222  224.1085 H   0  0  0  0  0  0  0  0  0  0  0  0
  139.5447   69.1458  223.4219 H   0  0  0  0  0  0  0  0  0  0  0  0
  138.1430   68.4743  226.3334 H   0  0  0  0  0  0  0  0  0  0  0  0
  139.1839   68.7166  228.5799 H   0  0  0  0  0  0  0  0  0  0  0  0
  141.1063   70.2778  228.9027 H   0  0  0  0  0  0  0  0  0  0  0  0
  141.9317   71.5532  226.9478 H   0  0  0  0  0  0  0  0  0  0  0  0
  141.4916   72.4290  224.7748 H   0  0  0  0  0  0  0  0  0  0  0  0
  141.7265   70.8526  223.8724 H   0  0  0  0  0  0  0  0  0  0  0  0
  140.3113   76.8461  220.6847 H   0  0  0  0  0  0  0  0  0  0  0  0
  139.4902   78.3506  220.0537 H   0  0  0  0  0  0  0  0  0  0  0  0
  1  2  2  0
  2  3  1  0
  3  4  2  0
  4  5  1  0
  5  6  2  0
  5  7  1  0
  7  8  1  0
  8  9  1  0
  9 10  1  0
 10 11  1  0
 11 12  2  0
 12 13  1  0
 13 14  1  0
 14 15  1  0
 15 16  1  0
 16 17  1  0
 17 18  1  0
 18 19  1  0
 19 20  1  0
 20 21  1  0
 13 22  2  0
 22 23  1  0
 23 24  1  0
 24 25  1  0
 25 26  1  0
 26 27  1  0
 27 28  2  0
 28 29  1  0
 29 30  2  0
 30 31  1  0
 31 32  2  0
 32 33  1  0
 23 34  2  0
  9 35  1  0
  6  1  1  0
 34 11  1  0
 35  4  1  0
 21 17  1  0
 33 24  1  0
 32 27  1  0
  1 36  1  0
  2 37  1  0
  3 38  1  0
  6 39  1  0
  7 40  1  0
  7 41  1  0
  8 42  1  0
  8 43  1  0
  9 44  1  6
 10 45  1  0
 14 46  1  0
 15 47  1  0
 15 48  1  0
 16 49  1  0
 16 50  1  0
 17 51  1  6
 18 52  1  0
 18 53  1  0
 19 54  1  0
 19 55  1  0
 20 56  1  0
 20 57  1  0
 21 58  1  0
 25 59  1  0
 25 60  1  0
 26 61  1  0
 26 62  1  0
 28 63  1  0
 29 64  1  0
 30 65  1  0
 31 66  1  0
 33 67  1  0
 33 68  1  0
 35 69  1  0
 35 70  1  0
M  END
>  <smiles>  (32) 
c1ccc2c(c1)CCC(Nc1nc(NCCC3CCCN3)nc(N3CCc4ccccc4C3)n1)C2

>  <score_type>  (32) 
oracle

>  <origin>  (32) 
autodockgpu

>  <m_score__min__energy>  (32) 
-9.8699999999999992

>  <m_primary>  (32) 
energy

>  <rmsd>  (32) 
4.7844366910412095

>  <m_score__min__rmsd>  (32) 
4.7844366910412095

>  <meeko>  (32) 
{"free_energy": -8.76, "intermolecular_energy": -10.85, "internal_energy": -2.44, "cluster_size": 3, "cluster_id": 5, "rank_in_cluster": 2}

>  <energy>  (32) 
-8.5

>  <cluster_rmsd>  (32) 
1.67

>  <cluster>  (32) 
3

$$$$

     RDKit          3D

 70 75  0  0  1  0  0  0  0  0999 V2000
  142.5580   80.5230  218.6730 C   0  0  0  0  0  0  0  0  0  0  0  0
  142.6970   79.3840  217.8830 C   0  0  0  0  0  0  0  0  0  0  0  0
  142.0900   78.2430  218.3530 C   0  0  0  0  0  0  0  0  0  0  0  0
  141.3780   78.1780  219.5280 C   0  0  0  0  0  0  0  0  0  0  0  0
  141.2670   79.3270  220.2750 C   0  0  0  0  0  0  0  0  0  0  0  0
  141.8480   80.5010  219.8640 C   0  0  0  0  0  0  0  0  0  0  0  0
  140.4840   79.2150  221.5490 C   0  0  0  0  0  0  0  0  0  0  0  0
  140.9970   77.9160  222.1910 C   0  0  0  0  0  0  0  0  0  0  0  0
  140.5090   76.7440  221.3730 C   0  0  2  0  0  0  0  0  0  0  0  0
  141.1400   75.5380  221.9040 N   0  0  0  0  0  0  0  0  0  0  0  0
  140.6760   74.2470  221.6190 C   0  0  0  0  0  0  0  0  0  0  0  0
  140.2990   73.8130  220.4110 N   0  0  0  0  0  0  0  0  0  0  0  0
  139.8550   72.5700  220.1510 C   0  0  0  0  0  0  0  0  0  0  0  0
  139.4670   72.1610  218.8360 N   0  0  0  0  0  0  0  0  0  0  0  0
  140.4130   72.2070  217.7170 C   0  0  0  0  0  0  0  0  0  0  0  0
  141.6940   71.6220  218.2020 C   0  0  0  0  0  0  0  0  0  0  0  0
  142.5380   72.5980  218.9860 C   0  0  2  0  0  0  0  0  0  0  0  0
  143.9420   72.7300  218.4890 C   0  0  0  0  0  0  0  0  0  0  0  0
  144.6300   73.3310  219.7100 C   0  0  0  0  0  0  0  0  0  0  0  0
  143.9630   72.5580  220.8270 C   0  0  0  0  0  0  0  0  0  0  0  0
  142.6660   72.1710  220.3670 N   0  0  0  0  0  0  0  0  0  0  0  0
  139.7850   71.6920  221.1920 N   0  0  0  0  0  0  0  0  0  0  0  0
  140.1570   72.0850  222.4400 C   0  0  0  0  0  0  0  0  0  0  0  0
  140.0870   71.1660  223.5240 N   0  0  0  0  0  0  0  0  0  0  0  0
  139.1080   70.1040  223.4880 C   0  0  0  0  0  0  0  0  0  0  0  0
  139.4440   69.0020  224.4720 C   0  0  0  0  0  0  0  0  0  0  0  0
  139.7380   69.5480  225.8180 C   0  0  0  0  0  0  0  0  0  0  0  0
  139.2830   68.9650  226.9790 C   0  0  0  0  0  0  0  0  0  0  0  0
  139.5880   69.5160  228.2250 C   0  0  0  0  0  0  0  0  0  0  0  0
  140.3540   70.6600  228.3090 C   0  0  0  0  0  0  0  0  0  0  0  0
  140.7960   71.2210  227.1290 C   0  0  0  0  0  0  0  0  0  0  0  0
  140.5040   70.6890  225.8900 C   0  0  0  0  0  0  0  0  0  0  0  0
  140.9890   71.3080  224.6380 C   0  0  0  0  0  0  0  0  0  0  0  0
  140.5890   73.3350  222.6290 N   0  0  0  0  0  0  0  0  0  0  0  0
  140.7800   76.8780  219.9000 C   0  0  0  0  0  0  0  0  0  0  0  0
  143.0233   81.4638  218.3437 H   0  0  0  0  0  0  0  0  0  0  0  0
  143.2597   79.3966  216.9379 H   0  0  0  0  0  0  0  0  0  0  0  0
  142.1794   77.3259  217.7522 H   0  0  0  0  0  0  0  0  0  0  0  0
  141.7516   81.4128  220.4718 H   0  0  0  0  0  0  0  0  0  0  0  0
  140.6780   80.0773  222.2037 H   0  0  0  0  0  0  0  0  0  0  0  0
  139.3976   79.2007  221.3771 H   0  0  0  0  0  0  0  0  0  0  0  0
  142.0968   77.9218  222.2094 H   0  0  0  0  0  0  0  0  0  0  0  0
  140.6219   77.8347  223.2219 H   0  0  0  0  0  0  0  0  0  0  0  0
  139.4135   76.6975  221.4603 H   0  0  0  0  0  0  0  0  0  0  0  0
  141.9710   75.6690  222.5210 H   0  0  0  0  0  0  0  0  0  0  0  0
  138.4890   71.8340  218.7300 H   0  0  0  0  0  0  0  0  0  0  0  0
  140.0261   71.6194  216.8714 H   0  0  0  0  0  0  0  0  0  0  0  0
  140.5608   73.2408  217.3715 H   0  0  0  0  0  0  0  0  0  0  0  0
  141.4626   70.7628  218.8486 H   0  0  0  0  0  0  0  0  0  0  0  0
  142.2746   71.3290  217.3148 H   0  0  0  0  0  0  0  0  0  0  0  0
  142.0112   73.5571  218.8735 H   0  0  0  0  0  0  0  0  0  0  0  0
  144.3704   71.7518  218.2251 H   0  0  0  0  0  0  0  0  0  0  0  0
  144.0431   73.3290  217.5720 H   0  0  0  0  0  0  0  0  0  0  0  0
  145.7157   73.1552  219.6893 H   0  0  0  0  0  0  0  0  0  0  0  0
  144.5325   74.4235  219.7935 H   0  0  0  0  0  0  0  0  0  0  0  0
  144.5565   71.6649  221.0721 H   0  0  0  0  0  0  0  0  0  0  0  0
  143.8840   73.1769  221.7329 H   0  0  0  0  0  0  0  0  0  0  0  0
  141.8830   72.4670  220.9740 H   0  0  0  0  0  0  0  0  0  0  0  0
  138.1213   70.5194  223.7406 H   0  0  0  0  0  0  0  0  0  0  0  0
  139.1054   69.6726  222.4761 H   0  0  0  0  0  0  0  0  0  0  0  0
  138.5887   68.3140  224.5442 H   0  0  0  0  0  0  0  0  0  0  0  0
  140.3395   68.4761  224.1093 H   0  0  0  0  0  0  0  0  0  0  0  0
  138.6709   68.0527  226.9243 H   0  0  0  0  0  0  0  0  0  0  0  0
  139.2163   69.0364  229.1425 H   0  0  0  0  0  0  0  0  0  0  0  0
  140.6034   71.1087  229.2819 H   0  0  0  0  0  0  0  0  0  0  0  0
  141.4087   72.1333  227.1780 H   0  0  0  0  0  0  0  0  0  0  0  0
  141.1454   72.3813  224.8213 H   0  0  0  0  0  0  0  0  0  0  0  0
  141.9167   70.7843  224.3638 H   0  0  0  0  0  0  0  0  0  0  0  0
  141.4714   76.0773  219.5986 H   0  0  0  0  0  0  0  0  0  0  0  0
  139.8110   76.8073  219.3842 H   0  0  0  0  0  0  0  0  0  0  0  0
  1  2  2  0
  2  3  1  0
  3  4  2  0
  4  5  1  0
  5  6  2  0
  5  7  1  0
  7  8  1  0
  8  9  1  0
  9 10  1  0
 10 11  1  0
 11 12  2  0
 12 13  1  0
 13 14  1  0
 14 15  1  0
 15 16  1  0
 16 17  1  0
 17 18  1  0
 18 19  1  0
 19 20  1  0
 20 21  1  0
 13 22  2  0
 22 23  1  0
 23 24  1  0
 24 25  1  0
 25 26  1  0
 26 27  1  0
 27 28  2  0
 28 29  1  0
 29 30  2  0
 30 31  1  0
 31 32  2  0
 32 33  1  0
 23 34  2  0
  9 35  1  0
  6  1  1  0
 34 11  1  0
 35  4  1  0
 21 17  1  0
 33 24  1  0
 32 27  1  0
  1 36  1  0
  2 37  1  0
  3 38  1  0
  6 39  1  0
  7 40  1  0
  7 41  1  0
  8 42  1  0
  8 43  1  0
  9 44  1  6
 10 45  1  0
 14 46  1  0
 15 47  1  0
 15 48  1  0
 16 49  1  0
 16 50  1  0
 17 51  1  1
 18 52  1  0
 18 53  1  0
 19 54  1  0
 19 55  1  0
 20 56  1  0
 20 57  1  0
 21 58  1  0
 25 59  1  0
 25 60  1  0
 26 61  1  0
 26 62  1  0
 28 63  1  0
 29 64  1  0
 30 65  1  0
 31 66  1  0
 33 67  1  0
 33 68  1  0
 35 69  1  0
 35 70  1  0
M  END
>  <smiles>  (33) 
c1ccc2c(c1)CCC(Nc1nc(NCCC3CCCN3)nc(N3CCc4ccccc4C3)n1)C2

>  <score_type>  (33) 
oracle

>  <origin>  (33) 
autodockgpu

>  <m_score__min__energy>  (33) 
-9.8699999999999992

>  <m_primary>  (33) 
energy

>  <rmsd>  (33) 
3.999769579257326

>  <m_score__min__rmsd>  (33) 
3.999769579257326

>  <meeko>  (33) 
{"free_energy": -8.02, "intermolecular_energy": -10.11, "internal_energy": -2.86, "cluster_size": 3, "cluster_id": 5, "rank_in_cluster": 3}

>  <energy>  (33) 
-8.4

>  <cluster_rmsd>  (33) 
1.56

>  <cluster>  (33) 
3

$$$$

     RDKit          3D

 70 75  0  0  1  0  0  0  0  0999 V2000
  141.8440   81.2510  224.0760 C   0  0  0  0  0  0  0  0  0  0  0  0
  143.0430   80.7780  223.5500 C   0  0  0  0  0  0  0  0  0  0  0  0
  142.9440   79.7450  222.6470 C   0  0  0  0  0  0  0  0  0  0  0  0
  141.7540   79.1770  222.2550 C   0  0  0  0  0  0  0  0  0  0  0  0
  140.5950   79.6760  222.8000 C   0  0  0  0  0  0  0  0  0  0  0  0
  140.6220   80.7070  223.7080 C   0  0  0  0  0  0  0  0  0  0  0  0
  139.3190   79.0300  222.3480 C   0  0  0  0  0  0  0  0  0  0  0  0
  139.6220   77.5240  222.4070 C   0  0  0  0  0  0  0  0  0  0  0  0
  140.5990   77.1820  221.3080 C   0  0  2  0  0  0  0  0  0  0  0  0
  140.9940   75.7870  221.4840 N   0  0  0  0  0  0  0  0  0  0  0  0
  140.0720   74.7330  221.5230 C   0  0  0  0  0  0  0  0  0  0  0  0
  138.9910   74.6250  220.7430 N   0  0  0  0  0  0  0  0  0  0  0  0
  138.1130   73.6080  220.7910 C   0  0  0  0  0  0  0  0  0  0  0  0
  136.9730   73.5450  219.9280 N   0  0  0  0  0  0  0  0  0  0  0  0
  135.6290   73.8590  220.4240 C   0  0  0  0  0  0  0  0  0  0  0  0
  135.4270   73.0710  221.6720 C   0  0  0  0  0  0  0  0  0  0  0  0
  135.7530   73.8440  222.9270 C   0  0  2  0  0  0  0  0  0  0  0  0
  134.6000   74.6080  223.4930 C   0  0  0  0  0  0  0  0  0  0  0  0
  135.3230   75.6230  224.3720 C   0  0  0  0  0  0  0  0  0  0  0  0
  136.5060   75.9730  223.4960 C   0  0  0  0  0  0  0  0  0  0  0  0
  136.7730   74.8430  222.6620 N   0  0  0  0  0  0  0  0  0  0  0  0
  138.3420   72.6160  221.6980 N   0  0  0  0  0  0  0  0  0  0  0  0
  139.4280   72.6780  222.5150 C   0  0  0  0  0  0  0  0  0  0  0  0
  139.6680   71.6410  223.4590 N   0  0  0  0  0  0  0  0  0  0  0  0
  138.8540   70.4470  223.4190 C   0  0  0  0  0  0  0  0  0  0  0  0
  139.4980   69.3070  224.1780 C   0  0  0  0  0  0  0  0  0  0  0  0
  139.9340   69.7320  225.5300 C   0  0  0  0  0  0  0  0  0  0  0  0
  139.7640   68.9540  226.6520 C   0  0  0  0  0  0  0  0  0  0  0  0
  140.1930   69.3980  227.9040 C   0  0  0  0  0  0  0  0  0  0  0  0
  140.7960   70.6310  228.0340 C   0  0  0  0  0  0  0  0  0  0  0  0
  140.9530   71.3890  226.8910 C   0  0  0  0  0  0  0  0  0  0  0  0
  140.5350   70.9650  225.6460 C   0  0  0  0  0  0  0  0  0  0  0  0
  140.7140   71.7940  224.4360 C   0  0  0  0  0  0  0  0  0  0  0  0
  140.2610   73.7180  222.4150 N   0  0  0  0  0  0  0  0  0  0  0  0
  141.8090   78.0740  221.2730 C   0  0  0  0  0  0  0  0  0  0  0  0
  141.8661   82.0772  224.8019 H   0  0  0  0  0  0  0  0  0  0  0  0
  144.0140   81.2058  223.8399 H   0  0  0  0  0  0  0  0  0  0  0  0
  143.8733   79.3489  222.2117 H   0  0  0  0  0  0  0  0  0  0  0  0
  139.6869   81.0959  224.1374 H   0  0  0  0  0  0  0  0  0  0  0  0
  138.4897   79.2885  223.0229 H   0  0  0  0  0  0  0  0  0  0  0  0
  139.0099   79.3602  221.3453 H   0  0  0  0  0  0  0  0  0  0  0  0
  140.0613   77.2731  223.3838 H   0  0  0  0  0  0  0  0  0  0  0  0
  138.6932   76.9499  222.2740 H   0  0  0  0  0  0  0  0  0  0  0  0
  140.0978   77.3406  220.3417 H   0  0  0  0  0  0  0  0  0  0  0  0
  142.0150   75.5910  221.5830 H   0  0  0  0  0  0  0  0  0  0  0  0
  137.1570   73.2690  218.9470 H   0  0  0  0  0  0  0  0  0  0  0  0
  135.5483   74.9346  220.6398 H   0  0  0  0  0  0  0  0  0  0  0  0
  134.8658   73.6057  219.6734 H   0  0  0  0  0  0  0  0  0  0  0  0
  134.3740   72.7566  221.7195 H   0  0  0  0  0  0  0  0  0  0  0  0
  136.1148   72.2136  221.6302 H   0  0  0  0  0  0  0  0  0  0  0  0
  136.0736   73.0713  223.6412 H   0  0  0  0  0  0  0  0  0  0  0  0
  134.0164   75.1022  222.7023 H   0  0  0  0  0  0  0  0  0  0  0  0
  133.8657   73.9881  224.0282 H   0  0  0  0  0  0  0  0  0  0  0  0
  134.6948   76.5033  224.5730 H   0  0  0  0  0  0  0  0  0  0  0  0
  135.5932   75.2474  225.3700 H   0  0  0  0  0  0  0  0  0  0  0  0
  136.2675   76.8495  222.8757 H   0  0  0  0  0  0  0  0  0  0  0  0
  137.3848   76.2164  224.1112 H   0  0  0  0  0  0  0  0  0  0  0  0
  137.7410   74.4820  222.7160 H   0  0  0  0  0  0  0  0  0  0  0  0
  137.8749   70.6674  223.8693 H   0  0  0  0  0  0  0  0  0  0  0  0
  138.7437   70.1413  222.3681 H   0  0  0  0  0  0  0  0  0  0  0  0
  138.7704   68.4881  224.2780 H   0  0  0  0  0  0  0  0  0  0  0  0
  140.3849   68.9766  223.6174 H   0  0  0  0  0  0  0  0  0  0  0  0
  139.2835   67.9687  226.5612 H   0  0  0  0  0  0  0  0  0  0  0  0
  140.0494   68.7619  228.7899 H   0  0  0  0  0  0  0  0  0  0  0  0
  141.1395   70.9973  229.0127 H   0  0  0  0  0  0  0  0  0  0  0  0
  141.4328   72.3752  226.9764 H   0  0  0  0  0  0  0  0  0  0  0  0
  140.7486   72.8498  224.7426 H   0  0  0  0  0  0  0  0  0  0  0  0
  141.6464   71.4599  223.9575 H   0  0  0  0  0  0  0  0  0  0  0  0
  142.6988   77.4629  221.4846 H   0  0  0  0  0  0  0  0  0  0  0  0
  141.8465   78.5311  220.2732 H   0  0  0  0  0  0  0  0  0  0  0  0
  1  2  2  0
  2  3  1  0
  3  4  2  0
  4  5  1  0
  5  6  2  0
  5  7  1  0
  7  8  1  0
  8  9  1  0
  9 10  1  0
 10 11  1  0
 11 12  2  0
 12 13  1  0
 13 14  1  0
 14 15  1  0
 15 16  1  0
 16 17  1  0
 17 18  1  0
 18 19  1  0
 19 20  1  0
 20 21  1  0
 13 22  2  0
 22 23  1  0
 23 24  1  0
 24 25  1  0
 25 26  1  0
 26 27  1  0
 27 28  2  0
 28 29  1  0
 29 30  2  0
 30 31  1  0
 31 32  2  0
 32 33  1  0
 23 34  2  0
  9 35  1  0
  6  1  1  0
 34 11  1  0
 35  4  1  0
 21 17  1  0
 33 24  1  0
 32 27  1  0
  1 36  1  0
  2 37  1  0
  3 38  1  0
  6 39  1  0
  7 40  1  0
  7 41  1  0
  8 42  1  0
  8 43  1  0
  9 44  1  6
 10 45  1  0
 14 46  1  0
 15 47  1  0
 15 48  1  0
 16 49  1  0
 16 50  1  0
 17 51  1  1
 18 52  1  0
 18 53  1  0
 19 54  1  0
 19 55  1  0
 20 56  1  0
 20 57  1  0
 21 58  1  0
 25 59  1  0
 25 60  1  0
 26 61  1  0
 26 62  1  0
 28 63  1  0
 29 64  1  0
 30 65  1  0
 31 66  1  0
 33 67  1  0
 33 68  1  0
 35 69  1  0
 35 70  1  0
M  END
>  <smiles>  (34) 
c1ccc2c(c1)CCC(Nc1nc(NCCC3CCCN3)nc(N3CCc4ccccc4C3)n1)C2

>  <score_type>  (34) 
oracle

>  <origin>  (34) 
autodockgpu

>  <m_score__min__energy>  (34) 
-9.8699999999999992

>  <m_primary>  (34) 
energy

>  <rmsd>  (34) 
4.253556342362676

>  <m_score__min__rmsd>  (34) 
4.253556342362676

>  <meeko>  (34) 
{"free_energy": -9.83, "intermolecular_energy": -11.92, "internal_energy": -2.28, "cluster_size": 17, "cluster_id": 2, "rank_in_cluster": 1}

>  <energy>  (34) 
-8.05

>  <cluster_rmsd>  (34) 
1.29

>  <cluster>  (34) 
3

$$$$

     RDKit          3D

 70 75  0  0  1  0  0  0  0  0999 V2000
  141.8150   81.3290  224.1650 C   0  0  0  0  0  0  0  0  0  0  0  0
  143.0210   80.8930  223.6190 C   0  0  0  0  0  0  0  0  0  0  0  0
  142.9360   79.8850  222.6890 C   0  0  0  0  0  0  0  0  0  0  0  0
  141.7540   79.3050  222.2880 C   0  0  0  0  0  0  0  0  0  0  0  0
  140.5890   79.7660  222.8530 C   0  0  0  0  0  0  0  0  0  0  0  0
  140.6020   80.7720  223.7890 C   0  0  0  0  0  0  0  0  0  0  0  0
  139.3230   79.1080  222.3910 C   0  0  0  0  0  0  0  0  0  0  0  0
  139.6540   77.6070  222.4060 C   0  0  0  0  0  0  0  0  0  0  0  0
  140.6310   77.3140  221.2930 C   0  0  2  0  0  0  0  0  0  0  0  0
  141.0540   75.9230  221.4280 N   0  0  0  0  0  0  0  0  0  0  0  0
  140.1580   74.8460  221.3770 C   0  0  0  0  0  0  0  0  0  0  0  0
  139.2260   74.6640  220.4360 N   0  0  0  0  0  0  0  0  0  0  0  0
  138.3720   73.6250  220.3990 C   0  0  0  0  0  0  0  0  0  0  0  0
  137.3940   73.4810  219.3640 N   0  0  0  0  0  0  0  0  0  0  0  0
  136.3960   74.5250  219.1140 C   0  0  0  0  0  0  0  0  0  0  0  0
  136.5740   75.5630  220.1680 C   0  0  0  0  0  0  0  0  0  0  0  0
  136.1240   75.1080  221.5350 C   0  0  2  0  0  0  0  0  0  0  0  0
  134.9420   75.8510  222.0700 C   0  0  0  0  0  0  0  0  0  0  0  0
  135.0560   75.5510  223.5610 C   0  0  0  0  0  0  0  0  0  0  0  0
  136.5530   75.6450  223.7610 C   0  0  0  0  0  0  0  0  0  0  0  0
  137.1740   75.3170  222.5160 N   0  0  0  0  0  0  0  0  0  0  0  0
  138.4660   72.6930  221.3900 N   0  0  0  0  0  0  0  0  0  0  0  0
  139.3970   72.8320  222.3700 C   0  0  0  0  0  0  0  0  0  0  0  0
  139.4960   71.8570  223.4010 N   0  0  0  0  0  0  0  0  0  0  0  0
  138.4160   70.9160  223.5890 C   0  0  0  0  0  0  0  0  0  0  0  0
  138.8540   69.7200  224.4090 C   0  0  0  0  0  0  0  0  0  0  0  0
  139.5530   70.1380  225.6470 C   0  0  0  0  0  0  0  0  0  0  0  0
  139.3440   69.5340  226.8660 C   0  0  0  0  0  0  0  0  0  0  0  0
  140.0280   69.9630  228.0050 C   0  0  0  0  0  0  0  0  0  0  0  0
  140.9270   71.0050  227.9230 C   0  0  0  0  0  0  0  0  0  0  0  0
  141.1150   71.5910  226.6880 C   0  0  0  0  0  0  0  0  0  0  0  0
  140.4480   71.1800  225.5530 C   0  0  0  0  0  0  0  0  0  0  0  0
  140.6660   71.8220  224.2400 C   0  0  0  0  0  0  0  0  0  0  0  0
  140.2150   73.8890  222.3470 N   0  0  0  0  0  0  0  0  0  0  0  0
  141.8230   78.2300  221.2750 C   0  0  0  0  0  0  0  0  0  0  0  0
  141.8257   82.1354  224.9131 H   0  0  0  0  0  0  0  0  0  0  0  0
  143.9856   81.3307  223.9156 H   0  0  0  0  0  0  0  0  0  0  0  0
  143.8699   79.5192  222.2373 H   0  0  0  0  0  0  0  0  0  0  0  0
  139.6623   81.1308  224.2343 H   0  0  0  0  0  0  0  0  0  0  0  0
  138.4934   79.3319  223.0778 H   0  0  0  0  0  0  0  0  0  0  0  0
  139.0017   79.4597  221.3995 H   0  0  0  0  0  0  0  0  0  0  0  0
  140.1032   77.3370  223.3731 H   0  0  0  0  0  0  0  0  0  0  0  0
  138.7351   77.0198  222.2615 H   0  0  0  0  0  0  0  0  0  0  0  0
  140.1206   77.4890  220.3344 H   0  0  0  0  0  0  0  0  0  0  0  0
  142.0730   75.7470  221.5680 H   0  0  0  0  0  0  0  0  0  0  0  0
  137.4380   72.6050  218.8130 H   0  0  0  0  0  0  0  0  0  0  0  0
  136.5533   74.9668  218.1190 H   0  0  0  0  0  0  0  0  0  0  0  0
  135.3783   74.1085  219.1427 H   0  0  0  0  0  0  0  0  0  0  0  0
  137.6404   75.8273  220.2214 H   0  0  0  0  0  0  0  0  0  0  0  0
  135.9478   76.4229  219.8880 H   0  0  0  0  0  0  0  0  0  0  0  0
  135.8647   74.0487  221.3914 H   0  0  0  0  0  0  0  0  0  0  0  0
  135.0186   76.9297  221.8685 H   0  0  0  0  0  0  0  0  0  0  0  0
  133.9818   75.5563  221.6216 H   0  0  0  0  0  0  0  0  0  0  0  0
  134.5201   76.2977  224.1654 H   0  0  0  0  0  0  0  0  0  0  0  0
  134.6175   74.5890  223.8647 H   0  0  0  0  0  0  0  0  0  0  0  0
  136.8285   76.6670  224.0604 H   0  0  0  0  0  0  0  0  0  0  0  0
  136.8824   74.9551  224.5520 H   0  0  0  0  0  0  0  0  0  0  0  0
  137.8650   74.5480  222.5630 H   0  0  0  0  0  0  0  0  0  0  0  0
  137.5888   71.4214  224.1088 H   0  0  0  0  0  0  0  0  0  0  0  0
  138.0973   70.5563  222.5995 H   0  0  0  0  0  0  0  0  0  0  0  0
  137.9671   69.1290  224.6813 H   0  0  0  0  0  0  0  0  0  0  0  0
  139.5514   69.1226  223.8034 H   0  0  0  0  0  0  0  0  0  0  0  0
  138.6285   68.7021  226.9438 H   0  0  0  0  0  0  0  0  0  0  0  0
  139.8490   69.4680  228.9709 H   0  0  0  0  0  0  0  0  0  0  0  0
  141.4746   71.3565  228.8099 H   0  0  0  0  0  0  0  0  0  0  0  0
  141.8291   72.4236  226.6050 H   0  0  0  0  0  0  0  0  0  0  0  0
  140.9987   72.8563  224.4122 H   0  0  0  0  0  0  0  0  0  0  0  0
  141.4171   71.2165  223.7117 H   0  0  0  0  0  0  0  0  0  0  0  0
  142.7259   77.6307  221.4637 H   0  0  0  0  0  0  0  0  0  0  0  0
  141.8442   78.7153  220.2880 H   0  0  0  0  0  0  0  0  0  0  0  0
  1  2  2  0
  2  3  1  0
  3  4  2  0
  4  5  1  0
  5  6  2  0
  5  7  1  0
  7  8  1  0
  8  9  1  0
  9 10  1  0
 10 11  1  0
 11 12  2  0
 12 13  1  0
 13 14  1  0
 14 15  1  0
 15 16  1  0
 16 17  1  0
 17 18  1  0
 18 19  1  0
 19 20  1  0
 20 21  1  0
 13 22  2  0
 22 23  1  0
 23 24  1  0
 24 25  1  0
 25 26  1  0
 26 27  1  0
 27 28  2  0
 28 29  1  0
 29 30  2  0
 30 31  1  0
 31 32  2  0
 32 33  1  0
 23 34  2  0
  9 35  1  0
  6  1  1  0
 34 11  1  0
 35  4  1  0
 21 17  1  0
 33 24  1  0
 32 27  1  0
  1 36  1  0
  2 37  1  0
  3 38  1  0
  6 39  1  0
  7 40  1  0
  7 41  1  0
  8 42  1  0
  8 43  1  0
  9 44  1  6
 10 45  1  0
 14 46  1  0
 15 47  1  0
 15 48  1  0
 16 49  1  0
 16 50  1  0
 17 51  1  6
 18 52  1  0
 18 53  1  0
 19 54  1  0
 19 55  1  0
 20 56  1  0
 20 57  1  0
 21 58  1  0
 25 59  1  0
 25 60  1  0
 26 61  1  0
 26 62  1  0
 28 63  1  0
 29 64  1  0
 30 65  1  0
 31 66  1  0
 33 67  1  0
 33 68  1  0
 35 69  1  0
 35 70  1  0
M  END
>  <smiles>  (35) 
c1ccc2c(c1)CCC(Nc1nc(NCCC3CCCN3)nc(N3CCc4ccccc4C3)n1)C2

>  <score_type>  (35) 
oracle

>  <origin>  (35) 
autodockgpu

>  <m_score__min__energy>  (35) 
-9.8699999999999992

>  <m_primary>  (35) 
energy

>  <rmsd>  (35) 
4.214981084712772

>  <m_score__min__rmsd>  (35) 
4.214981084712772

>  <meeko>  (35) 
{"free_energy": -9.46, "intermolecular_energy": -11.55, "internal_energy": -2.52, "cluster_size": 17, "cluster_id": 2, "rank_in_cluster": 8}

>  <energy>  (35) 
-7.84

>  <cluster_rmsd>  (35) 
1.91

>  <cluster>  (35) 
3

$$$$

     RDKit          3D

 70 75  0  0  1  0  0  0  0  0999 V2000
  140.3910   67.8420  226.6180 C   0  0  0  0  0  0  0  0  0  0  0  0
  141.4850   68.6620  226.3480 C   0  0  0  0  0  0  0  0  0  0  0  0
  141.2260   69.7960  225.6160 C   0  0  0  0  0  0  0  0  0  0  0  0
  139.9780   70.1460  225.1540 C   0  0  0  0  0  0  0  0  0  0  0  0
  138.9280   69.3070  225.4440 C   0  0  0  0  0  0  0  0  0  0  0  0
  139.1170   68.1570  226.1710 C   0  0  0  0  0  0  0  0  0  0  0  0
  137.5850   69.7230  224.9220 C   0  0  0  0  0  0  0  0  0  0  0  0
  137.8630   70.1480  223.4710 C   0  0  0  0  0  0  0  0  0  0  0  0
  138.6500   71.4360  223.4850 C   0  0  2  0  0  0  0  0  0  0  0  0
  139.0400   71.7330  222.1090 N   0  0  0  0  0  0  0  0  0  0  0  0
  140.2450   72.3680  221.7790 C   0  0  0  0  0  0  0  0  0  0  0  0
  141.3980   71.7430  221.5160 N   0  0  0  0  0  0  0  0  0  0  0  0
  142.5480   72.3640  221.2000 C   0  0  0  0  0  0  0  0  0  0  0  0
  143.7530   71.6420  220.9260 N   0  0  0  0  0  0  0  0  0  0  0  0
  143.9130   70.8770  219.6860 C   0  0  0  0  0  0  0  0  0  0  0  0
  143.3560   71.7090  218.5830 C   0  0  0  0  0  0  0  0  0  0  0  0
  141.8610   71.5680  218.4250 C   0  0  2  0  0  0  0  0  0  0  0  0
  141.4210   71.2390  217.0340 C   0  0  0  0  0  0  0  0  0  0  0  0
  139.9550   71.6570  217.0840 C   0  0  0  0  0  0  0  0  0  0  0  0
  140.0450   72.9280  217.9000 C   0  0  0  0  0  0  0  0  0  0  0  0
  141.1920   72.8160  218.7460 N   0  0  0  0  0  0  0  0  0  0  0  0
  142.5370   73.7270  221.1430 N   0  0  0  0  0  0  0  0  0  0  0  0
  141.3890   74.4090  221.4010 C   0  0  0  0  0  0  0  0  0  0  0  0
  141.3780   75.8310  221.3380 N   0  0  0  0  0  0  0  0  0  0  0  0
  141.9400   76.4900  220.1820 C   0  0  0  0  0  0  0  0  0  0  0  0
  141.4740   77.9280  220.0780 C   0  0  0  0  0  0  0  0  0  0  0  0
  141.6430   78.6470  221.3630 C   0  0  0  0  0  0  0  0  0  0  0  0
  142.1110   79.9390  221.4430 C   0  0  0  0  0  0  0  0  0  0  0  0
  142.2520   80.5740  222.6780 C   0  0  0  0  0  0  0  0  0  0  0  0
  141.9220   79.9120  223.8420 C   0  0  0  0  0  0  0  0  0  0  0  0
  141.4560   78.6180  223.7300 C   0  0  0  0  0  0  0  0  0  0  0  0
  141.3100   77.9750  222.5180 C   0  0  0  0  0  0  0  0  0  0  0  0
  140.8080   76.5880  222.4220 C   0  0  0  0  0  0  0  0  0  0  0  0
  140.2810   73.7290  221.7100 N   0  0  0  0  0  0  0  0  0  0  0  0
  139.8560   71.4010  224.3800 C   0  0  0  0  0  0  0  0  0  0  0  0
  140.5422   66.9213  227.2006 H   0  0  0  0  0  0  0  0  0  0  0  0
  142.4975   68.4158  226.7005 H   0  0  0  0  0  0  0  0  0  0  0  0
  142.0682   70.4650  225.3852 H   0  0  0  0  0  0  0  0  0  0  0  0
  138.2682   67.4943  226.3957 H   0  0  0  0  0  0  0  0  0  0  0  0
  136.8760   68.8826  224.9539 H   0  0  0  0  0  0  0  0  0  0  0  0
  137.1307   70.5279  225.5184 H   0  0  0  0  0  0  0  0  0  0  0  0
  138.4437   69.3652  222.9610 H   0  0  0  0  0  0  0  0  0  0  0  0
  136.9134   70.2954  222.9357 H   0  0  0  0  0  0  0  0  0  0  0  0
  138.0071   72.2253  223.9018 H   0  0  0  0  0  0  0  0  0  0  0  0
  138.3750   71.4510  221.3550 H   0  0  0  0  0  0  0  0  0  0  0  0
  144.4920   71.6960  221.6510 H   0  0  0  0  0  0  0  0  0  0  0  0
  144.9783   70.6727  219.5035 H   0  0  0  0  0  0  0  0  0  0  0  0
  143.3893   69.9118  219.7511 H   0  0  0  0  0  0  0  0  0  0  0  0
  143.5872   72.7642  218.7907 H   0  0  0  0  0  0  0  0  0  0  0  0
  143.8169   71.3601  217.6471 H   0  0  0  0  0  0  0  0  0  0  0  0
  141.5967   70.7442  219.1043 H   0  0  0  0  0  0  0  0  0  0  0  0
  141.9809   71.8191  216.2857 H   0  0  0  0  0  0  0  0  0  0  0  0
  141.5832   70.1904  216.7439 H   0  0  0  0  0  0  0  0  0  0  0  0
  139.5555   71.8505  216.0775 H   0  0  0  0  0  0  0  0  0  0  0  0
  139.2804   70.8958  217.5031 H   0  0  0  0  0  0  0  0  0  0  0  0
  140.1540   73.7957  217.2327 H   0  0  0  0  0  0  0  0  0  0  0  0
  139.1337   73.0683  218.4999 H   0  0  0  0  0  0  0  0  0  0  0  0
  141.0040   72.9450  219.7550 H   0  0  0  0  0  0  0  0  0  0  0  0
  143.0371   76.4751  220.2609 H   0  0  0  0  0  0  0  0  0  0  0  0
  141.6034   75.9534  219.2827 H   0  0  0  0  0  0  0  0  0  0  0  0
  142.0624   78.4394  219.3020 H   0  0  0  0  0  0  0  0  0  0  0  0
  140.4045   77.9269  219.8207 H   0  0  0  0  0  0  0  0  0  0  0  0
  142.3773   80.4780  220.5218 H   0  0  0  0  0  0  0  0  0  0  0  0
  142.6279   81.6068  222.7230 H   0  0  0  0  0  0  0  0  0  0  0  0
  142.0264   80.3976  224.8235 H   0  0  0  0  0  0  0  0  0  0  0  0
  141.1889   78.0746  224.6484 H   0  0  0  0  0  0  0  0  0  0  0  0
  141.0401   76.0705  223.3645 H   0  0  0  0  0  0  0  0  0  0  0  0
  139.7271   76.6542  222.2291 H   0  0  0  0  0  0  0  0  0  0  0  0
  140.7556   71.5153  223.7573 H   0  0  0  0  0  0  0  0  0  0  0  0
  139.7453   72.2202  225.1057 H   0  0  0  0  0  0  0  0  0  0  0  0
  1  2  2  0
  2  3  1  0
  3  4  2  0
  4  5  1  0
  5  6  2  0
  5  7  1  0
  7  8  1  0
  8  9  1  0
  9 10  1  0
 10 11  1  0
 11 12  2  0
 12 13  1  0
 13 14  1  0
 14 15  1  0
 15 16  1  0
 16 17  1  0
 17 18  1  0
 18 19  1  0
 19 20  1  0
 20 21  1  0
 13 22  2  0
 22 23  1  0
 23 24  1  0
 24 25  1  0
 25 26  1  0
 26 27  1  0
 27 28  2  0
 28 29  1  0
 29 30  2  0
 30 31  1  0
 31 32  2  0
 32 33  1  0
 23 34  2  0
  9 35  1  0
  6  1  1  0
 34 11  1  0
 35  4  1  0
 21 17  1  0
 33 24  1  0
 32 27  1  0
  1 36  1  0
  2 37  1  0
  3 38  1  0
  6 39  1  0
  7 40  1  0
  7 41  1  0
  8 42  1  0
  8 43  1  0
  9 44  1  1
 10 45  1  0
 14 46  1  0
 15 47  1  0
 15 48  1  0
 16 49  1  0
 16 50  1  0
 17 51  1  1
 18 52  1  0
 18 53  1  0
 19 54  1  0
 19 55  1  0
 20 56  1  0
 20 57  1  0
 21 58  1  0
 25 59  1  0
 25 60  1  0
 26 61  1  0
 26 62  1  0
 28 63  1  0
 29 64  1  0
 30 65  1  0
 31 66  1  0
 33 67  1  0
 33 68  1  0
 35 69  1  0
 35 70  1  0
M  END
>  <smiles>  (36) 
c1ccc2c(c1)CCC(Nc1nc(NCCC3CCCN3)nc(N3CCc4ccccc4C3)n1)C2

>  <score_type>  (36) 
oracle

>  <origin>  (36) 
autodockgpu

>  <m_score__min__energy>  (36) 
-9.8699999999999992

>  <m_primary>  (36) 
energy

>  <rmsd>  (36) 
12.04106618340161

>  <m_score__min__rmsd>  (36) 
12.04106618340161

>  <meeko>  (36) 
{"free_energy": -7.84, "intermolecular_energy": -9.93, "internal_energy": -2.99, "cluster_size": 17, "cluster_id": 3, "rank_in_cluster": 17}

>  <energy>  (36) 
-9.57

>  <cluster_rmsd>  (36) 
0.0

>  <cluster>  (36) 
4

$$$$

     RDKit          3D

 70 75  0  0  1  0  0  0  0  0999 V2000
  141.9250   81.2670  224.1100 C   0  0  0  0  0  0  0  0  0  0  0  0
  143.0870   80.7270  223.5640 C   0  0  0  0  0  0  0  0  0  0  0  0
  142.9200   79.6580  222.7160 C   0  0  0  0  0  0  0  0  0  0  0  0
  141.6970   79.1140  222.3940 C   0  0  0  0  0  0  0  0  0  0  0  0
  140.5770   79.6780  222.9570 C   0  0  0  0  0  0  0  0  0  0  0  0
  140.6730   80.7490  223.8130 C   0  0  0  0  0  0  0  0  0  0  0  0
  139.2640   79.0570  222.5830 C   0  0  0  0  0  0  0  0  0  0  0  0
  139.5190   77.5450  222.7030 C   0  0  0  0  0  0  0  0  0  0  0  0
  140.4420   77.1190  221.5870 C   0  0  2  0  0  0  0  0  0  0  0  0
  140.7970   75.7210  221.8150 N   0  0  0  0  0  0  0  0  0  0  0  0
  139.8530   74.6850  221.8160 C   0  0  0  0  0  0  0  0  0  0  0  0
  138.7590   74.6390  221.0490 N   0  0  0  0  0  0  0  0  0  0  0  0
  137.8600   73.6380  221.0610 C   0  0  0  0  0  0  0  0  0  0  0  0
  136.7060   73.6420  220.2140 N   0  0  0  0  0  0  0  0  0  0  0  0
  136.1250   74.8990  219.7310 C   0  0  0  0  0  0  0  0  0  0  0  0
  135.6710   75.6600  220.9280 C   0  0  0  0  0  0  0  0  0  0  0  0
  135.4010   74.7840  222.1270 C   0  0  2  0  0  0  0  0  0  0  0  0
  134.1150   75.0830  222.8280 C   0  0  0  0  0  0  0  0  0  0  0  0
  134.3690   74.4460  224.1900 C   0  0  0  0  0  0  0  0  0  0  0  0
  135.8170   74.8180  224.4180 C   0  0  0  0  0  0  0  0  0  0  0  0
  136.4300   74.9650  223.1350 N   0  0  0  0  0  0  0  0  0  0  0  0
  138.0810   72.5980  221.9140 N   0  0  0  0  0  0  0  0  0  0  0  0
  139.1800   72.5970  222.7150 C   0  0  0  0  0  0  0  0  0  0  0  0
  139.4120   71.5090  223.6030 N   0  0  0  0  0  0  0  0  0  0  0  0
  138.4720   70.4110  223.6350 C   0  0  0  0  0  0  0  0  0  0  0  0
  139.0710   69.1840  224.2900 C   0  0  0  0  0  0  0  0  0  0  0  0
  139.7040   69.5150  225.5880 C   0  0  0  0  0  0  0  0  0  0  0  0
  139.5790   68.7220  226.7070 C   0  0  0  0  0  0  0  0  0  0  0  0
  140.1960   69.0770  227.9080 C   0  0  0  0  0  0  0  0  0  0  0  0
  140.9410   70.2340  227.9910 C   0  0  0  0  0  0  0  0  0  0  0  0
  141.0480   71.0080  226.8530 C   0  0  0  0  0  0  0  0  0  0  0  0
  140.4460   70.6730  225.6590 C   0  0  0  0  0  0  0  0  0  0  0  0
  140.5740   71.5170  224.4530 C   0  0  0  0  0  0  0  0  0  0  0  0
  140.0330   73.6230  222.6540 N   0  0  0  0  0  0  0  0  0  0  0  0
  141.6780   77.9650  221.4650 C   0  0  0  0  0  0  0  0  0  0  0  0
  142.0021   82.1254  224.7936 H   0  0  0  0  0  0  0  0  0  0  0  0
  144.0822   81.1330  223.7981 H   0  0  0  0  0  0  0  0  0  0  0  0
  143.8187   79.2097  222.2672 H   0  0  0  0  0  0  0  0  0  0  0  0
  139.7683   81.1899  224.2570 H   0  0  0  0  0  0  0  0  0  0  0  0
  138.4699   79.3756  223.2743 H   0  0  0  0  0  0  0  0  0  0  0  0
  138.9281   79.3509  221.5776 H   0  0  0  0  0  0  0  0  0  0  0  0
  139.9862   77.3245  223.6741 H   0  0  0  0  0  0  0  0  0  0  0  0
  138.5674   76.9979  222.6314 H   0  0  0  0  0  0  0  0  0  0  0  0
  139.9100   77.2504  220.6332 H   0  0  0  0  0  0  0  0  0  0  0  0
  141.8050   75.5070  221.9820 H   0  0  0  0  0  0  0  0  0  0  0  0
  136.3160   72.7140  219.9700 H   0  0  0  0  0  0  0  0  0  0  0  0
  136.8816   75.4775  219.1807 H   0  0  0  0  0  0  0  0  0  0  0  0
  135.2845   74.7050  219.0484 H   0  0  0  0  0  0  0  0  0  0  0  0
  136.4517   76.3871  221.1959 H   0  0  0  0  0  0  0  0  0  0  0  0
  134.7221   76.1487  220.6620 H   0  0  0  0  0  0  0  0  0  0  0  0
  135.3702   73.7657  221.7120 H   0  0  0  0  0  0  0  0  0  0  0  0
  133.9448   76.1663  222.9145 H   0  0  0  0  0  0  0  0  0  0  0  0
  133.2197   74.7062  222.3118 H   0  0  0  0  0  0  0  0  0  0  0  0
  133.7154   74.8741  224.9642 H   0  0  0  0  0  0  0  0  0  0  0  0
  134.1671   73.3654  224.2296 H   0  0  0  0  0  0  0  0  0  0  0  0
  135.8784   75.7650  224.9743 H   0  0  0  0  0  0  0  0  0  0  0  0
  136.3287   74.0413  225.0052 H   0  0  0  0  0  0  0  0  0  0  0  0
  137.2730   74.3840  222.9860 H   0  0  0  0  0  0  0  0  0  0  0  0
  137.5815   70.7197  224.2021 H   0  0  0  0  0  0  0  0  0  0  0  0
  138.2077   70.1537  222.5987 H   0  0  0  0  0  0  0  0  0  0  0  0
  138.2745   68.4445  224.4592 H   0  0  0  0  0  0  0  0  0  0  0  0
  139.8456   68.7798  223.6217 H   0  0  0  0  0  0  0  0  0  0  0  0
  138.9856   67.7973  226.6538 H   0  0  0  0  0  0  0  0  0  0  0  0
  140.0873   68.4309  228.7916 H   0  0  0  0  0  0  0  0  0  0  0  0
  141.4322   70.5296  228.9298 H   0  0  0  0  0  0  0  0  0  0  0  0
  141.6403   71.9337  226.9011 H   0  0  0  0  0  0  0  0  0  0  0  0
  140.7596   72.5525  224.7744 H   0  0  0  0  0  0  0  0  0  0  0  0
  141.4024   71.1004  223.8612 H   0  0  0  0  0  0  0  0  0  0  0  0
  142.5545   77.3338  221.6732 H   0  0  0  0  0  0  0  0  0  0  0  0
  141.6926   78.3731  220.4436 H   0  0  0  0  0  0  0  0  0  0  0  0
  1  2  2  0
  2  3  1  0
  3  4  2  0
  4  5  1  0
  5  6  2  0
  5  7  1  0
  7  8  1  0
  8  9  1  0
  9 10  1  0
 10 11  1  0
 11 12  2  0
 12 13  1  0
 13 14  1  0
 14 15  1  0
 15 16  1  0
 16 17  1  0
 17 18  1  0
 18 19  1  0
 19 20  1  0
 20 21  1  0
 13 22  2  0
 22 23  1  0
 23 24  1  0
 24 25  1  0
 25 26  1  0
 26 27  1  0
 27 28  2  0
 28 29  1  0
 29 30  2  0
 30 31  1  0
 31 32  2  0
 32 33  1  0
 23 34  2  0
  9 35  1  0
  6  1  1  0
 34 11  1  0
 35  4  1  0
 21 17  1  0
 33 24  1  0
 32 27  1  0
  1 36  1  0
  2 37  1  0
  3 38  1  0
  6 39  1  0
  7 40  1  0
  7 41  1  0
  8 42  1  0
  8 43  1  0
  9 44  1  6
 10 45  1  0
 14 46  1  0
 15 47  1  0
 15 48  1  0
 16 49  1  0
 16 50  1  0
 17 51  1  6
 18 52  1  0
 18 53  1  0
 19 54  1  0
 19 55  1  0
 20 56  1  0
 20 57  1  0
 21 58  1  0
 25 59  1  0
 25 60  1  0
 26 61  1  0
 26 62  1  0
 28 63  1  0
 29 64  1  0
 30 65  1  0
 31 66  1  0
 33 67  1  0
 33 68  1  0
 35 69  1  0
 35 70  1  0
M  END
>  <smiles>  (37) 
c1ccc2c(c1)CCC(Nc1nc(NCCC3CCCN3)nc(N3CCc4ccccc4C3)n1)C2

>  <score_type>  (37) 
oracle

>  <origin>  (37) 
autodockgpu

>  <m_score__min__energy>  (37) 
-9.8699999999999992

>  <m_primary>  (37) 
energy

>  <rmsd>  (37) 
4.292064690410707

>  <m_score__min__rmsd>  (37) 
4.292064690410707

>  <meeko>  (37) 
{"free_energy": -9.38, "intermolecular_energy": -11.47, "internal_energy": -2.17, "cluster_size": 17, "cluster_id": 2, "rank_in_cluster": 9}

>  <energy>  (37) 
-9.49

>  <cluster_rmsd>  (37) 
0.0

>  <cluster>  (37) 
5

$$$$

     RDKit          3D

 70 75  0  0  1  0  0  0  0  0999 V2000
  141.8760   81.5460  223.3550 C   0  0  0  0  0  0  0  0  0  0  0  0
  142.7070   80.5390  223.8410 C   0  0  0  0  0  0  0  0  0  0  0  0
  142.4820   79.2760  223.3480 C   0  0  0  0  0  0  0  0  0  0  0  0
  141.5050   78.9710  222.4270 C   0  0  0  0  0  0  0  0  0  0  0  0
  140.7080   79.9970  221.9760 C   0  0  0  0  0  0  0  0  0  0  0  0
  140.8790   81.2830  222.4270 C   0  0  0  0  0  0  0  0  0  0  0  0
  139.6550   79.6240  220.9750 C   0  0  0  0  0  0  0  0  0  0  0  0
  139.0260   78.3460  221.5520 C   0  0  0  0  0  0  0  0  0  0  0  0
  140.0280   77.2210  221.4450 C   0  0  2  0  0  0  0  0  0  0  0  0
  139.4720   76.0640  222.1420 N   0  0  0  0  0  0  0  0  0  0  0  0
  139.7510   74.7430  221.7670 C   0  0  0  0  0  0  0  0  0  0  0  0
  140.0610   74.3420  220.5300 N   0  0  0  0  0  0  0  0  0  0  0  0
  140.3260   73.0700  220.1840 C   0  0  0  0  0  0  0  0  0  0  0  0
  140.6530   72.6990  218.8410 N   0  0  0  0  0  0  0  0  0  0  0  0
  142.0410   72.7090  218.3680 C   0  0  0  0  0  0  0  0  0  0  0  0
  142.1870   73.8840  217.4620 C   0  0  0  0  0  0  0  0  0  0  0  0
  142.1050   75.2070  218.1830 C   0  0  2  0  0  0  0  0  0  0  0  0
  142.7820   76.3350  217.4720 C   0  0  0  0  0  0  0  0  0  0  0  0
  142.9700   77.3300  218.6120 C   0  0  0  0  0  0  0  0  0  0  0  0
  143.3520   76.4030  219.7450 C   0  0  0  0  0  0  0  0  0  0  0  0
  142.7610   75.1290  219.4750 N   0  0  0  0  0  0  0  0  0  0  0  0
  140.2770   72.1230  221.1640 N   0  0  0  0  0  0  0  0  0  0  0  0
  139.9670   72.4800  222.4390 C   0  0  0  0  0  0  0  0  0  0  0  0
  139.9190   71.4920  223.4620 N   0  0  0  0  0  0  0  0  0  0  0  0
  138.8950   70.4720  223.4120 C   0  0  0  0  0  0  0  0  0  0  0  0
  139.2390   69.2930  224.2980 C   0  0  0  0  0  0  0  0  0  0  0  0
  139.6310   69.7330  225.6590 C   0  0  0  0  0  0  0  0  0  0  0  0
  139.2170   69.0880  226.8020 C   0  0  0  0  0  0  0  0  0  0  0  0
  139.6140   69.5400  228.0620 C   0  0  0  0  0  0  0  0  0  0  0  0
  140.4310   70.6450  228.1780 C   0  0  0  0  0  0  0  0  0  0  0  0
  140.8290   71.2690  227.0140 C   0  0  0  0  0  0  0  0  0  0  0  0
  140.4470   70.8370  225.7610 C   0  0  0  0  0  0  0  0  0  0  0  0
  140.8870   71.5210  224.5280 C   0  0  0  0  0  0  0  0  0  0  0  0
  139.7130   73.7620  222.7150 N   0  0  0  0  0  0  0  0  0  0  0  0
  141.3860   77.5640  221.9890 C   0  0  0  0  0  0  0  0  0  0  0  0
  142.0139   82.5758  223.7163 H   0  0  0  0  0  0  0  0  0  0  0  0
  143.4982   80.7431  224.5774 H   0  0  0  0  0  0  0  0  0  0  0  0
  143.1218   78.4584  223.7116 H   0  0  0  0  0  0  0  0  0  0  0  0
  140.2339   82.0936  222.0572 H   0  0  0  0  0  0  0  0  0  0  0  0
  138.9035   80.4220  220.8829 H   0  0  0  0  0  0  0  0  0  0  0  0
  140.0659   79.4740  219.9657 H   0  0  0  0  0  0  0  0  0  0  0  0
  138.7624   78.5075  222.6077 H   0  0  0  0  0  0  0  0  0  0  0  0
  138.1151   78.0907  220.9906 H   0  0  0  0  0  0  0  0  0  0  0  0
  140.1925   77.0088  220.3783 H   0  0  0  0  0  0  0  0  0  0  0  0
  138.8420   76.2550  222.9520 H   0  0  0  0  0  0  0  0  0  0  0  0
  139.8580   72.4270  218.2350 H   0  0  0  0  0  0  0  0  0  0  0  0
  142.7296   72.8022  219.2208 H   0  0  0  0  0  0  0  0  0  0  0  0
  142.2812   71.7748  217.8393 H   0  0  0  0  0  0  0  0  0  0  0  0
  143.1641   73.8193  216.9610 H   0  0  0  0  0  0  0  0  0  0  0  0
  141.3517   73.8501  216.7471 H   0  0  0  0  0  0  0  0  0  0  0  0
  141.0253   75.4054  218.2538 H   0  0  0  0  0  0  0  0  0  0  0  0
  143.7468   76.0224  217.0460 H   0  0  0  0  0  0  0  0  0  0  0  0
  142.2196   76.7313  216.6137 H   0  0  0  0  0  0  0  0  0  0  0  0
  143.7718   78.0500  218.3915 H   0  0  0  0  0  0  0  0  0  0  0  0
  142.0894   77.9567  218.8164 H   0  0  0  0  0  0  0  0  0  0  0  0
  144.4464   76.3058  219.7981 H   0  0  0  0  0  0  0  0  0  0  0  0
  142.9959   76.7995  220.7072 H   0  0  0  0  0  0  0  0  0  0  0  0
  142.1610   74.7580  220.2310 H   0  0  0  0  0  0  0  0  0  0  0  0
  137.9421   70.9059  223.7492 H   0  0  0  0  0  0  0  0  0  0  0  0
  138.8178   70.1124  222.3753 H   0  0  0  0  0  0  0  0  0  0  0  0
  138.3610   68.6347  224.3740 H   0  0  0  0  0  0  0  0  0  0  0  0
  140.0899   68.7599  223.8488 H   0  0  0  0  0  0  0  0  0  0  0  0
  138.5653   68.2055  226.7220 H   0  0  0  0  0  0  0  0  0  0  0  0
  139.2738   69.0128  228.9655 H   0  0  0  0  0  0  0  0  0  0  0  0
  140.7534   71.0151  229.1624 H   0  0  0  0  0  0  0  0  0  0  0  0
  141.4810   72.1518  227.0884 H   0  0  0  0  0  0  0  0  0  0  0  0
  141.0995   72.5721  224.7731 H   0  0  0  0  0  0  0  0  0  0  0  0
  141.7744   70.9815  224.1654 H   0  0  0  0  0  0  0  0  0  0  0  0
  141.5912   76.9120  222.8509 H   0  0  0  0  0  0  0  0  0  0  0  0
  142.1093   77.4155  221.1737 H   0  0  0  0  0  0  0  0  0  0  0  0
  1  2  2  0
  2  3  1  0
  3  4  2  0
  4  5  1  0
  5  6  2  0
  5  7  1  0
  7  8  1  0
  8  9  1  0
  9 10  1  0
 10 11  1  0
 11 12  2  0
 12 13  1  0
 13 14  1  0
 14 15  1  0
 15 16  1  0
 16 17  1  0
 17 18  1  0
 18 19  1  0
 19 20  1  0
 20 21  1  0
 13 22  2  0
 22 23  1  0
 23 24  1  0
 24 25  1  0
 25 26  1  0
 26 27  1  0
 27 28  2  0
 28 29  1  0
 29 30  2  0
 30 31  1  0
 31 32  2  0
 32 33  1  0
 23 34  2  0
  9 35  1  0
  6  1  1  0
 34 11  1  0
 35  4  1  0
 21 17  1  0
 33 24  1  0
 32 27  1  0
  1 36  1  0
  2 37  1  0
  3 38  1  0
  6 39  1  0
  7 40  1  0
  7 41  1  0
  8 42  1  0
  8 43  1  0
  9 44  1  6
 10 45  1  0
 14 46  1  0
 15 47  1  0
 15 48  1  0
 16 49  1  0
 16 50  1  0
 17 51  1  1
 18 52  1  0
 18 53  1  0
 19 54  1  0
 19 55  1  0
 20 56  1  0
 20 57  1  0
 21 58  1  0
 25 59  1  0
 25 60  1  0
 26 61  1  0
 26 62  1  0
 28 63  1  0
 29 64  1  0
 30 65  1  0
 31 66  1  0
 33 67  1  0
 33 68  1  0
 35 69  1  0
 35 70  1  0
M  END
>  <smiles>  (38) 
c1ccc2c(c1)CCC(Nc1nc(NCCC3CCCN3)nc(N3CCc4ccccc4C3)n1)C2

>  <score_type>  (38) 
oracle

>  <origin>  (38) 
autodockgpu

>  <m_score__min__energy>  (38) 
-9.8699999999999992

>  <m_primary>  (38) 
energy

>  <rmsd>  (38) 
4.200440939945416

>  <m_score__min__rmsd>  (38) 
4.200440939945416

>  <meeko>  (38) 
{"free_energy": -8.56, "intermolecular_energy": -10.65, "internal_energy": -2.28, "cluster_size": 17, "cluster_id": 3, "rank_in_cluster": 13}

>  <energy>  (38) 
-8.76

>  <cluster_rmsd>  (38) 
1.98

>  <cluster>  (38) 
5

$$$$

     RDKit          3D

 70 75  0  0  1  0  0  0  0  0999 V2000
  146.2740   73.6720  220.9910 C   0  0  0  0  0  0  0  0  0  0  0  0
  146.2710   72.3840  220.4600 C   0  0  0  0  0  0  0  0  0  0  0  0
  145.1400   72.0130  219.7720 C   0  0  0  0  0  0  0  0  0  0  0  0
  144.0470   72.8290  219.5910 C   0  0  0  0  0  0  0  0  0  0  0  0
  144.0930   74.0920  220.1330 C   0  0  0  0  0  0  0  0  0  0  0  0
  145.1930   74.5260  220.8330 C   0  0  0  0  0  0  0  0  0  0  0  0
  142.8820   74.9500  219.9160 C   0  0  0  0  0  0  0  0  0  0  0  0
  141.7020   74.0140  220.2220 C   0  0  0  0  0  0  0  0  0  0  0  0
  141.6040   72.9820  219.1250 C   0  0  2  0  0  0  0  0  0  0  0  0
  140.5840   72.0120  219.5170 N   0  0  0  0  0  0  0  0  0  0  0  0
  139.6890   72.2330  220.5720 C   0  0  0  0  0  0  0  0  0  0  0  0
  138.5350   72.9020  220.4760 N   0  0  0  0  0  0  0  0  0  0  0  0
  137.6840   73.1070  221.4980 C   0  0  0  0  0  0  0  0  0  0  0  0
  136.4600   73.8310  221.3350 N   0  0  0  0  0  0  0  0  0  0  0  0
  136.2240   75.0900  222.0490 C   0  0  0  0  0  0  0  0  0  0  0  0
  137.1590   76.0990  221.4770 C   0  0  0  0  0  0  0  0  0  0  0  0
  138.3540   76.3730  222.3580 C   0  0  2  0  0  0  0  0  0  0  0  0
  139.0590   77.6550  222.0520 C   0  0  0  0  0  0  0  0  0  0  0  0
  140.4170   77.4040  222.6990 C   0  0  0  0  0  0  0  0  0  0  0  0
  140.6440   75.9520  222.3410 C   0  0  0  0  0  0  0  0  0  0  0  0
  139.3600   75.3410  222.1920 N   0  0  0  0  0  0  0  0  0  0  0  0
  138.0220   72.5950  222.7160 N   0  0  0  0  0  0  0  0  0  0  0  0
  139.1850   71.9060  222.8660 C   0  0  0  0  0  0  0  0  0  0  0  0
  139.5350   71.3700  224.1360 N   0  0  0  0  0  0  0  0  0  0  0  0
  140.7030   71.8780  224.8200 C   0  0  0  0  0  0  0  0  0  0  0  0
  140.6850   71.5220  226.2920 C   0  0  0  0  0  0  0  0  0  0  0  0
  140.4060   70.0820  226.5000 C   0  0  0  0  0  0  0  0  0  0  0  0
  141.0700   69.3160  227.4300 C   0  0  0  0  0  0  0  0  0  0  0  0
  140.7700   67.9620  227.5890 C   0  0  0  0  0  0  0  0  0  0  0  0
  139.7980   67.3700  226.8110 C   0  0  0  0  0  0  0  0  0  0  0  0
  139.1490   68.1630  225.8870 C   0  0  0  0  0  0  0  0  0  0  0  0
  139.4330   69.5020  225.7170 C   0  0  0  0  0  0  0  0  0  0  0  0
  138.7240   70.3330  224.7200 C   0  0  0  0  0  0  0  0  0  0  0  0
  139.9860   71.7390  221.8090 N   0  0  0  0  0  0  0  0  0  0  0  0
  142.9040   72.2890  218.8250 C   0  0  0  0  0  0  0  0  0  0  0  0
  147.1556   74.0201  221.5493 H   0  0  0  0  0  0  0  0  0  0  0  0
  147.1253   71.7023  220.5842 H   0  0  0  0  0  0  0  0  0  0  0  0
  145.1069   71.0020  219.3398 H   0  0  0  0  0  0  0  0  0  0  0  0
  145.2157   75.5384  221.2627 H   0  0  0  0  0  0  0  0  0  0  0  0
  142.8854   75.8111  220.6004 H   0  0  0  0  0  0  0  0  0  0  0  0
  142.8371   75.3689  218.8999 H   0  0  0  0  0  0  0  0  0  0  0  0
  141.8678   73.5132  221.1872 H   0  0  0  0  0  0  0  0  0  0  0  0
  140.7686   74.5936  220.2749 H   0  0  0  0  0  0  0  0  0  0  0  0
  141.3327   73.4989  218.1927 H   0  0  0  0  0  0  0  0  0  0  0  0
  140.5400   71.1230  218.9730 H   0  0  0  0  0  0  0  0  0  0  0  0
  135.7650   73.4130  220.6910 H   0  0  0  0  0  0  0  0  0  0  0  0
  135.1832   75.4159  221.9056 H   0  0  0  0  0  0  0  0  0  0  0  0
  136.3940   74.9660  223.1287 H   0  0  0  0  0  0  0  0  0  0  0  0
  137.5189   75.7300  220.5053 H   0  0  0  0  0  0  0  0  0  0  0  0
  136.6015   77.0424  221.3816 H   0  0  0  0  0  0  0  0  0  0  0  0
  137.9337   76.4126  223.3737 H   0  0  0  0  0  0  0  0  0  0  0  0
  139.1519   77.8157  220.9678 H   0  0  0  0  0  0  0  0  0  0  0  0
  138.5423   78.5544  222.4182 H   0  0  0  0  0  0  0  0  0  0  0  0
  141.1950   78.0522  222.2695 H   0  0  0  0  0  0  0  0  0  0  0  0
  140.4510   77.6154  223.7780 H   0  0  0  0  0  0  0  0  0  0  0  0
  141.2056   75.8810  221.3978 H   0  0  0  0  0  0  0  0  0  0  0  0
  141.2257   75.4456  223.1254 H   0  0  0  0  0  0  0  0  0  0  0  0
  139.2060   74.5030  222.7790 H   0  0  0  0  0  0  0  0  0  0  0  0
  141.6032   71.4454  224.3590 H   0  0  0  0  0  0  0  0  0  0  0  0
  140.7046   72.9744  224.7309 H   0  0  0  0  0  0  0  0  0  0  0  0
  141.6649   71.7629  226.7298 H   0  0  0  0  0  0  0  0  0  0  0  0
  139.8857   72.1015  226.7770 H   0  0  0  0  0  0  0  0  0  0  0  0
  141.8478   69.7767  228.0567 H   0  0  0  0  0  0  0  0  0  0  0  0
  141.3112   67.3651  228.3379 H   0  0  0  0  0  0  0  0  0  0  0  0
  139.5489   66.3044  226.9228 H   0  0  0  0  0  0  0  0  0  0  0  0
  138.3704   67.7070  225.2579 H   0  0  0  0  0  0  0  0  0  0  0  0
  138.3689   69.6760  223.9124 H   0  0  0  0  0  0  0  0  0  0  0  0
  137.9020   70.8345  225.2518 H   0  0  0  0  0  0  0  0  0  0  0  0
  142.7945   71.2217  219.0678 H   0  0  0  0  0  0  0  0  0  0  0  0
  143.1209   72.4525  217.7591 H   0  0  0  0  0  0  0  0  0  0  0  0
  1  2  2  0
  2  3  1  0
  3  4  2  0
  4  5  1  0
  5  6  2  0
  5  7  1  0
  7  8  1  0
  8  9  1  0
  9 10  1  0
 10 11  1  0
 11 12  2  0
 12 13  1  0
 13 14  1  0
 14 15  1  0
 15 16  1  0
 16 17  1  0
 17 18  1  0
 18 19  1  0
 19 20  1  0
 20 21  1  0
 13 22  2  0
 22 23  1  0
 23 24  1  0
 24 25  1  0
 25 26  1  0
 26 27  1  0
 27 28  2  0
 28 29  1  0
 29 30  2  0
 30 31  1  0
 31 32  2  0
 32 33  1  0
 23 34  2  0
  9 35  1  0
  6  1  1  0
 34 11  1  0
 35  4  1  0
 21 17  1  0
 33 24  1  0
 32 27  1  0
  1 36  1  0
  2 37  1  0
  3 38  1  0
  6 39  1  0
  7 40  1  0
  7 41  1  0
  8 42  1  0
  8 43  1  0
  9 44  1  6
 10 45  1  0
 14 46  1  0
 15 47  1  0
 15 48  1  0
 16 49  1  0
 16 50  1  0
 17 51  1  1
 18 52  1  0
 18 53  1  0
 19 54  1  0
 19 55  1  0
 20 56  1  0
 20 57  1  0
 21 58  1  0
 25 59  1  0
 25 60  1  0
 26 61  1  0
 26 62  1  0
 28 63  1  0
 29 64  1  0
 30 65  1  0
 31 66  1  0
 33 67  1  0
 33 68  1  0
 35 69  1  0
 35 70  1  0
M  END
>  <smiles>  (39) 
c1ccc2c(c1)CCC(Nc1nc(NCCC3CCCN3)nc(N3CCc4ccccc4C3)n1)C2

>  <score_type>  (39) 
oracle

>  <origin>  (39) 
autodockgpu

>  <m_score__min__energy>  (39) 
-9.8699999999999992

>  <m_primary>  (39) 
energy

>  <rmsd>  (39) 
9.127499153719645

>  <m_score__min__rmsd>  (39) 
9.127499153719645

>  <meeko>  (39) 
{"free_energy": -8.42, "intermolecular_energy": -10.51, "internal_energy": -2.44, "cluster_size": 2, "cluster_id": 12, "rank_in_cluster": 1}

>  <energy>  (39) 
-8.02

>  <cluster_rmsd>  (39) 
1.95

>  <cluster>  (39) 
5

$$$$

     RDKit          3D

 70 75  0  0  1  0  0  0  0  0999 V2000
  141.8330   81.2830  224.0290 C   0  0  0  0  0  0  0  0  0  0  0  0
  143.0380   80.8150  223.5080 C   0  0  0  0  0  0  0  0  0  0  0  0
  142.9480   79.7820  222.6060 C   0  0  0  0  0  0  0  0  0  0  0  0
  141.7630   79.2070  222.2090 C   0  0  0  0  0  0  0  0  0  0  0  0
  140.5980   79.7000  222.7500 C   0  0  0  0  0  0  0  0  0  0  0  0
  140.6160   80.7320  223.6560 C   0  0  0  0  0  0  0  0  0  0  0  0
  139.3280   79.0460  222.2930 C   0  0  0  0  0  0  0  0  0  0  0  0
  139.6390   77.5420  222.3540 C   0  0  0  0  0  0  0  0  0  0  0  0
  140.6230   77.2040  221.2600 C   0  0  2  0  0  0  0  0  0  0  0  0
  141.0250   75.8120  221.4380 N   0  0  0  0  0  0  0  0  0  0  0  0
  140.1110   74.7490  221.4410 C   0  0  0  0  0  0  0  0  0  0  0  0
  139.0920   74.6070  220.5870 N   0  0  0  0  0  0  0  0  0  0  0  0
  138.2220   73.5820  220.6000 C   0  0  0  0  0  0  0  0  0  0  0  0
  137.1490   73.4820  219.6580 N   0  0  0  0  0  0  0  0  0  0  0  0
  136.4040   74.6690  219.2290 C   0  0  0  0  0  0  0  0  0  0  0  0
  136.0830   75.4510  220.4550 C   0  0  0  0  0  0  0  0  0  0  0  0
  135.6790   74.5880  221.6260 C   0  0  2  0  0  0  0  0  0  0  0  0
  134.3170   74.8870  222.1670 C   0  0  0  0  0  0  0  0  0  0  0  0
  134.4120   74.2680  223.5570 C   0  0  0  0  0  0  0  0  0  0  0  0
  135.8220   74.6530  223.9490 C   0  0  0  0  0  0  0  0  0  0  0  0
  136.5810   74.7880  222.7450 N   0  0  0  0  0  0  0  0  0  0  0  0
  138.3920   72.6190  221.5510 N   0  0  0  0  0  0  0  0  0  0  0  0
  139.4130   72.7170  222.4430 C   0  0  0  0  0  0  0  0  0  0  0  0
  139.5920   71.7100  223.4330 N   0  0  0  0  0  0  0  0  0  0  0  0
  138.6560   70.6110  223.4990 C   0  0  0  0  0  0  0  0  0  0  0  0
  139.2150   69.4490  224.2920 C   0  0  0  0  0  0  0  0  0  0  0  0
  139.7640   69.8950  225.5960 C   0  0  0  0  0  0  0  0  0  0  0  0
  139.5710   69.1980  226.7670 C   0  0  0  0  0  0  0  0  0  0  0  0
  140.1090   69.6590  227.9700 C   0  0  0  0  0  0  0  0  0  0  0  0
  140.8440   70.8250  228.0020 C   0  0  0  0  0  0  0  0  0  0  0  0
  141.0200   71.5010  226.8110 C   0  0  0  0  0  0  0  0  0  0  0  0
  140.4960   71.0600  225.6140 C   0  0  0  0  0  0  0  0  0  0  0  0
  140.6980   71.8000  224.3510 C   0  0  0  0  0  0  0  0  0  0  0  0
  140.2420   73.7630  222.3740 N   0  0  0  0  0  0  0  0  0  0  0  0
  141.8270   78.1020  221.2280 C   0  0  0  0  0  0  0  0  0  0  0  0
  141.8475   82.1100  224.7542 H   0  0  0  0  0  0  0  0  0  0  0  0
  144.0057   81.2477  223.8019 H   0  0  0  0  0  0  0  0  0  0  0  0
  143.8813   79.3908  222.1748 H   0  0  0  0  0  0  0  0  0  0  0  0
  139.6770   81.1168  224.0805 H   0  0  0  0  0  0  0  0  0  0  0  0
  138.4943   79.3001  222.9641 H   0  0  0  0  0  0  0  0  0  0  0  0
  139.0216   79.3737  221.2887 H   0  0  0  0  0  0  0  0  0  0  0  0
  140.0750   77.2940  223.3330 H   0  0  0  0  0  0  0  0  0  0  0  0
  138.7138   76.9631  222.2165 H   0  0  0  0  0  0  0  0  0  0  0  0
  140.1244   77.3588  220.2918 H   0  0  0  0  0  0  0  0  0  0  0  0
  142.0430   75.6240  221.5690 H   0  0  0  0  0  0  0  0  0  0  0  0
  136.9390   72.5300  219.3050 H   0  0  0  0  0  0  0  0  0  0  0  0
  137.0185   75.2737  218.5458 H   0  0  0  0  0  0  0  0  0  0  0  0
  135.4857   74.3832  218.6952 H   0  0  0  0  0  0  0  0  0  0  0  0
  136.9718   76.0328  220.7405 H   0  0  0  0  0  0  0  0  0  0  0  0
  135.2248   76.0956  220.2144 H   0  0  0  0  0  0  0  0  0  0  0  0
  135.7031   73.5644  221.2240 H   0  0  0  0  0  0  0  0  0  0  0  0
  134.1322   75.9701  222.2192 H   0  0  0  0  0  0  0  0  0  0  0  0
  133.4907   74.4982  221.5537 H   0  0  0  0  0  0  0  0  0  0  0  0
  133.6695   74.7008  224.2435 H   0  0  0  0  0  0  0  0  0  0  0  0
  134.2125   73.1866  223.5863 H   0  0  0  0  0  0  0  0  0  0  0  0
  135.8125   75.6073  224.4960 H   0  0  0  0  0  0  0  0  0  0  0  0
  136.2652   73.8873  224.6026 H   0  0  0  0  0  0  0  0  0  0  0  0
  137.4380   74.2110  222.7040 H   0  0  0  0  0  0  0  0  0  0  0  0
  137.7302   70.9591  223.9804 H   0  0  0  0  0  0  0  0  0  0  0  0
  138.4597   70.2646  222.4736 H   0  0  0  0  0  0  0  0  0  0  0  0
  138.4112   68.7202  224.4730 H   0  0  0  0  0  0  0  0  0  0  0  0
  140.0313   68.9953  223.7108 H   0  0  0  0  0  0  0  0  0  0  0  0
  138.9859   68.2666  226.7549 H   0  0  0  0  0  0  0  0  0  0  0  0
  139.9457   69.0892  228.8967 H   0  0  0  0  0  0  0  0  0  0  0  0
  141.2741   71.2027  228.9413 H   0  0  0  0  0  0  0  0  0  0  0  0
  141.6043   72.4330  226.8172 H   0  0  0  0  0  0  0  0  0  0  0  0
  140.8596   72.8606  224.5942 H   0  0  0  0  0  0  0  0  0  0  0  0
  141.5637   71.3420  223.8502 H   0  0  0  0  0  0  0  0  0  0  0  0
  142.7195   77.4961  221.4433 H   0  0  0  0  0  0  0  0  0  0  0  0
  141.8649   78.5581  220.2277 H   0  0  0  0  0  0  0  0  0  0  0  0
  1  2  2  0
  2  3  1  0
  3  4  2  0
  4  5  1  0
  5  6  2  0
  5  7  1  0
  7  8  1  0
  8  9  1  0
  9 10  1  0
 10 11  1  0
 11 12  2  0
 12 13  1  0
 13 14  1  0
 14 15  1  0
 15 16  1  0
 16 17  1  0
 17 18  1  0
 18 19  1  0
 19 20  1  0
 20 21  1  0
 13 22  2  0
 22 23  1  0
 23 24  1  0
 24 25  1  0
 25 26  1  0
 26 27  1  0
 27 28  2  0
 28 29  1  0
 29 30  2  0
 30 31  1  0
 31 32  2  0
 32 33  1  0
 23 34  2  0
  9 35  1  0
  6  1  1  0
 34 11  1  0
 35  4  1  0
 21 17  1  0
 33 24  1  0
 32 27  1  0
  1 36  1  0
  2 37  1  0
  3 38  1  0
  6 39  1  0
  7 40  1  0
  7 41  1  0
  8 42  1  0
  8 43  1  0
  9 44  1  6
 10 45  1  0
 14 46  1  0
 15 47  1  0
 15 48  1  0
 16 49  1  0
 16 50  1  0
 17 51  1  6
 18 52  1  0
 18 53  1  0
 19 54  1  0
 19 55  1  0
 20 56  1  0
 20 57  1  0
 21 58  1  0
 25 59  1  0
 25 60  1  0
 26 61  1  0
 26 62  1  0
 28 63  1  0
 29 64  1  0
 30 65  1  0
 31 66  1  0
 33 67  1  0
 33 68  1  0
 35 69  1  0
 35 70  1  0
M  END
>  <smiles>  (40) 
c1ccc2c(c1)CCC(Nc1nc(NCCC3CCCN3)nc(N3CCc4ccccc4C3)n1)C2

>  <score_type>  (40) 
oracle

>  <origin>  (40) 
autodockgpu

>  <m_score__min__energy>  (40) 
-9.8699999999999992

>  <m_primary>  (40) 
energy

>  <rmsd>  (40) 
4.228328582301283

>  <m_score__min__rmsd>  (40) 
4.228328582301283

>  <meeko>  (40) 
{"free_energy": -9.52, "intermolecular_energy": -11.6, "internal_energy": -2.18, "cluster_size": 17, "cluster_id": 2, "rank_in_cluster": 7}

>  <energy>  (40) 
-9.22

>  <cluster_rmsd>  (40) 
0.0

>  <cluster>  (40) 
6

$$$$

     RDKit          3D

 70 75  0  0  1  0  0  0  0  0999 V2000
  137.7830   80.3900  223.3760 C   0  0  0  0  0  0  0  0  0  0  0  0
  138.8160   80.1360  224.2750 C   0  0  0  0  0  0  0  0  0  0  0  0
  139.8590   79.3760  223.8010 C   0  0  0  0  0  0  0  0  0  0  0  0
  139.9260   78.8710  222.5230 C   0  0  0  0  0  0  0  0  0  0  0  0
  138.8830   79.1470  221.6700 C   0  0  0  0  0  0  0  0  0  0  0  0
  137.8100   79.9010  222.0780 C   0  0  0  0  0  0  0  0  0  0  0  0
  138.9930   78.5790  220.2860 C   0  0  0  0  0  0  0  0  0  0  0  0
  139.4500   77.1290  220.5130 C   0  0  0  0  0  0  0  0  0  0  0  0
  140.8780   77.1410  221.0030 C   0  0  2  0  0  0  0  0  0  0  0  0
  141.2360   75.7720  221.3640 N   0  0  0  0  0  0  0  0  0  0  0  0
  140.3230   74.7090  221.3200 C   0  0  0  0  0  0  0  0  0  0  0  0
  139.4170   74.5120  220.3570 N   0  0  0  0  0  0  0  0  0  0  0  0
  138.5470   73.4870  220.3260 C   0  0  0  0  0  0  0  0  0  0  0  0
  137.5980   73.3250  219.2670 N   0  0  0  0  0  0  0  0  0  0  0  0
  136.1610   73.4930  219.5040 C   0  0  0  0  0  0  0  0  0  0  0  0
  135.9720   74.8420  220.1090 C   0  0  0  0  0  0  0  0  0  0  0  0
  136.0500   74.8370  221.6170 C   0  0  2  0  0  0  0  0  0  0  0  0
  135.0450   75.7190  222.2860 C   0  0  0  0  0  0  0  0  0  0  0  0
  135.6790   75.8930  223.6620 C   0  0  0  0  0  0  0  0  0  0  0  0
  137.1390   76.0320  223.2920 C   0  0  0  0  0  0  0  0  0  0  0  0
  137.3400   75.3300  222.0640 N   0  0  0  0  0  0  0  0  0  0  0  0
  138.5930   72.5860  221.3490 N   0  0  0  0  0  0  0  0  0  0  0  0
  139.4970   72.7420  222.3520 C   0  0  0  0  0  0  0  0  0  0  0  0
  139.5470   71.7990  223.4170 N   0  0  0  0  0  0  0  0  0  0  0  0
  138.4520   70.8730  223.5920 C   0  0  0  0  0  0  0  0  0  0  0  0
  138.8470   69.7010  224.4660 C   0  0  0  0  0  0  0  0  0  0  0  0
  139.5010   70.1530  225.7170 C   0  0  0  0  0  0  0  0  0  0  0  0
  139.2400   69.5890  226.9450 C   0  0  0  0  0  0  0  0  0  0  0  0
  139.8830   70.0490  228.0960 C   0  0  0  0  0  0  0  0  0  0  0  0
  140.7940   71.0810  228.0170 C   0  0  0  0  0  0  0  0  0  0  0  0
  141.0350   71.6260  226.7710 C   0  0  0  0  0  0  0  0  0  0  0  0
  140.4090   71.1840  225.6250 C   0  0  0  0  0  0  0  0  0  0  0  0
  140.6830   71.7820  224.3020 C   0  0  0  0  0  0  0  0  0  0  0  0
  140.3330   73.7840  222.3220 N   0  0  0  0  0  0  0  0  0  0  0  0
  141.1150   78.0720  222.1590 C   0  0  0  0  0  0  0  0  0  0  0  0
  136.9238   80.9937  223.7035 H   0  0  0  0  0  0  0  0  0  0  0  0
  138.7984   80.5214  225.3051 H   0  0  0  0  0  0  0  0  0  0  0  0
  140.6916   79.1582  224.4861 H   0  0  0  0  0  0  0  0  0  0  0  0
  136.9830   80.1143  221.3848 H   0  0  0  0  0  0  0  0  0  0  0  0
  138.0199   78.6064  219.7738 H   0  0  0  0  0  0  0  0  0  0  0  0
  139.6880   79.1468  219.6499 H   0  0  0  0  0  0  0  0  0  0  0  0
  138.8049   76.6513  221.2651 H   0  0  0  0  0  0  0  0  0  0  0  0
  139.3821   76.5636  219.5719 H   0  0  0  0  0  0  0  0  0  0  0  0
  141.5149   77.5233  220.1917 H   0  0  0  0  0  0  0  0  0  0  0  0
  142.2210   75.6020  221.6660 H   0  0  0  0  0  0  0  0  0  0  0  0
  137.9880   73.0870  218.3370 H   0  0  0  0  0  0  0  0  0  0  0  0
  135.6113   73.4252  218.5536 H   0  0  0  0  0  0  0  0  0  0  0  0
  135.7796   72.7070  220.1724 H   0  0  0  0  0  0  0  0  0  0  0  0
  136.7542   75.5112  219.7212 H   0  0  0  0  0  0  0  0  0  0  0  0
  134.9622   75.1826  219.8363 H   0  0  0  0  0  0  0  0  0  0  0  0
  135.8646   73.7878  221.8906 H   0  0  0  0  0  0  0  0  0  0  0  0
  134.9420   76.6819  221.7642 H   0  0  0  0  0  0  0  0  0  0  0  0
  134.0245   75.3089  222.3060 H   0  0  0  0  0  0  0  0  0  0  0  0
  135.3032   76.7941  224.1688 H   0  0  0  0  0  0  0  0  0  0  0  0
  135.4657   75.0752  224.3661 H   0  0  0  0  0  0  0  0  0  0  0  0
  137.3943   77.0942  223.1634 H   0  0  0  0  0  0  0  0  0  0  0  0
  137.7803   75.6181  224.0841 H   0  0  0  0  0  0  0  0  0  0  0  0
  138.0810   74.6080  222.0910 H   0  0  0  0  0  0  0  0  0  0  0  0
  137.6096   71.4012  224.0625 H   0  0  0  0  0  0  0  0  0  0  0  0
  138.1688   70.4843  222.6027 H   0  0  0  0  0  0  0  0  0  0  0  0
  137.9450   69.1258  224.7218 H   0  0  0  0  0  0  0  0  0  0  0  0
  139.5623   69.0793  223.9075 H   0  0  0  0  0  0  0  0  0  0  0  0
  138.5153   68.7650  227.0208 H   0  0  0  0  0  0  0  0  0  0  0  0
  139.6619   69.5864  229.0692 H   0  0  0  0  0  0  0  0  0  0  0  0
  141.3098   71.4564  228.9132 H   0  0  0  0  0  0  0  0  0  0  0  0
  141.7592   72.4500  226.6894 H   0  0  0  0  0  0  0  0  0  0  0  0
  141.0176   72.8187  224.4543 H   0  0  0  0  0  0  0  0  0  0  0  0
  141.4486   71.1541  223.8229 H   0  0  0  0  0  0  0  0  0  0  0  0
  141.4140   77.4741  223.0325 H   0  0  0  0  0  0  0  0  0  0  0  0
  141.8993   78.7791  221.8508 H   0  0  0  0  0  0  0  0  0  0  0  0
  1  2  2  0
  2  3  1  0
  3  4  2  0
  4  5  1  0
  5  6  2  0
  5  7  1  0
  7  8  1  0
  8  9  1  0
  9 10  1  0
 10 11  1  0
 11 12  2  0
 12 13  1  0
 13 14  1  0
 14 15  1  0
 15 16  1  0
 16 17  1  0
 17 18  1  0
 18 19  1  0
 19 20  1  0
 20 21  1  0
 13 22  2  0
 22 23  1  0
 23 24  1  0
 24 25  1  0
 25 26  1  0
 26 27  1  0
 27 28  2  0
 28 29  1  0
 29 30  2  0
 30 31  1  0
 31 32  2  0
 32 33  1  0
 23 34  2  0
  9 35  1  0
  6  1  1  0
 34 11  1  0
 35  4  1  0
 21 17  1  0
 33 24  1  0
 32 27  1  0
  1 36  1  0
  2 37  1  0
  3 38  1  0
  6 39  1  0
  7 40  1  0
  7 41  1  0
  8 42  1  0
  8 43  1  0
  9 44  1  6
 10 45  1  0
 14 46  1  0
 15 47  1  0
 15 48  1  0
 16 49  1  0
 16 50  1  0
 17 51  1  1
 18 52  1  0
 18 53  1  0
 19 54  1  0
 19 55  1  0
 20 56  1  0
 20 57  1  0
 21 58  1  0
 25 59  1  0
 25 60  1  0
 26 61  1  0
 26 62  1  0
 28 63  1  0
 29 64  1  0
 30 65  1  0
 31 66  1  0
 33 67  1  0
 33 68  1  0
 35 69  1  0
 35 70  1  0
M  END
>  <smiles>  (41) 
c1ccc2c(c1)CCC(Nc1nc(NCCC3CCCN3)nc(N3CCc4ccccc4C3)n1)C2

>  <score_type>  (41) 
oracle

>  <origin>  (41) 
autodockgpu

>  <m_score__min__energy>  (41) 
-9.8699999999999992

>  <m_primary>  (41) 
energy

>  <rmsd>  (41) 
4.2397191584768485

>  <m_score__min__rmsd>  (41) 
4.2397191584768485

>  <meeko>  (41) 
{"free_energy": -7.86, "intermolecular_energy": -9.95, "internal_energy": -3.26, "cluster_size": 17, "cluster_id": 2, "rank_in_cluster": 17}

>  <energy>  (41) 
-8.62

>  <cluster_rmsd>  (41) 
1.87

>  <cluster>  (41) 
6

$$$$

     RDKit          3D

 70 75  0  0  1  0  0  0  0  0999 V2000
  145.8600   67.1860  219.3230 C   0  0  0  0  0  0  0  0  0  0  0  0
  144.7760   66.7350  218.5720 C   0  0  0  0  0  0  0  0  0  0  0  0
  143.9150   67.7010  218.1080 C   0  0  0  0  0  0  0  0  0  0  0  0
  144.0700   69.0480  218.3450 C   0  0  0  0  0  0  0  0  0  0  0  0
  145.1540   69.4480  219.0900 C   0  0  0  0  0  0  0  0  0  0  0  0
  146.0530   68.5340  219.5840 C   0  0  0  0  0  0  0  0  0  0  0  0
  145.2860   70.9230  219.3270 C   0  0  0  0  0  0  0  0  0  0  0  0
  143.8670   71.3680  219.7160 C   0  0  0  0  0  0  0  0  0  0  0  0
  142.9810   71.2850  218.4960 C   0  0  2  0  0  0  0  0  0  0  0  0
  141.6110   71.5550  218.9230 N   0  0  0  0  0  0  0  0  0  0  0  0
  141.3020   72.2000  220.1280 C   0  0  0  0  0  0  0  0  0  0  0  0
  141.2720   73.5250  220.3070 N   0  0  0  0  0  0  0  0  0  0  0  0
  140.9740   74.1320  221.4700 C   0  0  0  0  0  0  0  0  0  0  0  0
  140.9560   75.5570  221.6020 N   0  0  0  0  0  0  0  0  0  0  0  0
  139.7210   76.3210  221.4020 C   0  0  0  0  0  0  0  0  0  0  0  0
  139.5940   77.2570  222.5550 C   0  0  0  0  0  0  0  0  0  0  0  0
  140.9070   77.8740  222.9710 C   0  0  2  0  0  0  0  0  0  0  0  0
  140.7690   79.1470  223.7430 C   0  0  0  0  0  0  0  0  0  0  0  0
  142.1590   79.7490  223.5660 C   0  0  0  0  0  0  0  0  0  0  0  0
  142.4410   79.4060  222.1190 C   0  0  0  0  0  0  0  0  0  0  0  0
  141.7000   78.2240  221.8060 N   0  0  0  0  0  0  0  0  0  0  0  0
  140.6800   73.3400  222.5410 N   0  0  0  0  0  0  0  0  0  0  0  0
  140.6960   71.9870  222.4100 C   0  0  0  0  0  0  0  0  0  0  0  0
  140.3860   71.1610  223.5270 N   0  0  0  0  0  0  0  0  0  0  0  0
  139.1910   70.3490  223.4950 C   0  0  0  0  0  0  0  0  0  0  0  0
  139.2370   69.2480  224.5340 C   0  0  0  0  0  0  0  0  0  0  0  0
  139.6090   69.7760  225.8680 C   0  0  0  0  0  0  0  0  0  0  0  0
  138.9980   69.3690  227.0330 C   0  0  0  0  0  0  0  0  0  0  0  0
  139.3850   69.8950  228.2660 C   0  0  0  0  0  0  0  0  0  0  0  0
  140.3890   70.8370  228.3350 C   0  0  0  0  0  0  0  0  0  0  0  0
  140.9830   71.2260  227.1510 C   0  0  0  0  0  0  0  0  0  0  0  0
  140.6140   70.7160  225.9240 C   0  0  0  0  0  0  0  0  0  0  0  0
  141.2640   71.1470  224.6690 C   0  0  0  0  0  0  0  0  0  0  0  0
  141.0020   71.4480  221.2260 N   0  0  0  0  0  0  0  0  0  0  0  0
  143.0610   69.9670  217.7770 C   0  0  0  0  0  0  0  0  0  0  0  0
  146.5802   66.4545  219.7184 H   0  0  0  0  0  0  0  0  0  0  0  0
  144.6184   65.6667  218.3625 H   0  0  0  0  0  0  0  0  0  0  0  0
  143.0495   67.3778  217.5110 H   0  0  0  0  0  0  0  0  0  0  0  0
  146.9156   68.8677  220.1795 H   0  0  0  0  0  0  0  0  0  0  0  0
  145.9962   71.1256  220.1422 H   0  0  0  0  0  0  0  0  0  0  0  0
  145.6706   71.4595  218.4471 H   0  0  0  0  0  0  0  0  0  0  0  0
  143.4750   70.7076  220.5035 H   0  0  0  0  0  0  0  0  0  0  0  0
  143.8888   72.4010  220.0933 H   0  0  0  0  0  0  0  0  0  0  0  0
  143.3305   72.0310  217.7671 H   0  0  0  0  0  0  0  0  0  0  0  0
  140.8440   71.2440  218.2870 H   0  0  0  0  0  0  0  0  0  0  0  0
  141.8590   76.0040  221.8440 H   0  0  0  0  0  0  0  0  0  0  0  0
  139.7757   76.8872  220.4605 H   0  0  0  0  0  0  0  0  0  0  0  0
  138.8507   75.6508  221.3437 H   0  0  0  0  0  0  0  0  0  0  0  0
  138.9021   78.0648  222.2743 H   0  0  0  0  0  0  0  0  0  0  0  0
  139.2237   76.6722  223.4099 H   0  0  0  0  0  0  0  0  0  0  0  0
  141.3752   77.1049  223.6028 H   0  0  0  0  0  0  0  0  0  0  0  0
  139.9906   79.7960  223.3154 H   0  0  0  0  0  0  0  0  0  0  0  0
  140.4650   79.0101  224.7913 H   0  0  0  0  0  0  0  0  0  0  0  0
  142.1517   80.8368  223.7291 H   0  0  0  0  0  0  0  0  0  0  0  0
  142.9099   79.3718  224.2758 H   0  0  0  0  0  0  0  0  0  0  0  0
  142.1218   80.2330  221.4678 H   0  0  0  0  0  0  0  0  0  0  0  0
  143.5173   79.2418  221.9621 H   0  0  0  0  0  0  0  0  0  0  0  0
  142.2650   77.4440  221.4300 H   0  0  0  0  0  0  0  0  0  0  0  0
  138.3188   70.9896  223.6921 H   0  0  0  0  0  0  0  0  0  0  0  0
  139.1190   69.8819  222.5017 H   0  0  0  0  0  0  0  0  0  0  0  0
  138.2452   68.7768  224.5998 H   0  0  0  0  0  0  0  0  0  0  0  0
  139.9986   68.5157  224.2277 H   0  0  0  0  0  0  0  0  0  0  0  0
  138.1942   68.6193  226.9910 H   0  0  0  0  0  0  0  0  0  0  0  0
  138.8870   69.5567  229.1866 H   0  0  0  0  0  0  0  0  0  0  0  0
  140.7054   71.2633  229.2984 H   0  0  0  0  0  0  0  0  0  0  0  0
  141.7865   71.9763  227.1880 H   0  0  0  0  0  0  0  0  0  0  0  0
  141.6571   72.1639  224.8151 H   0  0  0  0  0  0  0  0  0  0  0  0
  142.0544   70.4132  224.4527 H   0  0  0  0  0  0  0  0  0  0  0  0
  142.0762   69.4800  217.8313 H   0  0  0  0  0  0  0  0  0  0  0  0
  143.3632   70.1804  216.7410 H   0  0  0  0  0  0  0  0  0  0  0  0
  1  2  2  0
  2  3  1  0
  3  4  2  0
  4  5  1  0
  5  6  2  0
  5  7  1  0
  7  8  1  0
  8  9  1  0
  9 10  1  0
 10 11  1  0
 11 12  2  0
 12 13  1  0
 13 14  1  0
 14 15  1  0
 15 16  1  0
 16 17  1  0
 17 18  1  0
 18 19  1  0
 19 20  1  0
 20 21  1  0
 13 22  2  0
 22 23  1  0
 23 24  1  0
 24 25  1  0
 25 26  1  0
 26 27  1  0
 27 28  2  0
 28 29  1  0
 29 30  2  0
 30 31  1  0
 31 32  2  0
 32 33  1  0
 23 34  2  0
  9 35  1  0
  6  1  1  0
 34 11  1  0
 35  4  1  0
 21 17  1  0
 33 24  1  0
 32 27  1  0
  1 36  1  0
  2 37  1  0
  3 38  1  0
  6 39  1  0
  7 40  1  0
  7 41  1  0
  8 42  1  0
  8 43  1  0
  9 44  1  6
 10 45  1  0
 14 46  1  0
 15 47  1  0
 15 48  1  0
 16 49  1  0
 16 50  1  0
 17 51  1  1
 18 52  1  0
 18 53  1  0
 19 54  1  0
 19 55  1  0
 20 56  1  0
 20 57  1  0
 21 58  1  0
 25 59  1  0
 25 60  1  0
 26 61  1  0
 26 62  1  0
 28 63  1  0
 29 64  1  0
 30 65  1  0
 31 66  1  0
 33 67  1  0
 33 68  1  0
 35 69  1  0
 35 70  1  0
M  END
>  <smiles>  (42) 
c1ccc2c(c1)CCC(Nc1nc(NCCC3CCCN3)nc(N3CCc4ccccc4C3)n1)C2

>  <score_type>  (42) 
oracle

>  <origin>  (42) 
autodockgpu

>  <m_score__min__energy>  (42) 
-9.8699999999999992

>  <m_primary>  (42) 
energy

>  <rmsd>  (42) 
12.467959129361073

>  <m_score__min__rmsd>  (42) 
12.467959129361073

>  <meeko>  (42) 
{"free_energy": -9.57, "intermolecular_energy": -11.65, "internal_energy": -1.48, "cluster_size": 1, "cluster_id": 4, "rank_in_cluster": 1}

>  <energy>  (42) 
-8.49

>  <cluster_rmsd>  (42) 
1.91

>  <cluster>  (42) 
6

$$$$

     RDKit          3D

 70 75  0  0  1  0  0  0  0  0999 V2000
  141.7230   81.1770  223.7640 C   0  0  0  0  0  0  0  0  0  0  0  0
  142.6420   80.1340  223.8580 C   0  0  0  0  0  0  0  0  0  0  0  0
  142.3240   78.9820  223.1780 C   0  0  0  0  0  0  0  0  0  0  0  0
  141.1760   78.8170  222.4370 C   0  0  0  0  0  0  0  0  0  0  0  0
  140.2980   79.8730  222.3720 C   0  0  0  0  0  0  0  0  0  0  0  0
  140.5550   81.0530  223.0270 C   0  0  0  0  0  0  0  0  0  0  0  0
  139.0600   79.6550  221.5550 C   0  0  0  0  0  0  0  0  0  0  0  0
  138.5710   78.2610  221.9810 C   0  0  0  0  0  0  0  0  0  0  0  0
  139.5330   77.2260  221.4490 C   0  0  2  0  0  0  0  0  0  0  0  0
  139.1410   75.9310  221.9990 N   0  0  0  0  0  0  0  0  0  0  0  0
  139.9120   74.7710  221.8420 C   0  0  0  0  0  0  0  0  0  0  0  0
  140.8240   74.5770  220.8840 N   0  0  0  0  0  0  0  0  0  0  0  0
  141.5580   73.4580  220.7440 C   0  0  0  0  0  0  0  0  0  0  0  0
  142.5220   73.3060  219.6970 N   0  0  0  0  0  0  0  0  0  0  0  0
  143.6050   74.2780  219.5180 C   0  0  0  0  0  0  0  0  0  0  0  0
  143.1980   75.1870  218.4090 C   0  0  0  0  0  0  0  0  0  0  0  0
  142.5010   76.4370  218.8880 C   0  0  2  0  0  0  0  0  0  0  0  0
  141.1810   76.6920  218.2320 C   0  0  0  0  0  0  0  0  0  0  0  0
  140.9960   78.1790  218.5140 C   0  0  0  0  0  0  0  0  0  0  0  0
  142.4050   78.6900  218.3070 C   0  0  0  0  0  0  0  0  0  0  0  0
  143.3000   77.6130  218.5950 N   0  0  0  0  0  0  0  0  0  0  0  0
  141.3580   72.4530  221.6440 N   0  0  0  0  0  0  0  0  0  0  0  0
  140.4430   72.6020  222.6380 C   0  0  0  0  0  0  0  0  0  0  0  0
  140.2370   71.5540  223.5790 N   0  0  0  0  0  0  0  0  0  0  0  0
  139.1880   70.5890  223.3420 C   0  0  0  0  0  0  0  0  0  0  0  0
  139.3800   69.3410  224.1790 C   0  0  0  0  0  0  0  0  0  0  0  0
  139.6270   69.6740  225.6020 C   0  0  0  0  0  0  0  0  0  0  0  0
  139.0570   68.9780  226.6450 C   0  0  0  0  0  0  0  0  0  0  0  0
  139.3210   69.3310  227.9690 C   0  0  0  0  0  0  0  0  0  0  0  0
  140.1610   70.3870  228.2540 C   0  0  0  0  0  0  0  0  0  0  0  0
  140.7170   71.0650  227.1880 C   0  0  0  0  0  0  0  0  0  0  0  0
  140.4670   70.7310  225.8730 C   0  0  0  0  0  0  0  0  0  0  0  0
  141.0740   71.4710  224.7480 C   0  0  0  0  0  0  0  0  0  0  0  0
  139.7470   73.7400  222.7190 N   0  0  0  0  0  0  0  0  0  0  0  0
  140.9740   77.5190  221.7600 C   0  0  0  0  0  0  0  0  0  0  0  0
  141.9291   82.1223  224.2874 H   0  0  0  0  0  0  0  0  0  0  0  0
  143.5690   80.2268  224.4428 H   0  0  0  0  0  0  0  0  0  0  0  0
  143.0306   78.1405  223.2294 H   0  0  0  0  0  0  0  0  0  0  0  0
  139.8429   81.8893  222.9675 H   0  0  0  0  0  0  0  0  0  0  0  0
  138.3030   80.4204  221.7811 H   0  0  0  0  0  0  0  0  0  0  0  0
  139.2499   79.7238  220.4737 H   0  0  0  0  0  0  0  0  0  0  0  0
  138.5335   78.2016  223.0788 H   0  0  0  0  0  0  0  0  0  0  0  0
  137.5639   78.0782  221.5781 H   0  0  0  0  0  0  0  0  0  0  0  0
  139.4706   77.2333  220.3508 H   0  0  0  0  0  0  0  0  0  0  0  0
  138.2430   75.8920  222.5290 H   0  0  0  0  0  0  0  0  0  0  0  0
  142.4060   72.4780  219.0860 H   0  0  0  0  0  0  0  0  0  0  0  0
  143.7520   74.8540  220.4435 H   0  0  0  0  0  0  0  0  0  0  0  0
  144.5518   73.7706  219.2813 H   0  0  0  0  0  0  0  0  0  0  0  0
  144.0987   75.4815  217.8504 H   0  0  0  0  0  0  0  0  0  0  0  0
  142.4831   74.6353  217.7808 H   0  0  0  0  0  0  0  0  0  0  0  0
  142.3550   76.2657  219.9647 H   0  0  0  0  0  0  0  0  0  0  0  0
  141.2210   76.4880  217.1518 H   0  0  0  0  0  0  0  0  0  0  0  0
  140.3623   76.0562  218.6001 H   0  0  0  0  0  0  0  0  0  0  0  0
  140.2912   78.6397  217.8062 H   0  0  0  0  0  0  0  0  0  0  0  0
  140.5734   78.4034  219.5045 H   0  0  0  0  0  0  0  0  0  0  0  0
  142.5359   79.0187  217.2655 H   0  0  0  0  0  0  0  0  0  0  0  0
  142.6065   79.5476  218.9658 H   0  0  0  0  0  0  0  0  0  0  0  0
  144.0180   77.8230  219.3100 H   0  0  0  0  0  0  0  0  0  0  0  0
  138.2196   71.0444  223.5967 H   0  0  0  0  0  0  0  0  0  0  0  0
  139.2189   70.3003  222.2810 H   0  0  0  0  0  0  0  0  0  0  0  0
  138.4742   68.7209  224.1091 H   0  0  0  0  0  0  0  0  0  0  0  0
  140.2564   68.7989  223.7943 H   0  0  0  0  0  0  0  0  0  0  0  0
  138.3854   68.1334  226.4316 H   0  0  0  0  0  0  0  0  0  0  0  0
  138.8568   68.7641  228.7895 H   0  0  0  0  0  0  0  0  0  0  0  0
  140.3797   70.6781  229.2920 H   0  0  0  0  0  0  0  0  0  0  0  0
  141.3899   71.9099  227.3964 H   0  0  0  0  0  0  0  0  0  0  0  0
  141.2963   72.4936  225.0870 H   0  0  0  0  0  0  0  0  0  0  0  0
  141.9765   70.9156  224.4531 H   0  0  0  0  0  0  0  0  0  0  0  0
  141.3590   76.7216  222.4127 H   0  0  0  0  0  0  0  0  0  0  0  0
  141.5102   77.5661  220.8007 H   0  0  0  0  0  0  0  0  0  0  0  0
  1  2  2  0
  2  3  1  0
  3  4  2  0
  4  5  1  0
  5  6  2  0
  5  7  1  0
  7  8  1  0
  8  9  1  0
  9 10  1  0
 10 11  1  0
 11 12  2  0
 12 13  1  0
 13 14  1  0
 14 15  1  0
 15 16  1  0
 16 17  1  0
 17 18  1  0
 18 19  1  0
 19 20  1  0
 20 21  1  0
 13 22  2  0
 22 23  1  0
 23 24  1  0
 24 25  1  0
 25 26  1  0
 26 27  1  0
 27 28  2  0
 28 29  1  0
 29 30  2  0
 30 31  1  0
 31 32  2  0
 32 33  1  0
 23 34  2  0
  9 35  1  0
  6  1  1  0
 34 11  1  0
 35  4  1  0
 21 17  1  0
 33 24  1  0
 32 27  1  0
  1 36  1  0
  2 37  1  0
  3 38  1  0
  6 39  1  0
  7 40  1  0
  7 41  1  0
  8 42  1  0
  8 43  1  0
  9 44  1  6
 10 45  1  0
 14 46  1  0
 15 47  1  0
 15 48  1  0
 16 49  1  0
 16 50  1  0
 17 51  1  1
 18 52  1  0
 18 53  1  0
 19 54  1  0
 19 55  1  0
 20 56  1  0
 20 57  1  0
 21 58  1  0
 25 59  1  0
 25 60  1  0
 26 61  1  0
 26 62  1  0
 28 63  1  0
 29 64  1  0
 30 65  1  0
 31 66  1  0
 33 67  1  0
 33 68  1  0
 35 69  1  0
 35 70  1  0
M  END
>  <smiles>  (43) 
c1ccc2c(c1)CCC(Nc1nc(NCCC3CCCN3)nc(N3CCc4ccccc4C3)n1)C2

>  <score_type>  (43) 
oracle

>  <origin>  (43) 
autodockgpu

>  <m_score__min__energy>  (43) 
-9.8699999999999992

>  <m_primary>  (43) 
energy

>  <rmsd>  (43) 
4.434340452898342

>  <m_score__min__rmsd>  (43) 
4.434340452898342

>  <meeko>  (43) 
{"free_energy": -9.43, "intermolecular_energy": -11.52, "internal_energy": -1.87, "cluster_size": 17, "cluster_id": 3, "rank_in_cluster": 3}

>  <energy>  (43) 
-9.14

>  <cluster_rmsd>  (43) 
0.0

>  <cluster>  (43) 
7

$$$$

     RDKit          3D

 70 75  0  0  1  0  0  0  0  0999 V2000
  142.8280   77.3290  217.1070 C   0  0  0  0  0  0  0  0  0  0  0  0
  142.9480   77.7120  218.4410 C   0  0  0  0  0  0  0  0  0  0  0  0
  143.3320   76.7290  219.3220 C   0  0  0  0  0  0  0  0  0  0  0  0
  143.5930   75.4280  218.9580 C   0  0  0  0  0  0  0  0  0  0  0  0
  143.4610   75.0940  217.6300 C   0  0  0  0  0  0  0  0  0  0  0  0
  143.0820   76.0280  216.6970 C   0  0  0  0  0  0  0  0  0  0  0  0
  143.7540   73.6670  217.2750 C   0  0  0  0  0  0  0  0  0  0  0  0
  143.0240   72.8550  218.3570 C   0  0  0  0  0  0  0  0  0  0  0  0
  143.7410   73.0440  219.6720 C   0  0  2  0  0  0  0  0  0  0  0  0
  142.9420   72.3990  220.7100 N   0  0  0  0  0  0  0  0  0  0  0  0
  141.7900   72.9810  221.2570 C   0  0  0  0  0  0  0  0  0  0  0  0
  140.7990   72.3110  221.8540 N   0  0  0  0  0  0  0  0  0  0  0  0
  139.6980   72.8820  222.3750 C   0  0  0  0  0  0  0  0  0  0  0  0
  138.6680   72.1130  223.0050 N   0  0  0  0  0  0  0  0  0  0  0  0
  138.4120   70.7240  222.6130 C   0  0  0  0  0  0  0  0  0  0  0  0
  138.4140   69.9100  223.8610 C   0  0  0  0  0  0  0  0  0  0  0  0
  139.7690   69.8290  224.5200 C   0  0  2  0  0  0  0  0  0  0  0  0
  139.7560   69.1960  225.8740 C   0  0  0  0  0  0  0  0  0  0  0  0
  141.0720   69.7060  226.4490 C   0  0  0  0  0  0  0  0  0  0  0  0
  141.0780   71.1310  225.9400 C   0  0  0  0  0  0  0  0  0  0  0  0
  140.3150   71.1580  224.7310 N   0  0  0  0  0  0  0  0  0  0  0  0
  139.5870   74.2390  222.2900 N   0  0  0  0  0  0  0  0  0  0  0  0
  140.5690   74.9650  221.6930 C   0  0  0  0  0  0  0  0  0  0  0  0
  140.4540   76.3810  221.6070 N   0  0  0  0  0  0  0  0  0  0  0  0
  139.9430   76.9760  220.3930 C   0  0  0  0  0  0  0  0  0  0  0  0
  139.4930   78.4040  220.6180 C   0  0  0  0  0  0  0  0  0  0  0  0
  140.5300   79.1950  221.3240 C   0  0  0  0  0  0  0  0  0  0  0  0
  140.8470   80.4900  220.9820 C   0  0  0  0  0  0  0  0  0  0  0  0
  141.8310   81.1930  221.6790 C   0  0  0  0  0  0  0  0  0  0  0  0
  142.5030   80.5970  222.7250 C   0  0  0  0  0  0  0  0  0  0  0  0
  142.1630   79.2980  223.0440 C   0  0  0  0  0  0  0  0  0  0  0  0
  141.1940   78.5880  222.3670 C   0  0  0  0  0  0  0  0  0  0  0  0
  140.8460   77.1970  222.7260 C   0  0  0  0  0  0  0  0  0  0  0  0
  141.6360   74.3350  221.1950 N   0  0  0  0  0  0  0  0  0  0  0  0
  143.9990   74.4830  220.0210 C   0  0  0  0  0  0  0  0  0  0  0  0
  142.5242   78.0769  216.3598 H   0  0  0  0  0  0  0  0  0  0  0  0
  142.7470   78.7420  218.7706 H   0  0  0  0  0  0  0  0  0  0  0  0
  143.4371   76.9991  220.3831 H   0  0  0  0  0  0  0  0  0  0  0  0
  142.9811   75.7481  215.6380 H   0  0  0  0  0  0  0  0  0  0  0  0
  143.3639   73.4251  216.2753 H   0  0  0  0  0  0  0  0  0  0  0  0
  144.8324   73.4528  217.2415 H   0  0  0  0  0  0  0  0  0  0  0  0
  141.9862   73.2082  218.4474 H   0  0  0  0  0  0  0  0  0  0  0  0
  143.0170   71.7894  218.0843 H   0  0  0  0  0  0  0  0  0  0  0  0
  144.7377   72.5864  219.5876 H   0  0  0  0  0  0  0  0  0  0  0  0
  143.2630   71.4640  221.0440 H   0  0  0  0  0  0  0  0  0  0  0  0
  138.1250   72.5960  223.7430 H   0  0  0  0  0  0  0  0  0  0  0  0
  137.4350   70.6467  222.1135 H   0  0  0  0  0  0  0  0  0  0  0  0
  139.1800   70.3670  221.9111 H   0  0  0  0  0  0  0  0  0  0  0  0
  137.7063   70.3605  224.5725 H   0  0  0  0  0  0  0  0  0  0  0  0
  138.1264   68.8857  223.5817 H   0  0  0  0  0  0  0  0  0  0  0  0
  140.3659   69.2156  223.8290 H   0  0  0  0  0  0  0  0  0  0  0  0
  138.8964   69.5361  226.4702 H   0  0  0  0  0  0  0  0  0  0  0  0
  139.6628   68.1000  225.8602 H   0  0  0  0  0  0  0  0  0  0  0  0
  141.0732   69.6700  227.5484 H   0  0  0  0  0  0  0  0  0  0  0  0
  141.9532   69.1165  226.1557 H   0  0  0  0  0  0  0  0  0  0  0  0
  140.6228   71.7985  226.6865 H   0  0  0  0  0  0  0  0  0  0  0  0
  142.1073   71.4729  225.7566 H   0  0  0  0  0  0  0  0  0  0  0  0
  140.8130   71.5440  223.9110 H   0  0  0  0  0  0  0  0  0  0  0  0
  140.7357   76.9676  219.6304 H   0  0  0  0  0  0  0  0  0  0  0  0
  139.0731   76.3895  220.0624 H   0  0  0  0  0  0  0  0  0  0  0  0
  139.2879   78.8720  219.6439 H   0  0  0  0  0  0  0  0  0  0  0  0
  138.5873   78.3866  221.2421 H   0  0  0  0  0  0  0  0  0  0  0  0
  140.3184   80.9769  220.1492 H   0  0  0  0  0  0  0  0  0  0  0  0
  142.0714   82.2274  221.3924 H   0  0  0  0  0  0  0  0  0  0  0  0
  143.2812   81.1368  223.2845 H   0  0  0  0  0  0  0  0  0  0  0  0
  142.6888   78.8068  223.8760 H   0  0  0  0  0  0  0  0  0  0  0  0
  141.7231   76.7333  223.2011 H   0  0  0  0  0  0  0  0  0  0  0  0
  139.9771   77.2512  223.3984 H   0  0  0  0  0  0  0  0  0  0  0  0
  143.4384   74.7257  220.9358 H   0  0  0  0  0  0  0  0  0  0  0  0
  145.0849   74.5942  220.1565 H   0  0  0  0  0  0  0  0  0  0  0  0
  1  2  2  0
  2  3  1  0
  3  4  2  0
  4  5  1  0
  5  6  2  0
  5  7  1  0
  7  8  1  0
  8  9  1  0
  9 10  1  0
 10 11  1  0
 11 12  2  0
 12 13  1  0
 13 14  1  0
 14 15  1  0
 15 16  1  0
 16 17  1  0
 17 18  1  0
 18 19  1  0
 19 20  1  0
 20 21  1  0
 13 22  2  0
 22 23  1  0
 23 24  1  0
 24 25  1  0
 25 26  1  0
 26 27  1  0
 27 28  2  0
 28 29  1  0
 29 30  2  0
 30 31  1  0
 31 32  2  0
 32 33  1  0
 23 34  2  0
  9 35  1  0
  6  1  1  0
 34 11  1  0
 35  4  1  0
 21 17  1  0
 33 24  1  0
 32 27  1  0
  1 36  1  0
  2 37  1  0
  3 38  1  0
  6 39  1  0
  7 40  1  0
  7 41  1  0
  8 42  1  0
  8 43  1  0
  9 44  1  6
 10 45  1  0
 14 46  1  0
 15 47  1  0
 15 48  1  0
 16 49  1  0
 16 50  1  0
 17 51  1  6
 18 52  1  0
 18 53  1  0
 19 54  1  0
 19 55  1  0
 20 56  1  0
 20 57  1  0
 21 58  1  0
 25 59  1  0
 25 60  1  0
 26 61  1  0
 26 62  1  0
 28 63  1  0
 29 64  1  0
 30 65  1  0
 31 66  1  0
 33 67  1  0
 33 68  1  0
 35 69  1  0
 35 70  1  0
M  END
>  <smiles>  (44) 
c1ccc2c(c1)CCC(Nc1nc(NCCC3CCCN3)nc(N3CCc4ccccc4C3)n1)C2

>  <score_type>  (44) 
oracle

>  <origin>  (44) 
autodockgpu

>  <m_score__min__energy>  (44) 
-9.8699999999999992

>  <m_primary>  (44) 
energy

>  <rmsd>  (44) 
7.387679099388974

>  <m_score__min__rmsd>  (44) 
7.387679099388974

>  <meeko>  (44) 
{"free_energy": -8.52, "intermolecular_energy": -10.61, "internal_energy": -2.3, "cluster_size": 1, "cluster_id": 11, "rank_in_cluster": 1}

>  <energy>  (44) 
-9.0

>  <cluster_rmsd>  (44) 
0.0

>  <cluster>  (44) 
8

$$$$

     RDKit          3D

 70 75  0  0  1  0  0  0  0  0999 V2000
  139.1510   66.4320  221.9260 C   0  0  0  0  0  0  0  0  0  0  0  0
  138.0240   67.1770  222.2630 C   0  0  0  0  0  0  0  0  0  0  0  0
  137.7060   68.2140  221.4180 C   0  0  0  0  0  0  0  0  0  0  0  0
  138.4290   68.5380  220.2920 C   0  0  0  0  0  0  0  0  0  0  0  0
  139.5340   67.7760  219.9980 C   0  0  0  0  0  0  0  0  0  0  0  0
  139.9070   66.7250  220.8000 C   0  0  0  0  0  0  0  0  0  0  0  0
  140.2950   68.1620  218.7650 C   0  0  0  0  0  0  0  0  0  0  0  0
  140.4070   69.6920  218.8580 C   0  0  0  0  0  0  0  0  0  0  0  0
  139.0410   70.2940  218.6330 C   0  0  2  0  0  0  0  0  0  0  0  0
  139.1410   71.7290  218.8850 N   0  0  0  0  0  0  0  0  0  0  0  0
  139.7360   72.2600  220.0380 C   0  0  0  0  0  0  0  0  0  0  0  0
  140.3700   73.4350  220.1050 N   0  0  0  0  0  0  0  0  0  0  0  0
  140.9370   73.9340  221.2180 C   0  0  0  0  0  0  0  0  0  0  0  0
  141.6030   75.2010  221.2300 N   0  0  0  0  0  0  0  0  0  0  0  0
  141.9570   75.8840  219.9820 C   0  0  0  0  0  0  0  0  0  0  0  0
  143.3530   75.4870  219.6470 C   0  0  0  0  0  0  0  0  0  0  0  0
  143.8300   74.2760  220.4120 C   0  0  2  0  0  0  0  0  0  0  0  0
  145.3170   74.1380  220.4780 C   0  0  0  0  0  0  0  0  0  0  0  0
  145.4600   72.6600  220.8240 C   0  0  0  0  0  0  0  0  0  0  0  0
  144.3720   72.0550  219.9650 C   0  0  0  0  0  0  0  0  0  0  0  0
  143.3670   73.0550  219.7770 N   0  0  0  0  0  0  0  0  0  0  0  0
  140.8590   73.1890  222.3570 N   0  0  0  0  0  0  0  0  0  0  0  0
  140.2240   71.9860  222.3410 C   0  0  0  0  0  0  0  0  0  0  0  0
  140.1400   71.2110  223.5310 N   0  0  0  0  0  0  0  0  0  0  0  0
  139.1520   70.1610  223.6210 C   0  0  0  0  0  0  0  0  0  0  0  0
  139.4720   69.1880  224.7370 C   0  0  0  0  0  0  0  0  0  0  0  0
  139.7640   69.8940  226.0070 C   0  0  0  0  0  0  0  0  0  0  0  0
  139.2970   69.4640  227.2280 C   0  0  0  0  0  0  0  0  0  0  0  0
  139.6000   70.1640  228.3970 C   0  0  0  0  0  0  0  0  0  0  0  0
  140.3760   71.3030  228.3440 C   0  0  0  0  0  0  0  0  0  0  0  0
  140.8290   71.7090  227.1050 C   0  0  0  0  0  0  0  0  0  0  0  0
  140.5400   71.0290  225.9400 C   0  0  0  0  0  0  0  0  0  0  0  0
  141.0370   71.4830  224.6250 C   0  0  0  0  0  0  0  0  0  0  0  0
  139.6820   71.5490  221.2010 N   0  0  0  0  0  0  0  0  0  0  0  0
  137.9610   69.6820  219.4800 C   0  0  0  0  0  0  0  0  0  0  0  0
  139.4494   65.5903  222.5683 H   0  0  0  0  0  0  0  0  0  0  0  0
  137.4220   66.9488  223.1549 H   0  0  0  0  0  0  0  0  0  0  0  0
  136.8204   68.8215  221.6560 H   0  0  0  0  0  0  0  0  0  0  0  0
  140.7939   66.1232  220.5527 H   0  0  0  0  0  0  0  0  0  0  0  0
  141.2919   67.6970  218.7597 H   0  0  0  0  0  0  0  0  0  0  0  0
  139.7987   67.8302  217.8411 H   0  0  0  0  0  0  0  0  0  0  0  0
  140.7766   69.9758  219.8544 H   0  0  0  0  0  0  0  0  0  0  0  0
  141.1089   70.0625  218.0964 H   0  0  0  0  0  0  0  0  0  0  0  0
  138.7423   70.0869  217.5948 H   0  0  0  0  0  0  0  0  0  0  0  0
  138.7440   72.3680  218.1620 H   0  0  0  0  0  0  0  0  0  0  0  0
  141.8130   75.5970  222.1650 H   0  0  0  0  0  0  0  0  0  0  0  0
  141.2736   75.5768  219.1766 H   0  0  0  0  0  0  0  0  0  0  0  0
  141.8766   76.9751  220.0961 H   0  0  0  0  0  0  0  0  0  0  0  0
  143.4034   75.2625  218.5713 H   0  0  0  0  0  0  0  0  0  0  0  0
  144.0062   76.3267  219.9266 H   0  0  0  0  0  0  0  0  0  0  0  0
  143.4252   74.4234  221.4241 H   0  0  0  0  0  0  0  0  0  0  0  0
  145.7873   74.3736  219.5119 H   0  0  0  0  0  0  0  0  0  0  0  0
  145.8032   74.8188  221.1922 H   0  0  0  0  0  0  0  0  0  0  0  0
  146.4529   72.2750  220.5485 H   0  0  0  0  0  0  0  0  0  0  0  0
  145.3681   72.4348  221.8968 H   0  0  0  0  0  0  0  0  0  0  0  0
  144.7865   71.7516  218.9923 H   0  0  0  0  0  0  0  0  0  0  0  0
  143.9462   71.1640  220.4496 H   0  0  0  0  0  0  0  0  0  0  0  0
  142.4130   72.7700  220.0570 H   0  0  0  0  0  0  0  0  0  0  0  0
  138.1675   70.6127  223.8127 H   0  0  0  0  0  0  0  0  0  0  0  0
  139.1517   69.6066  222.6709 H   0  0  0  0  0  0  0  0  0  0  0  0
  138.6098   68.5220  224.8885 H   0  0  0  0  0  0  0  0  0  0  0  0
  140.3648   68.6139  224.4485 H   0  0  0  0  0  0  0  0  0  0  0  0
  138.6770   68.5571  227.2834 H   0  0  0  0  0  0  0  0  0  0  0  0
  139.2183   69.8058  229.3645 H   0  0  0  0  0  0  0  0  0  0  0  0
  140.6246   71.8668  229.2552 H   0  0  0  0  0  0  0  0  0  0  0  0
  141.4485   72.6159  227.0437 H   0  0  0  0  0  0  0  0  0  0  0  0
  141.2020   72.5694  224.6744 H   0  0  0  0  0  0  0  0  0  0  0  0
  141.9613   70.9215  224.4243 H   0  0  0  0  0  0  0  0  0  0  0  0
  137.5702   70.4545  220.1586 H   0  0  0  0  0  0  0  0  0  0  0  0
  137.1888   69.3003  218.7959 H   0  0  0  0  0  0  0  0  0  0  0  0
  1  2  2  0
  2  3  1  0
  3  4  2  0
  4  5  1  0
  5  6  2  0
  5  7  1  0
  7  8  1  0
  8  9  1  0
  9 10  1  0
 10 11  1  0
 11 12  2  0
 12 13  1  0
 13 14  1  0
 14 15  1  0
 15 16  1  0
 16 17  1  0
 17 18  1  0
 18 19  1  0
 19 20  1  0
 20 21  1  0
 13 22  2  0
 22 23  1  0
 23 24  1  0
 24 25  1  0
 25 26  1  0
 26 27  1  0
 27 28  2  0
 28 29  1  0
 29 30  2  0
 30 31  1  0
 31 32  2  0
 32 33  1  0
 23 34  2  0
  9 35  1  0
  6  1  1  0
 34 11  1  0
 35  4  1  0
 21 17  1  0
 33 24  1  0
 32 27  1  0
  1 36  1  0
  2 37  1  0
  3 38  1  0
  6 39  1  0
  7 40  1  0
  7 41  1  0
  8 42  1  0
  8 43  1  0
  9 44  1  6
 10 45  1  0
 14 46  1  0
 15 47  1  0
 15 48  1  0
 16 49  1  0
 16 50  1  0
 17 51  1  1
 18 52  1  0
 18 53  1  0
 19 54  1  0
 19 55  1  0
 20 56  1  0
 20 57  1  0
 21 58  1  0
 25 59  1  0
 25 60  1  0
 26 61  1  0
 26 62  1  0
 28 63  1  0
 29 64  1  0
 30 65  1  0
 31 66  1  0
 33 67  1  0
 33 68  1  0
 35 69  1  0
 35 70  1  0
M  END
>  <smiles>  (45) 
c1ccc2c(c1)CCC(Nc1nc(NCCC3CCCN3)nc(N3CCc4ccccc4C3)n1)C2

>  <score_type>  (45) 
oracle

>  <origin>  (45) 
autodockgpu

>  <m_score__min__energy>  (45) 
-9.8699999999999992

>  <m_primary>  (45) 
energy

>  <rmsd>  (45) 
12.492862522012993

>  <m_score__min__rmsd>  (45) 
12.492862522012993

>  <meeko>  (45) 
{"free_energy": -7.68, "intermolecular_energy": -9.76, "internal_energy": -2.76, "cluster_size": 1, "cluster_id": 13, "rank_in_cluster": 1}

>  <energy>  (45) 
-8.92

>  <cluster_rmsd>  (45) 
0.0

>  <cluster>  (45) 
9

$$$$

     RDKit          3D

 70 75  0  0  1  0  0  0  0  0999 V2000
  140.0290   68.2700  227.0950 C   0  0  0  0  0  0  0  0  0  0  0  0
  141.0500   69.1970  227.2930 C   0  0  0  0  0  0  0  0  0  0  0  0
  141.0900   70.2530  226.4150 C   0  0  0  0  0  0  0  0  0  0  0  0
  140.1980   70.4300  225.3820 C   0  0  0  0  0  0  0  0  0  0  0  0
  139.2070   69.4900  225.2230 C   0  0  0  0  0  0  0  0  0  0  0  0
  139.1090   68.4100  226.0660 C   0  0  0  0  0  0  0  0  0  0  0  0
  138.2560   69.7170  224.0860 C   0  0  0  0  0  0  0  0  0  0  0  0
  139.1670   70.0950  222.9070 C   0  0  0  0  0  0  0  0  0  0  0  0
  139.7470   71.4650  223.1600 C   0  0  2  0  0  0  0  0  0  0  0  0
  140.7290   71.7330  222.1130 N   0  0  0  0  0  0  0  0  0  0  0  0
  140.7430   72.9190  221.3670 C   0  0  0  0  0  0  0  0  0  0  0  0
  141.0370   73.0070  220.0660 N   0  0  0  0  0  0  0  0  0  0  0  0
  141.0480   74.1530  219.3610 C   0  0  0  0  0  0  0  0  0  0  0  0
  141.3690   74.1860  217.9670 N   0  0  0  0  0  0  0  0  0  0  0  0
  141.9590   75.3790  217.3530 C   0  0  0  0  0  0  0  0  0  0  0  0
  143.0360   75.8550  218.2660 C   0  0  0  0  0  0  0  0  0  0  0  0
  143.0050   77.3450  218.5010 C   0  0  2  0  0  0  0  0  0  0  0  0
  141.8800   77.8050  219.3710 C   0  0  0  0  0  0  0  0  0  0  0  0
  141.8160   79.2860  219.0090 C   0  0  0  0  0  0  0  0  0  0  0  0
  142.0540   79.2290  217.5160 C   0  0  0  0  0  0  0  0  0  0  0  0
  142.8290   78.0580  217.2490 N   0  0  0  0  0  0  0  0  0  0  0  0
  140.7360   75.3050  220.0210 N   0  0  0  0  0  0  0  0  0  0  0  0
  140.4290   75.2690  221.3450 C   0  0  0  0  0  0  0  0  0  0  0  0
  140.1010   76.4710  222.0310 N   0  0  0  0  0  0  0  0  0  0  0  0
  138.7820   77.0400  221.8680 C   0  0  0  0  0  0  0  0  0  0  0  0
  138.4650   78.0370  222.9620 C   0  0  0  0  0  0  0  0  0  0  0  0
  139.5620   79.0190  223.1360 C   0  0  0  0  0  0  0  0  0  0  0  0
  139.3410   80.3630  223.3370 C   0  0  0  0  0  0  0  0  0  0  0  0
  140.4080   81.2480  223.4970 C   0  0  0  0  0  0  0  0  0  0  0  0
  141.7060   80.7860  223.4540 C   0  0  0  0  0  0  0  0  0  0  0  0
  141.8970   79.4340  223.2510 C   0  0  0  0  0  0  0  0  0  0  0  0
  140.8540   78.5460  223.0920 C   0  0  0  0  0  0  0  0  0  0  0  0
  141.0820   77.1010  222.8760 C   0  0  0  0  0  0  0  0  0  0  0  0
  140.4380   74.0960  221.9850 N   0  0  0  0  0  0  0  0  0  0  0  0
  140.3690   71.6190  224.5200 C   0  0  0  0  0  0  0  0  0  0  0  0
  139.9504   67.4059  227.7711 H   0  0  0  0  0  0  0  0  0  0  0  0
  141.7827   69.0895  228.1064 H   0  0  0  0  0  0  0  0  0  0  0  0
  141.8838   71.0032  226.5457 H   0  0  0  0  0  0  0  0  0  0  0  0
  138.3112   67.6655  225.9270 H   0  0  0  0  0  0  0  0  0  0  0  0
  137.6879   68.8018  223.8631 H   0  0  0  0  0  0  0  0  0  0  0  0
  137.5086   70.4929  224.3084 H   0  0  0  0  0  0  0  0  0  0  0  0
  139.9805   69.3599  222.8179 H   0  0  0  0  0  0  0  0  0  0  0  0
  138.5859   70.1019  221.9731 H   0  0  0  0  0  0  0  0  0  0  0  0
  138.9238   72.1943  223.1366 H   0  0  0  0  0  0  0  0  0  0  0  0
  141.4420   70.9930  221.9290 H   0  0  0  0  0  0  0  0  0  0  0  0
  141.1610   73.3240  217.4300 H   0  0  0  0  0  0  0  0  0  0  0  0
  142.3823   75.1270  216.3695 H   0  0  0  0  0  0  0  0  0  0  0  0
  141.1983   76.1596  217.2046 H   0  0  0  0  0  0  0  0  0  0  0  0
  142.9223   75.3465  219.2348 H   0  0  0  0  0  0  0  0  0  0  0  0
  143.9973   75.6213  217.7850 H   0  0  0  0  0  0  0  0  0  0  0  0
  143.9660   77.5574  218.9923 H   0  0  0  0  0  0  0  0  0  0  0  0
  140.9411   77.2881  219.1236 H   0  0  0  0  0  0  0  0  0  0  0  0
  142.0267   77.6070  220.4430 H   0  0  0  0  0  0  0  0  0  0  0  0
  140.8320   79.7173  219.2450 H   0  0  0  0  0  0  0  0  0  0  0  0
  142.5294   79.9182  219.5580 H   0  0  0  0  0  0  0  0  0  0  0  0
  141.0927   79.1725  216.9843 H   0  0  0  0  0  0  0  0  0  0  0  0
  142.5832   80.1304  217.1733 H   0  0  0  0  0  0  0  0  0  0  0  0
  143.7090   78.2270  216.7320 H   0  0  0  0  0  0  0  0  0  0  0  0
  138.7313   77.5501  220.8948 H   0  0  0  0  0  0  0  0  0  0  0  0
  138.0465   76.2239  221.9232 H   0  0  0  0  0  0  0  0  0  0  0  0
  137.5421   78.5748  222.6992 H   0  0  0  0  0  0  0  0  0  0  0  0
  138.3416   77.4862  223.9061 H   0  0  0  0  0  0  0  0  0  0  0  0
  138.3098   80.7442  223.3719 H   0  0  0  0  0  0  0  0  0  0  0  0
  140.2125   82.3184  223.6580 H   0  0  0  0  0  0  0  0  0  0  0  0
  142.5587   81.4699  223.5770 H   0  0  0  0  0  0  0  0  0  0  0  0
  142.9264   79.0480  223.2145 H   0  0  0  0  0  0  0  0  0  0  0  0
  142.0711   76.9729  222.4119 H   0  0  0  0  0  0  0  0  0  0  0  0
  141.0093   76.6176  223.8614 H   0  0  0  0  0  0  0  0  0  0  0  0
  141.4456   71.8049  224.3920 H   0  0  0  0  0  0  0  0  0  0  0  0
  139.8586   72.4569  225.0175 H   0  0  0  0  0  0  0  0  0  0  0  0
  1  2  2  0
  2  3  1  0
  3  4  2  0
  4  5  1  0
  5  6  2  0
  5  7  1  0
  7  8  1  0
  8  9  1  0
  9 10  1  0
 10 11  1  0
 11 12  2  0
 12 13  1  0
 13 14  1  0
 14 15  1  0
 15 16  1  0
 16 17  1  0
 17 18  1  0
 18 19  1  0
 19 20  1  0
 20 21  1  0
 13 22  2  0
 22 23  1  0
 23 24  1  0
 24 25  1  0
 25 26  1  0
 26 27  1  0
 27 28  2  0
 28 29  1  0
 29 30  2  0
 30 31  1  0
 31 32  2  0
 32 33  1  0
 23 34  2  0
  9 35  1  0
  6  1  1  0
 34 11  1  0
 35  4  1  0
 21 17  1  0
 33 24  1  0
 32 27  1  0
  1 36  1  0
  2 37  1  0
  3 38  1  0
  6 39  1  0
  7 40  1  0
  7 41  1  0
  8 42  1  0
  8 43  1  0
  9 44  1  1
 10 45  1  0
 14 46  1  0
 15 47  1  0
 15 48  1  0
 16 49  1  0
 16 50  1  0
 17 51  1  1
 18 52  1  0
 18 53  1  0
 19 54  1  0
 19 55  1  0
 20 56  1  0
 20 57  1  0
 21 58  1  0
 25 59  1  0
 25 60  1  0
 26 61  1  0
 26 62  1  0
 28 63  1  0
 29 64  1  0
 30 65  1  0
 31 66  1  0
 33 67  1  0
 33 68  1  0
 35 69  1  0
 35 70  1  0
M  END
>  <smiles>  (46) 
c1ccc2c(c1)CCC(Nc1nc(NCCC3CCCN3)nc(N3CCc4ccccc4C3)n1)C2

>  <score_type>  (46) 
oracle

>  <origin>  (46) 
autodockgpu

>  <m_score__min__energy>  (46) 
-9.8699999999999992

>  <m_primary>  (46) 
energy

>  <rmsd>  (46) 
11.763308745282167

>  <m_score__min__rmsd>  (46) 
11.763308745282167

>  <meeko>  (46) 
{"free_energy": -9.22, "intermolecular_energy": -11.31, "internal_energy": -1.53, "cluster_size": 3, "cluster_id": 6, "rank_in_cluster": 1}

>  <energy>  (46) 
-8.73

>  <cluster_rmsd>  (46) 
0.0

>  <cluster>  (46) 
10

$$$$

     RDKit          3D

 70 75  0  0  1  0  0  0  0  0999 V2000
  140.6380   81.5690  222.2970 C   0  0  0  0  0  0  0  0  0  0  0  0
  140.3170   80.9640  223.5100 C   0  0  0  0  0  0  0  0  0  0  0  0
  140.4840   79.6000  223.5700 C   0  0  0  0  0  0  0  0  0  0  0  0
  140.9360   78.8330  222.5210 C   0  0  0  0  0  0  0  0  0  0  0  0
  141.2410   79.4730  221.3430 C   0  0  0  0  0  0  0  0  0  0  0  0
  141.0980   80.8330  221.2150 C   0  0  0  0  0  0  0  0  0  0  0  0
  141.7300   78.6020  220.2240 C   0  0  0  0  0  0  0  0  0  0  0  0
  140.7650   77.4050  220.2330 C   0  0  0  0  0  0  0  0  0  0  0  0
  141.0310   76.5770  221.4670 C   0  0  2  0  0  0  0  0  0  0  0  0
  140.0010   75.5430  221.5380 N   0  0  0  0  0  0  0  0  0  0  0  0
  140.2810   74.1780  221.3870 C   0  0  0  0  0  0  0  0  0  0  0  0
  140.6760   73.5930  220.2510 N   0  0  0  0  0  0  0  0  0  0  0  0
  140.9410   72.2810  220.1200 C   0  0  0  0  0  0  0  0  0  0  0  0
  141.3630   71.7110  218.8770 N   0  0  0  0  0  0  0  0  0  0  0  0
  142.1600   70.4810  218.8400 C   0  0  0  0  0  0  0  0  0  0  0  0
  143.3200   70.6820  219.7530 C   0  0  0  0  0  0  0  0  0  0  0  0
  144.0320   71.9950  219.5340 C   0  0  2  0  0  0  0  0  0  0  0  0
  145.5230   71.8900  219.5320 C   0  0  0  0  0  0  0  0  0  0  0  0
  145.9190   73.3380  219.8020 C   0  0  0  0  0  0  0  0  0  0  0  0
  144.8810   73.7350  220.8270 C   0  0  0  0  0  0  0  0  0  0  0  0
  143.7220   72.9300  220.6000 N   0  0  0  0  0  0  0  0  0  0  0  0
  140.7960   71.4930  221.2230 N   0  0  0  0  0  0  0  0  0  0  0  0
  140.3960   72.0390  222.4020 C   0  0  0  0  0  0  0  0  0  0  0  0
  140.2490   71.2150  223.5530 N   0  0  0  0  0  0  0  0  0  0  0  0
  139.2700   70.1520  223.5410 C   0  0  0  0  0  0  0  0  0  0  0  0
  139.5340   69.1390  224.6340 C   0  0  0  0  0  0  0  0  0  0  0  0
  139.7380   69.7960  225.9470 C   0  0  0  0  0  0  0  0  0  0  0  0
  139.2030   69.3130  227.1190 C   0  0  0  0  0  0  0  0  0  0  0  0
  139.4250   69.9690  228.3310 C   0  0  0  0  0  0  0  0  0  0  0  0
  140.1890   71.1160  228.3710 C   0  0  0  0  0  0  0  0  0  0  0  0
  140.7120   71.5760  227.1790 C   0  0  0  0  0  0  0  0  0  0  0  0
  140.5030   70.9410  225.9730 C   0  0  0  0  0  0  0  0  0  0  0  0
  141.0740   71.4520  224.7090 C   0  0  0  0  0  0  0  0  0  0  0  0
  140.1490   73.3510  222.4630 N   0  0  0  0  0  0  0  0  0  0  0  0
  141.0650   77.3760  222.7390 C   0  0  0  0  0  0  0  0  0  0  0  0
  140.5238   82.6582  222.1946 H   0  0  0  0  0  0  0  0  0  0  0  0
  139.9511   81.5436  224.3703 H   0  0  0  0  0  0  0  0  0  0  0  0
  140.2413   79.0912  224.5146 H   0  0  0  0  0  0  0  0  0  0  0  0
  141.3451   81.3322  220.2665 H   0  0  0  0  0  0  0  0  0  0  0  0
  141.6813   79.1359  219.2635 H   0  0  0  0  0  0  0  0  0  0  0  0
  142.7799   78.2995  220.3517 H   0  0  0  0  0  0  0  0  0  0  0  0
  139.7264   77.7671  220.2472 H   0  0  0  0  0  0  0  0  0  0  0  0
  140.9185   76.7935  219.3316 H   0  0  0  0  0  0  0  0  0  0  0  0
  142.0366   76.1406  221.3759 H   0  0  0  0  0  0  0  0  0  0  0  0
  139.0210   75.8590  221.7080 H   0  0  0  0  0  0  0  0  0  0  0  0
  141.0730   72.2160  218.0200 H   0  0  0  0  0  0  0  0  0  0  0  0
  141.5543   69.6287  219.1817 H   0  0  0  0  0  0  0  0  0  0  0  0
  142.5006   70.2662  217.8163 H   0  0  0  0  0  0  0  0  0  0  0  0
  142.9569   70.6506  220.7909 H   0  0  0  0  0  0  0  0  0  0  0  0
  144.0431   69.8803  219.5423 H   0  0  0  0  0  0  0  0  0  0  0  0
  143.6807   72.3278  218.5461 H   0  0  0  0  0  0  0  0  0  0  0  0
  145.8814   71.2187  220.3263 H   0  0  0  0  0  0  0  0  0  0  0  0
  145.9460   71.4698  218.6076 H   0  0  0  0  0  0  0  0  0  0  0  0
  146.9378   73.4086  220.2107 H   0  0  0  0  0  0  0  0  0  0  0  0
  145.9395   73.9768  218.9067 H   0  0  0  0  0  0  0  0  0  0  0  0
  145.2682   73.5581  221.8413 H   0  0  0  0  0  0  0  0  0  0  0  0
  144.6346   74.8031  220.7346 H   0  0  0  0  0  0  0  0  0  0  0  0
  142.8460   73.4600  220.4540 H   0  0  0  0  0  0  0  0  0  0  0  0
  138.2702   70.5858  223.6902 H   0  0  0  0  0  0  0  0  0  0  0  0
  139.3339   69.6364  222.5714 H   0  0  0  0  0  0  0  0  0  0  0  0
  138.6733   68.4578  224.7053 H   0  0  0  0  0  0  0  0  0  0  0  0
  140.4506   68.5871  224.3785 H   0  0  0  0  0  0  0  0  0  0  0  0
  138.5925   68.3982  227.1007 H   0  0  0  0  0  0  0  0  0  0  0  0
  138.9885   69.5691  229.2581 H   0  0  0  0  0  0  0  0  0  0  0  0
  140.3749   71.6449  229.3174 H   0  0  0  0  0  0  0  0  0  0  0  0
  141.3231   72.4905  227.1919 H   0  0  0  0  0  0  0  0  0  0  0  0
  141.2225   72.5372  224.8108 H   0  0  0  0  0  0  0  0  0  0  0  0
  142.0157   70.9080  224.5436 H   0  0  0  0  0  0  0  0  0  0  0  0
  140.2356   77.0447  223.3811 H   0  0  0  0  0  0  0  0  0  0  0  0
  142.0463   77.2030  223.2050 H   0  0  0  0  0  0  0  0  0  0  0  0
  1  2  2  0
  2  3  1  0
  3  4  2  0
  4  5  1  0
  5  6  2  0
  5  7  1  0
  7  8  1  0
  8  9  1  0
  9 10  1  0
 10 11  1  0
 11 12  2  0
 12 13  1  0
 13 14  1  0
 14 15  1  0
 15 16  1  0
 16 17  1  0
 17 18  1  0
 18 19  1  0
 19 20  1  0
 20 21  1  0
 13 22  2  0
 22 23  1  0
 23 24  1  0
 24 25  1  0
 25 26  1  0
 26 27  1  0
 27 28  2  0
 28 29  1  0
 29 30  2  0
 30 31  1  0
 31 32  2  0
 32 33  1  0
 23 34  2  0
  9 35  1  0
  6  1  1  0
 34 11  1  0
 35  4  1  0
 21 17  1  0
 33 24  1  0
 32 27  1  0
  1 36  1  0
  2 37  1  0
  3 38  1  0
  6 39  1  0
  7 40  1  0
  7 41  1  0
  8 42  1  0
  8 43  1  0
  9 44  1  6
 10 45  1  0
 14 46  1  0
 15 47  1  0
 15 48  1  0
 16 49  1  0
 16 50  1  0
 17 51  1  6
 18 52  1  0
 18 53  1  0
 19 54  1  0
 19 55  1  0
 20 56  1  0
 20 57  1  0
 21 58  1  0
 25 59  1  0
 25 60  1  0
 26 61  1  0
 26 62  1  0
 28 63  1  0
 29 64  1  0
 30 65  1  0
 31 66  1  0
 33 67  1  0
 33 68  1  0
 35 69  1  0
 35 70  1  0
M  END
>  <smiles>  (47) 
c1ccc2c(c1)CCC(Nc1nc(NCCC3CCCN3)nc(N3CCc4ccccc4C3)n1)C2

>  <score_type>  (47) 
oracle

>  <origin>  (47) 
autodockgpu

>  <m_score__min__energy>  (47) 
-9.8699999999999992

>  <m_primary>  (47) 
energy

>  <rmsd>  (47) 
3.606445241341561

>  <m_score__min__rmsd>  (47) 
3.606445241341561

>  <meeko>  (47) 
{"free_energy": -9.21, "intermolecular_energy": -11.29, "internal_energy": -1.87, "cluster_size": 17, "cluster_id": 3, "rank_in_cluster": 6}

>  <energy>  (47) 
-8.52

>  <cluster_rmsd>  (47) 
0.0

>  <cluster>  (47) 
11

$$$$

     RDKit          3D

 70 75  0  0  1  0  0  0  0  0999 V2000
  141.6640   81.1130  223.8690 C   0  0  0  0  0  0  0  0  0  0  0  0
  142.8760   80.6290  223.3820 C   0  0  0  0  0  0  0  0  0  0  0  0
  142.8040   79.5280  222.5620 C   0  0  0  0  0  0  0  0  0  0  0  0
  141.6280   78.9020  222.2140 C   0  0  0  0  0  0  0  0  0  0  0  0
  140.4560   79.4150  222.7180 C   0  0  0  0  0  0  0  0  0  0  0  0
  140.4570   80.5130  223.5430 C   0  0  0  0  0  0  0  0  0  0  0  0
  139.1980   78.7050  222.3170 C   0  0  0  0  0  0  0  0  0  0  0  0
  139.5350   77.2160  222.4920 C   0  0  0  0  0  0  0  0  0  0  0  0
  140.5230   76.8130  221.4240 C   0  0  2  0  0  0  0  0  0  0  0  0
  140.9510   75.4460  221.7080 N   0  0  0  0  0  0  0  0  0  0  0  0
  140.0640   74.3610  221.7390 C   0  0  0  0  0  0  0  0  0  0  0  0
  139.0250   74.1920  220.9150 N   0  0  0  0  0  0  0  0  0  0  0  0
  138.1810   73.1450  220.9550 C   0  0  0  0  0  0  0  0  0  0  0  0
  137.0840   73.0170  220.0450 N   0  0  0  0  0  0  0  0  0  0  0  0
  135.7680   73.5790  220.3600 C   0  0  0  0  0  0  0  0  0  0  0  0
  135.2980   72.9210  221.6110 C   0  0  0  0  0  0  0  0  0  0  0  0
  135.6230   73.7080  222.8580 C   0  0  2  0  0  0  0  0  0  0  0  0
  134.5140   74.5910  223.3320 C   0  0  0  0  0  0  0  0  0  0  0  0
  135.2780   75.5690  224.2190 C   0  0  0  0  0  0  0  0  0  0  0  0
  136.5330   75.7810  223.4020 C   0  0  0  0  0  0  0  0  0  0  0  0
  136.7420   74.6020  222.6220 N   0  0  0  0  0  0  0  0  0  0  0  0
  138.4020   72.1890  221.9020 N   0  0  0  0  0  0  0  0  0  0  0  0
  139.4460   72.3150  222.7640 C   0  0  0  0  0  0  0  0  0  0  0  0
  139.6780   71.3150  223.7500 N   0  0  0  0  0  0  0  0  0  0  0  0
  138.8300   70.1460  223.7830 C   0  0  0  0  0  0  0  0  0  0  0  0
  139.4590   69.0230  224.5810 C   0  0  0  0  0  0  0  0  0  0  0  0
  139.9370   69.4970  225.9020 C   0  0  0  0  0  0  0  0  0  0  0  0
  139.7710   68.7760  227.0620 C   0  0  0  0  0  0  0  0  0  0  0  0
  140.2400   69.2650  228.2830 C   0  0  0  0  0  0  0  0  0  0  0  0
  140.8810   70.4840  228.3420 C   0  0  0  0  0  0  0  0  0  0  0  0
  141.0330   71.1840  227.1620 C   0  0  0  0  0  0  0  0  0  0  0  0
  140.5760   70.7160  225.9480 C   0  0  0  0  0  0  0  0  0  0  0  0
  140.7500   71.4820  224.6970 C   0  0  0  0  0  0  0  0  0  0  0  0
  140.2470   73.3810  222.6700 N   0  0  0  0  0  0  0  0  0  0  0  0
  141.7120   77.7280  221.3200 C   0  0  0  0  0  0  0  0  0  0  0  0
  141.6643   81.9932  224.5287 H   0  0  0  0  0  0  0  0  0  0  0  0
  143.8359   81.1008  223.6389 H   0  0  0  0  0  0  0  0  0  0  0  0
  143.7436   79.1221  222.1591 H   0  0  0  0  0  0  0  0  0  0  0  0
  139.5119   80.9116  223.9403 H   0  0  0  0  0  0  0  0  0  0  0  0
  138.3611   78.9951  222.9693 H   0  0  0  0  0  0  0  0  0  0  0  0
  138.8846   78.9489  221.2912 H   0  0  0  0  0  0  0  0  0  0  0  0
  139.9768   77.0511  223.4858 H   0  0  0  0  0  0  0  0  0  0  0  0
  138.6199   76.6122  222.4022 H   0  0  0  0  0  0  0  0  0  0  0  0
  140.0200   76.8842  220.4483 H   0  0  0  0  0  0  0  0  0  0  0  0
  141.9670   75.2940  221.8930 H   0  0  0  0  0  0  0  0  0  0  0  0
  137.2800   72.5080  219.1630 H   0  0  0  0  0  0  0  0  0  0  0  0
  135.8485   74.6654  220.5125 H   0  0  0  0  0  0  0  0  0  0  0  0
  135.0604   73.4038  219.5362 H   0  0  0  0  0  0  0  0  0  0  0  0
  134.2067   72.7964  221.5512 H   0  0  0  0  0  0  0  0  0  0  0  0
  135.8216   71.9567  221.6885 H   0  0  0  0  0  0  0  0  0  0  0  0
  135.8327   72.9366  223.6136 H   0  0  0  0  0  0  0  0  0  0  0  0
  134.0216   75.1060  222.4939 H   0  0  0  0  0  0  0  0  0  0  0  0
  133.6979   74.0588  223.8426 H   0  0  0  0  0  0  0  0  0  0  0  0
  134.7222   76.5083  224.3566 H   0  0  0  0  0  0  0  0  0  0  0  0
  135.4589   75.2068  225.2418 H   0  0  0  0  0  0  0  0  0  0  0  0
  136.4083   76.6514  222.7410 H   0  0  0  0  0  0  0  0  0  0  0  0
  137.3954   75.9692  224.0584 H   0  0  0  0  0  0  0  0  0  0  0  0
  137.6690   74.1590  222.7430 H   0  0  0  0  0  0  0  0  0  0  0  0
  137.8681   70.4157  224.2434 H   0  0  0  0  0  0  0  0  0  0  0  0
  138.6868   69.7957  222.7502 H   0  0  0  0  0  0  0  0  0  0  0  0
  138.7111   68.2311  224.7345 H   0  0  0  0  0  0  0  0  0  0  0  0
  140.3233   68.6413  224.0177 H   0  0  0  0  0  0  0  0  0  0  0  0
  139.2621   67.8014  227.0271 H   0  0  0  0  0  0  0  0  0  0  0  0
  140.0975   68.6756  229.2008 H   0  0  0  0  0  0  0  0  0  0  0  0
  141.2577   70.8844  229.2948 H   0  0  0  0  0  0  0  0  0  0  0  0
  141.5415   72.1589  227.1914 H   0  0  0  0  0  0  0  0  0  0  0  0
  140.8214   72.5494  224.9529 H   0  0  0  0  0  0  0  0  0  0  0  0
  141.6611   71.0982  224.2148 H   0  0  0  0  0  0  0  0  0  0  0  0
  142.6156   77.1565  221.5786 H   0  0  0  0  0  0  0  0  0  0  0  0
  141.7415   78.1068  220.2877 H   0  0  0  0  0  0  0  0  0  0  0  0
  1  2  2  0
  2  3  1  0
  3  4  2  0
  4  5  1  0
  5  6  2  0
  5  7  1  0
  7  8  1  0
  8  9  1  0
  9 10  1  0
 10 11  1  0
 11 12  2  0
 12 13  1  0
 13 14  1  0
 14 15  1  0
 15 16  1  0
 16 17  1  0
 17 18  1  0
 18 19  1  0
 19 20  1  0
 20 21  1  0
 13 22  2  0
 22 23  1  0
 23 24  1  0
 24 25  1  0
 25 26  1  0
 26 27  1  0
 27 28  2  0
 28 29  1  0
 29 30  2  0
 30 31  1  0
 31 32  2  0
 32 33  1  0
 23 34  2  0
  9 35  1  0
  6  1  1  0
 34 11  1  0
 35  4  1  0
 21 17  1  0
 33 24  1  0
 32 27  1  0
  1 36  1  0
  2 37  1  0
  3 38  1  0
  6 39  1  0
  7 40  1  0
  7 41  1  0
  8 42  1  0
  8 43  1  0
  9 44  1  6
 10 45  1  0
 14 46  1  0
 15 47  1  0
 15 48  1  0
 16 49  1  0
 16 50  1  0
 17 51  1  1
 18 52  1  0
 18 53  1  0
 19 54  1  0
 19 55  1  0
 20 56  1  0
 20 57  1  0
 21 58  1  0
 25 59  1  0
 25 60  1  0
 26 61  1  0
 26 62  1  0
 28 63  1  0
 29 64  1  0
 30 65  1  0
 31 66  1  0
 33 67  1  0
 33 68  1  0
 35 69  1  0
 35 70  1  0
M  END
>  <smiles>  (48) 
c1ccc2c(c1)CCC(Nc1nc(NCCC3CCCN3)nc(N3CCc4ccccc4C3)n1)C2

>  <score_type>  (48) 
oracle

>  <origin>  (48) 
autodockgpu

>  <m_score__min__energy>  (48) 
-9.8699999999999992

>  <m_primary>  (48) 
energy

>  <rmsd>  (48) 
4.313450101310702

>  <m_score__min__rmsd>  (48) 
4.313450101310702

>  <meeko>  (48) 
{"free_energy": -9.78, "intermolecular_energy": -11.87, "internal_energy": -2.37, "cluster_size": 17, "cluster_id": 2, "rank_in_cluster": 3}

>  <energy>  (48) 
-8.42

>  <cluster_rmsd>  (48) 
0.0

>  <cluster>  (48) 
12

$$$$

     RDKit          3D

 70 75  0  0  1  0  0  0  0  0999 V2000
  140.2960   67.3790  226.6530 C   0  0  0  0  0  0  0  0  0  0  0  0
  141.4440   68.1480  226.8320 C   0  0  0  0  0  0  0  0  0  0  0  0
  141.4430   69.3870  226.2370 C   0  0  0  0  0  0  0  0  0  0  0  0
  140.3950   69.8850  225.4980 C   0  0  0  0  0  0  0  0  0  0  0  0
  139.2820   69.0920  225.3470 C   0  0  0  0  0  0  0  0  0  0  0  0
  139.2170   67.8430  225.9160 C   0  0  0  0  0  0  0  0  0  0  0  0
  138.1620   69.6690  224.5340 C   0  0  0  0  0  0  0  0  0  0  0  0
  138.8640   70.2670  223.3040 C   0  0  0  0  0  0  0  0  0  0  0  0
  139.6490   71.4820  223.7350 C   0  0  2  0  0  0  0  0  0  0  0  0
  140.4320   71.9350  222.5880 N   0  0  0  0  0  0  0  0  0  0  0  0
  140.0460   73.0130  221.7800 C   0  0  0  0  0  0  0  0  0  0  0  0
  139.6130   72.9140  220.5190 N   0  0  0  0  0  0  0  0  0  0  0  0
  139.2460   73.9570  219.7540 C   0  0  0  0  0  0  0  0  0  0  0  0
  138.7870   73.7900  218.4080 N   0  0  0  0  0  0  0  0  0  0  0  0
  139.4430   74.4790  217.2930 C   0  0  0  0  0  0  0  0  0  0  0  0
  140.9110   74.2810  217.4580 C   0  0  0  0  0  0  0  0  0  0  0  0
  141.5330   75.2260  218.4570 C   0  0  2  0  0  0  0  0  0  0  0  0
  142.7210   75.9700  217.9390 C   0  0  0  0  0  0  0  0  0  0  0  0
  143.3870   76.4010  219.2410 C   0  0  0  0  0  0  0  0  0  0  0  0
  143.1920   75.1640  220.0890 C   0  0  0  0  0  0  0  0  0  0  0  0
  142.0190   74.4980  219.6150 N   0  0  0  0  0  0  0  0  0  0  0  0
  139.3200   75.2030  220.3030 N   0  0  0  0  0  0  0  0  0  0  0  0
  139.7540   75.3570  221.5830 C   0  0  0  0  0  0  0  0  0  0  0  0
  139.8280   76.6570  222.1560 N   0  0  0  0  0  0  0  0  0  0  0  0
  138.6690   77.5190  222.1030 C   0  0  0  0  0  0  0  0  0  0  0  0
  138.7720   78.6540  223.1010 C   0  0  0  0  0  0  0  0  0  0  0  0
  140.0800   79.3440  223.0060 C   0  0  0  0  0  0  0  0  0  0  0  0
  140.2120   80.7120  223.0710 C   0  0  0  0  0  0  0  0  0  0  0  0
  141.4670   81.3160  222.9770 C   0  0  0  0  0  0  0  0  0  0  0  0
  142.5990   80.5440  222.8170 C   0  0  0  0  0  0  0  0  0  0  0  0
  142.4350   79.1750  222.7560 C   0  0  0  0  0  0  0  0  0  0  0  0
  141.2020   78.5620  222.8470 C   0  0  0  0  0  0  0  0  0  0  0  0
  141.0500   77.0940  222.7790 C   0  0  0  0  0  0  0  0  0  0  0  0
  140.1040   74.2780  222.2880 N   0  0  0  0  0  0  0  0  0  0  0  0
  140.5400   71.2390  224.9210 C   0  0  0  0  0  0  0  0  0  0  0  0
  140.2444   66.3787  227.1077 H   0  0  0  0  0  0  0  0  0  0  0  0
  142.3022   67.7843  227.4162 H   0  0  0  0  0  0  0  0  0  0  0  0
  142.3349   70.0191  226.3592 H   0  0  0  0  0  0  0  0  0  0  0  0
  138.3202   67.2190  225.7885 H   0  0  0  0  0  0  0  0  0  0  0  0
  137.4512   68.8844  224.2354 H   0  0  0  0  0  0  0  0  0  0  0  0
  137.5757   70.4148  225.0908 H   0  0  0  0  0  0  0  0  0  0  0  0
  139.5458   69.5216  222.8686 H   0  0  0  0  0  0  0  0  0  0  0  0
  138.1166   70.5532  222.5494 H   0  0  0  0  0  0  0  0  0  0  0  0
  138.9356   72.2515  224.0652 H   0  0  0  0  0  0  0  0  0  0  0  0
  141.3140   71.4170  222.3810 H   0  0  0  0  0  0  0  0  0  0  0  0
  137.9760   73.1590  218.2770 H   0  0  0  0  0  0  0  0  0  0  0  0
  139.1097   74.0506  216.3362 H   0  0  0  0  0  0  0  0  0  0  0  0
  139.1902   75.5495  217.2912 H   0  0  0  0  0  0  0  0  0  0  0  0
  141.0882   73.2494  217.7962 H   0  0  0  0  0  0  0  0  0  0  0  0
  141.3784   74.4840  216.4832 H   0  0  0  0  0  0  0  0  0  0  0  0
  140.7257   75.9345  218.6941 H   0  0  0  0  0  0  0  0  0  0  0  0
  143.3787   75.3176  217.3458 H   0  0  0  0  0  0  0  0  0  0  0  0
  142.4749   76.7997  217.2600 H   0  0  0  0  0  0  0  0  0  0  0  0
  144.4537   76.6257  219.0939 H   0  0  0  0  0  0  0  0  0  0  0  0
  142.9724   77.3208  219.6792 H   0  0  0  0  0  0  0  0  0  0  0  0
  144.0648   74.5014  219.9928 H   0  0  0  0  0  0  0  0  0  0  0  0
  143.0817   75.4349  221.1494 H   0  0  0  0  0  0  0  0  0  0  0  0
  141.2990   74.3210  220.3350 H   0  0  0  0  0  0  0  0  0  0  0  0
  138.5837   77.9405  221.0906 H   0  0  0  0  0  0  0  0  0  0  0  0
  137.7821   76.9189  222.3548 H   0  0  0  0  0  0  0  0  0  0  0  0
  137.9698   79.3796  222.9011 H   0  0  0  0  0  0  0  0  0  0  0  0
  138.6765   78.2334  224.1129 H   0  0  0  0  0  0  0  0  0  0  0  0
  139.3166   81.3381  223.1987 H   0  0  0  0  0  0  0  0  0  0  0  0
  141.5536   82.4113  223.0307 H   0  0  0  0  0  0  0  0  0  0  0  0
  143.5959   81.0027  222.7408 H   0  0  0  0  0  0  0  0  0  0  0  0
  143.3272   78.5442  222.6291 H   0  0  0  0  0  0  0  0  0  0  0  0
  141.8952   76.6856  222.2055 H   0  0  0  0  0  0  0  0  0  0  0  0
  141.0245   76.7298  223.8166 H   0  0  0  0  0  0  0  0  0  0  0  0
  141.5851   71.3731  224.6051 H   0  0  0  0  0  0  0  0  0  0  0  0
  140.2454   71.9570  225.7005 H   0  0  0  0  0  0  0  0  0  0  0  0
  1  2  2  0
  2  3  1  0
  3  4  2  0
  4  5  1  0
  5  6  2  0
  5  7  1  0
  7  8  1  0
  8  9  1  0
  9 10  1  0
 10 11  1  0
 11 12  2  0
 12 13  1  0
 13 14  1  0
 14 15  1  0
 15 16  1  0
 16 17  1  0
 17 18  1  0
 18 19  1  0
 19 20  1  0
 20 21  1  0
 13 22  2  0
 22 23  1  0
 23 24  1  0
 24 25  1  0
 25 26  1  0
 26 27  1  0
 27 28  2  0
 28 29  1  0
 29 30  2  0
 30 31  1  0
 31 32  2  0
 32 33  1  0
 23 34  2  0
  9 35  1  0
  6  1  1  0
 34 11  1  0
 35  4  1  0
 21 17  1  0
 33 24  1  0
 32 27  1  0
  1 36  1  0
  2 37  1  0
  3 38  1  0
  6 39  1  0
  7 40  1  0
  7 41  1  0
  8 42  1  0
  8 43  1  0
  9 44  1  1
 10 45  1  0
 14 46  1  0
 15 47  1  0
 15 48  1  0
 16 49  1  0
 16 50  1  0
 17 51  1  1
 18 52  1  0
 18 53  1  0
 19 54  1  0
 19 55  1  0
 20 56  1  0
 20 57  1  0
 21 58  1  0
 25 59  1  0
 25 60  1  0
 26 61  1  0
 26 62  1  0
 28 63  1  0
 29 64  1  0
 30 65  1  0
 31 66  1  0
 33 67  1  0
 33 68  1  0
 35 69  1  0
 35 70  1  0
M  END
>  <smiles>  (49) 
c1ccc2c(c1)CCC(Nc1nc(NCCC3CCCN3)nc(N3CCc4ccccc4C3)n1)C2

>  <score_type>  (49) 
oracle

>  <origin>  (49) 
autodockgpu

>  <m_score__min__energy>  (49) 
-9.8699999999999992

>  <m_primary>  (49) 
energy

>  <rmsd>  (49) 
12.127854455503826

>  <m_score__min__rmsd>  (49) 
12.127854455503826

>  <meeko>  (49) 
{"free_energy": -8.8, "intermolecular_energy": -10.89, "internal_energy": -2.87, "cluster_size": 17, "cluster_id": 3, "rank_in_cluster": 10}

>  <energy>  (49) 
-8.24

>  <cluster_rmsd>  (49) 
1.04

>  <cluster>  (49) 
12

$$$$

     RDKit          3D

 70 75  0  0  1  0  0  0  0  0999 V2000
  140.9490   71.0150  228.0670 C   0  0  0  0  0  0  0  0  0  0  0  0
  139.9100   70.1260  228.3340 C   0  0  0  0  0  0  0  0  0  0  0  0
  139.2380   69.6320  227.2410 C   0  0  0  0  0  0  0  0  0  0  0  0
  139.5340   69.9660  225.9390 C   0  0  0  0  0  0  0  0  0  0  0  0
  140.5670   70.8480  225.7230 C   0  0  0  0  0  0  0  0  0  0  0  0
  141.2800   71.3780  226.7700 C   0  0  0  0  0  0  0  0  0  0  0  0
  140.8580   71.1870  224.2910 C   0  0  0  0  0  0  0  0  0  0  0  0
  139.4720   71.4470  223.6800 C   0  0  0  0  0  0  0  0  0  0  0  0
  138.7290   70.1370  223.5870 C   0  0  2  0  0  0  0  0  0  0  0  0
  137.3640   70.4300  223.1570 N   0  0  0  0  0  0  0  0  0  0  0  0
  136.8520   71.7320  223.0810 C   0  0  0  0  0  0  0  0  0  0  0  0
  137.1050   72.6030  222.0990 N   0  0  0  0  0  0  0  0  0  0  0  0
  136.6060   73.8510  222.0390 C   0  0  0  0  0  0  0  0  0  0  0  0
  136.9110   74.7410  220.9600 N   0  0  0  0  0  0  0  0  0  0  0  0
  137.2740   76.1390  221.2100 C   0  0  0  0  0  0  0  0  0  0  0  0
  138.0220   76.1740  222.4980 C   0  0  0  0  0  0  0  0  0  0  0  0
  139.4640   75.7460  222.3620 C   0  0  2  0  0  0  0  0  0  0  0  0
  140.1450   76.2680  221.1380 C   0  0  0  0  0  0  0  0  0  0  0  0
  141.3220   75.3040  221.0250 C   0  0  0  0  0  0  0  0  0  0  0  0
  140.6620   73.9960  221.4000 C   0  0  0  0  0  0  0  0  0  0  0  0
  139.5620   74.3010  222.2610 N   0  0  0  0  0  0  0  0  0  0  0  0
  135.7850   74.2550  223.0500 N   0  0  0  0  0  0  0  0  0  0  0  0
  135.4960   73.4060  224.0720 C   0  0  0  0  0  0  0  0  0  0  0  0
  134.6360   73.8260  225.1240 N   0  0  0  0  0  0  0  0  0  0  0  0
  133.5050   73.0030  225.4840 C   0  0  0  0  0  0  0  0  0  0  0  0
  132.9670   73.3610  226.8530 C   0  0  0  0  0  0  0  0  0  0  0  0
  132.7560   74.8220  226.9890 C   0  0  0  0  0  0  0  0  0  0  0  0
  131.6510   75.3660  227.6040 C   0  0  0  0  0  0  0  0  0  0  0  0
  131.4980   76.7490  227.7080 C   0  0  0  0  0  0  0  0  0  0  0  0
  132.4580   77.5950  227.1930 C   0  0  0  0  0  0  0  0  0  0  0  0
  133.5550   77.0200  226.5830 C   0  0  0  0  0  0  0  0  0  0  0  0
  133.7220   75.6550  226.4710 C   0  0  0  0  0  0  0  0  0  0  0  0
  134.9050   75.0620  225.8140 C   0  0  0  0  0  0  0  0  0  0  0  0
  136.0260   72.1790  224.0710 N   0  0  0  0  0  0  0  0  0  0  0  0
  138.7220   69.3510  224.8680 C   0  0  0  0  0  0  0  0  0  0  0  0
  141.5208   71.4394  228.9054 H   0  0  0  0  0  0  0  0  0  0  0  0
  139.6426   69.8359  229.3608 H   0  0  0  0  0  0  0  0  0  0  0  0
  138.4130   68.9263  227.4180 H   0  0  0  0  0  0  0  0  0  0  0  0
  142.1040   72.0822  226.5823 H   0  0  0  0  0  0  0  0  0  0  0  0
  141.4899   72.0848  224.2226 H   0  0  0  0  0  0  0  0  0  0  0  0
  141.4065   70.3882  223.7704 H   0  0  0  0  0  0  0  0  0  0  0  0
  138.9115   72.1456  224.3185 H   0  0  0  0  0  0  0  0  0  0  0  0
  139.5815   71.8869  222.6778 H   0  0  0  0  0  0  0  0  0  0  0  0
  139.2524   69.4975  222.8610 H   0  0  0  0  0  0  0  0  0  0  0  0
  136.7620   69.6170  222.9000 H   0  0  0  0  0  0  0  0  0  0  0  0
  136.8600   74.3370  220.0070 H   0  0  0  0  0  0  0  0  0  0  0  0
  137.9091   76.5155  220.3946 H   0  0  0  0  0  0  0  0  0  0  0  0
  136.3767   76.7733  221.2611 H   0  0  0  0  0  0  0  0  0  0  0  0
  137.9981   77.2023  222.8880 H   0  0  0  0  0  0  0  0  0  0  0  0
  137.5330   75.4616  223.1787 H   0  0  0  0  0  0  0  0  0  0  0  0
  139.9499   76.1542  223.2605 H   0  0  0  0  0  0  0  0  0  0  0  0
  139.4901   76.2108  220.2561 H   0  0  0  0  0  0  0  0  0  0  0  0
  140.4318   77.3283  221.1965 H   0  0  0  0  0  0  0  0  0  0  0  0
  141.7233   75.2749  220.0012 H   0  0  0  0  0  0  0  0  0  0  0  0
  142.1874   75.5703  221.6497 H   0  0  0  0  0  0  0  0  0  0  0  0
  140.3005   73.4849  220.4955 H   0  0  0  0  0  0  0  0  0  0  0  0
  141.3779   73.3320  221.9065 H   0  0  0  0  0  0  0  0  0  0  0  0
  139.5750   73.8140  223.1730 H   0  0  0  0  0  0  0  0  0  0  0  0
  132.7083   73.1459  224.7391 H   0  0  0  0  0  0  0  0  0  0  0  0
  133.8371   71.9546  225.5088 H   0  0  0  0  0  0  0  0  0  0  0  0
  132.0073   72.8455  227.0059 H   0  0  0  0  0  0  0  0  0  0  0  0
  133.7045   73.0473  227.6064 H   0  0  0  0  0  0  0  0  0  0  0  0
  130.8786   74.7017  228.0189 H   0  0  0  0  0  0  0  0  0  0  0  0
  130.6084   77.1662  228.2026 H   0  0  0  0  0  0  0  0  0  0  0  0
  132.3534   78.6876  227.2656 H   0  0  0  0  0  0  0  0  0  0  0  0
  134.3309   77.6799  226.1675 H   0  0  0  0  0  0  0  0  0  0  0  0
  135.2950   75.7872  225.0846 H   0  0  0  0  0  0  0  0  0  0  0  0
  135.6277   74.8304  226.6103 H   0  0  0  0  0  0  0  0  0  0  0  0
  137.6835   69.2693  225.2212 H   0  0  0  0  0  0  0  0  0  0  0  0
  139.1652   68.3685  224.6483 H   0  0  0  0  0  0  0  0  0  0  0  0
  1  2  2  0
  2  3  1  0
  3  4  2  0
  4  5  1  0
  5  6  2  0
  5  7  1  0
  7  8  1  0
  8  9  1  0
  9 10  1  0
 10 11  1  0
 11 12  2  0
 12 13  1  0
 13 14  1  0
 14 15  1  0
 15 16  1  0
 16 17  1  0
 17 18  1  0
 18 19  1  0
 19 20  1  0
 20 21  1  0
 13 22  2  0
 22 23  1  0
 23 24  1  0
 24 25  1  0
 25 26  1  0
 26 27  1  0
 27 28  2  0
 28 29  1  0
 29 30  2  0
 30 31  1  0
 31 32  2  0
 32 33  1  0
 23 34  2  0
  9 35  1  0
  6  1  1  0
 34 11  1  0
 35  4  1  0
 21 17  1  0
 33 24  1  0
 32 27  1  0
  1 36  1  0
  2 37  1  0
  3 38  1  0
  6 39  1  0
  7 40  1  0
  7 41  1  0
  8 42  1  0
  8 43  1  0
  9 44  1  6
 10 45  1  0
 14 46  1  0
 15 47  1  0
 15 48  1  0
 16 49  1  0
 16 50  1  0
 17 51  1  1
 18 52  1  0
 18 53  1  0
 19 54  1  0
 19 55  1  0
 20 56  1  0
 20 57  1  0
 21 58  1  0
 25 59  1  0
 25 60  1  0
 26 61  1  0
 26 62  1  0
 28 63  1  0
 29 64  1  0
 30 65  1  0
 31 66  1  0
 33 67  1  0
 33 68  1  0
 35 69  1  0
 35 70  1  0
M  END
>  <smiles>  (50) 
c1ccc2c(c1)CCC(Nc1nc(NCCC3CCCN3)nc(N3CCc4ccccc4C3)n1)C2

>  <score_type>  (50) 
oracle

>  <origin>  (50) 
autodockgpu

>  <m_score__min__energy>  (50) 
-9.8699999999999992

>  <m_primary>  (50) 
energy

>  <rmsd>  (50) 
11.479211824407166

>  <m_score__min__rmsd>  (50) 
11.479211824407166

>  <meeko>  (50) 
{"free_energy": -9.0, "intermolecular_energy": -11.09, "internal_energy": -1.79, "cluster_size": 1, "cluster_id": 8, "rank_in_cluster": 1}

>  <energy>  (50) 
-7.68

>  <cluster_rmsd>  (50) 
0.0

>  <cluster>  (50) 
13

$$$$

     RDKit          3D

 70 75  0  0  1  0  0  0  0  0999 V2000
  140.2230   69.4220  227.0110 C   0  0  0  0  0  0  0  0  0  0  0  0
  141.0570   70.5400  227.0200 C   0  0  0  0  0  0  0  0  0  0  0  0
  141.0640   71.4410  225.9750 C   0  0  0  0  0  0  0  0  0  0  0  0
  140.2380   71.2550  224.8870 C   0  0  0  0  0  0  0  0  0  0  0  0
  139.4110   70.1380  224.8890 C   0  0  0  0  0  0  0  0  0  0  0  0
  139.3850   69.2310  225.9130 C   0  0  0  0  0  0  0  0  0  0  0  0
  138.5360   69.9990  223.6670 C   0  0  0  0  0  0  0  0  0  0  0  0
  139.5270   70.1760  222.5120 C   0  0  0  0  0  0  0  0  0  0  0  0
  139.8490   71.6540  222.4510 C   0  0  1  0  0  0  0  0  0  0  0  0
  138.6220   72.3370  222.0510 N   0  0  0  0  0  0  0  0  0  0  0  0
  138.5660   73.7710  221.9830 C   0  0  0  0  0  0  0  0  0  0  0  0
  137.3990   74.4400  221.9350 N   0  0  0  0  0  0  0  0  0  0  0  0
  137.3690   75.7620  221.8720 C   0  0  0  0  0  0  0  0  0  0  0  0
  136.1170   76.4770  221.8210 N   0  0  0  0  0  0  0  0  0  0  0  0
  135.2620   76.4110  222.9910 C   0  0  0  0  0  0  0  0  0  0  0  0
  135.8030   75.4310  224.0100 C   0  0  0  0  0  0  0  0  0  0  0  0
  135.0300   74.1470  223.8830 C   0  0  2  0  0  0  0  0  0  0  0  0
  134.4030   73.8340  225.2260 C   0  0  0  0  0  0  0  0  0  0  0  0
  134.6070   72.3440  225.3810 C   0  0  0  0  0  0  0  0  0  0  0  0
  135.0130   71.9160  224.0040 C   0  0  0  0  0  0  0  0  0  0  0  0
  135.8940   73.0170  223.5850 N   0  0  0  0  0  0  0  0  0  0  0  0
  138.5280   76.4510  221.8550 N   0  0  0  0  0  0  0  0  0  0  0  0
  139.7120   75.8230  221.9030 C   0  0  0  0  0  0  0  0  0  0  0  0
  140.9140   76.5720  221.8830 N   0  0  0  0  0  0  0  0  0  0  0  0
  141.7030   76.7090  220.6890 C   0  0  0  0  0  0  0  0  0  0  0  0
  141.8170   78.1620  220.2900 C   0  0  0  0  0  0  0  0  0  0  0  0
  141.6720   79.0870  221.4310 C   0  0  0  0  0  0  0  0  0  0  0  0
  141.7390   80.4320  221.1840 C   0  0  0  0  0  0  0  0  0  0  0  0
  141.6070   81.3320  222.2330 C   0  0  0  0  0  0  0  0  0  0  0  0
  141.4060   80.9160  223.5280 C   0  0  0  0  0  0  0  0  0  0  0  0
  141.3380   79.5680  223.7840 C   0  0  0  0  0  0  0  0  0  0  0  0
  141.4710   78.6860  222.7330 C   0  0  0  0  0  0  0  0  0  0  0  0
  141.3850   77.2250  223.0850 C   0  0  0  0  0  0  0  0  0  0  0  0
  139.7090   74.4880  221.9650 N   0  0  0  0  0  0  0  0  0  0  0  0
  140.2580   72.2360  223.7720 C   0  0  0  0  0  0  0  0  0  0  0  0
  140.2263   68.7091  227.8487 H   0  0  0  0  0  0  0  0  0  0  0  0
  141.7237   70.7070  227.8789 H   0  0  0  0  0  0  0  0  0  0  0  0
  141.7330   72.3134  226.0103 H   0  0  0  0  0  0  0  0  0  0  0  0
  138.7116   68.3622  225.8706 H   0  0  0  0  0  0  0  0  0  0  0  0
  138.0606   69.0076  223.6317 H   0  0  0  0  0  0  0  0  0  0  0  0
  137.7076   70.7223  223.6423 H   0  0  0  0  0  0  0  0  0  0  0  0
  140.4412   69.5946  222.7021 H   0  0  0  0  0  0  0  0  0  0  0  0
  139.1015   69.8200  221.5621 H   0  0  0  0  0  0  0  0  0  0  0  0
  140.6900   71.7840  221.7540 H   0  0  0  0  0  0  0  0  0  0  0  0
  137.7440   71.8220  221.8020 H   0  0  0  0  0  0  0  0  0  0  0  0
  135.8710   77.0100  220.9560 H   0  0  0  0  0  0  0  0  0  0  0  0
  135.2033   77.4093  223.4493 H   0  0  0  0  0  0  0  0  0  0  0  0
  134.2651   76.0700  222.6750 H   0  0  0  0  0  0  0  0  0  0  0  0
  136.8697   75.2442  223.8172 H   0  0  0  0  0  0  0  0  0  0  0  0
  135.6958   75.8404  225.0253 H   0  0  0  0  0  0  0  0  0  0  0  0
  134.2969   74.2847  223.0745 H   0  0  0  0  0  0  0  0  0  0  0  0
  134.9090   74.3848  226.0326 H   0  0  0  0  0  0  0  0  0  0  0  0
  133.3438   74.1261  225.2793 H   0  0  0  0  0  0  0  0  0  0  0  0
  135.3994   72.1272  226.1124 H   0  0  0  0  0  0  0  0  0  0  0  0
  133.7142   71.8200  225.7529 H   0  0  0  0  0  0  0  0  0  0  0  0
  135.5541   70.9586  224.0270 H   0  0  0  0  0  0  0  0  0  0  0  0
  134.1640   71.7464  223.3254 H   0  0  0  0  0  0  0  0  0  0  0  0
  136.6920   73.0180  224.2500 H   0  0  0  0  0  0  0  0  0  0  0  0
  142.7094   76.3046  220.8724 H   0  0  0  0  0  0  0  0  0  0  0  0
  141.2127   76.1553  219.8747 H   0  0  0  0  0  0  0  0  0  0  0  0
  142.8038   78.3231  219.8315 H   0  0  0  0  0  0  0  0  0  0  0  0
  140.9978   78.3753  219.5876 H   0  0  0  0  0  0  0  0  0  0  0  0
  141.8968   80.7981  220.1588 H   0  0  0  0  0  0  0  0  0  0  0  0
  141.6649   82.4100  222.0217 H   0  0  0  0  0  0  0  0  0  0  0  0
  141.3018   81.6478  224.3426 H   0  0  0  0  0  0  0  0  0  0  0  0
  141.1804   79.1994  224.8083 H   0  0  0  0  0  0  0  0  0  0  0  0
  142.3742   76.8385  223.3716 H   0  0  0  0  0  0  0  0  0  0  0  0
  140.7150   77.0467  223.9390 H   0  0  0  0  0  0  0  0  0  0  0  0
  141.2797   72.6321  223.6759 H   0  0  0  0  0  0  0  0  0  0  0  0
  139.5264   73.0194  224.0191 H   0  0  0  0  0  0  0  0  0  0  0  0
  1  2  2  0
  2  3  1  0
  3  4  2  0
  4  5  1  0
  5  6  2  0
  5  7  1  0
  7  8  1  0
  8  9  1  0
  9 10  1  0
 10 11  1  0
 11 12  2  0
 12 13  1  0
 13 14  1  0
 14 15  1  0
 15 16  1  0
 16 17  1  0
 17 18  1  0
 18 19  1  0
 19 20  1  0
 20 21  1  0
 13 22  2  0
 22 23  1  0
 23 24  1  0
 24 25  1  0
 25 26  1  0
 26 27  1  0
 27 28  2  0
 28 29  1  0
 29 30  2  0
 30 31  1  0
 31 32  2  0
 32 33  1  0
 23 34  2  0
  9 35  1  0
  6  1  1  0
 34 11  1  0
 35  4  1  0
 21 17  1  0
 33 24  1  0
 32 27  1  0
  1 36  1  0
  2 37  1  0
  3 38  1  0
  6 39  1  0
  7 40  1  0
  7 41  1  0
  8 42  1  0
  8 43  1  0
  9 44  1  6
 10 45  1  0
 14 46  1  0
 15 47  1  0
 15 48  1  0
 16 49  1  0
 16 50  1  0
 17 51  1  6
 18 52  1  0
 18 53  1  0
 19 54  1  0
 19 55  1  0
 20 56  1  0
 20 57  1  0
 21 58  1  0
 25 59  1  0
 25 60  1  0
 26 61  1  0
 26 62  1  0
 28 63  1  0
 29 64  1  0
 30 65  1  0
 31 66  1  0
 33 67  1  0
 33 68  1  0
 35 69  1  0
 35 70  1  0
M  END
>  <smiles>  (51) 
c1ccc2c(c1)CCC(Nc1nc(NCCC3CCCN3)nc(N3CCc4ccccc4C3)n1)C2

>  <score_type>  (51) 
oracle

>  <origin>  (51) 
autodockgpu

>  <m_score__min__energy>  (51) 
-10.699999999999999

>  <m_primary>  (51) 
energy

>  <rmsd>  (51) 
11.110478999105178

>  <m_score__min__rmsd>  (51) 
11.110478999105178

>  <meeko>  (51) 
{"free_energy": -8.69, "intermolecular_energy": -10.77, "internal_energy": -1.73, "cluster_size": 3, "cluster_id": 5, "rank_in_cluster": 1}

>  <energy>  (51) 
-10.7

>  <cluster_rmsd>  (51) 
0.0

>  <cluster>  (51) 
1

$$$$

     RDKit          3D

 70 75  0  0  1  0  0  0  0  0999 V2000
  141.8370   81.0690  222.1930 C   0  0  0  0  0  0  0  0  0  0  0  0
  141.1100   80.6590  223.3100 C   0  0  0  0  0  0  0  0  0  0  0  0
  140.7450   79.3400  223.4880 C   0  0  0  0  0  0  0  0  0  0  0  0
  141.0950   78.3870  222.5550 C   0  0  0  0  0  0  0  0  0  0  0  0
  141.8200   78.8060  221.4460 C   0  0  0  0  0  0  0  0  0  0  0  0
  142.1950   80.1080  221.2480 C   0  0  0  0  0  0  0  0  0  0  0  0
  142.1680   77.7100  220.4680 C   0  0  0  0  0  0  0  0  0  0  0  0
  140.8230   77.0110  220.2430 C   0  0  0  0  0  0  0  0  0  0  0  0
  140.5560   76.1920  221.4890 C   0  0  1  0  0  0  0  0  0  0  0  0
  141.5690   75.1400  221.5270 N   0  0  0  0  0  0  0  0  0  0  0  0
  141.1910   73.7540  221.5390 C   0  0  0  0  0  0  0  0  0  0  0  0
  141.4810   72.9240  220.5200 N   0  0  0  0  0  0  0  0  0  0  0  0
  141.1240   71.6500  220.5510 C   0  0  0  0  0  0  0  0  0  0  0  0
  141.4350   70.7620  219.4570 N   0  0  0  0  0  0  0  0  0  0  0  0
  142.7970   70.2700  219.3640 C   0  0  0  0  0  0  0  0  0  0  0  0
  143.6720   70.8750  220.4420 C   0  0  0  0  0  0  0  0  0  0  0  0
  144.4550   72.0050  219.8320 C   0  0  2  0  0  0  0  0  0  0  0  0
  144.7330   73.0290  220.9120 C   0  0  0  0  0  0  0  0  0  0  0  0
  144.5000   74.3540  220.2220 C   0  0  0  0  0  0  0  0  0  0  0  0
  144.4460   73.9730  218.7730 C   0  0  0  0  0  0  0  0  0  0  0  0
  143.6930   72.7090  218.8150 N   0  0  0  0  0  0  0  0  0  0  0  0
  140.4560   71.1750  221.6220 N   0  0  0  0  0  0  0  0  0  0  0  0
  140.1480   71.9680  222.6590 C   0  0  0  0  0  0  0  0  0  0  0  0
  139.4460   71.4420  223.7710 N   0  0  0  0  0  0  0  0  0  0  0  0
  138.1360   70.8660  223.6370 C   0  0  0  0  0  0  0  0  0  0  0  0
  138.1450   69.4170  224.0680 C   0  0  0  0  0  0  0  0  0  0  0  0
  139.2110   69.1110  225.0410 C   0  0  0  0  0  0  0  0  0  0  0  0
  139.3270   67.8220  225.4880 C   0  0  0  0  0  0  0  0  0  0  0  0
  140.3180   67.4970  226.4030 C   0  0  0  0  0  0  0  0  0  0  0  0
  141.2010   68.4350  226.8850 C   0  0  0  0  0  0  0  0  0  0  0  0
  141.0910   69.7300  226.4420 C   0  0  0  0  0  0  0  0  0  0  0  0
  140.1020   70.0390  225.5320 C   0  0  0  0  0  0  0  0  0  0  0  0
  140.0400   71.4760  225.0900 C   0  0  0  0  0  0  0  0  0  0  0  0
  140.5230   73.2500  222.5970 N   0  0  0  0  0  0  0  0  0  0  0  0
  140.6960   76.9720  222.7630 C   0  0  0  0  0  0  0  0  0  0  0  0
  142.1209   82.1235  222.0606 H   0  0  0  0  0  0  0  0  0  0  0  0
  140.8209   81.4036  224.0663 H   0  0  0  0  0  0  0  0  0  0  0  0
  140.1713   79.0472  224.3797 H   0  0  0  0  0  0  0  0  0  0  0  0
  142.7712   80.3922  220.3551 H   0  0  0  0  0  0  0  0  0  0  0  0
  142.5589   78.1276  219.5284 H   0  0  0  0  0  0  0  0  0  0  0  0
  142.9529   77.0329  220.8361 H   0  0  0  0  0  0  0  0  0  0  0  0
  140.0262   77.7555  220.0986 H   0  0  0  0  0  0  0  0  0  0  0  0
  140.8475   76.3763  219.3449 H   0  0  0  0  0  0  0  0  0  0  0  0
  139.5203   75.8258  221.4324 H   0  0  0  0  0  0  0  0  0  0  0  0
  142.5960   75.3450  221.5470 H   0  0  0  0  0  0  0  0  0  0  0  0
  140.6820   70.5070  218.7790 H   0  0  0  0  0  0  0  0  0  0  0  0
  142.7920   69.1759  219.4779 H   0  0  0  0  0  0  0  0  0  0  0  0
  143.2046   70.5557  218.3831 H   0  0  0  0  0  0  0  0  0  0  0  0
  143.0442   71.2563  221.2608 H   0  0  0  0  0  0  0  0  0  0  0  0
  144.3554   70.1147  220.8480 H   0  0  0  0  0  0  0  0  0  0  0  0
  145.3646   71.5725  219.3897 H   0  0  0  0  0  0  0  0  0  0  0  0
  144.0432   72.9019  221.7593 H   0  0  0  0  0  0  0  0  0  0  0  0
  145.7461   72.9403  221.3314 H   0  0  0  0  0  0  0  0  0  0  0  0
  143.5524   74.8082  220.5472 H   0  0  0  0  0  0  0  0  0  0  0  0
  145.2749   75.1020  220.4456 H   0  0  0  0  0  0  0  0  0  0  0  0
  143.9172   74.7334  218.1795 H   0  0  0  0  0  0  0  0  0  0  0  0
  145.4358   73.8833  218.3015 H   0  0  0  0  0  0  0  0  0  0  0  0
  142.7560   72.9430  219.1970 H   0  0  0  0  0  0  0  0  0  0  0  0
  137.4288   71.4260  224.2665 H   0  0  0  0  0  0  0  0  0  0  0  0
  137.8312   70.9200  222.5814 H   0  0  0  0  0  0  0  0  0  0  0  0
  137.1734   69.1819  224.5271 H   0  0  0  0  0  0  0  0  0  0  0  0
  138.3337   68.8084  223.1713 H   0  0  0  0  0  0  0  0  0  0  0  0
  138.6370   67.0470  225.1230 H   0  0  0  0  0  0  0  0  0  0  0  0
  140.4000   66.4576  226.7536 H   0  0  0  0  0  0  0  0  0  0  0  0
  141.9789   68.1536  227.6101 H   0  0  0  0  0  0  0  0  0  0  0  0
  141.7793   70.5069  226.8064 H   0  0  0  0  0  0  0  0  0  0  0  0
  139.4164   72.0648  225.7788 H   0  0  0  0  0  0  0  0  0  0  0  0
  141.0342   71.9466  225.0811 H   0  0  0  0  0  0  0  0  0  0  0  0
  139.7292   76.9572  223.2874 H   0  0  0  0  0  0  0  0  0  0  0  0
  141.4969   76.4943  223.3464 H   0  0  0  0  0  0  0  0  0  0  0  0
  1  2  2  0
  2  3  1  0
  3  4  2  0
  4  5  1  0
  5  6  2  0
  5  7  1  0
  7  8  1  0
  8  9  1  0
  9 10  1  0
 10 11  1  0
 11 12  2  0
 12 13  1  0
 13 14  1  0
 14 15  1  0
 15 16  1  0
 16 17  1  0
 17 18  1  0
 18 19  1  0
 19 20  1  0
 20 21  1  0
 13 22  2  0
 22 23  1  0
 23 24  1  0
 24 25  1  0
 25 26  1  0
 26 27  1  0
 27 28  2  0
 28 29  1  0
 29 30  2  0
 30 31  1  0
 31 32  2  0
 32 33  1  0
 23 34  2  0
  9 35  1  0
  6  1  1  0
 34 11  1  0
 35  4  1  0
 21 17  1  0
 33 24  1  0
 32 27  1  0
  1 36  1  0
  2 37  1  0
  3 38  1  0
  6 39  1  0
  7 40  1  0
  7 41  1  0
  8 42  1  0
  8 43  1  0
  9 44  1  6
 10 45  1  0
 14 46  1  0
 15 47  1  0
 15 48  1  0
 16 49  1  0
 16 50  1  0
 17 51  1  6
 18 52  1  0
 18 53  1  0
 19 54  1  0
 19 55  1  0
 20 56  1  0
 20 57  1  0
 21 58  1  0
 25 59  1  0
 25 60  1  0
 26 61  1  0
 26 62  1  0
 28 63  1  0
 29 64  1  0
 30 65  1  0
 31 66  1  0
 33 67  1  0
 33 68  1  0
 35 69  1  0
 35 70  1  0
M  END
>  <smiles>  (52) 
c1ccc2c(c1)CCC(Nc1nc(NCCC3CCCN3)nc(N3CCc4ccccc4C3)n1)C2

>  <score_type>  (52) 
oracle

>  <origin>  (52) 
autodockgpu

>  <m_score__min__energy>  (52) 
-10.699999999999999

>  <m_primary>  (52) 
energy

>  <rmsd>  (52) 
3.7778661914011997

>  <m_score__min__rmsd>  (52) 
3.7778661914011997

>  <meeko>  (52) 
{"free_energy": -9.4, "intermolecular_energy": -11.49, "internal_energy": -2.34, "cluster_size": 19, "cluster_id": 1, "rank_in_cluster": 11}

>  <energy>  (52) 
-10.67

>  <cluster_rmsd>  (52) 
0.26

>  <cluster>  (52) 
1

$$$$

     RDKit          3D

 70 75  0  0  1  0  0  0  0  0999 V2000
  139.5830   68.9070  228.0480 C   0  0  0  0  0  0  0  0  0  0  0  0
  140.6980   69.7080  228.2890 C   0  0  0  0  0  0  0  0  0  0  0  0
  141.1550   70.6080  227.3480 C   0  0  0  0  0  0  0  0  0  0  0  0
  140.5120   70.7370  226.1350 C   0  0  0  0  0  0  0  0  0  0  0  0
  139.4010   69.9340  225.9060 C   0  0  0  0  0  0  0  0  0  0  0  0
  138.9280   69.0350  226.8240 C   0  0  0  0  0  0  0  0  0  0  0  0
  138.7480   70.1290  224.5590 C   0  0  0  0  0  0  0  0  0  0  0  0
  139.9310   70.0400  223.5880 C   0  0  0  0  0  0  0  0  0  0  0  0
  140.6860   71.3450  223.7170 C   0  0  1  0  0  0  0  0  0  0  0  0
  139.8080   72.3940  223.2050 N   0  0  0  0  0  0  0  0  0  0  0  0
  140.1990   73.1980  222.0800 C   0  0  0  0  0  0  0  0  0  0  0  0
  140.8130   72.6730  221.0040 N   0  0  0  0  0  0  0  0  0  0  0  0
  141.1660   73.4320  219.9780 C   0  0  0  0  0  0  0  0  0  0  0  0
  141.8250   72.8660  218.8260 N   0  0  0  0  0  0  0  0  0  0  0  0
  142.4930   73.7840  217.9230 C   0  0  0  0  0  0  0  0  0  0  0  0
  143.6560   74.4730  218.6060 C   0  0  0  0  0  0  0  0  0  0  0  0
  144.3770   73.4570  219.4470 C   0  0  2  0  0  0  0  0  0  0  0  0
  144.5310   74.0180  220.8450 C   0  0  0  0  0  0  0  0  0  0  0  0
  145.9400   73.6340  221.2350 C   0  0  0  0  0  0  0  0  0  0  0  0
  146.3160   72.6300  220.1870 C   0  0  0  0  0  0  0  0  0  0  0  0
  145.7290   73.2170  218.9730 N   0  0  0  0  0  0  0  0  0  0  0  0
  140.9050   74.7540  220.0120 N   0  0  0  0  0  0  0  0  0  0  0  0
  140.2940   75.3170  221.0650 C   0  0  0  0  0  0  0  0  0  0  0  0
  140.0330   76.7090  221.0740 N   0  0  0  0  0  0  0  0  0  0  0  0
  138.7530   77.2380  221.4610 C   0  0  0  0  0  0  0  0  0  0  0  0
  138.8930   78.1430  222.6640 C   0  0  0  0  0  0  0  0  0  0  0  0
  140.2330   78.7490  222.7770 C   0  0  0  0  0  0  0  0  0  0  0  0
  140.4810   79.5740  223.8410 C   0  0  0  0  0  0  0  0  0  0  0  0
  141.7310   80.1620  223.9810 C   0  0  0  0  0  0  0  0  0  0  0  0
  142.7430   79.9430  223.0760 C   0  0  0  0  0  0  0  0  0  0  0  0
  142.5030   79.1170  222.0060 C   0  0  0  0  0  0  0  0  0  0  0  0
  141.2570   78.5400  221.8800 C   0  0  0  0  0  0  0  0  0  0  0  0
  141.0640   77.6470  220.6850 C   0  0  0  0  0  0  0  0  0  0  0  0
  139.9510   74.5250  222.0850 N   0  0  0  0  0  0  0  0  0  0  0  0
  141.0160   71.7120  225.1350 C   0  0  0  0  0  0  0  0  0  0  0  0
  139.2287   68.1916  228.8048 H   0  0  0  0  0  0  0  0  0  0  0  0
  141.2253   69.6208  229.2505 H   0  0  0  0  0  0  0  0  0  0  0  0
  142.0379   71.2265  227.5670 H   0  0  0  0  0  0  0  0  0  0  0  0
  138.0429   68.4219  226.5988 H   0  0  0  0  0  0  0  0  0  0  0  0
  138.0110   69.3374  224.3583 H   0  0  0  0  0  0  0  0  0  0  0  0
  138.1911   71.0743  224.4793 H   0  0  0  0  0  0  0  0  0  0  0  0
  140.5820   69.1952  223.8573 H   0  0  0  0  0  0  0  0  0  0  0  0
  139.5890   69.8766  222.5554 H   0  0  0  0  0  0  0  0  0  0  0  0
  141.6338   71.2371  223.1693 H   0  0  0  0  0  0  0  0  0  0  0  0
  138.8720   72.6030  223.6270 H   0  0  0  0  0  0  0  0  0  0  0  0
  141.7980   71.8320  218.6820 H   0  0  0  0  0  0  0  0  0  0  0  0
  142.8679   73.2236  217.0538 H   0  0  0  0  0  0  0  0  0  0  0  0
  141.7701   74.5505  217.6071 H   0  0  0  0  0  0  0  0  0  0  0  0
  144.3412   74.8840  217.8500 H   0  0  0  0  0  0  0  0  0  0  0  0
  143.2916   75.2976  219.2363 H   0  0  0  0  0  0  0  0  0  0  0  0
  143.7929   72.5258  219.4074 H   0  0  0  0  0  0  0  0  0  0  0  0
  144.4089   75.1112  220.8441 H   0  0  0  0  0  0  0  0  0  0  0  0
  143.7756   73.6303  221.5443 H   0  0  0  0  0  0  0  0  0  0  0  0
  146.6101   74.5059  221.2062 H   0  0  0  0  0  0  0  0  0  0  0  0
  146.0152   73.2411  222.2597 H   0  0  0  0  0  0  0  0  0  0  0  0
  147.4083   72.5365  220.0973 H   0  0  0  0  0  0  0  0  0  0  0  0
  145.9608   71.6114  220.4023 H   0  0  0  0  0  0  0  0  0  0  0  0
  146.2050   74.1300  218.8340 H   0  0  0  0  0  0  0  0  0  0  0  0
  138.3311   77.8128  220.6233 H   0  0  0  0  0  0  0  0  0  0  0  0
  138.0878   76.4017  221.7218 H   0  0  0  0  0  0  0  0  0  0  0  0
  138.1492   78.9495  222.5843 H   0  0  0  0  0  0  0  0  0  0  0  0
  138.7348   77.5253  223.5604 H   0  0  0  0  0  0  0  0  0  0  0  0
  139.6926   79.7704  224.5825 H   0  0  0  0  0  0  0  0  0  0  0  0
  141.9172   80.8223  224.8409 H   0  0  0  0  0  0  0  0  0  0  0  0
  143.7254   80.4202  223.2068 H   0  0  0  0  0  0  0  0  0  0  0  0
  143.2899   78.9192  221.2632 H   0  0  0  0  0  0  0  0  0  0  0  0
  140.7416   78.2345  219.8127 H   0  0  0  0  0  0  0  0  0  0  0  0
  141.9958   77.1377  220.3980 H   0  0  0  0  0  0  0  0  0  0  0  0
  142.1099   71.7754  225.2320 H   0  0  0  0  0  0  0  0  0  0  0  0
  140.5207   72.6719  225.3429 H   0  0  0  0  0  0  0  0  0  0  0  0
  1  2  2  0
  2  3  1  0
  3  4  2  0
  4  5  1  0
  5  6  2  0
  5  7  1  0
  7  8  1  0
  8  9  1  0
  9 10  1  0
 10 11  1  0
 11 12  2  0
 12 13  1  0
 13 14  1  0
 14 15  1  0
 15 16  1  0
 16 17  1  0
 17 18  1  0
 18 19  1  0
 19 20  1  0
 20 21  1  0
 13 22  2  0
 22 23  1  0
 23 24  1  0
 24 25  1  0
 25 26  1  0
 26 27  1  0
 27 28  2  0
 28 29  1  0
 29 30  2  0
 30 31  1  0
 31 32  2  0
 32 33  1  0
 23 34  2  0
  9 35  1  0
  6  1  1  0
 34 11  1  0
 35  4  1  0
 21 17  1  0
 33 24  1  0
 32 27  1  0
  1 36  1  0
  2 37  1  0
  3 38  1  0
  6 39  1  0
  7 40  1  0
  7 41  1  0
  8 42  1  0
  8 43  1  0
  9 44  1  6
 10 45  1  0
 14 46  1  0
 15 47  1  0
 15 48  1  0
 16 49  1  0
 16 50  1  0
 17 51  1  1
 18 52  1  0
 18 53  1  0
 19 54  1  0
 19 55  1  0
 20 56  1  0
 20 57  1  0
 21 58  1  0
 25 59  1  0
 25 60  1  0
 26 61  1  0
 26 62  1  0
 28 63  1  0
 29 64  1  0
 30 65  1  0
 31 66  1  0
 33 67  1  0
 33 68  1  0
 35 69  1  0
 35 70  1  0
M  END
>  <smiles>  (53) 
c1ccc2c(c1)CCC(Nc1nc(NCCC3CCCN3)nc(N3CCc4ccccc4C3)n1)C2

>  <score_type>  (53) 
oracle

>  <origin>  (53) 
autodockgpu

>  <m_score__min__energy>  (53) 
-10.699999999999999

>  <m_primary>  (53) 
energy

>  <rmsd>  (53) 
11.72840756332943

>  <m_score__min__rmsd>  (53) 
11.72840756332943

>  <meeko>  (53) 
{"free_energy": -10.43, "intermolecular_energy": -12.52, "internal_energy": -1.38, "cluster_size": 19, "cluster_id": 1, "rank_in_cluster": 4}

>  <energy>  (53) 
-10.49

>  <cluster_rmsd>  (53) 
1.72

>  <cluster>  (53) 
1

$$$$

     RDKit          3D

 70 75  0  0  1  0  0  0  0  0999 V2000
  139.2120   68.9630  226.1590 C   0  0  0  0  0  0  0  0  0  0  0  0
  140.5620   69.3080  226.1090 C   0  0  0  0  0  0  0  0  0  0  0  0
  141.0230   70.2900  225.2570 C   0  0  0  0  0  0  0  0  0  0  0  0
  140.1500   70.9600  224.4260 C   0  0  0  0  0  0  0  0  0  0  0  0
  138.8070   70.6080  224.4840 C   0  0  0  0  0  0  0  0  0  0  0  0
  138.3250   69.6380  225.3210 C   0  0  0  0  0  0  0  0  0  0  0  0
  137.9110   71.3820  223.5470 C   0  0  0  0  0  0  0  0  0  0  0  0
  138.6410   71.2720  222.2040 C   0  0  0  0  0  0  0  0  0  0  0  0
  139.8260   72.2110  222.2860 C   0  0  1  0  0  0  0  0  0  0  0  0
  139.2870   73.5660  222.3550 N   0  0  0  0  0  0  0  0  0  0  0  0
  140.0780   74.6950  221.9510 C   0  0  0  0  0  0  0  0  0  0  0  0
  140.8860   74.6550  220.8750 N   0  0  0  0  0  0  0  0  0  0  0  0
  141.6080   75.7070  220.5210 C   0  0  0  0  0  0  0  0  0  0  0  0
  142.4730   75.6610  219.3670 N   0  0  0  0  0  0  0  0  0  0  0  0
  142.0130   76.3220  218.1610 C   0  0  0  0  0  0  0  0  0  0  0  0
  142.7710   77.6100  217.9180 C   0  0  0  0  0  0  0  0  0  0  0  0
  141.7920   78.7500  217.9720 C   0  0  2  0  0  0  0  0  0  0  0  0
  142.5720   80.0460  218.0490 C   0  0  0  0  0  0  0  0  0  0  0  0
  141.8110   80.8650  219.0660 C   0  0  0  0  0  0  0  0  0  0  0  0
  140.5230   80.1120  219.2080 C   0  0  0  0  0  0  0  0  0  0  0  0
  140.9780   78.7130  219.1760 N   0  0  0  0  0  0  0  0  0  0  0  0
  141.5330   76.8380  221.2510 N   0  0  0  0  0  0  0  0  0  0  0  0
  140.7400   76.9200  222.3290 C   0  0  0  0  0  0  0  0  0  0  0  0
  140.6820   78.1210  223.0780 N   0  0  0  0  0  0  0  0  0  0  0  0
  141.8070   78.5990  223.8350 C   0  0  0  0  0  0  0  0  0  0  0  0
  142.2450   79.9570  223.3380 C   0  0  0  0  0  0  0  0  0  0  0  0
  141.1540   80.7160  222.6960 C   0  0  0  0  0  0  0  0  0  0  0  0
  141.4420   81.9550  222.1900 C   0  0  0  0  0  0  0  0  0  0  0  0
  140.4410   82.6980  221.5790 C   0  0  0  0  0  0  0  0  0  0  0  0
  139.1540   82.2280  221.4600 C   0  0  0  0  0  0  0  0  0  0  0  0
  138.8580   80.9860  221.9660 C   0  0  0  0  0  0  0  0  0  0  0  0
  139.8620   80.2590  222.5700 C   0  0  0  0  0  0  0  0  0  0  0  0
  139.4670   78.9070  223.1000 C   0  0  0  0  0  0  0  0  0  0  0  0
  140.0250   75.8410  222.6620 N   0  0  0  0  0  0  0  0  0  0  0  0
  140.6640   72.0160  223.5160 C   0  0  0  0  0  0  0  0  0  0  0  0
  138.8556   68.1781  226.8423 H   0  0  0  0  0  0  0  0  0  0  0  0
  141.2752   68.7855  226.7635 H   0  0  0  0  0  0  0  0  0  0  0  0
  142.0940   70.5403  225.2404 H   0  0  0  0  0  0  0  0  0  0  0  0
  137.2524   69.3943  225.3324 H   0  0  0  0  0  0  0  0  0  0  0  0
  136.9105   70.9283  223.4916 H   0  0  0  0  0  0  0  0  0  0  0  0
  137.7440   72.4214  223.8661 H   0  0  0  0  0  0  0  0  0  0  0  0
  138.9837   70.2397  222.0403 H   0  0  0  0  0  0  0  0  0  0  0  0
  137.9788   71.5363  221.3663 H   0  0  0  0  0  0  0  0  0  0  0  0
  140.4649   72.0193  221.4113 H   0  0  0  0  0  0  0  0  0  0  0  0
  138.3180   73.7720  222.6950 H   0  0  0  0  0  0  0  0  0  0  0  0
  143.3880   75.1610  219.4380 H   0  0  0  0  0  0  0  0  0  0  0  0
  142.1643   75.6497  217.3036 H   0  0  0  0  0  0  0  0  0  0  0  0
  140.9467   76.5635  218.2819 H   0  0  0  0  0  0  0  0  0  0  0  0
  143.5391   77.7419  218.6943 H   0  0  0  0  0  0  0  0  0  0  0  0
  143.2648   77.5801  216.9355 H   0  0  0  0  0  0  0  0  0  0  0  0
  141.1514   78.6738  217.0810 H   0  0  0  0  0  0  0  0  0  0  0  0
  143.6032   79.8633  218.3854 H   0  0  0  0  0  0  0  0  0  0  0  0
  142.6571   80.5498  217.0748 H   0  0  0  0  0  0  0  0  0  0  0  0
  142.3514   80.9085  220.0231 H   0  0  0  0  0  0  0  0  0  0  0  0
  141.6699   81.9126  218.7616 H   0  0  0  0  0  0  0  0  0  0  0  0
  140.0254   80.3482  220.1601 H   0  0  0  0  0  0  0  0  0  0  0  0
  139.7814   80.3538  218.4324 H   0  0  0  0  0  0  0  0  0  0  0  0
  141.6000   78.5930  219.9990 H   0  0  0  0  0  0  0  0  0  0  0  0
  141.5228   78.6765  224.8948 H   0  0  0  0  0  0  0  0  0  0  0  0
  142.6410   77.8919  223.7150 H   0  0  0  0  0  0  0  0  0  0  0  0
  142.6207   80.5386  224.1927 H   0  0  0  0  0  0  0  0  0  0  0  0
  143.0235   79.7937  222.5782 H   0  0  0  0  0  0  0  0  0  0  0  0
  142.4618   82.3600  222.2672 H   0  0  0  0  0  0  0  0  0  0  0  0
  140.6846   83.6928  221.1779 H   0  0  0  0  0  0  0  0  0  0  0  0
  138.3779   82.8342  220.9698 H   0  0  0  0  0  0  0  0  0  0  0  0
  137.8389   80.5788  221.8908 H   0  0  0  0  0  0  0  0  0  0  0  0
  139.0816   78.9927  224.1267 H   0  0  0  0  0  0  0  0  0  0  0  0
  138.6688   78.4470  222.4990 H   0  0  0  0  0  0  0  0  0  0  0  0
  141.6817   71.7399  223.2030 H   0  0  0  0  0  0  0  0  0  0  0  0
  140.6401   72.9628  224.0754 H   0  0  0  0  0  0  0  0  0  0  0  0
  1  2  2  0
  2  3  1  0
  3  4  2  0
  4  5  1  0
  5  6  2  0
  5  7  1  0
  7  8  1  0
  8  9  1  0
  9 10  1  0
 10 11  1  0
 11 12  2  0
 12 13  1  0
 13 14  1  0
 14 15  1  0
 15 16  1  0
 16 17  1  0
 17 18  1  0
 18 19  1  0
 19 20  1  0
 20 21  1  0
 13 22  2  0
 22 23  1  0
 23 24  1  0
 24 25  1  0
 25 26  1  0
 26 27  1  0
 27 28  2  0
 28 29  1  0
 29 30  2  0
 30 31  1  0
 31 32  2  0
 32 33  1  0
 23 34  2  0
  9 35  1  0
  6  1  1  0
 34 11  1  0
 35  4  1  0
 21 17  1  0
 33 24  1  0
 32 27  1  0
  1 36  1  0
  2 37  1  0
  3 38  1  0
  6 39  1  0
  7 40  1  0
  7 41  1  0
  8 42  1  0
  8 43  1  0
  9 44  1  6
 10 45  1  0
 14 46  1  0
 15 47  1  0
 15 48  1  0
 16 49  1  0
 16 50  1  0
 17 51  1  6
 18 52  1  0
 18 53  1  0
 19 54  1  0
 19 55  1  0
 20 56  1  0
 20 57  1  0
 21 58  1  0
 25 59  1  0
 25 60  1  0
 26 61  1  0
 26 62  1  0
 28 63  1  0
 29 64  1  0
 30 65  1  0
 31 66  1  0
 33 67  1  0
 33 68  1  0
 35 69  1  0
 35 70  1  0
M  END
>  <smiles>  (54) 
c1ccc2c(c1)CCC(Nc1nc(NCCC3CCCN3)nc(N3CCc4ccccc4C3)n1)C2

>  <score_type>  (54) 
oracle

>  <origin>  (54) 
autodockgpu

>  <m_score__min__energy>  (54) 
-10.699999999999999

>  <m_primary>  (54) 
energy

>  <rmsd>  (54) 
11.002274827397574

>  <m_score__min__rmsd>  (54) 
11.002274827397574

>  <meeko>  (54) 
{"free_energy": -8.18, "intermolecular_energy": -10.27, "internal_energy": -2.61, "cluster_size": 10, "cluster_id": 2, "rank_in_cluster": 8}

>  <energy>  (54) 
-10.43

>  <cluster_rmsd>  (54) 
1.75

>  <cluster>  (54) 
1

$$$$

     RDKit          3D

 70 75  0  0  1  0  0  0  0  0999 V2000
  143.3300   77.1430  218.5790 C   0  0  0  0  0  0  0  0  0  0  0  0
  142.3520   77.9930  218.0650 C   0  0  0  0  0  0  0  0  0  0  0  0
  141.0840   78.0430  218.6070 C   0  0  0  0  0  0  0  0  0  0  0  0
  140.7520   77.2450  219.6810 C   0  0  0  0  0  0  0  0  0  0  0  0
  141.7340   76.4010  220.1860 C   0  0  0  0  0  0  0  0  0  0  0  0
  142.9990   76.3340  219.6660 C   0  0  0  0  0  0  0  0  0  0  0  0
  141.3000   75.5570  221.3590 C   0  0  0  0  0  0  0  0  0  0  0  0
  139.9830   74.9410  220.8710 C   0  0  0  0  0  0  0  0  0  0  0  0
  138.9500   76.0460  220.9310 C   0  0  1  0  0  0  0  0  0  0  0  0
  138.7580   76.3690  222.3430 N   0  0  0  0  0  0  0  0  0  0  0  0
  139.0520   77.6830  222.8440 C   0  0  0  0  0  0  0  0  0  0  0  0
  140.3130   78.1000  223.0630 N   0  0  0  0  0  0  0  0  0  0  0  0
  140.5620   79.3150  223.5260 C   0  0  0  0  0  0  0  0  0  0  0  0
  141.9140   79.7600  223.7600 N   0  0  0  0  0  0  0  0  0  0  0  0
  142.5670   80.4990  222.6960 C   0  0  0  0  0  0  0  0  0  0  0  0
  142.2000   79.9410  221.3370 C   0  0  0  0  0  0  0  0  0  0  0  0
  141.1350   80.8200  220.7410 C   0  0  2  0  0  0  0  0  0  0  0  0
  140.9730   82.0390  221.6250 C   0  0  0  0  0  0  0  0  0  0  0  0
  139.4760   82.2420  221.6880 C   0  0  0  0  0  0  0  0  0  0  0  0
  138.9700   81.3540  220.5920 C   0  0  0  0  0  0  0  0  0  0  0  0
  139.8350   80.1710  220.7310 N   0  0  0  0  0  0  0  0  0  0  0  0
  139.5340   80.1490  223.7840 N   0  0  0  0  0  0  0  0  0  0  0  0
  138.2640   79.7730  223.5800 C   0  0  0  0  0  0  0  0  0  0  0  0
  137.2040   80.6700  223.8600 N   0  0  0  0  0  0  0  0  0  0  0  0
  135.9040   80.5170  223.2650 C   0  0  0  0  0  0  0  0  0  0  0  0
  134.8510   80.3150  224.3300 C   0  0  0  0  0  0  0  0  0  0  0  0
  135.2250   80.9030  225.6300 C   0  0  0  0  0  0  0  0  0  0  0  0
  134.3530   80.7640  226.6760 C   0  0  0  0  0  0  0  0  0  0  0  0
  134.6720   81.3040  227.9150 C   0  0  0  0  0  0  0  0  0  0  0  0
  135.8480   81.9820  228.1330 C   0  0  0  0  0  0  0  0  0  0  0  0
  136.7270   82.1270  227.0880 C   0  0  0  0  0  0  0  0  0  0  0  0
  136.3980   81.5850  225.8640 C   0  0  0  0  0  0  0  0  0  0  0  0
  137.4080   81.7800  224.7650 C   0  0  0  0  0  0  0  0  0  0  0  0
  138.0440   78.5400  223.1120 N   0  0  0  0  0  0  0  0  0  0  0  0
  139.3830   77.3130  220.2530 C   0  0  0  0  0  0  0  0  0  0  0  0
  144.3374   77.1110  218.1385 H   0  0  0  0  0  0  0  0  0  0  0  0
  142.5965   78.6382  217.2083 H   0  0  0  0  0  0  0  0  0  0  0  0
  140.3333   78.7239  218.1794 H   0  0  0  0  0  0  0  0  0  0  0  0
  143.7443   75.6512  220.0998 H   0  0  0  0  0  0  0  0  0  0  0  0
  142.0430   74.7770  221.5814 H   0  0  0  0  0  0  0  0  0  0  0  0
  141.1912   76.1319  222.2905 H   0  0  0  0  0  0  0  0  0  0  0  0
  140.0921   74.5770  219.8387 H   0  0  0  0  0  0  0  0  0  0  0  0
  139.6878   74.0832  221.4931 H   0  0  0  0  0  0  0  0  0  0  0  0
  138.0457   75.6848  220.4193 H   0  0  0  0  0  0  0  0  0  0  0  0
  138.4060   75.6700  223.0390 H   0  0  0  0  0  0  0  0  0  0  0  0
  142.3710   79.5380  224.6730 H   0  0  0  0  0  0  0  0  0  0  0  0
  142.2554   81.5527  222.7473 H   0  0  0  0  0  0  0  0  0  0  0  0
  143.6555   80.4097  222.8269 H   0  0  0  0  0  0  0  0  0  0  0  0
  143.0860   79.9351  220.6851 H   0  0  0  0  0  0  0  0  0  0  0  0
  141.8303   78.9098  221.4365 H   0  0  0  0  0  0  0  0  0  0  0  0
  141.4451   81.0589  219.7130 H   0  0  0  0  0  0  0  0  0  0  0  0
  141.3860   81.8538  222.6276 H   0  0  0  0  0  0  0  0  0  0  0  0
  141.5059   82.9197  221.2373 H   0  0  0  0  0  0  0  0  0  0  0  0
  139.0756   81.9323  222.6646 H   0  0  0  0  0  0  0  0  0  0  0  0
  139.1753   83.2933  221.5683 H   0  0  0  0  0  0  0  0  0  0  0  0
  137.9118   81.0952  220.7441 H   0  0  0  0  0  0  0  0  0  0  0  0
  139.0081   81.8159  219.5944 H   0  0  0  0  0  0  0  0  0  0  0  0
  139.6450   79.7820  221.6750 H   0  0  0  0  0  0  0  0  0  0  0  0
  135.6632   81.4205  222.6856 H   0  0  0  0  0  0  0  0  0  0  0  0
  135.9168   79.6350  222.6078 H   0  0  0  0  0  0  0  0  0  0  0  0
  133.9149   80.7823  223.9903 H   0  0  0  0  0  0  0  0  0  0  0  0
  134.7385   79.2311  224.4796 H   0  0  0  0  0  0  0  0  0  0  0  0
  133.4034   80.2267  226.5357 H   0  0  0  0  0  0  0  0  0  0  0  0
  133.9624   81.1857  228.7471 H   0  0  0  0  0  0  0  0  0  0  0  0
  136.0800   82.3996  229.1239 H   0  0  0  0  0  0  0  0  0  0  0  0
  137.6762   82.6657  227.2251 H   0  0  0  0  0  0  0  0  0  0  0  0
  137.2358   82.7356  224.2481 H   0  0  0  0  0  0  0  0  0  0  0  0
  138.4368   81.8099  225.1531 H   0  0  0  0  0  0  0  0  0  0  0  0
  138.6764   77.5302  219.4384 H   0  0  0  0  0  0  0  0  0  0  0  0
  139.3934   78.1013  221.0201 H   0  0  0  0  0  0  0  0  0  0  0  0
  1  2  2  0
  2  3  1  0
  3  4  2  0
  4  5  1  0
  5  6  2  0
  5  7  1  0
  7  8  1  0
  8  9  1  0
  9 10  1  0
 10 11  1  0
 11 12  2  0
 12 13  1  0
 13 14  1  0
 14 15  1  0
 15 16  1  0
 16 17  1  0
 17 18  1  0
 18 19  1  0
 19 20  1  0
 20 21  1  0
 13 22  2  0
 22 23  1  0
 23 24  1  0
 24 25  1  0
 25 26  1  0
 26 27  1  0
 27 28  2  0
 28 29  1  0
 29 30  2  0
 30 31  1  0
 31 32  2  0
 32 33  1  0
 23 34  2  0
  9 35  1  0
  6  1  1  0
 34 11  1  0
 35  4  1  0
 21 17  1  0
 33 24  1  0
 32 27  1  0
  1 36  1  0
  2 37  1  0
  3 38  1  0
  6 39  1  0
  7 40  1  0
  7 41  1  0
  8 42  1  0
  8 43  1  0
  9 44  1  6
 10 45  1  0
 14 46  1  0
 15 47  1  0
 15 48  1  0
 16 49  1  0
 16 50  1  0
 17 51  1  6
 18 52  1  0
 18 53  1  0
 19 54  1  0
 19 55  1  0
 20 56  1  0
 20 57  1  0
 21 58  1  0
 25 59  1  0
 25 60  1  0
 26 61  1  0
 26 62  1  0
 28 63  1  0
 29 64  1  0
 30 65  1  0
 31 66  1  0
 33 67  1  0
 33 68  1  0
 35 69  1  0
 35 70  1  0
M  END
>  <smiles>  (55) 
c1ccc2c(c1)CCC(Nc1nc(NCCC3CCCN3)nc(N3CCc4ccccc4C3)n1)C2

>  <score_type>  (55) 
oracle

>  <origin>  (55) 
autodockgpu

>  <m_score__min__energy>  (55) 
-10.699999999999999

>  <m_primary>  (55) 
energy

>  <rmsd>  (55) 
5.506309795894871

>  <m_score__min__rmsd>  (55) 
5.506309795894871

>  <meeko>  (55) 
{"free_energy": -6.62, "intermolecular_energy": -8.71, "internal_energy": -4.24, "cluster_size": 3, "cluster_id": 10, "rank_in_cluster": 2}

>  <energy>  (55) 
-10.23

>  <cluster_rmsd>  (55) 
1.11

>  <cluster>  (55) 
1

$$$$

     RDKit          3D

 70 75  0  0  1  0  0  0  0  0999 V2000
  136.0720   69.1590  221.3400 C   0  0  0  0  0  0  0  0  0  0  0  0
  136.8440   68.0940  221.8040 C   0  0  0  0  0  0  0  0  0  0  0  0
  138.1990   68.0240  221.5540 C   0  0  0  0  0  0  0  0  0  0  0  0
  138.8280   69.0150  220.8300 C   0  0  0  0  0  0  0  0  0  0  0  0
  138.0500   70.0710  220.3720 C   0  0  0  0  0  0  0  0  0  0  0  0
  136.7040   70.1640  220.6080 C   0  0  0  0  0  0  0  0  0  0  0  0
  138.8040   71.1180  219.5890 C   0  0  0  0  0  0  0  0  0  0  0  0
  139.5850   70.2850  218.5660 C   0  0  0  0  0  0  0  0  0  0  0  0
  140.7240   69.6380  219.3260 C   0  0  1  0  0  0  0  0  0  0  0  0
  141.6140   70.7160  219.7490 N   0  0  0  0  0  0  0  0  0  0  0  0
  141.2140   71.6430  220.7710 C   0  0  0  0  0  0  0  0  0  0  0  0
  141.3980   72.9700  220.6450 N   0  0  0  0  0  0  0  0  0  0  0  0
  141.0220   73.8080  221.5990 C   0  0  0  0  0  0  0  0  0  0  0  0
  141.2210   75.2310  221.4620 N   0  0  0  0  0  0  0  0  0  0  0  0
  140.0570   76.0400  221.1540 C   0  0  0  0  0  0  0  0  0  0  0  0
  139.1030   76.0950  222.3290 C   0  0  0  0  0  0  0  0  0  0  0  0
  137.8130   75.4410  221.9170 C   0  0  2  0  0  0  0  0  0  0  0  0
  136.7540   75.7900  222.9420 C   0  0  0  0  0  0  0  0  0  0  0  0
  136.0030   74.4920  223.1410 C   0  0  0  0  0  0  0  0  0  0  0  0
  136.4770   73.6510  221.9940 C   0  0  0  0  0  0  0  0  0  0  0  0
  137.9080   73.9910  221.9340 N   0  0  0  0  0  0  0  0  0  0  0  0
  140.4460   73.3230  222.7170 N   0  0  0  0  0  0  0  0  0  0  0  0
  140.2430   72.0080  222.8820 C   0  0  0  0  0  0  0  0  0  0  0  0
  139.6350   71.5260  224.0670 N   0  0  0  0  0  0  0  0  0  0  0  0
  138.2550   71.1260  224.1030 C   0  0  0  0  0  0  0  0  0  0  0  0
  138.1320   69.6700  224.4890 C   0  0  0  0  0  0  0  0  0  0  0  0
  139.2700   69.1890  225.2950 C   0  0  0  0  0  0  0  0  0  0  0  0
  139.2750   67.8760  225.6850 C   0  0  0  0  0  0  0  0  0  0  0  0
  140.3300   67.3880  226.4440 C   0  0  0  0  0  0  0  0  0  0  0  0
  141.3850   68.1840  226.8220 C   0  0  0  0  0  0  0  0  0  0  0  0
  141.3870   69.5010  226.4340 C   0  0  0  0  0  0  0  0  0  0  0  0
  140.3340   69.9730  225.6810 C   0  0  0  0  0  0  0  0  0  0  0  0
  140.4020   71.4250  225.2900 C   0  0  0  0  0  0  0  0  0  0  0  0
  140.6340   71.1880  221.9020 N   0  0  0  0  0  0  0  0  0  0  0  0
  140.2870   68.9240  220.5710 C   0  0  0  0  0  0  0  0  0  0  0  0
  134.9925   69.2051  221.5461 H   0  0  0  0  0  0  0  0  0  0  0  0
  136.3617   67.2920  222.3821 H   0  0  0  0  0  0  0  0  0  0  0  0
  138.7815   67.1721  221.9347 H   0  0  0  0  0  0  0  0  0  0  0  0
  136.1290   71.0201  220.2252 H   0  0  0  0  0  0  0  0  0  0  0  0
  138.1126   71.8122  219.0889 H   0  0  0  0  0  0  0  0  0  0  0  0
  139.4488   71.7496  220.2177 H   0  0  0  0  0  0  0  0  0  0  0  0
  138.9347   69.5147  218.1258 H   0  0  0  0  0  0  0  0  0  0  0  0
  139.9585   70.9109  217.7421 H   0  0  0  0  0  0  0  0  0  0  0  0
  141.1910   68.8962  218.6614 H   0  0  0  0  0  0  0  0  0  0  0  0
  142.5660   70.8590  219.3350 H   0  0  0  0  0  0  0  0  0  0  0  0
  142.1810   75.6240  221.5860 H   0  0  0  0  0  0  0  0  0  0  0  0
  140.3842   77.0613  220.9092 H   0  0  0  0  0  0  0  0  0  0  0  0
  139.5328   75.5860  220.3001 H   0  0  0  0  0  0  0  0  0  0  0  0
  139.5359   75.5579  223.1858 H   0  0  0  0  0  0  0  0  0  0  0  0
  138.9227   77.1393  222.6238 H   0  0  0  0  0  0  0  0  0  0  0  0
  137.5767   75.7918  220.9016 H   0  0  0  0  0  0  0  0  0  0  0  0
  137.2147   76.1245  223.8832 H   0  0  0  0  0  0  0  0  0  0  0  0
  136.1015   76.6134  222.6161 H   0  0  0  0  0  0  0  0  0  0  0  0
  136.2618   74.0289  224.1046 H   0  0  0  0  0  0  0  0  0  0  0  0
  134.9108   74.6212  223.1625 H   0  0  0  0  0  0  0  0  0  0  0  0
  136.3291   72.5799  222.1962 H   0  0  0  0  0  0  0  0  0  0  0  0
  135.9373   73.8391  221.0541 H   0  0  0  0  0  0  0  0  0  0  0  0
  138.3150   73.6900  222.8410 H   0  0  0  0  0  0  0  0  0  0  0  0
  137.7194   71.7418  224.8405 H   0  0  0  0  0  0  0  0  0  0  0  0
  137.8197   71.2651  223.1024 H   0  0  0  0  0  0  0  0  0  0  0  0
  137.2089   69.5389  225.0727 H   0  0  0  0  0  0  0  0  0  0  0  0
  138.1165   69.0833  223.5587 H   0  0  0  0  0  0  0  0  0  0  0  0
  138.4469   67.2113  225.3981 H   0  0  0  0  0  0  0  0  0  0  0  0
  140.3214   66.3321  226.7523 H   0  0  0  0  0  0  0  0  0  0  0  0
  142.2104   67.7744  227.4228 H   0  0  0  0  0  0  0  0  0  0  0  0
  142.2144   70.1674  226.7192 H   0  0  0  0  0  0  0  0  0  0  0  0
  139.9609   72.0568  226.0750 H   0  0  0  0  0  0  0  0  0  0  0  0
  141.4391   71.7655  225.1537 H   0  0  0  0  0  0  0  0  0  0  0  0
  140.5572   67.8620  220.4753 H   0  0  0  0  0  0  0  0  0  0  0  0
  140.7947   69.4116  221.4163 H   0  0  0  0  0  0  0  0  0  0  0  0
  1  2  2  0
  2  3  1  0
  3  4  2  0
  4  5  1  0
  5  6  2  0
  5  7  1  0
  7  8  1  0
  8  9  1  0
  9 10  1  0
 10 11  1  0
 11 12  2  0
 12 13  1  0
 13 14  1  0
 14 15  1  0
 15 16  1  0
 16 17  1  0
 17 18  1  0
 18 19  1  0
 19 20  1  0
 20 21  1  0
 13 22  2  0
 22 23  1  0
 23 24  1  0
 24 25  1  0
 25 26  1  0
 26 27  1  0
 27 28  2  0
 28 29  1  0
 29 30  2  0
 30 31  1  0
 31 32  2  0
 32 33  1  0
 23 34  2  0
  9 35  1  0
  6  1  1  0
 34 11  1  0
 35  4  1  0
 21 17  1  0
 33 24  1  0
 32 27  1  0
  1 36  1  0
  2 37  1  0
  3 38  1  0
  6 39  1  0
  7 40  1  0
  7 41  1  0
  8 42  1  0
  8 43  1  0
  9 44  1  6
 10 45  1  0
 14 46  1  0
 15 47  1  0
 15 48  1  0
 16 49  1  0
 16 50  1  0
 17 51  1  6
 18 52  1  0
 18 53  1  0
 19 54  1  0
 19 55  1  0
 20 56  1  0
 20 57  1  0
 21 58  1  0
 25 59  1  0
 25 60  1  0
 26 61  1  0
 26 62  1  0
 28 63  1  0
 29 64  1  0
 30 65  1  0
 31 66  1  0
 33 67  1  0
 33 68  1  0
 35 69  1  0
 35 70  1  0
M  END
>  <smiles>  (56) 
c1ccc2c(c1)CCC(Nc1nc(NCCC3CCCN3)nc(N3CCc4ccccc4C3)n1)C2

>  <score_type>  (56) 
oracle

>  <origin>  (56) 
autodockgpu

>  <m_score__min__energy>  (56) 
-10.699999999999999

>  <m_primary>  (56) 
energy

>  <rmsd>  (56) 
11.913768349966542

>  <m_score__min__rmsd>  (56) 
11.913768349966542

>  <meeko>  (56) 
{"free_energy": -6.99, "intermolecular_energy": -9.08, "internal_energy": -3.01, "cluster_size": 1, "cluster_id": 9, "rank_in_cluster": 1}

>  <energy>  (56) 
-9.91

>  <cluster_rmsd>  (56) 
1.85

>  <cluster>  (56) 
1

$$$$

     RDKit          3D

 70 75  0  0  1  0  0  0  0  0999 V2000
  141.5910   81.1080  221.9520 C   0  0  0  0  0  0  0  0  0  0  0  0
  140.9170   80.7100  223.1060 C   0  0  0  0  0  0  0  0  0  0  0  0
  140.6230   79.3840  223.3470 C   0  0  0  0  0  0  0  0  0  0  0  0
  140.9930   78.4110  222.4430 C   0  0  0  0  0  0  0  0  0  0  0  0
  141.6640   78.8180  221.2960 C   0  0  0  0  0  0  0  0  0  0  0  0
  141.9670   80.1270  221.0340 C   0  0  0  0  0  0  0  0  0  0  0  0
  142.0370   77.7010  220.3520 C   0  0  0  0  0  0  0  0  0  0  0  0
  140.7220   76.9290  220.1970 C   0  0  0  0  0  0  0  0  0  0  0  0
  140.5320   76.1500  221.4820 C   0  0  1  0  0  0  0  0  0  0  0  0
  141.5970   75.1510  221.5300 N   0  0  0  0  0  0  0  0  0  0  0  0
  141.2880   73.7490  221.6020 C   0  0  0  0  0  0  0  0  0  0  0  0
  141.6850   72.8800  220.6540 N   0  0  0  0  0  0  0  0  0  0  0  0
  141.3900   71.5920  220.7390 C   0  0  0  0  0  0  0  0  0  0  0  0
  141.8170   70.6620  219.7220 N   0  0  0  0  0  0  0  0  0  0  0  0
  142.4740   71.2100  218.5500 C   0  0  0  0  0  0  0  0  0  0  0  0
  143.9810   71.1600  218.6940 C   0  0  0  0  0  0  0  0  0  0  0  0
  144.4900   72.5720  218.7930 C   0  0  2  0  0  0  0  0  0  0  0  0
  145.1130   72.7590  220.1610 C   0  0  0  0  0  0  0  0  0  0  0  0
  144.6390   74.1290  220.5890 C   0  0  0  0  0  0  0  0  0  0  0  0
  144.0900   74.7060  219.3200 C   0  0  0  0  0  0  0  0  0  0  0  0
  143.4130   73.5460  218.7200 N   0  0  0  0  0  0  0  0  0  0  0  0
  140.6790   71.1440  221.7920 N   0  0  0  0  0  0  0  0  0  0  0  0
  140.2640   71.9760  222.7590 C   0  0  0  0  0  0  0  0  0  0  0  0
  139.5180   71.4780  223.8540 N   0  0  0  0  0  0  0  0  0  0  0  0
  138.2010   70.9250  223.6860 C   0  0  0  0  0  0  0  0  0  0  0  0
  138.1680   69.4820  224.1330 C   0  0  0  0  0  0  0  0  0  0  0  0
  139.1970   69.1670  225.1430 C   0  0  0  0  0  0  0  0  0  0  0  0
  139.2740   67.8810  225.6070 C   0  0  0  0  0  0  0  0  0  0  0  0
  140.2290   67.5480  226.5570 C   0  0  0  0  0  0  0  0  0  0  0  0
  141.1150   68.4740  227.0550 C   0  0  0  0  0  0  0  0  0  0  0  0
  141.0440   69.7660  226.5950 C   0  0  0  0  0  0  0  0  0  0  0  0
  140.0910   70.0830  225.6510 C   0  0  0  0  0  0  0  0  0  0  0  0
  140.0710   71.5150  225.1910 C   0  0  0  0  0  0  0  0  0  0  0  0
  140.5780   73.2710  222.6450 N   0  0  0  0  0  0  0  0  0  0  0  0
  140.6700   76.9880  222.7190 C   0  0  0  0  0  0  0  0  0  0  0  0
  141.8204   82.1683  221.7701 H   0  0  0  0  0  0  0  0  0  0  0  0
  140.6130   81.4703  223.8405 H   0  0  0  0  0  0  0  0  0  0  0  0
  140.0898   79.1010  224.2666 H   0  0  0  0  0  0  0  0  0  0  0  0
  142.4999   80.4018  220.1118 H   0  0  0  0  0  0  0  0  0  0  0  0
  142.3790   78.0980  219.3848 H   0  0  0  0  0  0  0  0  0  0  0  0
  142.8649   77.0783  220.7220 H   0  0  0  0  0  0  0  0  0  0  0  0
  139.8855   77.6277  220.0480 H   0  0  0  0  0  0  0  0  0  0  0  0
  140.7519   76.2597  219.3246 H   0  0  0  0  0  0  0  0  0  0  0  0
  139.5146   75.7318  221.4724 H   0  0  0  0  0  0  0  0  0  0  0  0
  142.6130   75.4060  221.5160 H   0  0  0  0  0  0  0  0  0  0  0  0
  141.6400   69.6410  219.8600 H   0  0  0  0  0  0  0  0  0  0  0  0
  142.1783   70.6253  217.6665 H   0  0  0  0  0  0  0  0  0  0  0  0
  142.1691   72.2611  218.4390 H   0  0  0  0  0  0  0  0  0  0  0  0
  144.2500   70.6024  219.6033 H   0  0  0  0  0  0  0  0  0  0  0  0
  144.4294   70.6541  217.8262 H   0  0  0  0  0  0  0  0  0  0  0  0
  145.1947   72.7254  217.9624 H   0  0  0  0  0  0  0  0  0  0  0  0
  144.7614   71.9864  220.8606 H   0  0  0  0  0  0  0  0  0  0  0  0
  146.2096   72.6744  220.1441 H   0  0  0  0  0  0  0  0  0  0  0  0
  143.8580   74.0543  221.3600 H   0  0  0  0  0  0  0  0  0  0  0  0
  145.4343   74.7432  221.0365 H   0  0  0  0  0  0  0  0  0  0  0  0
  143.3795   75.5200  219.5264 H   0  0  0  0  0  0  0  0  0  0  0  0
  144.8561   75.1552  218.6709 H   0  0  0  0  0  0  0  0  0  0  0  0
  142.6650   73.2710  219.3860 H   0  0  0  0  0  0  0  0  0  0  0  0
  137.4859   71.5059  224.2870 H   0  0  0  0  0  0  0  0  0  0  0  0
  137.9303   70.9721  222.6209 H   0  0  0  0  0  0  0  0  0  0  0  0
  137.1780   69.2711  224.5637 H   0  0  0  0  0  0  0  0  0  0  0  0
  138.3728   68.8594  223.2496 H   0  0  0  0  0  0  0  0  0  0  0  0
  138.5815   67.1149  225.2281 H   0  0  0  0  0  0  0  0  0  0  0  0
  140.2787   66.5118  226.9228 H   0  0  0  0  0  0  0  0  0  0  0  0
  141.8651   68.1859  227.8062 H   0  0  0  0  0  0  0  0  0  0  0  0
  141.7350   70.5339  226.9730 H   0  0  0  0  0  0  0  0  0  0  0  0
  139.4379   72.1238  225.8533 H   0  0  0  0  0  0  0  0  0  0  0  0
  141.0743   71.9656  225.2079 H   0  0  0  0  0  0  0  0  0  0  0  0
  139.7205   76.9485  223.2729 H   0  0  0  0  0  0  0  0  0  0  0  0
  141.5100   76.5737  223.2959 H   0  0  0  0  0  0  0  0  0  0  0  0
  1  2  2  0
  2  3  1  0
  3  4  2  0
  4  5  1  0
  5  6  2  0
  5  7  1  0
  7  8  1  0
  8  9  1  0
  9 10  1  0
 10 11  1  0
 11 12  2  0
 12 13  1  0
 13 14  1  0
 14 15  1  0
 15 16  1  0
 16 17  1  0
 17 18  1  0
 18 19  1  0
 19 20  1  0
 20 21  1  0
 13 22  2  0
 22 23  1  0
 23 24  1  0
 24 25  1  0
 25 26  1  0
 26 27  1  0
 27 28  2  0
 28 29  1  0
 29 30  2  0
 30 31  1  0
 31 32  2  0
 32 33  1  0
 23 34  2  0
  9 35  1  0
  6  1  1  0
 34 11  1  0
 35  4  1  0
 21 17  1  0
 33 24  1  0
 32 27  1  0
  1 36  1  0
  2 37  1  0
  3 38  1  0
  6 39  1  0
  7 40  1  0
  7 41  1  0
  8 42  1  0
  8 43  1  0
  9 44  1  6
 10 45  1  0
 14 46  1  0
 15 47  1  0
 15 48  1  0
 16 49  1  0
 16 50  1  0
 17 51  1  6
 18 52  1  0
 18 53  1  0
 19 54  1  0
 19 55  1  0
 20 56  1  0
 20 57  1  0
 21 58  1  0
 25 59  1  0
 25 60  1  0
 26 61  1  0
 26 62  1  0
 28 63  1  0
 29 64  1  0
 30 65  1  0
 31 66  1  0
 33 67  1  0
 33 68  1  0
 35 69  1  0
 35 70  1  0
M  END
>  <smiles>  (57) 
c1ccc2c(c1)CCC(Nc1nc(NCCC3CCCN3)nc(N3CCc4ccccc4C3)n1)C2

>  <score_type>  (57) 
oracle

>  <origin>  (57) 
autodockgpu

>  <m_score__min__energy>  (57) 
-10.699999999999999

>  <m_primary>  (57) 
energy

>  <rmsd>  (57) 
3.7278862826875203

>  <m_score__min__rmsd>  (57) 
3.7278862826875203

>  <meeko>  (57) 
{"free_energy": -9.27, "intermolecular_energy": -11.36, "internal_energy": -2.25, "cluster_size": 19, "cluster_id": 1, "rank_in_cluster": 14}

>  <energy>  (57) 
-9.85

>  <cluster_rmsd>  (57) 
1.65

>  <cluster>  (57) 
1

$$$$

     RDKit          3D

 70 75  0  0  1  0  0  0  0  0999 V2000
  142.3390   80.5520  222.6290 C   0  0  0  0  0  0  0  0  0  0  0  0
  142.3240   79.7980  223.8010 C   0  0  0  0  0  0  0  0  0  0  0  0
  141.8150   78.5160  223.8260 C   0  0  0  0  0  0  0  0  0  0  0  0
  141.3040   77.9440  222.6800 C   0  0  0  0  0  0  0  0  0  0  0  0
  141.3240   78.7050  221.5170 C   0  0  0  0  0  0  0  0  0  0  0  0
  141.8240   79.9780  221.4670 C   0  0  0  0  0  0  0  0  0  0  0  0
  140.7480   78.0170  220.3030 C   0  0  0  0  0  0  0  0  0  0  0  0
  139.4020   77.4900  220.8130 C   0  0  0  0  0  0  0  0  0  0  0  0
  139.7170   76.2910  221.6830 C   0  0  1  0  0  0  0  0  0  0  0  0
  140.2590   75.2610  220.8020 N   0  0  0  0  0  0  0  0  0  0  0  0
  140.6950   73.9970  221.3280 C   0  0  0  0  0  0  0  0  0  0  0  0
  141.7870   73.3650  220.8580 N   0  0  0  0  0  0  0  0  0  0  0  0
  142.1720   72.2000  221.3570 C   0  0  0  0  0  0  0  0  0  0  0  0
  143.3430   71.5250  220.8520 N   0  0  0  0  0  0  0  0  0  0  0  0
  144.0100   72.1130  219.7070 C   0  0  0  0  0  0  0  0  0  0  0  0
  145.2840   71.3660  219.3720 C   0  0  0  0  0  0  0  0  0  0  0  0
  144.9130   69.9700  218.9510 C   0  0  2  0  0  0  0  0  0  0  0  0
  143.5430   70.0150  218.3070 C   0  0  0  0  0  0  0  0  0  0  0  0
  142.8460   68.7920  218.8560 C   0  0  0  0  0  0  0  0  0  0  0  0
  143.9690   68.0130  219.4730 C   0  0  0  0  0  0  0  0  0  0  0  0
  144.7790   69.0760  220.0890 N   0  0  0  0  0  0  0  0  0  0  0  0
  141.4580   71.6370  222.3520 N   0  0  0  0  0  0  0  0  0  0  0  0
  140.3650   72.2340  222.8490 C   0  0  0  0  0  0  0  0  0  0  0  0
  139.6330   71.6190  223.8950 N   0  0  0  0  0  0  0  0  0  0  0  0
  138.3030   71.1100  223.6930 C   0  0  0  0  0  0  0  0  0  0  0  0
  138.2550   69.6240  223.9650 C   0  0  0  0  0  0  0  0  0  0  0  0
  139.2990   69.1760  224.9060 C   0  0  0  0  0  0  0  0  0  0  0  0
  139.3630   67.8430  225.2120 C   0  0  0  0  0  0  0  0  0  0  0  0
  140.3330   67.3840  226.0930 C   0  0  0  0  0  0  0  0  0  0  0  0
  141.2450   68.2320  226.6770 C   0  0  0  0  0  0  0  0  0  0  0  0
  141.1870   69.5700  226.3760 C   0  0  0  0  0  0  0  0  0  0  0  0
  140.2200   70.0110  225.4990 C   0  0  0  0  0  0  0  0  0  0  0  0
  140.2150   71.4890  225.2130 C   0  0  0  0  0  0  0  0  0  0  0  0
  140.0010   73.4080  222.3250 N   0  0  0  0  0  0  0  0  0  0  0  0
  140.7620   76.5630  222.7250 C   0  0  0  0  0  0  0  0  0  0  0  0
  142.7466   81.5737  222.6207 H   0  0  0  0  0  0  0  0  0  0  0  0
  142.7270   80.2348  224.7267 H   0  0  0  0  0  0  0  0  0  0  0  0
  141.8168   77.9460  224.7668 H   0  0  0  0  0  0  0  0  0  0  0  0
  141.8197   80.5413  220.5222 H   0  0  0  0  0  0  0  0  0  0  0  0
  140.6066   78.7277  219.4754 H   0  0  0  0  0  0  0  0  0  0  0  0
  141.3997   77.2267  219.9021 H   0  0  0  0  0  0  0  0  0  0  0  0
  138.8886   78.2639  221.4025 H   0  0  0  0  0  0  0  0  0  0  0  0
  138.7383   77.2160  219.9797 H   0  0  0  0  0  0  0  0  0  0  0  0
  138.7916   76.0033  222.2035 H   0  0  0  0  0  0  0  0  0  0  0  0
  140.3520   75.3930  219.7670 H   0  0  0  0  0  0  0  0  0  0  0  0
  143.6650   70.6480  221.3200 H   0  0  0  0  0  0  0  0  0  0  0  0
  143.3340   72.0762  218.8400 H   0  0  0  0  0  0  0  0  0  0  0  0
  144.2704   73.1533  219.9520 H   0  0  0  0  0  0  0  0  0  0  0  0
  145.8095   71.8754  218.5508 H   0  0  0  0  0  0  0  0  0  0  0  0
  145.9481   71.3349  220.2483 H   0  0  0  0  0  0  0  0  0  0  0  0
  145.7047   69.6087  218.2782 H   0  0  0  0  0  0  0  0  0  0  0  0
  143.0065   70.9323  218.5910 H   0  0  0  0  0  0  0  0  0  0  0  0
  143.5897   70.0205  217.2080 H   0  0  0  0  0  0  0  0  0  0  0  0
  142.0959   69.0699  219.6110 H   0  0  0  0  0  0  0  0  0  0  0  0
  142.2952   68.2263  218.0901 H   0  0  0  0  0  0  0  0  0  0  0  0
  143.5965   67.3060  220.2289 H   0  0  0  0  0  0  0  0  0  0  0  0
  144.5249   67.3929  218.7544 H   0  0  0  0  0  0  0  0  0  0  0  0
  144.1710   69.5260  220.8020 H   0  0  0  0  0  0  0  0  0  0  0  0
  137.6112   71.6250  224.3758 H   0  0  0  0  0  0  0  0  0  0  0  0
  138.0098   71.2889  222.6480 H   0  0  0  0  0  0  0  0  0  0  0  0
  137.2709   69.3771  224.3899 H   0  0  0  0  0  0  0  0  0  0  0  0
  138.4308   69.1088  223.0091 H   0  0  0  0  0  0  0  0  0  0  0  0
  138.6486   67.1383  224.7615 H   0  0  0  0  0  0  0  0  0  0  0  0
  140.3733   66.3108  226.3309 H   0  0  0  0  0  0  0  0  0  0  0  0
  142.0056   67.8457  227.3714 H   0  0  0  0  0  0  0  0  0  0  0  0
  141.8992   70.2770  226.8265 H   0  0  0  0  0  0  0  0  0  0  0  0
  139.6069   72.0238  225.9575 H   0  0  0  0  0  0  0  0  0  0  0  0
  141.2260   71.9200  225.2600 H   0  0  0  0  0  0  0  0  0  0  0  0
  140.3152   76.3974  223.7164 H   0  0  0  0  0  0  0  0  0  0  0  0
  141.6016   75.8814  222.5239 H   0  0  0  0  0  0  0  0  0  0  0  0
  1  2  2  0
  2  3  1  0
  3  4  2  0
  4  5  1  0
  5  6  2  0
  5  7  1  0
  7  8  1  0
  8  9  1  0
  9 10  1  0
 10 11  1  0
 11 12  2  0
 12 13  1  0
 13 14  1  0
 14 15  1  0
 15 16  1  0
 16 17  1  0
 17 18  1  0
 18 19  1  0
 19 20  1  0
 20 21  1  0
 13 22  2  0
 22 23  1  0
 23 24  1  0
 24 25  1  0
 25 26  1  0
 26 27  1  0
 27 28  2  0
 28 29  1  0
 29 30  2  0
 30 31  1  0
 31 32  2  0
 32 33  1  0
 23 34  2  0
  9 35  1  0
  6  1  1  0
 34 11  1  0
 35  4  1  0
 21 17  1  0
 33 24  1  0
 32 27  1  0
  1 36  1  0
  2 37  1  0
  3 38  1  0
  6 39  1  0
  7 40  1  0
  7 41  1  0
  8 42  1  0
  8 43  1  0
  9 44  1  1
 10 45  1  0
 14 46  1  0
 15 47  1  0
 15 48  1  0
 16 49  1  0
 16 50  1  0
 17 51  1  6
 18 52  1  0
 18 53  1  0
 19 54  1  0
 19 55  1  0
 20 56  1  0
 20 57  1  0
 21 58  1  0
 25 59  1  0
 25 60  1  0
 26 61  1  0
 26 62  1  0
 28 63  1  0
 29 64  1  0
 30 65  1  0
 31 66  1  0
 33 67  1  0
 33 68  1  0
 35 69  1  0
 35 70  1  0
M  END
>  <smiles>  (58) 
c1ccc2c(c1)CCC(Nc1nc(NCCC3CCCN3)nc(N3CCc4ccccc4C3)n1)C2

>  <score_type>  (58) 
oracle

>  <origin>  (58) 
autodockgpu

>  <m_score__min__energy>  (58) 
-10.699999999999999

>  <m_primary>  (58) 
energy

>  <rmsd>  (58) 
4.307708108503064

>  <m_score__min__rmsd>  (58) 
4.307708108503064

>  <meeko>  (58) 
{"free_energy": -9.14, "intermolecular_energy": -11.22, "internal_energy": -1.6, "cluster_size": 19, "cluster_id": 1, "rank_in_cluster": 15}

>  <energy>  (58) 
-9.74

>  <cluster_rmsd>  (58) 
1.2

>  <cluster>  (58) 
1

$$$$

     RDKit          3D

 70 75  0  0  1  0  0  0  0  0999 V2000
  143.3120   76.7610  218.8230 C   0  0  0  0  0  0  0  0  0  0  0  0
  142.4190   77.6730  218.2630 C   0  0  0  0  0  0  0  0  0  0  0  0
  141.1310   77.8050  218.7400 C   0  0  0  0  0  0  0  0  0  0  0  0
  140.6930   77.0290  219.7920 C   0  0  0  0  0  0  0  0  0  0  0  0
  141.5910   76.1230  220.3420 C   0  0  0  0  0  0  0  0  0  0  0  0
  142.8740   75.9740  219.8880 C   0  0  0  0  0  0  0  0  0  0  0  0
  141.0430   75.3090  221.4890 C   0  0  0  0  0  0  0  0  0  0  0  0
  139.7160   74.7800  220.9320 C   0  0  0  0  0  0  0  0  0  0  0  0
  138.7550   75.9500  220.9430 C   0  0  1  0  0  0  0  0  0  0  0  0
  138.5120   76.2830  222.3440 N   0  0  0  0  0  0  0  0  0  0  0  0
  138.8480   77.5810  222.8610 C   0  0  0  0  0  0  0  0  0  0  0  0
  140.1220   77.9580  223.0750 N   0  0  0  0  0  0  0  0  0  0  0  0
  140.4100   79.1590  223.5520 C   0  0  0  0  0  0  0  0  0  0  0  0
  141.7760   79.5610  223.7810 N   0  0  0  0  0  0  0  0  0  0  0  0
  142.3420   80.5460  222.8790 C   0  0  0  0  0  0  0  0  0  0  0  0
  142.1930   80.1160  221.4350 C   0  0  0  0  0  0  0  0  0  0  0  0
  141.0650   80.9010  220.8250 C   0  0  2  0  0  0  0  0  0  0  0  0
  140.7710   82.0870  221.7200 C   0  0  0  0  0  0  0  0  0  0  0  0
  139.2610   82.1510  221.7510 C   0  0  0  0  0  0  0  0  0  0  0  0
  138.8630   81.2340  220.6340 C   0  0  0  0  0  0  0  0  0  0  0  0
  139.8300   80.1350  220.7780 N   0  0  0  0  0  0  0  0  0  0  0  0
  139.4090   80.0190  223.8300 N   0  0  0  0  0  0  0  0  0  0  0  0
  138.1260   79.6830  223.6300 C   0  0  0  0  0  0  0  0  0  0  0  0
  137.0950   80.6060  223.9310 N   0  0  0  0  0  0  0  0  0  0  0  0
  135.7820   80.4900  223.3560 C   0  0  0  0  0  0  0  0  0  0  0  0
  134.7410   80.3120  224.4370 C   0  0  0  0  0  0  0  0  0  0  0  0
  135.1520   80.8850  225.7340 C   0  0  0  0  0  0  0  0  0  0  0  0
  134.2930   80.7640  226.7940 C   0  0  0  0  0  0  0  0  0  0  0  0
  134.6460   81.2900  228.0290 C   0  0  0  0  0  0  0  0  0  0  0  0
  135.8430   81.9360  228.2300 C   0  0  0  0  0  0  0  0  0  0  0  0
  136.7090   82.0620  227.1720 C   0  0  0  0  0  0  0  0  0  0  0  0
  136.3460   81.5340  225.9510 C   0  0  0  0  0  0  0  0  0  0  0  0
  137.3430   81.7070  224.8370 C   0  0  0  0  0  0  0  0  0  0  0  0
  137.8680   78.4640  223.1480 N   0  0  0  0  0  0  0  0  0  0  0  0
  139.3030   77.1860  220.2930 C   0  0  0  0  0  0  0  0  0  0  0  0
  144.3366   76.6643  218.4347 H   0  0  0  0  0  0  0  0  0  0  0  0
  142.7483   78.3013  217.4223 H   0  0  0  0  0  0  0  0  0  0  0  0
  140.4492   78.5341  218.2779 H   0  0  0  0  0  0  0  0  0  0  0  0
  143.5500   75.2437  220.3567 H   0  0  0  0  0  0  0  0  0  0  0  0
  141.7213   74.4823  221.7469 H   0  0  0  0  0  0  0  0  0  0  0  0
  140.9239   75.8900  222.4154 H   0  0  0  0  0  0  0  0  0  0  0  0
  139.8542   74.4100  219.9054 H   0  0  0  0  0  0  0  0  0  0  0  0
  139.3342   73.9429  221.5349 H   0  0  0  0  0  0  0  0  0  0  0  0
  137.8567   75.6491  220.3839 H   0  0  0  0  0  0  0  0  0  0  0  0
  138.0910   75.6040  223.0220 H   0  0  0  0  0  0  0  0  0  0  0  0
  142.3050   79.1360  224.5770 H   0  0  0  0  0  0  0  0  0  0  0  0
  141.8226   81.5049  223.0232 H   0  0  0  0  0  0  0  0  0  0  0  0
  143.4141   80.6479  223.1031 H   0  0  0  0  0  0  0  0  0  0  0  0
  143.1258   80.3182  220.8881 H   0  0  0  0  0  0  0  0  0  0  0  0
  141.9794   79.0384  221.3796 H   0  0  0  0  0  0  0  0  0  0  0  0
  141.3745   81.1816  219.8074 H   0  0  0  0  0  0  0  0  0  0  0  0
  141.1770   81.9260  222.7296 H   0  0  0  0  0  0  0  0  0  0  0  0
  141.2285   83.0185  221.3552 H   0  0  0  0  0  0  0  0  0  0  0  0
  138.8696   81.7935  222.7148 H   0  0  0  0  0  0  0  0  0  0  0  0
  138.8674   83.1717  221.6358 H   0  0  0  0  0  0  0  0  0  0  0  0
  137.8304   80.8763  220.7598 H   0  0  0  0  0  0  0  0  0  0  0  0
  138.8794   81.7108  219.6429 H   0  0  0  0  0  0  0  0  0  0  0  0
  139.6570   79.7170  221.7140 H   0  0  0  0  0  0  0  0  0  0  0  0
  135.5563   81.4018  222.7836 H   0  0  0  0  0  0  0  0  0  0  0  0
  135.7609   79.6106  222.6955 H   0  0  0  0  0  0  0  0  0  0  0  0
  133.8125   80.8057  224.1142 H   0  0  0  0  0  0  0  0  0  0  0  0
  134.6015   79.2309  224.5845 H   0  0  0  0  0  0  0  0  0  0  0  0
  133.3276   80.2522  226.6671 H   0  0  0  0  0  0  0  0  0  0  0  0
  133.9472   81.1870  228.8722 H   0  0  0  0  0  0  0  0  0  0  0  0
  136.1016   82.3436  229.2184 H   0  0  0  0  0  0  0  0  0  0  0  0
  137.6743   82.5746  227.2961 H   0  0  0  0  0  0  0  0  0  0  0  0
  137.1879   82.6690  224.3265 H   0  0  0  0  0  0  0  0  0  0  0  0
  138.3783   81.7083  225.2086 H   0  0  0  0  0  0  0  0  0  0  0  0
  138.6550   77.4486  219.4438 H   0  0  0  0  0  0  0  0  0  0  0  0
  139.3245   77.9721  221.0621 H   0  0  0  0  0  0  0  0  0  0  0  0
  1  2  2  0
  2  3  1  0
  3  4  2  0
  4  5  1  0
  5  6  2  0
  5  7  1  0
  7  8  1  0
  8  9  1  0
  9 10  1  0
 10 11  1  0
 11 12  2  0
 12 13  1  0
 13 14  1  0
 14 15  1  0
 15 16  1  0
 16 17  1  0
 17 18  1  0
 18 19  1  0
 19 20  1  0
 20 21  1  0
 13 22  2  0
 22 23  1  0
 23 24  1  0
 24 25  1  0
 25 26  1  0
 26 27  1  0
 27 28  2  0
 28 29  1  0
 29 30  2  0
 30 31  1  0
 31 32  2  0
 32 33  1  0
 23 34  2  0
  9 35  1  0
  6  1  1  0
 34 11  1  0
 35  4  1  0
 21 17  1  0
 33 24  1  0
 32 27  1  0
  1 36  1  0
  2 37  1  0
  3 38  1  0
  6 39  1  0
  7 40  1  0
  7 41  1  0
  8 42  1  0
  8 43  1  0
  9 44  1  6
 10 45  1  0
 14 46  1  0
 15 47  1  0
 15 48  1  0
 16 49  1  0
 16 50  1  0
 17 51  1  6
 18 52  1  0
 18 53  1  0
 19 54  1  0
 19 55  1  0
 20 56  1  0
 20 57  1  0
 21 58  1  0
 25 59  1  0
 25 60  1  0
 26 61  1  0
 26 62  1  0
 28 63  1  0
 29 64  1  0
 30 65  1  0
 31 66  1  0
 33 67  1  0
 33 68  1  0
 35 69  1  0
 35 70  1  0
M  END
>  <smiles>  (59) 
c1ccc2c(c1)CCC(Nc1nc(NCCC3CCCN3)nc(N3CCc4ccccc4C3)n1)C2

>  <score_type>  (59) 
oracle

>  <origin>  (59) 
autodockgpu

>  <m_score__min__energy>  (59) 
-10.699999999999999

>  <m_primary>  (59) 
energy

>  <rmsd>  (59) 
5.71358260171789

>  <m_score__min__rmsd>  (59) 
5.71358260171789

>  <meeko>  (59) 
{"free_energy": -6.59, "intermolecular_energy": -8.67, "internal_energy": -4.1, "cluster_size": 3, "cluster_id": 10, "rank_in_cluster": 3}

>  <energy>  (59) 
-9.43

>  <cluster_rmsd>  (59) 
0.87

>  <cluster>  (59) 
1

$$$$

     RDKit          3D

 70 75  0  0  1  0  0  0  0  0999 V2000
  139.2520   68.4020  226.8660 C   0  0  0  0  0  0  0  0  0  0  0  0
  140.4840   68.9760  227.1790 C   0  0  0  0  0  0  0  0  0  0  0  0
  141.0380   69.9660  226.3940 C   0  0  0  0  0  0  0  0  0  0  0  0
  140.3790   70.4150  225.2690 C   0  0  0  0  0  0  0  0  0  0  0  0
  139.1520   69.8370  224.9660 C   0  0  0  0  0  0  0  0  0  0  0  0
  138.5820   68.8540  225.7300 C   0  0  0  0  0  0  0  0  0  0  0  0
  138.4900   70.3770  223.7220 C   0  0  0  0  0  0  0  0  0  0  0  0
  139.6100   70.3090  222.6780 C   0  0  0  0  0  0  0  0  0  0  0  0
  140.5580   71.4460  222.9990 C   0  0  1  0  0  0  0  0  0  0  0  0
  139.8300   72.6860  222.7460 N   0  0  0  0  0  0  0  0  0  0  0  0
  140.3650   73.6870  221.8640 C   0  0  0  0  0  0  0  0  0  0  0  0
  141.2920   73.3980  220.9330 N   0  0  0  0  0  0  0  0  0  0  0  0
  141.7720   74.3360  220.1300 C   0  0  0  0  0  0  0  0  0  0  0  0
  142.7660   74.0240  219.1320 N   0  0  0  0  0  0  0  0  0  0  0  0
  144.1470   74.3400  219.4450 C   0  0  0  0  0  0  0  0  0  0  0  0
  144.5530   73.7570  220.7820 C   0  0  0  0  0  0  0  0  0  0  0  0
  144.7120   72.2700  220.6170 C   0  0  2  0  0  0  0  0  0  0  0  0
  145.2020   71.9960  219.2100 C   0  0  0  0  0  0  0  0  0  0  0  0
  144.3980   70.7910  218.7770 C   0  0  0  0  0  0  0  0  0  0  0  0
  143.7980   70.3080  220.0620 C   0  0  0  0  0  0  0  0  0  0  0  0
  143.4440   71.5710  220.7300 N   0  0  0  0  0  0  0  0  0  0  0  0
  141.3250   75.6020  220.2500 N   0  0  0  0  0  0  0  0  0  0  0  0
  140.4020   75.9320  221.1640 C   0  0  0  0  0  0  0  0  0  0  0  0
  139.9510   77.2710  221.2680 N   0  0  0  0  0  0  0  0  0  0  0  0
  138.7640   77.6160  222.0020 C   0  0  0  0  0  0  0  0  0  0  0  0
  139.0940   78.5620  223.1340 C   0  0  0  0  0  0  0  0  0  0  0  0
  140.3090   79.3610  222.8830 C   0  0  0  0  0  0  0  0  0  0  0  0
  140.7160   80.2390  223.8510 C   0  0  0  0  0  0  0  0  0  0  0  0
  141.8540   81.0070  223.6500 C   0  0  0  0  0  0  0  0  0  0  0  0
  142.6000   80.9160  222.4970 C   0  0  0  0  0  0  0  0  0  0  0  0
  142.1980   80.0380  221.5220 C   0  0  0  0  0  0  0  0  0  0  0  0
  141.0660   79.2810  221.7350 C   0  0  0  0  0  0  0  0  0  0  0  0
  140.6850   78.3390  220.6250 C   0  0  0  0  0  0  0  0  0  0  0  0
  139.9370   74.9640  221.9600 N   0  0  0  0  0  0  0  0  0  0  0  0
  140.9890   71.4830  224.4360 C   0  0  0  0  0  0  0  0  0  0  0  0
  138.8201   67.6130  227.4992 H   0  0  0  0  0  0  0  0  0  0  0  0
  141.0262   68.6315  228.0720 H   0  0  0  0  0  0  0  0  0  0  0  0
  142.0112   70.3998  226.6671 H   0  0  0  0  0  0  0  0  0  0  0  0
  137.6077   68.4263  225.4510 H   0  0  0  0  0  0  0  0  0  0  0  0
  137.6350   69.7514  223.4259 H   0  0  0  0  0  0  0  0  0  0  0  0
  138.0810   71.3896  223.8535 H   0  0  0  0  0  0  0  0  0  0  0  0
  140.1350   69.3447  222.7445 H   0  0  0  0  0  0  0  0  0  0  0  0
  139.2111   70.3965  221.6566 H   0  0  0  0  0  0  0  0  0  0  0  0
  141.4595   71.3132  222.3828 H   0  0  0  0  0  0  0  0  0  0  0  0
  138.9040   72.8990  223.1870 H   0  0  0  0  0  0  0  0  0  0  0  0
  142.4630   73.5890  218.2320 H   0  0  0  0  0  0  0  0  0  0  0  0
  144.7967   73.9248  218.6605 H   0  0  0  0  0  0  0  0  0  0  0  0
  144.2509   75.4339  219.4962 H   0  0  0  0  0  0  0  0  0  0  0  0
  145.5060   74.1997  221.1074 H   0  0  0  0  0  0  0  0  0  0  0  0
  143.7869   73.9756  221.5405 H   0  0  0  0  0  0  0  0  0  0  0  0
  145.4039   71.9256  221.3997 H   0  0  0  0  0  0  0  0  0  0  0  0
  145.0054   72.8554  218.5522 H   0  0  0  0  0  0  0  0  0  0  0  0
  146.2873   71.8227  219.1635 H   0  0  0  0  0  0  0  0  0  0  0  0
  143.6159   71.0751  218.0575 H   0  0  0  0  0  0  0  0  0  0  0  0
  145.0023   70.0269  218.2661 H   0  0  0  0  0  0  0  0  0  0  0  0
  142.9070   69.6895  219.8791 H   0  0  0  0  0  0  0  0  0  0  0  0
  144.4708   69.6683  220.6521 H   0  0  0  0  0  0  0  0  0  0  0  0
  142.7460   72.0360  220.1180 H   0  0  0  0  0  0  0  0  0  0  0  0
  138.0473   78.1010  221.3229 H   0  0  0  0  0  0  0  0  0  0  0  0
  138.3282   76.6979  222.4230 H   0  0  0  0  0  0  0  0  0  0  0  0
  138.2462   79.2485  223.2754 H   0  0  0  0  0  0  0  0  0  0  0  0
  139.2816   77.9508  224.0291 H   0  0  0  0  0  0  0  0  0  0  0  0
  140.1429   80.3354  224.7850 H   0  0  0  0  0  0  0  0  0  0  0  0
  142.1693   81.7095  224.4355 H   0  0  0  0  0  0  0  0  0  0  0  0
  143.4996   81.5341  222.3599 H   0  0  0  0  0  0  0  0  0  0  0  0
  142.7691   79.9401  220.5870 H   0  0  0  0  0  0  0  0  0  0  0  0
  140.0521   78.8508  219.8851 H   0  0  0  0  0  0  0  0  0  0  0  0
  141.5662   77.9640  220.0838 H   0  0  0  0  0  0  0  0  0  0  0  0
  142.0826   71.3711  224.4738 H   0  0  0  0  0  0  0  0  0  0  0  0
  140.6516   72.4453  224.8486 H   0  0  0  0  0  0  0  0  0  0  0  0
  1  2  2  0
  2  3  1  0
  3  4  2  0
  4  5  1  0
  5  6  2  0
  5  7  1  0
  7  8  1  0
  8  9  1  0
  9 10  1  0
 10 11  1  0
 11 12  2  0
 12 13  1  0
 13 14  1  0
 14 15  1  0
 15 16  1  0
 16 17  1  0
 17 18  1  0
 18 19  1  0
 19 20  1  0
 20 21  1  0
 13 22  2  0
 22 23  1  0
 23 24  1  0
 24 25  1  0
 25 26  1  0
 26 27  1  0
 27 28  2  0
 28 29  1  0
 29 30  2  0
 30 31  1  0
 31 32  2  0
 32 33  1  0
 23 34  2  0
  9 35  1  0
  6  1  1  0
 34 11  1  0
 35  4  1  0
 21 17  1  0
 33 24  1  0
 32 27  1  0
  1 36  1  0
  2 37  1  0
  3 38  1  0
  6 39  1  0
  7 40  1  0
  7 41  1  0
  8 42  1  0
  8 43  1  0
  9 44  1  6
 10 45  1  0
 14 46  1  0
 15 47  1  0
 15 48  1  0
 16 49  1  0
 16 50  1  0
 17 51  1  1
 18 52  1  0
 18 53  1  0
 19 54  1  0
 19 55  1  0
 20 56  1  0
 20 57  1  0
 21 58  1  0
 25 59  1  0
 25 60  1  0
 26 61  1  0
 26 62  1  0
 28 63  1  0
 29 64  1  0
 30 65  1  0
 31 66  1  0
 33 67  1  0
 33 68  1  0
 35 69  1  0
 35 70  1  0
M  END
>  <smiles>  (60) 
c1ccc2c(c1)CCC(Nc1nc(NCCC3CCCN3)nc(N3CCc4ccccc4C3)n1)C2

>  <score_type>  (60) 
oracle

>  <origin>  (60) 
autodockgpu

>  <m_score__min__energy>  (60) 
-10.699999999999999

>  <m_primary>  (60) 
energy

>  <rmsd>  (60) 
11.64146663954738

>  <m_score__min__rmsd>  (60) 
11.64146663954738

>  <meeko>  (60) 
{"free_energy": -9.05, "intermolecular_energy": -11.14, "internal_energy": -2.12, "cluster_size": 19, "cluster_id": 1, "rank_in_cluster": 16}

>  <energy>  (60) 
-9.42

>  <cluster_rmsd>  (60) 
0.89

>  <cluster>  (60) 
1

$$$$

     RDKit          3D

 70 75  0  0  1  0  0  0  0  0999 V2000
  139.6450   68.7150  227.2250 C   0  0  0  0  0  0  0  0  0  0  0  0
  140.9680   69.1540  227.1830 C   0  0  0  0  0  0  0  0  0  0  0  0
  141.4100   70.0150  226.2000 C   0  0  0  0  0  0  0  0  0  0  0  0
  140.5450   70.4660  225.2260 C   0  0  0  0  0  0  0  0  0  0  0  0
  139.2290   70.0230  225.2770 C   0  0  0  0  0  0  0  0  0  0  0  0
  138.7660   69.1690  226.2420 C   0  0  0  0  0  0  0  0  0  0  0  0
  138.3400   70.5560  224.1800 C   0  0  0  0  0  0  0  0  0  0  0  0
  139.1570   70.2840  222.9120 C   0  0  0  0  0  0  0  0  0  0  0  0
  140.2660   71.3150  222.8920 C   0  0  1  0  0  0  0  0  0  0  0  0
  139.6290   72.6160  222.7030 N   0  0  0  0  0  0  0  0  0  0  0  0
  140.2950   73.6650  221.9830 C   0  0  0  0  0  0  0  0  0  0  0  0
  141.3820   73.4330  221.2230 N   0  0  0  0  0  0  0  0  0  0  0  0
  141.9820   74.4140  220.5670 C   0  0  0  0  0  0  0  0  0  0  0  0
  143.1470   74.1630  219.7530 N   0  0  0  0  0  0  0  0  0  0  0  0
  144.3280   73.6480  220.4200 C   0  0  0  0  0  0  0  0  0  0  0  0
  144.1650   72.1840  220.7690 C   0  0  0  0  0  0  0  0  0  0  0  0
  144.5210   71.3700  219.5560 C   0  0  2  0  0  0  0  0  0  0  0  0
  144.0360   69.9520  219.7750 C   0  0  0  0  0  0  0  0  0  0  0  0
  145.1680   69.0980  219.2510 C   0  0  0  0  0  0  0  0  0  0  0  0
  146.0100   70.0830  218.4980 C   0  0  0  0  0  0  0  0  0  0  0  0
  145.9590   71.2640  219.3730 N   0  0  0  0  0  0  0  0  0  0  0  0
  141.4970   75.6680  220.6630 N   0  0  0  0  0  0  0  0  0  0  0  0
  140.4160   75.9430  221.4090 C   0  0  0  0  0  0  0  0  0  0  0  0
  139.9280   77.2700  221.4910 N   0  0  0  0  0  0  0  0  0  0  0  0
  138.7930   77.6110  222.3050 C   0  0  0  0  0  0  0  0  0  0  0  0
  139.1800   78.6160  223.3650 C   0  0  0  0  0  0  0  0  0  0  0  0
  140.3420   79.4410  222.9810 C   0  0  0  0  0  0  0  0  0  0  0  0
  140.7950   80.3740  223.8740 C   0  0  0  0  0  0  0  0  0  0  0  0
  141.8860   81.1680  223.5480 C   0  0  0  0  0  0  0  0  0  0  0  0
  142.5390   81.0480  222.3430 C   0  0  0  0  0  0  0  0  0  0  0  0
  142.0910   80.1140  221.4420 C   0  0  0  0  0  0  0  0  0  0  0  0
  141.0070   79.3330  221.7800 C   0  0  0  0  0  0  0  0  0  0  0  0
  140.5700   78.3300  220.7450 C   0  0  0  0  0  0  0  0  0  0  0  0
  139.8330   74.9310  222.0590 N   0  0  0  0  0  0  0  0  0  0  0  0
  141.0370   71.3940  224.1770 C   0  0  0  0  0  0  0  0  0  0  0  0
  139.3034   68.0281  228.0134 H   0  0  0  0  0  0  0  0  0  0  0  0
  141.6748   68.8060  227.9507 H   0  0  0  0  0  0  0  0  0  0  0  0
  142.4597   70.3439  226.1933 H   0  0  0  0  0  0  0  0  0  0  0  0
  137.7147   68.8453  226.2419 H   0  0  0  0  0  0  0  0  0  0  0  0
  137.3796   70.0204  224.1541 H   0  0  0  0  0  0  0  0  0  0  0  0
  138.0804   71.6171  224.3093 H   0  0  0  0  0  0  0  0  0  0  0  0
  139.5807   69.2693  222.9422 H   0  0  0  0  0  0  0  0  0  0  0  0
  138.5307   70.3527  222.0103 H   0  0  0  0  0  0  0  0  0  0  0  0
  140.9703   71.0327  222.0956 H   0  0  0  0  0  0  0  0  0  0  0  0
  138.6760   72.8380  223.0780 H   0  0  0  0  0  0  0  0  0  0  0  0
  143.1010   74.3570  218.7280 H   0  0  0  0  0  0  0  0  0  0  0  0
  145.1955   73.7636  219.7536 H   0  0  0  0  0  0  0  0  0  0  0  0
  144.4765   74.2137  221.3516 H   0  0  0  0  0  0  0  0  0  0  0  0
  144.8341   71.9230  221.6022 H   0  0  0  0  0  0  0  0  0  0  0  0
  143.1281   71.9789  221.0736 H   0  0  0  0  0  0  0  0  0  0  0  0
  144.0649   71.8635  218.6852 H   0  0  0  0  0  0  0  0  0  0  0  0
  143.8614   69.7583  220.8436 H   0  0  0  0  0  0  0  0  0  0  0  0
  143.0802   69.7470  219.2707 H   0  0  0  0  0  0  0  0  0  0  0  0
  145.7348   68.6424  220.0764 H   0  0  0  0  0  0  0  0  0  0  0  0
  144.8259   68.2559  218.6314 H   0  0  0  0  0  0  0  0  0  0  0  0
  147.0410   69.7184  218.3791 H   0  0  0  0  0  0  0  0  0  0  0  0
  145.6573   70.2752  217.4740 H   0  0  0  0  0  0  0  0  0  0  0  0
  146.3940   70.9780  220.2720 H   0  0  0  0  0  0  0  0  0  0  0  0
  138.0077   78.0429  221.6672 H   0  0  0  0  0  0  0  0  0  0  0  0
  138.4247   76.6996  222.7987 H   0  0  0  0  0  0  0  0  0  0  0  0
  138.3229   79.2810  223.5471 H   0  0  0  0  0  0  0  0  0  0  0  0
  139.4608   78.0516  224.2665 H   0  0  0  0  0  0  0  0  0  0  0  0
  140.2961   80.4943  224.8470 H   0  0  0  0  0  0  0  0  0  0  0  0
  142.2388   81.9150  224.2744 H   0  0  0  0  0  0  0  0  0  0  0  0
  143.4023   81.6873  222.1063 H   0  0  0  0  0  0  0  0  0  0  0  0
  142.5881   79.9913  220.4684 H   0  0  0  0  0  0  0  0  0  0  0  0
  139.8619   78.7881  220.0388 H   0  0  0  0  0  0  0  0  0  0  0  0
  141.4169   77.9587  220.1492 H   0  0  0  0  0  0  0  0  0  0  0  0
  142.0893   71.1531  223.9660 H   0  0  0  0  0  0  0  0  0  0  0  0
  140.9101   72.4151  224.5658 H   0  0  0  0  0  0  0  0  0  0  0  0
  1  2  2  0
  2  3  1  0
  3  4  2  0
  4  5  1  0
  5  6  2  0
  5  7  1  0
  7  8  1  0
  8  9  1  0
  9 10  1  0
 10 11  1  0
 11 12  2  0
 12 13  1  0
 13 14  1  0
 14 15  1  0
 15 16  1  0
 16 17  1  0
 17 18  1  0
 18 19  1  0
 19 20  1  0
 20 21  1  0
 13 22  2  0
 22 23  1  0
 23 24  1  0
 24 25  1  0
 25 26  1  0
 26 27  1  0
 27 28  2  0
 28 29  1  0
 29 30  2  0
 30 31  1  0
 31 32  2  0
 32 33  1  0
 23 34  2  0
  9 35  1  0
  6  1  1  0
 34 11  1  0
 35  4  1  0
 21 17  1  0
 33 24  1  0
 32 27  1  0
  1 36  1  0
  2 37  1  0
  3 38  1  0
  6 39  1  0
  7 40  1  0
  7 41  1  0
  8 42  1  0
  8 43  1  0
  9 44  1  6
 10 45  1  0
 14 46  1  0
 15 47  1  0
 15 48  1  0
 16 49  1  0
 16 50  1  0
 17 51  1  6
 18 52  1  0
 18 53  1  0
 19 54  1  0
 19 55  1  0
 20 56  1  0
 20 57  1  0
 21 58  1  0
 25 59  1  0
 25 60  1  0
 26 61  1  0
 26 62  1  0
 28 63  1  0
 29 64  1  0
 30 65  1  0
 31 66  1  0
 33 67  1  0
 33 68  1  0
 35 69  1  0
 35 70  1  0
M  END
>  <smiles>  (61) 
c1ccc2c(c1)CCC(Nc1nc(NCCC3CCCN3)nc(N3CCc4ccccc4C3)n1)C2

>  <score_type>  (61) 
oracle

>  <origin>  (61) 
autodockgpu

>  <m_score__min__energy>  (61) 
-10.699999999999999

>  <m_primary>  (61) 
energy

>  <rmsd>  (61) 
11.656155612867703

>  <m_score__min__rmsd>  (61) 
11.656155612867703

>  <meeko>  (61) 
{"free_energy": -9.91, "intermolecular_energy": -11.99, "internal_energy": -1.15, "cluster_size": 19, "cluster_id": 1, "rank_in_cluster": 6}

>  <energy>  (61) 
-9.4

>  <cluster_rmsd>  (61) 
0.82

>  <cluster>  (61) 
1

$$$$

     RDKit          3D

 70 75  0  0  1  0  0  0  0  0999 V2000
  141.7230   80.9930  222.1170 C   0  0  0  0  0  0  0  0  0  0  0  0
  140.9780   80.5920  223.2260 C   0  0  0  0  0  0  0  0  0  0  0  0
  140.6210   79.2720  223.4140 C   0  0  0  0  0  0  0  0  0  0  0  0
  140.9960   78.3100  222.5010 C   0  0  0  0  0  0  0  0  0  0  0  0
  141.7380   78.7210  221.4000 C   0  0  0  0  0  0  0  0  0  0  0  0
  142.1060   80.0230  221.1910 C   0  0  0  0  0  0  0  0  0  0  0  0
  142.1130   77.6150  220.4430 C   0  0  0  0  0  0  0  0  0  0  0  0
  140.7780   76.9010  220.2030 C   0  0  0  0  0  0  0  0  0  0  0  0
  140.4950   76.0960  221.4540 C   0  0  1  0  0  0  0  0  0  0  0  0
  141.5160   75.0540  221.5240 N   0  0  0  0  0  0  0  0  0  0  0  0
  141.1480   73.6670  221.6040 C   0  0  0  0  0  0  0  0  0  0  0  0
  141.4310   72.7950  220.6190 N   0  0  0  0  0  0  0  0  0  0  0  0
  141.0820   71.5210  220.7110 C   0  0  0  0  0  0  0  0  0  0  0  0
  141.3860   70.5870  219.6540 N   0  0  0  0  0  0  0  0  0  0  0  0
  142.4880   70.9160  218.7700 C   0  0  0  0  0  0  0  0  0  0  0  0
  143.7870   71.0430  219.5370 C   0  0  0  0  0  0  0  0  0  0  0  0
  144.3770   72.3940  219.2400 C   0  0  2  0  0  0  0  0  0  0  0  0
  144.9000   72.9810  220.5350 C   0  0  0  0  0  0  0  0  0  0  0  0
  144.4830   74.4320  220.4680 C   0  0  0  0  0  0  0  0  0  0  0  0
  144.0770   74.5990  219.0340 C   0  0  0  0  0  0  0  0  0  0  0  0
  143.3760   73.3340  218.7640 N   0  0  0  0  0  0  0  0  0  0  0  0
  140.4320   71.0900  221.8110 N   0  0  0  0  0  0  0  0  0  0  0  0
  140.1310   71.9260  222.8150 C   0  0  0  0  0  0  0  0  0  0  0  0
  139.4470   71.4470  223.9590 N   0  0  0  0  0  0  0  0  0  0  0  0
  138.1110   70.9210  223.8780 C   0  0  0  0  0  0  0  0  0  0  0  0
  138.0770   69.4800  224.3320 C   0  0  0  0  0  0  0  0  0  0  0  0
  139.1630   69.1470  225.2750 C   0  0  0  0  0  0  0  0  0  0  0  0
  139.2420   67.8610  225.7390 C   0  0  0  0  0  0  0  0  0  0  0  0
  140.2500   67.5100  226.6260 C   0  0  0  0  0  0  0  0  0  0  0  0
  141.1860   68.4200  227.0620 C   0  0  0  0  0  0  0  0  0  0  0  0
  141.1120   69.7110  226.6020 C   0  0  0  0  0  0  0  0  0  0  0  0
  140.1060   70.0450  225.7200 C   0  0  0  0  0  0  0  0  0  0  0  0
  140.0860   71.4770  225.2560 C   0  0  0  0  0  0  0  0  0  0  0  0
  140.4960   73.2070  222.6920 N   0  0  0  0  0  0  0  0  0  0  0  0
  140.6050   76.8940  222.7200 C   0  0  0  0  0  0  0  0  0  0  0  0
  142.0015   82.0478  221.9763 H   0  0  0  0  0  0  0  0  0  0  0  0
  140.6683   81.3440  223.9667 H   0  0  0  0  0  0  0  0  0  0  0  0
  140.0331   78.9858  224.2986 H   0  0  0  0  0  0  0  0  0  0  0  0
  142.6957   80.3003  220.3048 H   0  0  0  0  0  0  0  0  0  0  0  0
  142.5173   78.0236  219.5051 H   0  0  0  0  0  0  0  0  0  0  0  0
  142.8968   76.9497  220.8343 H   0  0  0  0  0  0  0  0  0  0  0  0
  139.9777   77.6366  220.0344 H   0  0  0  0  0  0  0  0  0  0  0  0
  140.8246   76.2548  219.3140 H   0  0  0  0  0  0  0  0  0  0  0  0
  139.4637   75.7198  221.3836 H   0  0  0  0  0  0  0  0  0  0  0  0
  142.5420   75.2660  221.5210 H   0  0  0  0  0  0  0  0  0  0  0  0
  140.8110   69.7190  219.5620 H   0  0  0  0  0  0  0  0  0  0  0  0
  142.5927   70.1216  218.0163 H   0  0  0  0  0  0  0  0  0  0  0  0
  142.2720   71.8814  218.2891 H   0  0  0  0  0  0  0  0  0  0  0  0
  143.5932   70.9501  220.6158 H   0  0  0  0  0  0  0  0  0  0  0  0
  144.4856   70.2484  219.2360 H   0  0  0  0  0  0  0  0  0  0  0  0
  145.1540   72.2505  218.4747 H   0  0  0  0  0  0  0  0  0  0  0  0
  144.4447   72.4822  221.4033 H   0  0  0  0  0  0  0  0  0  0  0  0
  145.9868   72.8558  220.6503 H   0  0  0  0  0  0  0  0  0  0  0  0
  143.6388   74.6326  221.1441 H   0  0  0  0  0  0  0  0  0  0  0  0
  145.2776   75.1267  220.7779 H   0  0  0  0  0  0  0  0  0  0  0  0
  143.4070   75.4621  218.9064 H   0  0  0  0  0  0  0  0  0  0  0  0
  144.9202   74.7921  218.3544 H   0  0  0  0  0  0  0  0  0  0  0  0
  142.5600   73.3120  219.4060 H   0  0  0  0  0  0  0  0  0  0  0  0
  137.4480   71.5182  224.5213 H   0  0  0  0  0  0  0  0  0  0  0  0
  137.7736   70.9708  222.8322 H   0  0  0  0  0  0  0  0  0  0  0  0
  137.1129   69.2909  224.8267 H   0  0  0  0  0  0  0  0  0  0  0  0
  138.2110   68.8505  223.4399 H   0  0  0  0  0  0  0  0  0  0  0  0
  138.5095   67.1092  225.4100 H   0  0  0  0  0  0  0  0  0  0  0  0
  140.3024   66.4738  226.9914 H   0  0  0  0  0  0  0  0  0  0  0  0
  141.9770   68.1188  227.7646 H   0  0  0  0  0  0  0  0  0  0  0  0
  141.8418   70.4654  226.9309 H   0  0  0  0  0  0  0  0  0  0  0  0
  139.5101   72.1010  225.9553 H   0  0  0  0  0  0  0  0  0  0  0  0
  141.0973   71.9069  225.2060 H   0  0  0  0  0  0  0  0  0  0  0  0
  139.6288   76.8777  223.2268 H   0  0  0  0  0  0  0  0  0  0  0  0
  141.3992   76.4309  223.3240 H   0  0  0  0  0  0  0  0  0  0  0  0
  1  2  2  0
  2  3  1  0
  3  4  2  0
  4  5  1  0
  5  6  2  0
  5  7  1  0
  7  8  1  0
  8  9  1  0
  9 10  1  0
 10 11  1  0
 11 12  2  0
 12 13  1  0
 13 14  1  0
 14 15  1  0
 15 16  1  0
 16 17  1  0
 17 18  1  0
 18 19  1  0
 19 20  1  0
 20 21  1  0
 13 22  2  0
 22 23  1  0
 23 24  1  0
 24 25  1  0
 25 26  1  0
 26 27  1  0
 27 28  2  0
 28 29  1  0
 29 30  2  0
 30 31  1  0
 31 32  2  0
 32 33  1  0
 23 34  2  0
  9 35  1  0
  6  1  1  0
 34 11  1  0
 35  4  1  0
 21 17  1  0
 33 24  1  0
 32 27  1  0
  1 36  1  0
  2 37  1  0
  3 38  1  0
  6 39  1  0
  7 40  1  0
  7 41  1  0
  8 42  1  0
  8 43  1  0
  9 44  1  6
 10 45  1  0
 14 46  1  0
 15 47  1  0
 15 48  1  0
 16 49  1  0
 16 50  1  0
 17 51  1  6
 18 52  1  0
 18 53  1  0
 19 54  1  0
 19 55  1  0
 20 56  1  0
 20 57  1  0
 21 58  1  0
 25 59  1  0
 25 60  1  0
 26 61  1  0
 26 62  1  0
 28 63  1  0
 29 64  1  0
 30 65  1  0
 31 66  1  0
 33 67  1  0
 33 68  1  0
 35 69  1  0
 35 70  1  0
M  END
>  <smiles>  (62) 
c1ccc2c(c1)CCC(Nc1nc(NCCC3CCCN3)nc(N3CCc4ccccc4C3)n1)C2

>  <score_type>  (62) 
oracle

>  <origin>  (62) 
autodockgpu

>  <m_score__min__energy>  (62) 
-10.699999999999999

>  <m_primary>  (62) 
energy

>  <rmsd>  (62) 
3.8105457228134862

>  <m_score__min__rmsd>  (62) 
3.8105457228134862

>  <meeko>  (62) 
{"free_energy": -9.42, "intermolecular_energy": -11.51, "internal_energy": -2.36, "cluster_size": 19, "cluster_id": 1, "rank_in_cluster": 10}

>  <energy>  (62) 
-9.4

>  <cluster_rmsd>  (62) 
0.82

>  <cluster>  (62) 
1

$$$$

     RDKit          3D

 70 75  0  0  1  0  0  0  0  0999 V2000
  141.8020   80.9130  222.2970 C   0  0  0  0  0  0  0  0  0  0  0  0
  141.1270   80.4380  223.4210 C   0  0  0  0  0  0  0  0  0  0  0  0
  140.7770   79.1090  223.5420 C   0  0  0  0  0  0  0  0  0  0  0  0
  141.0900   78.2100  222.5440 C   0  0  0  0  0  0  0  0  0  0  0  0
  141.7630   78.6940  221.4290 C   0  0  0  0  0  0  0  0  0  0  0  0
  142.1220   80.0080  221.2860 C   0  0  0  0  0  0  0  0  0  0  0  0
  142.0730   77.6560  220.3790 C   0  0  0  0  0  0  0  0  0  0  0  0
  140.7220   76.9590  220.1750 C   0  0  0  0  0  0  0  0  0  0  0  0
  140.5160   76.0720  221.3850 C   0  0  1  0  0  0  0  0  0  0  0  0
  141.5340   75.0270  221.3210 N   0  0  0  0  0  0  0  0  0  0  0  0
  141.1800   73.6430  221.4750 C   0  0  0  0  0  0  0  0  0  0  0  0
  141.4250   72.7310  220.5150 N   0  0  0  0  0  0  0  0  0  0  0  0
  141.0900   71.4600  220.6770 C   0  0  0  0  0  0  0  0  0  0  0  0
  141.3530   70.4850  219.6480 N   0  0  0  0  0  0  0  0  0  0  0  0
  142.6230   70.5730  218.9530 C   0  0  0  0  0  0  0  0  0  0  0  0
  143.7710   70.7260  219.9280 C   0  0  0  0  0  0  0  0  0  0  0  0
  144.5130   71.9890  219.5860 C   0  0  2  0  0  0  0  0  0  0  0  0
  144.9050   72.6750  220.8780 C   0  0  0  0  0  0  0  0  0  0  0  0
  144.6310   74.1370  220.6080 C   0  0  0  0  0  0  0  0  0  0  0  0
  144.4390   74.1730  219.1220 C   0  0  0  0  0  0  0  0  0  0  0  0
  143.6730   72.9410  218.8800 N   0  0  0  0  0  0  0  0  0  0  0  0
  140.4930   71.0740  221.8220 N   0  0  0  0  0  0  0  0  0  0  0  0
  140.2330   71.9500  222.8030 C   0  0  0  0  0  0  0  0  0  0  0  0
  139.6050   71.5150  223.9960 N   0  0  0  0  0  0  0  0  0  0  0  0
  138.2270   71.1040  224.0210 C   0  0  0  0  0  0  0  0  0  0  0  0
  138.1090   69.6650  224.4690 C   0  0  0  0  0  0  0  0  0  0  0  0
  139.2340   69.2310  225.3190 C   0  0  0  0  0  0  0  0  0  0  0  0
  139.2420   67.9380  225.7680 C   0  0  0  0  0  0  0  0  0  0  0  0
  140.2850   67.4930  226.5690 C   0  0  0  0  0  0  0  0  0  0  0  0
  141.3250   68.3160  226.9330 C   0  0  0  0  0  0  0  0  0  0  0  0
  141.3240   69.6150  226.4870 C   0  0  0  0  0  0  0  0  0  0  0  0
  140.2820   70.0420  225.6910 C   0  0  0  0  0  0  0  0  0  0  0  0
  140.3460   71.4760  225.2380 C   0  0  0  0  0  0  0  0  0  0  0  0
  140.5820   73.2260  222.6100 N   0  0  0  0  0  0  0  0  0  0  0  0
  140.7070   76.7830  222.6920 C   0  0  0  0  0  0  0  0  0  0  0  0
  142.0751   81.9750  222.2103 H   0  0  0  0  0  0  0  0  0  0  0  0
  140.8680   81.1383  224.2288 H   0  0  0  0  0  0  0  0  0  0  0  0
  140.2446   78.7640  224.4406 H   0  0  0  0  0  0  0  0  0  0  0  0
  142.6559   80.3449  220.3851 H   0  0  0  0  0  0  0  0  0  0  0  0
  142.4197   78.1270  219.4474 H   0  0  0  0  0  0  0  0  0  0  0  0
  142.8769   76.9660  220.6750 H   0  0  0  0  0  0  0  0  0  0  0  0
  139.9154   77.7038  220.1066 H   0  0  0  0  0  0  0  0  0  0  0  0
  140.7097   76.3744  219.2433 H   0  0  0  0  0  0  0  0  0  0  0  0
  139.4809   75.7012  221.3543 H   0  0  0  0  0  0  0  0  0  0  0  0
  142.5490   75.2360  221.1640 H   0  0  0  0  0  0  0  0  0  0  0  0
  140.6310   69.7580  219.4400 H   0  0  0  0  0  0  0  0  0  0  0  0
  142.7732   69.6571  218.3627 H   0  0  0  0  0  0  0  0  0  0  0  0
  142.6015   71.4569  218.2986 H   0  0  0  0  0  0  0  0  0  0  0  0
  143.3815   70.7894  220.9548 H   0  0  0  0  0  0  0  0  0  0  0  0
  144.4449   69.8593  219.8604 H   0  0  0  0  0  0  0  0  0  0  0  0
  145.3708   71.7054  218.9585 H   0  0  0  0  0  0  0  0  0  0  0  0
  144.2936   72.3101  221.7165 H   0  0  0  0  0  0  0  0  0  0  0  0
  145.9506   72.4835  221.1609 H   0  0  0  0  0  0  0  0  0  0  0  0
  143.7243   74.4731  221.1324 H   0  0  0  0  0  0  0  0  0  0  0  0
  145.4346   74.8014  220.9583 H   0  0  0  0  0  0  0  0  0  0  0  0
  143.8709   75.0633  218.8143 H   0  0  0  0  0  0  0  0  0  0  0  0
  145.3803   74.2272  218.5554 H   0  0  0  0  0  0  0  0  0  0  0  0
  142.7780   73.0490  219.3970 H   0  0  0  0  0  0  0  0  0  0  0  0
  137.6707   71.7467  224.7191 H   0  0  0  0  0  0  0  0  0  0  0  0
  137.8114   71.1948  223.0066 H   0  0  0  0  0  0  0  0  0  0  0  0
  137.1750   69.5509  225.0388 H   0  0  0  0  0  0  0  0  0  0  0  0
  138.1186   69.0376  223.5655 H   0  0  0  0  0  0  0  0  0  0  0  0
  138.4250   67.2539  225.4952 H   0  0  0  0  0  0  0  0  0  0  0  0
  140.2794   66.4515  226.9229 H   0  0  0  0  0  0  0  0  0  0  0  0
  142.1410   67.9415  227.5684 H   0  0  0  0  0  0  0  0  0  0  0  0
  142.1389   70.3018  226.7596 H   0  0  0  0  0  0  0  0  0  0  0  0
  139.8824   72.1374  225.9847 H   0  0  0  0  0  0  0  0  0  0  0  0
  141.3827   71.8205  225.1092 H   0  0  0  0  0  0  0  0  0  0  0  0
  139.7637   76.7331  223.2557 H   0  0  0  0  0  0  0  0  0  0  0  0
  141.5345   76.2802  223.2139 H   0  0  0  0  0  0  0  0  0  0  0  0
  1  2  2  0
  2  3  1  0
  3  4  2  0
  4  5  1  0
  5  6  2  0
  5  7  1  0
  7  8  1  0
  8  9  1  0
  9 10  1  0
 10 11  1  0
 11 12  2  0
 12 13  1  0
 13 14  1  0
 14 15  1  0
 15 16  1  0
 16 17  1  0
 17 18  1  0
 18 19  1  0
 19 20  1  0
 20 21  1  0
 13 22  2  0
 22 23  1  0
 23 24  1  0
 24 25  1  0
 25 26  1  0
 26 27  1  0
 27 28  2  0
 28 29  1  0
 29 30  2  0
 30 31  1  0
 31 32  2  0
 32 33  1  0
 23 34  2  0
  9 35  1  0
  6  1  1  0
 34 11  1  0
 35  4  1  0
 21 17  1  0
 33 24  1  0
 32 27  1  0
  1 36  1  0
  2 37  1  0
  3 38  1  0
  6 39  1  0
  7 40  1  0
  7 41  1  0
  8 42  1  0
  8 43  1  0
  9 44  1  1
 10 45  1  0
 14 46  1  0
 15 47  1  0
 15 48  1  0
 16 49  1  0
 16 50  1  0
 17 51  1  6
 18 52  1  0
 18 53  1  0
 19 54  1  0
 19 55  1  0
 20 56  1  0
 20 57  1  0
 21 58  1  0
 25 59  1  0
 25 60  1  0
 26 61  1  0
 26 62  1  0
 28 63  1  0
 29 64  1  0
 30 65  1  0
 31 66  1  0
 33 67  1  0
 33 68  1  0
 35 69  1  0
 35 70  1  0
M  END
>  <smiles>  (63) 
c1ccc2c(c1)CCC(Nc1nc(NCCC3CCCN3)nc(N3CCc4ccccc4C3)n1)C2

>  <score_type>  (63) 
oracle

>  <origin>  (63) 
autodockgpu

>  <m_score__min__energy>  (63) 
-10.699999999999999

>  <m_primary>  (63) 
energy

>  <rmsd>  (63) 
3.9120779299654873

>  <m_score__min__rmsd>  (63) 
3.9120779299654873

>  <meeko>  (63) 
{"free_energy": -9.43, "intermolecular_energy": -11.52, "internal_energy": -2.38, "cluster_size": 19, "cluster_id": 1, "rank_in_cluster": 9}

>  <energy>  (63) 
-9.39

>  <cluster_rmsd>  (63) 
0.86

>  <cluster>  (63) 
1

$$$$

     RDKit          3D

 70 75  0  0  1  0  0  0  0  0999 V2000
  142.1480   80.8860  222.6510 C   0  0  0  0  0  0  0  0  0  0  0  0
  142.2010   80.1300  223.8210 C   0  0  0  0  0  0  0  0  0  0  0  0
  141.8430   78.7980  223.8350 C   0  0  0  0  0  0  0  0  0  0  0  0
  141.4190   78.1770  222.6790 C   0  0  0  0  0  0  0  0  0  0  0  0
  141.3690   78.9400  221.5180 C   0  0  0  0  0  0  0  0  0  0  0  0
  141.7200   80.2620  221.4790 C   0  0  0  0  0  0  0  0  0  0  0  0
  140.8960   78.1950  220.2940 C   0  0  0  0  0  0  0  0  0  0  0  0
  139.6110   77.5150  220.7800 C   0  0  0  0  0  0  0  0  0  0  0  0
  140.0480   76.3570  221.6520 C   0  0  1  0  0  0  0  0  0  0  0  0
  140.7180   75.3990  220.7770 N   0  0  0  0  0  0  0  0  0  0  0  0
  140.9040   74.0340  221.1850 C   0  0  0  0  0  0  0  0  0  0  0  0
  141.7150   73.1920  220.5170 N   0  0  0  0  0  0  0  0  0  0  0  0
  141.8720   71.9370  220.9090 C   0  0  0  0  0  0  0  0  0  0  0  0
  142.7410   71.0360  220.1920 N   0  0  0  0  0  0  0  0  0  0  0  0
  143.7840   71.6250  219.3740 C   0  0  0  0  0  0  0  0  0  0  0  0
  143.1970   72.3820  218.2010 C   0  0  0  0  0  0  0  0  0  0  0  0
  143.6720   73.8070  218.2760 C   0  0  2  0  0  0  0  0  0  0  0  0
  144.5000   73.9670  219.5340 C   0  0  0  0  0  0  0  0  0  0  0  0
  144.0590   75.3030  220.0880 C   0  0  0  0  0  0  0  0  0  0  0  0
  143.2980   75.9050  218.9460 C   0  0  0  0  0  0  0  0  0  0  0  0
  142.5690   74.7430  218.4140 N   0  0  0  0  0  0  0  0  0  0  0  0
  141.2070   71.4950  221.9950 N   0  0  0  0  0  0  0  0  0  0  0  0
  140.3900   72.3010  222.6890 C   0  0  0  0  0  0  0  0  0  0  0  0
  139.7040   71.8090  223.8270 N   0  0  0  0  0  0  0  0  0  0  0  0
  138.3150   71.4420  223.7740 C   0  0  0  0  0  0  0  0  0  0  0  0
  138.1360   69.9820  224.1200 C   0  0  0  0  0  0  0  0  0  0  0  0
  139.2150   69.4560  224.9790 C   0  0  0  0  0  0  0  0  0  0  0  0
  139.1670   68.1360  225.3400 C   0  0  0  0  0  0  0  0  0  0  0  0
  140.1640   67.6060  226.1460 C   0  0  0  0  0  0  0  0  0  0  0  0
  141.2140   68.3690  226.6010 C   0  0  0  0  0  0  0  0  0  0  0  0
  141.2690   69.6930  226.2440 C   0  0  0  0  0  0  0  0  0  0  0  0
  140.2720   70.2060  225.4420 C   0  0  0  0  0  0  0  0  0  0  0  0
  140.3960   71.6640  225.0890 C   0  0  0  0  0  0  0  0  0  0  0  0
  140.2520   73.5620  222.2680 N   0  0  0  0  0  0  0  0  0  0  0  0
  141.0380   76.7420  222.7110 C   0  0  0  0  0  0  0  0  0  0  0  0
  142.4363   81.9475  222.6519 H   0  0  0  0  0  0  0  0  0  0  0  0
  142.5359   80.6065  224.7542 H   0  0  0  0  0  0  0  0  0  0  0  0
  141.8960   78.2276  224.7741 H   0  0  0  0  0  0  0  0  0  0  0  0
  141.6654   80.8254  220.5358 H   0  0  0  0  0  0  0  0  0  0  0  0
  140.6877   78.8878  219.4653 H   0  0  0  0  0  0  0  0  0  0  0  0
  141.6407   77.4860  219.9031 H   0  0  0  0  0  0  0  0  0  0  0  0
  139.0025   78.2223  221.3626 H   0  0  0  0  0  0  0  0  0  0  0  0
  138.9964   77.1703  219.9353 H   0  0  0  0  0  0  0  0  0  0  0  0
  139.1537   75.9634  222.1573 H   0  0  0  0  0  0  0  0  0  0  0  0
  141.0870   75.6590  219.8310 H   0  0  0  0  0  0  0  0  0  0  0  0
  142.5930   70.0060  220.2850 H   0  0  0  0  0  0  0  0  0  0  0  0
  144.3743   72.3192  219.9901 H   0  0  0  0  0  0  0  0  0  0  0  0
  144.4198   70.8164  218.9842 H   0  0  0  0  0  0  0  0  0  0  0  0
  143.5335   71.9265  217.2580 H   0  0  0  0  0  0  0  0  0  0  0  0
  142.0982   72.3455  218.2368 H   0  0  0  0  0  0  0  0  0  0  0  0
  144.2297   74.0158  217.3512 H   0  0  0  0  0  0  0  0  0  0  0  0
  144.2885   73.1575  220.2481 H   0  0  0  0  0  0  0  0  0  0  0  0
  145.5818   73.9229  219.3399 H   0  0  0  0  0  0  0  0  0  0  0  0
  143.4131   75.1723  220.9687 H   0  0  0  0  0  0  0  0  0  0  0  0
  144.8964   75.9291  220.4297 H   0  0  0  0  0  0  0  0  0  0  0  0
  142.6055   76.6851  219.2949 H   0  0  0  0  0  0  0  0  0  0  0  0
  143.9371   76.4043  218.2029 H   0  0  0  0  0  0  0  0  0  0  0  0
  141.9450   74.4180  219.1780 H   0  0  0  0  0  0  0  0  0  0  0  0
  137.7516   72.0553  224.4926 H   0  0  0  0  0  0  0  0  0  0  0  0
  137.9424   71.6123  222.7532 H   0  0  0  0  0  0  0  0  0  0  0  0
  137.1781   69.8617  224.6473 H   0  0  0  0  0  0  0  0  0  0  0  0
  138.1602   69.4153  223.1775 H   0  0  0  0  0  0  0  0  0  0  0  0
  138.3410   67.4982  224.9922 H   0  0  0  0  0  0  0  0  0  0  0  0
  140.1133   66.5444  226.4295 H   0  0  0  0  0  0  0  0  0  0  0  0
  141.9940   67.9269  227.2382 H   0  0  0  0  0  0  0  0  0  0  0  0
  142.0934   70.3331  226.5914 H   0  0  0  0  0  0  0  0  0  0  0  0
  139.9246   72.2893  225.8615 H   0  0  0  0  0  0  0  0  0  0  0  0
  141.4467   71.9825  225.0207 H   0  0  0  0  0  0  0  0  0  0  0  0
  140.5977   76.5215  223.6946 H   0  0  0  0  0  0  0  0  0  0  0  0
  141.9533   76.1622  222.5213 H   0  0  0  0  0  0  0  0  0  0  0  0
  1  2  2  0
  2  3  1  0
  3  4  2  0
  4  5  1  0
  5  6  2  0
  5  7  1  0
  7  8  1  0
  8  9  1  0
  9 10  1  0
 10 11  1  0
 11 12  2  0
 12 13  1  0
 13 14  1  0
 14 15  1  0
 15 16  1  0
 16 17  1  0
 17 18  1  0
 18 19  1  0
 19 20  1  0
 20 21  1  0
 13 22  2  0
 22 23  1  0
 23 24  1  0
 24 25  1  0
 25 26  1  0
 26 27  1  0
 27 28  2  0
 28 29  1  0
 29 30  2  0
 30 31  1  0
 31 32  2  0
 32 33  1  0
 23 34  2  0
  9 35  1  0
  6  1  1  0
 34 11  1  0
 35  4  1  0
 21 17  1  0
 33 24  1  0
 32 27  1  0
  1 36  1  0
  2 37  1  0
  3 38  1  0
  6 39  1  0
  7 40  1  0
  7 41  1  0
  8 42  1  0
  8 43  1  0
  9 44  1  1
 10 45  1  0
 14 46  1  0
 15 47  1  0
 15 48  1  0
 16 49  1  0
 16 50  1  0
 17 51  1  6
 18 52  1  0
 18 53  1  0
 19 54  1  0
 19 55  1  0
 20 56  1  0
 20 57  1  0
 21 58  1  0
 25 59  1  0
 25 60  1  0
 26 61  1  0
 26 62  1  0
 28 63  1  0
 29 64  1  0
 30 65  1  0
 31 66  1  0
 33 67  1  0
 33 68  1  0
 35 69  1  0
 35 70  1  0
M  END
>  <smiles>  (64) 
c1ccc2c(c1)CCC(Nc1nc(NCCC3CCCN3)nc(N3CCc4ccccc4C3)n1)C2

>  <score_type>  (64) 
oracle

>  <origin>  (64) 
autodockgpu

>  <m_score__min__energy>  (64) 
-10.699999999999999

>  <m_primary>  (64) 
energy

>  <rmsd>  (64) 
4.142037113375577

>  <m_score__min__rmsd>  (64) 
4.142037113375577

>  <meeko>  (64) 
{"free_energy": -8.8, "intermolecular_energy": -10.89, "internal_energy": -2.94, "cluster_size": 19, "cluster_id": 1, "rank_in_cluster": 17}

>  <energy>  (64) 
-9.27

>  <cluster_rmsd>  (64) 
0.89

>  <cluster>  (64) 
1

$$$$

     RDKit          3D

 70 75  0  0  1  0  0  0  0  0999 V2000
  139.0570   68.5550  225.9880 C   0  0  0  0  0  0  0  0  0  0  0  0
  140.3410   69.0370  226.2400 C   0  0  0  0  0  0  0  0  0  0  0  0
  140.8650   70.0980  225.5300 C   0  0  0  0  0  0  0  0  0  0  0  0
  140.1240   70.7110  224.5430 C   0  0  0  0  0  0  0  0  0  0  0  0
  138.8450   70.2230  224.2990 C   0  0  0  0  0  0  0  0  0  0  0  0
  138.3030   69.1730  224.9910 C   0  0  0  0  0  0  0  0  0  0  0  0
  138.0930   70.9420  223.2060 C   0  0  0  0  0  0  0  0  0  0  0  0
  139.1020   70.9660  222.0520 C   0  0  0  0  0  0  0  0  0  0  0  0
  140.1330   72.0150  222.4110 C   0  0  1  0  0  0  0  0  0  0  0  0
  139.4470   73.3050  222.3890 N   0  0  0  0  0  0  0  0  0  0  0  0
  140.0990   74.4770  221.8720 C   0  0  0  0  0  0  0  0  0  0  0  0
  140.7130   74.4840  220.6750 N   0  0  0  0  0  0  0  0  0  0  0  0
  141.3090   75.5750  220.2170 C   0  0  0  0  0  0  0  0  0  0  0  0
  141.9670   75.5810  218.9330 N   0  0  0  0  0  0  0  0  0  0  0  0
  143.4170   75.5370  218.9260 C   0  0  0  0  0  0  0  0  0  0  0  0
  143.9240   74.3080  218.2020 C   0  0  0  0  0  0  0  0  0  0  0  0
  144.5150   73.3730  219.2210 C   0  0  2  0  0  0  0  0  0  0  0  0
  144.4360   74.0380  220.5800 C   0  0  0  0  0  0  0  0  0  0  0  0
  145.7700   73.7180  221.2160 C   0  0  0  0  0  0  0  0  0  0  0  0
  146.3220   72.6510  220.3200 C   0  0  0  0  0  0  0  0  0  0  0  0
  145.9290   73.1340  218.9870 N   0  0  0  0  0  0  0  0  0  0  0  0
  141.3000   76.6970  220.9640 N   0  0  0  0  0  0  0  0  0  0  0  0
  140.6990   76.7320  222.1620 C   0  0  0  0  0  0  0  0  0  0  0  0
  140.7060   77.9250  222.9260 N   0  0  0  0  0  0  0  0  0  0  0  0
  141.8280   78.2940  223.7460 C   0  0  0  0  0  0  0  0  0  0  0  0
  142.4060   79.6150  223.2930 C   0  0  0  0  0  0  0  0  0  0  0  0
  141.4190   80.4730  222.6100 C   0  0  0  0  0  0  0  0  0  0  0  0
  141.8370   81.6890  222.1390 C   0  0  0  0  0  0  0  0  0  0  0  0
  140.9360   82.5230  221.4910 C   0  0  0  0  0  0  0  0  0  0  0  0
  139.6210   82.1670  221.3020 C   0  0  0  0  0  0  0  0  0  0  0  0
  139.1940   80.9500  221.7720 C   0  0  0  0  0  0  0  0  0  0  0  0
  140.1000   80.1320  222.4130 C   0  0  0  0  0  0  0  0  0  0  0  0
  139.5640   78.8130  222.9010 C   0  0  0  0  0  0  0  0  0  0  0  0
  140.1070   75.6150  222.5970 N   0  0  0  0  0  0  0  0  0  0  0  0
  140.7030   71.8520  223.7890 C   0  0  0  0  0  0  0  0  0  0  0  0
  138.6494   67.7091  226.5609 H   0  0  0  0  0  0  0  0  0  0  0  0
  140.9500   68.5607  227.0225 H   0  0  0  0  0  0  0  0  0  0  0  0
  141.8806   70.4567  225.7533 H   0  0  0  0  0  0  0  0  0  0  0  0
  137.2858   68.8215  224.7633 H   0  0  0  0  0  0  0  0  0  0  0  0
  137.1831   70.3919  222.9243 H   0  0  0  0  0  0  0  0  0  0  0  0
  137.7496   71.9440  223.5027 H   0  0  0  0  0  0  0  0  0  0  0  0
  139.5814   69.9818  221.9447 H   0  0  0  0  0  0  0  0  0  0  0  0
  138.6105   71.1991  221.0959 H   0  0  0  0  0  0  0  0  0  0  0  0
  140.9623   71.9275  221.6937 H   0  0  0  0  0  0  0  0  0  0  0  0
  138.4690   73.4310  222.7420 H   0  0  0  0  0  0  0  0  0  0  0  0
  141.3860   75.6160  218.0650 H   0  0  0  0  0  0  0  0  0  0  0  0
  143.8008   76.4352  218.4201 H   0  0  0  0  0  0  0  0  0  0  0  0
  143.7693   75.4979  219.9673 H   0  0  0  0  0  0  0  0  0  0  0  0
  143.0914   73.8128  217.6809 H   0  0  0  0  0  0  0  0  0  0  0  0
  144.6847   74.5910  217.4596 H   0  0  0  0  0  0  0  0  0  0  0  0
  143.9575   72.4268  219.1593 H   0  0  0  0  0  0  0  0  0  0  0  0
  144.3015   75.1249  220.4772 H   0  0  0  0  0  0  0  0  0  0  0  0
  143.5836   73.6837  221.1782 H   0  0  0  0  0  0  0  0  0  0  0  0
  146.4246   74.6020  221.2282 H   0  0  0  0  0  0  0  0  0  0  0  0
  145.6854   73.4019  222.2662 H   0  0  0  0  0  0  0  0  0  0  0  0
  147.4158   72.5788  220.4120 H   0  0  0  0  0  0  0  0  0  0  0  0
  145.9505   71.6421  220.5524 H   0  0  0  0  0  0  0  0  0  0  0  0
  146.4080   74.0470  218.8570 H   0  0  0  0  0  0  0  0  0  0  0  0
  141.4979   78.3833  224.7915 H   0  0  0  0  0  0  0  0  0  0  0  0
  142.6029   77.5184  223.6567 H   0  0  0  0  0  0  0  0  0  0  0  0
  142.7864   80.1518  224.1746 H   0  0  0  0  0  0  0  0  0  0  0  0
  143.2051   79.3936  222.5702 H   0  0  0  0  0  0  0  0  0  0  0  0
  142.8824   82.0037  222.2736 H   0  0  0  0  0  0  0  0  0  0  0  0
  141.2841   83.4974  221.1176 H   0  0  0  0  0  0  0  0  0  0  0  0
  138.9254   82.8440  220.7845 H   0  0  0  0  0  0  0  0  0  0  0  0
  138.1489   80.6334  221.6397 H   0  0  0  0  0  0  0  0  0  0  0  0
  139.1362   78.9196  223.9088 H   0  0  0  0  0  0  0  0  0  0  0  0
  138.7605   78.4312  222.2540 H   0  0  0  0  0  0  0  0  0  0  0  0
  141.7880   71.6945  223.6997 H   0  0  0  0  0  0  0  0  0  0  0  0
  140.4565   72.7660  224.3492 H   0  0  0  0  0  0  0  0  0  0  0  0
  1  2  2  0
  2  3  1  0
  3  4  2  0
  4  5  1  0
  5  6  2  0
  5  7  1  0
  7  8  1  0
  8  9  1  0
  9 10  1  0
 10 11  1  0
 11 12  2  0
 12 13  1  0
 13 14  1  0
 14 15  1  0
 15 16  1  0
 16 17  1  0
 17 18  1  0
 18 19  1  0
 19 20  1  0
 20 21  1  0
 13 22  2  0
 22 23  1  0
 23 24  1  0
 24 25  1  0
 25 26  1  0
 26 27  1  0
 27 28  2  0
 28 29  1  0
 29 30  2  0
 30 31  1  0
 31 32  2  0
 32 33  1  0
 23 34  2  0
  9 35  1  0
  6  1  1  0
 34 11  1  0
 35  4  1  0
 21 17  1  0
 33 24  1  0
 32 27  1  0
  1 36  1  0
  2 37  1  0
  3 38  1  0
  6 39  1  0
  7 40  1  0
  7 41  1  0
  8 42  1  0
  8 43  1  0
  9 44  1  6
 10 45  1  0
 14 46  1  0
 15 47  1  0
 15 48  1  0
 16 49  1  0
 16 50  1  0
 17 51  1  1
 18 52  1  0
 18 53  1  0
 19 54  1  0
 19 55  1  0
 20 56  1  0
 20 57  1  0
 21 58  1  0
 25 59  1  0
 25 60  1  0
 26 61  1  0
 26 62  1  0
 28 63  1  0
 29 64  1  0
 30 65  1  0
 31 66  1  0
 33 67  1  0
 33 68  1  0
 35 69  1  0
 35 70  1  0
M  END
>  <smiles>  (65) 
c1ccc2c(c1)CCC(Nc1nc(NCCC3CCCN3)nc(N3CCc4ccccc4C3)n1)C2

>  <score_type>  (65) 
oracle

>  <origin>  (65) 
autodockgpu

>  <m_score__min__energy>  (65) 
-10.699999999999999

>  <m_primary>  (65) 
energy

>  <rmsd>  (65) 
11.201219612675835

>  <m_score__min__rmsd>  (65) 
11.201219612675835

>  <meeko>  (65) 
{"free_energy": -10.29, "intermolecular_energy": -12.38, "internal_energy": -1.26, "cluster_size": 10, "cluster_id": 2, "rank_in_cluster": 1}

>  <energy>  (65) 
-9.14

>  <cluster_rmsd>  (65) 
1.55

>  <cluster>  (65) 
1

$$$$

     RDKit          3D

 70 75  0  0  1  0  0  0  0  0999 V2000
  140.0090   69.5060  226.7440 C   0  0  0  0  0  0  0  0  0  0  0  0
  140.9260   70.5560  226.7690 C   0  0  0  0  0  0  0  0  0  0  0  0
  141.0370   71.4410  225.7160 C   0  0  0  0  0  0  0  0  0  0  0  0
  140.2330   71.3070  224.6030 C   0  0  0  0  0  0  0  0  0  0  0  0
  139.3220   70.2570  224.5890 C   0  0  0  0  0  0  0  0  0  0  0  0
  139.1930   69.3670  225.6210 C   0  0  0  0  0  0  0  0  0  0  0  0
  138.4780   70.1720  223.3410 C   0  0  0  0  0  0  0  0  0  0  0  0
  139.5160   70.2570  222.2170 C   0  0  0  0  0  0  0  0  0  0  0  0
  139.9540   71.7040  222.1520 C   0  0  1  0  0  0  0  0  0  0  0  0
  138.7970   72.4760  221.7060 N   0  0  0  0  0  0  0  0  0  0  0  0
  138.7050   73.8850  221.9700 C   0  0  0  0  0  0  0  0  0  0  0  0
  137.5480   74.4730  222.3250 N   0  0  0  0  0  0  0  0  0  0  0  0
  137.4850   75.7740  222.5630 C   0  0  0  0  0  0  0  0  0  0  0  0
  136.2430   76.4020  222.9440 N   0  0  0  0  0  0  0  0  0  0  0  0
  135.5410   77.1630  221.9270 C   0  0  0  0  0  0  0  0  0  0  0  0
  134.9700   78.4430  222.4980 C   0  0  0  0  0  0  0  0  0  0  0  0
  136.0540   79.4850  222.4910 C   0  0  2  0  0  0  0  0  0  0  0  0
  136.6730   79.5200  221.1090 C   0  0  0  0  0  0  0  0  0  0  0  0
  138.1550   79.6440  221.3800 C   0  0  0  0  0  0  0  0  0  0  0  0
  138.2010   80.0000  222.8360 C   0  0  0  0  0  0  0  0  0  0  0  0
  137.1400   79.1480  223.3950 N   0  0  0  0  0  0  0  0  0  0  0  0
  138.5990   76.5230  222.4460 N   0  0  0  0  0  0  0  0  0  0  0  0
  139.7730   75.9770  222.0960 C   0  0  0  0  0  0  0  0  0  0  0  0
  140.9280   76.7880  221.9810 N   0  0  0  0  0  0  0  0  0  0  0  0
  141.6240   76.9440  220.7320 C   0  0  0  0  0  0  0  0  0  0  0  0
  141.6310   78.3940  220.3040 C   0  0  0  0  0  0  0  0  0  0  0  0
  141.5150   79.3310  221.4380 C   0  0  0  0  0  0  0  0  0  0  0  0
  141.4910   80.6730  221.1670 C   0  0  0  0  0  0  0  0  0  0  0  0
  141.3820   81.5840  222.2080 C   0  0  0  0  0  0  0  0  0  0  0  0
  141.2950   81.1830  223.5210 C   0  0  0  0  0  0  0  0  0  0  0  0
  141.3190   79.8390  223.8010 C   0  0  0  0  0  0  0  0  0  0  0  0
  141.4260   78.9450  222.7570 C   0  0  0  0  0  0  0  0  0  0  0  0
  141.4450   77.4890  223.1360 C   0  0  0  0  0  0  0  0  0  0  0  0
  139.8040   74.6610  221.8620 N   0  0  0  0  0  0  0  0  0  0  0  0
  140.3640   72.2690  223.4800 C   0  0  0  0  0  0  0  0  0  0  0  0
  139.9309   68.8051  227.5882 H   0  0  0  0  0  0  0  0  0  0  0  0
  141.5755   70.6818  227.6478 H   0  0  0  0  0  0  0  0  0  0  0  0
  141.7713   72.2586  225.7644 H   0  0  0  0  0  0  0  0  0  0  0  0
  138.4555   68.5528  225.5656 H   0  0  0  0  0  0  0  0  0  0  0  0
  137.9276   69.2205  223.2999 H   0  0  0  0  0  0  0  0  0  0  0  0
  137.7101   70.9574  223.2825 H   0  0  0  0  0  0  0  0  0  0  0  0
  140.3755   69.6086  222.4425 H   0  0  0  0  0  0  0  0  0  0  0  0
  139.0944   69.9234  221.2573 H   0  0  0  0  0  0  0  0  0  0  0  0
  140.8243   71.7590  221.4815 H   0  0  0  0  0  0  0  0  0  0  0  0
  137.9970   72.0450  221.1850 H   0  0  0  0  0  0  0  0  0  0  0  0
  135.8960   76.2900  223.9230 H   0  0  0  0  0  0  0  0  0  0  0  0
  136.2427   77.4129  221.1176 H   0  0  0  0  0  0  0  0  0  0  0  0
  134.7105   76.5510  221.5452 H   0  0  0  0  0  0  0  0  0  0  0  0
  134.1243   78.7812  221.8812 H   0  0  0  0  0  0  0  0  0  0  0  0
  134.6114   78.2746  223.5242 H   0  0  0  0  0  0  0  0  0  0  0  0
  135.5941   80.4377  222.7925 H   0  0  0  0  0  0  0  0  0  0  0  0
  136.4518   78.5946  220.5571 H   0  0  0  0  0  0  0  0  0  0  0  0
  136.2839   80.3415  220.4896 H   0  0  0  0  0  0  0  0  0  0  0  0
  138.6732   78.6927  221.1887 H   0  0  0  0  0  0  0  0  0  0  0  0
  138.6538   80.3834  220.7362 H   0  0  0  0  0  0  0  0  0  0  0  0
  139.1801   79.7585  223.2754 H   0  0  0  0  0  0  0  0  0  0  0  0
  138.0580   81.0725  223.0342 H   0  0  0  0  0  0  0  0  0  0  0  0
  137.4340   78.1670  223.2190 H   0  0  0  0  0  0  0  0  0  0  0  0
  142.6611   76.5970  220.8503 H   0  0  0  0  0  0  0  0  0  0  0  0
  141.1093   76.3497  219.9627 H   0  0  0  0  0  0  0  0  0  0  0  0
  142.5736   78.5987  219.7753 H   0  0  0  0  0  0  0  0  0  0  0  0
  140.7549   78.5502  219.6575 H   0  0  0  0  0  0  0  0  0  0  0  0
  141.5579   81.0276  220.1279 H   0  0  0  0  0  0  0  0  0  0  0  0
  141.3647   82.6592  221.9763 H   0  0  0  0  0  0  0  0  0  0  0  0
  141.2080   81.9236  224.3297 H   0  0  0  0  0  0  0  0  0  0  0  0
  141.2540   79.4821  224.8395 H   0  0  0  0  0  0  0  0  0  0  0  0
  142.4715   77.1618  223.3578 H   0  0  0  0  0  0  0  0  0  0  0  0
  140.8466   77.2917  224.0377 H   0  0  0  0  0  0  0  0  0  0  0  0
  141.4157   72.5844  223.4136 H   0  0  0  0  0  0  0  0  0  0  0  0
  139.6871   73.1090  223.6952 H   0  0  0  0  0  0  0  0  0  0  0  0
  1  2  2  0
  2  3  1  0
  3  4  2  0
  4  5  1  0
  5  6  2  0
  5  7  1  0
  7  8  1  0
  8  9  1  0
  9 10  1  0
 10 11  1  0
 11 12  2  0
 12 13  1  0
 13 14  1  0
 14 15  1  0
 15 16  1  0
 16 17  1  0
 17 18  1  0
 18 19  1  0
 19 20  1  0
 20 21  1  0
 13 22  2  0
 22 23  1  0
 23 24  1  0
 24 25  1  0
 25 26  1  0
 26 27  1  0
 27 28  2  0
 28 29  1  0
 29 30  2  0
 30 31  1  0
 31 32  2  0
 32 33  1  0
 23 34  2  0
  9 35  1  0
  6  1  1  0
 34 11  1  0
 35  4  1  0
 21 17  1  0
 33 24  1  0
 32 27  1  0
  1 36  1  0
  2 37  1  0
  3 38  1  0
  6 39  1  0
  7 40  1  0
  7 41  1  0
  8 42  1  0
  8 43  1  0
  9 44  1  6
 10 45  1  0
 14 46  1  0
 15 47  1  0
 15 48  1  0
 16 49  1  0
 16 50  1  0
 17 51  1  1
 18 52  1  0
 18 53  1  0
 19 54  1  0
 19 55  1  0
 20 56  1  0
 20 57  1  0
 21 58  1  0
 25 59  1  0
 25 60  1  0
 26 61  1  0
 26 62  1  0
 28 63  1  0
 29 64  1  0
 30 65  1  0
 31 66  1  0
 33 67  1  0
 33 68  1  0
 35 69  1  0
 35 70  1  0
M  END
>  <smiles>  (66) 
c1ccc2c(c1)CCC(Nc1nc(NCCC3CCCN3)nc(N3CCc4ccccc4C3)n1)C2

>  <score_type>  (66) 
oracle

>  <origin>  (66) 
autodockgpu

>  <m_score__min__energy>  (66) 
-10.699999999999999

>  <m_primary>  (66) 
energy

>  <rmsd>  (66) 
10.986323090817663

>  <m_score__min__rmsd>  (66) 
10.986323090817663

>  <meeko>  (66) 
{"free_energy": -7.59, "intermolecular_energy": -9.67, "internal_energy": -2.79, "cluster_size": 3, "cluster_id": 5, "rank_in_cluster": 2}

>  <energy>  (66) 
-9.05

>  <cluster_rmsd>  (66) 
1.78

>  <cluster>  (66) 
1

$$$$

     RDKit          3D

 70 75  0  0  1  0  0  0  0  0999 V2000
  139.6000   68.3920  227.5540 C   0  0  0  0  0  0  0  0  0  0  0  0
  140.7280   69.1550  227.8550 C   0  0  0  0  0  0  0  0  0  0  0  0
  141.1700   70.1520  227.0100 C   0  0  0  0  0  0  0  0  0  0  0  0
  140.4990   70.4190  225.8350 C   0  0  0  0  0  0  0  0  0  0  0  0
  139.3770   69.6530  225.5450 C   0  0  0  0  0  0  0  0  0  0  0  0
  138.9180   68.6590  226.3670 C   0  0  0  0  0  0  0  0  0  0  0  0
  138.6950   70.0000  224.2440 C   0  0  0  0  0  0  0  0  0  0  0  0
  139.8530   70.0140  223.2410 C   0  0  0  0  0  0  0  0  0  0  0  0
  140.6220   71.2930  223.4960 C   0  0  1  0  0  0  0  0  0  0  0  0
  139.7400   72.3960  223.1260 N   0  0  0  0  0  0  0  0  0  0  0  0
  140.0380   73.2280  221.9930 C   0  0  0  0  0  0  0  0  0  0  0  0
  140.5810   72.7340  220.8650 N   0  0  0  0  0  0  0  0  0  0  0  0
  140.8480   73.5180  219.8320 C   0  0  0  0  0  0  0  0  0  0  0  0
  141.4290   72.9860  218.6240 N   0  0  0  0  0  0  0  0  0  0  0  0
  142.8620   73.1340  218.4510 C   0  0  0  0  0  0  0  0  0  0  0  0
  143.6020   71.9060  218.9360 C   0  0  0  0  0  0  0  0  0  0  0  0
  144.5400   72.3250  220.0340 C   0  0  2  0  0  0  0  0  0  0  0  0
  144.0220   73.6150  220.6360 C   0  0  0  0  0  0  0  0  0  0  0  0
  145.2680   74.4480  220.8330 C   0  0  0  0  0  0  0  0  0  0  0  0
  146.3710   73.4500  220.6470 C   0  0  0  0  0  0  0  0  0  0  0  0
  145.8660   72.6380  219.5290 N   0  0  0  0  0  0  0  0  0  0  0  0
  140.5730   74.8350  219.9130 N   0  0  0  0  0  0  0  0  0  0  0  0
  140.0320   75.3680  221.0170 C   0  0  0  0  0  0  0  0  0  0  0  0
  139.7540   76.7560  221.0740 N   0  0  0  0  0  0  0  0  0  0  0  0
  138.5060   77.2590  221.5820 C   0  0  0  0  0  0  0  0  0  0  0  0
  138.7390   78.1450  222.7840 C   0  0  0  0  0  0  0  0  0  0  0  0
  140.0760   78.7700  222.7890 C   0  0  0  0  0  0  0  0  0  0  0  0
  140.4050   79.5800  223.8430 C   0  0  0  0  0  0  0  0  0  0  0  0
  141.6540   80.1850  223.8830 C   0  0  0  0  0  0  0  0  0  0  0  0
  142.5860   79.9960  222.8890 C   0  0  0  0  0  0  0  0  0  0  0  0
  142.2630   79.1860  221.8290 C   0  0  0  0  0  0  0  0  0  0  0  0
  141.0190   78.5910  221.8030 C   0  0  0  0  0  0  0  0  0  0  0  0
  140.7330   77.7150  220.6130 C   0  0  0  0  0  0  0  0  0  0  0  0
  139.7740   74.5510  222.0430 N   0  0  0  0  0  0  0  0  0  0  0  0
  140.9880   71.4970  224.9370 C   0  0  0  0  0  0  0  0  0  0  0  0
  139.2569   67.5997  228.2355 H   0  0  0  0  0  0  0  0  0  0  0  0
  141.2776   68.9574  228.7871 H   0  0  0  0  0  0  0  0  0  0  0  0
  142.0628   70.7374  227.2750 H   0  0  0  0  0  0  0  0  0  0  0  0
  138.0238   68.0790  226.0951 H   0  0  0  0  0  0  0  0  0  0  0  0
  137.9475   69.2394  223.9743 H   0  0  0  0  0  0  0  0  0  0  0  0
  138.1442   70.9513  224.2835 H   0  0  0  0  0  0  0  0  0  0  0  0
  140.5034   69.1409  223.3982 H   0  0  0  0  0  0  0  0  0  0  0  0
  139.4849   69.9690  222.2054 H   0  0  0  0  0  0  0  0  0  0  0  0
  141.5559   71.2428  222.9169 H   0  0  0  0  0  0  0  0  0  0  0  0
  138.8690   72.6270  223.6590 H   0  0  0  0  0  0  0  0  0  0  0  0
  140.8090   72.5190  217.9240 H   0  0  0  0  0  0  0  0  0  0  0  0
  143.0807   73.2864  217.3838 H   0  0  0  0  0  0  0  0  0  0  0  0
  143.1967   73.9986  219.0430 H   0  0  0  0  0  0  0  0  0  0  0  0
  142.8842   71.1669  219.3214 H   0  0  0  0  0  0  0  0  0  0  0  0
  144.1656   71.4508  218.1083 H   0  0  0  0  0  0  0  0  0  0  0  0
  144.5961   71.4933  220.7518 H   0  0  0  0  0  0  0  0  0  0  0  0
  143.3217   74.1139  219.9500 H   0  0  0  0  0  0  0  0  0  0  0  0
  143.4659   73.4543  221.5714 H   0  0  0  0  0  0  0  0  0  0  0  0
  145.3300   75.2507  220.0834 H   0  0  0  0  0  0  0  0  0  0  0  0
  145.3014   74.9556  221.8083 H   0  0  0  0  0  0  0  0  0  0  0  0
  147.3177   73.9452  220.3852 H   0  0  0  0  0  0  0  0  0  0  0  0
  146.5971   72.8662  221.5515 H   0  0  0  0  0  0  0  0  0  0  0  0
  145.7760   73.2830  218.7200 H   0  0  0  0  0  0  0  0  0  0  0  0
  138.0041   77.8416  220.7954 H   0  0  0  0  0  0  0  0  0  0  0  0
  137.8779   76.4083  221.8851 H   0  0  0  0  0  0  0  0  0  0  0  0
  137.9799   78.9411  222.7851 H   0  0  0  0  0  0  0  0  0  0  0  0
  138.6692   77.5099  223.6794 H   0  0  0  0  0  0  0  0  0  0  0  0
  139.6826   79.7507  224.6548 H   0  0  0  0  0  0  0  0  0  0  0  0
  141.9057   80.8344  224.7344 H   0  0  0  0  0  0  0  0  0  0  0  0
  143.5703   80.4842  222.9426 H   0  0  0  0  0  0  0  0  0  0  0  0
  142.9830   79.0146  221.0153 H   0  0  0  0  0  0  0  0  0  0  0  0
  140.3269   78.3122  219.7833 H   0  0  0  0  0  0  0  0  0  0  0  0
  141.6425   77.2246  220.2357 H   0  0  0  0  0  0  0  0  0  0  0  0
  142.0844   71.5426  225.0139 H   0  0  0  0  0  0  0  0  0  0  0  0
  140.5057   72.4305  225.2625 H   0  0  0  0  0  0  0  0  0  0  0  0
  1  2  2  0
  2  3  1  0
  3  4  2  0
  4  5  1  0
  5  6  2  0
  5  7  1  0
  7  8  1  0
  8  9  1  0
  9 10  1  0
 10 11  1  0
 11 12  2  0
 12 13  1  0
 13 14  1  0
 14 15  1  0
 15 16  1  0
 16 17  1  0
 17 18  1  0
 18 19  1  0
 19 20  1  0
 20 21  1  0
 13 22  2  0
 22 23  1  0
 23 24  1  0
 24 25  1  0
 25 26  1  0
 26 27  1  0
 27 28  2  0
 28 29  1  0
 29 30  2  0
 30 31  1  0
 31 32  2  0
 32 33  1  0
 23 34  2  0
  9 35  1  0
  6  1  1  0
 34 11  1  0
 35  4  1  0
 21 17  1  0
 33 24  1  0
 32 27  1  0
  1 36  1  0
  2 37  1  0
  3 38  1  0
  6 39  1  0
  7 40  1  0
  7 41  1  0
  8 42  1  0
  8 43  1  0
  9 44  1  6
 10 45  1  0
 14 46  1  0
 15 47  1  0
 15 48  1  0
 16 49  1  0
 16 50  1  0
 17 51  1  1
 18 52  1  0
 18 53  1  0
 19 54  1  0
 19 55  1  0
 20 56  1  0
 20 57  1  0
 21 58  1  0
 25 59  1  0
 25 60  1  0
 26 61  1  0
 26 62  1  0
 28 63  1  0
 29 64  1  0
 30 65  1  0
 31 66  1  0
 33 67  1  0
 33 68  1  0
 35 69  1  0
 35 70  1  0
M  END
>  <smiles>  (67) 
c1ccc2c(c1)CCC(Nc1nc(NCCC3CCCN3)nc(N3CCc4ccccc4C3)n1)C2

>  <score_type>  (67) 
oracle

>  <origin>  (67) 
autodockgpu

>  <m_score__min__energy>  (67) 
-10.699999999999999

>  <m_primary>  (67) 
energy

>  <rmsd>  (67) 
11.858143694937818

>  <m_score__min__rmsd>  (67) 
11.858143694937818

>  <meeko>  (67) 
{"free_energy": -9.85, "intermolecular_energy": -11.93, "internal_energy": -1.37, "cluster_size": 19, "cluster_id": 1, "rank_in_cluster": 7}

>  <energy>  (67) 
-8.8

>  <cluster_rmsd>  (67) 
1.19

>  <cluster>  (67) 
1

$$$$

     RDKit          3D

 70 75  0  0  1  0  0  0  0  0999 V2000
  141.8010   81.2170  222.2490 C   0  0  0  0  0  0  0  0  0  0  0  0
  141.3890   80.7310  223.4890 C   0  0  0  0  0  0  0  0  0  0  0  0
  141.1360   79.3900  223.6900 C   0  0  0  0  0  0  0  0  0  0  0  0
  141.2870   78.4890  222.6570 C   0  0  0  0  0  0  0  0  0  0  0  0
  141.6980   78.9830  221.4250 C   0  0  0  0  0  0  0  0  0  0  0  0
  141.9560   80.3090  221.2020 C   0  0  0  0  0  0  0  0  0  0  0  0
  141.8410   77.9410  220.3430 C   0  0  0  0  0  0  0  0  0  0  0  0
  140.5130   77.1790  220.4210 C   0  0  0  0  0  0  0  0  0  0  0  0
  140.5980   76.3050  221.6550 C   0  0  1  0  0  0  0  0  0  0  0  0
  141.6330   75.3080  221.3960 N   0  0  0  0  0  0  0  0  0  0  0  0
  141.3230   73.9050  221.4050 C   0  0  0  0  0  0  0  0  0  0  0  0
  141.7160   73.0790  220.4180 N   0  0  0  0  0  0  0  0  0  0  0  0
  141.4200   71.7890  220.4460 C   0  0  0  0  0  0  0  0  0  0  0  0
  141.8420   70.9050  219.3860 N   0  0  0  0  0  0  0  0  0  0  0  0
  143.2610   70.6210  219.2800 C   0  0  0  0  0  0  0  0  0  0  0  0
  144.0060   71.7800  218.6530 C   0  0  0  0  0  0  0  0  0  0  0  0
  145.1130   72.1870  219.5860 C   0  0  2  0  0  0  0  0  0  0  0  0
  144.5110   72.9960  220.7160 C   0  0  0  0  0  0  0  0  0  0  0  0
  145.4950   74.1260  220.9150 C   0  0  0  0  0  0  0  0  0  0  0  0
  146.6910   73.6710  220.1350 C   0  0  0  0  0  0  0  0  0  0  0  0
  146.0710   73.0700  218.9430 N   0  0  0  0  0  0  0  0  0  0  0  0
  140.7110   71.2940  221.4800 N   0  0  0  0  0  0  0  0  0  0  0  0
  140.3010   72.0830  222.4840 C   0  0  0  0  0  0  0  0  0  0  0  0
  139.5570   71.5360  223.5590 N   0  0  0  0  0  0  0  0  0  0  0  0
  138.2450   70.9780  223.3670 C   0  0  0  0  0  0  0  0  0  0  0  0
  138.2250   69.5180  223.7580 C   0  0  0  0  0  0  0  0  0  0  0  0
  139.2550   69.1750  224.7570 C   0  0  0  0  0  0  0  0  0  0  0  0
  139.3430   67.8730  225.1720 C   0  0  0  0  0  0  0  0  0  0  0  0
  140.3000   67.5120  226.1110 C   0  0  0  0  0  0  0  0  0  0  0  0
  141.1760   68.4270  226.6460 C   0  0  0  0  0  0  0  0  0  0  0  0
  141.0940   69.7350  226.2350 C   0  0  0  0  0  0  0  0  0  0  0  0
  140.1400   70.0790  225.3020 C   0  0  0  0  0  0  0  0  0  0  0  0
  140.1070   71.5280  224.8970 C   0  0  0  0  0  0  0  0  0  0  0  0
  140.6150   73.3810  222.4280 N   0  0  0  0  0  0  0  0  0  0  0  0
  141.0120   77.0480  222.8910 C   0  0  0  0  0  0  0  0  0  0  0  0
  141.9987   82.2888  222.1003 H   0  0  0  0  0  0  0  0  0  0  0  0
  141.2628   81.4331  224.3264 H   0  0  0  0  0  0  0  0  0  0  0  0
  140.8119   79.0372  224.6802 H   0  0  0  0  0  0  0  0  0  0  0  0
  142.2814   80.6538  220.2094 H   0  0  0  0  0  0  0  0  0  0  0  0
  141.9702   78.4104  219.3566 H   0  0  0  0  0  0  0  0  0  0  0  0
  142.7206   77.2943  220.4773 H   0  0  0  0  0  0  0  0  0  0  0  0
  139.6736   77.8843  220.5105 H   0  0  0  0  0  0  0  0  0  0  0  0
  140.3424   76.5780  219.5156 H   0  0  0  0  0  0  0  0  0  0  0  0
  139.5975   75.8853  221.8364 H   0  0  0  0  0  0  0  0  0  0  0  0
  142.6290   75.5660  221.1970 H   0  0  0  0  0  0  0  0  0  0  0  0
  141.1230   70.5060  218.7410 H   0  0  0  0  0  0  0  0  0  0  0  0
  143.6660   70.4362  220.2859 H   0  0  0  0  0  0  0  0  0  0  0  0
  143.3922   69.7358  218.6403 H   0  0  0  0  0  0  0  0  0  0  0  0
  144.4290   71.4711  217.6857 H   0  0  0  0  0  0  0  0  0  0  0  0
  143.3218   72.6246  218.4840 H   0  0  0  0  0  0  0  0  0  0  0  0
  145.6139   71.2666  219.9207 H   0  0  0  0  0  0  0  0  0  0  0  0
  143.5205   73.3838  220.4358 H   0  0  0  0  0  0  0  0  0  0  0  0
  144.3556   72.4018  221.6286 H   0  0  0  0  0  0  0  0  0  0  0  0
  145.0983   75.0710  220.5155 H   0  0  0  0  0  0  0  0  0  0  0  0
  145.7176   74.3263  221.9734 H   0  0  0  0  0  0  0  0  0  0  0  0
  147.3374   74.5189  219.8644 H   0  0  0  0  0  0  0  0  0  0  0  0
  147.3448   72.9815  220.6892 H   0  0  0  0  0  0  0  0  0  0  0  0
  145.5560   73.8370  218.4670 H   0  0  0  0  0  0  0  0  0  0  0  0
  137.5235   71.5286  223.9886 H   0  0  0  0  0  0  0  0  0  0  0  0
  137.9753   71.0640  222.3041 H   0  0  0  0  0  0  0  0  0  0  0  0
  137.2364   69.2811  224.1782 H   0  0  0  0  0  0  0  0  0  0  0  0
  138.4371   68.9316  222.8518 H   0  0  0  0  0  0  0  0  0  0  0  0
  138.6580   67.1158  224.7629 H   0  0  0  0  0  0  0  0  0  0  0  0
  140.3592   66.4630  226.4366 H   0  0  0  0  0  0  0  0  0  0  0  0
  141.9270   68.1178  227.3879 H   0  0  0  0  0  0  0  0  0  0  0  0
  141.7774   70.4941  226.6432 H   0  0  0  0  0  0  0  0  0  0  0  0
  139.4668   72.1050  225.5806 H   0  0  0  0  0  0  0  0  0  0  0  0
  141.1057   71.9877  224.9335 H   0  0  0  0  0  0  0  0  0  0  0  0
  140.2045   76.9645  223.6333 H   0  0  0  0  0  0  0  0  0  0  0  0
  141.9511   76.5938  223.2400 H   0  0  0  0  0  0  0  0  0  0  0  0
  1  2  2  0
  2  3  1  0
  3  4  2  0
  4  5  1  0
  5  6  2  0
  5  7  1  0
  7  8  1  0
  8  9  1  0
  9 10  1  0
 10 11  1  0
 11 12  2  0
 12 13  1  0
 13 14  1  0
 14 15  1  0
 15 16  1  0
 16 17  1  0
 17 18  1  0
 18 19  1  0
 19 20  1  0
 20 21  1  0
 13 22  2  0
 22 23  1  0
 23 24  1  0
 24 25  1  0
 25 26  1  0
 26 27  1  0
 27 28  2  0
 28 29  1  0
 29 30  2  0
 30 31  1  0
 31 32  2  0
 32 33  1  0
 23 34  2  0
  9 35  1  0
  6  1  1  0
 34 11  1  0
 35  4  1  0
 21 17  1  0
 33 24  1  0
 32 27  1  0
  1 36  1  0
  2 37  1  0
  3 38  1  0
  6 39  1  0
  7 40  1  0
  7 41  1  0
  8 42  1  0
  8 43  1  0
  9 44  1  1
 10 45  1  0
 14 46  1  0
 15 47  1  0
 15 48  1  0
 16 49  1  0
 16 50  1  0
 17 51  1  1
 18 52  1  0
 18 53  1  0
 19 54  1  0
 19 55  1  0
 20 56  1  0
 20 57  1  0
 21 58  1  0
 25 59  1  0
 25 60  1  0
 26 61  1  0
 26 62  1  0
 28 63  1  0
 29 64  1  0
 30 65  1  0
 31 66  1  0
 33 67  1  0
 33 68  1  0
 35 69  1  0
 35 70  1  0
M  END
>  <smiles>  (68) 
c1ccc2c(c1)CCC(Nc1nc(NCCC3CCCN3)nc(N3CCc4ccccc4C3)n1)C2

>  <score_type>  (68) 
oracle

>  <origin>  (68) 
autodockgpu

>  <m_score__min__energy>  (68) 
-10.699999999999999

>  <m_primary>  (68) 
energy

>  <rmsd>  (68) 
3.7670585076880165

>  <m_score__min__rmsd>  (68) 
3.7670585076880165

>  <meeko>  (68) 
{"free_energy": -10.7, "intermolecular_energy": -12.79, "internal_energy": -1.27, "cluster_size": 19, "cluster_id": 1, "rank_in_cluster": 1}

>  <energy>  (68) 
-8.14

>  <cluster_rmsd>  (68) 
1.2

>  <cluster>  (68) 
1

$$$$

     RDKit          3D

 70 75  0  0  1  0  0  0  0  0999 V2000
  142.5780   77.5540  217.4460 C   0  0  0  0  0  0  0  0  0  0  0  0
  141.7400   76.6400  216.8080 C   0  0  0  0  0  0  0  0  0  0  0  0
  141.6520   75.3280  217.2260 C   0  0  0  0  0  0  0  0  0  0  0  0
  142.3990   74.8860  218.2970 C   0  0  0  0  0  0  0  0  0  0  0  0
  143.2310   75.8040  218.9260 C   0  0  0  0  0  0  0  0  0  0  0  0
  143.3350   77.1110  218.5300 C   0  0  0  0  0  0  0  0  0  0  0  0
  144.0180   75.2500  220.0890 C   0  0  0  0  0  0  0  0  0  0  0  0
  144.6400   73.9760  219.5070 C   0  0  0  0  0  0  0  0  0  0  0  0
  143.5230   72.9580  219.4230 C   0  0  1  0  0  0  0  0  0  0  0  0
  143.1370   72.6410  220.7950 N   0  0  0  0  0  0  0  0  0  0  0  0
  141.8990   73.1240  221.3430 C   0  0  0  0  0  0  0  0  0  0  0  0
  141.0700   72.3310  222.0450 N   0  0  0  0  0  0  0  0  0  0  0  0
  139.9330   72.7960  222.5410 C   0  0  0  0  0  0  0  0  0  0  0  0
  139.0450   71.9430  223.2930 N   0  0  0  0  0  0  0  0  0  0  0  0
  139.5250   70.6190  223.6390 C   0  0  0  0  0  0  0  0  0  0  0  0
  140.6770   70.6920  224.6190 C   0  0  0  0  0  0  0  0  0  0  0  0
  140.1080   70.7930  226.0070 C   0  0  2  0  0  0  0  0  0  0  0  0
  140.8370   71.8970  226.7430 C   0  0  0  0  0  0  0  0  0  0  0  0
  141.0590   71.3260  228.1240 C   0  0  0  0  0  0  0  0  0  0  0  0
  140.1620   70.1250  228.1390 C   0  0  0  0  0  0  0  0  0  0  0  0
  140.3460   69.5870  226.7820 N   0  0  0  0  0  0  0  0  0  0  0  0
  139.6020   74.0860  222.3370 N   0  0  0  0  0  0  0  0  0  0  0  0
  140.4000   74.9110  221.6450 C   0  0  0  0  0  0  0  0  0  0  0  0
  140.0260   76.2630  221.4460 N   0  0  0  0  0  0  0  0  0  0  0  0
  138.6970   76.7310  221.7320 C   0  0  0  0  0  0  0  0  0  0  0  0
  138.7290   77.8080  222.7920 C   0  0  0  0  0  0  0  0  0  0  0  0
  140.0110   78.5360  222.8370 C   0  0  0  0  0  0  0  0  0  0  0  0
  140.1610   79.5230  223.7740 C   0  0  0  0  0  0  0  0  0  0  0  0
  141.3530   80.2290  223.8470 C   0  0  0  0  0  0  0  0  0  0  0  0
  142.4060   79.9690  223.0000 C   0  0  0  0  0  0  0  0  0  0  0  0
  142.2640   78.9810  222.0580 C   0  0  0  0  0  0  0  0  0  0  0  0
  141.0740   78.2870  221.9970 C   0  0  0  0  0  0  0  0  0  0  0  0
  140.9880   77.2180  220.9420 C   0  0  0  0  0  0  0  0  0  0  0  0
  141.5400   74.4120  221.1560 N   0  0  0  0  0  0  0  0  0  0  0  0
  142.2920   73.4710  218.7350 C   0  0  0  0  0  0  0  0  0  0  0  0
  142.6402   78.5973  217.1030 H   0  0  0  0  0  0  0  0  0  0  0  0
  141.1351   76.9727  215.9516 H   0  0  0  0  0  0  0  0  0  0  0  0
  140.9820   74.6308  216.7017 H   0  0  0  0  0  0  0  0  0  0  0  0
  144.0068   77.8021  219.0601 H   0  0  0  0  0  0  0  0  0  0  0  0
  144.7955   75.9573  220.4132 H   0  0  0  0  0  0  0  0  0  0  0  0
  143.4015   75.0637  220.9808 H   0  0  0  0  0  0  0  0  0  0  0  0
  145.0498   74.1753  218.5058 H   0  0  0  0  0  0  0  0  0  0  0  0
  145.4665   73.6118  220.1349 H   0  0  0  0  0  0  0  0  0  0  0  0
  143.8963   72.0996  218.8452 H   0  0  0  0  0  0  0  0  0  0  0  0
  143.7340   72.0590  221.4300 H   0  0  0  0  0  0  0  0  0  0  0  0
  138.1000   72.3030  223.5590 H   0  0  0  0  0  0  0  0  0  0  0  0
  138.7029   70.0470  224.0939 H   0  0  0  0  0  0  0  0  0  0  0  0
  139.8794   70.1266  222.7214 H   0  0  0  0  0  0  0  0  0  0  0  0
  141.2951   69.7860  224.5351 H   0  0  0  0  0  0  0  0  0  0  0  0
  141.3056   71.5681  224.4016 H   0  0  0  0  0  0  0  0  0  0  0  0
  139.0271   70.9702  225.9054 H   0  0  0  0  0  0  0  0  0  0  0  0
  141.7959   72.1261  226.2551 H   0  0  0  0  0  0  0  0  0  0  0  0
  140.2728   72.8412  226.7593 H   0  0  0  0  0  0  0  0  0  0  0  0
  142.1104   71.0363  228.2680 H   0  0  0  0  0  0  0  0  0  0  0  0
  140.8396   72.0417  228.9300 H   0  0  0  0  0  0  0  0  0  0  0  0
  140.4787   69.3994  228.9027 H   0  0  0  0  0  0  0  0  0  0  0  0
  139.1153   70.3569  228.3854 H   0  0  0  0  0  0  0  0  0  0  0  0
  141.3490   69.3290  226.7060 H   0  0  0  0  0  0  0  0  0  0  0  0
  138.2526   77.1412  220.8132 H   0  0  0  0  0  0  0  0  0  0  0  0
  138.0957   75.8873  222.1016 H   0  0  0  0  0  0  0  0  0  0  0  0
  137.9242   78.5284  222.5839 H   0  0  0  0  0  0  0  0  0  0  0  0
  138.5972   77.3142  223.7661 H   0  0  0  0  0  0  0  0  0  0  0  0
  139.3388   79.7555  224.4668 H   0  0  0  0  0  0  0  0  0  0  0  0
  141.4596   81.0198  224.6041 H   0  0  0  0  0  0  0  0  0  0  0  0
  143.3423   80.5413  223.0764 H   0  0  0  0  0  0  0  0  0  0  0  0
  143.0848   78.7469  221.3641 H   0  0  0  0  0  0  0  0  0  0  0  0
  140.6444   77.6445  219.9880 H   0  0  0  0  0  0  0  0  0  0  0  0
  141.9657   76.7527  220.7481 H   0  0  0  0  0  0  0  0  0  0  0  0
  142.1034   72.8466  217.8493 H   0  0  0  0  0  0  0  0  0  0  0  0
  141.4712   73.4217  219.4656 H   0  0  0  0  0  0  0  0  0  0  0  0
  1  2  2  0
  2  3  1  0
  3  4  2  0
  4  5  1  0
  5  6  2  0
  5  7  1  0
  7  8  1  0
  8  9  1  0
  9 10  1  0
 10 11  1  0
 11 12  2  0
 12 13  1  0
 13 14  1  0
 14 15  1  0
 15 16  1  0
 16 17  1  0
 17 18  1  0
 18 19  1  0
 19 20  1  0
 20 21  1  0
 13 22  2  0
 22 23  1  0
 23 24  1  0
 24 25  1  0
 25 26  1  0
 26 27  1  0
 27 28  2  0
 28 29  1  0
 29 30  2  0
 30 31  1  0
 31 32  2  0
 32 33  1  0
 23 34  2  0
  9 35  1  0
  6  1  1  0
 34 11  1  0
 35  4  1  0
 21 17  1  0
 33 24  1  0
 32 27  1  0
  1 36  1  0
  2 37  1  0
  3 38  1  0
  6 39  1  0
  7 40  1  0
  7 41  1  0
  8 42  1  0
  8 43  1  0
  9 44  1  6
 10 45  1  0
 14 46  1  0
 15 47  1  0
 15 48  1  0
 16 49  1  0
 16 50  1  0
 17 51  1  6
 18 52  1  0
 18 53  1  0
 19 54  1  0
 19 55  1  0
 20 56  1  0
 20 57  1  0
 21 58  1  0
 25 59  1  0
 25 60  1  0
 26 61  1  0
 26 62  1  0
 28 63  1  0
 29 64  1  0
 30 65  1  0
 31 66  1  0
 33 67  1  0
 33 68  1  0
 35 69  1  0
 35 70  1  0
M  END
>  <smiles>  (69) 
c1ccc2c(c1)CCC(Nc1nc(NCCC3CCCN3)nc(N3CCc4ccccc4C3)n1)C2

>  <score_type>  (69) 
oracle

>  <origin>  (69) 
autodockgpu

>  <m_score__min__energy>  (69) 
-10.699999999999999

>  <m_primary>  (69) 
energy

>  <rmsd>  (69) 
7.198573429991551

>  <m_score__min__rmsd>  (69) 
7.198573429991551

>  <meeko>  (69) 
{"free_energy": -9.24, "intermolecular_energy": -11.33, "internal_energy": -1.71, "cluster_size": 5, "cluster_id": 3, "rank_in_cluster": 4}

>  <energy>  (69) 
-7.9

>  <cluster_rmsd>  (69) 
1.74

>  <cluster>  (69) 
1

$$$$

     RDKit          3D

 70 75  0  0  1  0  0  0  0  0999 V2000
  131.9580   75.7280  227.9310 C   0  0  0  0  0  0  0  0  0  0  0  0
  131.7220   74.3590  228.0560 C   0  0  0  0  0  0  0  0  0  0  0  0
  132.3380   73.4440  227.2280 C   0  0  0  0  0  0  0  0  0  0  0  0
  133.2110   73.8650  226.2480 C   0  0  0  0  0  0  0  0  0  0  0  0
  133.4400   75.2310  226.1320 C   0  0  0  0  0  0  0  0  0  0  0  0
  132.8410   76.1590  226.9410 C   0  0  0  0  0  0  0  0  0  0  0  0
  134.4050   75.6200  225.0390 C   0  0  0  0  0  0  0  0  0  0  0  0
  133.8680   74.8600  223.8200 C   0  0  0  0  0  0  0  0  0  0  0  0
  134.2520   73.4090  224.0220 C   0  0  1  0  0  0  0  0  0  0  0  0
  135.7090   73.3430  223.9420 N   0  0  0  0  0  0  0  0  0  0  0  0
  136.3640   72.2130  223.3430 C   0  0  0  0  0  0  0  0  0  0  0  0
  135.8470   71.5680  222.2800 N   0  0  0  0  0  0  0  0  0  0  0  0
  136.4670   70.5280  221.7430 C   0  0  0  0  0  0  0  0  0  0  0  0
  135.9120   69.8380  220.6040 N   0  0  0  0  0  0  0  0  0  0  0  0
  135.0860   68.6740  220.8670 C   0  0  0  0  0  0  0  0  0  0  0  0
  135.6470   67.8510  222.0070 C   0  0  0  0  0  0  0  0  0  0  0  0
  134.8510   68.1590  223.2450 C   0  0  2  0  0  0  0  0  0  0  0  0
  133.6340   68.9660  222.8410 C   0  0  0  0  0  0  0  0  0  0  0  0
  133.5330   70.0270  223.9130 C   0  0  0  0  0  0  0  0  0  0  0  0
  134.4680   69.5250  224.9720 C   0  0  0  0  0  0  0  0  0  0  0  0
  135.5870   69.0020  224.1710 N   0  0  0  0  0  0  0  0  0  0  0  0
  137.6340   70.1080  222.2700 N   0  0  0  0  0  0  0  0  0  0  0  0
  138.1840   70.7230  223.3280 C   0  0  0  0  0  0  0  0  0  0  0  0
  139.4110   70.2600  223.8610 N   0  0  0  0  0  0  0  0  0  0  0  0
  140.5820   71.0950  223.9040 C   0  0  0  0  0  0  0  0  0  0  0  0
  141.0420   71.2920  225.3300 C   0  0  0  0  0  0  0  0  0  0  0  0
  140.6410   70.1890  226.2240 C   0  0  0  0  0  0  0  0  0  0  0  0
  140.9870   70.2710  227.5460 C   0  0  0  0  0  0  0  0  0  0  0  0
  140.6270   69.2520  228.4170 C   0  0  0  0  0  0  0  0  0  0  0  0
  139.9230   68.1480  227.9950 C   0  0  0  0  0  0  0  0  0  0  0  0
  139.5730   68.0580  226.6710 C   0  0  0  0  0  0  0  0  0  0  0  0
  139.9370   69.0780  225.8170 C   0  0  0  0  0  0  0  0  0  0  0  0
  139.5190   68.9150  224.3810 C   0  0  0  0  0  0  0  0  0  0  0  0
  137.5340   71.7700  223.8480 N   0  0  0  0  0  0  0  0  0  0  0  0
  133.8670   72.8660  225.3670 C   0  0  0  0  0  0  0  0  0  0  0  0
  131.4605   76.4492  228.5961 H   0  0  0  0  0  0  0  0  0  0  0  0
  131.0293   74.0012  228.8320 H   0  0  0  0  0  0  0  0  0  0  0  0
  132.1311   72.3706  227.3506 H   0  0  0  0  0  0  0  0  0  0  0  0
  133.0533   77.2306  226.8119 H   0  0  0  0  0  0  0  0  0  0  0  0
  134.3899   76.7062  224.8661 H   0  0  0  0  0  0  0  0  0  0  0  0
  135.4510   75.3759  225.2764 H   0  0  0  0  0  0  0  0  0  0  0  0
  132.7742   74.9599  223.7602 H   0  0  0  0  0  0  0  0  0  0  0  0
  134.2865   75.2582  222.8839 H   0  0  0  0  0  0  0  0  0  0  0  0
  133.7270   72.8153  223.2592 H   0  0  0  0  0  0  0  0  0  0  0  0
  136.3300   74.1010  224.3120 H   0  0  0  0  0  0  0  0  0  0  0  0
  136.1200   70.1930  219.6440 H   0  0  0  0  0  0  0  0  0  0  0  0
  134.0709   69.0064  221.1300 H   0  0  0  0  0  0  0  0  0  0  0  0
  135.0671   68.0486  219.9623 H   0  0  0  0  0  0  0  0  0  0  0  0
  135.5654   66.7802  221.7686 H   0  0  0  0  0  0  0  0  0  0  0  0
  136.7075   68.0959  222.1665 H   0  0  0  0  0  0  0  0  0  0  0  0
  134.6050   67.1993  223.7231 H   0  0  0  0  0  0  0  0  0  0  0  0
  133.7774   69.4222  221.8504 H   0  0  0  0  0  0  0  0  0  0  0  0
  132.7241   68.3530  222.7620 H   0  0  0  0  0  0  0  0  0  0  0  0
  133.8567   71.0067  223.5316 H   0  0  0  0  0  0  0  0  0  0  0  0
  132.5063   70.1793  224.2774 H   0  0  0  0  0  0  0  0  0  0  0  0
  134.7969   70.3400  225.6335 H   0  0  0  0  0  0  0  0  0  0  0  0
  134.0174   68.7794  225.6437 H   0  0  0  0  0  0  0  0  0  0  0  0
  135.9750   69.8140  223.6520 H   0  0  0  0  0  0  0  0  0  0  0  0
  141.3877   70.6179  223.3268 H   0  0  0  0  0  0  0  0  0  0  0  0
  140.3344   72.0760  223.4723 H   0  0  0  0  0  0  0  0  0  0  0  0
  142.1394   71.3671  225.3368 H   0  0  0  0  0  0  0  0  0  0  0  0
  140.5646   72.2092  225.7054 H   0  0  0  0  0  0  0  0  0  0  0  0
  141.5483   71.1414  227.9167 H   0  0  0  0  0  0  0  0  0  0  0  0
  140.9132   69.3295  229.4763 H   0  0  0  0  0  0  0  0  0  0  0  0
  139.6463   67.3538  228.7040 H   0  0  0  0  0  0  0  0  0  0  0  0
  139.0124   67.1883  226.2978 H   0  0  0  0  0  0  0  0  0  0  0  0
  140.2755   68.3451  223.8216 H   0  0  0  0  0  0  0  0  0  0  0  0
  138.5725   68.3622  224.2892 H   0  0  0  0  0  0  0  0  0  0  0  0
  133.1726   72.0262  225.2168 H   0  0  0  0  0  0  0  0  0  0  0  0
  134.7967   72.5572  225.8673 H   0  0  0  0  0  0  0  0  0  0  0  0
  1  2  2  0
  2  3  1  0
  3  4  2  0
  4  5  1  0
  5  6  2  0
  5  7  1  0
  7  8  1  0
  8  9  1  0
  9 10  1  0
 10 11  1  0
 11 12  2  0
 12 13  1  0
 13 14  1  0
 14 15  1  0
 15 16  1  0
 16 17  1  0
 17 18  1  0
 18 19  1  0
 19 20  1  0
 20 21  1  0
 13 22  2  0
 22 23  1  0
 23 24  1  0
 24 25  1  0
 25 26  1  0
 26 27  1  0
 27 28  2  0
 28 29  1  0
 29 30  2  0
 30 31  1  0
 31 32  2  0
 32 33  1  0
 23 34  2  0
  9 35  1  0
  6  1  1  0
 34 11  1  0
 35  4  1  0
 21 17  1  0
 33 24  1  0
 32 27  1  0
  1 36  1  0
  2 37  1  0
  3 38  1  0
  6 39  1  0
  7 40  1  0
  7 41  1  0
  8 42  1  0
  8 43  1  0
  9 44  1  6
 10 45  1  0
 14 46  1  0
 15 47  1  0
 15 48  1  0
 16 49  1  0
 16 50  1  0
 17 51  1  1
 18 52  1  0
 18 53  1  0
 19 54  1  0
 19 55  1  0
 20 56  1  0
 20 57  1  0
 21 58  1  0
 25 59  1  0
 25 60  1  0
 26 61  1  0
 26 62  1  0
 28 63  1  0
 29 64  1  0
 30 65  1  0
 31 66  1  0
 33 67  1  0
 33 68  1  0
 35 69  1  0
 35 70  1  0
M  END
>  <smiles>  (70) 
c1ccc2c(c1)CCC(Nc1nc(NCCC3CCCN3)nc(N3CCc4ccccc4C3)n1)C2

>  <score_type>  (70) 
oracle

>  <origin>  (70) 
autodockgpu

>  <m_score__min__energy>  (70) 
-10.699999999999999

>  <m_primary>  (70) 
energy

>  <rmsd>  (70) 
10.927089103847758

>  <m_score__min__rmsd>  (70) 
10.927089103847758

>  <meeko>  (70) 
{"free_energy": -7.16, "intermolecular_energy": -9.25, "internal_energy": -3.43, "cluster_size": 2, "cluster_id": 8, "rank_in_cluster": 2}

>  <energy>  (70) 
-10.29

>  <cluster_rmsd>  (70) 
0.0

>  <cluster>  (70) 
2

$$$$

     RDKit          3D

 70 75  0  0  1  0  0  0  0  0999 V2000
  138.8940   80.6140  223.4780 C   0  0  0  0  0  0  0  0  0  0  0  0
  137.7970   79.7540  223.4940 C   0  0  0  0  0  0  0  0  0  0  0  0
  137.8970   78.4500  223.0530 C   0  0  0  0  0  0  0  0  0  0  0  0
  139.0970   77.9630  222.5800 C   0  0  0  0  0  0  0  0  0  0  0  0
  140.1840   78.8290  222.5690 C   0  0  0  0  0  0  0  0  0  0  0  0
  140.1110   80.1250  223.0020 C   0  0  0  0  0  0  0  0  0  0  0  0
  141.4640   78.2290  222.0390 C   0  0  0  0  0  0  0  0  0  0  0  0
  141.0220   77.5880  220.7180 C   0  0  0  0  0  0  0  0  0  0  0  0
  140.2630   76.3310  221.0890 C   0  0  1  0  0  0  0  0  0  0  0  0
  141.2290   75.4170  221.6900 N   0  0  0  0  0  0  0  0  0  0  0  0
  141.0180   73.9950  221.6560 C   0  0  0  0  0  0  0  0  0  0  0  0
  141.4690   73.2290  220.6460 N   0  0  0  0  0  0  0  0  0  0  0  0
  141.2630   71.9210  220.6340 C   0  0  0  0  0  0  0  0  0  0  0  0
  141.7470   71.1010  219.5500 N   0  0  0  0  0  0  0  0  0  0  0  0
  143.1340   70.6810  219.6000 C   0  0  0  0  0  0  0  0  0  0  0  0
  144.0170   71.6110  218.7950 C   0  0  0  0  0  0  0  0  0  0  0  0
  145.0870   72.1480  219.7060 C   0  0  2  0  0  0  0  0  0  0  0  0
  144.4290   73.0350  220.7430 C   0  0  0  0  0  0  0  0  0  0  0  0
  145.3640   74.2170  220.8520 C   0  0  0  0  0  0  0  0  0  0  0  0
  146.5940   73.7400  220.1400 C   0  0  0  0  0  0  0  0  0  0  0  0
  146.0240   73.0050  219.0000 N   0  0  0  0  0  0  0  0  0  0  0  0
  140.5890   71.3480  221.6510 N   0  0  0  0  0  0  0  0  0  0  0  0
  140.1240   72.0750  222.6770 C   0  0  0  0  0  0  0  0  0  0  0  0
  139.4190   71.4460  223.7330 N   0  0  0  0  0  0  0  0  0  0  0  0
  138.1900   70.7350  223.5060 C   0  0  0  0  0  0  0  0  0  0  0  0
  138.3320   69.2840  223.9050 C   0  0  0  0  0  0  0  0  0  0  0  0
  139.3650   69.0680  224.9360 C   0  0  0  0  0  0  0  0  0  0  0  0
  139.5950   67.7870  225.3610 C   0  0  0  0  0  0  0  0  0  0  0  0
  140.5600   67.5460  226.3290 C   0  0  0  0  0  0  0  0  0  0  0  0
  141.3050   68.5600  226.8840 C   0  0  0  0  0  0  0  0  0  0  0  0
  141.0800   69.8470  226.4630 C   0  0  0  0  0  0  0  0  0  0  0  0
  140.1190   70.0730  225.5010 C   0  0  0  0  0  0  0  0  0  0  0  0
  139.9260   71.5070  225.0860 C   0  0  0  0  0  0  0  0  0  0  0  0
  140.3470   73.3930  222.6600 N   0  0  0  0  0  0  0  0  0  0  0  0
  139.1880   76.5570  222.1110 C   0  0  0  0  0  0  0  0  0  0  0  0
  138.8025   81.6516  223.8316 H   0  0  0  0  0  0  0  0  0  0  0  0
  136.8300   80.1229  223.8665 H   0  0  0  0  0  0  0  0  0  0  0  0
  137.0136   77.7950  223.0791 H   0  0  0  0  0  0  0  0  0  0  0  0
  140.9998   80.7726  222.9752 H   0  0  0  0  0  0  0  0  0  0  0  0
  142.2235   79.0059  221.8670 H   0  0  0  0  0  0  0  0  0  0  0  0
  141.9286   77.5142  222.7341 H   0  0  0  0  0  0  0  0  0  0  0  0
  140.3699   78.2761  220.1601 H   0  0  0  0  0  0  0  0  0  0  0  0
  141.8853   77.3591  220.0759 H   0  0  0  0  0  0  0  0  0  0  0  0
  139.7822   75.9496  220.1761 H   0  0  0  0  0  0  0  0  0  0  0  0
  142.1030   75.7480  222.1640 H   0  0  0  0  0  0  0  0  0  0  0  0
  141.0920   70.8410  218.7780 H   0  0  0  0  0  0  0  0  0  0  0  0
  143.4718   70.6823  220.6469 H   0  0  0  0  0  0  0  0  0  0  0  0
  143.2080   69.6713  219.1699 H   0  0  0  0  0  0  0  0  0  0  0  0
  144.4787   71.0590  217.9631 H   0  0  0  0  0  0  0  0  0  0  0  0
  143.4208   72.4372  218.3804 H   0  0  0  0  0  0  0  0  0  0  0  0
  145.6155   71.2842  220.1356 H   0  0  0  0  0  0  0  0  0  0  0  0
  143.4309   73.3545  220.4089 H   0  0  0  0  0  0  0  0  0  0  0  0
  144.2760   72.5236  221.7048 H   0  0  0  0  0  0  0  0  0  0  0  0
  144.9399   75.1036  220.3580 H   0  0  0  0  0  0  0  0  0  0  0  0
  145.5557   74.5240  221.8907 H   0  0  0  0  0  0  0  0  0  0  0  0
  147.2124   74.5845  219.8018 H   0  0  0  0  0  0  0  0  0  0  0  0
  147.2622   73.1332  220.7686 H   0  0  0  0  0  0  0  0  0  0  0  0
  145.4910   73.7020  218.4440 H   0  0  0  0  0  0  0  0  0  0  0  0
  137.3897   71.1971  224.1027 H   0  0  0  0  0  0  0  0  0  0  0  0
  137.9444   70.7854  222.4350 H   0  0  0  0  0  0  0  0  0  0  0  0
  137.3664   68.9322  224.2972 H   0  0  0  0  0  0  0  0  0  0  0  0
  138.6395   68.7250  223.0089 H   0  0  0  0  0  0  0  0  0  0  0  0
  139.0174   66.9523  224.9370 H   0  0  0  0  0  0  0  0  0  0  0  0
  140.7342   66.5123  226.6624 H   0  0  0  0  0  0  0  0  0  0  0  0
  142.0652   68.3443  227.6492 H   0  0  0  0  0  0  0  0  0  0  0  0
  141.6563   70.6831  226.8858 H   0  0  0  0  0  0  0  0  0  0  0  0
  139.2018   72.0056  225.7470 H   0  0  0  0  0  0  0  0  0  0  0  0
  140.8615   72.0823  225.1486 H   0  0  0  0  0  0  0  0  0  0  0  0
  138.2218   76.2758  221.6668 H   0  0  0  0  0  0  0  0  0  0  0  0
  139.4421   75.9416  222.9866 H   0  0  0  0  0  0  0  0  0  0  0  0
  1  2  2  0
  2  3  1  0
  3  4  2  0
  4  5  1  0
  5  6  2  0
  5  7  1  0
  7  8  1  0
  8  9  1  0
  9 10  1  0
 10 11  1  0
 11 12  2  0
 12 13  1  0
 13 14  1  0
 14 15  1  0
 15 16  1  0
 16 17  1  0
 17 18  1  0
 18 19  1  0
 19 20  1  0
 20 21  1  0
 13 22  2  0
 22 23  1  0
 23 24  1  0
 24 25  1  0
 25 26  1  0
 26 27  1  0
 27 28  2  0
 28 29  1  0
 29 30  2  0
 30 31  1  0
 31 32  2  0
 32 33  1  0
 23 34  2  0
  9 35  1  0
  6  1  1  0
 34 11  1  0
 35  4  1  0
 21 17  1  0
 33 24  1  0
 32 27  1  0
  1 36  1  0
  2 37  1  0
  3 38  1  0
  6 39  1  0
  7 40  1  0
  7 41  1  0
  8 42  1  0
  8 43  1  0
  9 44  1  6
 10 45  1  0
 14 46  1  0
 15 47  1  0
 15 48  1  0
 16 49  1  0
 16 50  1  0
 17 51  1  1
 18 52  1  0
 18 53  1  0
 19 54  1  0
 19 55  1  0
 20 56  1  0
 20 57  1  0
 21 58  1  0
 25 59  1  0
 25 60  1  0
 26 61  1  0
 26 62  1  0
 28 63  1  0
 29 64  1  0
 30 65  1  0
 31 66  1  0
 33 67  1  0
 33 68  1  0
 35 69  1  0
 35 70  1  0
M  END
>  <smiles>  (71) 
c1ccc2c(c1)CCC(Nc1nc(NCCC3CCCN3)nc(N3CCc4ccccc4C3)n1)C2

>  <score_type>  (71) 
oracle

>  <origin>  (71) 
autodockgpu

>  <m_score__min__energy>  (71) 
-10.699999999999999

>  <m_primary>  (71) 
energy

>  <rmsd>  (71) 
3.9099025281909863

>  <m_score__min__rmsd>  (71) 
3.9099025281909863

>  <meeko>  (71) 
{"free_energy": -10.23, "intermolecular_energy": -12.32, "internal_energy": -1.32, "cluster_size": 19, "cluster_id": 1, "rank_in_cluster": 5}

>  <energy>  (71) 
-9.63

>  <cluster_rmsd>  (71) 
0.5

>  <cluster>  (71) 
2

$$$$

     RDKit          3D

 70 75  0  0  1  0  0  0  0  0999 V2000
  142.5480   77.3640  217.3110 C   0  0  0  0  0  0  0  0  0  0  0  0
  141.7010   76.4290  216.7180 C   0  0  0  0  0  0  0  0  0  0  0  0
  141.6110   75.1360  217.1920 C   0  0  0  0  0  0  0  0  0  0  0  0
  142.3640   74.7360  218.2760 C   0  0  0  0  0  0  0  0  0  0  0  0
  143.2040   75.6760  218.8600 C   0  0  0  0  0  0  0  0  0  0  0  0
  143.3110   76.9640  218.4080 C   0  0  0  0  0  0  0  0  0  0  0  0
  143.9970   75.1680  220.0390 C   0  0  0  0  0  0  0  0  0  0  0  0
  144.6090   73.8670  219.5080 C   0  0  0  0  0  0  0  0  0  0  0  0
  143.4860   72.8520  219.4750 C   0  0  1  0  0  0  0  0  0  0  0  0
  143.1080   72.5950  220.8620 N   0  0  0  0  0  0  0  0  0  0  0  0
  141.8600   73.0750  221.3860 C   0  0  0  0  0  0  0  0  0  0  0  0
  141.0260   72.2840  222.0860 N   0  0  0  0  0  0  0  0  0  0  0  0
  139.8790   72.7460  222.5600 C   0  0  0  0  0  0  0  0  0  0  0  0
  138.9870   71.8960  223.3100 N   0  0  0  0  0  0  0  0  0  0  0  0
  139.4180   70.5340  223.5630 C   0  0  0  0  0  0  0  0  0  0  0  0
  140.5660   70.4980  224.5490 C   0  0  0  0  0  0  0  0  0  0  0  0
  140.0190   70.7990  225.9170 C   0  0  2  0  0  0  0  0  0  0  0  0
  140.8490   71.9090  226.5280 C   0  0  0  0  0  0  0  0  0  0  0  0
  141.0320   71.4740  227.9640 C   0  0  0  0  0  0  0  0  0  0  0  0
  140.0330   70.3660  228.1100 C   0  0  0  0  0  0  0  0  0  0  0  0
  140.1570   69.6680  226.8200 N   0  0  0  0  0  0  0  0  0  0  0  0
  139.5410   74.0320  222.3370 N   0  0  0  0  0  0  0  0  0  0  0  0
  140.3430   74.8540  221.6460 C   0  0  0  0  0  0  0  0  0  0  0  0
  139.9620   76.2010  221.4260 N   0  0  0  0  0  0  0  0  0  0  0  0
  138.6320   76.6680  221.7110 C   0  0  0  0  0  0  0  0  0  0  0  0
  138.6640   77.7630  222.7520 C   0  0  0  0  0  0  0  0  0  0  0  0
  139.9440   78.4980  222.7780 C   0  0  0  0  0  0  0  0  0  0  0  0
  140.0940   79.5010  223.6970 C   0  0  0  0  0  0  0  0  0  0  0  0
  141.2840   80.2130  223.7520 C   0  0  0  0  0  0  0  0  0  0  0  0
  142.3330   79.9430  222.9050 C   0  0  0  0  0  0  0  0  0  0  0  0
  142.1910   78.9390  221.9800 C   0  0  0  0  0  0  0  0  0  0  0  0
  141.0040   78.2390  221.9380 C   0  0  0  0  0  0  0  0  0  0  0  0
  140.9170   77.1520  220.9010 C   0  0  0  0  0  0  0  0  0  0  0  0
  141.4940   74.3580  221.1790 N   0  0  0  0  0  0  0  0  0  0  0  0
  142.2520   73.3410  218.7740 C   0  0  0  0  0  0  0  0  0  0  0  0
  142.6130   78.3914  216.9235 H   0  0  0  0  0  0  0  0  0  0  0  0
  141.0909   76.7284  215.8531 H   0  0  0  0  0  0  0  0  0  0  0  0
  140.9345   74.4201  216.7022 H   0  0  0  0  0  0  0  0  0  0  0  0
  143.9897   77.6739  218.9034 H   0  0  0  0  0  0  0  0  0  0  0  0
  144.7802   75.8847  220.3270 H   0  0  0  0  0  0  0  0  0  0  0  0
  143.3861   75.0227  220.9421 H   0  0  0  0  0  0  0  0  0  0  0  0
  145.0130   74.0211  218.4966 H   0  0  0  0  0  0  0  0  0  0  0  0
  145.4380   73.5257  220.1453 H   0  0  0  0  0  0  0  0  0  0  0  0
  143.8515   71.9683  218.9314 H   0  0  0  0  0  0  0  0  0  0  0  0
  143.7190   72.0610  221.5240 H   0  0  0  0  0  0  0  0  0  0  0  0
  138.0740   72.2830  223.6400 H   0  0  0  0  0  0  0  0  0  0  0  0
  138.5738   69.9609  223.9740 H   0  0  0  0  0  0  0  0  0  0  0  0
  139.7595   70.0945  222.6142 H   0  0  0  0  0  0  0  0  0  0  0  0
  141.0298   69.5006  224.5444 H   0  0  0  0  0  0  0  0  0  0  0  0
  141.3284   71.2411  224.2723 H   0  0  0  0  0  0  0  0  0  0  0  0
  138.9568   71.0578  225.7959 H   0  0  0  0  0  0  0  0  0  0  0  0
  141.8200   71.9980  226.0188 H   0  0  0  0  0  0  0  0  0  0  0  0
  140.3705   72.8956  226.4401 H   0  0  0  0  0  0  0  0  0  0  0  0
  142.0550   71.1098  228.1396 H   0  0  0  0  0  0  0  0  0  0  0  0
  140.8834   72.2899  228.6866 H   0  0  0  0  0  0  0  0  0  0  0  0
  140.2913   69.7033  228.9491 H   0  0  0  0  0  0  0  0  0  0  0  0
  139.0130   70.7153  228.3283 H   0  0  0  0  0  0  0  0  0  0  0  0
  141.1340   69.3170  226.7740 H   0  0  0  0  0  0  0  0  0  0  0  0
  138.1810   77.0603  220.7876 H   0  0  0  0  0  0  0  0  0  0  0  0
  138.0368   75.8280  222.0983 H   0  0  0  0  0  0  0  0  0  0  0  0
  137.8549   78.4760  222.5355 H   0  0  0  0  0  0  0  0  0  0  0  0
  138.5391   77.2856  223.7351 H   0  0  0  0  0  0  0  0  0  0  0  0
  139.2742   79.7420  224.3897 H   0  0  0  0  0  0  0  0  0  0  0  0
  141.3912   81.0170  224.4950 H   0  0  0  0  0  0  0  0  0  0  0  0
  143.2673   80.5201  222.9675 H   0  0  0  0  0  0  0  0  0  0  0  0
  143.0089   78.6974  221.2852 H   0  0  0  0  0  0  0  0  0  0  0  0
  140.5663   77.5612  219.9421 H   0  0  0  0  0  0  0  0  0  0  0  0
  141.8958   76.6879  220.7094 H   0  0  0  0  0  0  0  0  0  0  0  0
  142.0543   72.6806  217.9168 H   0  0  0  0  0  0  0  0  0  0  0  0
  141.4353   73.3262  219.5108 H   0  0  0  0  0  0  0  0  0  0  0  0
  1  2  2  0
  2  3  1  0
  3  4  2  0
  4  5  1  0
  5  6  2  0
  5  7  1  0
  7  8  1  0
  8  9  1  0
  9 10  1  0
 10 11  1  0
 11 12  2  0
 12 13  1  0
 13 14  1  0
 14 15  1  0
 15 16  1  0
 16 17  1  0
 17 18  1  0
 18 19  1  0
 19 20  1  0
 20 21  1  0
 13 22  2  0
 22 23  1  0
 23 24  1  0
 24 25  1  0
 25 26  1  0
 26 27  1  0
 27 28  2  0
 28 29  1  0
 29 30  2  0
 30 31  1  0
 31 32  2  0
 32 33  1  0
 23 34  2  0
  9 35  1  0
  6  1  1  0
 34 11  1  0
 35  4  1  0
 21 17  1  0
 33 24  1  0
 32 27  1  0
  1 36  1  0
  2 37  1  0
  3 38  1  0
  6 39  1  0
  7 40  1  0
  7 41  1  0
  8 42  1  0
  8 43  1  0
  9 44  1  6
 10 45  1  0
 14 46  1  0
 15 47  1  0
 15 48  1  0
 16 49  1  0
 16 50  1  0
 17 51  1  6
 18 52  1  0
 18 53  1  0
 19 54  1  0
 19 55  1  0
 20 56  1  0
 20 57  1  0
 21 58  1  0
 25 59  1  0
 25 60  1  0
 26 61  1  0
 26 62  1  0
 28 63  1  0
 29 64  1  0
 30 65  1  0
 31 66  1  0
 33 67  1  0
 33 68  1  0
 35 69  1  0
 35 70  1  0
M  END
>  <smiles>  (72) 
c1ccc2c(c1)CCC(Nc1nc(NCCC3CCCN3)nc(N3CCc4ccccc4C3)n1)C2

>  <score_type>  (72) 
oracle

>  <origin>  (72) 
autodockgpu

>  <m_score__min__energy>  (72) 
-10.699999999999999

>  <m_primary>  (72) 
energy

>  <rmsd>  (72) 
7.304299613904738

>  <m_score__min__rmsd>  (72) 
7.304299613904738

>  <meeko>  (72) 
{"free_energy": -9.1, "intermolecular_energy": -11.18, "internal_energy": -1.79, "cluster_size": 5, "cluster_id": 3, "rank_in_cluster": 5}

>  <energy>  (72) 
-8.8

>  <cluster_rmsd>  (72) 
1.83

>  <cluster>  (72) 
2

$$$$

     RDKit          3D

 70 75  0  0  1  0  0  0  0  0999 V2000
  139.7390   68.5040  227.2760 C   0  0  0  0  0  0  0  0  0  0  0  0
  140.9840   69.1290  227.3380 C   0  0  0  0  0  0  0  0  0  0  0  0
  141.3680   70.0640  226.3990 C   0  0  0  0  0  0  0  0  0  0  0  0
  140.5200   70.4050  225.3660 C   0  0  0  0  0  0  0  0  0  0  0  0
  139.2820   69.7760  225.3140 C   0  0  0  0  0  0  0  0  0  0  0  0
  138.8780   68.8460  226.2340 C   0  0  0  0  0  0  0  0  0  0  0  0
  138.4080   70.1980  224.1580 C   0  0  0  0  0  0  0  0  0  0  0  0
  139.3470   70.0710  222.9530 C   0  0  0  0  0  0  0  0  0  0  0  0
  140.2930   71.2510  223.0250 C   0  0  1  0  0  0  0  0  0  0  0  0
  139.4900   72.4500  222.8010 N   0  0  0  0  0  0  0  0  0  0  0  0
  140.0580   73.6080  222.1670 C   0  0  0  0  0  0  0  0  0  0  0  0
  139.5590   74.8440  222.3570 N   0  0  0  0  0  0  0  0  0  0  0  0
  140.0970   75.8980  221.7630 C   0  0  0  0  0  0  0  0  0  0  0  0
  139.5610   77.2220  221.9680 N   0  0  0  0  0  0  0  0  0  0  0  0
  140.0120   78.2700  221.0720 C   0  0  0  0  0  0  0  0  0  0  0  0
  141.4960   78.5250  221.2310 C   0  0  0  0  0  0  0  0  0  0  0  0
  141.7210   79.1650  222.5740 C   0  0  2  0  0  0  0  0  0  0  0  0
  140.9200   80.4490  222.6310 C   0  0  0  0  0  0  0  0  0  0  0  0
  141.8560   81.4290  223.2990 C   0  0  0  0  0  0  0  0  0  0  0  0
  142.9350   80.5440  223.8450 C   0  0  0  0  0  0  0  0  0  0  0  0
  143.1060   79.5620  222.7630 N   0  0  0  0  0  0  0  0  0  0  0  0
  141.1620   75.7300  220.9530 N   0  0  0  0  0  0  0  0  0  0  0  0
  141.6890   74.5170  220.7370 C   0  0  0  0  0  0  0  0  0  0  0  0
  142.8080   74.3700  219.8810 N   0  0  0  0  0  0  0  0  0  0  0  0
  144.0300   75.0950  220.0990 C   0  0  0  0  0  0  0  0  0  0  0  0
  145.1820   74.1430  220.3260 C   0  0  0  0  0  0  0  0  0  0  0  0
  144.9720   72.8240  219.6990 C   0  0  0  0  0  0  0  0  0  0  0  0
  145.9440   71.8730  219.8560 C   0  0  0  0  0  0  0  0  0  0  0  0
  145.7800   70.6200  219.2810 C   0  0  0  0  0  0  0  0  0  0  0  0
  144.6620   70.2950  218.5500 C   0  0  0  0  0  0  0  0  0  0  0  0
  143.6830   71.2430  218.3880 C   0  0  0  0  0  0  0  0  0  0  0  0
  143.8580   72.4830  218.9650 C   0  0  0  0  0  0  0  0  0  0  0  0
  142.7450   73.4730  218.7470 C   0  0  0  0  0  0  0  0  0  0  0  0
  141.1240   73.4720  221.3510 N   0  0  0  0  0  0  0  0  0  0  0  0
  140.9490   71.4140  224.3650 C   0  0  0  0  0  0  0  0  0  0  0  0
  139.4436   67.7598  228.0303 H   0  0  0  0  0  0  0  0  0  0  0  0
  141.6753   68.8708  228.1537 H   0  0  0  0  0  0  0  0  0  0  0  0
  142.3566   70.5405  226.4746 H   0  0  0  0  0  0  0  0  0  0  0  0
  137.8874   68.3749  226.1522 H   0  0  0  0  0  0  0  0  0  0  0  0
  137.5395   69.5309  224.0547 H   0  0  0  0  0  0  0  0  0  0  0  0
  137.9889   71.2080  224.2770 H   0  0  0  0  0  0  0  0  0  0  0  0
  139.9101   69.1276  223.0067 H   0  0  0  0  0  0  0  0  0  0  0  0
  138.7853   70.0661  222.0073 H   0  0  0  0  0  0  0  0  0  0  0  0
  141.0865   71.0893  222.2806 H   0  0  0  0  0  0  0  0  0  0  0  0
  138.4850   72.5190  223.0860 H   0  0  0  0  0  0  0  0  0  0  0  0
  138.8770   77.3790  222.7420 H   0  0  0  0  0  0  0  0  0  0  0  0
  139.8092   77.9668  220.0343 H   0  0  0  0  0  0  0  0  0  0  0  0
  139.4711   79.1956  221.3183 H   0  0  0  0  0  0  0  0  0  0  0  0
  142.0455   77.5738  221.1749 H   0  0  0  0  0  0  0  0  0  0  0  0
  141.8562   79.1865  220.4294 H   0  0  0  0  0  0  0  0  0  0  0  0
  141.4309   78.4303  223.3396 H   0  0  0  0  0  0  0  0  0  0  0  0
  140.6530   80.7894  221.6196 H   0  0  0  0  0  0  0  0  0  0  0  0
  139.9691   80.3332  223.1716 H   0  0  0  0  0  0  0  0  0  0  0  0
  142.2632   82.1461  222.5710 H   0  0  0  0  0  0  0  0  0  0  0  0
  141.3653   82.0412  224.0700 H   0  0  0  0  0  0  0  0  0  0  0  0
  143.8625   81.1082  224.0222 H   0  0  0  0  0  0  0  0  0  0  0  0
  142.6872   80.0925  224.8170 H   0  0  0  0  0  0  0  0  0  0  0  0
  143.4190   80.1000  221.9310 H   0  0  0  0  0  0  0  0  0  0  0  0
  144.2435   75.7166  219.2169 H   0  0  0  0  0  0  0  0  0  0  0  0
  143.9121   75.7272  220.9914 H   0  0  0  0  0  0  0  0  0  0  0  0
  146.0945   74.5901  219.9047 H   0  0  0  0  0  0  0  0  0  0  0  0
  145.2668   73.9819  221.4108 H   0  0  0  0  0  0  0  0  0  0  0  0
  146.8511   72.1006  220.4352 H   0  0  0  0  0  0  0  0  0  0  0  0
  146.5684   69.8646  219.4144 H   0  0  0  0  0  0  0  0  0  0  0  0
  144.5543   69.2953  218.1039 H   0  0  0  0  0  0  0  0  0  0  0  0
  142.7755   71.0178  217.8086 H   0  0  0  0  0  0  0  0  0  0  0  0
  142.8988   74.0260  217.8086 H   0  0  0  0  0  0  0  0  0  0  0  0
  141.7653   72.9793  218.6670 H   0  0  0  0  0  0  0  0  0  0  0  0
  142.0376   71.3296  224.2314 H   0  0  0  0  0  0  0  0  0  0  0  0
  140.6489   72.3989  224.7523 H   0  0  0  0  0  0  0  0  0  0  0  0
  1  2  2  0
  2  3  1  0
  3  4  2  0
  4  5  1  0
  5  6  2  0
  5  7  1  0
  7  8  1  0
  8  9  1  0
  9 10  1  0
 10 11  1  0
 11 12  2  0
 12 13  1  0
 13 14  1  0
 14 15  1  0
 15 16  1  0
 16 17  1  0
 17 18  1  0
 18 19  1  0
 19 20  1  0
 20 21  1  0
 13 22  2  0
 22 23  1  0
 23 24  1  0
 24 25  1  0
 25 26  1  0
 26 27  1  0
 27 28  2  0
 28 29  1  0
 29 30  2  0
 30 31  1  0
 31 32  2  0
 32 33  1  0
 23 34  2  0
  9 35  1  0
  6  1  1  0
 34 11  1  0
 35  4  1  0
 21 17  1  0
 33 24  1  0
 32 27  1  0
  1 36  1  0
  2 37  1  0
  3 38  1  0
  6 39  1  0
  7 40  1  0
  7 41  1  0
  8 42  1  0
  8 43  1  0
  9 44  1  6
 10 45  1  0
 14 46  1  0
 15 47  1  0
 15 48  1  0
 16 49  1  0
 16 50  1  0
 17 51  1  1
 18 52  1  0
 18 53  1  0
 19 54  1  0
 19 55  1  0
 20 56  1  0
 20 57  1  0
 21 58  1  0
 25 59  1  0
 25 60  1  0
 26 61  1  0
 26 62  1  0
 28 63  1  0
 29 64  1  0
 30 65  1  0
 31 66  1  0
 33 67  1  0
 33 68  1  0
 35 69  1  0
 35 70  1  0
M  END
>  <smiles>  (73) 
c1ccc2c(c1)CCC(Nc1nc(NCCC3CCCN3)nc(N3CCc4ccccc4C3)n1)C2

>  <score_type>  (73) 
oracle

>  <origin>  (73) 
autodockgpu

>  <m_score__min__energy>  (73) 
-10.699999999999999

>  <m_primary>  (73) 
energy

>  <rmsd>  (73) 
11.779199373189543

>  <m_score__min__rmsd>  (73) 
11.779199373189543

>  <meeko>  (73) 
{"free_energy": -9.89, "intermolecular_energy": -11.98, "internal_energy": -1.13, "cluster_size": 4, "cluster_id": 4, "rank_in_cluster": 1}

>  <energy>  (73) 
-8.74

>  <cluster_rmsd>  (73) 
1.85

>  <cluster>  (73) 
2

$$$$

     RDKit          3D

 70 75  0  0  1  0  0  0  0  0999 V2000
  141.7250   81.0840  222.2910 C   0  0  0  0  0  0  0  0  0  0  0  0
  141.0180   80.6080  223.3950 C   0  0  0  0  0  0  0  0  0  0  0  0
  140.7060   79.2710  223.5290 C   0  0  0  0  0  0  0  0  0  0  0  0
  141.0910   78.3640  222.5650 C   0  0  0  0  0  0  0  0  0  0  0  0
  141.7960   78.8480  221.4690 C   0  0  0  0  0  0  0  0  0  0  0  0
  142.1170   80.1700  221.3130 C   0  0  0  0  0  0  0  0  0  0  0  0
  142.1840   77.8000  220.4550 C   0  0  0  0  0  0  0  0  0  0  0  0
  140.8670   77.0550  220.2090 C   0  0  0  0  0  0  0  0  0  0  0  0
  140.6380   76.1850  221.4270 C   0  0  1  0  0  0  0  0  0  0  0  0
  141.6920   75.1740  221.4280 N   0  0  0  0  0  0  0  0  0  0  0  0
  141.3690   73.7740  221.4320 C   0  0  0  0  0  0  0  0  0  0  0  0
  141.7680   72.9460  220.4490 N   0  0  0  0  0  0  0  0  0  0  0  0
  141.4590   71.6580  220.4700 C   0  0  0  0  0  0  0  0  0  0  0  0
  141.8870   70.7720  219.4150 N   0  0  0  0  0  0  0  0  0  0  0  0
  143.3140   70.6520  219.1830 C   0  0  0  0  0  0  0  0  0  0  0  0
  143.9060   71.9660  218.7170 C   0  0  0  0  0  0  0  0  0  0  0  0
  145.1160   72.2610  219.5590 C   0  0  2  0  0  0  0  0  0  0  0  0
  144.6480   72.8220  220.8860 C   0  0  0  0  0  0  0  0  0  0  0  0
  145.6150   73.9510  221.1610 C   0  0  0  0  0  0  0  0  0  0  0  0
  146.7070   73.7090  220.1640 C   0  0  0  0  0  0  0  0  0  0  0  0
  145.9500   73.2960  218.9720 N   0  0  0  0  0  0  0  0  0  0  0  0
  140.7330   71.1690  221.4950 N   0  0  0  0  0  0  0  0  0  0  0  0
  140.3160   71.9590  222.4950 C   0  0  0  0  0  0  0  0  0  0  0  0
  139.5540   71.4180  223.5590 N   0  0  0  0  0  0  0  0  0  0  0  0
  138.3060   70.7410  223.3290 C   0  0  0  0  0  0  0  0  0  0  0  0
  138.3790   69.3120  223.8140 C   0  0  0  0  0  0  0  0  0  0  0  0
  139.3700   69.1170  224.8900 C   0  0  0  0  0  0  0  0  0  0  0  0
  139.5360   67.8540  225.3940 C   0  0  0  0  0  0  0  0  0  0  0  0
  140.4590   67.6330  226.4060 C   0  0  0  0  0  0  0  0  0  0  0  0
  141.2240   68.6490  226.9290 C   0  0  0  0  0  0  0  0  0  0  0  0
  141.0630   69.9180  226.4300 C   0  0  0  0  0  0  0  0  0  0  0  0
  140.1430   70.1230  225.4240 C   0  0  0  0  0  0  0  0  0  0  0  0
  140.0200   71.5370  224.9230 C   0  0  0  0  0  0  0  0  0  0  0  0
  140.6430   73.2550  222.4440 N   0  0  0  0  0  0  0  0  0  0  0  0
  140.7490   76.9280  222.7260 C   0  0  0  0  0  0  0  0  0  0  0  0
  141.9672   82.1526  222.1941 H   0  0  0  0  0  0  0  0  0  0  0  0
  140.7021   81.3147  224.1765 H   0  0  0  0  0  0  0  0  0  0  0  0
  140.1462   78.9263  224.4110 H   0  0  0  0  0  0  0  0  0  0  0  0
  142.6767   80.5068  220.4280 H   0  0  0  0  0  0  0  0  0  0  0  0
  142.5549   78.2638  219.5291 H   0  0  0  0  0  0  0  0  0  0  0  0
  142.9963   77.1430  220.7993 H   0  0  0  0  0  0  0  0  0  0  0  0
  140.0404   77.7711  220.0914 H   0  0  0  0  0  0  0  0  0  0  0  0
  140.9137   76.4524  219.2899 H   0  0  0  0  0  0  0  0  0  0  0  0
  139.6181   75.7784  221.3603 H   0  0  0  0  0  0  0  0  0  0  0  0
  142.7100   75.4200  221.4280 H   0  0  0  0  0  0  0  0  0  0  0  0
  141.1670   70.2550  218.8620 H   0  0  0  0  0  0  0  0  0  0  0  0
  143.8054   70.3491  220.1194 H   0  0  0  0  0  0  0  0  0  0  0  0
  143.4770   69.8989  218.3980 H   0  0  0  0  0  0  0  0  0  0  0  0
  144.1983   71.8885  217.6594 H   0  0  0  0  0  0  0  0  0  0  0  0
  143.1661   72.7735  218.8190 H   0  0  0  0  0  0  0  0  0  0  0  0
  145.6861   71.3249  219.6520 H   0  0  0  0  0  0  0  0  0  0  0  0
  143.6172   73.1985  220.8107 H   0  0  0  0  0  0  0  0  0  0  0  0
  144.6359   72.0676  221.6864 H   0  0  0  0  0  0  0  0  0  0  0  0
  145.1386   74.9287  220.9962 H   0  0  0  0  0  0  0  0  0  0  0  0
  145.9736   73.9713  222.2007 H   0  0  0  0  0  0  0  0  0  0  0  0
  147.2836   74.6261  219.9729 H   0  0  0  0  0  0  0  0  0  0  0  0
  147.4515   72.9694  220.4938 H   0  0  0  0  0  0  0  0  0  0  0  0
  145.3510   74.1050  218.7140 H   0  0  0  0  0  0  0  0  0  0  0  0
  137.5049   71.2659  223.8700 H   0  0  0  0  0  0  0  0  0  0  0  0
  138.0976   70.7387  222.2489 H   0  0  0  0  0  0  0  0  0  0  0  0
  137.3885   69.0196  224.1928 H   0  0  0  0  0  0  0  0  0  0  0  0
  138.6930   68.6914  222.9618 H   0  0  0  0  0  0  0  0  0  0  0  0
  138.9400   67.0186  224.9980 H   0  0  0  0  0  0  0  0  0  0  0  0
  140.5826   66.6142  226.8020 H   0  0  0  0  0  0  0  0  0  0  0  0
  141.9501   68.4492  227.7308 H   0  0  0  0  0  0  0  0  0  0  0  0
  141.6569   70.7552  226.8255 H   0  0  0  0  0  0  0  0  0  0  0  0
  139.2956   72.0995  225.5302 H   0  0  0  0  0  0  0  0  0  0  0  0
  140.9751   72.0791  224.9848 H   0  0  0  0  0  0  0  0  0  0  0  0
  139.7844   76.8574  223.2500 H   0  0  0  0  0  0  0  0  0  0  0  0
  141.5695   76.4637  223.2928 H   0  0  0  0  0  0  0  0  0  0  0  0
  1  2  2  0
  2  3  1  0
  3  4  2  0
  4  5  1  0
  5  6  2  0
  5  7  1  0
  7  8  1  0
  8  9  1  0
  9 10  1  0
 10 11  1  0
 11 12  2  0
 12 13  1  0
 13 14  1  0
 14 15  1  0
 15 16  1  0
 16 17  1  0
 17 18  1  0
 18 19  1  0
 19 20  1  0
 20 21  1  0
 13 22  2  0
 22 23  1  0
 23 24  1  0
 24 25  1  0
 25 26  1  0
 26 27  1  0
 27 28  2  0
 28 29  1  0
 29 30  2  0
 30 31  1  0
 31 32  2  0
 32 33  1  0
 23 34  2  0
  9 35  1  0
  6  1  1  0
 34 11  1  0
 35  4  1  0
 21 17  1  0
 33 24  1  0
 32 27  1  0
  1 36  1  0
  2 37  1  0
  3 38  1  0
  6 39  1  0
  7 40  1  0
  7 41  1  0
  8 42  1  0
  8 43  1  0
  9 44  1  6
 10 45  1  0
 14 46  1  0
 15 47  1  0
 15 48  1  0
 16 49  1  0
 16 50  1  0
 17 51  1  1
 18 52  1  0
 18 53  1  0
 19 54  1  0
 19 55  1  0
 20 56  1  0
 20 57  1  0
 21 58  1  0
 25 59  1  0
 25 60  1  0
 26 61  1  0
 26 62  1  0
 28 63  1  0
 29 64  1  0
 30 65  1  0
 31 66  1  0
 33 67  1  0
 33 68  1  0
 35 69  1  0
 35 70  1  0
M  END
>  <smiles>  (74) 
c1ccc2c(c1)CCC(Nc1nc(NCCC3CCCN3)nc(N3CCc4ccccc4C3)n1)C2

>  <score_type>  (74) 
oracle

>  <origin>  (74) 
autodockgpu

>  <m_score__min__energy>  (74) 
-10.699999999999999

>  <m_primary>  (74) 
energy

>  <rmsd>  (74) 
3.787120489937618

>  <m_score__min__rmsd>  (74) 
3.787120489937618

>  <meeko>  (74) 
{"free_energy": -10.67, "intermolecular_energy": -12.76, "internal_energy": -1.32, "cluster_size": 19, "cluster_id": 1, "rank_in_cluster": 2}

>  <energy>  (74) 
-8.73

>  <cluster_rmsd>  (74) 
1.86

>  <cluster>  (74) 
2

$$$$

     RDKit          3D

 70 75  0  0  1  0  0  0  0  0999 V2000
  132.8460   77.4030  227.5580 C   0  0  0  0  0  0  0  0  0  0  0  0
  131.8030   76.7050  228.1660 C   0  0  0  0  0  0  0  0  0  0  0  0
  131.6220   75.3530  227.9550 C   0  0  0  0  0  0  0  0  0  0  0  0
  132.4770   74.6550  227.1300 C   0  0  0  0  0  0  0  0  0  0  0  0
  133.5130   75.3600  226.5290 C   0  0  0  0  0  0  0  0  0  0  0  0
  133.7130   76.7000  226.7230 C   0  0  0  0  0  0  0  0  0  0  0  0
  134.4070   74.5310  225.6400 C   0  0  0  0  0  0  0  0  0  0  0  0
  133.4090   73.7880  224.7440 C   0  0  0  0  0  0  0  0  0  0  0  0
  132.7960   72.7020  225.6020 C   0  0  1  0  0  0  0  0  0  0  0  0
  133.8630   71.7540  225.9090 N   0  0  0  0  0  0  0  0  0  0  0  0
  134.5260   71.0270  224.8620 C   0  0  0  0  0  0  0  0  0  0  0  0
  133.8770   70.6050  223.7610 N   0  0  0  0  0  0  0  0  0  0  0  0
  134.5070   69.9370  222.8080 C   0  0  0  0  0  0  0  0  0  0  0  0
  133.8090   69.4850  221.6290 N   0  0  0  0  0  0  0  0  0  0  0  0
  133.2650   68.1410  221.6500 C   0  0  0  0  0  0  0  0  0  0  0  0
  134.1410   67.2080  222.4590 C   0  0  0  0  0  0  0  0  0  0  0  0
  133.5500   67.0860  223.8370 C   0  0  2  0  0  0  0  0  0  0  0  0
  132.2160   67.8040  223.8480 C   0  0  0  0  0  0  0  0  0  0  0  0
  132.2120   68.5370  225.1700 C   0  0  0  0  0  0  0  0  0  0  0  0
  133.3590   67.9110  225.9050 C   0  0  0  0  0  0  0  0  0  0  0  0
  134.3610   67.7580  224.8380 N   0  0  0  0  0  0  0  0  0  0  0  0
  135.8230   69.6730  222.9430 N   0  0  0  0  0  0  0  0  0  0  0  0
  136.5070   70.0760  224.0230 C   0  0  0  0  0  0  0  0  0  0  0  0
  137.8880   69.7850  224.1390 N   0  0  0  0  0  0  0  0  0  0  0  0
  138.8590   70.3400  223.2340 C   0  0  0  0  0  0  0  0  0  0  0  0
  139.8660   71.1800  223.9840 C   0  0  0  0  0  0  0  0  0  0  0  0
  140.0210   70.7740  225.3940 C   0  0  0  0  0  0  0  0  0  0  0  0
  140.8950   71.4800  226.1770 C   0  0  0  0  0  0  0  0  0  0  0  0
  141.0660   71.1270  227.5090 C   0  0  0  0  0  0  0  0  0  0  0  0
  140.3800   70.0800  228.0790 C   0  0  0  0  0  0  0  0  0  0  0  0
  139.5020   69.3670  227.3000 C   0  0  0  0  0  0  0  0  0  0  0  0
  139.3410   69.7290  225.9800 C   0  0  0  0  0  0  0  0  0  0  0  0
  138.3630   68.9060  225.1860 C   0  0  0  0  0  0  0  0  0  0  0  0
  135.8430   70.7480  224.9690 N   0  0  0  0  0  0  0  0  0  0  0  0
  132.2680   73.2000  226.9160 C   0  0  0  0  0  0  0  0  0  0  0  0
  132.9811   78.4806  227.7328 H   0  0  0  0  0  0  0  0  0  0  0  0
  131.1093   77.2437  228.8283 H   0  0  0  0  0  0  0  0  0  0  0  0
  130.7900   74.8294  228.4485 H   0  0  0  0  0  0  0  0  0  0  0  0
  134.5478   77.2159  226.2261 H   0  0  0  0  0  0  0  0  0  0  0  0
  135.0740   75.1706  225.0433 H   0  0  0  0  0  0  0  0  0  0  0  0
  135.0713   73.8570  226.2007 H   0  0  0  0  0  0  0  0  0  0  0  0
  132.6296   74.4778  224.3880 H   0  0  0  0  0  0  0  0  0  0  0  0
  133.9046   73.3656  223.8574 H   0  0  0  0  0  0  0  0  0  0  0  0
  131.9518   72.2715  225.0434 H   0  0  0  0  0  0  0  0  0  0  0  0
  134.1850   71.5640  226.8870 H   0  0  0  0  0  0  0  0  0  0  0  0
  133.7210   70.1310  220.8120 H   0  0  0  0  0  0  0  0  0  0  0  0
  132.2603   68.1676  222.0971 H   0  0  0  0  0  0  0  0  0  0  0  0
  133.2199   67.7674  220.6164 H   0  0  0  0  0  0  0  0  0  0  0  0
  134.1743   66.2188  221.9791 H   0  0  0  0  0  0  0  0  0  0  0  0
  135.1654   67.6044  222.5184 H   0  0  0  0  0  0  0  0  0  0  0  0
  133.4757   66.0133  224.0688 H   0  0  0  0  0  0  0  0  0  0  0  0
  132.1443   68.5105  223.0080 H   0  0  0  0  0  0  0  0  0  0  0  0
  131.3629   67.1182  223.7392 H   0  0  0  0  0  0  0  0  0  0  0  0
  132.3762   69.6150  225.0251 H   0  0  0  0  0  0  0  0  0  0  0  0
  131.2560   68.4562  225.7080 H   0  0  0  0  0  0  0  0  0  0  0  0
  133.7263   68.5686  226.7066 H   0  0  0  0  0  0  0  0  0  0  0  0
  133.1005   66.9678  226.4085 H   0  0  0  0  0  0  0  0  0  0  0  0
  134.5800   68.7180  224.5070 H   0  0  0  0  0  0  0  0  0  0  0  0
  139.3830   69.5211  222.7194 H   0  0  0  0  0  0  0  0  0  0  0  0
  138.3392   70.9775  222.5037 H   0  0  0  0  0  0  0  0  0  0  0  0
  140.8412   71.0877  223.4836 H   0  0  0  0  0  0  0  0  0  0  0  0
  139.4978   72.2165  223.9791 H   0  0  0  0  0  0  0  0  0  0  0  0
  141.4593   72.3234  225.7524 H   0  0  0  0  0  0  0  0  0  0  0  0
  141.7713   71.7020  228.1269 H   0  0  0  0  0  0  0  0  0  0  0  0
  140.5315   69.8191  229.1368 H   0  0  0  0  0  0  0  0  0  0  0  0
  138.9375   68.5224  227.7219 H   0  0  0  0  0  0  0  0  0  0  0  0
  138.8614   68.0257  224.7538 H   0  0  0  0  0  0  0  0  0  0  0  0
  137.5399   68.5299  225.8114 H   0  0  0  0  0  0  0  0  0  0  0  0
  131.1882   72.9944  226.9569 H   0  0  0  0  0  0  0  0  0  0  0  0
  132.8250   72.6753  227.7062 H   0  0  0  0  0  0  0  0  0  0  0  0
  1  2  2  0
  2  3  1  0
  3  4  2  0
  4  5  1  0
  5  6  2  0
  5  7  1  0
  7  8  1  0
  8  9  1  0
  9 10  1  0
 10 11  1  0
 11 12  2  0
 12 13  1  0
 13 14  1  0
 14 15  1  0
 15 16  1  0
 16 17  1  0
 17 18  1  0
 18 19  1  0
 19 20  1  0
 20 21  1  0
 13 22  2  0
 22 23  1  0
 23 24  1  0
 24 25  1  0
 25 26  1  0
 26 27  1  0
 27 28  2  0
 28 29  1  0
 29 30  2  0
 30 31  1  0
 31 32  2  0
 32 33  1  0
 23 34  2  0
  9 35  1  0
  6  1  1  0
 34 11  1  0
 35  4  1  0
 21 17  1  0
 33 24  1  0
 32 27  1  0
  1 36  1  0
  2 37  1  0
  3 38  1  0
  6 39  1  0
  7 40  1  0
  7 41  1  0
  8 42  1  0
  8 43  1  0
  9 44  1  6
 10 45  1  0
 14 46  1  0
 15 47  1  0
 15 48  1  0
 16 49  1  0
 16 50  1  0
 17 51  1  1
 18 52  1  0
 18 53  1  0
 19 54  1  0
 19 55  1  0
 20 56  1  0
 20 57  1  0
 21 58  1  0
 25 59  1  0
 25 60  1  0
 26 61  1  0
 26 62  1  0
 28 63  1  0
 29 64  1  0
 30 65  1  0
 31 66  1  0
 33 67  1  0
 33 68  1  0
 35 69  1  0
 35 70  1  0
M  END
>  <smiles>  (75) 
c1ccc2c(c1)CCC(Nc1nc(NCCC3CCCN3)nc(N3CCc4ccccc4C3)n1)C2

>  <score_type>  (75) 
oracle

>  <origin>  (75) 
autodockgpu

>  <m_score__min__energy>  (75) 
-10.699999999999999

>  <m_primary>  (75) 
energy

>  <rmsd>  (75) 
11.287483907113817

>  <m_score__min__rmsd>  (75) 
11.287483907113817

>  <meeko>  (75) 
{"free_energy": -7.41, "intermolecular_energy": -9.5, "internal_energy": -3.21, "cluster_size": 2, "cluster_id": 8, "rank_in_cluster": 1}

>  <energy>  (75) 
-8.68

>  <cluster_rmsd>  (75) 
1.82

>  <cluster>  (75) 
2

$$$$

     RDKit          3D

 70 75  0  0  1  0  0  0  0  0999 V2000
  140.5560   81.2290  221.3740 C   0  0  0  0  0  0  0  0  0  0  0  0
  141.4340   80.9610  220.3240 C   0  0  0  0  0  0  0  0  0  0  0  0
  141.7570   79.6680  219.9690 C   0  0  0  0  0  0  0  0  0  0  0  0
  141.2140   78.5990  220.6500 C   0  0  0  0  0  0  0  0  0  0  0  0
  140.3410   78.8780  221.6950 C   0  0  0  0  0  0  0  0  0  0  0  0
  140.0040   80.1520  222.0660 C   0  0  0  0  0  0  0  0  0  0  0  0
  139.7860   77.6610  222.3950 C   0  0  0  0  0  0  0  0  0  0  0  0
  141.0410   76.8320  222.6900 C   0  0  0  0  0  0  0  0  0  0  0  0
  141.4650   76.2200  221.3720 C   0  0  1  0  0  0  0  0  0  0  0  0
  140.4220   75.2710  220.9930 N   0  0  0  0  0  0  0  0  0  0  0  0
  140.5530   73.8720  221.2950 C   0  0  0  0  0  0  0  0  0  0  0  0
  141.2090   73.0230  220.4830 N   0  0  0  0  0  0  0  0  0  0  0  0
  141.3180   71.7370  220.7800 C   0  0  0  0  0  0  0  0  0  0  0  0
  142.0210   70.8290  219.9080 N   0  0  0  0  0  0  0  0  0  0  0  0
  143.4600   70.7300  220.0680 C   0  0  0  0  0  0  0  0  0  0  0  0
  144.1820   71.1700  218.8120 C   0  0  0  0  0  0  0  0  0  0  0  0
  144.6120   72.5990  218.9940 C   0  0  2  0  0  0  0  0  0  0  0  0
  145.0520   72.7850  220.4310 C   0  0  0  0  0  0  0  0  0  0  0  0
  144.4690   74.1250  220.8170 C   0  0  0  0  0  0  0  0  0  0  0  0
  144.0570   74.7040  219.4970 C   0  0  0  0  0  0  0  0  0  0  0  0
  143.5120   73.5280  218.8010 N   0  0  0  0  0  0  0  0  0  0  0  0
  140.7600   71.2710  221.9150 N   0  0  0  0  0  0  0  0  0  0  0  0
  140.0980   72.0830  222.7520 C   0  0  0  0  0  0  0  0  0  0  0  0
  139.5220   71.5650  223.9380 N   0  0  0  0  0  0  0  0  0  0  0  0
  138.1560   71.1200  223.9860 C   0  0  0  0  0  0  0  0  0  0  0  0
  138.0850   69.6550  224.3520 C   0  0  0  0  0  0  0  0  0  0  0  0
  139.2490   69.2000  225.1370 C   0  0  0  0  0  0  0  0  0  0  0  0
  139.3020   67.8830  225.5080 C   0  0  0  0  0  0  0  0  0  0  0  0
  140.3820   67.4190  226.2460 C   0  0  0  0  0  0  0  0  0  0  0  0
  141.4160   68.2440  226.6220 C   0  0  0  0  0  0  0  0  0  0  0  0
  141.3700   69.5660  226.2530 C   0  0  0  0  0  0  0  0  0  0  0  0
  140.2920   70.0130  225.5200 C   0  0  0  0  0  0  0  0  0  0  0  0
  140.3080   71.4720  225.1500 C   0  0  0  0  0  0  0  0  0  0  0  0
  140.0050   73.3750  222.4250 N   0  0  0  0  0  0  0  0  0  0  0  0
  141.5720   77.2140  220.2530 C   0  0  0  0  0  0  0  0  0  0  0  0
  140.3054   82.2641  221.6492 H   0  0  0  0  0  0  0  0  0  0  0  0
  141.8785   81.7990  219.7670 H   0  0  0  0  0  0  0  0  0  0  0  0
  142.4530   79.4882  219.1364 H   0  0  0  0  0  0  0  0  0  0  0  0
  139.3067   80.3236  222.8993 H   0  0  0  0  0  0  0  0  0  0  0  0
  139.2692   77.9409  223.3249 H   0  0  0  0  0  0  0  0  0  0  0  0
  139.0389   77.1192  221.7965 H   0  0  0  0  0  0  0  0  0  0  0  0
  141.8396   77.4772  223.0848 H   0  0  0  0  0  0  0  0  0  0  0  0
  140.8403   76.0572  223.4446 H   0  0  0  0  0  0  0  0  0  0  0  0
  142.4588   75.7713  221.5169 H   0  0  0  0  0  0  0  0  0  0  0  0
  139.5480   75.5610  220.4930 H   0  0  0  0  0  0  0  0  0  0  0  0
  141.4800   70.2810  219.2010 H   0  0  0  0  0  0  0  0  0  0  0  0
  143.7729   71.3714  220.9051 H   0  0  0  0  0  0  0  0  0  0  0  0
  143.7169   69.6792  220.2675 H   0  0  0  0  0  0  0  0  0  0  0  0
  145.0641   70.5338  218.6472 H   0  0  0  0  0  0  0  0  0  0  0  0
  143.5169   71.0812  217.9403 H   0  0  0  0  0  0  0  0  0  0  0  0
  145.4069   72.7978  218.2600 H   0  0  0  0  0  0  0  0  0  0  0  0
  144.6510   71.9846  221.0702 H   0  0  0  0  0  0  0  0  0  0  0  0
  146.1450   72.7471  220.5491 H   0  0  0  0  0  0  0  0  0  0  0  0
  143.6023   74.0024  221.4831 H   0  0  0  0  0  0  0  0  0  0  0  0
  145.1746   74.7627  221.3697 H   0  0  0  0  0  0  0  0  0  0  0  0
  143.2910   75.4831  219.6244 H   0  0  0  0  0  0  0  0  0  0  0  0
  144.8770   75.1982  218.9553 H   0  0  0  0  0  0  0  0  0  0  0  0
  142.6990   73.2100  219.3640 H   0  0  0  0  0  0  0  0  0  0  0  0
  137.6109   71.7075  224.7395 H   0  0  0  0  0  0  0  0  0  0  0  0
  137.7031   71.2594  222.9933 H   0  0  0  0  0  0  0  0  0  0  0  0
  137.1742   69.4856  224.9451 H   0  0  0  0  0  0  0  0  0  0  0  0
  138.0763   69.0813  223.4135 H   0  0  0  0  0  0  0  0  0  0  0  0
  138.4921   67.1957  225.2223 H   0  0  0  0  0  0  0  0  0  0  0  0
  140.4118   66.3592  226.5391 H   0  0  0  0  0  0  0  0  0  0  0  0
  142.2622   67.8532  227.2061 H   0  0  0  0  0  0  0  0  0  0  0  0
  142.1787   70.2554  226.5373 H   0  0  0  0  0  0  0  0  0  0  0  0
  139.8568   72.0777  225.9497 H   0  0  0  0  0  0  0  0  0  0  0  0
  141.3315   71.8484  225.0060 H   0  0  0  0  0  0  0  0  0  0  0  0
  142.6093   77.2146  219.8868 H   0  0  0  0  0  0  0  0  0  0  0  0
  140.8543   76.9054  219.4786 H   0  0  0  0  0  0  0  0  0  0  0  0
  1  2  2  0
  2  3  1  0
  3  4  2  0
  4  5  1  0
  5  6  2  0
  5  7  1  0
  7  8  1  0
  8  9  1  0
  9 10  1  0
 10 11  1  0
 11 12  2  0
 12 13  1  0
 13 14  1  0
 14 15  1  0
 15 16  1  0
 16 17  1  0
 17 18  1  0
 18 19  1  0
 19 20  1  0
 20 21  1  0
 13 22  2  0
 22 23  1  0
 23 24  1  0
 24 25  1  0
 25 26  1  0
 26 27  1  0
 27 28  2  0
 28 29  1  0
 29 30  2  0
 30 31  1  0
 31 32  2  0
 32 33  1  0
 23 34  2  0
  9 35  1  0
  6  1  1  0
 34 11  1  0
 35  4  1  0
 21 17  1  0
 33 24  1  0
 32 27  1  0
  1 36  1  0
  2 37  1  0
  3 38  1  0
  6 39  1  0
  7 40  1  0
  7 41  1  0
  8 42  1  0
  8 43  1  0
  9 44  1  1
 10 45  1  0
 14 46  1  0
 15 47  1  0
 15 48  1  0
 16 49  1  0
 16 50  1  0
 17 51  1  6
 18 52  1  0
 18 53  1  0
 19 54  1  0
 19 55  1  0
 20 56  1  0
 20 57  1  0
 21 58  1  0
 25 59  1  0
 25 60  1  0
 26 61  1  0
 26 62  1  0
 28 63  1  0
 29 64  1  0
 30 65  1  0
 31 66  1  0
 33 67  1  0
 33 68  1  0
 35 69  1  0
 35 70  1  0
M  END
>  <smiles>  (76) 
c1ccc2c(c1)CCC(Nc1nc(NCCC3CCCN3)nc(N3CCc4ccccc4C3)n1)C2

>  <score_type>  (76) 
oracle

>  <origin>  (76) 
autodockgpu

>  <m_score__min__energy>  (76) 
-10.699999999999999

>  <m_primary>  (76) 
energy

>  <rmsd>  (76) 
3.7100474356375863

>  <m_score__min__rmsd>  (76) 
3.7100474356375863

>  <meeko>  (76) 
{"free_energy": -8.14, "intermolecular_energy": -10.23, "internal_energy": -2.39, "cluster_size": 19, "cluster_id": 1, "rank_in_cluster": 18}

>  <energy>  (76) 
-8.32

>  <cluster_rmsd>  (76) 
1.56

>  <cluster>  (76) 
2

$$$$

     RDKit          3D

 70 75  0  0  1  0  0  0  0  0999 V2000
  139.6610   69.2460  227.4540 C   0  0  0  0  0  0  0  0  0  0  0  0
  140.8260   70.0130  227.4680 C   0  0  0  0  0  0  0  0  0  0  0  0
  141.1960   70.7800  226.3830 C   0  0  0  0  0  0  0  0  0  0  0  0
  140.4160   70.8060  225.2470 C   0  0  0  0  0  0  0  0  0  0  0  0
  139.2570   70.0380  225.2430 C   0  0  0  0  0  0  0  0  0  0  0  0
  138.8680   69.2700  226.3070 C   0  0  0  0  0  0  0  0  0  0  0  0
  138.4540   70.1150  223.9680 C   0  0  0  0  0  0  0  0  0  0  0  0
  139.5060   69.8610  222.8820 C   0  0  0  0  0  0  0  0  0  0  0  0
  140.3170   71.1350  222.7710 C   0  0  1  0  0  0  0  0  0  0  0  0
  139.4210   72.1620  222.2480 N   0  0  0  0  0  0  0  0  0  0  0  0
  139.9010   73.4890  221.9740 C   0  0  0  0  0  0  0  0  0  0  0  0
  139.2130   74.5870  222.3360 N   0  0  0  0  0  0  0  0  0  0  0  0
  139.6720   75.8010  222.0740 C   0  0  0  0  0  0  0  0  0  0  0  0
  138.9330   76.9770  222.4630 N   0  0  0  0  0  0  0  0  0  0  0  0
  138.6410   77.9530  221.4310 C   0  0  0  0  0  0  0  0  0  0  0  0
  139.8930   78.6890  221.0020 C   0  0  0  0  0  0  0  0  0  0  0  0
  140.5620   79.2350  222.2330 C   0  0  2  0  0  0  0  0  0  0  0  0
  141.6470   80.1980  221.7980 C   0  0  0  0  0  0  0  0  0  0  0  0
  142.8020   79.8810  222.7200 C   0  0  0  0  0  0  0  0  0  0  0  0
  142.1640   79.0310  223.7780 C   0  0  0  0  0  0  0  0  0  0  0  0
  141.2430   78.1980  222.9890 N   0  0  0  0  0  0  0  0  0  0  0  0
  140.8490   75.9380  221.4310 N   0  0  0  0  0  0  0  0  0  0  0  0
  141.5670   74.8700  221.0540 C   0  0  0  0  0  0  0  0  0  0  0  0
  142.8000   75.0440  220.3800 N   0  0  0  0  0  0  0  0  0  0  0  0
  143.7510   73.9730  220.2490 C   0  0  0  0  0  0  0  0  0  0  0  0
  143.9990   73.6570  218.7920 C   0  0  0  0  0  0  0  0  0  0  0  0
  143.7520   74.8080  217.9020 C   0  0  0  0  0  0  0  0  0  0  0  0
  143.9270   74.6320  216.5550 C   0  0  0  0  0  0  0  0  0  0  0  0
  143.7030   75.6910  215.6870 C   0  0  0  0  0  0  0  0  0  0  0  0
  143.3060   76.9290  216.1360 C   0  0  0  0  0  0  0  0  0  0  0  0
  143.1280   77.1140  217.4850 C   0  0  0  0  0  0  0  0  0  0  0  0
  143.3540   76.0530  218.3350 C   0  0  0  0  0  0  0  0  0  0  0  0
  143.1390   76.3260  219.8000 C   0  0  0  0  0  0  0  0  0  0  0  0
  141.0760   73.6580  221.3320 N   0  0  0  0  0  0  0  0  0  0  0  0
  140.8290   71.6390  224.0890 C   0  0  0  0  0  0  0  0  0  0  0  0
  139.3752   68.6380  228.3250 H   0  0  0  0  0  0  0  0  0  0  0  0
  141.4638   70.0060  228.3642 H   0  0  0  0  0  0  0  0  0  0  0  0
  142.1201   71.3752  226.4246 H   0  0  0  0  0  0  0  0  0  0  0  0
  137.9415   68.6791  226.2581 H   0  0  0  0  0  0  0  0  0  0  0  0
  137.6701   69.3435  223.9473 H   0  0  0  0  0  0  0  0  0  0  0  0
  137.9265   71.0724  223.8451 H   0  0  0  0  0  0  0  0  0  0  0  0
  140.1546   69.0202  223.1690 H   0  0  0  0  0  0  0  0  0  0  0  0
  139.0357   69.6011  221.9222 H   0  0  0  0  0  0  0  0  0  0  0  0
  141.1871   70.9219  222.1326 H   0  0  0  0  0  0  0  0  0  0  0  0
  138.4070   71.9820  222.0520 H   0  0  0  0  0  0  0  0  0  0  0  0
  138.6380   77.0850  223.4600 H   0  0  0  0  0  0  0  0  0  0  0  0
  138.2124   77.4363  220.5596 H   0  0  0  0  0  0  0  0  0  0  0  0
  137.9284   78.6860  221.8370 H   0  0  0  0  0  0  0  0  0  0  0  0
  140.5732   77.9965  220.4846 H   0  0  0  0  0  0  0  0  0  0  0  0
  139.6355   79.5081  220.3144 H   0  0  0  0  0  0  0  0  0  0  0  0
  139.7804   79.7007  222.8512 H   0  0  0  0  0  0  0  0  0  0  0  0
  141.9254   80.0261  220.7478 H   0  0  0  0  0  0  0  0  0  0  0  0
  141.3311   81.2499  221.8584 H   0  0  0  0  0  0  0  0  0  0  0  0
  143.5908   79.3270  222.1899 H   0  0  0  0  0  0  0  0  0  0  0  0
  143.2946   80.7783  223.1228 H   0  0  0  0  0  0  0  0  0  0  0  0
  142.9113   78.4155  224.3003 H   0  0  0  0  0  0  0  0  0  0  0  0
  141.6685   79.6094  224.5717 H   0  0  0  0  0  0  0  0  0  0  0  0
  141.8370   77.6430  222.3420 H   0  0  0  0  0  0  0  0  0  0  0  0
  144.6989   74.2715  220.7206 H   0  0  0  0  0  0  0  0  0  0  0  0
  143.3462   73.0770  220.7423 H   0  0  0  0  0  0  0  0  0  0  0  0
  145.0464   73.3419  218.6750 H   0  0  0  0  0  0  0  0  0  0  0  0
  143.2961   72.8615  218.5037 H   0  0  0  0  0  0  0  0  0  0  0  0
  144.2440   73.6545  216.1627 H   0  0  0  0  0  0  0  0  0  0  0  0
  143.8472   75.5359  214.6076 H   0  0  0  0  0  0  0  0  0  0  0  0
  143.1346   77.7540  215.4289 H   0  0  0  0  0  0  0  0  0  0  0  0
  142.8110   78.0906  217.8797 H   0  0  0  0  0  0  0  0  0  0  0  0
  144.0567   76.7252  220.2566 H   0  0  0  0  0  0  0  0  0  0  0  0
  142.3499   77.0740  219.9670 H   0  0  0  0  0  0  0  0  0  0  0  0
  141.9281   71.6592  224.0500 H   0  0  0  0  0  0  0  0  0  0  0  0
  140.3964   72.6388  224.2412 H   0  0  0  0  0  0  0  0  0  0  0  0
  1  2  2  0
  2  3  1  0
  3  4  2  0
  4  5  1  0
  5  6  2  0
  5  7  1  0
  7  8  1  0
  8  9  1  0
  9 10  1  0
 10 11  1  0
 11 12  2  0
 12 13  1  0
 13 14  1  0
 14 15  1  0
 15 16  1  0
 16 17  1  0
 17 18  1  0
 18 19  1  0
 19 20  1  0
 20 21  1  0
 13 22  2  0
 22 23  1  0
 23 24  1  0
 24 25  1  0
 25 26  1  0
 26 27  1  0
 27 28  2  0
 28 29  1  0
 29 30  2  0
 30 31  1  0
 31 32  2  0
 32 33  1  0
 23 34  2  0
  9 35  1  0
  6  1  1  0
 34 11  1  0
 35  4  1  0
 21 17  1  0
 33 24  1  0
 32 27  1  0
  1 36  1  0
  2 37  1  0
  3 38  1  0
  6 39  1  0
  7 40  1  0
  7 41  1  0
  8 42  1  0
  8 43  1  0
  9 44  1  6
 10 45  1  0
 14 46  1  0
 15 47  1  0
 15 48  1  0
 16 49  1  0
 16 50  1  0
 17 51  1  1
 18 52  1  0
 18 53  1  0
 19 54  1  0
 19 55  1  0
 20 56  1  0
 20 57  1  0
 21 58  1  0
 25 59  1  0
 25 60  1  0
 26 61  1  0
 26 62  1  0
 28 63  1  0
 29 64  1  0
 30 65  1  0
 31 66  1  0
 33 67  1  0
 33 68  1  0
 35 69  1  0
 35 70  1  0
M  END
>  <smiles>  (77) 
c1ccc2c(c1)CCC(Nc1nc(NCCC3CCCN3)nc(N3CCc4ccccc4C3)n1)C2

>  <score_type>  (77) 
oracle

>  <origin>  (77) 
autodockgpu

>  <m_score__min__energy>  (77) 
-10.699999999999999

>  <m_primary>  (77) 
energy

>  <rmsd>  (77) 
11.506707913594608

>  <m_score__min__rmsd>  (77) 
11.506707913594608

>  <meeko>  (77) 
{"free_energy": -8.84, "intermolecular_energy": -10.93, "internal_energy": -2.07, "cluster_size": 4, "cluster_id": 4, "rank_in_cluster": 4}

>  <energy>  (77) 
-8.18

>  <cluster_rmsd>  (77) 
1.71

>  <cluster>  (77) 
2

$$$$

     RDKit          3D

 70 75  0  0  1  0  0  0  0  0999 V2000
  141.8220   81.0600  222.1200 C   0  0  0  0  0  0  0  0  0  0  0  0
  141.0970   80.6620  223.2420 C   0  0  0  0  0  0  0  0  0  0  0  0
  140.7350   79.3440  223.4350 C   0  0  0  0  0  0  0  0  0  0  0  0
  141.0860   78.3810  222.5130 C   0  0  0  0  0  0  0  0  0  0  0  0
  141.8090   78.7890  221.3980 C   0  0  0  0  0  0  0  0  0  0  0  0
  142.1810   80.0900  221.1850 C   0  0  0  0  0  0  0  0  0  0  0  0
  142.1580   77.6830  220.4320 C   0  0  0  0  0  0  0  0  0  0  0  0
  140.8140   76.9780  220.2170 C   0  0  0  0  0  0  0  0  0  0  0  0
  140.5500   76.1730  221.4720 C   0  0  1  0  0  0  0  0  0  0  0  0
  141.5650   75.1240  221.5210 N   0  0  0  0  0  0  0  0  0  0  0  0
  141.1910   73.7370  221.5320 C   0  0  0  0  0  0  0  0  0  0  0  0
  141.4760   72.9100  220.5090 N   0  0  0  0  0  0  0  0  0  0  0  0
  141.1210   71.6350  220.5400 C   0  0  0  0  0  0  0  0  0  0  0  0
  141.4280   70.7500  219.4420 N   0  0  0  0  0  0  0  0  0  0  0  0
  142.7660   70.1920  219.3890 C   0  0  0  0  0  0  0  0  0  0  0  0
  143.6610   70.8150  220.4390 C   0  0  0  0  0  0  0  0  0  0  0  0
  144.4350   71.9310  219.7940 C   0  0  2  0  0  0  0  0  0  0  0  0
  144.7290   72.9790  220.8480 C   0  0  0  0  0  0  0  0  0  0  0  0
  144.4850   74.2880  220.1330 C   0  0  0  0  0  0  0  0  0  0  0  0
  144.4110   73.8760  218.6940 C   0  0  0  0  0  0  0  0  0  0  0  0
  143.6590   72.6140  218.7730 N   0  0  0  0  0  0  0  0  0  0  0  0
  140.4620   71.1560  221.6140 N   0  0  0  0  0  0  0  0  0  0  0  0
  140.1590   71.9460  222.6540 C   0  0  0  0  0  0  0  0  0  0  0  0
  139.4650   71.4160  223.7700 N   0  0  0  0  0  0  0  0  0  0  0  0
  138.1390   70.8720  223.6500 C   0  0  0  0  0  0  0  0  0  0  0  0
  138.1230   69.4160  224.0540 C   0  0  0  0  0  0  0  0  0  0  0  0
  139.1980   69.0690  225.0030 C   0  0  0  0  0  0  0  0  0  0  0  0
  139.2920   67.7690  225.4240 C   0  0  0  0  0  0  0  0  0  0  0  0
  140.2920   67.4050  226.3150 C   0  0  0  0  0  0  0  0  0  0  0  0
  141.2050   68.3140  226.7970 C   0  0  0  0  0  0  0  0  0  0  0  0
  141.1170   69.6190  226.3800 C   0  0  0  0  0  0  0  0  0  0  0  0
  140.1190   69.9670  225.4940 C   0  0  0  0  0  0  0  0  0  0  0  0
  140.0830   71.4130  225.0780 C   0  0  0  0  0  0  0  0  0  0  0  0
  140.5300   73.2290  222.5940 N   0  0  0  0  0  0  0  0  0  0  0  0
  140.6890   76.9680  222.7370 C   0  0  0  0  0  0  0  0  0  0  0  0
  142.1040   82.1134  221.9758 H   0  0  0  0  0  0  0  0  0  0  0  0
  140.8070   81.4146  223.9900 H   0  0  0  0  0  0  0  0  0  0  0  0
  140.1626   79.0602  224.3304 H   0  0  0  0  0  0  0  0  0  0  0  0
  142.7553   80.3658  220.2883 H   0  0  0  0  0  0  0  0  0  0  0  0
  142.5463   78.0909  219.4871 H   0  0  0  0  0  0  0  0  0  0  0  0
  142.9451   77.0120  220.8065 H   0  0  0  0  0  0  0  0  0  0  0  0
  140.0154   77.7190  220.0649 H   0  0  0  0  0  0  0  0  0  0  0  0
  140.8392   76.3328  219.3264 H   0  0  0  0  0  0  0  0  0  0  0  0
  139.5151   75.8038  221.4206 H   0  0  0  0  0  0  0  0  0  0  0  0
  142.5920   75.3310  221.5490 H   0  0  0  0  0  0  0  0  0  0  0  0
  140.6880   70.5450  218.7330 H   0  0  0  0  0  0  0  0  0  0  0  0
  142.7096   69.1074  219.5634 H   0  0  0  0  0  0  0  0  0  0  0  0
  143.1927   70.4038  218.3975 H   0  0  0  0  0  0  0  0  0  0  0  0
  143.0487   71.2133  221.2615 H   0  0  0  0  0  0  0  0  0  0  0  0
  144.3501   70.0609  220.8471 H   0  0  0  0  0  0  0  0  0  0  0  0
  145.3378   71.4879  219.3484 H   0  0  0  0  0  0  0  0  0  0  0  0
  144.0521   72.8703  221.7082 H   0  0  0  0  0  0  0  0  0  0  0  0
  145.7483   72.8997  221.2540 H   0  0  0  0  0  0  0  0  0  0  0  0
  143.5416   74.7484  220.4617 H   0  0  0  0  0  0  0  0  0  0  0  0
  145.2623   75.0412  220.3293 H   0  0  0  0  0  0  0  0  0  0  0  0
  143.8741   74.6237  218.0917 H   0  0  0  0  0  0  0  0  0  0  0  0
  145.3943   73.7758  218.2112 H   0  0  0  0  0  0  0  0  0  0  0  0
  142.7270   72.8560  219.1640 H   0  0  0  0  0  0  0  0  0  0  0  0
  137.4565   71.4359  224.3028 H   0  0  0  0  0  0  0  0  0  0  0  0
  137.8161   70.9527  222.6016 H   0  0  0  0  0  0  0  0  0  0  0  0
  137.1542   69.1937  224.5252 H   0  0  0  0  0  0  0  0  0  0  0  0
  138.2832   68.8202  223.1433 H   0  0  0  0  0  0  0  0  0  0  0  0
  138.5780   67.0167  225.0575 H   0  0  0  0  0  0  0  0  0  0  0  0
  140.3564   66.3579  226.6457 H   0  0  0  0  0  0  0  0  0  0  0  0
  141.9895   68.0017  227.5020 H   0  0  0  0  0  0  0  0  0  0  0  0
  141.8293   70.3732  226.7458 H   0  0  0  0  0  0  0  0  0  0  0  0
  139.4859   72.0039  225.7881 H   0  0  0  0  0  0  0  0  0  0  0  0
  141.0877   71.8606  225.0591 H   0  0  0  0  0  0  0  0  0  0  0  0
  139.7222   76.9578  223.2616 H   0  0  0  0  0  0  0  0  0  0  0  0
  141.4907   76.4982  223.3256 H   0  0  0  0  0  0  0  0  0  0  0  0
  1  2  2  0
  2  3  1  0
  3  4  2  0
  4  5  1  0
  5  6  2  0
  5  7  1  0
  7  8  1  0
  8  9  1  0
  9 10  1  0
 10 11  1  0
 11 12  2  0
 12 13  1  0
 13 14  1  0
 14 15  1  0
 15 16  1  0
 16 17  1  0
 17 18  1  0
 18 19  1  0
 19 20  1  0
 20 21  1  0
 13 22  2  0
 22 23  1  0
 23 24  1  0
 24 25  1  0
 25 26  1  0
 26 27  1  0
 27 28  2  0
 28 29  1  0
 29 30  2  0
 30 31  1  0
 31 32  2  0
 32 33  1  0
 23 34  2  0
  9 35  1  0
  6  1  1  0
 34 11  1  0
 35  4  1  0
 21 17  1  0
 33 24  1  0
 32 27  1  0
  1 36  1  0
  2 37  1  0
  3 38  1  0
  6 39  1  0
  7 40  1  0
  7 41  1  0
  8 42  1  0
  8 43  1  0
  9 44  1  6
 10 45  1  0
 14 46  1  0
 15 47  1  0
 15 48  1  0
 16 49  1  0
 16 50  1  0
 17 51  1  6
 18 52  1  0
 18 53  1  0
 19 54  1  0
 19 55  1  0
 20 56  1  0
 20 57  1  0
 21 58  1  0
 25 59  1  0
 25 60  1  0
 26 61  1  0
 26 62  1  0
 28 63  1  0
 29 64  1  0
 30 65  1  0
 31 66  1  0
 33 67  1  0
 33 68  1  0
 35 69  1  0
 35 70  1  0
M  END
>  <smiles>  (78) 
c1ccc2c(c1)CCC(Nc1nc(NCCC3CCCN3)nc(N3CCc4ccccc4C3)n1)C2

>  <score_type>  (78) 
oracle

>  <origin>  (78) 
autodockgpu

>  <m_score__min__energy>  (78) 
-10.699999999999999

>  <m_primary>  (78) 
energy

>  <rmsd>  (78) 
3.776725760600255

>  <m_score__min__rmsd>  (78) 
3.776725760600255

>  <meeko>  (78) 
{"free_energy": -9.4, "intermolecular_energy": -11.49, "internal_energy": -2.33, "cluster_size": 19, "cluster_id": 1, "rank_in_cluster": 12}

>  <energy>  (78) 
-8.04

>  <cluster_rmsd>  (78) 
1.71

>  <cluster>  (78) 
2

$$$$

     RDKit          3D

 70 75  0  0  1  0  0  0  0  0999 V2000
  141.8290   80.9650  222.4830 C   0  0  0  0  0  0  0  0  0  0  0  0
  141.1450   80.4400  223.5790 C   0  0  0  0  0  0  0  0  0  0  0  0
  140.8150   79.1030  223.6490 C   0  0  0  0  0  0  0  0  0  0  0  0
  141.1570   78.2440  222.6260 C   0  0  0  0  0  0  0  0  0  0  0  0
  141.8380   78.7770  221.5380 C   0  0  0  0  0  0  0  0  0  0  0  0
  142.1780   80.1000  221.4460 C   0  0  0  0  0  0  0  0  0  0  0  0
  142.1790   77.7810  220.4570 C   0  0  0  0  0  0  0  0  0  0  0  0
  140.8440   77.0710  220.2100 C   0  0  0  0  0  0  0  0  0  0  0  0
  140.6340   76.1390  221.3850 C   0  0  1  0  0  0  0  0  0  0  0  0
  141.6700   75.1130  221.3000 N   0  0  0  0  0  0  0  0  0  0  0  0
  141.3410   73.7210  221.4320 C   0  0  0  0  0  0  0  0  0  0  0  0
  141.6770   72.8140  220.4960 N   0  0  0  0  0  0  0  0  0  0  0  0
  141.3640   71.5360  220.6370 C   0  0  0  0  0  0  0  0  0  0  0  0
  141.7250   70.5650  219.6320 N   0  0  0  0  0  0  0  0  0  0  0  0
  140.9220   70.5230  218.4250 C   0  0  0  0  0  0  0  0  0  0  0  0
  139.4470   70.4160  218.7520 C   0  0  0  0  0  0  0  0  0  0  0  0
  138.8270   71.7750  218.5770 C   0  0  2  0  0  0  0  0  0  0  0  0
  139.7920   72.6420  217.7950 C   0  0  0  0  0  0  0  0  0  0  0  0
  139.7260   73.9790  218.4970 C   0  0  0  0  0  0  0  0  0  0  0  0
  138.5150   73.8410  219.3700 C   0  0  0  0  0  0  0  0  0  0  0  0
  138.6360   72.4550  219.8480 N   0  0  0  0  0  0  0  0  0  0  0  0
  140.6940   71.1350  221.7360 N   0  0  0  0  0  0  0  0  0  0  0  0
  140.3410   72.0060  222.6930 C   0  0  0  0  0  0  0  0  0  0  0  0
  139.6380   71.5570  223.8380 N   0  0  0  0  0  0  0  0  0  0  0  0
  138.2660   71.1350  223.7680 C   0  0  0  0  0  0  0  0  0  0  0  0
  138.1300   69.6920  224.1970 C   0  0  0  0  0  0  0  0  0  0  0  0
  139.1990   69.2600  225.1170 C   0  0  0  0  0  0  0  0  0  0  0  0
  139.1880   67.9630  225.5560 C   0  0  0  0  0  0  0  0  0  0  0  0
  140.1790   67.5210  226.4210 C   0  0  0  0  0  0  0  0  0  0  0  0
  141.1860   68.3490  226.8600 C   0  0  0  0  0  0  0  0  0  0  0  0
  141.2040   69.6510  226.4240 C   0  0  0  0  0  0  0  0  0  0  0  0
  140.2140   70.0770  225.5640 C   0  0  0  0  0  0  0  0  0  0  0  0
  140.2960   71.5140  225.1260 C   0  0  0  0  0  0  0  0  0  0  0  0
  140.6710   73.2900  222.5220 N   0  0  0  0  0  0  0  0  0  0  0  0
  140.7950   76.8070  222.7190 C   0  0  0  0  0  0  0  0  0  0  0  0
  142.0866   82.0334  222.4375 H   0  0  0  0  0  0  0  0  0  0  0  0
  140.8623   81.1075  224.4063 H   0  0  0  0  0  0  0  0  0  0  0  0
  140.2751   78.7190  224.5271 H   0  0  0  0  0  0  0  0  0  0  0  0
  142.7195   80.4760  220.5654 H   0  0  0  0  0  0  0  0  0  0  0  0
  142.5307   78.2896  219.5473 H   0  0  0  0  0  0  0  0  0  0  0  0
  142.9898   77.0938  220.7404 H   0  0  0  0  0  0  0  0  0  0  0  0
  140.0266   77.8051  220.1554 H   0  0  0  0  0  0  0  0  0  0  0  0
  140.8551   76.5186  219.2588 H   0  0  0  0  0  0  0  0  0  0  0  0
  139.6055   75.7534  221.3259 H   0  0  0  0  0  0  0  0  0  0  0  0
  142.6800   75.3420  221.1420 H   0  0  0  0  0  0  0  0  0  0  0  0
  142.5410   69.9350  219.8050 H   0  0  0  0  0  0  0  0  0  0  0  0
  141.0955   71.4423  217.8464 H   0  0  0  0  0  0  0  0  0  0  0  0
  141.2148   69.6371  217.8424 H   0  0  0  0  0  0  0  0  0  0  0  0
  138.9662   69.6970  218.0724 H   0  0  0  0  0  0  0  0  0  0  0  0
  139.3115   70.0669  219.7863 H   0  0  0  0  0  0  0  0  0  0  0  0
  137.8581   71.6310  218.0765 H   0  0  0  0  0  0  0  0  0  0  0  0
  140.8106   72.2285  217.8346 H   0  0  0  0  0  0  0  0  0  0  0  0
  139.5346   72.7089  216.7276 H   0  0  0  0  0  0  0  0  0  0  0  0
  140.6297   74.1546  219.0991 H   0  0  0  0  0  0  0  0  0  0  0  0
  139.6661   74.8307  217.8034 H   0  0  0  0  0  0  0  0  0  0  0  0
  138.5419   74.5555  220.2060 H   0  0  0  0  0  0  0  0  0  0  0  0
  137.5683   74.0487  218.8497 H   0  0  0  0  0  0  0  0  0  0  0  0
  139.5210   72.4110  220.3900 H   0  0  0  0  0  0  0  0  0  0  0  0
  137.6589   71.7681  224.4318 H   0  0  0  0  0  0  0  0  0  0  0  0
  137.9187   71.2299  222.7286 H   0  0  0  0  0  0  0  0  0  0  0  0
  137.1610   69.5666  224.7023 H   0  0  0  0  0  0  0  0  0  0  0  0
  138.2050   69.0716  223.2917 H   0  0  0  0  0  0  0  0  0  0  0  0
  138.3969   67.2744  225.2244 H   0  0  0  0  0  0  0  0  0  0  0  0
  140.1587   66.4768  226.7662 H   0  0  0  0  0  0  0  0  0  0  0  0
  141.9607   67.9759  227.5460 H   0  0  0  0  0  0  0  0  0  0  0  0
  141.9938   70.3415  226.7548 H   0  0  0  0  0  0  0  0  0  0  0  0
  139.7790   72.1664  225.8451 H   0  0  0  0  0  0  0  0  0  0  0  0
  141.3362   71.8670  225.0679 H   0  0  0  0  0  0  0  0  0  0  0  0
  139.8448   76.7228  223.2667 H   0  0  0  0  0  0  0  0  0  0  0  0
  141.6229   76.2992  223.2354 H   0  0  0  0  0  0  0  0  0  0  0  0
  1  2  2  0
  2  3  1  0
  3  4  2  0
  4  5  1  0
  5  6  2  0
  5  7  1  0
  7  8  1  0
  8  9  1  0
  9 10  1  0
 10 11  1  0
 11 12  2  0
 12 13  1  0
 13 14  1  0
 14 15  1  0
 15 16  1  0
 16 17  1  0
 17 18  1  0
 18 19  1  0
 19 20  1  0
 20 21  1  0
 13 22  2  0
 22 23  1  0
 23 24  1  0
 24 25  1  0
 25 26  1  0
 26 27  1  0
 27 28  2  0
 28 29  1  0
 29 30  2  0
 30 31  1  0
 31 32  2  0
 32 33  1  0
 23 34  2  0
  9 35  1  0
  6  1  1  0
 34 11  1  0
 35  4  1  0
 21 17  1  0
 33 24  1  0
 32 27  1  0
  1 36  1  0
  2 37  1  0
  3 38  1  0
  6 39  1  0
  7 40  1  0
  7 41  1  0
  8 42  1  0
  8 43  1  0
  9 44  1  1
 10 45  1  0
 14 46  1  0
 15 47  1  0
 15 48  1  0
 16 49  1  0
 16 50  1  0
 17 51  1  6
 18 52  1  0
 18 53  1  0
 19 54  1  0
 19 55  1  0
 20 56  1  0
 20 57  1  0
 21 58  1  0
 25 59  1  0
 25 60  1  0
 26 61  1  0
 26 62  1  0
 28 63  1  0
 29 64  1  0
 30 65  1  0
 31 66  1  0
 33 67  1  0
 33 68  1  0
 35 69  1  0
 35 70  1  0
M  END
>  <smiles>  (79) 
c1ccc2c(c1)CCC(Nc1nc(NCCC3CCCN3)nc(N3CCc4ccccc4C3)n1)C2

>  <score_type>  (79) 
oracle

>  <origin>  (79) 
autodockgpu

>  <m_score__min__energy>  (79) 
-10.699999999999999

>  <m_primary>  (79) 
energy

>  <rmsd>  (79) 
3.8999241431005185

>  <m_score__min__rmsd>  (79) 
3.8999241431005185

>  <meeko>  (79) 
{"free_energy": -7.9, "intermolecular_energy": -9.99, "internal_energy": -3.19, "cluster_size": 19, "cluster_id": 1, "rank_in_cluster": 19}

>  <energy>  (79) 
-7.39

>  <cluster_rmsd>  (79) 
1.99

>  <cluster>  (79) 
2

$$$$

     RDKit          3D

 70 75  0  0  1  0  0  0  0  0999 V2000
  143.3350   77.0750  218.6040 C   0  0  0  0  0  0  0  0  0  0  0  0
  142.3640   77.9410  218.1000 C   0  0  0  0  0  0  0  0  0  0  0  0
  141.1050   78.0130  218.6580 C   0  0  0  0  0  0  0  0  0  0  0  0
  140.7720   77.2220  219.7370 C   0  0  0  0  0  0  0  0  0  0  0  0
  141.7460   76.3640  220.2320 C   0  0  0  0  0  0  0  0  0  0  0  0
  143.0030   76.2750  219.6970 C   0  0  0  0  0  0  0  0  0  0  0  0
  141.3120   75.5300  221.4120 C   0  0  0  0  0  0  0  0  0  0  0  0
  139.9800   74.9340  220.9420 C   0  0  0  0  0  0  0  0  0  0  0  0
  138.9660   76.0560  221.0110 C   0  0  1  0  0  0  0  0  0  0  0  0
  138.7970   76.3850  222.4240 N   0  0  0  0  0  0  0  0  0  0  0  0
  139.0840   77.7050  222.9130 C   0  0  0  0  0  0  0  0  0  0  0  0
  140.3430   78.1340  223.1180 N   0  0  0  0  0  0  0  0  0  0  0  0
  140.5860   79.3550  223.5700 C   0  0  0  0  0  0  0  0  0  0  0  0
  141.9370   79.8120  223.7900 N   0  0  0  0  0  0  0  0  0  0  0  0
  142.5990   80.4900  222.6910 C   0  0  0  0  0  0  0  0  0  0  0  0
  142.1890   79.9000  221.3580 C   0  0  0  0  0  0  0  0  0  0  0  0
  141.1400   80.7920  220.7530 C   0  0  2  0  0  0  0  0  0  0  0  0
  141.0140   82.0320  221.6130 C   0  0  0  0  0  0  0  0  0  0  0  0
  139.5230   82.2720  221.6850 C   0  0  0  0  0  0  0  0  0  0  0  0
  138.9860   81.3730  220.6120 C   0  0  0  0  0  0  0  0  0  0  0  0
  139.8250   80.1730  220.7670 N   0  0  0  0  0  0  0  0  0  0  0  0
  139.5540   80.1820  223.8290 N   0  0  0  0  0  0  0  0  0  0  0  0
  138.2850   79.7950  223.6370 C   0  0  0  0  0  0  0  0  0  0  0  0
  137.2200   80.6860  223.9180 N   0  0  0  0  0  0  0  0  0  0  0  0
  135.9210   80.5270  223.3220 C   0  0  0  0  0  0  0  0  0  0  0  0
  134.8690   80.3170  224.3860 C   0  0  0  0  0  0  0  0  0  0  0  0
  135.2390   80.9060  225.6880 C   0  0  0  0  0  0  0  0  0  0  0  0
  134.3670   80.7600  226.7340 C   0  0  0  0  0  0  0  0  0  0  0  0
  134.6820   81.3000  227.9730 C   0  0  0  0  0  0  0  0  0  0  0  0
  135.8550   81.9850  228.1920 C   0  0  0  0  0  0  0  0  0  0  0  0
  136.7340   82.1350  227.1480 C   0  0  0  0  0  0  0  0  0  0  0  0
  136.4080   81.5940  225.9230 C   0  0  0  0  0  0  0  0  0  0  0  0
  137.4180   81.7950  224.8250 C   0  0  0  0  0  0  0  0  0  0  0  0
  138.0720   78.5570  223.1810 N   0  0  0  0  0  0  0  0  0  0  0  0
  139.4120   77.3140  220.3250 C   0  0  0  0  0  0  0  0  0  0  0  0
  144.3362   77.0246  218.1511 H   0  0  0  0  0  0  0  0  0  0  0  0
  142.6081   78.5803  217.2388 H   0  0  0  0  0  0  0  0  0  0  0  0
  140.3610   78.7066  218.2392 H   0  0  0  0  0  0  0  0  0  0  0  0
  143.7420   75.5811  220.1240 H   0  0  0  0  0  0  0  0  0  0  0  0
  142.0450   74.7387  221.6277 H   0  0  0  0  0  0  0  0  0  0  0  0
  141.2232   76.1093  222.3429 H   0  0  0  0  0  0  0  0  0  0  0  0
  140.0707   74.5652  219.9096 H   0  0  0  0  0  0  0  0  0  0  0  0
  139.6785   74.0828  221.5701 H   0  0  0  0  0  0  0  0  0  0  0  0
  138.0498   75.7090  220.5109 H   0  0  0  0  0  0  0  0  0  0  0  0
  138.4660   75.6860  223.1320 H   0  0  0  0  0  0  0  0  0  0  0  0
  142.3860   79.6430  224.7180 H   0  0  0  0  0  0  0  0  0  0  0  0
  142.3271   81.5557  222.7107 H   0  0  0  0  0  0  0  0  0  0  0  0
  143.6856   80.3651  222.8081 H   0  0  0  0  0  0  0  0  0  0  0  0
  143.0617   79.8454  220.6906 H   0  0  0  0  0  0  0  0  0  0  0  0
  141.7900   78.8845  221.4981 H   0  0  0  0  0  0  0  0  0  0  0  0
  141.4468   81.0034  219.7180 H   0  0  0  0  0  0  0  0  0  0  0  0
  141.4315   81.8575  222.6156 H   0  0  0  0  0  0  0  0  0  0  0  0
  141.5636   82.8918  221.2023 H   0  0  0  0  0  0  0  0  0  0  0  0
  139.1245   81.9925  222.6714 H   0  0  0  0  0  0  0  0  0  0  0  0
  139.2460   83.3274  221.5459 H   0  0  0  0  0  0  0  0  0  0  0  0
  137.9237   81.1418  220.7793 H   0  0  0  0  0  0  0  0  0  0  0  0
  139.0251   81.8135  219.6048 H   0  0  0  0  0  0  0  0  0  0  0  0
  139.6340   79.8080  221.7210 H   0  0  0  0  0  0  0  0  0  0  0  0
  135.6754   81.4303  222.7443 H   0  0  0  0  0  0  0  0  0  0  0  0
  135.9390   79.6465  222.6629 H   0  0  0  0  0  0  0  0  0  0  0  0
  133.9302   80.7789  224.0465 H   0  0  0  0  0  0  0  0  0  0  0  0
  134.7632   79.2322  224.5341 H   0  0  0  0  0  0  0  0  0  0  0  0
  133.4209   80.2170  226.5926 H   0  0  0  0  0  0  0  0  0  0  0  0
  133.9728   81.1767  228.8048 H   0  0  0  0  0  0  0  0  0  0  0  0
  136.0838   82.4038  229.1831 H   0  0  0  0  0  0  0  0  0  0  0  0
  137.6811   82.6770  227.2867 H   0  0  0  0  0  0  0  0  0  0  0  0
  137.2420   82.7507  224.3096 H   0  0  0  0  0  0  0  0  0  0  0  0
  138.4463   81.8285  225.2142 H   0  0  0  0  0  0  0  0  0  0  0  0
  138.6994   77.5413  219.5184 H   0  0  0  0  0  0  0  0  0  0  0  0
  139.4449   78.1036  221.0902 H   0  0  0  0  0  0  0  0  0  0  0  0
  1  2  2  0
  2  3  1  0
  3  4  2  0
  4  5  1  0
  5  6  2  0
  5  7  1  0
  7  8  1  0
  8  9  1  0
  9 10  1  0
 10 11  1  0
 11 12  2  0
 12 13  1  0
 13 14  1  0
 14 15  1  0
 15 16  1  0
 16 17  1  0
 17 18  1  0
 18 19  1  0
 19 20  1  0
 20 21  1  0
 13 22  2  0
 22 23  1  0
 23 24  1  0
 24 25  1  0
 25 26  1  0
 26 27  1  0
 27 28  2  0
 28 29  1  0
 29 30  2  0
 30 31  1  0
 31 32  2  0
 32 33  1  0
 23 34  2  0
  9 35  1  0
  6  1  1  0
 34 11  1  0
 35  4  1  0
 21 17  1  0
 33 24  1  0
 32 27  1  0
  1 36  1  0
  2 37  1  0
  3 38  1  0
  6 39  1  0
  7 40  1  0
  7 41  1  0
  8 42  1  0
  8 43  1  0
  9 44  1  6
 10 45  1  0
 14 46  1  0
 15 47  1  0
 15 48  1  0
 16 49  1  0
 16 50  1  0
 17 51  1  6
 18 52  1  0
 18 53  1  0
 19 54  1  0
 19 55  1  0
 20 56  1  0
 20 57  1  0
 21 58  1  0
 25 59  1  0
 25 60  1  0
 26 61  1  0
 26 62  1  0
 28 63  1  0
 29 64  1  0
 30 65  1  0
 31 66  1  0
 33 67  1  0
 33 68  1  0
 35 69  1  0
 35 70  1  0
M  END
>  <smiles>  (80) 
c1ccc2c(c1)CCC(Nc1nc(NCCC3CCCN3)nc(N3CCc4ccccc4C3)n1)C2

>  <score_type>  (80) 
oracle

>  <origin>  (80) 
autodockgpu

>  <m_score__min__energy>  (80) 
-10.699999999999999

>  <m_primary>  (80) 
energy

>  <rmsd>  (80) 
5.511765493193587

>  <m_score__min__rmsd>  (80) 
5.511765493193587

>  <meeko>  (80) 
{"free_energy": -6.64, "intermolecular_energy": -8.72, "internal_energy": -4.22, "cluster_size": 3, "cluster_id": 10, "rank_in_cluster": 1}

>  <energy>  (80) 
-9.98

>  <cluster_rmsd>  (80) 
0.0

>  <cluster>  (80) 
3

$$$$

     RDKit          3D

 70 75  0  0  1  0  0  0  0  0999 V2000
  139.8650   68.7380  228.1010 C   0  0  0  0  0  0  0  0  0  0  0  0
  140.8600   69.6880  228.3310 C   0  0  0  0  0  0  0  0  0  0  0  0
  141.1650   70.6530  227.3940 C   0  0  0  0  0  0  0  0  0  0  0  0
  140.4860   70.7010  226.1950 C   0  0  0  0  0  0  0  0  0  0  0  0
  139.4960   69.7510  225.9750 C   0  0  0  0  0  0  0  0  0  0  0  0
  139.1750   68.7840  226.8900 C   0  0  0  0  0  0  0  0  0  0  0  0
  138.7960   69.8640  224.6430 C   0  0  0  0  0  0  0  0  0  0  0  0
  139.9600   69.9540  223.6500 C   0  0  0  0  0  0  0  0  0  0  0  0
  140.5250   71.3530  223.7820 C   0  0  1  0  0  0  0  0  0  0  0  0
  139.4960   72.2700  223.2990 N   0  0  0  0  0  0  0  0  0  0  0  0
  139.7240   73.0880  222.1400 C   0  0  0  0  0  0  0  0  0  0  0  0
  140.1270   72.5680  220.9660 N   0  0  0  0  0  0  0  0  0  0  0  0
  140.3310   73.3390  219.9090 C   0  0  0  0  0  0  0  0  0  0  0  0
  140.7630   72.7800  218.6510 N   0  0  0  0  0  0  0  0  0  0  0  0
  142.0070   72.0330  218.6450 C   0  0  0  0  0  0  0  0  0  0  0  0
  142.9720   72.5670  219.6830 C   0  0  0  0  0  0  0  0  0  0  0  0
  143.6380   73.7910  219.1180 C   0  0  2  0  0  0  0  0  0  0  0  0
  143.9610   74.7290  220.2630 C   0  0  0  0  0  0  0  0  0  0  0  0
  143.5990   76.0940  219.7240 C   0  0  0  0  0  0  0  0  0  0  0  0
  143.4330   75.8430  218.2560 C   0  0  0  0  0  0  0  0  0  0  0  0
  142.7520   74.5390  218.2420 N   0  0  0  0  0  0  0  0  0  0  0  0
  140.1340   74.6690  220.0120 N   0  0  0  0  0  0  0  0  0  0  0  0
  139.7310   75.2270  221.1630 C   0  0  0  0  0  0  0  0  0  0  0  0
  139.5320   76.6270  221.2420 N   0  0  0  0  0  0  0  0  0  0  0  0
  138.3760   77.1930  221.8830 C   0  0  0  0  0  0  0  0  0  0  0  0
  138.7870   78.0670  223.0460 C   0  0  0  0  0  0  0  0  0  0  0  0
  140.1460   78.6230  222.8980 C   0  0  0  0  0  0  0  0  0  0  0  0
  140.6320   79.4160  223.9030 C   0  0  0  0  0  0  0  0  0  0  0  0
  141.9060   79.9560  223.7990 C   0  0  0  0  0  0  0  0  0  0  0  0
  142.7100   79.7200  222.7080 C   0  0  0  0  0  0  0  0  0  0  0  0
  142.2300   78.9260  221.6960 C   0  0  0  0  0  0  0  0  0  0  0  0
  140.9630   78.3960  221.8130 C   0  0  0  0  0  0  0  0  0  0  0  0
  140.5010   77.5350  220.6680 C   0  0  0  0  0  0  0  0  0  0  0  0
  139.5340   74.4220  222.2110 N   0  0  0  0  0  0  0  0  0  0  0  0
  140.8270   71.7480  225.1980 C   0  0  0  0  0  0  0  0  0  0  0  0
  139.6307   67.9724  228.8553 H   0  0  0  0  0  0  0  0  0  0  0  0
  141.4139   69.6671  229.2811 H   0  0  0  0  0  0  0  0  0  0  0  0
  141.9549   71.3890  227.6046 H   0  0  0  0  0  0  0  0  0  0  0  0
  138.3827   68.0526  226.6724 H   0  0  0  0  0  0  0  0  0  0  0  0
  138.1754   68.9774  224.4458 H   0  0  0  0  0  0  0  0  0  0  0  0
  138.1088   70.7210  224.5851 H   0  0  0  0  0  0  0  0  0  0  0  0
  140.7296   69.2077  223.8967 H   0  0  0  0  0  0  0  0  0  0  0  0
  139.6243   69.7540  222.6217 H   0  0  0  0  0  0  0  0  0  0  0  0
  141.4678   71.3881  223.2165 H   0  0  0  0  0  0  0  0  0  0  0  0
  138.5640   72.3720  223.7680 H   0  0  0  0  0  0  0  0  0  0  0  0
  140.1760   72.9300  217.8000 H   0  0  0  0  0  0  0  0  0  0  0  0
  141.7922   70.9768  218.8646 H   0  0  0  0  0  0  0  0  0  0  0  0
  142.4705   72.1366  217.6528 H   0  0  0  0  0  0  0  0  0  0  0  0
  142.4246   72.8305  220.6000 H   0  0  0  0  0  0  0  0  0  0  0  0
  143.7249   71.8042  219.9305 H   0  0  0  0  0  0  0  0  0  0  0  0
  144.5238   73.4535  218.5600 H   0  0  0  0  0  0  0  0  0  0  0  0
  143.3586   74.4858  221.1507 H   0  0  0  0  0  0  0  0  0  0  0  0
  145.0112   74.6630  220.5836 H   0  0  0  0  0  0  0  0  0  0  0  0
  142.6629   76.4601  220.1709 H   0  0  0  0  0  0  0  0  0  0  0  0
  144.3521   76.8632  219.9500 H   0  0  0  0  0  0  0  0  0  0  0  0
  142.8148   76.6215  217.7851 H   0  0  0  0  0  0  0  0  0  0  0  0
  144.3791   75.8545  217.6950 H   0  0  0  0  0  0  0  0  0  0  0  0
  141.8430   74.6820  218.7240 H   0  0  0  0  0  0  0  0  0  0  0  0
  137.8191   77.7998  221.1538 H   0  0  0  0  0  0  0  0  0  0  0  0
  137.7436   76.3756  222.2598 H   0  0  0  0  0  0  0  0  0  0  0  0
  138.0741   78.9008  223.1269 H   0  0  0  0  0  0  0  0  0  0  0  0
  138.7860   77.4367  223.9475 H   0  0  0  0  0  0  0  0  0  0  0  0
  140.0148   79.6242  224.7894 H   0  0  0  0  0  0  0  0  0  0  0  0
  142.2843   80.5917  224.6131 H   0  0  0  0  0  0  0  0  0  0  0  0
  143.7170   80.1585  222.6476 H   0  0  0  0  0  0  0  0  0  0  0  0
  142.8451   78.7167  220.8084 H   0  0  0  0  0  0  0  0  0  0  0  0
  140.0351   78.1517  219.8853 H   0  0  0  0  0  0  0  0  0  0  0  0
  141.3364   76.9985  220.1943 H   0  0  0  0  0  0  0  0  0  0  0  0
  141.9025   71.9651  225.2762 H   0  0  0  0  0  0  0  0  0  0  0  0
  140.2043   72.6254  225.4270 H   0  0  0  0  0  0  0  0  0  0  0  0
  1  2  2  0
  2  3  1  0
  3  4  2  0
  4  5  1  0
  5  6  2  0
  5  7  1  0
  7  8  1  0
  8  9  1  0
  9 10  1  0
 10 11  1  0
 11 12  2  0
 12 13  1  0
 13 14  1  0
 14 15  1  0
 15 16  1  0
 16 17  1  0
 17 18  1  0
 18 19  1  0
 19 20  1  0
 20 21  1  0
 13 22  2  0
 22 23  1  0
 23 24  1  0
 24 25  1  0
 25 26  1  0
 26 27  1  0
 27 28  2  0
 28 29  1  0
 29 30  2  0
 30 31  1  0
 31 32  2  0
 32 33  1  0
 23 34  2  0
  9 35  1  0
  6  1  1  0
 34 11  1  0
 35  4  1  0
 21 17  1  0
 33 24  1  0
 32 27  1  0
  1 36  1  0
  2 37  1  0
  3 38  1  0
  6 39  1  0
  7 40  1  0
  7 41  1  0
  8 42  1  0
  8 43  1  0
  9 44  1  6
 10 45  1  0
 14 46  1  0
 15 47  1  0
 15 48  1  0
 16 49  1  0
 16 50  1  0
 17 51  1  6
 18 52  1  0
 18 53  1  0
 19 54  1  0
 19 55  1  0
 20 56  1  0
 20 57  1  0
 21 58  1  0
 25 59  1  0
 25 60  1  0
 26 61  1  0
 26 62  1  0
 28 63  1  0
 29 64  1  0
 30 65  1  0
 31 66  1  0
 33 67  1  0
 33 68  1  0
 35 69  1  0
 35 70  1  0
M  END
>  <smiles>  (81) 
c1ccc2c(c1)CCC(Nc1nc(NCCC3CCCN3)nc(N3CCc4ccccc4C3)n1)C2

>  <score_type>  (81) 
oracle

>  <origin>  (81) 
autodockgpu

>  <m_score__min__energy>  (81) 
-10.699999999999999

>  <m_primary>  (81) 
energy

>  <rmsd>  (81) 
11.813500899170025

>  <m_score__min__rmsd>  (81) 
11.813500899170025

>  <meeko>  (81) 
{"free_energy": -8.68, "intermolecular_energy": -10.77, "internal_energy": -2.43, "cluster_size": 10, "cluster_id": 2, "rank_in_cluster": 6}

>  <energy>  (81) 
-9.47

>  <cluster_rmsd>  (81) 
0.8

>  <cluster>  (81) 
3

$$$$

     RDKit          3D

 70 75  0  0  1  0  0  0  0  0999 V2000
  141.8380   81.1670  222.2060 C   0  0  0  0  0  0  0  0  0  0  0  0
  141.0670   80.7670  223.2970 C   0  0  0  0  0  0  0  0  0  0  0  0
  140.6730   79.4550  223.4580 C   0  0  0  0  0  0  0  0  0  0  0  0
  141.0350   78.4990  222.5340 C   0  0  0  0  0  0  0  0  0  0  0  0
  141.8030   78.9080  221.4500 C   0  0  0  0  0  0  0  0  0  0  0  0
  142.2070   80.2030  221.2690 C   0  0  0  0  0  0  0  0  0  0  0  0
  142.1610   77.8090  220.4800 C   0  0  0  0  0  0  0  0  0  0  0  0
  140.8120   77.1350  220.2090 C   0  0  0  0  0  0  0  0  0  0  0  0
  140.4900   76.3170  221.4420 C   0  0  1  0  0  0  0  0  0  0  0  0
  141.4820   75.2470  221.5090 N   0  0  0  0  0  0  0  0  0  0  0  0
  141.0770   73.8680  221.5270 C   0  0  0  0  0  0  0  0  0  0  0  0
  141.2400   73.0610  220.4620 N   0  0  0  0  0  0  0  0  0  0  0  0
  140.8600   71.7930  220.4990 C   0  0  0  0  0  0  0  0  0  0  0  0
  141.0360   70.9290  219.3570 N   0  0  0  0  0  0  0  0  0  0  0  0
  142.3800   70.4640  219.0730 C   0  0  0  0  0  0  0  0  0  0  0  0
  143.3320   70.8250  220.1930 C   0  0  0  0  0  0  0  0  0  0  0  0
  144.2320   71.9280  219.7070 C   0  0  2  0  0  0  0  0  0  0  0  0
  144.6680   72.7480  220.9040 C   0  0  0  0  0  0  0  0  0  0  0  0
  144.5810   74.1760  220.4140 C   0  0  0  0  0  0  0  0  0  0  0  0
  144.4370   74.0130  218.9310 C   0  0  0  0  0  0  0  0  0  0  0  0
  143.5330   72.8560  218.8340 N   0  0  0  0  0  0  0  0  0  0  0  0
  140.2990   71.3030  221.6230 N   0  0  0  0  0  0  0  0  0  0  0  0
  140.1190   72.0730  222.7060 C   0  0  0  0  0  0  0  0  0  0  0  0
  139.5270   71.5310  223.8730 N   0  0  0  0  0  0  0  0  0  0  0  0
  138.1710   71.0520  223.8820 C   0  0  0  0  0  0  0  0  0  0  0  0
  138.1270   69.5830  224.2350 C   0  0  0  0  0  0  0  0  0  0  0  0
  139.2820   69.1500  225.0450 C   0  0  0  0  0  0  0  0  0  0  0  0
  139.3580   67.8320  225.4080 C   0  0  0  0  0  0  0  0  0  0  0  0
  140.4310   67.3880  226.1690 C   0  0  0  0  0  0  0  0  0  0  0  0
  141.4340   68.2350  226.5770 C   0  0  0  0  0  0  0  0  0  0  0  0
  141.3650   69.5580  226.2180 C   0  0  0  0  0  0  0  0  0  0  0  0
  140.2950   69.9850  225.4610 C   0  0  0  0  0  0  0  0  0  0  0  0
  140.2840   71.4470  225.1030 C   0  0  0  0  0  0  0  0  0  0  0  0
  140.5130   73.3480  222.6370 N   0  0  0  0  0  0  0  0  0  0  0  0
  140.6030   77.0910  222.7230 C   0  0  0  0  0  0  0  0  0  0  0  0
  142.1470   82.2161  222.0878 H   0  0  0  0  0  0  0  0  0  0  0  0
  140.7663   81.5145  224.0459 H   0  0  0  0  0  0  0  0  0  0  0  0
  140.0658   79.1700  224.3298 H   0  0  0  0  0  0  0  0  0  0  0  0
  142.8152   80.4797  220.3952 H   0  0  0  0  0  0  0  0  0  0  0  0
  142.5893   78.2223  219.5549 H   0  0  0  0  0  0  0  0  0  0  0  0
  142.9207   77.1163  220.8711 H   0  0  0  0  0  0  0  0  0  0  0  0
  140.0338   77.8942  220.0417 H   0  0  0  0  0  0  0  0  0  0  0  0
  140.8545   76.5028  219.3098 H   0  0  0  0  0  0  0  0  0  0  0  0
  139.4504   75.9694  221.3505 H   0  0  0  0  0  0  0  0  0  0  0  0
  142.5120   75.4320  221.5460 H   0  0  0  0  0  0  0  0  0  0  0  0
  140.2020   70.6720  218.7810 H   0  0  0  0  0  0  0  0  0  0  0  0
  142.3638   69.3705  218.9543 H   0  0  0  0  0  0  0  0  0  0  0  0
  142.7287   70.9492  218.1494 H   0  0  0  0  0  0  0  0  0  0  0  0
  142.7628   71.1677  221.0697 H   0  0  0  0  0  0  0  0  0  0  0  0
  143.9286   69.9474  220.4826 H   0  0  0  0  0  0  0  0  0  0  0  0
  145.0665   71.4572  219.1667 H   0  0  0  0  0  0  0  0  0  0  0  0
  143.9935   72.5848  221.7575 H   0  0  0  0  0  0  0  0  0  0  0  0
  145.6742   72.4807  221.2591 H   0  0  0  0  0  0  0  0  0  0  0  0
  143.7073   74.6889  220.8424 H   0  0  0  0  0  0  0  0  0  0  0  0
  145.4489   74.7875  220.7015 H   0  0  0  0  0  0  0  0  0  0  0  0
  143.9908   74.9078  218.4725 H   0  0  0  0  0  0  0  0  0  0  0  0
  145.3936   73.8723  218.4064 H   0  0  0  0  0  0  0  0  0  0  0  0
  142.6450   73.1440  219.2890 H   0  0  0  0  0  0  0  0  0  0  0  0
  137.5922   71.6197  224.6254 H   0  0  0  0  0  0  0  0  0  0  0  0
  137.7405   71.1883  222.8789 H   0  0  0  0  0  0  0  0  0  0  0  0
  137.2064   69.3866  224.8041 H   0  0  0  0  0  0  0  0  0  0  0  0
  138.1554   69.0170  223.2922 H   0  0  0  0  0  0  0  0  0  0  0  0
  138.5720   67.1277  225.0979 H   0  0  0  0  0  0  0  0  0  0  0  0
  140.4800   66.3267  226.4540 H   0  0  0  0  0  0  0  0  0  0  0  0
  142.2749   67.8600  227.1790 H   0  0  0  0  0  0  0  0  0  0  0  0
  142.1489   70.2644  226.5286 H   0  0  0  0  0  0  0  0  0  0  0  0
  139.7980   72.0346  225.8958 H   0  0  0  0  0  0  0  0  0  0  0  0
  141.3012   71.8496  224.9879 H   0  0  0  0  0  0  0  0  0  0  0  0
  139.6194   77.0928  223.2155 H   0  0  0  0  0  0  0  0  0  0  0  0
  141.3757   76.5966  223.3300 H   0  0  0  0  0  0  0  0  0  0  0  0
  1  2  2  0
  2  3  1  0
  3  4  2  0
  4  5  1  0
  5  6  2  0
  5  7  1  0
  7  8  1  0
  8  9  1  0
  9 10  1  0
 10 11  1  0
 11 12  2  0
 12 13  1  0
 13 14  1  0
 14 15  1  0
 15 16  1  0
 16 17  1  0
 17 18  1  0
 18 19  1  0
 19 20  1  0
 20 21  1  0
 13 22  2  0
 22 23  1  0
 23 24  1  0
 24 25  1  0
 25 26  1  0
 26 27  1  0
 27 28  2  0
 28 29  1  0
 29 30  2  0
 30 31  1  0
 31 32  2  0
 32 33  1  0
 23 34  2  0
  9 35  1  0
  6  1  1  0
 34 11  1  0
 35  4  1  0
 21 17  1  0
 33 24  1  0
 32 27  1  0
  1 36  1  0
  2 37  1  0
  3 38  1  0
  6 39  1  0
  7 40  1  0
  7 41  1  0
  8 42  1  0
  8 43  1  0
  9 44  1  6
 10 45  1  0
 14 46  1  0
 15 47  1  0
 15 48  1  0
 16 49  1  0
 16 50  1  0
 17 51  1  6
 18 52  1  0
 18 53  1  0
 19 54  1  0
 19 55  1  0
 20 56  1  0
 20 57  1  0
 21 58  1  0
 25 59  1  0
 25 60  1  0
 26 61  1  0
 26 62  1  0
 28 63  1  0
 29 64  1  0
 30 65  1  0
 31 66  1  0
 33 67  1  0
 33 68  1  0
 35 69  1  0
 35 70  1  0
M  END
>  <smiles>  (82) 
c1ccc2c(c1)CCC(Nc1nc(NCCC3CCCN3)nc(N3CCc4ccccc4C3)n1)C2

>  <score_type>  (82) 
oracle

>  <origin>  (82) 
autodockgpu

>  <m_score__min__energy>  (82) 
-10.699999999999999

>  <m_primary>  (82) 
energy

>  <rmsd>  (82) 
3.698675920006541

>  <m_score__min__rmsd>  (82) 
3.698675920006541

>  <meeko>  (82) 
{"free_energy": -9.39, "intermolecular_energy": -11.47, "internal_energy": -2.39, "cluster_size": 19, "cluster_id": 1, "rank_in_cluster": 13}

>  <energy>  (82) 
-9.27

>  <cluster_rmsd>  (82) 
1.96

>  <cluster>  (82) 
3

$$$$

     RDKit          3D

 70 75  0  0  1  0  0  0  0  0999 V2000
  139.9350   68.6170  228.1830 C   0  0  0  0  0  0  0  0  0  0  0  0
  141.0270   69.4650  228.3660 C   0  0  0  0  0  0  0  0  0  0  0  0
  141.3810   70.3990  227.4150 C   0  0  0  0  0  0  0  0  0  0  0  0
  140.6560   70.5180  226.2480 C   0  0  0  0  0  0  0  0  0  0  0  0
  139.5700   69.6680  226.0750 C   0  0  0  0  0  0  0  0  0  0  0  0
  139.1980   68.7340  227.0040 C   0  0  0  0  0  0  0  0  0  0  0  0
  138.8240   69.8540  224.7770 C   0  0  0  0  0  0  0  0  0  0  0  0
  139.9440   69.8340  223.7310 C   0  0  0  0  0  0  0  0  0  0  0  0
  140.6470   71.1710  223.8360 C   0  0  1  0  0  0  0  0  0  0  0  0
  139.6910   72.1860  223.4000 N   0  0  0  0  0  0  0  0  0  0  0  0
  139.9570   73.0020  222.2470 C   0  0  0  0  0  0  0  0  0  0  0  0
  140.4760   72.4930  221.1150 N   0  0  0  0  0  0  0  0  0  0  0  0
  140.7140   73.2620  220.0640 C   0  0  0  0  0  0  0  0  0  0  0  0
  141.2700   72.7140  218.8510 N   0  0  0  0  0  0  0  0  0  0  0  0
  142.7050   72.8210  218.6670 C   0  0  0  0  0  0  0  0  0  0  0  0
  143.2780   73.9630  219.4800 C   0  0  0  0  0  0  0  0  0  0  0  0
  143.4650   75.1420  218.5670 C   0  0  2  0  0  0  0  0  0  0  0  0
  143.6960   76.3730  219.4180 C   0  0  0  0  0  0  0  0  0  0  0  0
  142.8780   77.4440  218.7350 C   0  0  0  0  0  0  0  0  0  0  0  0
  142.5460   76.8210  217.4120 C   0  0  0  0  0  0  0  0  0  0  0  0
  142.2700   75.4260  217.7900 N   0  0  0  0  0  0  0  0  0  0  0  0
  140.4320   74.5790  220.1300 N   0  0  0  0  0  0  0  0  0  0  0  0
  139.9140   75.1260  221.2390 C   0  0  0  0  0  0  0  0  0  0  0  0
  139.6280   76.5130  221.2810 N   0  0  0  0  0  0  0  0  0  0  0  0
  138.4290   77.0220  221.8890 C   0  0  0  0  0  0  0  0  0  0  0  0
  138.7650   77.9460  223.0370 C   0  0  0  0  0  0  0  0  0  0  0  0
  140.0900   78.5810  222.8980 C   0  0  0  0  0  0  0  0  0  0  0  0
  140.5090   79.4250  223.8910 C   0  0  0  0  0  0  0  0  0  0  0  0
  141.7490   80.0390  223.7950 C   0  0  0  0  0  0  0  0  0  0  0  0
  142.5860   79.8270  222.7240 C   0  0  0  0  0  0  0  0  0  0  0  0
  142.1730   78.9820  221.7230 C   0  0  0  0  0  0  0  0  0  0  0  0
  140.9380   78.3790  221.8320 C   0  0  0  0  0  0  0  0  0  0  0  0
  140.5510   77.4650  220.7010 C   0  0  0  0  0  0  0  0  0  0  0  0
  139.6850   74.3230  222.2840 N   0  0  0  0  0  0  0  0  0  0  0  0
  141.0500   71.5300  225.2360 C   0  0  0  0  0  0  0  0  0  0  0  0
  139.6619   67.8753  228.9481 H   0  0  0  0  0  0  0  0  0  0  0  0
  141.6193   69.3871  229.2897 H   0  0  0  0  0  0  0  0  0  0  0  0
  142.2478   71.0536  227.5886 H   0  0  0  0  0  0  0  0  0  0  0  0
  138.3292   68.0840  226.8234 H   0  0  0  0  0  0  0  0  0  0  0  0
  138.1114   69.0330  224.6092 H   0  0  0  0  0  0  0  0  0  0  0  0
  138.2220   70.7743  224.7506 H   0  0  0  0  0  0  0  0  0  0  0  0
  140.6481   69.0157  223.9424 H   0  0  0  0  0  0  0  0  0  0  0  0
  139.5437   69.6710  222.7195 H   0  0  0  0  0  0  0  0  0  0  0  0
  141.5618   71.1160  223.2277 H   0  0  0  0  0  0  0  0  0  0  0  0
  138.7860   72.3610  223.8990 H   0  0  0  0  0  0  0  0  0  0  0  0
  140.6310   72.2670  218.1550 H   0  0  0  0  0  0  0  0  0  0  0  0
  143.1787   71.8807  218.9857 H   0  0  0  0  0  0  0  0  0  0  0  0
  142.9061   73.0157  217.6032 H   0  0  0  0  0  0  0  0  0  0  0  0
  142.5842   74.2270  220.2917 H   0  0  0  0  0  0  0  0  0  0  0  0
  144.2411   73.6686  219.9224 H   0  0  0  0  0  0  0  0  0  0  0  0
  144.3040   74.9055  217.8961 H   0  0  0  0  0  0  0  0  0  0  0  0
  143.3449   76.2089  220.4475 H   0  0  0  0  0  0  0  0  0  0  0  0
  144.7602   76.6390  219.5001 H   0  0  0  0  0  0  0  0  0  0  0  0
  141.9654   77.6693  219.3063 H   0  0  0  0  0  0  0  0  0  0  0  0
  143.4093   78.4027  218.6421 H   0  0  0  0  0  0  0  0  0  0  0  0
  141.6627   77.2941  216.9581 H   0  0  0  0  0  0  0  0  0  0  0  0
  143.3419   76.9271  216.6602 H   0  0  0  0  0  0  0  0  0  0  0  0
  141.4520   75.4560  218.4290 H   0  0  0  0  0  0  0  0  0  0  0  0
  137.8495   77.5767  221.1363 H   0  0  0  0  0  0  0  0  0  0  0  0
  137.8409   76.1764  222.2751 H   0  0  0  0  0  0  0  0  0  0  0  0
  138.0012   78.7360  223.0861 H   0  0  0  0  0  0  0  0  0  0  0  0
  138.7864   77.3377  223.9533 H   0  0  0  0  0  0  0  0  0  0  0  0
  139.8646   79.6156  224.7619 H   0  0  0  0  0  0  0  0  0  0  0  0
  142.0729   80.7158  224.5994 H   0  0  0  0  0  0  0  0  0  0  0  0
  143.5659   80.3240  222.6704 H   0  0  0  0  0  0  0  0  0  0  0  0
  142.8154   78.7900  220.8510 H   0  0  0  0  0  0  0  0  0  0  0  0
  140.0633   78.0334  219.8954 H   0  0  0  0  0  0  0  0  0  0  0  0
  141.4261   76.9697  220.2550 H   0  0  0  0  0  0  0  0  0  0  0  0
  142.1439   71.6422  225.2646 H   0  0  0  0  0  0  0  0  0  0  0  0
  140.5258   72.4624  225.4925 H   0  0  0  0  0  0  0  0  0  0  0  0
  1  2  2  0
  2  3  1  0
  3  4  2  0
  4  5  1  0
  5  6  2  0
  5  7  1  0
  7  8  1  0
  8  9  1  0
  9 10  1  0
 10 11  1  0
 11 12  2  0
 12 13  1  0
 13 14  1  0
 14 15  1  0
 15 16  1  0
 16 17  1  0
 17 18  1  0
 18 19  1  0
 19 20  1  0
 20 21  1  0
 13 22  2  0
 22 23  1  0
 23 24  1  0
 24 25  1  0
 25 26  1  0
 26 27  1  0
 27 28  2  0
 28 29  1  0
 29 30  2  0
 30 31  1  0
 31 32  2  0
 32 33  1  0
 23 34  2  0
  9 35  1  0
  6  1  1  0
 34 11  1  0
 35  4  1  0
 21 17  1  0
 33 24  1  0
 32 27  1  0
  1 36  1  0
  2 37  1  0
  3 38  1  0
  6 39  1  0
  7 40  1  0
  7 41  1  0
  8 42  1  0
  8 43  1  0
  9 44  1  6
 10 45  1  0
 14 46  1  0
 15 47  1  0
 15 48  1  0
 16 49  1  0
 16 50  1  0
 17 51  1  6
 18 52  1  0
 18 53  1  0
 19 54  1  0
 19 55  1  0
 20 56  1  0
 20 57  1  0
 21 58  1  0
 25 59  1  0
 25 60  1  0
 26 61  1  0
 26 62  1  0
 28 63  1  0
 29 64  1  0
 30 65  1  0
 31 66  1  0
 33 67  1  0
 33 68  1  0
 35 69  1  0
 35 70  1  0
M  END
>  <smiles>  (83) 
c1ccc2c(c1)CCC(Nc1nc(NCCC3CCCN3)nc(N3CCc4ccccc4C3)n1)C2

>  <score_type>  (83) 
oracle

>  <origin>  (83) 
autodockgpu

>  <m_score__min__energy>  (83) 
-10.699999999999999

>  <m_primary>  (83) 
energy

>  <rmsd>  (83) 
11.973554194341407

>  <m_score__min__rmsd>  (83) 
11.973554194341407

>  <meeko>  (83) 
{"free_energy": -8.73, "intermolecular_energy": -10.82, "internal_energy": -2.35, "cluster_size": 10, "cluster_id": 2, "rank_in_cluster": 5}

>  <energy>  (83) 
-9.24

>  <cluster_rmsd>  (83) 
1.96

>  <cluster>  (83) 
3

$$$$

     RDKit          3D

 70 75  0  0  1  0  0  0  0  0999 V2000
  139.9280   67.9570  226.4360 C   0  0  0  0  0  0  0  0  0  0  0  0
  140.9450   68.8280  226.8260 C   0  0  0  0  0  0  0  0  0  0  0  0
  141.1770   70.0100  226.1540 C   0  0  0  0  0  0  0  0  0  0  0  0
  140.4010   70.3610  225.0690 C   0  0  0  0  0  0  0  0  0  0  0  0
  139.3900   69.4850  224.6900 C   0  0  0  0  0  0  0  0  0  0  0  0
  139.1400   68.3080  225.3410 C   0  0  0  0  0  0  0  0  0  0  0  0
  138.5830   69.9330  223.4960 C   0  0  0  0  0  0  0  0  0  0  0  0
  139.6610   70.3000  222.4690 C   0  0  0  0  0  0  0  0  0  0  0  0
  140.2420   71.6230  222.9180 C   0  0  1  0  0  0  0  0  0  0  0  0
  139.1830   72.6190  222.7790 N   0  0  0  0  0  0  0  0  0  0  0  0
  139.4590   73.9170  222.2280 C   0  0  0  0  0  0  0  0  0  0  0  0
  138.5480   74.9070  222.2400 N   0  0  0  0  0  0  0  0  0  0  0  0
  138.8220   76.0970  221.7270 C   0  0  0  0  0  0  0  0  0  0  0  0
  137.8440   77.1570  221.7400 N   0  0  0  0  0  0  0  0  0  0  0  0
  138.1410   78.3280  222.5430 C   0  0  0  0  0  0  0  0  0  0  0  0
  139.0800   79.2680  221.8150 C   0  0  0  0  0  0  0  0  0  0  0  0
  140.2310   79.5820  222.7300 C   0  0  2  0  0  0  0  0  0  0  0  0
  141.2620   80.3680  221.9450 C   0  0  0  0  0  0  0  0  0  0  0  0
  142.5800   79.7750  222.3860 C   0  0  0  0  0  0  0  0  0  0  0  0
  142.2000   78.9690  223.5910 C   0  0  0  0  0  0  0  0  0  0  0  0
  140.9170   78.3810  223.1770 N   0  0  0  0  0  0  0  0  0  0  0  0
  140.0350   76.3180  221.1820 N   0  0  0  0  0  0  0  0  0  0  0  0
  140.9720   75.3590  221.1500 C   0  0  0  0  0  0  0  0  0  0  0  0
  142.2380   75.6200  220.5710 N   0  0  0  0  0  0  0  0  0  0  0  0
  143.2320   74.5910  220.4270 C   0  0  0  0  0  0  0  0  0  0  0  0
  143.5820   74.3900  218.9710 C   0  0  0  0  0  0  0  0  0  0  0  0
  143.3490   75.5930  218.1490 C   0  0  0  0  0  0  0  0  0  0  0  0
  143.6140   75.5200  216.8080 C   0  0  0  0  0  0  0  0  0  0  0  0
  143.4060   76.6320  216.0030 C   0  0  0  0  0  0  0  0  0  0  0  0
  142.9370   77.8210  216.5120 C   0  0  0  0  0  0  0  0  0  0  0  0
  142.6700   77.9030  217.8560 C   0  0  0  0  0  0  0  0  0  0  0  0
  142.8800   76.7900  218.6430 C   0  0  0  0  0  0  0  0  0  0  0  0
  142.5660   76.9500  220.1060 C   0  0  0  0  0  0  0  0  0  0  0  0
  140.6640   74.1690  221.6760 N   0  0  0  0  0  0  0  0  0  0  0  0
  140.6630   71.6380  224.3580 C   0  0  0  0  0  0  0  0  0  0  0  0
  139.7521   67.0166  226.9789 H   0  0  0  0  0  0  0  0  0  0  0  0
  141.5759   68.5666  227.6884 H   0  0  0  0  0  0  0  0  0  0  0  0
  141.9863   70.6772  226.4856 H   0  0  0  0  0  0  0  0  0  0  0  0
  138.3276   67.6471  225.0047 H   0  0  0  0  0  0  0  0  0  0  0  0
  137.9429   69.1196  223.1237 H   0  0  0  0  0  0  0  0  0  0  0  0
  137.8990   70.7642  223.7223 H   0  0  0  0  0  0  0  0  0  0  0  0
  140.4443   69.5280  222.4465 H   0  0  0  0  0  0  0  0  0  0  0  0
  139.2398   70.3716  221.4553 H   0  0  0  0  0  0  0  0  0  0  0  0
  141.1348   71.8195  222.3061 H   0  0  0  0  0  0  0  0  0  0  0  0
  138.1930   72.4350  223.0700 H   0  0  0  0  0  0  0  0  0  0  0  0
  136.9690   77.0480  221.1800 H   0  0  0  0  0  0  0  0  0  0  0  0
  137.2031   78.8583  222.7646 H   0  0  0  0  0  0  0  0  0  0  0  0
  138.6293   77.9985  223.4720 H   0  0  0  0  0  0  0  0  0  0  0  0
  139.4529   78.7866  220.8989 H   0  0  0  0  0  0  0  0  0  0  0  0
  138.5526   80.1921  221.5361 H   0  0  0  0  0  0  0  0  0  0  0  0
  139.8230   80.1269  223.5941 H   0  0  0  0  0  0  0  0  0  0  0  0
  141.1152   80.2354  220.8629 H   0  0  0  0  0  0  0  0  0  0  0  0
  141.2006   81.4510  222.1276 H   0  0  0  0  0  0  0  0  0  0  0  0
  143.0080   79.1345  221.6007 H   0  0  0  0  0  0  0  0  0  0  0  0
  143.3482   80.5337  222.5963 H   0  0  0  0  0  0  0  0  0  0  0  0
  142.9469   78.1894  223.8016 H   0  0  0  0  0  0  0  0  0  0  0  0
  142.1376   79.5599  224.5167 H   0  0  0  0  0  0  0  0  0  0  0  0
  141.1240   77.7850  222.3520 H   0  0  0  0  0  0  0  0  0  0  0  0
  144.1373   74.8829  220.9795 H   0  0  0  0  0  0  0  0  0  0  0  0
  142.8286   73.6495  220.8281 H   0  0  0  0  0  0  0  0  0  0  0  0
  144.6456   74.1184  218.9007 H   0  0  0  0  0  0  0  0  0  0  0  0
  142.9279   73.5954  218.5828 H   0  0  0  0  0  0  0  0  0  0  0  0
  143.9903   74.5839  216.3698 H   0  0  0  0  0  0  0  0  0  0  0  0
  143.6225   76.5602  214.9269 H   0  0  0  0  0  0  0  0  0  0  0  0
  142.7791   78.6889  215.8549 H   0  0  0  0  0  0  0  0  0  0  0  0
  142.2957   78.8386  218.2970 H   0  0  0  0  0  0  0  0  0  0  0  0
  143.4391   77.3435  220.6472 H   0  0  0  0  0  0  0  0  0  0  0  0
  141.7423   77.6593  220.2746 H   0  0  0  0  0  0  0  0  0  0  0  0
  141.7424   71.8452  224.4023 H   0  0  0  0  0  0  0  0  0  0  0  0
  140.0662   72.4140  224.8597 H   0  0  0  0  0  0  0  0  0  0  0  0
  1  2  2  0
  2  3  1  0
  3  4  2  0
  4  5  1  0
  5  6  2  0
  5  7  1  0
  7  8  1  0
  8  9  1  0
  9 10  1  0
 10 11  1  0
 11 12  2  0
 12 13  1  0
 13 14  1  0
 14 15  1  0
 15 16  1  0
 16 17  1  0
 17 18  1  0
 18 19  1  0
 19 20  1  0
 20 21  1  0
 13 22  2  0
 22 23  1  0
 23 24  1  0
 24 25  1  0
 25 26  1  0
 26 27  1  0
 27 28  2  0
 28 29  1  0
 29 30  2  0
 30 31  1  0
 31 32  2  0
 32 33  1  0
 23 34  2  0
  9 35  1  0
  6  1  1  0
 34 11  1  0
 35  4  1  0
 21 17  1  0
 33 24  1  0
 32 27  1  0
  1 36  1  0
  2 37  1  0
  3 38  1  0
  6 39  1  0
  7 40  1  0
  7 41  1  0
  8 42  1  0
  8 43  1  0
  9 44  1  6
 10 45  1  0
 14 46  1  0
 15 47  1  0
 15 48  1  0
 16 49  1  0
 16 50  1  0
 17 51  1  1
 18 52  1  0
 18 53  1  0
 19 54  1  0
 19 55  1  0
 20 56  1  0
 20 57  1  0
 21 58  1  0
 25 59  1  0
 25 60  1  0
 26 61  1  0
 26 62  1  0
 28 63  1  0
 29 64  1  0
 30 65  1  0
 31 66  1  0
 33 67  1  0
 33 68  1  0
 35 69  1  0
 35 70  1  0
M  END
>  <smiles>  (84) 
c1ccc2c(c1)CCC(Nc1nc(NCCC3CCCN3)nc(N3CCc4ccccc4C3)n1)C2

>  <score_type>  (84) 
oracle

>  <origin>  (84) 
autodockgpu

>  <m_score__min__energy>  (84) 
-10.699999999999999

>  <m_primary>  (84) 
energy

>  <rmsd>  (84) 
11.684079326790819

>  <m_score__min__rmsd>  (84) 
11.684079326790819

>  <meeko>  (84) 
{"free_energy": -8.57, "intermolecular_energy": -10.66, "internal_energy": -2.33, "cluster_size": 1, "cluster_id": 6, "rank_in_cluster": 1}

>  <energy>  (84) 
-9.1

>  <cluster_rmsd>  (84) 
1.98

>  <cluster>  (84) 
3

$$$$

     RDKit          3D

 70 75  0  0  1  0  0  0  0  0999 V2000
  142.5720   77.6270  217.5960 C   0  0  0  0  0  0  0  0  0  0  0  0
  141.6930   76.7820  216.9210 C   0  0  0  0  0  0  0  0  0  0  0  0
  141.5710   75.4500  217.2590 C   0  0  0  0  0  0  0  0  0  0  0  0
  142.3250   74.9180  218.2840 C   0  0  0  0  0  0  0  0  0  0  0  0
  143.1980   75.7690  218.9510 C   0  0  0  0  0  0  0  0  0  0  0  0
  143.3360   77.0940  218.6340 C   0  0  0  0  0  0  0  0  0  0  0  0
  143.9890   75.1190  220.0590 C   0  0  0  0  0  0  0  0  0  0  0  0
  144.5580   73.8650  219.3860 C   0  0  0  0  0  0  0  0  0  0  0  0
  143.4070   72.8890  219.2630 C   0  0  1  0  0  0  0  0  0  0  0  0
  143.0380   72.4990  220.6210 N   0  0  0  0  0  0  0  0  0  0  0  0
  141.8400   73.0040  221.2330 C   0  0  0  0  0  0  0  0  0  0  0  0
  141.0580   72.2370  222.0150 N   0  0  0  0  0  0  0  0  0  0  0  0
  139.9570   72.7220  222.5690 C   0  0  0  0  0  0  0  0  0  0  0  0
  139.1200   71.8980  223.4070 N   0  0  0  0  0  0  0  0  0  0  0  0
  139.6110   70.5750  223.7440 C   0  0  0  0  0  0  0  0  0  0  0  0
  140.7200   70.6480  224.7720 C   0  0  0  0  0  0  0  0  0  0  0  0
  140.0990   70.9000  226.1180 C   0  0  2  0  0  0  0  0  0  0  0  0
  140.9200   71.9530  226.8320 C   0  0  0  0  0  0  0  0  0  0  0  0
  141.0010   71.4450  228.2540 C   0  0  0  0  0  0  0  0  0  0  0  0
  139.9640   70.3620  228.2830 C   0  0  0  0  0  0  0  0  0  0  0  0
  140.1480   69.7240  226.9700 N   0  0  0  0  0  0  0  0  0  0  0  0
  139.6140   74.0060  222.3450 N   0  0  0  0  0  0  0  0  0  0  0  0
  140.3650   74.8040  221.5730 C   0  0  0  0  0  0  0  0  0  0  0  0
  139.9800   76.1500  221.3540 N   0  0  0  0  0  0  0  0  0  0  0  0
  138.6400   76.6060  221.6100 C   0  0  0  0  0  0  0  0  0  0  0  0
  138.6400   77.6930  222.6600 C   0  0  0  0  0  0  0  0  0  0  0  0
  139.9130   78.4360  222.7220 C   0  0  0  0  0  0  0  0  0  0  0  0
  140.0340   79.4340  223.6520 C   0  0  0  0  0  0  0  0  0  0  0  0
  141.2170   80.1540  223.7400 C   0  0  0  0  0  0  0  0  0  0  0  0
  142.2880   79.8980  222.9160 C   0  0  0  0  0  0  0  0  0  0  0  0
  142.1750   78.8990  221.9800 C   0  0  0  0  0  0  0  0  0  0  0  0
  140.9940   78.1920  221.9050 C   0  0  0  0  0  0  0  0  0  0  0  0
  140.9400   77.1110  220.8580 C   0  0  0  0  0  0  0  0  0  0  0  0
  141.4700   74.2860  221.0270 N   0  0  0  0  0  0  0  0  0  0  0  0
  142.1800   73.4830  218.6350 C   0  0  0  0  0  0  0  0  0  0  0  0
  142.6610   78.6873  217.3172 H   0  0  0  0  0  0  0  0  0  0  0  0
  141.0826   77.1863  216.1001 H   0  0  0  0  0  0  0  0  0  0  0  0
  140.8680   74.8083  216.7076 H   0  0  0  0  0  0  0  0  0  0  0  0
  144.0402   77.7297  219.1908 H   0  0  0  0  0  0  0  0  0  0  0  0
  144.7953   75.7800  220.4096 H   0  0  0  0  0  0  0  0  0  0  0  0
  143.3843   74.8962  220.9504 H   0  0  0  0  0  0  0  0  0  0  0  0
  144.9545   74.1137  218.3905 H   0  0  0  0  0  0  0  0  0  0  0  0
  145.3843   73.4367  219.9724 H   0  0  0  0  0  0  0  0  0  0  0  0
  143.7405   72.0571  218.6253 H   0  0  0  0  0  0  0  0  0  0  0  0
  143.6190   71.8470  221.1990 H   0  0  0  0  0  0  0  0  0  0  0  0
  138.2030   72.2750  223.7370 H   0  0  0  0  0  0  0  0  0  0  0  0
  138.7822   69.9779  224.1521 H   0  0  0  0  0  0  0  0  0  0  0  0
  140.0119   70.1094  222.8316 H   0  0  0  0  0  0  0  0  0  0  0  0
  141.2740   69.6979  224.7898 H   0  0  0  0  0  0  0  0  0  0  0  0
  141.4191   71.4587  224.5190 H   0  0  0  0  0  0  0  0  0  0  0  0
  139.0540   71.1974  225.9460 H   0  0  0  0  0  0  0  0  0  0  0  0
  141.9229   72.0357  226.3878 H   0  0  0  0  0  0  0  0  0  0  0  0
  140.4758   72.9570  226.7638 H   0  0  0  0  0  0  0  0  0  0  0  0
  142.0005   71.0417  228.4737 H   0  0  0  0  0  0  0  0  0  0  0  0
  140.8305   72.2297  229.0058 H   0  0  0  0  0  0  0  0  0  0  0  0
  140.1512   69.6517  229.1018 H   0  0  0  0  0  0  0  0  0  0  0  0
  138.9426   70.7317  228.4562 H   0  0  0  0  0  0  0  0  0  0  0  0
  141.1160   69.3450  226.9660 H   0  0  0  0  0  0  0  0  0  0  0  0
  138.2089   77.0026  220.6789 H   0  0  0  0  0  0  0  0  0  0  0  0
  138.0408   75.7592  221.9759 H   0  0  0  0  0  0  0  0  0  0  0  0
  137.8313   78.4022  222.4300 H   0  0  0  0  0  0  0  0  0  0  0  0
  138.4954   77.2069  223.6361 H   0  0  0  0  0  0  0  0  0  0  0  0
  139.1964   79.6641  224.3268 H   0  0  0  0  0  0  0  0  0  0  0  0
  141.3007   80.9532  224.4911 H   0  0  0  0  0  0  0  0  0  0  0  0
  143.2163   80.4814  223.0047 H   0  0  0  0  0  0  0  0  0  0  0  0
  143.0108   78.6676  221.3033 H   0  0  0  0  0  0  0  0  0  0  0  0
  140.6092   77.5242  219.8937 H   0  0  0  0  0  0  0  0  0  0  0  0
  141.9264   76.6555  220.6863 H   0  0  0  0  0  0  0  0  0  0  0  0
  141.9536   72.9219  217.7164 H   0  0  0  0  0  0  0  0  0  0  0  0
  141.3724   73.4137  219.3786 H   0  0  0  0  0  0  0  0  0  0  0  0
  1  2  2  0
  2  3  1  0
  3  4  2  0
  4  5  1  0
  5  6  2  0
  5  7  1  0
  7  8  1  0
  8  9  1  0
  9 10  1  0
 10 11  1  0
 11 12  2  0
 12 13  1  0
 13 14  1  0
 14 15  1  0
 15 16  1  0
 16 17  1  0
 17 18  1  0
 18 19  1  0
 19 20  1  0
 20 21  1  0
 13 22  2  0
 22 23  1  0
 23 24  1  0
 24 25  1  0
 25 26  1  0
 26 27  1  0
 27 28  2  0
 28 29  1  0
 29 30  2  0
 30 31  1  0
 31 32  2  0
 32 33  1  0
 23 34  2  0
  9 35  1  0
  6  1  1  0
 34 11  1  0
 35  4  1  0
 21 17  1  0
 33 24  1  0
 32 27  1  0
  1 36  1  0
  2 37  1  0
  3 38  1  0
  6 39  1  0
  7 40  1  0
  7 41  1  0
  8 42  1  0
  8 43  1  0
  9 44  1  6
 10 45  1  0
 14 46  1  0
 15 47  1  0
 15 48  1  0
 16 49  1  0
 16 50  1  0
 17 51  1  6
 18 52  1  0
 18 53  1  0
 19 54  1  0
 19 55  1  0
 20 56  1  0
 20 57  1  0
 21 58  1  0
 25 59  1  0
 25 60  1  0
 26 61  1  0
 26 62  1  0
 28 63  1  0
 29 64  1  0
 30 65  1  0
 31 66  1  0
 33 67  1  0
 33 68  1  0
 35 69  1  0
 35 70  1  0
M  END
>  <smiles>  (85) 
c1ccc2c(c1)CCC(Nc1nc(NCCC3CCCN3)nc(N3CCc4ccccc4C3)n1)C2

>  <score_type>  (85) 
oracle

>  <origin>  (85) 
autodockgpu

>  <m_score__min__energy>  (85) 
-10.699999999999999

>  <m_primary>  (85) 
energy

>  <rmsd>  (85) 
7.202213818969073

>  <m_score__min__rmsd>  (85) 
7.202213818969073

>  <meeko>  (85) 
{"free_energy": -9.27, "intermolecular_energy": -11.36, "internal_energy": -1.57, "cluster_size": 5, "cluster_id": 3, "rank_in_cluster": 3}

>  <energy>  (85) 
-9.89

>  <cluster_rmsd>  (85) 
0.0

>  <cluster>  (85) 
4

$$$$

     RDKit          3D

 70 75  0  0  1  0  0  0  0  0999 V2000
  142.7500   79.7100  218.1920 C   0  0  0  0  0  0  0  0  0  0  0  0
  142.1450   80.3170  219.2920 C   0  0  0  0  0  0  0  0  0  0  0  0
  141.5990   79.5710  220.3160 C   0  0  0  0  0  0  0  0  0  0  0  0
  141.6410   78.1930  220.2760 C   0  0  0  0  0  0  0  0  0  0  0  0
  142.2470   77.5990  219.1760 C   0  0  0  0  0  0  0  0  0  0  0  0
  142.7950   78.3170  218.1470 C   0  0  0  0  0  0  0  0  0  0  0  0
  142.2550   76.0900  219.1990 C   0  0  0  0  0  0  0  0  0  0  0  0
  140.7940   75.7420  219.5090 C   0  0  0  0  0  0  0  0  0  0  0  0
  140.5910   76.0370  220.9800 C   0  0  1  0  0  0  0  0  0  0  0  0
  141.4100   75.0810  221.7190 N   0  0  0  0  0  0  0  0  0  0  0  0
  141.1390   73.6710  221.6510 C   0  0  0  0  0  0  0  0  0  0  0  0
  141.5950   72.9030  220.6440 N   0  0  0  0  0  0  0  0  0  0  0  0
  141.3330   71.6060  220.6000 C   0  0  0  0  0  0  0  0  0  0  0  0
  141.8230   70.7840  219.5200 N   0  0  0  0  0  0  0  0  0  0  0  0
  143.2610   70.6980  219.3460 C   0  0  0  0  0  0  0  0  0  0  0  0
  143.8350   72.0180  218.8780 C   0  0  0  0  0  0  0  0  0  0  0  0
  144.9280   72.4190  219.8310 C   0  0  2  0  0  0  0  0  0  0  0  0
  144.3870   73.4950  220.7500 C   0  0  0  0  0  0  0  0  0  0  0  0
  145.5230   74.4870  220.8510 C   0  0  0  0  0  0  0  0  0  0  0  0
  146.6810   73.7320  220.2720 C   0  0  0  0  0  0  0  0  0  0  0  0
  146.0550   73.0260  219.1430 N   0  0  0  0  0  0  0  0  0  0  0  0
  140.5960   71.0450  221.5800 N   0  0  0  0  0  0  0  0  0  0  0  0
  140.1240   71.7740  222.6010 C   0  0  0  0  0  0  0  0  0  0  0  0
  139.3520   71.1590  223.6160 N   0  0  0  0  0  0  0  0  0  0  0  0
  138.3100   70.2160  223.3110 C   0  0  0  0  0  0  0  0  0  0  0  0
  138.6060   68.8730  223.9370 C   0  0  0  0  0  0  0  0  0  0  0  0
  139.4620   68.9710  225.1340 C   0  0  0  0  0  0  0  0  0  0  0  0
  139.8130   67.8120  225.7740 C   0  0  0  0  0  0  0  0  0  0  0  0
  140.6170   67.8650  226.9040 C   0  0  0  0  0  0  0  0  0  0  0  0
  141.0830   69.0560  227.4110 C   0  0  0  0  0  0  0  0  0  0  0  0
  140.7360   70.2220  226.7750 C   0  0  0  0  0  0  0  0  0  0  0  0
  139.9370   70.1550  225.6540 C   0  0  0  0  0  0  0  0  0  0  0  0
  139.5960   71.4710  225.0080 C   0  0  0  0  0  0  0  0  0  0  0  0
  140.4040   73.0810  222.6170 N   0  0  0  0  0  0  0  0  0  0  0  0
  141.0500   77.4060  221.3880 C   0  0  0  0  0  0  0  0  0  0  0  0
  143.1808   80.3147  217.3804 H   0  0  0  0  0  0  0  0  0  0  0  0
  142.1022   81.4149  219.3444 H   0  0  0  0  0  0  0  0  0  0  0  0
  141.1270   80.0786  221.1701 H   0  0  0  0  0  0  0  0  0  0  0  0
  143.2646   77.8018  217.2961 H   0  0  0  0  0  0  0  0  0  0  0  0
  142.5606   75.6813  218.2245 H   0  0  0  0  0  0  0  0  0  0  0  0
  142.9644   75.6713  219.9280 H   0  0  0  0  0  0  0  0  0  0  0  0
  140.1177   76.3594  218.8996 H   0  0  0  0  0  0  0  0  0  0  0  0
  140.5757   74.6889  219.2781 H   0  0  0  0  0  0  0  0  0  0  0  0
  139.5130   75.9696  221.1883 H   0  0  0  0  0  0  0  0  0  0  0  0
  142.2160   75.3730  222.3210 H   0  0  0  0  0  0  0  0  0  0  0  0
  141.1370   70.2860  218.9090 H   0  0  0  0  0  0  0  0  0  0  0  0
  143.7231   70.4260  220.3064 H   0  0  0  0  0  0  0  0  0  0  0  0
  143.4748   69.9349  218.5831 H   0  0  0  0  0  0  0  0  0  0  0  0
  144.2471   71.9064  217.8642 H   0  0  0  0  0  0  0  0  0  0  0  0
  143.0493   72.7875  218.8551 H   0  0  0  0  0  0  0  0  0  0  0  0
  145.2530   71.5102  220.3587 H   0  0  0  0  0  0  0  0  0  0  0  0
  143.4923   73.9665  220.3174 H   0  0  0  0  0  0  0  0  0  0  0  0
  144.0771   73.1018  221.7294 H   0  0  0  0  0  0  0  0  0  0  0  0
  145.3096   75.3936  220.2658 H   0  0  0  0  0  0  0  0  0  0  0  0
  145.7033   74.8371  221.8781 H   0  0  0  0  0  0  0  0  0  0  0  0
  147.4709   74.4154  219.9270 H   0  0  0  0  0  0  0  0  0  0  0  0
  147.1779   73.0641  220.9910 H   0  0  0  0  0  0  0  0  0  0  0  0
  145.7020   73.7620  218.5010 H   0  0  0  0  0  0  0  0  0  0  0  0
  137.3543   70.5944  223.7028 H   0  0  0  0  0  0  0  0  0  0  0  0
  138.2525   70.0928  222.2194 H   0  0  0  0  0  0  0  0  0  0  0  0
  137.6540   68.4028  224.2245 H   0  0  0  0  0  0  0  0  0  0  0  0
  139.1506   68.2753  223.1912 H   0  0  0  0  0  0  0  0  0  0  0  0
  139.4589   66.8425  225.3936 H   0  0  0  0  0  0  0  0  0  0  0  0
  140.8898   66.9268  227.4093 H   0  0  0  0  0  0  0  0  0  0  0  0
  141.7204   69.0736  228.3073 H   0  0  0  0  0  0  0  0  0  0  0  0
  141.0894   71.1926  227.1533 H   0  0  0  0  0  0  0  0  0  0  0  0
  138.6968   71.9055  225.4692 H   0  0  0  0  0  0  0  0  0  0  0  0
  140.4026   72.2091  225.1284 H   0  0  0  0  0  0  0  0  0  0  0  0
  140.1851   77.9588  221.7835 H   0  0  0  0  0  0  0  0  0  0  0  0
  141.8403   77.2692  222.1408 H   0  0  0  0  0  0  0  0  0  0  0  0
  1  2  2  0
  2  3  1  0
  3  4  2  0
  4  5  1  0
  5  6  2  0
  5  7  1  0
  7  8  1  0
  8  9  1  0
  9 10  1  0
 10 11  1  0
 11 12  2  0
 12 13  1  0
 13 14  1  0
 14 15  1  0
 15 16  1  0
 16 17  1  0
 17 18  1  0
 18 19  1  0
 19 20  1  0
 20 21  1  0
 13 22  2  0
 22 23  1  0
 23 24  1  0
 24 25  1  0
 25 26  1  0
 26 27  1  0
 27 28  2  0
 28 29  1  0
 29 30  2  0
 30 31  1  0
 31 32  2  0
 32 33  1  0
 23 34  2  0
  9 35  1  0
  6  1  1  0
 34 11  1  0
 35  4  1  0
 21 17  1  0
 33 24  1  0
 32 27  1  0
  1 36  1  0
  2 37  1  0
  3 38  1  0
  6 39  1  0
  7 40  1  0
  7 41  1  0
  8 42  1  0
  8 43  1  0
  9 44  1  1
 10 45  1  0
 14 46  1  0
 15 47  1  0
 15 48  1  0
 16 49  1  0
 16 50  1  0
 17 51  1  1
 18 52  1  0
 18 53  1  0
 19 54  1  0
 19 55  1  0
 20 56  1  0
 20 57  1  0
 21 58  1  0
 25 59  1  0
 25 60  1  0
 26 61  1  0
 26 62  1  0
 28 63  1  0
 29 64  1  0
 30 65  1  0
 31 66  1  0
 33 67  1  0
 33 68  1  0
 35 69  1  0
 35 70  1  0
M  END
>  <smiles>  (86) 
c1ccc2c(c1)CCC(Nc1nc(NCCC3CCCN3)nc(N3CCc4ccccc4C3)n1)C2

>  <score_type>  (86) 
oracle

>  <origin>  (86) 
autodockgpu

>  <m_score__min__energy>  (86) 
-10.699999999999999

>  <m_primary>  (86) 
energy

>  <rmsd>  (86) 
4.4751777208021695

>  <m_score__min__rmsd>  (86) 
4.4751777208021695

>  <meeko>  (86) 
{"free_energy": -9.74, "intermolecular_energy": -11.83, "internal_energy": -1.62, "cluster_size": 19, "cluster_id": 1, "rank_in_cluster": 8}

>  <energy>  (86) 
-9.31

>  <cluster_rmsd>  (86) 
1.32

>  <cluster>  (86) 
4

$$$$

     RDKit          3D

 70 75  0  0  1  0  0  0  0  0999 V2000
  141.0030   71.0090  228.1900 C   0  0  0  0  0  0  0  0  0  0  0  0
  140.6110   69.6760  228.3160 C   0  0  0  0  0  0  0  0  0  0  0  0
  140.0890   68.9750  227.2490 C   0  0  0  0  0  0  0  0  0  0  0  0
  139.9410   69.5820  226.0200 C   0  0  0  0  0  0  0  0  0  0  0  0
  140.3350   70.9100  225.9050 C   0  0  0  0  0  0  0  0  0  0  0  0
  140.8560   71.6270  226.9480 C   0  0  0  0  0  0  0  0  0  0  0  0
  140.1430   71.5090  224.5330 C   0  0  0  0  0  0  0  0  0  0  0  0
  138.6930   71.1420  224.1960 C   0  0  0  0  0  0  0  0  0  0  0  0
  138.6970   69.6680  223.8530 C   0  0  1  0  0  0  0  0  0  0  0  0
  139.4580   69.5240  222.6150 N   0  0  0  0  0  0  0  0  0  0  0  0
  139.3380   70.4920  221.5600 C   0  0  0  0  0  0  0  0  0  0  0  0
  138.1510   71.0190  221.2050 N   0  0  0  0  0  0  0  0  0  0  0  0
  138.0620   71.9100  220.2290 C   0  0  0  0  0  0  0  0  0  0  0  0
  136.7890   72.4730  219.8500 N   0  0  0  0  0  0  0  0  0  0  0  0
  136.3310   73.6400  220.5800 C   0  0  0  0  0  0  0  0  0  0  0  0
  136.8930   73.6610  221.9860 C   0  0  0  0  0  0  0  0  0  0  0  0
  138.1010   74.5560  221.9960 C   0  0  2  0  0  0  0  0  0  0  0  0
  138.2490   75.1720  220.6210 C   0  0  0  0  0  0  0  0  0  0  0  0
  139.7360   75.1060  220.3540 C   0  0  0  0  0  0  0  0  0  0  0  0
  140.3050   74.7820  221.7020 C   0  0  0  0  0  0  0  0  0  0  0  0
  139.3290   73.8120  222.2230 N   0  0  0  0  0  0  0  0  0  0  0  0
  139.1780   72.2940  219.5790 N   0  0  0  0  0  0  0  0  0  0  0  0
  140.3800   71.7950  219.9020 C   0  0  0  0  0  0  0  0  0  0  0  0
  141.5370   72.2170  219.2020 N   0  0  0  0  0  0  0  0  0  0  0  0
  141.4950   73.2910  218.2470 C   0  0  0  0  0  0  0  0  0  0  0  0
  142.4080   74.4180  218.6730 C   0  0  0  0  0  0  0  0  0  0  0  0
  143.5210   73.9660  219.5310 C   0  0  0  0  0  0  0  0  0  0  0  0
  144.4020   74.9060  219.9940 C   0  0  0  0  0  0  0  0  0  0  0  0
  145.4600   74.5190  220.8040 C   0  0  0  0  0  0  0  0  0  0  0  0
  145.6580   73.2060  221.1650 C   0  0  0  0  0  0  0  0  0  0  0  0
  144.7790   72.2570  220.7050 C   0  0  0  0  0  0  0  0  0  0  0  0
  143.7320   72.6570  219.9020 C   0  0  0  0  0  0  0  0  0  0  0  0
  142.8070   71.5650  219.4340 C   0  0  0  0  0  0  0  0  0  0  0  0
  140.4380   70.8970  220.8910 N   0  0  0  0  0  0  0  0  0  0  0  0
  139.3780   68.8120  224.8810 C   0  0  0  0  0  0  0  0  0  0  0  0
  141.4174   71.5586  229.0480 H   0  0  0  0  0  0  0  0  0  0  0  0
  140.7207   69.1728  229.2880 H   0  0  0  0  0  0  0  0  0  0  0  0
  139.7888   67.9248  227.3794 H   0  0  0  0  0  0  0  0  0  0  0  0
  141.1548   72.6764  226.8088 H   0  0  0  0  0  0  0  0  0  0  0  0
  140.2796   72.6003  224.5554 H   0  0  0  0  0  0  0  0  0  0  0  0
  140.8672   71.1379  223.7929 H   0  0  0  0  0  0  0  0  0  0  0  0
  138.0414   71.3298  225.0621 H   0  0  0  0  0  0  0  0  0  0  0  0
  138.3115   71.7462  223.3597 H   0  0  0  0  0  0  0  0  0  0  0  0
  137.6495   69.3392  223.7843 H   0  0  0  0  0  0  0  0  0  0  0  0
  140.1140   68.7250  222.4440 H   0  0  0  0  0  0  0  0  0  0  0  0
  136.2470   72.0290  219.0740 H   0  0  0  0  0  0  0  0  0  0  0  0
  136.6577   74.5464  220.0493 H   0  0  0  0  0  0  0  0  0  0  0  0
  135.2335   73.6027  220.6438 H   0  0  0  0  0  0  0  0  0  0  0  0
  136.1363   74.0491  222.6837 H   0  0  0  0  0  0  0  0  0  0  0  0
  137.1713   72.6439  222.2991 H   0  0  0  0  0  0  0  0  0  0  0  0
  137.9542   75.2954  222.7971 H   0  0  0  0  0  0  0  0  0  0  0  0
  137.6901   74.5938  219.8704 H   0  0  0  0  0  0  0  0  0  0  0  0
  137.8527   76.1968  220.5692 H   0  0  0  0  0  0  0  0  0  0  0  0
  139.9724   74.3171  219.6248 H   0  0  0  0  0  0  0  0  0  0  0  0
  140.1412   76.0335  219.9233 H   0  0  0  0  0  0  0  0  0  0  0  0
  141.3060   74.3342  221.6158 H   0  0  0  0  0  0  0  0  0  0  0  0
  140.4426   75.6619  222.3476 H   0  0  0  0  0  0  0  0  0  0  0  0
  139.3550   72.9990  221.5770 H   0  0  0  0  0  0  0  0  0  0  0  0
  141.8189   72.9148  217.2654 H   0  0  0  0  0  0  0  0  0  0  0  0
  140.4650   73.6724  218.1874 H   0  0  0  0  0  0  0  0  0  0  0  0
  142.8287   74.8879  217.7718 H   0  0  0  0  0  0  0  0  0  0  0  0
  141.8051   75.1251  219.2617 H   0  0  0  0  0  0  0  0  0  0  0  0
  144.2716   75.9645  219.7248 H   0  0  0  0  0  0  0  0  0  0  0  0
  146.1611   75.2843  221.1683 H   0  0  0  0  0  0  0  0  0  0  0  0
  146.5034   72.9225  221.8091 H   0  0  0  0  0  0  0  0  0  0  0  0
  144.9076   71.1977  220.9720 H   0  0  0  0  0  0  0  0  0  0  0  0
  143.1836   71.1124  218.5049 H   0  0  0  0  0  0  0  0  0  0  0  0
  142.7235   70.7530  220.1713 H   0  0  0  0  0  0  0  0  0  0  0  0
  138.6446   68.0936  225.2760 H   0  0  0  0  0  0  0  0  0  0  0  0
  140.2220   68.3163  224.3791 H   0  0  0  0  0  0  0  0  0  0  0  0
  1  2  2  0
  2  3  1  0
  3  4  2  0
  4  5  1  0
  5  6  2  0
  5  7  1  0
  7  8  1  0
  8  9  1  0
  9 10  1  0
 10 11  1  0
 11 12  2  0
 12 13  1  0
 13 14  1  0
 14 15  1  0
 15 16  1  0
 16 17  1  0
 17 18  1  0
 18 19  1  0
 19 20  1  0
 20 21  1  0
 13 22  2  0
 22 23  1  0
 23 24  1  0
 24 25  1  0
 25 26  1  0
 26 27  1  0
 27 28  2  0
 28 29  1  0
 29 30  2  0
 30 31  1  0
 31 32  2  0
 32 33  1  0
 23 34  2  0
  9 35  1  0
  6  1  1  0
 34 11  1  0
 35  4  1  0
 21 17  1  0
 33 24  1  0
 32 27  1  0
  1 36  1  0
  2 37  1  0
  3 38  1  0
  6 39  1  0
  7 40  1  0
  7 41  1  0
  8 42  1  0
  8 43  1  0
  9 44  1  6
 10 45  1  0
 14 46  1  0
 15 47  1  0
 15 48  1  0
 16 49  1  0
 16 50  1  0
 17 51  1  1
 18 52  1  0
 18 53  1  0
 19 54  1  0
 19 55  1  0
 20 56  1  0
 20 57  1  0
 21 58  1  0
 25 59  1  0
 25 60  1  0
 26 61  1  0
 26 62  1  0
 28 63  1  0
 29 64  1  0
 30 65  1  0
 31 66  1  0
 33 67  1  0
 33 68  1  0
 35 69  1  0
 35 70  1  0
M  END
>  <smiles>  (87) 
c1ccc2c(c1)CCC(Nc1nc(NCCC3CCCN3)nc(N3CCc4ccccc4C3)n1)C2

>  <score_type>  (87) 
oracle

>  <origin>  (87) 
autodockgpu

>  <m_score__min__energy>  (87) 
-10.699999999999999

>  <m_primary>  (87) 
energy

>  <rmsd>  (87) 
11.817089576846636

>  <m_score__min__rmsd>  (87) 
11.817089576846636

>  <meeko>  (87) 
{"free_energy": -7.22, "intermolecular_energy": -9.31, "internal_energy": -3.74, "cluster_size": 2, "cluster_id": 7, "rank_in_cluster": 2}

>  <energy>  (87) 
-9.19

>  <cluster_rmsd>  (87) 
1.94

>  <cluster>  (87) 
4

$$$$

     RDKit          3D

 70 75  0  0  1  0  0  0  0  0999 V2000
  140.0130   68.0460  227.1510 C   0  0  0  0  0  0  0  0  0  0  0  0
  141.0240   68.9650  227.4330 C   0  0  0  0  0  0  0  0  0  0  0  0
  141.2210   70.0830  226.6490 C   0  0  0  0  0  0  0  0  0  0  0  0
  140.4140   70.3200  225.5560 C   0  0  0  0  0  0  0  0  0  0  0  0
  139.4100   69.3990  225.2840 C   0  0  0  0  0  0  0  0  0  0  0  0
  139.1940   68.2830  226.0470 C   0  0  0  0  0  0  0  0  0  0  0  0
  138.5680   69.7220  224.0740 C   0  0  0  0  0  0  0  0  0  0  0  0
  139.6160   70.0070  222.9910 C   0  0  0  0  0  0  0  0  0  0  0  0
  140.1860   71.3750  223.3010 C   0  0  1  0  0  0  0  0  0  0  0  0
  139.1070   72.3370  223.0970 N   0  0  0  0  0  0  0  0  0  0  0  0
  139.2870   73.4740  222.2370 C   0  0  0  0  0  0  0  0  0  0  0  0
  138.3930   74.4780  222.1810 N   0  0  0  0  0  0  0  0  0  0  0  0
  138.5780   75.5170  221.3810 C   0  0  0  0  0  0  0  0  0  0  0  0
  137.6180   76.5920  221.3230 N   0  0  0  0  0  0  0  0  0  0  0  0
  138.0570   77.9030  221.7650 C   0  0  0  0  0  0  0  0  0  0  0  0
  139.5030   78.1500  221.3930 C   0  0  0  0  0  0  0  0  0  0  0  0
  140.2150   78.6870  222.6040 C   0  0  2  0  0  0  0  0  0  0  0  0
  140.9190   79.9700  222.2150 C   0  0  0  0  0  0  0  0  0  0  0  0
  142.2610   79.8690  222.9030 C   0  0  0  0  0  0  0  0  0  0  0  0
  142.0620   78.7340  223.8620 C   0  0  0  0  0  0  0  0  0  0  0  0
  141.2640   77.7910  223.0620 N   0  0  0  0  0  0  0  0  0  0  0  0
  139.6810   75.5680  220.6070 N   0  0  0  0  0  0  0  0  0  0  0  0
  140.5970   74.5890  220.6330 C   0  0  0  0  0  0  0  0  0  0  0  0
  141.7460   74.6700  219.8090 N   0  0  0  0  0  0  0  0  0  0  0  0
  142.4440   75.9090  219.6000 C   0  0  0  0  0  0  0  0  0  0  0  0
  143.8720   75.8040  220.0840 C   0  0  0  0  0  0  0  0  0  0  0  0
  144.3870   74.4220  220.0670 C   0  0  0  0  0  0  0  0  0  0  0  0
  145.6660   74.2040  220.5040 C   0  0  0  0  0  0  0  0  0  0  0  0
  146.1840   72.9160  220.5020 C   0  0  0  0  0  0  0  0  0  0  0  0
  145.4500   71.8360  220.0730 C   0  0  0  0  0  0  0  0  0  0  0  0
  144.1660   72.0460  219.6330 C   0  0  0  0  0  0  0  0  0  0  0  0
  143.6640   73.3300  219.6400 C   0  0  0  0  0  0  0  0  0  0  0  0
  142.2510   73.4870  219.1460 C   0  0  0  0  0  0  0  0  0  0  0  0
  140.3820   73.5540  221.4500 N   0  0  0  0  0  0  0  0  0  0  0  0
  140.6400   71.5290  224.7230 C   0  0  0  0  0  0  0  0  0  0  0  0
  139.8655   67.1577  227.7828 H   0  0  0  0  0  0  0  0  0  0  0  0
  141.6790   68.7943  228.3001 H   0  0  0  0  0  0  0  0  0  0  0  0
  142.0266   70.7897  226.8972 H   0  0  0  0  0  0  0  0  0  0  0  0
  138.3851   67.5823  225.7927 H   0  0  0  0  0  0  0  0  0  0  0  0
  137.9330   68.8683  223.7948 H   0  0  0  0  0  0  0  0  0  0  0  0
  137.8756   70.5607  224.2389 H   0  0  0  0  0  0  0  0  0  0  0  0
  140.4110   69.2474  223.0210 H   0  0  0  0  0  0  0  0  0  0  0  0
  139.1703   69.9779  221.9858 H   0  0  0  0  0  0  0  0  0  0  0  0
  141.0609   71.5278  222.6520 H   0  0  0  0  0  0  0  0  0  0  0  0
  138.1720   72.2450  223.5600 H   0  0  0  0  0  0  0  0  0  0  0  0
  136.6540   76.3950  220.9700 H   0  0  0  0  0  0  0  0  0  0  0  0
  137.4282   78.6708  221.2905 H   0  0  0  0  0  0  0  0  0  0  0  0
  137.9662   77.9499  222.8602 H   0  0  0  0  0  0  0  0  0  0  0  0
  139.9714   77.2075  221.0732 H   0  0  0  0  0  0  0  0  0  0  0  0
  139.5643   78.8718  220.5652 H   0  0  0  0  0  0  0  0  0  0  0  0
  139.4610   78.8204  223.3938 H   0  0  0  0  0  0  0  0  0  0  0  0
  141.0421   80.0339  221.1238 H   0  0  0  0  0  0  0  0  0  0  0  0
  140.3573   80.8689  222.5090 H   0  0  0  0  0  0  0  0  0  0  0  0
  143.0595   79.6418  222.1813 H   0  0  0  0  0  0  0  0  0  0  0  0
  142.5683   80.8039  223.3946 H   0  0  0  0  0  0  0  0  0  0  0  0
  143.0232   78.2904  224.1607 H   0  0  0  0  0  0  0  0  0  0  0  0
  141.5813   79.0310  224.8058 H   0  0  0  0  0  0  0  0  0  0  0  0
  141.8570   77.5250  222.2510 H   0  0  0  0  0  0  0  0  0  0  0  0
  142.4430   76.1477  218.5262 H   0  0  0  0  0  0  0  0  0  0  0  0
  141.9351   76.7024  220.1670 H   0  0  0  0  0  0  0  0  0  0  0  0
  144.5084   76.4231  219.4346 H   0  0  0  0  0  0  0  0  0  0  0  0
  143.8913   76.1491  221.1283 H   0  0  0  0  0  0  0  0  0  0  0  0
  146.2807   75.0459  220.8552 H   0  0  0  0  0  0  0  0  0  0  0  0
  147.2134   72.7548  220.8546 H   0  0  0  0  0  0  0  0  0  0  0  0
  145.8820   70.8244  220.0819 H   0  0  0  0  0  0  0  0  0  0  0  0
  143.5497   71.2054  219.2816 H   0  0  0  0  0  0  0  0  0  0  0  0
  142.2368   73.6210  218.0543 H   0  0  0  0  0  0  0  0  0  0  0  0
  141.6382   72.6001  219.3649 H   0  0  0  0  0  0  0  0  0  0  0  0
  141.7169   71.7534  224.7214 H   0  0  0  0  0  0  0  0  0  0  0  0
  140.0430   72.3403  225.1651 H   0  0  0  0  0  0  0  0  0  0  0  0
  1  2  2  0
  2  3  1  0
  3  4  2  0
  4  5  1  0
  5  6  2  0
  5  7  1  0
  7  8  1  0
  8  9  1  0
  9 10  1  0
 10 11  1  0
 11 12  2  0
 12 13  1  0
 13 14  1  0
 14 15  1  0
 15 16  1  0
 16 17  1  0
 17 18  1  0
 18 19  1  0
 19 20  1  0
 20 21  1  0
 13 22  2  0
 22 23  1  0
 23 24  1  0
 24 25  1  0
 25 26  1  0
 26 27  1  0
 27 28  2  0
 28 29  1  0
 29 30  2  0
 30 31  1  0
 31 32  2  0
 32 33  1  0
 23 34  2  0
  9 35  1  0
  6  1  1  0
 34 11  1  0
 35  4  1  0
 21 17  1  0
 33 24  1  0
 32 27  1  0
  1 36  1  0
  2 37  1  0
  3 38  1  0
  6 39  1  0
  7 40  1  0
  7 41  1  0
  8 42  1  0
  8 43  1  0
  9 44  1  6
 10 45  1  0
 14 46  1  0
 15 47  1  0
 15 48  1  0
 16 49  1  0
 16 50  1  0
 17 51  1  1
 18 52  1  0
 18 53  1  0
 19 54  1  0
 19 55  1  0
 20 56  1  0
 20 57  1  0
 21 58  1  0
 25 59  1  0
 25 60  1  0
 26 61  1  0
 26 62  1  0
 28 63  1  0
 29 64  1  0
 30 65  1  0
 31 66  1  0
 33 67  1  0
 33 68  1  0
 35 69  1  0
 35 70  1  0
M  END
>  <smiles>  (88) 
c1ccc2c(c1)CCC(Nc1nc(NCCC3CCCN3)nc(N3CCc4ccccc4C3)n1)C2

>  <score_type>  (88) 
oracle

>  <origin>  (88) 
autodockgpu

>  <m_score__min__energy>  (88) 
-10.699999999999999

>  <m_primary>  (88) 
energy

>  <rmsd>  (88) 
11.904916460403173

>  <m_score__min__rmsd>  (88) 
11.904916460403173

>  <meeko>  (88) 
{"free_energy": -9.31, "intermolecular_energy": -11.4, "internal_energy": -1.33, "cluster_size": 4, "cluster_id": 4, "rank_in_cluster": 2}

>  <energy>  (88) 
-8.84

>  <cluster_rmsd>  (88) 
1.86

>  <cluster>  (88) 
4

$$$$

     RDKit          3D

 70 75  0  0  1  0  0  0  0  0999 V2000
  140.7300   68.1710  227.6030 C   0  0  0  0  0  0  0  0  0  0  0  0
  139.9300   67.3220  226.8390 C   0  0  0  0  0  0  0  0  0  0  0  0
  139.5010   67.6790  225.5770 C   0  0  0  0  0  0  0  0  0  0  0  0
  139.8570   68.8960  225.0370 C   0  0  0  0  0  0  0  0  0  0  0  0
  140.6560   69.7340  225.8060 C   0  0  0  0  0  0  0  0  0  0  0  0
  141.0940   69.4030  227.0600 C   0  0  0  0  0  0  0  0  0  0  0  0
  141.0060   71.0490  225.1520 C   0  0  0  0  0  0  0  0  0  0  0  0
  139.6450   71.5680  224.6730 C   0  0  0  0  0  0  0  0  0  0  0  0
  139.2810   70.7440  223.4560 C   0  0  1  0  0  0  0  0  0  0  0  0
  140.2450   71.0850  222.4130 N   0  0  0  0  0  0  0  0  0  0  0  0
  140.5180   72.4560  222.0810 C   0  0  0  0  0  0  0  0  0  0  0  0
  139.6500   73.4460  222.3610 N   0  0  0  0  0  0  0  0  0  0  0  0
  139.9210   74.7030  222.0460 C   0  0  0  0  0  0  0  0  0  0  0  0
  138.9890   75.7630  222.3470 N   0  0  0  0  0  0  0  0  0  0  0  0
  138.5660   76.6110  221.2480 C   0  0  0  0  0  0  0  0  0  0  0  0
  139.6390   77.6160  220.8880 C   0  0  0  0  0  0  0  0  0  0  0  0
  140.1730   78.2110  222.1620 C   0  0  2  0  0  0  0  0  0  0  0  0
  140.9850   79.4410  221.8100 C   0  0  0  0  0  0  0  0  0  0  0  0
  142.1960   79.3430  222.7100 C   0  0  0  0  0  0  0  0  0  0  0  0
  141.7980   78.2840  223.6940 C   0  0  0  0  0  0  0  0  0  0  0  0
  141.0970   77.3150  222.8370 N   0  0  0  0  0  0  0  0  0  0  0  0
  141.0850   74.9960  221.4320 N   0  0  0  0  0  0  0  0  0  0  0  0
  141.9770   74.0400  221.1360 C   0  0  0  0  0  0  0  0  0  0  0  0
  143.1920   74.3770  220.4910 N   0  0  0  0  0  0  0  0  0  0  0  0
  144.2930   73.4550  220.4180 C   0  0  0  0  0  0  0  0  0  0  0  0
  144.6310   73.1420  218.9790 C   0  0  0  0  0  0  0  0  0  0  0  0
  144.2460   74.2210  218.0480 C   0  0  0  0  0  0  0  0  0  0  0  0
  144.4870   74.0380  216.7130 C   0  0  0  0  0  0  0  0  0  0  0  0
  144.1380   75.0300  215.8080 C   0  0  0  0  0  0  0  0  0  0  0  0
  143.5490   76.2070  216.2090 C   0  0  0  0  0  0  0  0  0  0  0  0
  143.3040   76.3980  217.5460 C   0  0  0  0  0  0  0  0  0  0  0  0
  143.6560   75.4040  218.4340 C   0  0  0  0  0  0  0  0  0  0  0  0
  143.3580   75.6790  219.8830 C   0  0  0  0  0  0  0  0  0  0  0  0
  141.6750   72.7810  221.4670 N   0  0  0  0  0  0  0  0  0  0  0  0
  139.3880   69.2640  223.6770 C   0  0  0  0  0  0  0  0  0  0  0  0
  141.0655   67.8765  228.6084 H   0  0  0  0  0  0  0  0  0  0  0  0
  139.6343   66.3461  227.2515 H   0  0  0  0  0  0  0  0  0  0  0  0
  138.8708   66.9877  224.9982 H   0  0  0  0  0  0  0  0  0  0  0  0
  141.7247   70.0995  227.6319 H   0  0  0  0  0  0  0  0  0  0  0  0
  141.4612   71.7416  225.8752 H   0  0  0  0  0  0  0  0  0  0  0  0
  141.7417   70.9477  224.3405 H   0  0  0  0  0  0  0  0  0  0  0  0
  138.8888   71.4380  225.4612 H   0  0  0  0  0  0  0  0  0  0  0  0
  139.6881   72.6404  224.4318 H   0  0  0  0  0  0  0  0  0  0  0  0
  138.2349   70.9688  223.2008 H   0  0  0  0  0  0  0  0  0  0  0  0
  140.7710   70.3590  221.8700 H   0  0  0  0  0  0  0  0  0  0  0  0
  138.6560   75.8830  223.3300 H   0  0  0  0  0  0  0  0  0  0  0  0
  138.3543   75.9823  220.3706 H   0  0  0  0  0  0  0  0  0  0  0  0
  137.6646   77.1598  221.5584 H   0  0  0  0  0  0  0  0  0  0  0  0
  140.4515   77.1137  220.3425 H   0  0  0  0  0  0  0  0  0  0  0  0
  139.2200   78.4054  220.2467 H   0  0  0  0  0  0  0  0  0  0  0  0
  139.3107   78.4226  222.8113 H   0  0  0  0  0  0  0  0  0  0  0  0
  141.2815   79.4250  220.7508 H   0  0  0  0  0  0  0  0  0  0  0  0
  140.4238   80.3764  221.9520 H   0  0  0  0  0  0  0  0  0  0  0  0
  143.0878   79.0400  222.1417 H   0  0  0  0  0  0  0  0  0  0  0  0
  142.4625   80.2988  223.1849 H   0  0  0  0  0  0  0  0  0  0  0  0
  142.6794   77.8307  224.1711 H   0  0  0  0  0  0  0  0  0  0  0  0
  141.1870   78.6612  224.5273 H   0  0  0  0  0  0  0  0  0  0  0  0
  141.7980   76.9750  222.1510 H   0  0  0  0  0  0  0  0  0  0  0  0
  145.1715   73.9017  220.9066 H   0  0  0  0  0  0  0  0  0  0  0  0
  144.0080   72.5219  220.9260 H   0  0  0  0  0  0  0  0  0  0  0  0
  145.7165   72.9823  218.9007 H   0  0  0  0  0  0  0  0  0  0  0  0
  144.0622   72.2442  218.6953 H   0  0  0  0  0  0  0  0  0  0  0  0
  144.9556   73.1079  216.3591 H   0  0  0  0  0  0  0  0  0  0  0  0
  144.3381   74.8708  214.7381 H   0  0  0  0  0  0  0  0  0  0  0  0
  143.2799   76.9791  215.4732 H   0  0  0  0  0  0  0  0  0  0  0  0
  142.8354   77.3272  217.9024 H   0  0  0  0  0  0  0  0  0  0  0  0
  144.1928   76.2201  220.3523 H   0  0  0  0  0  0  0  0  0  0  0  0
  142.4632   76.3068  220.0062 H   0  0  0  0  0  0  0  0  0  0  0  0
  138.3956   68.8166  223.5190 H   0  0  0  0  0  0  0  0  0  0  0  0
  140.1369   68.8860  222.9654 H   0  0  0  0  0  0  0  0  0  0  0  0
  1  2  2  0
  2  3  1  0
  3  4  2  0
  4  5  1  0
  5  6  2  0
  5  7  1  0
  7  8  1  0
  8  9  1  0
  9 10  1  0
 10 11  1  0
 11 12  2  0
 12 13  1  0
 13 14  1  0
 14 15  1  0
 15 16  1  0
 16 17  1  0
 17 18  1  0
 18 19  1  0
 19 20  1  0
 20 21  1  0
 13 22  2  0
 22 23  1  0
 23 24  1  0
 24 25  1  0
 25 26  1  0
 26 27  1  0
 27 28  2  0
 28 29  1  0
 29 30  2  0
 30 31  1  0
 31 32  2  0
 32 33  1  0
 23 34  2  0
  9 35  1  0
  6  1  1  0
 34 11  1  0
 35  4  1  0
 21 17  1  0
 33 24  1  0
 32 27  1  0
  1 36  1  0
  2 37  1  0
  3 38  1  0
  6 39  1  0
  7 40  1  0
  7 41  1  0
  8 42  1  0
  8 43  1  0
  9 44  1  6
 10 45  1  0
 14 46  1  0
 15 47  1  0
 15 48  1  0
 16 49  1  0
 16 50  1  0
 17 51  1  1
 18 52  1  0
 18 53  1  0
 19 54  1  0
 19 55  1  0
 20 56  1  0
 20 57  1  0
 21 58  1  0
 25 59  1  0
 25 60  1  0
 26 61  1  0
 26 62  1  0
 28 63  1  0
 29 64  1  0
 30 65  1  0
 31 66  1  0
 33 67  1  0
 33 68  1  0
 35 69  1  0
 35 70  1  0
M  END
>  <smiles>  (89) 
c1ccc2c(c1)CCC(Nc1nc(NCCC3CCCN3)nc(N3CCc4ccccc4C3)n1)C2

>  <score_type>  (89) 
oracle

>  <origin>  (89) 
autodockgpu

>  <m_score__min__energy>  (89) 
-10.699999999999999

>  <m_primary>  (89) 
energy

>  <rmsd>  (89) 
12.16231101217094

>  <m_score__min__rmsd>  (89) 
12.16231101217094

>  <meeko>  (89) 
{"free_energy": -9.19, "intermolecular_energy": -11.28, "internal_energy": -1.95, "cluster_size": 4, "cluster_id": 4, "rank_in_cluster": 3}

>  <energy>  (89) 
-8.69

>  <cluster_rmsd>  (89) 
0.0

>  <cluster>  (89) 
5

$$$$

     RDKit          3D

 70 75  0  0  1  0  0  0  0  0999 V2000
  139.5610   68.7830  228.0700 C   0  0  0  0  0  0  0  0  0  0  0  0
  140.6860   69.5730  228.3060 C   0  0  0  0  0  0  0  0  0  0  0  0
  141.1500   70.4650  227.3620 C   0  0  0  0  0  0  0  0  0  0  0  0
  140.5060   70.5980  226.1500 C   0  0  0  0  0  0  0  0  0  0  0  0
  139.3860   69.8060  225.9260 C   0  0  0  0  0  0  0  0  0  0  0  0
  138.9050   68.9150  226.8460 C   0  0  0  0  0  0  0  0  0  0  0  0
  138.7330   70.0040  224.5790 C   0  0  0  0  0  0  0  0  0  0  0  0
  139.9120   69.9000  223.6060 C   0  0  0  0  0  0  0  0  0  0  0  0
  140.6820   71.1980  223.7300 C   0  0  1  0  0  0  0  0  0  0  0  0
  139.8140   72.2540  223.2170 N   0  0  0  0  0  0  0  0  0  0  0  0
  140.2210   73.0670  222.1040 C   0  0  0  0  0  0  0  0  0  0  0  0
  140.8710   72.5530  221.0440 N   0  0  0  0  0  0  0  0  0  0  0  0
  141.2390   73.3200  220.0290 C   0  0  0  0  0  0  0  0  0  0  0  0
  141.9360   72.7680  218.8920 N   0  0  0  0  0  0  0  0  0  0  0  0
  142.4710   73.7020  217.9200 C   0  0  0  0  0  0  0  0  0  0  0  0
  143.7370   74.3570  218.4290 C   0  0  0  0  0  0  0  0  0  0  0  0
  144.4160   73.4010  219.3690 C   0  0  2  0  0  0  0  0  0  0  0  0
  144.5260   74.0640  220.7260 C   0  0  0  0  0  0  0  0  0  0  0  0
  145.9160   73.6980  221.1950 C   0  0  0  0  0  0  0  0  0  0  0  0
  146.3180   72.6150  220.2400 C   0  0  0  0  0  0  0  0  0  0  0  0
  145.7820   73.1150  218.9640 N   0  0  0  0  0  0  0  0  0  0  0  0
  140.9570   74.6380  220.0590 N   0  0  0  0  0  0  0  0  0  0  0  0
  140.3100   75.1900  221.0960 C   0  0  0  0  0  0  0  0  0  0  0  0
  140.0270   76.5770  221.1010 N   0  0  0  0  0  0  0  0  0  0  0  0
  138.7470   77.0890  221.5080 C   0  0  0  0  0  0  0  0  0  0  0  0
  138.8940   78.0030  222.7020 C   0  0  0  0  0  0  0  0  0  0  0  0
  140.2260   78.6310  222.7870 C   0  0  0  0  0  0  0  0  0  0  0  0
  140.4800   79.4660  223.8430 C   0  0  0  0  0  0  0  0  0  0  0  0
  141.7220   80.0740  223.9560 C   0  0  0  0  0  0  0  0  0  0  0  0
  142.7220   79.8650  223.0360 C   0  0  0  0  0  0  0  0  0  0  0  0
  142.4760   79.0300  221.9740 C   0  0  0  0  0  0  0  0  0  0  0  0
  141.2370   78.4320  221.8740 C   0  0  0  0  0  0  0  0  0  0  0  0
  141.0370   77.5280  220.6880 C   0  0  0  0  0  0  0  0  0  0  0  0
  139.9530   74.3900  222.1060 N   0  0  0  0  0  0  0  0  0  0  0  0
  141.0180   71.5650  225.1460 C   0  0  0  0  0  0  0  0  0  0  0  0
  139.2003   68.0740  228.8297 H   0  0  0  0  0  0  0  0  0  0  0  0
  141.2149   69.4826  229.2663 H   0  0  0  0  0  0  0  0  0  0  0  0
  142.0400   71.0746  227.5774 H   0  0  0  0  0  0  0  0  0  0  0  0
  138.0131   68.3109  226.6235 H   0  0  0  0  0  0  0  0  0  0  0  0
  137.9874   69.2196  224.3819 H   0  0  0  0  0  0  0  0  0  0  0  0
  138.1864   70.9551  224.4978 H   0  0  0  0  0  0  0  0  0  0  0  0
  140.5545   69.0489  223.8759 H   0  0  0  0  0  0  0  0  0  0  0  0
  139.5657   69.7378  222.5746 H   0  0  0  0  0  0  0  0  0  0  0  0
  141.6278   71.0790  223.1811 H   0  0  0  0  0  0  0  0  0  0  0  0
  138.8730   72.4630  223.6290 H   0  0  0  0  0  0  0  0  0  0  0  0
  142.0300   71.7310  218.8090 H   0  0  0  0  0  0  0  0  0  0  0  0
  142.6962   73.1612  216.9890 H   0  0  0  0  0  0  0  0  0  0  0  0
  141.7208   74.4864  217.7413 H   0  0  0  0  0  0  0  0  0  0  0  0
  144.4037   74.5850  217.5843 H   0  0  0  0  0  0  0  0  0  0  0  0
  143.4959   75.2951  218.9503 H   0  0  0  0  0  0  0  0  0  0  0  0
  143.8235   72.4743  219.3775 H   0  0  0  0  0  0  0  0  0  0  0  0
  144.4164   75.1551  220.6390 H   0  0  0  0  0  0  0  0  0  0  0  0
  143.7416   73.7364  221.4242 H   0  0  0  0  0  0  0  0  0  0  0  0
  146.5966   74.5594  221.1256 H   0  0  0  0  0  0  0  0  0  0  0  0
  145.9498   73.3826  222.2483 H   0  0  0  0  0  0  0  0  0  0  0  0
  147.4117   72.5053  220.1981 H   0  0  0  0  0  0  0  0  0  0  0  0
  145.9435   71.6186  220.5175 H   0  0  0  0  0  0  0  0  0  0  0  0
  146.2720   74.0110  218.7750 H   0  0  0  0  0  0  0  0  0  0  0  0
  138.3015   77.6520  220.6746 H   0  0  0  0  0  0  0  0  0  0  0  0
  138.0998   76.2442  221.7862 H   0  0  0  0  0  0  0  0  0  0  0  0
  138.1361   78.7970  222.6309 H   0  0  0  0  0  0  0  0  0  0  0  0
  138.7619   77.3886  223.6048 H   0  0  0  0  0  0  0  0  0  0  0  0
  139.7025   79.6536  224.5982 H   0  0  0  0  0  0  0  0  0  0  0  0
  141.9124   80.7437  224.8076 H   0  0  0  0  0  0  0  0  0  0  0  0
  143.6995   80.3568  223.1484 H   0  0  0  0  0  0  0  0  0  0  0  0
  143.2521   78.8416  221.2175 H   0  0  0  0  0  0  0  0  0  0  0  0
  140.6908   78.1047  219.8176 H   0  0  0  0  0  0  0  0  0  0  0  0
  141.9713   77.0309  220.3881 H   0  0  0  0  0  0  0  0  0  0  0  0
  142.1126   71.6175  225.2409 H   0  0  0  0  0  0  0  0  0  0  0  0
  140.5325   72.5303  225.3521 H   0  0  0  0  0  0  0  0  0  0  0  0
  1  2  2  0
  2  3  1  0
  3  4  2  0
  4  5  1  0
  5  6  2  0
  5  7  1  0
  7  8  1  0
  8  9  1  0
  9 10  1  0
 10 11  1  0
 11 12  2  0
 12 13  1  0
 13 14  1  0
 14 15  1  0
 15 16  1  0
 16 17  1  0
 17 18  1  0
 18 19  1  0
 19 20  1  0
 20 21  1  0
 13 22  2  0
 22 23  1  0
 23 24  1  0
 24 25  1  0
 25 26  1  0
 26 27  1  0
 27 28  2  0
 28 29  1  0
 29 30  2  0
 30 31  1  0
 31 32  2  0
 32 33  1  0
 23 34  2  0
  9 35  1  0
  6  1  1  0
 34 11  1  0
 35  4  1  0
 21 17  1  0
 33 24  1  0
 32 27  1  0
  1 36  1  0
  2 37  1  0
  3 38  1  0
  6 39  1  0
  7 40  1  0
  7 41  1  0
  8 42  1  0
  8 43  1  0
  9 44  1  6
 10 45  1  0
 14 46  1  0
 15 47  1  0
 15 48  1  0
 16 49  1  0
 16 50  1  0
 17 51  1  1
 18 52  1  0
 18 53  1  0
 19 54  1  0
 19 55  1  0
 20 56  1  0
 20 57  1  0
 21 58  1  0
 25 59  1  0
 25 60  1  0
 26 61  1  0
 26 62  1  0
 28 63  1  0
 29 64  1  0
 30 65  1  0
 31 66  1  0
 33 67  1  0
 33 68  1  0
 35 69  1  0
 35 70  1  0
M  END
>  <smiles>  (90) 
c1ccc2c(c1)CCC(Nc1nc(NCCC3CCCN3)nc(N3CCc4ccccc4C3)n1)C2

>  <score_type>  (90) 
oracle

>  <origin>  (90) 
autodockgpu

>  <m_score__min__energy>  (90) 
-10.699999999999999

>  <m_primary>  (90) 
energy

>  <rmsd>  (90) 
11.851916883767018

>  <m_score__min__rmsd>  (90) 
11.851916883767018

>  <meeko>  (90) 
{"free_energy": -10.49, "intermolecular_energy": -12.58, "internal_energy": -1.37, "cluster_size": 19, "cluster_id": 1, "rank_in_cluster": 3}

>  <energy>  (90) 
-7.59

>  <cluster_rmsd>  (90) 
1.63

>  <cluster>  (90) 
5

$$$$

     RDKit          3D

 70 75  0  0  1  0  0  0  0  0999 V2000
  139.2590   68.7960  226.1630 C   0  0  0  0  0  0  0  0  0  0  0  0
  140.6000   69.1760  226.1480 C   0  0  0  0  0  0  0  0  0  0  0  0
  141.0590   70.1670  225.3050 C   0  0  0  0  0  0  0  0  0  0  0  0
  140.1920   70.8120  224.4480 C   0  0  0  0  0  0  0  0  0  0  0  0
  138.8570   70.4260  224.4720 C   0  0  0  0  0  0  0  0  0  0  0  0
  138.3780   69.4460  225.2990 C   0  0  0  0  0  0  0  0  0  0  0  0
  137.9670   71.1730  223.5090 C   0  0  0  0  0  0  0  0  0  0  0  0
  138.7350   71.0780  222.1860 C   0  0  0  0  0  0  0  0  0  0  0  0
  139.8930   72.0470  222.2960 C   0  0  1  0  0  0  0  0  0  0  0  0
  139.3180   73.3880  222.3460 N   0  0  0  0  0  0  0  0  0  0  0  0
  140.0740   74.5310  221.9130 C   0  0  0  0  0  0  0  0  0  0  0  0
  140.8230   74.5110  220.7950 N   0  0  0  0  0  0  0  0  0  0  0  0
  141.5130   75.5750  220.4140 C   0  0  0  0  0  0  0  0  0  0  0  0
  142.3160   75.5530  219.2160 N   0  0  0  0  0  0  0  0  0  0  0  0
  142.9710   76.7880  218.8270 C   0  0  0  0  0  0  0  0  0  0  0  0
  142.4710   77.2730  217.4830 C   0  0  0  0  0  0  0  0  0  0  0  0
  141.6850   78.5360  217.7020 C   0  0  2  0  0  0  0  0  0  0  0  0
  142.6280   79.5990  218.2280 C   0  0  0  0  0  0  0  0  0  0  0  0
  141.8290   80.2870  219.3110 C   0  0  0  0  0  0  0  0  0  0  0  0
  140.4360   79.7880  219.0680 C   0  0  0  0  0  0  0  0  0  0  0  0
  140.6700   78.3750  218.7290 N   0  0  0  0  0  0  0  0  0  0  0  0
  141.4660   76.6970  221.1600 N   0  0  0  0  0  0  0  0  0  0  0  0
  140.7310   76.7590  222.2800 C   0  0  0  0  0  0  0  0  0  0  0  0
  140.7000   77.9510  223.0450 N   0  0  0  0  0  0  0  0  0  0  0  0
  141.8140   78.3620  223.8550 C   0  0  0  0  0  0  0  0  0  0  0  0
  142.3380   79.7040  223.3980 C   0  0  0  0  0  0  0  0  0  0  0  0
  141.3140   80.5250  222.7240 C   0  0  0  0  0  0  0  0  0  0  0  0
  141.6810   81.7550  222.2500 C   0  0  0  0  0  0  0  0  0  0  0  0
  140.7450   82.5550  221.6100 C   0  0  0  0  0  0  0  0  0  0  0  0
  139.4420   82.1500  221.4320 C   0  0  0  0  0  0  0  0  0  0  0  0
  139.0650   80.9180  221.9050 C   0  0  0  0  0  0  0  0  0  0  0  0
  140.0070   80.1340  222.5380 C   0  0  0  0  0  0  0  0  0  0  0  0
  139.5250   78.7950  223.0300 C   0  0  0  0  0  0  0  0  0  0  0  0
  140.0460   75.6680  222.6390 N   0  0  0  0  0  0  0  0  0  0  0  0
  140.7020   71.8770  223.5490 C   0  0  0  0  0  0  0  0  0  0  0  0
  138.9047   68.0038  226.8389 H   0  0  0  0  0  0  0  0  0  0  0  0
  141.3084   68.6744  226.8236 H   0  0  0  0  0  0  0  0  0  0  0  0
  142.1234   70.4445  225.3164 H   0  0  0  0  0  0  0  0  0  0  0  0
  137.3121   69.1747  225.2823 H   0  0  0  0  0  0  0  0  0  0  0  0
  136.9804   70.6931  223.4289 H   0  0  0  0  0  0  0  0  0  0  0  0
  137.7648   72.2087  223.8197 H   0  0  0  0  0  0  0  0  0  0  0  0
  139.1081   70.0543  222.0349 H   0  0  0  0  0  0  0  0  0  0  0  0
  138.0888   71.3230  221.3302 H   0  0  0  0  0  0  0  0  0  0  0  0
  140.5598   71.8692  221.4394 H   0  0  0  0  0  0  0  0  0  0  0  0
  138.3470   73.5740  222.6920 H   0  0  0  0  0  0  0  0  0  0  0  0
  142.3970   74.6610  218.6760 H   0  0  0  0  0  0  0  0  0  0  0  0
  142.7652   77.5577  219.5855 H   0  0  0  0  0  0  0  0  0  0  0  0
  144.0519   76.5995  218.7492 H   0  0  0  0  0  0  0  0  0  0  0  0
  143.3244   77.4759  216.8193 H   0  0  0  0  0  0  0  0  0  0  0  0
  141.8359   76.5066  217.0148 H   0  0  0  0  0  0  0  0  0  0  0  0
  141.2138   78.7990  216.7434 H   0  0  0  0  0  0  0  0  0  0  0  0
  143.5393   79.1436  218.6429 H   0  0  0  0  0  0  0  0  0  0  0  0
  142.9667   80.2924  217.4441 H   0  0  0  0  0  0  0  0  0  0  0  0
  142.1848   79.9963  220.3105 H   0  0  0  0  0  0  0  0  0  0  0  0
  141.9092   81.3836  219.2797 H   0  0  0  0  0  0  0  0  0  0  0  0
  139.8141   79.8846  219.9702 H   0  0  0  0  0  0  0  0  0  0  0  0
  139.8951   80.3464  218.2898 H   0  0  0  0  0  0  0  0  0  0  0  0
  141.1040   77.9440  219.5680 H   0  0  0  0  0  0  0  0  0  0  0  0
  141.4899   78.4385  224.9034 H   0  0  0  0  0  0  0  0  0  0  0  0
  142.6169   77.6163  223.7582 H   0  0  0  0  0  0  0  0  0  0  0  0
  142.7055   80.2543  224.2767 H   0  0  0  0  0  0  0  0  0  0  0  0
  143.1384   79.5128  222.6681 H   0  0  0  0  0  0  0  0  0  0  0  0
  142.7150   82.1086  222.3759 H   0  0  0  0  0  0  0  0  0  0  0  0
  141.0536   83.5416  221.2340 H   0  0  0  0  0  0  0  0  0  0  0  0
  138.7171   82.8006  220.9209 H   0  0  0  0  0  0  0  0  0  0  0  0
  138.0313   80.5626  221.7817 H   0  0  0  0  0  0  0  0  0  0  0  0
  139.1019   78.8851  224.0414 H   0  0  0  0  0  0  0  0  0  0  0  0
  138.7311   78.3831  222.3896 H   0  0  0  0  0  0  0  0  0  0  0  0
  141.7346   71.6264  223.2645 H   0  0  0  0  0  0  0  0  0  0  0  0
  140.6381   72.8245  224.1042 H   0  0  0  0  0  0  0  0  0  0  0  0
  1  2  2  0
  2  3  1  0
  3  4  2  0
  4  5  1  0
  5  6  2  0
  5  7  1  0
  7  8  1  0
  8  9  1  0
  9 10  1  0
 10 11  1  0
 11 12  2  0
 12 13  1  0
 13 14  1  0
 14 15  1  0
 15 16  1  0
 16 17  1  0
 17 18  1  0
 18 19  1  0
 19 20  1  0
 20 21  1  0
 13 22  2  0
 22 23  1  0
 23 24  1  0
 24 25  1  0
 25 26  1  0
 26 27  1  0
 27 28  2  0
 28 29  1  0
 29 30  2  0
 30 31  1  0
 31 32  2  0
 32 33  1  0
 23 34  2  0
  9 35  1  0
  6  1  1  0
 34 11  1  0
 35  4  1  0
 21 17  1  0
 33 24  1  0
 32 27  1  0
  1 36  1  0
  2 37  1  0
  3 38  1  0
  6 39  1  0
  7 40  1  0
  7 41  1  0
  8 42  1  0
  8 43  1  0
  9 44  1  6
 10 45  1  0
 14 46  1  0
 15 47  1  0
 15 48  1  0
 16 49  1  0
 16 50  1  0
 17 51  1  6
 18 52  1  0
 18 53  1  0
 19 54  1  0
 19 55  1  0
 20 56  1  0
 20 57  1  0
 21 58  1  0
 25 59  1  0
 25 60  1  0
 26 61  1  0
 26 62  1  0
 28 63  1  0
 29 64  1  0
 30 65  1  0
 31 66  1  0
 33 67  1  0
 33 68  1  0
 35 69  1  0
 35 70  1  0
M  END
>  <smiles>  (91) 
c1ccc2c(c1)CCC(Nc1nc(NCCC3CCCN3)nc(N3CCc4ccccc4C3)n1)C2

>  <score_type>  (91) 
oracle

>  <origin>  (91) 
autodockgpu

>  <m_score__min__energy>  (91) 
-10.699999999999999

>  <m_primary>  (91) 
energy

>  <rmsd>  (91) 
11.135710464121225

>  <m_score__min__rmsd>  (91) 
11.135710464121225

>  <meeko>  (91) 
{"free_energy": -8.32, "intermolecular_energy": -10.41, "internal_energy": -2.64, "cluster_size": 10, "cluster_id": 2, "rank_in_cluster": 7}

>  <energy>  (91) 
-7.49

>  <cluster_rmsd>  (91) 
1.83

>  <cluster>  (91) 
5

$$$$

     RDKit          3D

 70 75  0  0  1  0  0  0  0  0999 V2000
  141.0320   69.9350  228.0350 C   0  0  0  0  0  0  0  0  0  0  0  0
  140.4180   68.7050  227.8000 C   0  0  0  0  0  0  0  0  0  0  0  0
  139.8640   68.3990  226.5740 C   0  0  0  0  0  0  0  0  0  0  0  0
  139.9030   69.3130  225.5420 C   0  0  0  0  0  0  0  0  0  0  0  0
  140.5170   70.5350  225.7870 C   0  0  0  0  0  0  0  0  0  0  0  0
  141.0750   70.8620  226.9940 C   0  0  0  0  0  0  0  0  0  0  0  0
  140.5220   71.4850  224.6140 C   0  0  0  0  0  0  0  0  0  0  0  0
  139.0590   71.4760  224.1570 C   0  0  0  0  0  0  0  0  0  0  0  0
  138.8450   70.1590  223.4430 C   0  0  1  0  0  0  0  0  0  0  0  0
  139.6570   70.2000  222.2290 N   0  0  0  0  0  0  0  0  0  0  0  0
  139.5550   71.3020  221.3120 C   0  0  0  0  0  0  0  0  0  0  0  0
  138.3790   71.8940  221.0330 N   0  0  0  0  0  0  0  0  0  0  0  0
  138.3070   72.9080  220.1840 C   0  0  0  0  0  0  0  0  0  0  0  0
  137.0460   73.5420  219.8870 N   0  0  0  0  0  0  0  0  0  0  0  0
  136.6280   74.6330  220.7470 C   0  0  0  0  0  0  0  0  0  0  0  0
  137.1730   74.4640  222.1490 C   0  0  0  0  0  0  0  0  0  0  0  0
  138.3940   75.3320  222.2860 C   0  0  2  0  0  0  0  0  0  0  0  0
  138.5060   76.1950  221.0460 C   0  0  0  0  0  0  0  0  0  0  0  0
  139.9820   76.1690  220.7210 C   0  0  0  0  0  0  0  0  0  0  0  0
  140.5900   75.5920  221.9630 C   0  0  0  0  0  0  0  0  0  0  0  0
  139.6170   74.5490  222.3260 N   0  0  0  0  0  0  0  0  0  0  0  0
  139.4310   73.3530  219.5880 N   0  0  0  0  0  0  0  0  0  0  0  0
  140.6230   72.7920  219.8390 C   0  0  0  0  0  0  0  0  0  0  0  0
  141.7880   73.2800  219.1980 N   0  0  0  0  0  0  0  0  0  0  0  0
  141.9640   74.6780  218.9070 C   0  0  0  0  0  0  0  0  0  0  0  0
  143.1850   75.2190  219.6140 C   0  0  0  0  0  0  0  0  0  0  0  0
  144.1980   74.1830  219.8920 C   0  0  0  0  0  0  0  0  0  0  0  0
  145.3400   74.5560  220.5480 C   0  0  0  0  0  0  0  0  0  0  0  0
  146.3150   73.6080  220.8280 C   0  0  0  0  0  0  0  0  0  0  0  0
  146.1730   72.2890  220.4650 C   0  0  0  0  0  0  0  0  0  0  0  0
  145.0300   71.9070  219.8070 C   0  0  0  0  0  0  0  0  0  0  0  0
  144.0700   72.8590  219.5360 C   0  0  0  0  0  0  0  0  0  0  0  0
  142.8440   72.3700  218.8130 C   0  0  0  0  0  0  0  0  0  0  0  0
  140.6630   71.7700  220.7000 N   0  0  0  0  0  0  0  0  0  0  0  0
  139.3030   68.9660  224.2290 C   0  0  0  0  0  0  0  0  0  0  0  0
  141.4711   70.1680  229.0163 H   0  0  0  0  0  0  0  0  0  0  0  0
  140.3744   67.9623  228.6102 H   0  0  0  0  0  0  0  0  0  0  0  0
  139.3881   67.4195  226.4187 H   0  0  0  0  0  0  0  0  0  0  0  0
  141.5508   71.8429  227.1405 H   0  0  0  0  0  0  0  0  0  0  0  0
  140.8334   72.4936  224.9234 H   0  0  0  0  0  0  0  0  0  0  0  0
  141.2257   71.1912  223.8212 H   0  0  0  0  0  0  0  0  0  0  0  0
  138.3882   71.5517  225.0255 H   0  0  0  0  0  0  0  0  0  0  0  0
  138.8411   72.3286  223.4969 H   0  0  0  0  0  0  0  0  0  0  0  0
  137.7651   70.0479  223.2654 H   0  0  0  0  0  0  0  0  0  0  0  0
  140.3360   69.4440  221.9780 H   0  0  0  0  0  0  0  0  0  0  0  0
  136.4840   73.1990  219.0750 H   0  0  0  0  0  0  0  0  0  0  0  0
  136.9985   75.5810  220.3298 H   0  0  0  0  0  0  0  0  0  0  0  0
  135.5292   74.6351  220.7981 H   0  0  0  0  0  0  0  0  0  0  0  0
  136.4136   74.7708  222.8833 H   0  0  0  0  0  0  0  0  0  0  0  0
  137.4329   73.4108  222.3315 H   0  0  0  0  0  0  0  0  0  0  0  0
  138.2841   75.9083  223.2165 H   0  0  0  0  0  0  0  0  0  0  0  0
  137.9153   75.7725  220.2198 H   0  0  0  0  0  0  0  0  0  0  0  0
  138.1223   77.2142  221.2009 H   0  0  0  0  0  0  0  0  0  0  0  0
  140.1836   75.5302  219.8485 H   0  0  0  0  0  0  0  0  0  0  0  0
  140.3860   77.1582  220.4596 H   0  0  0  0  0  0  0  0  0  0  0  0
  141.5809   75.1602  221.7591 H   0  0  0  0  0  0  0  0  0  0  0  0
  140.7618   76.3332  222.7575 H   0  0  0  0  0  0  0  0  0  0  0  0
  139.6110   73.8720  221.5380 H   0  0  0  0  0  0  0  0  0  0  0  0
  142.0872   74.8086  217.8217 H   0  0  0  0  0  0  0  0  0  0  0  0
  141.0783   75.2275  219.2584 H   0  0  0  0  0  0  0  0  0  0  0  0
  143.6414   75.9943  218.9811 H   0  0  0  0  0  0  0  0  0  0  0  0
  142.8525   75.6215  220.5822 H   0  0  0  0  0  0  0  0  0  0  0  0
  145.4848   75.6031  220.8523 H   0  0  0  0  0  0  0  0  0  0  0  0
  147.2280   73.9211  221.3557 H   0  0  0  0  0  0  0  0  0  0  0  0
  146.9590   71.5552  220.6970 H   0  0  0  0  0  0  0  0  0  0  0  0
  144.8828   70.8605  219.5016 H   0  0  0  0  0  0  0  0  0  0  0  0
  143.0007   72.3994  217.7246 H   0  0  0  0  0  0  0  0  0  0  0  0
  142.6030   71.3282  219.0709 H   0  0  0  0  0  0  0  0  0  0  0  0
  138.4362   68.3120  224.4049 H   0  0  0  0  0  0  0  0  0  0  0  0
  140.0873   68.4717  223.6369 H   0  0  0  0  0  0  0  0  0  0  0  0
  1  2  2  0
  2  3  1  0
  3  4  2  0
  4  5  1  0
  5  6  2  0
  5  7  1  0
  7  8  1  0
  8  9  1  0
  9 10  1  0
 10 11  1  0
 11 12  2  0
 12 13  1  0
 13 14  1  0
 14 15  1  0
 15 16  1  0
 16 17  1  0
 17 18  1  0
 18 19  1  0
 19 20  1  0
 20 21  1  0
 13 22  2  0
 22 23  1  0
 23 24  1  0
 24 25  1  0
 25 26  1  0
 26 27  1  0
 27 28  2  0
 28 29  1  0
 29 30  2  0
 30 31  1  0
 31 32  2  0
 32 33  1  0
 23 34  2  0
  9 35  1  0
  6  1  1  0
 34 11  1  0
 35  4  1  0
 21 17  1  0
 33 24  1  0
 32 27  1  0
  1 36  1  0
  2 37  1  0
  3 38  1  0
  6 39  1  0
  7 40  1  0
  7 41  1  0
  8 42  1  0
  8 43  1  0
  9 44  1  6
 10 45  1  0
 14 46  1  0
 15 47  1  0
 15 48  1  0
 16 49  1  0
 16 50  1  0
 17 51  1  1
 18 52  1  0
 18 53  1  0
 19 54  1  0
 19 55  1  0
 20 56  1  0
 20 57  1  0
 21 58  1  0
 25 59  1  0
 25 60  1  0
 26 61  1  0
 26 62  1  0
 28 63  1  0
 29 64  1  0
 30 65  1  0
 31 66  1  0
 33 67  1  0
 33 68  1  0
 35 69  1  0
 35 70  1  0
M  END
>  <smiles>  (92) 
c1ccc2c(c1)CCC(Nc1nc(NCCC3CCCN3)nc(N3CCc4ccccc4C3)n1)C2

>  <score_type>  (92) 
oracle

>  <origin>  (92) 
autodockgpu

>  <m_score__min__energy>  (92) 
-10.699999999999999

>  <m_primary>  (92) 
energy

>  <rmsd>  (92) 
11.873935681208016

>  <m_score__min__rmsd>  (92) 
11.873935681208016

>  <meeko>  (92) 
{"free_energy": -7.5, "intermolecular_energy": -9.59, "internal_energy": -3.4, "cluster_size": 2, "cluster_id": 7, "rank_in_cluster": 1}

>  <energy>  (92) 
-8.57

>  <cluster_rmsd>  (92) 
0.0

>  <cluster>  (92) 
6

$$$$

     RDKit          3D

 70 75  0  0  1  0  0  0  0  0999 V2000
  139.8410   68.4560  227.7060 C   0  0  0  0  0  0  0  0  0  0  0  0
  140.8050   69.4180  228.0060 C   0  0  0  0  0  0  0  0  0  0  0  0
  141.0910   70.4480  227.1350 C   0  0  0  0  0  0  0  0  0  0  0  0
  140.4230   70.5520  225.9330 C   0  0  0  0  0  0  0  0  0  0  0  0
  139.4650   69.5890  225.6430 C   0  0  0  0  0  0  0  0  0  0  0  0
  139.1630   68.5580  226.4910 C   0  0  0  0  0  0  0  0  0  0  0  0
  138.7750   69.7650  224.3120 C   0  0  0  0  0  0  0  0  0  0  0  0
  139.9460   69.9510  223.3400 C   0  0  0  0  0  0  0  0  0  0  0  0
  140.4670   71.3550  223.5670 C   0  0  1  0  0  0  0  0  0  0  0  0
  139.4160   72.2700  223.1300 N   0  0  0  0  0  0  0  0  0  0  0  0
  139.6370   73.1760  222.0360 C   0  0  0  0  0  0  0  0  0  0  0  0
  139.9320   72.7430  220.7970 N   0  0  0  0  0  0  0  0  0  0  0  0
  140.1320   73.5950  219.8030 C   0  0  0  0  0  0  0  0  0  0  0  0
  140.4490   73.1290  218.4750 N   0  0  0  0  0  0  0  0  0  0  0  0
  141.7740   72.5810  218.2590 C   0  0  0  0  0  0  0  0  0  0  0  0
  142.7380   73.0370  219.3340 C   0  0  0  0  0  0  0  0  0  0  0  0
  143.3590   74.3320  218.8900 C   0  0  2  0  0  0  0  0  0  0  0  0
  143.6340   75.1750  220.1180 C   0  0  0  0  0  0  0  0  0  0  0  0
  143.2220   76.5680  219.6990 C   0  0  0  0  0  0  0  0  0  0  0  0
  143.0790   76.4430  218.2120 C   0  0  0  0  0  0  0  0  0  0  0  0
  142.4510   75.1200  218.0730 N   0  0  0  0  0  0  0  0  0  0  0  0
  140.0390   74.9190  220.0370 N   0  0  0  0  0  0  0  0  0  0  0  0
  139.7460   75.3930  221.2570 C   0  0  0  0  0  0  0  0  0  0  0  0
  139.6550   76.7890  221.4750 N   0  0  0  0  0  0  0  0  0  0  0  0
  140.0540   77.3910  222.7180 C   0  0  0  0  0  0  0  0  0  0  0  0
  141.1730   78.3820  222.4950 C   0  0  0  0  0  0  0  0  0  0  0  0
  141.1780   78.9490  221.1330 C   0  0  0  0  0  0  0  0  0  0  0  0
  142.1620   79.8450  220.8110 C   0  0  0  0  0  0  0  0  0  0  0  0
  142.1990   80.3990  219.5390 C   0  0  0  0  0  0  0  0  0  0  0  0
  141.2720   80.0750  218.5760 C   0  0  0  0  0  0  0  0  0  0  0  0
  140.2830   79.1770  218.8920 C   0  0  0  0  0  0  0  0  0  0  0  0
  140.2580   78.6350  220.1580 C   0  0  0  0  0  0  0  0  0  0  0  0
  139.1470   77.6570  220.4340 C   0  0  0  0  0  0  0  0  0  0  0  0
  139.5500   74.5080  222.2400 N   0  0  0  0  0  0  0  0  0  0  0  0
  140.7430   71.6690  225.0080 C   0  0  0  0  0  0  0  0  0  0  0  0
  139.6211   67.6386  228.4085 H   0  0  0  0  0  0  0  0  0  0  0  0
  141.3498   69.3537  228.9594 H   0  0  0  0  0  0  0  0  0  0  0  0
  141.8569   71.1915  227.4006 H   0  0  0  0  0  0  0  0  0  0  0  0
  138.3953   67.8190  226.2180 H   0  0  0  0  0  0  0  0  0  0  0  0
  138.1831   68.8749  224.0525 H   0  0  0  0  0  0  0  0  0  0  0  0
  138.0633   70.6036  224.2996 H   0  0  0  0  0  0  0  0  0  0  0  0
  140.7350   69.2135  223.5485 H   0  0  0  0  0  0  0  0  0  0  0  0
  139.6273   69.8062  222.2972 H   0  0  0  0  0  0  0  0  0  0  0  0
  141.4142   71.4531  223.0164 H   0  0  0  0  0  0  0  0  0  0  0  0
  138.4740   72.3070  223.5850 H   0  0  0  0  0  0  0  0  0  0  0  0
  139.7250   73.2010  217.7250 H   0  0  0  0  0  0  0  0  0  0  0  0
  141.7145   71.4827  218.2730 H   0  0  0  0  0  0  0  0  0  0  0  0
  142.1436   72.9374  217.2862 H   0  0  0  0  0  0  0  0  0  0  0  0
  142.1967   73.1886  220.2795 H   0  0  0  0  0  0  0  0  0  0  0  0
  143.5172   72.2769  219.4927 H   0  0  0  0  0  0  0  0  0  0  0  0
  144.2630   74.0815  218.3156 H   0  0  0  0  0  0  0  0  0  0  0  0
  143.0342   74.8294  220.9729 H   0  0  0  0  0  0  0  0  0  0  0  0
  144.6832   75.1218  220.4442 H   0  0  0  0  0  0  0  0  0  0  0  0
  142.2681   76.8555  220.1654 H   0  0  0  0  0  0  0  0  0  0  0  0
  143.9413   77.3430  220.0022 H   0  0  0  0  0  0  0  0  0  0  0  0
  142.4343   77.2358  217.8048 H   0  0  0  0  0  0  0  0  0  0  0  0
  144.0289   76.5416  217.6662 H   0  0  0  0  0  0  0  0  0  0  0  0
  141.5330   75.1840  218.5550 H   0  0  0  0  0  0  0  0  0  0  0  0
  139.1922   77.9125  223.1600 H   0  0  0  0  0  0  0  0  0  0  0  0
  140.4100   76.6013  223.3959 H   0  0  0  0  0  0  0  0  0  0  0  0
  141.0617   79.2046  223.2167 H   0  0  0  0  0  0  0  0  0  0  0  0
  142.1221   77.8426  222.6303 H   0  0  0  0  0  0  0  0  0  0  0  0
  142.9201   80.1246  221.5574 H   0  0  0  0  0  0  0  0  0  0  0  0
  142.9937   81.1189  219.2936 H   0  0  0  0  0  0  0  0  0  0  0  0
  141.3221   80.5259  217.5739 H   0  0  0  0  0  0  0  0  0  0  0  0
  139.5239   78.8953  218.1474 H   0  0  0  0  0  0  0  0  0  0  0  0
  138.2452   78.1847  220.7778 H   0  0  0  0  0  0  0  0  0  0  0  0
  138.8613   77.0945  219.5329 H   0  0  0  0  0  0  0  0  0  0  0  0
  141.8108   71.9117  225.1124 H   0  0  0  0  0  0  0  0  0  0  0  0
  140.0927   72.5121  225.2841 H   0  0  0  0  0  0  0  0  0  0  0  0
  1  2  2  0
  2  3  1  0
  3  4  2  0
  4  5  1  0
  5  6  2  0
  5  7  1  0
  7  8  1  0
  8  9  1  0
  9 10  1  0
 10 11  1  0
 11 12  2  0
 12 13  1  0
 13 14  1  0
 14 15  1  0
 15 16  1  0
 16 17  1  0
 17 18  1  0
 18 19  1  0
 19 20  1  0
 20 21  1  0
 13 22  2  0
 22 23  1  0
 23 24  1  0
 24 25  1  0
 25 26  1  0
 26 27  1  0
 27 28  2  0
 28 29  1  0
 29 30  2  0
 30 31  1  0
 31 32  2  0
 32 33  1  0
 23 34  2  0
  9 35  1  0
  6  1  1  0
 34 11  1  0
 35  4  1  0
 21 17  1  0
 33 24  1  0
 32 27  1  0
  1 36  1  0
  2 37  1  0
  3 38  1  0
  6 39  1  0
  7 40  1  0
  7 41  1  0
  8 42  1  0
  8 43  1  0
  9 44  1  6
 10 45  1  0
 14 46  1  0
 15 47  1  0
 15 48  1  0
 16 49  1  0
 16 50  1  0
 17 51  1  6
 18 52  1  0
 18 53  1  0
 19 54  1  0
 19 55  1  0
 20 56  1  0
 20 57  1  0
 21 58  1  0
 25 59  1  0
 25 60  1  0
 26 61  1  0
 26 62  1  0
 28 63  1  0
 29 64  1  0
 30 65  1  0
 31 66  1  0
 33 67  1  0
 33 68  1  0
 35 69  1  0
 35 70  1  0
M  END
>  <smiles>  (93) 
c1ccc2c(c1)CCC(Nc1nc(NCCC3CCCN3)nc(N3CCc4ccccc4C3)n1)C2

>  <score_type>  (93) 
oracle

>  <origin>  (93) 
autodockgpu

>  <m_score__min__energy>  (93) 
-10.699999999999999

>  <m_primary>  (93) 
energy

>  <rmsd>  (93) 
11.830584234862712

>  <m_score__min__rmsd>  (93) 
11.830584234862712

>  <meeko>  (93) 
{"free_energy": -7.39, "intermolecular_energy": -9.48, "internal_energy": -2.88, "cluster_size": 10, "cluster_id": 2, "rank_in_cluster": 10}

>  <energy>  (93) 
-7.5

>  <cluster_rmsd>  (93) 
0.0

>  <cluster>  (93) 
7

$$$$

     RDKit          3D

 70 75  0  0  1  0  0  0  0  0999 V2000
  139.8920   68.5390  228.1050 C   0  0  0  0  0  0  0  0  0  0  0  0
  140.9370   69.4340  228.3340 C   0  0  0  0  0  0  0  0  0  0  0  0
  141.2640   70.4110  227.4160 C   0  0  0  0  0  0  0  0  0  0  0  0
  140.5570   70.5260  226.2380 C   0  0  0  0  0  0  0  0  0  0  0  0
  139.5180   69.6300  226.0190 C   0  0  0  0  0  0  0  0  0  0  0  0
  139.1740   68.6530  226.9140 C   0  0  0  0  0  0  0  0  0  0  0  0
  138.7900   69.8150  224.7100 C   0  0  0  0  0  0  0  0  0  0  0  0
  139.9310   69.8790  223.6880 C   0  0  0  0  0  0  0  0  0  0  0  0
  140.5650   71.2450  223.8440 C   0  0  1  0  0  0  0  0  0  0  0  0
  139.5690   72.2240  223.4150 N   0  0  0  0  0  0  0  0  0  0  0  0
  139.7750   73.0160  222.2340 C   0  0  0  0  0  0  0  0  0  0  0  0
  140.1710   72.4720  221.0690 N   0  0  0  0  0  0  0  0  0  0  0  0
  140.3560   73.2190  219.9920 C   0  0  0  0  0  0  0  0  0  0  0  0
  140.7810   72.6340  218.7430 N   0  0  0  0  0  0  0  0  0  0  0  0
  142.1380   72.1260  218.6720 C   0  0  0  0  0  0  0  0  0  0  0  0
  143.0300   72.8020  219.6910 C   0  0  0  0  0  0  0  0  0  0  0  0
  143.6200   74.0310  219.0570 C   0  0  2  0  0  0  0  0  0  0  0  0
  144.0720   74.9660  220.1600 C   0  0  0  0  0  0  0  0  0  0  0  0
  143.6440   76.3320  219.6730 C   0  0  0  0  0  0  0  0  0  0  0  0
  143.3080   76.0850  218.2330 C   0  0  0  0  0  0  0  0  0  0  0  0
  142.6350   74.7780  218.2940 N   0  0  0  0  0  0  0  0  0  0  0  0
  140.1450   74.5490  220.0640 N   0  0  0  0  0  0  0  0  0  0  0  0
  139.7490   75.1310  221.2060 C   0  0  0  0  0  0  0  0  0  0  0  0
  139.5350   76.5300  221.2540 N   0  0  0  0  0  0  0  0  0  0  0  0
  138.3670   77.0980  221.8700 C   0  0  0  0  0  0  0  0  0  0  0  0
  138.7560   77.9990  223.0180 C   0  0  0  0  0  0  0  0  0  0  0  0
  140.1110   78.5660  222.8750 C   0  0  0  0  0  0  0  0  0  0  0  0
  140.5770   79.3840  223.8680 C   0  0  0  0  0  0  0  0  0  0  0  0
  141.8470   79.9340  223.7680 C   0  0  0  0  0  0  0  0  0  0  0  0
  142.6660   79.6830  222.6910 C   0  0  0  0  0  0  0  0  0  0  0  0
  142.2050   78.8640  221.6910 C   0  0  0  0  0  0  0  0  0  0  0  0
  140.9420   78.3240  221.8040 C   0  0  0  0  0  0  0  0  0  0  0  0
  140.5020   77.4350  220.6720 C   0  0  0  0  0  0  0  0  0  0  0  0
  139.5720   74.3490  222.2760 N   0  0  0  0  0  0  0  0  0  0  0  0
  140.9220   71.5840  225.2620 C   0  0  0  0  0  0  0  0  0  0  0  0
  139.6405   67.7638  228.8438 H   0  0  0  0  0  0  0  0  0  0  0  0
  141.5136   69.3593  229.2678 H   0  0  0  0  0  0  0  0  0  0  0  0
  142.0937   71.1022  227.6254 H   0  0  0  0  0  0  0  0  0  0  0  0
  138.3422   67.9666  226.6971 H   0  0  0  0  0  0  0  0  0  0  0  0
  138.1226   68.9649  224.5050 H   0  0  0  0  0  0  0  0  0  0  0  0
  138.1437   70.7050  224.6950 H   0  0  0  0  0  0  0  0  0  0  0  0
  140.6702   69.0904  223.8925 H   0  0  0  0  0  0  0  0  0  0  0  0
  139.5597   69.7251  222.6641 H   0  0  0  0  0  0  0  0  0  0  0  0
  141.4935   71.2518  223.2542 H   0  0  0  0  0  0  0  0  0  0  0  0
  138.6770   72.3900  223.9400 H   0  0  0  0  0  0  0  0  0  0  0  0
  140.1080   72.5980  217.9440 H   0  0  0  0  0  0  0  0  0  0  0  0
  142.1265   71.0435  218.8673 H   0  0  0  0  0  0  0  0  0  0  0  0
  142.5359   72.3350  217.6680 H   0  0  0  0  0  0  0  0  0  0  0  0
  142.4383   73.0859  220.5737 H   0  0  0  0  0  0  0  0  0  0  0  0
  143.8300   72.1174  220.0093 H   0  0  0  0  0  0  0  0  0  0  0  0
  144.4355   73.6994  218.3974 H   0  0  0  0  0  0  0  0  0  0  0  0
  143.5791   74.7170  221.1113 H   0  0  0  0  0  0  0  0  0  0  0  0
  145.1528   74.9032  220.3545 H   0  0  0  0  0  0  0  0  0  0  0  0
  142.7654   76.6925  220.2280 H   0  0  0  0  0  0  0  0  0  0  0  0
  144.4152   77.1039  219.8126 H   0  0  0  0  0  0  0  0  0  0  0  0
  142.6359   76.8624  217.8407 H   0  0  0  0  0  0  0  0  0  0  0  0
  144.1818   76.1024  217.5651 H   0  0  0  0  0  0  0  0  0  0  0  0
  141.7880   74.9150  218.8800 H   0  0  0  0  0  0  0  0  0  0  0  0
  137.8128   77.6842  221.1222 H   0  0  0  0  0  0  0  0  0  0  0  0
  137.7381   76.2825  222.2567 H   0  0  0  0  0  0  0  0  0  0  0  0
  138.0340   78.8270  223.0734 H   0  0  0  0  0  0  0  0  0  0  0  0
  138.7512   77.3868  223.9319 H   0  0  0  0  0  0  0  0  0  0  0  0
  139.9471   79.6048  224.7424 H   0  0  0  0  0  0  0  0  0  0  0  0
  142.2097   80.5898  224.5732 H   0  0  0  0  0  0  0  0  0  0  0  0
  143.6696   80.1297  222.6328 H   0  0  0  0  0  0  0  0  0  0  0  0
  142.8323   78.6425  220.8149 H   0  0  0  0  0  0  0  0  0  0  0  0
  140.0396   78.0306  219.8711 H   0  0  0  0  0  0  0  0  0  0  0  0
  141.3479   76.8970  220.2192 H   0  0  0  0  0  0  0  0  0  0  0  0
  142.0084   71.7477  225.3171 H   0  0  0  0  0  0  0  0  0  0  0  0
  140.3483   72.4828  225.5322 H   0  0  0  0  0  0  0  0  0  0  0  0
  1  2  2  0
  2  3  1  0
  3  4  2  0
  4  5  1  0
  5  6  2  0
  5  7  1  0
  7  8  1  0
  8  9  1  0
  9 10  1  0
 10 11  1  0
 11 12  2  0
 12 13  1  0
 13 14  1  0
 14 15  1  0
 15 16  1  0
 16 17  1  0
 17 18  1  0
 18 19  1  0
 19 20  1  0
 20 21  1  0
 13 22  2  0
 22 23  1  0
 23 24  1  0
 24 25  1  0
 25 26  1  0
 26 27  1  0
 27 28  2  0
 28 29  1  0
 29 30  2  0
 30 31  1  0
 31 32  2  0
 32 33  1  0
 23 34  2  0
  9 35  1  0
  6  1  1  0
 34 11  1  0
 35  4  1  0
 21 17  1  0
 33 24  1  0
 32 27  1  0
  1 36  1  0
  2 37  1  0
  3 38  1  0
  6 39  1  0
  7 40  1  0
  7 41  1  0
  8 42  1  0
  8 43  1  0
  9 44  1  6
 10 45  1  0
 14 46  1  0
 15 47  1  0
 15 48  1  0
 16 49  1  0
 16 50  1  0
 17 51  1  6
 18 52  1  0
 18 53  1  0
 19 54  1  0
 19 55  1  0
 20 56  1  0
 20 57  1  0
 21 58  1  0
 25 59  1  0
 25 60  1  0
 26 61  1  0
 26 62  1  0
 28 63  1  0
 29 64  1  0
 30 65  1  0
 31 66  1  0
 33 67  1  0
 33 68  1  0
 35 69  1  0
 35 70  1  0
M  END
>  <smiles>  (94) 
c1ccc2c(c1)CCC(Nc1nc(NCCC3CCCN3)nc(N3CCc4ccccc4C3)n1)C2

>  <score_type>  (94) 
oracle

>  <origin>  (94) 
autodockgpu

>  <m_score__min__energy>  (94) 
-10.699999999999999

>  <m_primary>  (94) 
energy

>  <rmsd>  (94) 
11.957355833227101

>  <m_score__min__rmsd>  (94) 
11.957355833227101

>  <meeko>  (94) 
{"free_energy": -8.74, "intermolecular_energy": -10.83, "internal_energy": -2.5, "cluster_size": 10, "cluster_id": 2, "rank_in_cluster": 4}

>  <energy>  (94) 
-7.22

>  <cluster_rmsd>  (94) 
0.89

>  <cluster>  (94) 
7

$$$$

     RDKit          3D

 70 75  0  0  1  0  0  0  0  0999 V2000
  139.3210   68.6900  226.1360 C   0  0  0  0  0  0  0  0  0  0  0  0
  140.6260   69.1740  226.2100 C   0  0  0  0  0  0  0  0  0  0  0  0
  141.0590   70.2040  225.4010 C   0  0  0  0  0  0  0  0  0  0  0  0
  140.2020   70.7860  224.4910 C   0  0  0  0  0  0  0  0  0  0  0  0
  138.9030   70.2960  224.4260 C   0  0  0  0  0  0  0  0  0  0  0  0
  138.4490   69.2760  225.2180 C   0  0  0  0  0  0  0  0  0  0  0  0
  138.0220   70.9790  223.4080 C   0  0  0  0  0  0  0  0  0  0  0  0
  138.8800   70.9540  222.1380 C   0  0  0  0  0  0  0  0  0  0  0  0
  139.9480   72.0100  222.3270 C   0  0  1  0  0  0  0  0  0  0  0  0
  139.2670   73.3020  222.3410 N   0  0  0  0  0  0  0  0  0  0  0  0
  139.9030   74.4760  221.8110 C   0  0  0  0  0  0  0  0  0  0  0  0
  140.4430   74.5020  220.5780 N   0  0  0  0  0  0  0  0  0  0  0  0
  141.0250   75.5950  220.1080 C   0  0  0  0  0  0  0  0  0  0  0  0
  141.6030   75.6200  218.7860 N   0  0  0  0  0  0  0  0  0  0  0  0
  143.0300   75.8610  218.6870 C   0  0  0  0  0  0  0  0  0  0  0  0
  143.7420   75.4680  219.9650 C   0  0  0  0  0  0  0  0  0  0  0  0
  144.0430   73.9960  219.9010 C   0  0  2  0  0  0  0  0  0  0  0  0
  145.1350   73.6890  220.9060 C   0  0  0  0  0  0  0  0  0  0  0  0
  146.0410   72.7280  220.1710 C   0  0  0  0  0  0  0  0  0  0  0  0
  145.2180   72.3320  218.9830 C   0  0  0  0  0  0  0  0  0  0  0  0
  144.5820   73.6050  218.6100 N   0  0  0  0  0  0  0  0  0  0  0  0
  141.0780   76.7000  220.8780 N   0  0  0  0  0  0  0  0  0  0  0  0
  140.5520   76.7160  222.1110 C   0  0  0  0  0  0  0  0  0  0  0  0
  140.6230   77.8920  222.8990 N   0  0  0  0  0  0  0  0  0  0  0  0
  141.7890   78.2150  223.6750 C   0  0  0  0  0  0  0  0  0  0  0  0
  142.3810   79.5300  223.2250 C   0  0  0  0  0  0  0  0  0  0  0  0
  141.3880   80.4280  222.6040 C   0  0  0  0  0  0  0  0  0  0  0  0
  141.8170   81.6420  222.1400 C   0  0  0  0  0  0  0  0  0  0  0  0
  140.9110   82.5120  221.5490 C   0  0  0  0  0  0  0  0  0  0  0  0
  139.5800   82.1940  221.4110 C   0  0  0  0  0  0  0  0  0  0  0  0
  139.1420   80.9780  221.8740 C   0  0  0  0  0  0  0  0  0  0  0  0
  140.0530   80.1240  222.4580 C   0  0  0  0  0  0  0  0  0  0  0  0
  139.5050   78.8090  222.9420 C   0  0  0  0  0  0  0  0  0  0  0  0
  139.9720   75.5980  222.5580 N   0  0  0  0  0  0  0  0  0  0  0  0
  140.6850   71.8950  223.6290 C   0  0  0  0  0  0  0  0  0  0  0  0
  138.9871   67.8669  226.7849 H   0  0  0  0  0  0  0  0  0  0  0  0
  141.3262   68.7246  226.9296 H   0  0  0  0  0  0  0  0  0  0  0  0
  142.0954   70.5636  225.4824 H   0  0  0  0  0  0  0  0  0  0  0  0
  137.4107   68.9231  225.1318 H   0  0  0  0  0  0  0  0  0  0  0  0
  137.0833   70.4245  223.2620 H   0  0  0  0  0  0  0  0  0  0  0  0
  137.7197   71.9934  223.7072 H   0  0  0  0  0  0  0  0  0  0  0  0
  139.3417   69.9639  222.0095 H   0  0  0  0  0  0  0  0  0  0  0  0
  138.2742   71.1535  221.2418 H   0  0  0  0  0  0  0  0  0  0  0  0
  140.6816   71.8911  221.5160 H   0  0  0  0  0  0  0  0  0  0  0  0
  138.3030   73.4280  222.7320 H   0  0  0  0  0  0  0  0  0  0  0  0
  140.9840   75.4680  217.9580 H   0  0  0  0  0  0  0  0  0  0  0  0
  143.4367   75.2698  217.8533 H   0  0  0  0  0  0  0  0  0  0  0  0
  143.1906   76.9356  218.5151 H   0  0  0  0  0  0  0  0  0  0  0  0
  144.6793   76.0361  220.0590 H   0  0  0  0  0  0  0  0  0  0  0  0
  143.1083   75.6889  220.8366 H   0  0  0  0  0  0  0  0  0  0  0  0
  143.1017   73.4606  220.0943 H   0  0  0  0  0  0  0  0  0  0  0  0
  145.6783   74.6035  221.1860 H   0  0  0  0  0  0  0  0  0  0  0  0
  144.7437   73.2711  221.8453 H   0  0  0  0  0  0  0  0  0  0  0  0
  146.9728   73.2227  219.8595 H   0  0  0  0  0  0  0  0  0  0  0  0
  146.3554   71.8718  220.7859 H   0  0  0  0  0  0  0  0  0  0  0  0
  145.8507   71.9483  218.1691 H   0  0  0  0  0  0  0  0  0  0  0  0
  144.5015   71.5236  219.1908 H   0  0  0  0  0  0  0  0  0  0  0  0
  145.3550   74.2520  218.3580 H   0  0  0  0  0  0  0  0  0  0  0  0
  141.5078   78.2895  224.7358 H   0  0  0  0  0  0  0  0  0  0  0  0
  142.5387   77.4225  223.5343 H   0  0  0  0  0  0  0  0  0  0  0  0
  142.8133   80.0373  224.1001 H   0  0  0  0  0  0  0  0  0  0  0  0
  143.1418   79.3044  222.4632 H   0  0  0  0  0  0  0  0  0  0  0  0
  142.8752   81.9271  222.2350 H   0  0  0  0  0  0  0  0  0  0  0  0
  141.2682   83.4848  221.1800 H   0  0  0  0  0  0  0  0  0  0  0  0
  138.8805   82.8998  220.9392 H   0  0  0  0  0  0  0  0  0  0  0  0
  138.0843   80.6907  221.7807 H   0  0  0  0  0  0  0  0  0  0  0  0
  139.1242   78.9048  223.9695 H   0  0  0  0  0  0  0  0  0  0  0  0
  138.6648   78.4614  222.3229 H   0  0  0  0  0  0  0  0  0  0  0  0
  141.7503   71.7277  223.4118 H   0  0  0  0  0  0  0  0  0  0  0  0
  140.5119   72.8307  224.1808 H   0  0  0  0  0  0  0  0  0  0  0  0
  1  2  2  0
  2  3  1  0
  3  4  2  0
  4  5  1  0
  5  6  2  0
  5  7  1  0
  7  8  1  0
  8  9  1  0
  9 10  1  0
 10 11  1  0
 11 12  2  0
 12 13  1  0
 13 14  1  0
 14 15  1  0
 15 16  1  0
 16 17  1  0
 17 18  1  0
 18 19  1  0
 19 20  1  0
 20 21  1  0
 13 22  2  0
 22 23  1  0
 23 24  1  0
 24 25  1  0
 25 26  1  0
 26 27  1  0
 27 28  2  0
 28 29  1  0
 29 30  2  0
 30 31  1  0
 31 32  2  0
 32 33  1  0
 23 34  2  0
  9 35  1  0
  6  1  1  0
 34 11  1  0
 35  4  1  0
 21 17  1  0
 33 24  1  0
 32 27  1  0
  1 36  1  0
  2 37  1  0
  3 38  1  0
  6 39  1  0
  7 40  1  0
  7 41  1  0
  8 42  1  0
  8 43  1  0
  9 44  1  6
 10 45  1  0
 14 46  1  0
 15 47  1  0
 15 48  1  0
 16 49  1  0
 16 50  1  0
 17 51  1  1
 18 52  1  0
 18 53  1  0
 19 54  1  0
 19 55  1  0
 20 56  1  0
 20 57  1  0
 21 58  1  0
 25 59  1  0
 25 60  1  0
 26 61  1  0
 26 62  1  0
 28 63  1  0
 29 64  1  0
 30 65  1  0
 31 66  1  0
 33 67  1  0
 33 68  1  0
 35 69  1  0
 35 70  1  0
M  END
>  <smiles>  (95) 
c1ccc2c(c1)CCC(Nc1nc(NCCC3CCCN3)nc(N3CCc4ccccc4C3)n1)C2

>  <score_type>  (95) 
oracle

>  <origin>  (95) 
autodockgpu

>  <m_score__min__energy>  (95) 
-10.699999999999999

>  <m_primary>  (95) 
energy

>  <rmsd>  (95) 
11.180887023646116

>  <m_score__min__rmsd>  (95) 
11.180887023646116

>  <meeko>  (95) 
{"free_energy": -9.63, "intermolecular_energy": -11.71, "internal_energy": -1.32, "cluster_size": 10, "cluster_id": 2, "rank_in_cluster": 2}

>  <energy>  (95) 
-7.41

>  <cluster_rmsd>  (95) 
0.0

>  <cluster>  (95) 
8

$$$$

     RDKit          3D

 70 75  0  0  1  0  0  0  0  0999 V2000
  139.5410   68.8840  226.3960 C   0  0  0  0  0  0  0  0  0  0  0  0
  140.8370   69.3990  226.3740 C   0  0  0  0  0  0  0  0  0  0  0  0
  141.2030   70.3900  225.4870 C   0  0  0  0  0  0  0  0  0  0  0  0
  140.2870   70.8990  224.5910 C   0  0  0  0  0  0  0  0  0  0  0  0
  138.9990   70.3790  224.6210 C   0  0  0  0  0  0  0  0  0  0  0  0
  138.6110   69.3960  225.4920 C   0  0  0  0  0  0  0  0  0  0  0  0
  138.0510   70.9820  223.6140 C   0  0  0  0  0  0  0  0  0  0  0  0
  138.8440   70.9020  222.3040 C   0  0  0  0  0  0  0  0  0  0  0  0
  139.8940   71.9900  222.3770 C   0  0  1  0  0  0  0  0  0  0  0  0
  139.1830   73.2650  222.3540 N   0  0  0  0  0  0  0  0  0  0  0  0
  139.7750   74.4280  221.7510 C   0  0  0  0  0  0  0  0  0  0  0  0
  140.2660   74.4120  220.4980 N   0  0  0  0  0  0  0  0  0  0  0  0
  140.8080   75.4940  219.9610 C   0  0  0  0  0  0  0  0  0  0  0  0
  141.3350   75.4760  218.6180 N   0  0  0  0  0  0  0  0  0  0  0  0
  142.7200   75.8680  218.4390 C   0  0  0  0  0  0  0  0  0  0  0  0
  142.9440   77.3010  218.8720 C   0  0  0  0  0  0  0  0  0  0  0  0
  142.0940   78.1910  218.0070 C   0  0  2  0  0  0  0  0  0  0  0  0
  142.5870   79.6150  218.1600 C   0  0  0  0  0  0  0  0  0  0  0  0
  141.3170   80.4300  218.2410 C   0  0  0  0  0  0  0  0  0  0  0  0
  140.2660   79.4580  217.7980 C   0  0  0  0  0  0  0  0  0  0  0  0
  140.7080   78.2110  218.4420 N   0  0  0  0  0  0  0  0  0  0  0  0
  140.8700   76.6310  220.6830 N   0  0  0  0  0  0  0  0  0  0  0  0
  140.3910   76.6900  221.9340 C   0  0  0  0  0  0  0  0  0  0  0  0
  140.4690   77.8980  222.6690 N   0  0  0  0  0  0  0  0  0  0  0  0
  141.6130   78.2200  223.4800 C   0  0  0  0  0  0  0  0  0  0  0  0
  142.2670   79.4930  222.9960 C   0  0  0  0  0  0  0  0  0  0  0  0
  141.3320   80.3920  222.2920 C   0  0  0  0  0  0  0  0  0  0  0  0
  141.8210   81.5690  221.7920 C   0  0  0  0  0  0  0  0  0  0  0  0
  140.9700   82.4390  221.1240 C   0  0  0  0  0  0  0  0  0  0  0  0
  139.6360   82.1570  220.9420 C   0  0  0  0  0  0  0  0  0  0  0  0
  139.1390   80.9790  221.4410 C   0  0  0  0  0  0  0  0  0  0  0  0
  139.9950   80.1240  222.1020 C   0  0  0  0  0  0  0  0  0  0  0  0
  139.3820   78.8510  222.6220 C   0  0  0  0  0  0  0  0  0  0  0  0
  139.8510   75.5810  222.4480 N   0  0  0  0  0  0  0  0  0  0  0  0
  140.6980   71.9660  223.6440 C   0  0  0  0  0  0  0  0  0  0  0  0
  139.2598   68.0942  227.1082 H   0  0  0  0  0  0  0  0  0  0  0  0
  141.5838   69.0062  227.0796 H   0  0  0  0  0  0  0  0  0  0  0  0
  142.2327   70.7768  225.4946 H   0  0  0  0  0  0  0  0  0  0  0  0
  137.5791   69.0153  225.4786 H   0  0  0  0  0  0  0  0  0  0  0  0
  137.1201   70.3996  223.5490 H   0  0  0  0  0  0  0  0  0  0  0  0
  137.7390   72.0052  223.8704 H   0  0  0  0  0  0  0  0  0  0  0  0
  139.3227   69.9163  222.2079 H   0  0  0  0  0  0  0  0  0  0  0  0
  138.1887   71.0361  221.4307 H   0  0  0  0  0  0  0  0  0  0  0  0
  140.5883   71.8408  221.5369 H   0  0  0  0  0  0  0  0  0  0  0  0
  138.2290   73.3880  222.7680 H   0  0  0  0  0  0  0  0  0  0  0  0
  140.7110   75.1850  217.8310 H   0  0  0  0  0  0  0  0  0  0  0  0
  143.3606   75.2070  219.0412 H   0  0  0  0  0  0  0  0  0  0  0  0
  142.9705   75.7837  217.3712 H   0  0  0  0  0  0  0  0  0  0  0  0
  142.6554   77.4209  219.9267 H   0  0  0  0  0  0  0  0  0  0  0  0
  144.0056   77.5688  218.7656 H   0  0  0  0  0  0  0  0  0  0  0  0
  142.1610   77.8088  216.9777 H   0  0  0  0  0  0  0  0  0  0  0  0
  143.1834   79.7267  219.0775 H   0  0  0  0  0  0  0  0  0  0  0  0
  143.2419   79.9293  217.3340 H   0  0  0  0  0  0  0  0  0  0  0  0
  141.1312   80.7719  219.2699 H   0  0  0  0  0  0  0  0  0  0  0  0
  141.3481   81.3442  217.6301 H   0  0  0  0  0  0  0  0  0  0  0  0
  139.2691   79.7588  218.1525 H   0  0  0  0  0  0  0  0  0  0  0  0
  140.1672   79.3807  216.7052 H   0  0  0  0  0  0  0  0  0  0  0  0
  140.6780   78.3870  219.4650 H   0  0  0  0  0  0  0  0  0  0  0  0
  141.2905   78.3533  224.5232 H   0  0  0  0  0  0  0  0  0  0  0  0
  142.3408   77.3983  223.4086 H   0  0  0  0  0  0  0  0  0  0  0  0
  142.6792   80.0271  223.8648 H   0  0  0  0  0  0  0  0  0  0  0  0
  143.0506   79.2074  222.2788 H   0  0  0  0  0  0  0  0  0  0  0  0
  142.8834   81.8242  221.9190 H   0  0  0  0  0  0  0  0  0  0  0  0
  141.3747   83.3822  220.7283 H   0  0  0  0  0  0  0  0  0  0  0  0
  138.9812   82.8610  220.4076 H   0  0  0  0  0  0  0  0  0  0  0  0
  138.0769   80.7217  221.3158 H   0  0  0  0  0  0  0  0  0  0  0  0
  138.9624   79.0073  223.6267 H   0  0  0  0  0  0  0  0  0  0  0  0
  138.5566   78.5019  221.9842 H   0  0  0  0  0  0  0  0  0  0  0  0
  141.7548   71.8096  223.3819 H   0  0  0  0  0  0  0  0  0  0  0  0
  140.5293   72.9279  224.1503 H   0  0  0  0  0  0  0  0  0  0  0  0
  1  2  2  0
  2  3  1  0
  3  4  2  0
  4  5  1  0
  5  6  2  0
  5  7  1  0
  7  8  1  0
  8  9  1  0
  9 10  1  0
 10 11  1  0
 11 12  2  0
 12 13  1  0
 13 14  1  0
 14 15  1  0
 15 16  1  0
 16 17  1  0
 17 18  1  0
 18 19  1  0
 19 20  1  0
 20 21  1  0
 13 22  2  0
 22 23  1  0
 23 24  1  0
 24 25  1  0
 25 26  1  0
 26 27  1  0
 27 28  2  0
 28 29  1  0
 29 30  2  0
 30 31  1  0
 31 32  2  0
 32 33  1  0
 23 34  2  0
  9 35  1  0
  6  1  1  0
 34 11  1  0
 35  4  1  0
 21 17  1  0
 33 24  1  0
 32 27  1  0
  1 36  1  0
  2 37  1  0
  3 38  1  0
  6 39  1  0
  7 40  1  0
  7 41  1  0
  8 42  1  0
  8 43  1  0
  9 44  1  6
 10 45  1  0
 14 46  1  0
 15 47  1  0
 15 48  1  0
 16 49  1  0
 16 50  1  0
 17 51  1  6
 18 52  1  0
 18 53  1  0
 19 54  1  0
 19 55  1  0
 20 56  1  0
 20 57  1  0
 21 58  1  0
 25 59  1  0
 25 60  1  0
 26 61  1  0
 26 62  1  0
 28 63  1  0
 29 64  1  0
 30 65  1  0
 31 66  1  0
 33 67  1  0
 33 68  1  0
 35 69  1  0
 35 70  1  0
M  END
>  <smiles>  (96) 
c1ccc2c(c1)CCC(Nc1nc(NCCC3CCCN3)nc(N3CCc4ccccc4C3)n1)C2

>  <score_type>  (96) 
oracle

>  <origin>  (96) 
autodockgpu

>  <m_score__min__energy>  (96) 
-10.699999999999999

>  <m_primary>  (96) 
energy

>  <rmsd>  (96) 
11.148659997115532

>  <m_score__min__rmsd>  (96) 
11.148659997115532

>  <meeko>  (96) 
{"free_energy": -8.04, "intermolecular_energy": -10.13, "internal_energy": -2.6, "cluster_size": 10, "cluster_id": 2, "rank_in_cluster": 9}

>  <energy>  (96) 
-7.16

>  <cluster_rmsd>  (96) 
1.8

>  <cluster>  (96) 
8

$$$$

     RDKit          3D

 70 75  0  0  1  0  0  0  0  0999 V2000
  146.0920   68.2850  217.9140 C   0  0  0  0  0  0  0  0  0  0  0  0
  145.3090   67.7440  218.9320 C   0  0  0  0  0  0  0  0  0  0  0  0
  144.5360   68.5430  219.7490 C   0  0  0  0  0  0  0  0  0  0  0  0
  144.5210   69.9110  219.5760 C   0  0  0  0  0  0  0  0  0  0  0  0
  145.3050   70.4400  218.5570 C   0  0  0  0  0  0  0  0  0  0  0  0
  146.0790   69.6680  217.7340 C   0  0  0  0  0  0  0  0  0  0  0  0
  145.2390   71.9430  218.4260 C   0  0  0  0  0  0  0  0  0  0  0  0
  145.4780   72.4240  219.8620 C   0  0  0  0  0  0  0  0  0  0  0  0
  144.1930   72.1590  220.6180 C   0  0  1  0  0  0  0  0  0  0  0  0
  143.1780   73.0410  220.0480 N   0  0  0  0  0  0  0  0  0  0  0  0
  142.0540   73.4730  220.8310 C   0  0  0  0  0  0  0  0  0  0  0  0
  141.4110   72.6460  221.6770 N   0  0  0  0  0  0  0  0  0  0  0  0
  140.3760   73.0640  222.3890 C   0  0  0  0  0  0  0  0  0  0  0  0
  139.6880   72.1760  223.2950 N   0  0  0  0  0  0  0  0  0  0  0  0
  140.4820   71.1710  223.9750 C   0  0  0  0  0  0  0  0  0  0  0  0
  140.6510   71.5070  225.4420 C   0  0  0  0  0  0  0  0  0  0  0  0
  140.0250   70.4050  226.2510 C   0  0  2  0  0  0  0  0  0  0  0  0
  140.5060   70.5320  227.6820 C   0  0  0  0  0  0  0  0  0  0  0  0
  140.7830   69.1050  228.0970 C   0  0  0  0  0  0  0  0  0  0  0  0
  140.1290   68.3060  227.0100 C   0  0  0  0  0  0  0  0  0  0  0  0
  140.4580   69.0900  225.8100 N   0  0  0  0  0  0  0  0  0  0  0  0
  139.9580   74.3400  222.2650 N   0  0  0  0  0  0  0  0  0  0  0  0
  140.5710   75.1960  221.4350 C   0  0  0  0  0  0  0  0  0  0  0  0
  140.1110   76.5310  221.3240 N   0  0  0  0  0  0  0  0  0  0  0  0
  138.7730   76.9060  221.6960 C   0  0  0  0  0  0  0  0  0  0  0  0
  138.7960   77.9300  222.8070 C   0  0  0  0  0  0  0  0  0  0  0  0
  140.0360   78.7300  222.8280 C   0  0  0  0  0  0  0  0  0  0  0  0
  140.1750   79.6780  223.8060 C   0  0  0  0  0  0  0  0  0  0  0  0
  141.3280   80.4490  223.8580 C   0  0  0  0  0  0  0  0  0  0  0  0
  142.3500   80.2940  222.9500 C   0  0  0  0  0  0  0  0  0  0  0  0
  142.2170   79.3460  221.9660 C   0  0  0  0  0  0  0  0  0  0  0  0
  141.0670   78.5860  221.9270 C   0  0  0  0  0  0  0  0  0  0  0  0
  140.9890   77.5660  220.8240 C   0  0  0  0  0  0  0  0  0  0  0  0
  141.6130   74.7450  220.7290 N   0  0  0  0  0  0  0  0  0  0  0  0
  143.6820   70.7560  220.4630 C   0  0  0  0  0  0  0  0  0  0  0  0
  146.7046   67.6379  217.2690 H   0  0  0  0  0  0  0  0  0  0  0  0
  145.3073   66.6551  219.0877 H   0  0  0  0  0  0  0  0  0  0  0  0
  143.9278   68.0859  220.5434 H   0  0  0  0  0  0  0  0  0  0  0  0
  146.6832   70.1322  216.9406 H   0  0  0  0  0  0  0  0  0  0  0  0
  146.0214   72.3157  217.7486 H   0  0  0  0  0  0  0  0  0  0  0  0
  144.2894   72.3003  218.0011 H   0  0  0  0  0  0  0  0  0  0  0  0
  146.3097   71.8662  220.3171 H   0  0  0  0  0  0  0  0  0  0  0  0
  145.7441   73.4910  219.8873 H   0  0  0  0  0  0  0  0  0  0  0  0
  144.3940   72.3265  221.6864 H   0  0  0  0  0  0  0  0  0  0  0  0
  143.2240   73.3920  219.0620 H   0  0  0  0  0  0  0  0  0  0  0  0
  138.6570   72.2850  223.4280 H   0  0  0  0  0  0  0  0  0  0  0  0
  139.9801   70.1963  223.8857 H   0  0  0  0  0  0  0  0  0  0  0  0
  141.4775   71.1389  223.5081 H   0  0  0  0  0  0  0  0  0  0  0  0
  141.7209   71.5859  225.6852 H   0  0  0  0  0  0  0  0  0  0  0  0
  140.1670   72.4681  225.6701 H   0  0  0  0  0  0  0  0  0  0  0  0
  138.9344   70.4983  226.1422 H   0  0  0  0  0  0  0  0  0  0  0  0
  141.4209   71.1403  227.7354 H   0  0  0  0  0  0  0  0  0  0  0  0
  139.7738   71.0304  228.3344 H   0  0  0  0  0  0  0  0  0  0  0  0
  141.8644   68.9075  228.1371 H   0  0  0  0  0  0  0  0  0  0  0  0
  140.4039   68.8637  229.1010 H   0  0  0  0  0  0  0  0  0  0  0  0
  140.5501   67.2915  226.9518 H   0  0  0  0  0  0  0  0  0  0  0  0
  139.0493   68.1572  227.1589 H   0  0  0  0  0  0  0  0  0  0  0  0
  141.4940   69.0840  225.7360 H   0  0  0  0  0  0  0  0  0  0  0  0
  138.2611   77.3334  220.8212 H   0  0  0  0  0  0  0  0  0  0  0  0
  138.2398   76.0113  222.0499 H   0  0  0  0  0  0  0  0  0  0  0  0
  137.9420   78.6105  222.6743 H   0  0  0  0  0  0  0  0  0  0  0  0
  138.7410   77.3831  223.7598 H   0  0  0  0  0  0  0  0  0  0  0  0
  139.3763   79.8280  224.5474 H   0  0  0  0  0  0  0  0  0  0  0  0
  141.4277   81.2068  224.6491 H   0  0  0  0  0  0  0  0  0  0  0  0
  143.2547   80.9167  223.0112 H   0  0  0  0  0  0  0  0  0  0  0  0
  143.0133   79.1954  221.2222 H   0  0  0  0  0  0  0  0  0  0  0  0
  140.5728   78.0167  219.9109 H   0  0  0  0  0  0  0  0  0  0  0  0
  141.9808   77.1706  220.5596 H   0  0  0  0  0  0  0  0  0  0  0  0
  143.6464   70.2873  221.4575 H   0  0  0  0  0  0  0  0  0  0  0  0
  142.6883   70.8250  219.9964 H   0  0  0  0  0  0  0  0  0  0  0  0
  1  2  2  0
  2  3  1  0
  3  4  2  0
  4  5  1  0
  5  6  2  0
  5  7  1  0
  7  8  1  0
  8  9  1  0
  9 10  1  0
 10 11  1  0
 11 12  2  0
 12 13  1  0
 13 14  1  0
 14 15  1  0
 15 16  1  0
 16 17  1  0
 17 18  1  0
 18 19  1  0
 19 20  1  0
 20 21  1  0
 13 22  2  0
 22 23  1  0
 23 24  1  0
 24 25  1  0
 25 26  1  0
 26 27  1  0
 27 28  2  0
 28 29  1  0
 29 30  2  0
 30 31  1  0
 31 32  2  0
 32 33  1  0
 23 34  2  0
  9 35  1  0
  6  1  1  0
 34 11  1  0
 35  4  1  0
 21 17  1  0
 33 24  1  0
 32 27  1  0
  1 36  1  0
  2 37  1  0
  3 38  1  0
  6 39  1  0
  7 40  1  0
  7 41  1  0
  8 42  1  0
  8 43  1  0
  9 44  1  1
 10 45  1  0
 14 46  1  0
 15 47  1  0
 15 48  1  0
 16 49  1  0
 16 50  1  0
 17 51  1  1
 18 52  1  0
 18 53  1  0
 19 54  1  0
 19 55  1  0
 20 56  1  0
 20 57  1  0
 21 58  1  0
 25 59  1  0
 25 60  1  0
 26 61  1  0
 26 62  1  0
 28 63  1  0
 29 64  1  0
 30 65  1  0
 31 66  1  0
 33 67  1  0
 33 68  1  0
 35 69  1  0
 35 70  1  0
M  END
>  <smiles>  (97) 
c1ccc2c(c1)CCC(Nc1nc(NCCC3CCCN3)nc(N3CCc4ccccc4C3)n1)C2

>  <score_type>  (97) 
oracle

>  <origin>  (97) 
autodockgpu

>  <m_score__min__energy>  (97) 
-10.699999999999999

>  <m_primary>  (97) 
energy

>  <rmsd>  (97) 
11.592730255759031

>  <m_score__min__rmsd>  (97) 
11.592730255759031

>  <meeko>  (97) 
{"free_energy": -9.98, "intermolecular_energy": -12.07, "internal_energy": -0.94, "cluster_size": 5, "cluster_id": 3, "rank_in_cluster": 1}

>  <energy>  (97) 
-6.99

>  <cluster_rmsd>  (97) 
0.0

>  <cluster>  (97) 
9

$$$$

     RDKit          3D

 70 75  0  0  1  0  0  0  0  0999 V2000
  145.9240   68.1220  217.9050 C   0  0  0  0  0  0  0  0  0  0  0  0
  145.1770   67.6460  218.9830 C   0  0  0  0  0  0  0  0  0  0  0  0
  144.4650   68.5000  219.7990 C   0  0  0  0  0  0  0  0  0  0  0  0
  144.4750   69.8590  219.5650 C   0  0  0  0  0  0  0  0  0  0  0  0
  145.2210   70.3230  218.4890 C   0  0  0  0  0  0  0  0  0  0  0  0
  145.9360   69.4950  217.6650 C   0  0  0  0  0  0  0  0  0  0  0  0
  145.1860   71.8190  218.2940 C   0  0  0  0  0  0  0  0  0  0  0  0
  145.5060   72.3560  219.6940 C   0  0  0  0  0  0  0  0  0  0  0  0
  144.2530   72.1580  220.5210 C   0  0  1  0  0  0  0  0  0  0  0  0
  143.2340   73.0420  219.9600 N   0  0  0  0  0  0  0  0  0  0  0  0
  142.1150   73.4710  220.7530 C   0  0  0  0  0  0  0  0  0  0  0  0
  141.4910   72.6470  221.6150 N   0  0  0  0  0  0  0  0  0  0  0  0
  140.4610   73.0630  222.3360 C   0  0  0  0  0  0  0  0  0  0  0  0
  139.7930   72.1780  223.2600 N   0  0  0  0  0  0  0  0  0  0  0  0
  139.7780   70.7640  222.9370 C   0  0  0  0  0  0  0  0  0  0  0  0
  139.4680   69.9260  224.1590 C   0  0  0  0  0  0  0  0  0  0  0  0
  140.4670   70.2700  225.2300 C   0  0  2  0  0  0  0  0  0  0  0  0
  140.3270   69.2640  226.3530 C   0  0  0  0  0  0  0  0  0  0  0  0
  140.4320   70.1040  227.6050 C   0  0  0  0  0  0  0  0  0  0  0  0
  140.9460   71.4140  227.0890 C   0  0  0  0  0  0  0  0  0  0  0  0
  140.1960   71.5650  225.8320 N   0  0  0  0  0  0  0  0  0  0  0  0
  140.0290   74.3330  222.2020 N   0  0  0  0  0  0  0  0  0  0  0  0
  140.6220   75.1860  221.3550 C   0  0  0  0  0  0  0  0  0  0  0  0
  140.1470   76.5150  221.2350 N   0  0  0  0  0  0  0  0  0  0  0  0
  138.7910   76.8680  221.5610 C   0  0  0  0  0  0  0  0  0  0  0  0
  138.7600   77.8860  222.6780 C   0  0  0  0  0  0  0  0  0  0  0  0
  139.9860   78.7030  222.7480 C   0  0  0  0  0  0  0  0  0  0  0  0
  140.0770   79.6470  223.7350 C   0  0  0  0  0  0  0  0  0  0  0  0
  141.2160   80.4350  223.8330 C   0  0  0  0  0  0  0  0  0  0  0  0
  142.2720   80.2990  222.9620 C   0  0  0  0  0  0  0  0  0  0  0  0
  142.1880   79.3550  221.9680 C   0  0  0  0  0  0  0  0  0  0  0  0
  141.0510   78.5800  221.8840 C   0  0  0  0  0  0  0  0  0  0  0  0
  141.0280   77.5650  220.7720 C   0  0  0  0  0  0  0  0  0  0  0  0
  141.6590   74.7370  220.6410 N   0  0  0  0  0  0  0  0  0  0  0  0
  143.7010   70.7640  220.4530 C   0  0  0  0  0  0  0  0  0  0  0  0
  146.4888   67.4317  217.2612 H   0  0  0  0  0  0  0  0  0  0  0  0
  145.1555   66.5652  219.1867 H   0  0  0  0  0  0  0  0  0  0  0  0
  143.8856   68.0946  220.6416 H   0  0  0  0  0  0  0  0  0  0  0  0
  146.5125   69.9084  216.8243 H   0  0  0  0  0  0  0  0  0  0  0  0
  145.9438   72.1406  217.5643 H   0  0  0  0  0  0  0  0  0  0  0  0
  144.2260   72.1826  217.8989 H   0  0  0  0  0  0  0  0  0  0  0  0
  146.3451   71.7971  220.1339 H   0  0  0  0  0  0  0  0  0  0  0  0
  145.7988   73.4157  219.6588 H   0  0  0  0  0  0  0  0  0  0  0  0
  144.5089   72.3656  221.5705 H   0  0  0  0  0  0  0  0  0  0  0  0
  143.2720   73.3950  218.9750 H   0  0  0  0  0  0  0  0  0  0  0  0
  139.3500   72.5790  224.1180 H   0  0  0  0  0  0  0  0  0  0  0  0
  139.0104   70.5791  222.1711 H   0  0  0  0  0  0  0  0  0  0  0  0
  140.7737   70.4814  222.5646 H   0  0  0  0  0  0  0  0  0  0  0  0
  138.4505   70.1470  224.5139 H   0  0  0  0  0  0  0  0  0  0  0  0
  139.5291   68.8559  223.9116 H   0  0  0  0  0  0  0  0  0  0  0  0
  141.4622   70.2722  224.7615 H   0  0  0  0  0  0  0  0  0  0  0  0
  139.3534   68.7545  226.3035 H   0  0  0  0  0  0  0  0  0  0  0  0
  141.0862   68.4693  226.3091 H   0  0  0  0  0  0  0  0  0  0  0  0
  139.4489   70.2256  228.0833 H   0  0  0  0  0  0  0  0  0  0  0  0
  141.0787   69.6569  228.3743 H   0  0  0  0  0  0  0  0  0  0  0  0
  140.7232   72.2337  227.7879 H   0  0  0  0  0  0  0  0  0  0  0  0
  142.0380   71.4411  226.9592 H   0  0  0  0  0  0  0  0  0  0  0  0
  139.1930   71.6110  226.0970 H   0  0  0  0  0  0  0  0  0  0  0  0
  138.3041   77.2931  220.6709 H   0  0  0  0  0  0  0  0  0  0  0  0
  138.2586   75.9636  221.8906 H   0  0  0  0  0  0  0  0  0  0  0  0
  137.9016   78.5551  222.5186 H   0  0  0  0  0  0  0  0  0  0  0  0
  138.6792   77.3325  223.6252 H   0  0  0  0  0  0  0  0  0  0  0  0
  139.2504   79.7809  224.4483 H   0  0  0  0  0  0  0  0  0  0  0  0
  141.2757   81.1902  224.6305 H   0  0  0  0  0  0  0  0  0  0  0  0
  143.1654   80.9333  223.0596 H   0  0  0  0  0  0  0  0  0  0  0  0
  143.0124   79.2199  221.2524 H   0  0  0  0  0  0  0  0  0  0  0  0
  140.6388   78.0151  219.8469 H   0  0  0  0  0  0  0  0  0  0  0  0
  142.0342   77.1853  220.5410 H   0  0  0  0  0  0  0  0  0  0  0  0
  143.7025   70.3398  221.4679 H   0  0  0  0  0  0  0  0  0  0  0  0
  142.6877   70.8392  220.0317 H   0  0  0  0  0  0  0  0  0  0  0  0
  1  2  2  0
  2  3  1  0
  3  4  2  0
  4  5  1  0
  5  6  2  0
  5  7  1  0
  7  8  1  0
  8  9  1  0
  9 10  1  0
 10 11  1  0
 11 12  2  0
 12 13  1  0
 13 14  1  0
 14 15  1  0
 15 16  1  0
 16 17  1  0
 17 18  1  0
 18 19  1  0
 19 20  1  0
 20 21  1  0
 13 22  2  0
 22 23  1  0
 23 24  1  0
 24 25  1  0
 25 26  1  0
 26 27  1  0
 27 28  2  0
 28 29  1  0
 29 30  2  0
 30 31  1  0
 31 32  2  0
 32 33  1  0
 23 34  2  0
  9 35  1  0
  6  1  1  0
 34 11  1  0
 35  4  1  0
 21 17  1  0
 33 24  1  0
 32 27  1  0
  1 36  1  0
  2 37  1  0
  3 38  1  0
  6 39  1  0
  7 40  1  0
  7 41  1  0
  8 42  1  0
  8 43  1  0
  9 44  1  1
 10 45  1  0
 14 46  1  0
 15 47  1  0
 15 48  1  0
 16 49  1  0
 16 50  1  0
 17 51  1  6
 18 52  1  0
 18 53  1  0
 19 54  1  0
 19 55  1  0
 20 56  1  0
 20 57  1  0
 21 58  1  0
 25 59  1  0
 25 60  1  0
 26 61  1  0
 26 62  1  0
 28 63  1  0
 29 64  1  0
 30 65  1  0
 31 66  1  0
 33 67  1  0
 33 68  1  0
 35 69  1  0
 35 70  1  0
M  END
>  <smiles>  (98) 
c1ccc2c(c1)CCC(Nc1nc(NCCC3CCCN3)nc(N3CCc4ccccc4C3)n1)C2

>  <score_type>  (98) 
oracle

>  <origin>  (98) 
autodockgpu

>  <m_score__min__energy>  (98) 
-10.699999999999999

>  <m_primary>  (98) 
energy

>  <rmsd>  (98) 
11.654897886213332

>  <m_score__min__rmsd>  (98) 
11.654897886213332

>  <meeko>  (98) 
{"free_energy": -9.47, "intermolecular_energy": -11.56, "internal_energy": -1.57, "cluster_size": 5, "cluster_id": 3, "rank_in_cluster": 2}

>  <energy>  (98) 
-6.64

>  <cluster_rmsd>  (98) 
0.0

>  <cluster>  (98) 
10

$$$$

     RDKit          3D

 70 75  0  0  1  0  0  0  0  0999 V2000
  139.2010   68.8820  226.4090 C   0  0  0  0  0  0  0  0  0  0  0  0
  140.5410   69.2660  226.3890 C   0  0  0  0  0  0  0  0  0  0  0  0
  141.0020   70.2230  225.5070 C   0  0  0  0  0  0  0  0  0  0  0  0
  140.1400   70.8260  224.6170 C   0  0  0  0  0  0  0  0  0  0  0  0
  138.8060   70.4360  224.6460 C   0  0  0  0  0  0  0  0  0  0  0  0
  138.3240   69.4900  225.5110 C   0  0  0  0  0  0  0  0  0  0  0  0
  137.9210   71.1370  223.6450 C   0  0  0  0  0  0  0  0  0  0  0  0
  138.7010   70.9880  222.3330 C   0  0  0  0  0  0  0  0  0  0  0  0
  139.8540   71.9660  222.4120 C   0  0  1  0  0  0  0  0  0  0  0  0
  139.2720   73.3060  222.3990 N   0  0  0  0  0  0  0  0  0  0  0  0
  140.0200   74.4290  221.9030 C   0  0  0  0  0  0  0  0  0  0  0  0
  140.7520   74.3600  220.7760 N   0  0  0  0  0  0  0  0  0  0  0  0
  141.4350   75.4060  220.3370 C   0  0  0  0  0  0  0  0  0  0  0  0
  142.2190   75.3300  219.1290 N   0  0  0  0  0  0  0  0  0  0  0  0
  143.2810   76.3030  218.9610 C   0  0  0  0  0  0  0  0  0  0  0  0
  142.9200   77.3330  217.9110 C   0  0  0  0  0  0  0  0  0  0  0  0
  142.3700   78.5450  218.6120 C   0  0  2  0  0  0  0  0  0  0  0  0
  140.9010   78.6700  218.2660 C   0  0  0  0  0  0  0  0  0  0  0  0
  140.7100   80.1510  218.0300 C   0  0  0  0  0  0  0  0  0  0  0  0
  141.9720   80.7440  218.5810 C   0  0  0  0  0  0  0  0  0  0  0  0
  142.9860   79.7730  218.1390 N   0  0  0  0  0  0  0  0  0  0  0  0
  141.3960   76.5610  221.0330 N   0  0  0  0  0  0  0  0  0  0  0  0
  140.6790   76.6720  222.1600 C   0  0  0  0  0  0  0  0  0  0  0  0
  140.6570   77.8970  222.8700 N   0  0  0  0  0  0  0  0  0  0  0  0
  141.7470   78.3030  223.7150 C   0  0  0  0  0  0  0  0  0  0  0  0
  142.3430   79.6040  223.2280 C   0  0  0  0  0  0  0  0  0  0  0  0
  141.3830   80.4300  222.4700 C   0  0  0  0  0  0  0  0  0  0  0  0
  141.8190   81.6240  221.9620 C   0  0  0  0  0  0  0  0  0  0  0  0
  140.9450   82.4280  221.2440 C   0  0  0  0  0  0  0  0  0  0  0  0
  139.6380   82.0630  221.0200 C   0  0  0  0  0  0  0  0  0  0  0  0
  139.1920   80.8670  221.5270 C   0  0  0  0  0  0  0  0  0  0  0  0
  140.0720   80.0790  222.2370 C   0  0  0  0  0  0  0  0  0  0  0  0
  139.5170   78.7820  222.7620 C   0  0  0  0  0  0  0  0  0  0  0  0
  140.0010   75.5980  222.5780 N   0  0  0  0  0  0  0  0  0  0  0  0
  140.6530   71.8540  223.6770 C   0  0  0  0  0  0  0  0  0  0  0  0
  138.8441   68.1183  227.1156 H   0  0  0  0  0  0  0  0  0  0  0  0
  141.2460   68.7966  227.0908 H   0  0  0  0  0  0  0  0  0  0  0  0
  142.0649   70.5061  225.5148 H   0  0  0  0  0  0  0  0  0  0  0  0
  137.2594   69.2134  225.4977 H   0  0  0  0  0  0  0  0  0  0  0  0
  136.9370   70.6500  223.5777 H   0  0  0  0  0  0  0  0  0  0  0  0
  137.7119   72.1842  223.9091 H   0  0  0  0  0  0  0  0  0  0  0  0
  139.0794   69.9604  222.2292 H   0  0  0  0  0  0  0  0  0  0  0  0
  138.0615   71.1927  221.4617 H   0  0  0  0  0  0  0  0  0  0  0  0
  140.5295   71.7544  221.5700 H   0  0  0  0  0  0  0  0  0  0  0  0
  138.3030   73.5050  222.7430 H   0  0  0  0  0  0  0  0  0  0  0  0
  141.9990   74.5890  218.4260 H   0  0  0  0  0  0  0  0  0  0  0  0
  143.4545   76.8137  219.9197 H   0  0  0  0  0  0  0  0  0  0  0  0
  144.1883   75.7747  218.6328 H   0  0  0  0  0  0  0  0  0  0  0  0
  143.8166   77.6096  217.3368 H   0  0  0  0  0  0  0  0  0  0  0  0
  142.1714   76.9226  217.2173 H   0  0  0  0  0  0  0  0  0  0  0  0
  142.5603   78.4163  219.6877 H   0  0  0  0  0  0  0  0  0  0  0  0
  140.6618   78.0948  217.3594 H   0  0  0  0  0  0  0  0  0  0  0  0
  140.2434   78.2771  219.0555 H   0  0  0  0  0  0  0  0  0  0  0  0
  140.6052   80.3704  216.9572 H   0  0  0  0  0  0  0  0  0  0  0  0
  139.8003   80.5519  218.5008 H   0  0  0  0  0  0  0  0  0  0  0  0
  142.1627   81.7413  218.1579 H   0  0  0  0  0  0  0  0  0  0  0  0
  141.9507   80.8978  219.6700 H   0  0  0  0  0  0  0  0  0  0  0  0
  142.9640   79.7840  217.1010 H   0  0  0  0  0  0  0  0  0  0  0  0
  141.3772   78.4371  224.7423 H   0  0  0  0  0  0  0  0  0  0  0  0
  142.5245   77.5253  223.6884 H   0  0  0  0  0  0  0  0  0  0  0  0
  142.6887   80.1792  224.0996 H   0  0  0  0  0  0  0  0  0  0  0  0
  143.1700   79.3528  222.5476 H   0  0  0  0  0  0  0  0  0  0  0  0
  142.8588   81.9451  222.1224 H   0  0  0  0  0  0  0  0  0  0  0  0
  141.3082   83.3854  220.8422 H   0  0  0  0  0  0  0  0  0  0  0  0
  138.9635   82.7158  220.4464 H   0  0  0  0  0  0  0  0  0  0  0  0
  138.1523   80.5442  221.3694 H   0  0  0  0  0  0  0  0  0  0  0  0
  139.0509   78.9325  223.7469 H   0  0  0  0  0  0  0  0  0  0  0  0
  138.7388   78.3710  222.1021 H   0  0  0  0  0  0  0  0  0  0  0  0
  141.6890   71.5962  223.4119 H   0  0  0  0  0  0  0  0  0  0  0  0
  140.5805   72.8242  224.1903 H   0  0  0  0  0  0  0  0  0  0  0  0
  1  2  2  0
  2  3  1  0
  3  4  2  0
  4  5  1  0
  5  6  2  0
  5  7  1  0
  7  8  1  0
  8  9  1  0
  9 10  1  0
 10 11  1  0
 11 12  2  0
 12 13  1  0
 13 14  1  0
 14 15  1  0
 15 16  1  0
 16 17  1  0
 17 18  1  0
 18 19  1  0
 19 20  1  0
 20 21  1  0
 13 22  2  0
 22 23  1  0
 23 24  1  0
 24 25  1  0
 25 26  1  0
 26 27  1  0
 27 28  2  0
 28 29  1  0
 29 30  2  0
 30 31  1  0
 31 32  2  0
 32 33  1  0
 23 34  2  0
  9 35  1  0
  6  1  1  0
 34 11  1  0
 35  4  1  0
 21 17  1  0
 33 24  1  0
 32 27  1  0
  1 36  1  0
  2 37  1  0
  3 38  1  0
  6 39  1  0
  7 40  1  0
  7 41  1  0
  8 42  1  0
  8 43  1  0
  9 44  1  6
 10 45  1  0
 14 46  1  0
 15 47  1  0
 15 48  1  0
 16 49  1  0
 16 50  1  0
 17 51  1  1
 18 52  1  0
 18 53  1  0
 19 54  1  0
 19 55  1  0
 20 56  1  0
 20 57  1  0
 21 58  1  0
 25 59  1  0
 25 60  1  0
 26 61  1  0
 26 62  1  0
 28 63  1  0
 29 64  1  0
 30 65  1  0
 31 66  1  0
 33 67  1  0
 33 68  1  0
 35 69  1  0
 35 70  1  0
M  END
>  <smiles>  (99) 
c1ccc2c(c1)CCC(Nc1nc(NCCC3CCCN3)nc(N3CCc4ccccc4C3)n1)C2

>  <score_type>  (99) 
oracle

>  <origin>  (99) 
autodockgpu

>  <m_score__min__energy>  (99) 
-10.699999999999999

>  <m_primary>  (99) 
energy

>  <rmsd>  (99) 
11.178498300865874

>  <m_score__min__rmsd>  (99) 
11.178498300865874

>  <meeko>  (99) 
{"free_energy": -8.8, "intermolecular_energy": -10.89, "internal_energy": -2.04, "cluster_size": 10, "cluster_id": 2, "rank_in_cluster": 3}

>  <energy>  (99) 
-6.62

>  <cluster_rmsd>  (99) 
0.07

>  <cluster>  (99) 
10

$$$$

     RDKit          3D

 70 75  0  0  1  0  0  0  0  0999 V2000
  140.0340   68.6820  227.1490 C   0  0  0  0  0  0  0  0  0  0  0  0
  141.0710   69.6120  227.2060 C   0  0  0  0  0  0  0  0  0  0  0  0
  141.1810   70.6250  226.2760 C   0  0  0  0  0  0  0  0  0  0  0  0
  140.2590   70.7420  225.2580 C   0  0  0  0  0  0  0  0  0  0  0  0
  139.2290   69.8100  225.2110 C   0  0  0  0  0  0  0  0  0  0  0  0
  139.0980   68.7970  226.1220 C   0  0  0  0  0  0  0  0  0  0  0  0
  138.2580   69.9990  224.0710 C   0  0  0  0  0  0  0  0  0  0  0  0
  139.1800   70.1370  222.8540 C   0  0  0  0  0  0  0  0  0  0  0  0
  139.7830   71.5240  222.9320 C   0  0  1  0  0  0  0  0  0  0  0  0
  138.6900   72.4710  222.7340 N   0  0  0  0  0  0  0  0  0  0  0  0
  138.8280   73.5770  221.8260 C   0  0  0  0  0  0  0  0  0  0  0  0
  138.0410   73.7160  220.7430 N   0  0  0  0  0  0  0  0  0  0  0  0
  138.1860   74.7420  219.9190 C   0  0  0  0  0  0  0  0  0  0  0  0
  137.3410   74.8900  218.7590 N   0  0  0  0  0  0  0  0  0  0  0  0
  136.2370   75.8270  218.8520 C   0  0  0  0  0  0  0  0  0  0  0  0
  136.7170   77.1970  219.2830 C   0  0  0  0  0  0  0  0  0  0  0  0
  136.2870   77.4190  220.7060 C   0  0  2  0  0  0  0  0  0  0  0  0
  137.2710   78.3670  221.3590 C   0  0  0  0  0  0  0  0  0  0  0  0
  137.4840   77.7760  222.7340 C   0  0  0  0  0  0  0  0  0  0  0  0
  136.3750   76.7730  222.8440 C   0  0  0  0  0  0  0  0  0  0  0  0
  136.3450   76.1970  221.4910 N   0  0  0  0  0  0  0  0  0  0  0  0
  139.1400   75.6620  220.1680 N   0  0  0  0  0  0  0  0  0  0  0  0
  139.9440   75.5610  221.2350 C   0  0  0  0  0  0  0  0  0  0  0  0
  140.9380   76.5420  221.4720 N   0  0  0  0  0  0  0  0  0  0  0  0
  141.8480   76.9640  220.4420 C   0  0  0  0  0  0  0  0  0  0  0  0
  141.6940   78.4420  220.1690 C   0  0  0  0  0  0  0  0  0  0  0  0
  141.1750   79.1930  221.3290 C   0  0  0  0  0  0  0  0  0  0  0  0
  140.9770   80.5400  221.1890 C   0  0  0  0  0  0  0  0  0  0  0  0
  140.4890   81.2790  222.2590 C   0  0  0  0  0  0  0  0  0  0  0  0
  140.1930   80.6980  223.4700 C   0  0  0  0  0  0  0  0  0  0  0  0
  140.3900   79.3470  223.6170 C   0  0  0  0  0  0  0  0  0  0  0  0
  140.8740   78.6260  222.5470 C   0  0  0  0  0  0  0  0  0  0  0  0
  141.0640   77.1510  222.7790 C   0  0  0  0  0  0  0  0  0  0  0  0
  139.7740   74.5140  222.0490 N   0  0  0  0  0  0  0  0  0  0  0  0
  140.3920   71.8400  224.2670 C   0  0  0  0  0  0  0  0  0  0  0  0
  139.9562   67.8778  227.8954 H   0  0  0  0  0  0  0  0  0  0  0  0
  141.8178   69.5364  228.0101 H   0  0  0  0  0  0  0  0  0  0  0  0
  142.0102   71.3443  226.3473 H   0  0  0  0  0  0  0  0  0  0  0  0
  138.2650   68.0827  226.0449 H   0  0  0  0  0  0  0  0  0  0  0  0
  137.5945   69.1277  223.9679 H   0  0  0  0  0  0  0  0  0  0  0  0
  137.5892   70.8614  224.2089 H   0  0  0  0  0  0  0  0  0  0  0  0
  139.9724   69.3748  222.8882 H   0  0  0  0  0  0  0  0  0  0  0  0
  138.6257   69.9945  221.9146 H   0  0  0  0  0  0  0  0  0  0  0  0
  140.5803   71.5848  222.1766 H   0  0  0  0  0  0  0  0  0  0  0  0
  137.7730   72.3900  223.2350 H   0  0  0  0  0  0  0  0  0  0  0  0
  137.5490   74.3260  217.9030 H   0  0  0  0  0  0  0  0  0  0  0  0
  135.7525   75.9096  217.8679 H   0  0  0  0  0  0  0  0  0  0  0  0
  135.5259   75.4543  219.6040 H   0  0  0  0  0  0  0  0  0  0  0  0
  137.8137   77.2463  219.2134 H   0  0  0  0  0  0  0  0  0  0  0  0
  136.2882   77.9723  218.6311 H   0  0  0  0  0  0  0  0  0  0  0  0
  135.2561   77.8019  220.6801 H   0  0  0  0  0  0  0  0  0  0  0  0
  138.2155   78.4001  220.7962 H   0  0  0  0  0  0  0  0  0  0  0  0
  136.9037   79.4033  221.3939 H   0  0  0  0  0  0  0  0  0  0  0  0
  138.4672   77.2882  222.8069 H   0  0  0  0  0  0  0  0  0  0  0  0
  137.4701   78.5281  223.5366 H   0  0  0  0  0  0  0  0  0  0  0  0
  136.6033   76.0065  223.5992 H   0  0  0  0  0  0  0  0  0  0  0  0
  135.4155   77.2072  223.1615 H   0  0  0  0  0  0  0  0  0  0  0  0
  137.2710   75.7480  221.3470 H   0  0  0  0  0  0  0  0  0  0  0  0
  142.8796   76.7618  220.7660 H   0  0  0  0  0  0  0  0  0  0  0  0
  141.6227   76.4078  219.5201 H   0  0  0  0  0  0  0  0  0  0  0  0
  142.6778   78.8525  219.8977 H   0  0  0  0  0  0  0  0  0  0  0  0
  140.9637   78.5511  219.3536 H   0  0  0  0  0  0  0  0  0  0  0  0
  141.2034   81.0352  220.2332 H   0  0  0  0  0  0  0  0  0  0  0  0
  140.3347   82.3609  222.1342 H   0  0  0  0  0  0  0  0  0  0  0  0
  139.8065   81.3030  224.3034 H   0  0  0  0  0  0  0  0  0  0  0  0
  140.1655   78.8492  224.5719 H   0  0  0  0  0  0  0  0  0  0  0  0
  142.0594   76.9523  223.2028 H   0  0  0  0  0  0  0  0  0  0  0  0
  140.3295   76.7490  223.4924 H   0  0  0  0  0  0  0  0  0  0  0  0
  141.4622   72.0478  224.1202 H   0  0  0  0  0  0  0  0  0  0  0  0
  139.8483   72.7063  224.6717 H   0  0  0  0  0  0  0  0  0  0  0  0
  1  2  2  0
  2  3  1  0
  3  4  2  0
  4  5  1  0
  5  6  2  0
  5  7  1  0
  7  8  1  0
  8  9  1  0
  9 10  1  0
 10 11  1  0
 11 12  2  0
 12 13  1  0
 13 14  1  0
 14 15  1  0
 15 16  1  0
 16 17  1  0
 17 18  1  0
 18 19  1  0
 19 20  1  0
 20 21  1  0
 13 22  2  0
 22 23  1  0
 23 24  1  0
 24 25  1  0
 25 26  1  0
 26 27  1  0
 27 28  2  0
 28 29  1  0
 29 30  2  0
 30 31  1  0
 31 32  2  0
 32 33  1  0
 23 34  2  0
  9 35  1  0
  6  1  1  0
 34 11  1  0
 35  4  1  0
 21 17  1  0
 33 24  1  0
 32 27  1  0
  1 36  1  0
  2 37  1  0
  3 38  1  0
  6 39  1  0
  7 40  1  0
  7 41  1  0
  8 42  1  0
  8 43  1  0
  9 44  1  6
 10 45  1  0
 14 46  1  0
 15 47  1  0
 15 48  1  0
 16 49  1  0
 16 50  1  0
 17 51  1  6
 18 52  1  0
 18 53  1  0
 19 54  1  0
 19 55  1  0
 20 56  1  0
 20 57  1  0
 21 58  1  0
 25 59  1  0
 25 60  1  0
 26 61  1  0
 26 62  1  0
 28 63  1  0
 29 64  1  0
 30 65  1  0
 31 66  1  0
 33 67  1  0
 33 68  1  0
 35 69  1  0
 35 70  1  0
M  END
>  <smiles>  (100) 
c1ccc2c(c1)CCC(Nc1nc(NCCC3CCCN3)nc(N3CCc4ccccc4C3)n1)C2

>  <score_type>  (100) 
oracle

>  <origin>  (100) 
autodockgpu

>  <m_score__min__energy>  (100) 
-10.699999999999999

>  <m_primary>  (100) 
energy

>  <rmsd>  (100) 
11.57191189042543

>  <m_score__min__rmsd>  (100) 
11.57191189042543

>  <meeko>  (100) 
{"free_energy": -7.49, "intermolecular_energy": -9.58, "internal_energy": -3.16, "cluster_size": 3, "cluster_id": 5, "rank_in_cluster": 3}

>  <energy>  (100) 
-6.59

>  <cluster_rmsd>  (100) 
0.25

>  <cluster>  (100) 
10

$$$$

     RDKit          3D

 70 75  0  0  1  0  0  0  0  0999 V2000
  132.7890   74.9060  227.2230 C   0  0  0  0  0  0  0  0  0  0  0  0
  133.4890   76.0290  226.8610 C   0  0  0  0  0  0  0  0  0  0  0  0
  134.3110   75.9800  225.7440 C   0  0  0  0  0  0  0  0  0  0  0  0
  134.4500   74.8300  224.9800 C   0  0  0  0  0  0  0  0  0  0  0  0
  133.7480   73.7130  225.3480 C   0  0  0  0  0  0  0  0  0  0  0  0
  132.9200   73.7450  226.4640 C   0  0  0  0  0  0  0  0  0  0  0  0
  133.8240   72.4210  224.5930 C   0  0  0  0  0  0  0  0  0  0  0  0
  135.1940   72.3900  223.9360 C   0  0  0  0  0  0  0  0  0  0  0  0
  135.2610   73.6050  223.0270 C   0  0  2  0  0  0  0  0  0  0  0  0
  136.2220   73.4640  221.9870 N   0  0  0  0  0  0  0  0  0  0  0  0
  137.6230   73.3370  222.1850 C   0  0  0  0  0  0  0  0  0  0  0  0
  138.5040   74.2740  221.7390 N   0  0  0  0  0  0  0  0  0  0  0  0
  139.8230   74.1410  221.9320 C   0  0  0  0  0  0  0  0  0  0  0  0
  140.8050   75.0650  221.5150 N   0  0  0  0  0  0  0  0  0  0  0  0
  140.8370   76.3430  222.2350 C   0  0  0  0  0  0  0  0  0  0  0  0
  141.1110   77.4850  221.2960 C   0  0  0  0  0  0  0  0  0  0  0  0
  141.1990   78.7590  222.0860 C   0  0  1  0  0  0  0  0  0  0  0  0
  141.7630   78.5400  223.4920 C   0  0  0  0  0  0  0  0  0  0  0  0
  142.2340   79.9540  223.8460 C   0  0  0  0  0  0  0  0  0  0  0  0
  142.2150   80.7330  222.5520 C   0  0  0  0  0  0  0  0  0  0  0  0
  142.1980   79.6830  221.5510 N   0  0  0  0  0  0  0  0  0  0  0  0
  140.2570   73.0430  222.5830 N   0  0  0  0  0  0  0  0  0  0  0  0
  139.4330   72.0900  223.0430 C   0  0  0  0  0  0  0  0  0  0  0  0
  140.0020   70.9790  223.7200 N   0  0  0  0  0  0  0  0  0  0  0  0
  139.5790   69.6300  223.4340 C   0  0  0  0  0  0  0  0  0  0  0  0
  139.2490   68.8000  224.6230 C   0  0  0  0  0  0  0  0  0  0  0  0
  139.7860   69.3250  225.8970 C   0  0  0  0  0  0  0  0  0  0  0  0
  139.4130   68.6650  227.0540 C   0  0  0  0  0  0  0  0  0  0  0  0
  139.8700   69.0930  228.2810 C   0  0  0  0  0  0  0  0  0  0  0  0
  140.7110   70.1990  228.3350 C   0  0  0  0  0  0  0  0  0  0  0  0
  141.0770   70.8490  227.1760 C   0  0  0  0  0  0  0  0  0  0  0  0
  140.6140   70.4110  225.9480 C   0  0  0  0  0  0  0  0  0  0  0  0
  141.0390   71.1490  224.7320 C   0  0  0  0  0  0  0  0  0  0  0  0
  138.1280   72.2510  222.8370 N   0  0  0  0  0  0  0  0  0  0  0  0
  135.3590   74.8920  223.8040 C   0  0  0  0  0  0  0  0  0  0  0  0
  132.1306   74.9221  228.1041 H   0  0  0  0  0  0  0  0  0  0  0  0
  133.3999   76.9551  227.4478 H   0  0  0  0  0  0  0  0  0  0  0  0
  134.8705   76.8819  225.4549 H   0  0  0  0  0  0  0  0  0  0  0  0
  132.3611   72.8423  226.7516 H   0  0  0  0  0  0  0  0  0  0  0  0
  133.7126   71.5705  225.2816 H   0  0  0  0  0  0  0  0  0  0  0  0
  133.0206   72.3474  223.8453 H   0  0  0  0  0  0  0  0  0  0  0  0
  135.9836   72.4424  224.7000 H   0  0  0  0  0  0  0  0  0  0  0  0
  135.3436   71.4592  223.3693 H   0  0  0  0  0  0  0  0  0  0  0  0
  134.2990   73.6668  222.4972 H   0  0  0  0  0  0  0  0  0  0  0  0
  135.8660   73.4540  220.9930 H   0  0  0  0  0  0  0  0  0  0  0  0
  141.4920   74.8950  220.7420 H   0  0  0  0  0  0  0  0  0  0  0  0
  139.8649   76.5047  222.7238 H   0  0  0  0  0  0  0  0  0  0  0  0
  141.6430   76.3035  222.9825 H   0  0  0  0  0  0  0  0  0  0  0  0
  142.0617   77.3105  220.7710 H   0  0  0  0  0  0  0  0  0  0  0  0
  140.2990   77.5615  220.5579 H   0  0  0  0  0  0  0  0  0  0  0  0
  140.1650   79.1334  222.0583 H   0  0  0  0  0  0  0  0  0  0  0  0
  140.9870   78.1875  224.1874 H   0  0  0  0  0  0  0  0  0  0  0  0
  142.5504   77.7740  223.5488 H   0  0  0  0  0  0  0  0  0  0  0  0
  141.5529   80.4120  224.5783 H   0  0  0  0  0  0  0  0  0  0  0  0
  143.2373   79.9444  224.2968 H   0  0  0  0  0  0  0  0  0  0  0  0
  141.3165   81.3637  222.4813 H   0  0  0  0  0  0  0  0  0  0  0  0
  143.0631   81.4254  222.4456 H   0  0  0  0  0  0  0  0  0  0  0  0
  143.1330   79.1850  221.6490 H   0  0  0  0  0  0  0  0  0  0  0  0
  138.6833   69.6828  222.7977 H   0  0  0  0  0  0  0  0  0  0  0  0
  140.4364   69.1394  222.9501 H   0  0  0  0  0  0  0  0  0  0  0  0
  138.1540   68.7403  224.7088 H   0  0  0  0  0  0  0  0  0  0  0  0
  139.7183   67.8181  224.4630 H   0  0  0  0  0  0  0  0  0  0  0  0
  138.7465   67.7920  226.9938 H   0  0  0  0  0  0  0  0  0  0  0  0
  139.5748   68.5690  229.2020 H   0  0  0  0  0  0  0  0  0  0  0  0
  141.0854   70.5563  229.3057 H   0  0  0  0  0  0  0  0  0  0  0  0
  141.7427   71.7232  227.2278 H   0  0  0  0  0  0  0  0  0  0  0  0
  141.1613   72.2168  224.9663 H   0  0  0  0  0  0  0  0  0  0  0  0
  142.0007   70.7614  224.3646 H   0  0  0  0  0  0  0  0  0  0  0  0
  136.3941   75.0353  224.1475 H   0  0  0  0  0  0  0  0  0  0  0  0
  135.0677   75.7338  223.1586 H   0  0  0  0  0  0  0  0  0  0  0  0
  1  2  2  0
  2  3  1  0
  3  4  2  0
  4  5  1  0
  5  6  2  0
  5  7  1  0
  7  8  1  0
  8  9  1  0
  9 10  1  0
 10 11  1  0
 11 12  2  0
 12 13  1  0
 13 14  1  0
 14 15  1  0
 15 16  1  0
 16 17  1  0
 17 18  1  0
 18 19  1  0
 19 20  1  0
 20 21  1  0
 13 22  2  0
 22 23  1  0
 23 24  1  0
 24 25  1  0
 25 26  1  0
 26 27  1  0
 27 28  2  0
 28 29  1  0
 29 30  2  0
 30 31  1  0
 31 32  2  0
 32 33  1  0
 23 34  2  0
  9 35  1  0
  6  1  1  0
 34 11  1  0
 35  4  1  0
 21 17  1  0
 33 24  1  0
 32 27  1  0
  1 36  1  0
  2 37  1  0
  3 38  1  0
  6 39  1  0
  7 40  1  0
  7 41  1  0
  8 42  1  0
  8 43  1  0
  9 44  1  6
 10 45  1  0
 14 46  1  0
 15 47  1  0
 15 48  1  0
 16 49  1  0
 16 50  1  0
 17 51  1  1
 18 52  1  0
 18 53  1  0
 19 54  1  0
 19 55  1  0
 20 56  1  0
 20 57  1  0
 21 58  1  0
 25 59  1  0
 25 60  1  0
 26 61  1  0
 26 62  1  0
 28 63  1  0
 29 64  1  0
 30 65  1  0
 31 66  1  0
 33 67  1  0
 33 68  1  0
 35 69  1  0
 35 70  1  0
M  END
>  <smiles>  (101) 
c1ccc2c(c1)CCC(Nc1nc(NCCC3CCCN3)nc(N3CCc4ccccc4C3)n1)C2

>  <score_type>  (101) 
oracle

>  <origin>  (101) 
autodockgpu

>  <m_score__min__energy>  (101) 
-10.69

>  <m_primary>  (101) 
energy

>  <rmsd>  (101) 
10.055240417515394

>  <m_score__min__rmsd>  (101) 
10.055240417515394

>  <meeko>  (101) 
{"free_energy": -9.95, "intermolecular_energy": -12.04, "internal_energy": -1.04, "cluster_size": 5, "cluster_id": 5, "rank_in_cluster": 1}

>  <energy>  (101) 
-10.69

>  <cluster_rmsd>  (101) 
0.0

>  <cluster>  (101) 
1

$$$$

     RDKit          3D

 70 75  0  0  1  0  0  0  0  0999 V2000
  140.8080   68.8610  228.3780 C   0  0  0  0  0  0  0  0  0  0  0  0
  141.3440   70.1230  228.3380 C   0  0  0  0  0  0  0  0  0  0  0  0
  141.0860   70.9310  227.2390 C   0  0  0  0  0  0  0  0  0  0  0  0
  140.3020   70.5020  226.1760 C   0  0  0  0  0  0  0  0  0  0  0  0
  139.7700   69.2410  226.2240 C   0  0  0  0  0  0  0  0  0  0  0  0
  140.0200   68.4200  227.3180 C   0  0  0  0  0  0  0  0  0  0  0  0
  138.9110   68.6800  225.1340 C   0  0  0  0  0  0  0  0  0  0  0  0
  139.3360   69.3790  223.8530 C   0  0  0  0  0  0  0  0  0  0  0  0
  139.1040   70.8630  224.0770 C   0  0  2  0  0  0  0  0  0  0  0  0
  138.9620   71.5900  222.8620 N   0  0  0  0  0  0  0  0  0  0  0  0
  140.0110   72.2840  222.2020 C   0  0  0  0  0  0  0  0  0  0  0  0
  141.1850   71.6770  221.8730 N   0  0  0  0  0  0  0  0  0  0  0  0
  142.1670   72.3450  221.2520 C   0  0  0  0  0  0  0  0  0  0  0  0
  143.4070   71.7950  220.8640 N   0  0  0  0  0  0  0  0  0  0  0  0
  143.8340   72.0670  219.4870 C   0  0  0  0  0  0  0  0  0  0  0  0
  143.1950   71.1060  218.5240 C   0  0  0  0  0  0  0  0  0  0  0  0
  143.9050   69.7850  218.6050 C   0  0  1  0  0  0  0  0  0  0  0  0
  145.1940   69.7600  217.7790 C   0  0  0  0  0  0  0  0  0  0  0  0
  145.9420   68.5960  218.4340 C   0  0  0  0  0  0  0  0  0  0  0  0
  145.2100   68.3040  219.7230 C   0  0  0  0  0  0  0  0  0  0  0  0
  144.4490   69.5210  219.9360 N   0  0  0  0  0  0  0  0  0  0  0  0
  141.9600   73.6450  220.9620 N   0  0  0  0  0  0  0  0  0  0  0  0
  140.8230   74.2910  221.2640 C   0  0  0  0  0  0  0  0  0  0  0  0
  140.7150   75.6610  220.9050 N   0  0  0  0  0  0  0  0  0  0  0  0
  141.5810   76.2460  219.9110 C   0  0  0  0  0  0  0  0  0  0  0  0
  142.2310   77.5240  220.3040 C   0  0  0  0  0  0  0  0  0  0  0  0
  141.5930   78.2010  221.4520 C   0  0  0  0  0  0  0  0  0  0  0  0
  142.2220   79.3310  221.9440 C   0  0  0  0  0  0  0  0  0  0  0  0
  141.6900   80.0180  223.0130 C   0  0  0  0  0  0  0  0  0  0  0  0
  140.5120   79.5560  223.5890 C   0  0  0  0  0  0  0  0  0  0  0  0
  139.8930   78.4290  223.0920 C   0  0  0  0  0  0  0  0  0  0  0  0
  140.4340   77.7460  222.0170 C   0  0  0  0  0  0  0  0  0  0  0  0
  139.7260   76.5380  221.5230 C   0  0  0  0  0  0  0  0  0  0  0  0
  139.8660   73.6010  221.8800 N   0  0  0  0  0  0  0  0  0  0  0  0
  140.0920   71.4510  225.0510 C   0  0  0  0  0  0  0  0  0  0  0  0
  140.9988   68.2037  229.2391 H   0  0  0  0  0  0  0  0  0  0  0  0
  141.9695   70.4897  229.1652 H   0  0  0  0  0  0  0  0  0  0  0  0
  141.5161   71.9430  227.2092 H   0  0  0  0  0  0  0  0  0  0  0  0
  139.5894   67.4082  227.3465 H   0  0  0  0  0  0  0  0  0  0  0  0
  139.0680   67.5948  225.0458 H   0  0  0  0  0  0  0  0  0  0  0  0
  137.8433   68.8427  225.3428 H   0  0  0  0  0  0  0  0  0  0  0  0
  140.3998   69.1867  223.6496 H   0  0  0  0  0  0  0  0  0  0  0  0
  138.7625   69.0117  222.9892 H   0  0  0  0  0  0  0  0  0  0  0  0
  138.1250   70.9681  224.5674 H   0  0  0  0  0  0  0  0  0  0  0  0
  138.0050   71.6160  222.4190 H   0  0  0  0  0  0  0  0  0  0  0  0
  144.0230   71.2170  221.4860 H   0  0  0  0  0  0  0  0  0  0  0  0
  143.5439   73.0931  219.2167 H   0  0  0  0  0  0  0  0  0  0  0  0
  144.9258   71.9466  219.4289 H   0  0  0  0  0  0  0  0  0  0  0  0
  142.1353   70.9714  218.7864 H   0  0  0  0  0  0  0  0  0  0  0  0
  143.2669   71.5035  217.5009 H   0  0  0  0  0  0  0  0  0  0  0  0
  143.1332   69.0742  218.2748 H   0  0  0  0  0  0  0  0  0  0  0  0
  144.9887   69.5609  216.7168 H   0  0  0  0  0  0  0  0  0  0  0  0
  145.7485   70.7100  217.7773 H   0  0  0  0  0  0  0  0  0  0  0  0
  145.9265   67.7137  217.7773 H   0  0  0  0  0  0  0  0  0  0  0  0
  146.9971   68.8471  218.6176 H   0  0  0  0  0  0  0  0  0  0  0  0
  144.5458   67.4339  219.6144 H   0  0  0  0  0  0  0  0  0  0  0  0
  145.8789   68.0536  220.5596 H   0  0  0  0  0  0  0  0  0  0  0  0
  145.1750   70.2810  220.1060 H   0  0  0  0  0  0  0  0  0  0  0  0
  142.3737   75.5188  219.6812 H   0  0  0  0  0  0  0  0  0  0  0  0
  140.9376   76.4851  219.0514 H   0  0  0  0  0  0  0  0  0  0  0  0
  143.2778   77.3118  220.5671 H   0  0  0  0  0  0  0  0  0  0  0  0
  142.1365   78.2037  219.4443 H   0  0  0  0  0  0  0  0  0  0  0  0
  143.1540   79.6835  221.4780 H   0  0  0  0  0  0  0  0  0  0  0  0
  142.1888   80.9169  223.4043 H   0  0  0  0  0  0  0  0  0  0  0  0
  140.0727   80.0913  224.4437 H   0  0  0  0  0  0  0  0  0  0  0  0
  138.9615   78.0697  223.5537 H   0  0  0  0  0  0  0  0  0  0  0  0
  139.2397   76.0200  222.3628 H   0  0  0  0  0  0  0  0  0  0  0  0
  138.9525   76.8184  220.7929 H   0  0  0  0  0  0  0  0  0  0  0  0
  141.0490   71.6308  224.5393 H   0  0  0  0  0  0  0  0  0  0  0  0
  139.7010   72.4022  225.4413 H   0  0  0  0  0  0  0  0  0  0  0  0
  1  2  2  0
  2  3  1  0
  3  4  2  0
  4  5  1  0
  5  6  2  0
  5  7  1  0
  7  8  1  0
  8  9  1  0
  9 10  1  0
 10 11  1  0
 11 12  2  0
 12 13  1  0
 13 14  1  0
 14 15  1  0
 15 16  1  0
 16 17  1  0
 17 18  1  0
 18 19  1  0
 19 20  1  0
 20 21  1  0
 13 22  2  0
 22 23  1  0
 23 24  1  0
 24 25  1  0
 25 26  1  0
 26 27  1  0
 27 28  2  0
 28 29  1  0
 29 30  2  0
 30 31  1  0
 31 32  2  0
 32 33  1  0
 23 34  2  0
  9 35  1  0
  6  1  1  0
 34 11  1  0
 35  4  1  0
 21 17  1  0
 33 24  1  0
 32 27  1  0
  1 36  1  0
  2 37  1  0
  3 38  1  0
  6 39  1  0
  7 40  1  0
  7 41  1  0
  8 42  1  0
  8 43  1  0
  9 44  1  1
 10 45  1  0
 14 46  1  0
 15 47  1  0
 15 48  1  0
 16 49  1  0
 16 50  1  0
 17 51  1  6
 18 52  1  0
 18 53  1  0
 19 54  1  0
 19 55  1  0
 20 56  1  0
 20 57  1  0
 21 58  1  0
 25 59  1  0
 25 60  1  0
 26 61  1  0
 26 62  1  0
 28 63  1  0
 29 64  1  0
 30 65  1  0
 31 66  1  0
 33 67  1  0
 33 68  1  0
 35 69  1  0
 35 70  1  0
M  END
>  <smiles>  (102) 
c1ccc2c(c1)CCC(Nc1nc(NCCC3CCCN3)nc(N3CCc4ccccc4C3)n1)C2

>  <score_type>  (102) 
oracle

>  <origin>  (102) 
autodockgpu

>  <m_score__min__energy>  (102) 
-10.69

>  <m_primary>  (102) 
energy

>  <rmsd>  (102) 
12.046847897583884

>  <m_score__min__rmsd>  (102) 
12.046847897583884

>  <meeko>  (102) 
{"free_energy": -9.59, "intermolecular_energy": -11.68, "internal_energy": -1.41, "cluster_size": 21, "cluster_id": 2, "rank_in_cluster": 9}

>  <energy>  (102) 
-10.35

>  <cluster_rmsd>  (102) 
0.26

>  <cluster>  (102) 
1

$$$$

     RDKit          3D

 70 75  0  0  1  0  0  0  0  0999 V2000
  140.6490   67.5200  226.9440 C   0  0  0  0  0  0  0  0  0  0  0  0
  141.1070   68.7010  227.4690 C   0  0  0  0  0  0  0  0  0  0  0  0
  140.8050   69.8900  226.8190 C   0  0  0  0  0  0  0  0  0  0  0  0
  140.0540   69.9230  225.6520 C   0  0  0  0  0  0  0  0  0  0  0  0
  139.6010   68.7390  225.1340 C   0  0  0  0  0  0  0  0  0  0  0  0
  139.8940   67.5400  225.7730 C   0  0  0  0  0  0  0  0  0  0  0  0
  138.7830   68.6620  223.8820 C   0  0  0  0  0  0  0  0  0  0  0  0
  139.1710   69.8680  223.0420 C   0  0  0  0  0  0  0  0  0  0  0  0
  138.8480   71.0940  223.8780 C   0  0  2  0  0  0  0  0  0  0  0  0
  138.6680   72.2670  223.0930 N   0  0  0  0  0  0  0  0  0  0  0  0
  139.7100   72.9710  222.4330 C   0  0  0  0  0  0  0  0  0  0  0  0
  140.8470   72.3520  222.0130 N   0  0  0  0  0  0  0  0  0  0  0  0
  141.8240   73.0300  221.3930 C   0  0  0  0  0  0  0  0  0  0  0  0
  143.0270   72.4700  220.9150 N   0  0  0  0  0  0  0  0  0  0  0  0
  144.0350   73.4190  220.4300 C   0  0  0  0  0  0  0  0  0  0  0  0
  145.4240   72.8720  220.6110 C   0  0  0  0  0  0  0  0  0  0  0  0
  145.7510   71.9700  219.4560 C   0  0  1  0  0  0  0  0  0  0  0  0
  144.7500   70.8220  219.3070 C   0  0  0  0  0  0  0  0  0  0  0  0
  144.9750   70.4210  217.8460 C   0  0  0  0  0  0  0  0  0  0  0  0
  145.7840   71.5370  217.2290 C   0  0  0  0  0  0  0  0  0  0  0  0
  145.5780   72.6300  218.1630 N   0  0  0  0  0  0  0  0  0  0  0  0
  141.6470   74.3520  221.1980 N   0  0  0  0  0  0  0  0  0  0  0  0
  140.5460   75.0100  221.5910 C   0  0  0  0  0  0  0  0  0  0  0  0
  140.4670   76.4040  221.3270 N   0  0  0  0  0  0  0  0  0  0  0  0
  141.0220   76.9710  220.1230 C   0  0  0  0  0  0  0  0  0  0  0  0
  141.8900   78.1610  220.3190 C   0  0  0  0  0  0  0  0  0  0  0  0
  141.7270   78.8210  221.6320 C   0  0  0  0  0  0  0  0  0  0  0  0
  142.5920   79.8610  221.9240 C   0  0  0  0  0  0  0  0  0  0  0  0
  142.5050   80.5260  223.1270 C   0  0  0  0  0  0  0  0  0  0  0  0
  141.5340   80.1330  224.0420 C   0  0  0  0  0  0  0  0  0  0  0  0
  140.6770   79.0950  223.7410 C   0  0  0  0  0  0  0  0  0  0  0  0
  140.7720   78.4340  222.5300 C   0  0  0  0  0  0  0  0  0  0  0  0
  139.8240   77.3240  222.2590 C   0  0  0  0  0  0  0  0  0  0  0  0
  139.5940   74.3100  222.2040 N   0  0  0  0  0  0  0  0  0  0  0  0
  139.7920   71.2530  225.0410 C   0  0  0  0  0  0  0  0  0  0  0  0
  140.8754   66.5659  227.4425 H   0  0  0  0  0  0  0  0  0  0  0  0
  141.7052   68.7063  228.3921 H   0  0  0  0  0  0  0  0  0  0  0  0
  141.1726   70.8364  227.2424 H   0  0  0  0  0  0  0  0  0  0  0  0
  139.5251   66.5945  225.3488 H   0  0  0  0  0  0  0  0  0  0  0  0
  139.0058   67.7320  223.3384 H   0  0  0  0  0  0  0  0  0  0  0  0
  137.7065   68.6627  224.1079 H   0  0  0  0  0  0  0  0  0  0  0  0
  140.2455   69.8391  222.8083 H   0  0  0  0  0  0  0  0  0  0  0  0
  138.6253   69.8812  222.0870 H   0  0  0  0  0  0  0  0  0  0  0  0
  137.8618   70.9243  224.3347 H   0  0  0  0  0  0  0  0  0  0  0  0
  137.6860   72.6410  222.9940 H   0  0  0  0  0  0  0  0  0  0  0  0
  143.2360   71.4420  220.8870 H   0  0  0  0  0  0  0  0  0  0  0  0
  143.8615   73.6126  219.3612 H   0  0  0  0  0  0  0  0  0  0  0  0
  143.9472   74.3493  221.0103 H   0  0  0  0  0  0  0  0  0  0  0  0
  146.1451   73.7019  220.6459 H   0  0  0  0  0  0  0  0  0  0  0  0
  145.4792   72.3045  221.5517 H   0  0  0  0  0  0  0  0  0  0  0  0
  146.7817   71.6556  219.6772 H   0  0  0  0  0  0  0  0  0  0  0  0
  144.9812   69.9936  219.9929 H   0  0  0  0  0  0  0  0  0  0  0  0
  143.7114   71.0939  219.5464 H   0  0  0  0  0  0  0  0  0  0  0  0
  145.5284   69.4719  217.7908 H   0  0  0  0  0  0  0  0  0  0  0  0
  144.0220   70.2735  217.3169 H   0  0  0  0  0  0  0  0  0  0  0  0
  146.8481   71.2665  217.1626 H   0  0  0  0  0  0  0  0  0  0  0  0
  145.4828   71.7785  216.1990 H   0  0  0  0  0  0  0  0  0  0  0  0
  144.5430   72.8660  218.0960 H   0  0  0  0  0  0  0  0  0  0  0  0
  141.6202   76.1930  219.6262 H   0  0  0  0  0  0  0  0  0  0  0  0
  140.1639   77.3170  219.5280 H   0  0  0  0  0  0  0  0  0  0  0  0
  142.9385   77.8431  220.2206 H   0  0  0  0  0  0  0  0  0  0  0  0
  141.5941   78.8968  219.5567 H   0  0  0  0  0  0  0  0  0  0  0  0
  143.3549   80.1589  221.1897 H   0  0  0  0  0  0  0  0  0  0  0  0
  143.1914   81.3534  223.3600 H   0  0  0  0  0  0  0  0  0  0  0  0
  141.4493   80.6515  225.0085 H   0  0  0  0  0  0  0  0  0  0  0  0
  139.9117   78.7905  224.4701 H   0  0  0  0  0  0  0  0  0  0  0  0
  139.5840   76.8001  223.1960 H   0  0  0  0  0  0  0  0  0  0  0  0
  138.8893   77.7140  221.8297 H   0  0  0  0  0  0  0  0  0  0  0  0
  140.7390   71.6873  224.6879 H   0  0  0  0  0  0  0  0  0  0  0  0
  139.3406   71.9187  225.7913 H   0  0  0  0  0  0  0  0  0  0  0  0
  1  2  2  0
  2  3  1  0
  3  4  2  0
  4  5  1  0
  5  6  2  0
  5  7  1  0
  7  8  1  0
  8  9  1  0
  9 10  1  0
 10 11  1  0
 11 12  2  0
 12 13  1  0
 13 14  1  0
 14 15  1  0
 15 16  1  0
 16 17  1  0
 17 18  1  0
 18 19  1  0
 19 20  1  0
 20 21  1  0
 13 22  2  0
 22 23  1  0
 23 24  1  0
 24 25  1  0
 25 26  1  0
 26 27  1  0
 27 28  2  0
 28 29  1  0
 29 30  2  0
 30 31  1  0
 31 32  2  0
 32 33  1  0
 23 34  2  0
  9 35  1  0
  6  1  1  0
 34 11  1  0
 35  4  1  0
 21 17  1  0
 33 24  1  0
 32 27  1  0
  1 36  1  0
  2 37  1  0
  3 38  1  0
  6 39  1  0
  7 40  1  0
  7 41  1  0
  8 42  1  0
  8 43  1  0
  9 44  1  1
 10 45  1  0
 14 46  1  0
 15 47  1  0
 15 48  1  0
 16 49  1  0
 16 50  1  0
 17 51  1  1
 18 52  1  0
 18 53  1  0
 19 54  1  0
 19 55  1  0
 20 56  1  0
 20 57  1  0
 21 58  1  0
 25 59  1  0
 25 60  1  0
 26 61  1  0
 26 62  1  0
 28 63  1  0
 29 64  1  0
 30 65  1  0
 31 66  1  0
 33 67  1  0
 33 68  1  0
 35 69  1  0
 35 70  1  0
M  END
>  <smiles>  (103) 
c1ccc2c(c1)CCC(Nc1nc(NCCC3CCCN3)nc(N3CCc4ccccc4C3)n1)C2

>  <score_type>  (103) 
oracle

>  <origin>  (103) 
autodockgpu

>  <m_score__min__energy>  (103) 
-10.69

>  <m_primary>  (103) 
energy

>  <rmsd>  (103) 
12.178839462159885

>  <m_score__min__rmsd>  (103) 
12.178839462159885

>  <meeko>  (103) 
{"free_energy": -10.08, "intermolecular_energy": -12.17, "internal_energy": -0.96, "cluster_size": 21, "cluster_id": 2, "rank_in_cluster": 4}

>  <energy>  (103) 
-10.21

>  <cluster_rmsd>  (103) 
1.68

>  <cluster>  (103) 
1

$$$$

     RDKit          3D

 70 75  0  0  1  0  0  0  0  0999 V2000
  140.8340   68.2260  228.1820 C   0  0  0  0  0  0  0  0  0  0  0  0
  141.3650   69.4810  228.3470 C   0  0  0  0  0  0  0  0  0  0  0  0
  141.0670   70.4660  227.4150 C   0  0  0  0  0  0  0  0  0  0  0  0
  140.2480   70.2230  226.3210 C   0  0  0  0  0  0  0  0  0  0  0  0
  139.7220   68.9680  226.1640 C   0  0  0  0  0  0  0  0  0  0  0  0
  140.0110   67.9710  227.0880 C   0  0  0  0  0  0  0  0  0  0  0  0
  138.8270   68.6000  225.0220 C   0  0  0  0  0  0  0  0  0  0  0  0
  139.2050   69.5160  223.8700 C   0  0  0  0  0  0  0  0  0  0  0  0
  138.9770   70.9360  224.3590 C   0  0  2  0  0  0  0  0  0  0  0  0
  138.7910   71.8630  223.2950 N   0  0  0  0  0  0  0  0  0  0  0  0
  139.8390   72.5090  222.5870 C   0  0  0  0  0  0  0  0  0  0  0  0
  140.9730   71.8520  222.2170 N   0  0  0  0  0  0  0  0  0  0  0  0
  141.9550   72.4730  221.5500 C   0  0  0  0  0  0  0  0  0  0  0  0
  143.1560   71.8700  221.1180 N   0  0  0  0  0  0  0  0  0  0  0  0
  143.8140   72.4930  219.9650 C   0  0  0  0  0  0  0  0  0  0  0  0
  143.4180   71.8120  218.6840 C   0  0  0  0  0  0  0  0  0  0  0  0
  144.0890   70.4700  218.6130 C   0  0  1  0  0  0  0  0  0  0  0  0
  145.6120   70.5810  218.5090 C   0  0  0  0  0  0  0  0  0  0  0  0
  146.0420   69.1890  218.9820 C   0  0  0  0  0  0  0  0  0  0  0  0
  144.8170   68.5660  219.6080 C   0  0  0  0  0  0  0  0  0  0  0  0
  143.9710   69.7180  219.8610 N   0  0  0  0  0  0  0  0  0  0  0  0
  141.7880   73.7780  221.2550 N   0  0  0  0  0  0  0  0  0  0  0  0
  140.6920   74.4720  221.5950 C   0  0  0  0  0  0  0  0  0  0  0  0
  140.6230   75.8420  221.2260 N   0  0  0  0  0  0  0  0  0  0  0  0
  141.4160   76.3670  220.1420 C   0  0  0  0  0  0  0  0  0  0  0  0
  142.1720   77.6100  220.4470 C   0  0  0  0  0  0  0  0  0  0  0  0
  141.6900   78.3350  221.6420 C   0  0  0  0  0  0  0  0  0  0  0  0
  142.4260   79.4330  222.0500 C   0  0  0  0  0  0  0  0  0  0  0  0
  142.0430   80.1600  223.1550 C   0  0  0  0  0  0  0  0  0  0  0  0
  140.9050   79.7710  223.8520 C   0  0  0  0  0  0  0  0  0  0  0  0
  140.1780   78.6750  223.4380 C   0  0  0  0  0  0  0  0  0  0  0  0
  140.5700   77.9520  222.3260 C   0  0  0  0  0  0  0  0  0  0  0  0
  139.7510   76.7800  221.9250 C   0  0  0  0  0  0  0  0  0  0  0  0
  139.7340   73.8270  222.2570 N   0  0  0  0  0  0  0  0  0  0  0  0
  139.9960   71.3530  225.3870 C   0  0  0  0  0  0  0  0  0  0  0  0
  141.0565   67.4293  228.9071 H   0  0  0  0  0  0  0  0  0  0  0  0
  142.0169   69.7030  229.2048 H   0  0  0  0  0  0  0  0  0  0  0  0
  141.4936   71.4712  227.5478 H   0  0  0  0  0  0  0  0  0  0  0  0
  139.5837   66.9664  226.9533 H   0  0  0  0  0  0  0  0  0  0  0  0
  138.9834   67.5485  224.7393 H   0  0  0  0  0  0  0  0  0  0  0  0
  137.7669   68.7150  225.2923 H   0  0  0  0  0  0  0  0  0  0  0  0
  140.2615   69.3716  223.6000 H   0  0  0  0  0  0  0  0  0  0  0  0
  138.6027   69.3008  222.9750 H   0  0  0  0  0  0  0  0  0  0  0  0
  138.0157   70.9452  224.8936 H   0  0  0  0  0  0  0  0  0  0  0  0
  137.8000   72.0880  223.0140 H   0  0  0  0  0  0  0  0  0  0  0  0
  143.5910   71.0250  221.5620 H   0  0  0  0  0  0  0  0  0  0  0  0
  143.5225   73.5524  219.9139 H   0  0  0  0  0  0  0  0  0  0  0  0
  144.9027   72.3978  220.0898 H   0  0  0  0  0  0  0  0  0  0  0  0
  142.3263   71.6797  218.6594 H   0  0  0  0  0  0  0  0  0  0  0  0
  143.7277   72.4270  217.8262 H   0  0  0  0  0  0  0  0  0  0  0  0
  143.6022   70.0000  217.7458 H   0  0  0  0  0  0  0  0  0  0  0  0
  145.9329   70.7727  217.4745 H   0  0  0  0  0  0  0  0  0  0  0  0
  146.0459   71.4097  219.0879 H   0  0  0  0  0  0  0  0  0  0  0  0
  146.3850   68.5845  218.1294 H   0  0  0  0  0  0  0  0  0  0  0  0
  146.8757   69.2459  219.6974 H   0  0  0  0  0  0  0  0  0  0  0  0
  144.3322   67.8614  218.9163 H   0  0  0  0  0  0  0  0  0  0  0  0
  145.0378   67.9782  220.5112 H   0  0  0  0  0  0  0  0  0  0  0  0
  144.4880   70.2910  220.5930 H   0  0  0  0  0  0  0  0  0  0  0  0
  142.1402   75.5937  219.8461 H   0  0  0  0  0  0  0  0  0  0  0  0
  140.7034   76.6336  219.3475 H   0  0  0  0  0  0  0  0  0  0  0  0
  143.2264   77.3415  220.6084 H   0  0  0  0  0  0  0  0  0  0  0  0
  142.0302   78.2845  219.5897 H   0  0  0  0  0  0  0  0  0  0  0  0
  143.3241   79.7276  221.4874 H   0  0  0  0  0  0  0  0  0  0  0  0
  142.6274   81.0333  223.4804 H   0  0  0  0  0  0  0  0  0  0  0  0
  140.5833   80.3396  224.7370 H   0  0  0  0  0  0  0  0  0  0  0  0
  139.2795   78.3734  223.9963 H   0  0  0  0  0  0  0  0  0  0  0  0
  139.3240   76.2994  222.8176 H   0  0  0  0  0  0  0  0  0  0  0  0
  138.9247   77.0955  221.2710 H   0  0  0  0  0  0  0  0  0  0  0  0
  140.9341   71.6284  224.8829 H   0  0  0  0  0  0  0  0  0  0  0  0
  139.6158   72.2175  225.9510 H   0  0  0  0  0  0  0  0  0  0  0  0
  1  2  2  0
  2  3  1  0
  3  4  2  0
  4  5  1  0
  5  6  2  0
  5  7  1  0
  7  8  1  0
  8  9  1  0
  9 10  1  0
 10 11  1  0
 11 12  2  0
 12 13  1  0
 13 14  1  0
 14 15  1  0
 15 16  1  0
 16 17  1  0
 17 18  1  0
 18 19  1  0
 19 20  1  0
 20 21  1  0
 13 22  2  0
 22 23  1  0
 23 24  1  0
 24 25  1  0
 25 26  1  0
 26 27  1  0
 27 28  2  0
 28 29  1  0
 29 30  2  0
 30 31  1  0
 31 32  2  0
 32 33  1  0
 23 34  2  0
  9 35  1  0
  6  1  1  0
 34 11  1  0
 35  4  1  0
 21 17  1  0
 33 24  1  0
 32 27  1  0
  1 36  1  0
  2 37  1  0
  3 38  1  0
  6 39  1  0
  7 40  1  0
  7 41  1  0
  8 42  1  0
  8 43  1  0
  9 44  1  1
 10 45  1  0
 14 46  1  0
 15 47  1  0
 15 48  1  0
 16 49  1  0
 16 50  1  0
 17 51  1  6
 18 52  1  0
 18 53  1  0
 19 54  1  0
 19 55  1  0
 20 56  1  0
 20 57  1  0
 21 58  1  0
 25 59  1  0
 25 60  1  0
 26 61  1  0
 26 62  1  0
 28 63  1  0
 29 64  1  0
 30 65  1  0
 31 66  1  0
 33 67  1  0
 33 68  1  0
 35 69  1  0
 35 70  1  0
M  END
>  <smiles>  (104) 
c1ccc2c(c1)CCC(Nc1nc(NCCC3CCCN3)nc(N3CCc4ccccc4C3)n1)C2

>  <score_type>  (104) 
oracle

>  <origin>  (104) 
autodockgpu

>  <m_score__min__energy>  (104) 
-10.69

>  <m_primary>  (104) 
energy

>  <rmsd>  (104) 
12.260517333363106

>  <m_score__min__rmsd>  (104) 
12.260517333363106

>  <meeko>  (104) 
{"free_energy": -9.78, "intermolecular_energy": -11.87, "internal_energy": -1.54, "cluster_size": 21, "cluster_id": 2, "rank_in_cluster": 7}

>  <energy>  (104) 
-10.18

>  <cluster_rmsd>  (104) 
0.32

>  <cluster>  (104) 
1

$$$$

     RDKit          3D

 70 75  0  0  1  0  0  0  0  0999 V2000
  140.4320   67.5390  227.2420 C   0  0  0  0  0  0  0  0  0  0  0  0
  139.2710   67.2940  226.5530 C   0  0  0  0  0  0  0  0  0  0  0  0
  138.8630   68.1950  225.5780 C   0  0  0  0  0  0  0  0  0  0  0  0
  139.5920   69.3380  225.2780 C   0  0  0  0  0  0  0  0  0  0  0  0
  140.7490   69.5750  225.9710 C   0  0  0  0  0  0  0  0  0  0  0  0
  141.1720   68.6820  226.9500 C   0  0  0  0  0  0  0  0  0  0  0  0
  141.6100   70.7750  225.7260 C   0  0  0  0  0  0  0  0  0  0  0  0
  140.6870   71.8660  225.2100 C   0  0  0  0  0  0  0  0  0  0  0  0
  140.0570   71.3270  223.9370 C   0  0  2  0  0  0  0  0  0  0  0  0
  139.5840   72.3560  223.0760 N   0  0  0  0  0  0  0  0  0  0  0  0
  140.3790   73.0470  222.1220 C   0  0  0  0  0  0  0  0  0  0  0  0
  140.5120   74.4020  222.1370 N   0  0  0  0  0  0  0  0  0  0  0  0
  141.2640   75.0400  221.2300 C   0  0  0  0  0  0  0  0  0  0  0  0
  141.4670   76.4360  221.1780 N   0  0  0  0  0  0  0  0  0  0  0  0
  140.2770   77.2540  220.9200 C   0  0  0  0  0  0  0  0  0  0  0  0
  139.8210   77.9530  222.1700 C   0  0  0  0  0  0  0  0  0  0  0  0
  140.6930   79.1530  222.4070 C   0  0  1  0  0  0  0  0  0  0  0  0
  141.0300   79.3490  223.8870 C   0  0  0  0  0  0  0  0  0  0  0  0
  142.2800   80.2300  223.7910 C   0  0  0  0  0  0  0  0  0  0  0  0
  142.7200   80.1700  222.3470 C   0  0  0  0  0  0  0  0  0  0  0  0
  142.0370   78.9870  221.8580 N   0  0  0  0  0  0  0  0  0  0  0  0
  141.8880   74.2980  220.2940 N   0  0  0  0  0  0  0  0  0  0  0  0
  141.7910   72.9610  220.2340 C   0  0  0  0  0  0  0  0  0  0  0  0
  142.4980   72.2830  219.2050 N   0  0  0  0  0  0  0  0  0  0  0  0
  141.8270   71.3710  218.3120 C   0  0  0  0  0  0  0  0  0  0  0  0
  142.4830   70.0480  218.1390 C   0  0  0  0  0  0  0  0  0  0  0  0
  143.8990   70.0130  218.5660 C   0  0  0  0  0  0  0  0  0  0  0  0
  144.5310   68.7830  218.5450 C   0  0  0  0  0  0  0  0  0  0  0  0
  145.8490   68.6670  218.9290 C   0  0  0  0  0  0  0  0  0  0  0  0
  146.5310   69.8070  219.3380 C   0  0  0  0  0  0  0  0  0  0  0  0
  145.8920   71.0290  219.3550 C   0  0  0  0  0  0  0  0  0  0  0  0
  144.5690   71.1350  218.9670 C   0  0  0  0  0  0  0  0  0  0  0  0
  143.9300   72.4750  219.0060 C   0  0  0  0  0  0  0  0  0  0  0  0
  141.0370   72.3560  221.1480 N   0  0  0  0  0  0  0  0  0  0  0  0
  139.0600   70.2320  224.2160 C   0  0  0  0  0  0  0  0  0  0  0  0
  140.7751   66.8389  228.0180 H   0  0  0  0  0  0  0  0  0  0  0  0
  138.6721   66.3971  226.7697 H   0  0  0  0  0  0  0  0  0  0  0  0
  137.9326   67.9968  225.0258 H   0  0  0  0  0  0  0  0  0  0  0  0
  142.1031   68.8812  227.5007 H   0  0  0  0  0  0  0  0  0  0  0  0
  142.0918   71.0951  226.6616 H   0  0  0  0  0  0  0  0  0  0  0  0
  142.4083   70.5525  225.0027 H   0  0  0  0  0  0  0  0  0  0  0  0
  139.9088   72.0898  225.9546 H   0  0  0  0  0  0  0  0  0  0  0  0
  141.2388   72.7981  225.0186 H   0  0  0  0  0  0  0  0  0  0  0  0
  140.8575   70.8414  223.3596 H   0  0  0  0  0  0  0  0  0  0  0  0
  138.5670   72.6270  223.1520 H   0  0  0  0  0  0  0  0  0  0  0  0
  142.3940   76.9080  221.3080 H   0  0  0  0  0  0  0  0  0  0  0  0
  140.5171   78.0066  220.1545 H   0  0  0  0  0  0  0  0  0  0  0  0
  139.4678   76.5948  220.5727 H   0  0  0  0  0  0  0  0  0  0  0  0
  138.7757   78.2746  222.0519 H   0  0  0  0  0  0  0  0  0  0  0  0
  139.8938   77.2666  223.0265 H   0  0  0  0  0  0  0  0  0  0  0  0
  140.1105   79.9697  221.9556 H   0  0  0  0  0  0  0  0  0  0  0  0
  140.2161   79.8603  224.4219 H   0  0  0  0  0  0  0  0  0  0  0  0
  141.1782   78.4127  224.4450 H   0  0  0  0  0  0  0  0  0  0  0  0
  142.0409   81.2654  224.0753 H   0  0  0  0  0  0  0  0  0  0  0  0
  143.0726   79.8811  224.4692 H   0  0  0  0  0  0  0  0  0  0  0  0
  142.4020   81.0681  221.7972 H   0  0  0  0  0  0  0  0  0  0  0  0
  143.8122   80.1276  222.2234 H   0  0  0  0  0  0  0  0  0  0  0  0
  142.4680   78.1730  222.3920 H   0  0  0  0  0  0  0  0  0  0  0  0
  140.8131   71.1984  218.7023 H   0  0  0  0  0  0  0  0  0  0  0  0
  141.8445   71.8493  217.3216 H   0  0  0  0  0  0  0  0  0  0  0  0
  141.9258   69.3067  218.7306 H   0  0  0  0  0  0  0  0  0  0  0  0
  142.4722   69.8282  217.0612 H   0  0  0  0  0  0  0  0  0  0  0  0
  143.9770   67.8903  218.2191 H   0  0  0  0  0  0  0  0  0  0  0  0
  146.3528   67.6893  218.9122 H   0  0  0  0  0  0  0  0  0  0  0  0
  147.5836   69.7343  219.6491 H   0  0  0  0  0  0  0  0  0  0  0  0
  146.4390   71.9264  219.6797 H   0  0  0  0  0  0  0  0  0  0  0  0
  144.3471   73.0640  219.8362 H   0  0  0  0  0  0  0  0  0  0  0  0
  144.1172   73.0163  218.0669 H   0  0  0  0  0  0  0  0  0  0  0  0
  138.1114   70.6763  224.5516 H   0  0  0  0  0  0  0  0  0  0  0  0
  138.8873   69.6501  223.2986 H   0  0  0  0  0  0  0  0  0  0  0  0
  1  2  2  0
  2  3  1  0
  3  4  2  0
  4  5  1  0
  5  6  2  0
  5  7  1  0
  7  8  1  0
  8  9  1  0
  9 10  1  0
 10 11  1  0
 11 12  2  0
 12 13  1  0
 13 14  1  0
 14 15  1  0
 15 16  1  0
 16 17  1  0
 17 18  1  0
 18 19  1  0
 19 20  1  0
 20 21  1  0
 13 22  2  0
 22 23  1  0
 23 24  1  0
 24 25  1  0
 25 26  1  0
 26 27  1  0
 27 28  2  0
 28 29  1  0
 29 30  2  0
 30 31  1  0
 31 32  2  0
 32 33  1  0
 23 34  2  0
  9 35  1  0
  6  1  1  0
 34 11  1  0
 35  4  1  0
 21 17  1  0
 33 24  1  0
 32 27  1  0
  1 36  1  0
  2 37  1  0
  3 38  1  0
  6 39  1  0
  7 40  1  0
  7 41  1  0
  8 42  1  0
  8 43  1  0
  9 44  1  6
 10 45  1  0
 14 46  1  0
 15 47  1  0
 15 48  1  0
 16 49  1  0
 16 50  1  0
 17 51  1  6
 18 52  1  0
 18 53  1  0
 19 54  1  0
 19 55  1  0
 20 56  1  0
 20 57  1  0
 21 58  1  0
 25 59  1  0
 25 60  1  0
 26 61  1  0
 26 62  1  0
 28 63  1  0
 29 64  1  0
 30 65  1  0
 31 66  1  0
 33 67  1  0
 33 68  1  0
 35 69  1  0
 35 70  1  0
M  END
>  <smiles>  (105) 
c1ccc2c(c1)CCC(Nc1nc(NCCC3CCCN3)nc(N3CCc4ccccc4C3)n1)C2

>  <score_type>  (105) 
oracle

>  <origin>  (105) 
autodockgpu

>  <m_score__min__energy>  (105) 
-10.69

>  <m_primary>  (105) 
energy

>  <rmsd>  (105) 
11.961964368582024

>  <m_score__min__rmsd>  (105) 
11.961964368582024

>  <meeko>  (105) 
{"free_energy": -9.99, "intermolecular_energy": -12.08, "internal_energy": -1.47, "cluster_size": 4, "cluster_id": 4, "rank_in_cluster": 1}

>  <energy>  (105) 
-10.16

>  <cluster_rmsd>  (105) 
1.03

>  <cluster>  (105) 
1

$$$$

     RDKit          3D

 70 75  0  0  1  0  0  0  0  0999 V2000
  141.0130   68.1070  228.4490 C   0  0  0  0  0  0  0  0  0  0  0  0
  141.3930   69.4040  228.6880 C   0  0  0  0  0  0  0  0  0  0  0  0
  141.0470   70.3870  227.7710 C   0  0  0  0  0  0  0  0  0  0  0  0
  140.3270   70.1020  226.6190 C   0  0  0  0  0  0  0  0  0  0  0  0
  139.9500   68.8050  226.3890 C   0  0  0  0  0  0  0  0  0  0  0  0
  140.2900   67.8090  227.2970 C   0  0  0  0  0  0  0  0  0  0  0  0
  139.1710   68.3890  225.1800 C   0  0  0  0  0  0  0  0  0  0  0  0
  139.5170   69.3840  224.0850 C   0  0  0  0  0  0  0  0  0  0  0  0
  139.1080   70.7520  224.6040 C   0  0  2  0  0  0  0  0  0  0  0  0
  138.8870   71.6950  223.5610 N   0  0  0  0  0  0  0  0  0  0  0  0
  139.7990   71.9720  222.5080 C   0  0  0  0  0  0  0  0  0  0  0  0
  140.3770   73.1950  222.3570 N   0  0  0  0  0  0  0  0  0  0  0  0
  141.2360   73.4440  221.3580 C   0  0  0  0  0  0  0  0  0  0  0  0
  141.8890   74.6740  221.1320 N   0  0  0  0  0  0  0  0  0  0  0  0
  142.0780   75.0580  219.7290 C   0  0  0  0  0  0  0  0  0  0  0  0
  143.4510   75.6290  219.5060 C   0  0  0  0  0  0  0  0  0  0  0  0
  144.4470   74.5070  219.4500 C   0  0  1  0  0  0  0  0  0  0  0  0
  144.9500   74.1000  220.8380 C   0  0  0  0  0  0  0  0  0  0  0  0
  145.4740   72.6880  220.5590 C   0  0  0  0  0  0  0  0  0  0  0  0
  144.9380   72.3060  219.2000 C   0  0  0  0  0  0  0  0  0  0  0  0
  143.8480   73.2460  219.0150 N   0  0  0  0  0  0  0  0  0  0  0  0
  141.5120   72.4410  220.5000 N   0  0  0  0  0  0  0  0  0  0  0  0
  140.9700   71.2180  220.6040 C   0  0  0  0  0  0  0  0  0  0  0  0
  141.3390   70.2370  219.6450 N   0  0  0  0  0  0  0  0  0  0  0  0
  140.5300   69.0630  219.4260 C   0  0  0  0  0  0  0  0  0  0  0  0
  141.2670   67.7720  219.4240 C   0  0  0  0  0  0  0  0  0  0  0  0
  142.7280   67.9080  219.2360 C   0  0  0  0  0  0  0  0  0  0  0  0
  143.4850   66.7550  219.3470 C   0  0  0  0  0  0  0  0  0  0  0  0
  144.8520   66.7980  219.1860 C   0  0  0  0  0  0  0  0  0  0  0  0
  145.4570   68.0200  218.9120 C   0  0  0  0  0  0  0  0  0  0  0  0
  144.6930   69.1630  218.8040 C   0  0  0  0  0  0  0  0  0  0  0  0
  143.3210   69.1090  218.9660 C   0  0  0  0  0  0  0  0  0  0  0  0
  142.5480   70.3710  218.8390 C   0  0  0  0  0  0  0  0  0  0  0  0
  140.1220   71.0020  221.6070 N   0  0  0  0  0  0  0  0  0  0  0  0
  140.0110   71.2340  225.7080 C   0  0  0  0  0  0  0  0  0  0  0  0
  141.2770   67.3108  229.1606 H   0  0  0  0  0  0  0  0  0  0  0  0
  141.9633   69.6607  229.5929 H   0  0  0  0  0  0  0  0  0  0  0  0
  141.3534   71.4258  227.9635 H   0  0  0  0  0  0  0  0  0  0  0  0
  139.9835   66.7706  227.1027 H   0  0  0  0  0  0  0  0  0  0  0  0
  139.4571   67.3718  224.8743 H   0  0  0  0  0  0  0  0  0  0  0  0
  138.0903   68.3805  225.3848 H   0  0  0  0  0  0  0  0  0  0  0  0
  140.5973   69.3626  223.8790 H   0  0  0  0  0  0  0  0  0  0  0  0
  138.9967   69.1415  223.1467 H   0  0  0  0  0  0  0  0  0  0  0  0
  138.1208   70.6383  225.0758 H   0  0  0  0  0  0  0  0  0  0  0  0
  137.9770   72.2280  223.5720 H   0  0  0  0  0  0  0  0  0  0  0  0
  142.2370   75.3110  221.8890 H   0  0  0  0  0  0  0  0  0  0  0  0
  141.9503   74.1698  219.0928 H   0  0  0  0  0  0  0  0  0  0  0  0
  141.3335   75.8262  219.4730 H   0  0  0  0  0  0  0  0  0  0  0  0
  143.4689   76.1850  218.5571 H   0  0  0  0  0  0  0  0  0  0  0  0
  143.7070   76.3107  220.3304 H   0  0  0  0  0  0  0  0  0  0  0  0
  145.2220   74.9034  218.7775 H   0  0  0  0  0  0  0  0  0  0  0  0
  145.7522   74.7664  221.1880 H   0  0  0  0  0  0  0  0  0  0  0  0
  144.1872   74.1516  221.6289 H   0  0  0  0  0  0  0  0  0  0  0  0
  146.5740   72.6832  220.5512 H   0  0  0  0  0  0  0  0  0  0  0  0
  145.1502   71.9777  221.3340 H   0  0  0  0  0  0  0  0  0  0  0  0
  145.7052   72.4291  218.4214 H   0  0  0  0  0  0  0  0  0  0  0  0
  144.6249   71.2537  219.1328 H   0  0  0  0  0  0  0  0  0  0  0  0
  143.1310   72.9960  219.7600 H   0  0  0  0  0  0  0  0  0  0  0  0
  139.7721   69.0198  220.2220 H   0  0  0  0  0  0  0  0  0  0  0  0
  140.1057   69.1713  218.4169 H   0  0  0  0  0  0  0  0  0  0  0  0
  141.0883   67.2713  220.3870 H   0  0  0  0  0  0  0  0  0  0  0  0
  140.8905   67.1944  218.5669 H   0  0  0  0  0  0  0  0  0  0  0  0
  142.9911   65.7967  219.5655 H   0  0  0  0  0  0  0  0  0  0  0  0
  145.4548   65.8820  219.2726 H   0  0  0  0  0  0  0  0  0  0  0  0
  146.5478   68.0749  218.7811 H   0  0  0  0  0  0  0  0  0  0  0  0
  145.1792   70.1256  218.5872 H   0  0  0  0  0  0  0  0  0  0  0  0
  143.1494   71.2165  219.2043 H   0  0  0  0  0  0  0  0  0  0  0  0
  142.2891   70.5585  217.7865 H   0  0  0  0  0  0  0  0  0  0  0  0
  140.9425   71.6270  225.2746 H   0  0  0  0  0  0  0  0  0  0  0  0
  139.5056   72.0304  226.2740 H   0  0  0  0  0  0  0  0  0  0  0  0
  1  2  2  0
  2  3  1  0
  3  4  2  0
  4  5  1  0
  5  6  2  0
  5  7  1  0
  7  8  1  0
  8  9  1  0
  9 10  1  0
 10 11  1  0
 11 12  2  0
 12 13  1  0
 13 14  1  0
 14 15  1  0
 15 16  1  0
 16 17  1  0
 17 18  1  0
 18 19  1  0
 19 20  1  0
 20 21  1  0
 13 22  2  0
 22 23  1  0
 23 24  1  0
 24 25  1  0
 25 26  1  0
 26 27  1  0
 27 28  2  0
 28 29  1  0
 29 30  2  0
 30 31  1  0
 31 32  2  0
 32 33  1  0
 23 34  2  0
  9 35  1  0
  6  1  1  0
 34 11  1  0
 35  4  1  0
 21 17  1  0
 33 24  1  0
 32 27  1  0
  1 36  1  0
  2 37  1  0
  3 38  1  0
  6 39  1  0
  7 40  1  0
  7 41  1  0
  8 42  1  0
  8 43  1  0
  9 44  1  1
 10 45  1  0
 14 46  1  0
 15 47  1  0
 15 48  1  0
 16 49  1  0
 16 50  1  0
 17 51  1  6
 18 52  1  0
 18 53  1  0
 19 54  1  0
 19 55  1  0
 20 56  1  0
 20 57  1  0
 21 58  1  0
 25 59  1  0
 25 60  1  0
 26 61  1  0
 26 62  1  0
 28 63  1  0
 29 64  1  0
 30 65  1  0
 31 66  1  0
 33 67  1  0
 33 68  1  0
 35 69  1  0
 35 70  1  0
M  END
>  <smiles>  (106) 
c1ccc2c(c1)CCC(Nc1nc(NCCC3CCCN3)nc(N3CCc4ccccc4C3)n1)C2

>  <score_type>  (106) 
oracle

>  <origin>  (106) 
autodockgpu

>  <m_score__min__energy>  (106) 
-10.69

>  <m_primary>  (106) 
energy

>  <rmsd>  (106) 
12.43712261370985

>  <m_score__min__rmsd>  (106) 
12.43712261370985

>  <meeko>  (106) 
{"free_energy": -9.32, "intermolecular_energy": -11.41, "internal_energy": -2.36, "cluster_size": 9, "cluster_id": 1, "rank_in_cluster": 8}

>  <energy>  (106) 
-9.61

>  <cluster_rmsd>  (106) 
0.78

>  <cluster>  (106) 
1

$$$$

     RDKit          3D

 70 75  0  0  1  0  0  0  0  0999 V2000
  140.5100   67.9560  227.1840 C   0  0  0  0  0  0  0  0  0  0  0  0
  140.9780   69.1690  227.6210 C   0  0  0  0  0  0  0  0  0  0  0  0
  140.7670   70.2950  226.8370 C   0  0  0  0  0  0  0  0  0  0  0  0
  140.0970   70.2340  225.6220 C   0  0  0  0  0  0  0  0  0  0  0  0
  139.6330   69.0190  225.1940 C   0  0  0  0  0  0  0  0  0  0  0  0
  139.8360   67.8820  225.9670 C   0  0  0  0  0  0  0  0  0  0  0  0
  138.8970   68.8410  223.9020 C   0  0  0  0  0  0  0  0  0  0  0  0
  139.3860   69.9420  222.9760 C   0  0  0  0  0  0  0  0  0  0  0  0
  139.0570   71.2570  223.6620 C   0  0  2  0  0  0  0  0  0  0  0  0
  138.9760   72.3490  222.7530 N   0  0  0  0  0  0  0  0  0  0  0  0
  140.0920   73.0250  222.1930 C   0  0  0  0  0  0  0  0  0  0  0  0
  140.1230   74.3800  222.0580 N   0  0  0  0  0  0  0  0  0  0  0  0
  141.1820   75.0050  221.5250 C   0  0  0  0  0  0  0  0  0  0  0  0
  141.3050   76.4010  221.3580 N   0  0  0  0  0  0  0  0  0  0  0  0
  140.0540   77.1660  221.3580 C   0  0  0  0  0  0  0  0  0  0  0  0
  139.8230   77.8240  222.6900 C   0  0  0  0  0  0  0  0  0  0  0  0
  140.6850   79.0500  222.7870 C   0  0  1  0  0  0  0  0  0  0  0  0
  141.3520   79.1910  224.1570 C   0  0  0  0  0  0  0  0  0  0  0  0
  142.5140   80.1320  223.8250 C   0  0  0  0  0  0  0  0  0  0  0  0
  142.6050   80.1630  222.3180 C   0  0  0  0  0  0  0  0  0  0  0  0
  141.8680   78.9730  221.9320 N   0  0  0  0  0  0  0  0  0  0  0  0
  142.2230   74.2490  221.1220 N   0  0  0  0  0  0  0  0  0  0  0  0
  142.2440   72.9120  221.2320 C   0  0  0  0  0  0  0  0  0  0  0  0
  143.3980   72.2190  220.7780 N   0  0  0  0  0  0  0  0  0  0  0  0
  144.6980   72.8440  220.7860 C   0  0  0  0  0  0  0  0  0  0  0  0
  145.4660   72.7330  219.5180 C   0  0  0  0  0  0  0  0  0  0  0  0
  144.9800   71.6770  218.6050 C   0  0  0  0  0  0  0  0  0  0  0  0
  145.5750   71.6020  217.3570 C   0  0  0  0  0  0  0  0  0  0  0  0
  145.1770   70.6470  216.4490 C   0  0  0  0  0  0  0  0  0  0  0  0
  144.1680   69.7600  216.8070 C   0  0  0  0  0  0  0  0  0  0  0  0
  143.5810   69.8420  218.0520 C   0  0  0  0  0  0  0  0  0  0  0  0
  143.9880   70.8050  218.9580 C   0  0  0  0  0  0  0  0  0  0  0  0
  143.3230   70.8480  220.2850 C   0  0  0  0  0  0  0  0  0  0  0  0
  141.1780   72.3200  221.7650 N   0  0  0  0  0  0  0  0  0  0  0  0
  139.9290   71.5030  224.8660 C   0  0  0  0  0  0  0  0  0  0  0  0
  140.6654   67.0503  227.7887 H   0  0  0  0  0  0  0  0  0  0  0  0
  141.5128   69.2484  228.5789 H   0  0  0  0  0  0  0  0  0  0  0  0
  141.1426   71.2670  227.1895 H   0  0  0  0  0  0  0  0  0  0  0  0
  139.4595   66.9109  225.6132 H   0  0  0  0  0  0  0  0  0  0  0  0
  139.1191   67.8539  223.4703 H   0  0  0  0  0  0  0  0  0  0  0  0
  137.8087   68.8988  224.0512 H   0  0  0  0  0  0  0  0  0  0  0  0
  140.4716   69.8548  222.8213 H   0  0  0  0  0  0  0  0  0  0  0  0
  138.9050   69.8758  221.9890 H   0  0  0  0  0  0  0  0  0  0  0  0
  138.0372   71.1672  224.0643 H   0  0  0  0  0  0  0  0  0  0  0  0
  138.0130   72.6820  222.4770 H   0  0  0  0  0  0  0  0  0  0  0  0
  142.2150   76.9080  221.2360 H   0  0  0  0  0  0  0  0  0  0  0  0
  140.1064   77.9406  220.5787 H   0  0  0  0  0  0  0  0  0  0  0  0
  139.2214   76.4749  221.1602 H   0  0  0  0  0  0  0  0  0  0  0  0
  138.7646   78.1094  222.7815 H   0  0  0  0  0  0  0  0  0  0  0  0
  140.0801   77.1245  223.4991 H   0  0  0  0  0  0  0  0  0  0  0  0
  139.9856   79.8595  222.5310 H   0  0  0  0  0  0  0  0  0  0  0  0
  140.6688   79.6381  224.8941 H   0  0  0  0  0  0  0  0  0  0  0  0
  141.6584   78.2370  224.6109 H   0  0  0  0  0  0  0  0  0  0  0  0
  142.3137   81.1401  224.2169 H   0  0  0  0  0  0  0  0  0  0  0  0
  143.4548   79.7873  224.2790 H   0  0  0  0  0  0  0  0  0  0  0  0
  142.1356   81.0705  221.9104 H   0  0  0  0  0  0  0  0  0  0  0  0
  143.6387   80.1787  221.9422 H   0  0  0  0  0  0  0  0  0  0  0  0
  142.4390   78.1560  222.3040 H   0  0  0  0  0  0  0  0  0  0  0  0
  144.5595   73.9127  221.0066 H   0  0  0  0  0  0  0  0  0  0  0  0
  145.2872   72.3090  221.5453 H   0  0  0  0  0  0  0  0  0  0  0  0
  145.4057   73.6976  218.9927 H   0  0  0  0  0  0  0  0  0  0  0  0
  146.4954   72.4618  219.7950 H   0  0  0  0  0  0  0  0  0  0  0  0
  146.3720   72.3112  217.0890 H   0  0  0  0  0  0  0  0  0  0  0  0
  145.6491   70.5867  215.4573 H   0  0  0  0  0  0  0  0  0  0  0  0
  143.8368   68.9901  216.0946 H   0  0  0  0  0  0  0  0  0  0  0  0
  142.7831   69.1364  218.3269 H   0  0  0  0  0  0  0  0  0  0  0  0
  142.2707   70.5431  220.1861 H   0  0  0  0  0  0  0  0  0  0  0  0
  143.8193   70.1604  220.9856 H   0  0  0  0  0  0  0  0  0  0  0  0
  140.9135   71.8676  224.5377 H   0  0  0  0  0  0  0  0  0  0  0  0
  139.4570   72.2566  225.5136 H   0  0  0  0  0  0  0  0  0  0  0  0
  1  2  2  0
  2  3  1  0
  3  4  2  0
  4  5  1  0
  5  6  2  0
  5  7  1  0
  7  8  1  0
  8  9  1  0
  9 10  1  0
 10 11  1  0
 11 12  2  0
 12 13  1  0
 13 14  1  0
 14 15  1  0
 15 16  1  0
 16 17  1  0
 17 18  1  0
 18 19  1  0
 19 20  1  0
 20 21  1  0
 13 22  2  0
 22 23  1  0
 23 24  1  0
 24 25  1  0
 25 26  1  0
 26 27  1  0
 27 28  2  0
 28 29  1  0
 29 30  2  0
 30 31  1  0
 31 32  2  0
 32 33  1  0
 23 34  2  0
  9 35  1  0
  6  1  1  0
 34 11  1  0
 35  4  1  0
 21 17  1  0
 33 24  1  0
 32 27  1  0
  1 36  1  0
  2 37  1  0
  3 38  1  0
  6 39  1  0
  7 40  1  0
  7 41  1  0
  8 42  1  0
  8 43  1  0
  9 44  1  1
 10 45  1  0
 14 46  1  0
 15 47  1  0
 15 48  1  0
 16 49  1  0
 16 50  1  0
 17 51  1  6
 18 52  1  0
 18 53  1  0
 19 54  1  0
 19 55  1  0
 20 56  1  0
 20 57  1  0
 21 58  1  0
 25 59  1  0
 25 60  1  0
 26 61  1  0
 26 62  1  0
 28 63  1  0
 29 64  1  0
 30 65  1  0
 31 66  1  0
 33 67  1  0
 33 68  1  0
 35 69  1  0
 35 70  1  0
M  END
>  <smiles>  (107) 
c1ccc2c(c1)CCC(Nc1nc(NCCC3CCCN3)nc(N3CCc4ccccc4C3)n1)C2

>  <score_type>  (107) 
oracle

>  <origin>  (107) 
autodockgpu

>  <m_score__min__energy>  (107) 
-10.69

>  <m_primary>  (107) 
energy

>  <rmsd>  (107) 
11.928182269544276

>  <m_score__min__rmsd>  (107) 
11.928182269544276

>  <meeko>  (107) 
{"free_energy": -9.79, "intermolecular_energy": -11.88, "internal_energy": -1.61, "cluster_size": 4, "cluster_id": 4, "rank_in_cluster": 3}

>  <energy>  (107) 
-9.44

>  <cluster_rmsd>  (107) 
1.76

>  <cluster>  (107) 
1

$$$$

     RDKit          3D

 70 75  0  0  1  0  0  0  0  0999 V2000
  141.3820   82.8270  221.2630 C   0  0  0  0  0  0  0  0  0  0  0  0
  141.4520   82.2530  220.0190 C   0  0  0  0  0  0  0  0  0  0  0  0
  141.4270   80.8690  219.9130 C   0  0  0  0  0  0  0  0  0  0  0  0
  141.3330   80.0450  221.0260 C   0  0  0  0  0  0  0  0  0  0  0  0
  141.2630   80.6260  222.2650 C   0  0  0  0  0  0  0  0  0  0  0  0
  141.2880   82.0100  222.3880 C   0  0  0  0  0  0  0  0  0  0  0  0
  141.1590   79.8310  223.5290 C   0  0  0  0  0  0  0  0  0  0  0  0
  141.8260   78.4940  223.2500 C   0  0  0  0  0  0  0  0  0  0  0  0
  141.0620   77.8660  222.0980 C   0  0  2  0  0  0  0  0  0  0  0  0
  141.2090   76.4510  222.0430 N   0  0  0  0  0  0  0  0  0  0  0  0
  140.1380   75.5260  221.9240 C   0  0  0  0  0  0  0  0  0  0  0  0
  138.9240   75.8860  221.4220 N   0  0  0  0  0  0  0  0  0  0  0  0
  137.9220   75.0040  221.3170 C   0  0  0  0  0  0  0  0  0  0  0  0
  136.6390   75.2850  220.7990 N   0  0  0  0  0  0  0  0  0  0  0  0
  135.7800   76.1390  221.6260 C   0  0  0  0  0  0  0  0  0  0  0  0
  136.5900   76.8990  222.6400 C   0  0  0  0  0  0  0  0  0  0  0  0
  136.7790   78.3090  222.1590 C   0  0  1  0  0  0  0  0  0  0  0  0
  137.6280   79.1470  223.1180 C   0  0  0  0  0  0  0  0  0  0  0  0
  138.0950   80.2740  222.1920 C   0  0  0  0  0  0  0  0  0  0  0  0
  137.7770   79.8160  220.7880 C   0  0  0  0  0  0  0  0  0  0  0  0
  137.6030   78.3850  220.9540 N   0  0  0  0  0  0  0  0  0  0  0  0
  138.1490   73.7400  221.7270 N   0  0  0  0  0  0  0  0  0  0  0  0
  139.3240   73.3330  222.2290 C   0  0  0  0  0  0  0  0  0  0  0  0
  139.4510   71.9740  222.6250 N   0  0  0  0  0  0  0  0  0  0  0  0
  138.3620   71.0430  222.4640 C   0  0  0  0  0  0  0  0  0  0  0  0
  138.0350   70.2290  223.6640 C   0  0  0  0  0  0  0  0  0  0  0  0
  139.1050   70.1950  224.6830 C   0  0  0  0  0  0  0  0  0  0  0  0
  138.8170   69.5560  225.8770 C   0  0  0  0  0  0  0  0  0  0  0  0
  139.7610   69.4820  226.8770 C   0  0  0  0  0  0  0  0  0  0  0  0
  141.0070   70.0610  226.6660 C   0  0  0  0  0  0  0  0  0  0  0  0
  141.2850   70.6960  225.4740 C   0  0  0  0  0  0  0  0  0  0  0  0
  140.3310   70.7640  224.4760 C   0  0  0  0  0  0  0  0  0  0  0  0
  140.6840   71.4600  223.2120 C   0  0  0  0  0  0  0  0  0  0  0  0
  140.3010   74.2320  222.3210 N   0  0  0  0  0  0  0  0  0  0  0  0
  141.3140   78.5760  220.7940 C   0  0  0  0  0  0  0  0  0  0  0  0
  141.3999   83.9215  221.3714 H   0  0  0  0  0  0  0  0  0  0  0  0
  141.5268   82.8803  219.1185 H   0  0  0  0  0  0  0  0  0  0  0  0
  141.4835   80.4106  218.9147 H   0  0  0  0  0  0  0  0  0  0  0  0
  141.2328   82.4669  223.3871 H   0  0  0  0  0  0  0  0  0  0  0  0
  141.6762   80.3506  224.3491 H   0  0  0  0  0  0  0  0  0  0  0  0
  140.1099   79.6982  223.8319 H   0  0  0  0  0  0  0  0  0  0  0  0
  142.8791   78.6452  222.9706 H   0  0  0  0  0  0  0  0  0  0  0  0
  141.8095   77.8468  224.1393 H   0  0  0  0  0  0  0  0  0  0  0  0
  139.9912   78.0166  222.2997 H   0  0  0  0  0  0  0  0  0  0  0  0
  142.1880   76.0610  222.0970 H   0  0  0  0  0  0  0  0  0  0  0  0
  136.2760   74.9280  219.8820 H   0  0  0  0  0  0  0  0  0  0  0  0
  135.2530   76.8544  220.9775 H   0  0  0  0  0  0  0  0  0  0  0  0
  135.0611   75.5001  222.1599 H   0  0  0  0  0  0  0  0  0  0  0  0
  136.0605   76.9063  223.6042 H   0  0  0  0  0  0  0  0  0  0  0  0
  137.5700   76.4164  222.7693 H   0  0  0  0  0  0  0  0  0  0  0  0
  135.7452   78.6625  222.0314 H   0  0  0  0  0  0  0  0  0  0  0  0
  137.0278   79.5347  223.9543 H   0  0  0  0  0  0  0  0  0  0  0  0
  138.4450   78.5915  223.6016 H   0  0  0  0  0  0  0  0  0  0  0  0
  137.5568   81.2054  222.4216 H   0  0  0  0  0  0  0  0  0  0  0  0
  139.1685   80.4794  222.3160 H   0  0  0  0  0  0  0  0  0  0  0  0
  136.8556   80.2875  220.4156 H   0  0  0  0  0  0  0  0  0  0  0  0
  138.5534   80.0803  220.0550 H   0  0  0  0  0  0  0  0  0  0  0  0
  138.5600   78.0170  221.2360 H   0  0  0  0  0  0  0  0  0  0  0  0
  137.4643   71.6156  222.1877 H   0  0  0  0  0  0  0  0  0  0  0  0
  138.6861   70.3286  221.6929 H   0  0  0  0  0  0  0  0  0  0  0  0
  137.1297   70.6471  224.1283 H   0  0  0  0  0  0  0  0  0  0  0  0
  137.8968   69.1946  223.3162 H   0  0  0  0  0  0  0  0  0  0  0  0
  137.8258   69.1036  226.0282 H   0  0  0  0  0  0  0  0  0  0  0  0
  139.5331   68.9739  227.8256 H   0  0  0  0  0  0  0  0  0  0  0  0
  141.7741   70.0124  227.4529 H   0  0  0  0  0  0  0  0  0  0  0  0
  142.2735   71.1519  225.3161 H   0  0  0  0  0  0  0  0  0  0  0  0
  141.3728   72.2914  223.4227 H   0  0  0  0  0  0  0  0  0  0  0  0
  141.1795   70.7659  222.5172 H   0  0  0  0  0  0  0  0  0  0  0  0
  142.2835   78.2568  220.3839 H   0  0  0  0  0  0  0  0  0  0  0  0
  140.5147   78.3274  220.0803 H   0  0  0  0  0  0  0  0  0  0  0  0
  1  2  2  0
  2  3  1  0
  3  4  2  0
  4  5  1  0
  5  6  2  0
  5  7  1  0
  7  8  1  0
  8  9  1  0
  9 10  1  0
 10 11  1  0
 11 12  2  0
 12 13  1  0
 13 14  1  0
 14 15  1  0
 15 16  1  0
 16 17  1  0
 17 18  1  0
 18 19  1  0
 19 20  1  0
 20 21  1  0
 13 22  2  0
 22 23  1  0
 23 24  1  0
 24 25  1  0
 25 26  1  0
 26 27  1  0
 27 28  2  0
 28 29  1  0
 29 30  2  0
 30 31  1  0
 31 32  2  0
 32 33  1  0
 23 34  2  0
  9 35  1  0
  6  1  1  0
 34 11  1  0
 35  4  1  0
 21 17  1  0
 33 24  1  0
 32 27  1  0
  1 36  1  0
  2 37  1  0
  3 38  1  0
  6 39  1  0
  7 40  1  0
  7 41  1  0
  8 42  1  0
  8 43  1  0
  9 44  1  1
 10 45  1  0
 14 46  1  0
 15 47  1  0
 15 48  1  0
 16 49  1  0
 16 50  1  0
 17 51  1  6
 18 52  1  0
 18 53  1  0
 19 54  1  0
 19 55  1  0
 20 56  1  0
 20 57  1  0
 21 58  1  0
 25 59  1  0
 25 60  1  0
 26 61  1  0
 26 62  1  0
 28 63  1  0
 29 64  1  0
 30 65  1  0
 31 66  1  0
 33 67  1  0
 33 68  1  0
 35 69  1  0
 35 70  1  0
M  END
>  <smiles>  (108) 
c1ccc2c(c1)CCC(Nc1nc(NCCC3CCCN3)nc(N3CCc4ccccc4C3)n1)C2

>  <score_type>  (108) 
oracle

>  <origin>  (108) 
autodockgpu

>  <m_score__min__energy>  (108) 
-10.69

>  <m_primary>  (108) 
energy

>  <rmsd>  (108) 
2.696153026638556

>  <m_score__min__rmsd>  (108) 
2.696153026638556

>  <meeko>  (108) 
{"free_energy": -8.22, "intermolecular_energy": -10.31, "internal_energy": -2.72, "cluster_size": 3, "cluster_id": 9, "rank_in_cluster": 2}

>  <energy>  (108) 
-9.32

>  <cluster_rmsd>  (108) 
0.84

>  <cluster>  (108) 
1

$$$$

     RDKit          3D

 70 75  0  0  1  0  0  0  0  0999 V2000
  140.1660   69.8020  228.3340 C   0  0  0  0  0  0  0  0  0  0  0  0
  141.0220   70.8700  228.2350 C   0  0  0  0  0  0  0  0  0  0  0  0
  141.1510   71.5190  227.0150 C   0  0  0  0  0  0  0  0  0  0  0  0
  140.4410   71.1230  225.8890 C   0  0  0  0  0  0  0  0  0  0  0  0
  139.5890   70.0560  225.9970 C   0  0  0  0  0  0  0  0  0  0  0  0
  139.4480   69.3950  227.2110 C   0  0  0  0  0  0  0  0  0  0  0  0
  138.7760   69.5480  224.8460 C   0  0  0  0  0  0  0  0  0  0  0  0
  139.5520   69.8960  223.5870 C   0  0  0  0  0  0  0  0  0  0  0  0
  139.6990   71.4080  223.5790 C   0  0  2  0  0  0  0  0  0  0  0  0
  139.9330   71.9330  222.2770 N   0  0  0  0  0  0  0  0  0  0  0  0
  140.0730   73.3120  221.9690 C   0  0  0  0  0  0  0  0  0  0  0  0
  139.1200   74.2260  222.3010 N   0  0  0  0  0  0  0  0  0  0  0  0
  139.2630   75.5250  222.0030 C   0  0  0  0  0  0  0  0  0  0  0  0
  138.3350   76.5410  222.3190 N   0  0  0  0  0  0  0  0  0  0  0  0
  138.8540   77.6740  223.0920 C   0  0  0  0  0  0  0  0  0  0  0  0
  139.6720   78.5900  222.2250 C   0  0  0  0  0  0  0  0  0  0  0  0
  140.7790   79.1850  223.0470 C   0  0  1  0  0  0  0  0  0  0  0  0
  142.1440   79.0730  222.3630 C   0  0  0  0  0  0  0  0  0  0  0  0
  142.9320   80.1640  223.0940 C   0  0  0  0  0  0  0  0  0  0  0  0
  141.9080   80.9860  223.8410 C   0  0  0  0  0  0  0  0  0  0  0  0
  140.6710   80.6380  223.1660 N   0  0  0  0  0  0  0  0  0  0  0  0
  140.3850   75.9030  221.3590 N   0  0  0  0  0  0  0  0  0  0  0  0
  141.3540   75.0450  221.0090 C   0  0  0  0  0  0  0  0  0  0  0  0
  142.4960   75.5580  220.3370 N   0  0  0  0  0  0  0  0  0  0  0  0
  142.5370   76.9190  219.8630 C   0  0  0  0  0  0  0  0  0  0  0  0
  142.9780   77.0910  218.4540 C   0  0  0  0  0  0  0  0  0  0  0  0
  143.6880   75.9210  217.8940 C   0  0  0  0  0  0  0  0  0  0  0  0
  144.0170   75.9700  216.5510 C   0  0  0  0  0  0  0  0  0  0  0  0
  144.6780   74.9190  215.9540 C   0  0  0  0  0  0  0  0  0  0  0  0
  145.0070   73.8100  216.7240 C   0  0  0  0  0  0  0  0  0  0  0  0
  144.6730   73.7700  218.0620 C   0  0  0  0  0  0  0  0  0  0  0  0
  144.0110   74.8310  218.6520 C   0  0  0  0  0  0  0  0  0  0  0  0
  143.6760   74.7350  220.0960 C   0  0  0  0  0  0  0  0  0  0  0  0
  141.1830   73.7610  221.3190 N   0  0  0  0  0  0  0  0  0  0  0  0
  140.6580   71.8920  224.6350 C   0  0  0  0  0  0  0  0  0  0  0  0
  140.0477   69.2722  229.2907 H   0  0  0  0  0  0  0  0  0  0  0  0
  141.5975   71.2068  229.1098 H   0  0  0  0  0  0  0  0  0  0  0  0
  141.8378   72.3747  226.9374 H   0  0  0  0  0  0  0  0  0  0  0  0
  138.7608   68.5394  227.2867 H   0  0  0  0  0  0  0  0  0  0  0  0
  138.6456   68.4585  224.9237 H   0  0  0  0  0  0  0  0  0  0  0  0
  137.7736   70.0007  224.8349 H   0  0  0  0  0  0  0  0  0  0  0  0
  140.5423   69.4174  223.6058 H   0  0  0  0  0  0  0  0  0  0  0  0
  139.0306   69.5409  222.6858 H   0  0  0  0  0  0  0  0  0  0  0  0
  138.7250   71.8300  223.8674 H   0  0  0  0  0  0  0  0  0  0  0  0
  140.0080   71.2440  221.4800 H   0  0  0  0  0  0  0  0  0  0  0  0
  137.3240   76.5310  222.0400 H   0  0  0  0  0  0  0  0  0  0  0  0
  138.0093   78.2381  223.5142 H   0  0  0  0  0  0  0  0  0  0  0  0
  139.4978   77.2845  223.8944 H   0  0  0  0  0  0  0  0  0  0  0  0
  140.1005   78.0196  221.3877 H   0  0  0  0  0  0  0  0  0  0  0  0
  139.0333   79.3923  221.8270 H   0  0  0  0  0  0  0  0  0  0  0  0
  140.6950   78.6385  223.9979 H   0  0  0  0  0  0  0  0  0  0  0  0
  142.5920   78.0802  222.5169 H   0  0  0  0  0  0  0  0  0  0  0  0
  142.1131   79.1932  221.2700 H   0  0  0  0  0  0  0  0  0  0  0  0
  143.6472   79.7129  223.7975 H   0  0  0  0  0  0  0  0  0  0  0  0
  143.5113   80.7820  222.3922 H   0  0  0  0  0  0  0  0  0  0  0  0
  141.8728   80.7061  224.9042 H   0  0  0  0  0  0  0  0  0  0  0  0
  142.1225   82.0649  223.8337 H   0  0  0  0  0  0  0  0  0  0  0  0
  140.7740   81.0160  222.1770 H   0  0  0  0  0  0  0  0  0  0  0  0
  141.5255   77.3412  219.9558 H   0  0  0  0  0  0  0  0  0  0  0  0
  143.2890   77.4322  220.4804 H   0  0  0  0  0  0  0  0  0  0  0  0
  142.0891   77.2837  217.8354 H   0  0  0  0  0  0  0  0  0  0  0  0
  143.6921   77.9276  218.4462 H   0  0  0  0  0  0  0  0  0  0  0  0
  143.7487   76.8550  215.9553 H   0  0  0  0  0  0  0  0  0  0  0  0
  144.9407   74.9570  214.8865 H   0  0  0  0  0  0  0  0  0  0  0  0
  145.5354   72.9613  216.2652 H   0  0  0  0  0  0  0  0  0  0  0  0
  144.9353   72.8875  218.6640 H   0  0  0  0  0  0  0  0  0  0  0  0
  143.4630   73.6890  220.3617 H   0  0  0  0  0  0  0  0  0  0  0  0
  144.5194   75.0846  220.7096 H   0  0  0  0  0  0  0  0  0  0  0  0
  141.6913   71.7441  224.2879 H   0  0  0  0  0  0  0  0  0  0  0  0
  140.4857   72.9616  224.8254 H   0  0  0  0  0  0  0  0  0  0  0  0
  1  2  2  0
  2  3  1  0
  3  4  2  0
  4  5  1  0
  5  6  2  0
  5  7  1  0
  7  8  1  0
  8  9  1  0
  9 10  1  0
 10 11  1  0
 11 12  2  0
 12 13  1  0
 13 14  1  0
 14 15  1  0
 15 16  1  0
 16 17  1  0
 17 18  1  0
 18 19  1  0
 19 20  1  0
 20 21  1  0
 13 22  2  0
 22 23  1  0
 23 24  1  0
 24 25  1  0
 25 26  1  0
 26 27  1  0
 27 28  2  0
 28 29  1  0
 29 30  2  0
 30 31  1  0
 31 32  2  0
 32 33  1  0
 23 34  2  0
  9 35  1  0
  6  1  1  0
 34 11  1  0
 35  4  1  0
 21 17  1  0
 33 24  1  0
 32 27  1  0
  1 36  1  0
  2 37  1  0
  3 38  1  0
  6 39  1  0
  7 40  1  0
  7 41  1  0
  8 42  1  0
  8 43  1  0
  9 44  1  1
 10 45  1  0
 14 46  1  0
 15 47  1  0
 15 48  1  0
 16 49  1  0
 16 50  1  0
 17 51  1  1
 18 52  1  0
 18 53  1  0
 19 54  1  0
 19 55  1  0
 20 56  1  0
 20 57  1  0
 21 58  1  0
 25 59  1  0
 25 60  1  0
 26 61  1  0
 26 62  1  0
 28 63  1  0
 29 64  1  0
 30 65  1  0
 31 66  1  0
 33 67  1  0
 33 68  1  0
 35 69  1  0
 35 70  1  0
M  END
>  <smiles>  (109) 
c1ccc2c(c1)CCC(Nc1nc(NCCC3CCCN3)nc(N3CCc4ccccc4C3)n1)C2

>  <score_type>  (109) 
oracle

>  <origin>  (109) 
autodockgpu

>  <m_score__min__energy>  (109) 
-10.69

>  <m_primary>  (109) 
energy

>  <rmsd>  (109) 
11.38094403716189

>  <m_score__min__rmsd>  (109) 
11.38094403716189

>  <meeko>  (109) 
{"free_energy": -9.21, "intermolecular_energy": -11.29, "internal_energy": -1.24, "cluster_size": 3, "cluster_id": 6, "rank_in_cluster": 2}

>  <energy>  (109) 
-9.15

>  <cluster_rmsd>  (109) 
1.94

>  <cluster>  (109) 
1

$$$$

     RDKit          3D

 70 75  0  0  1  0  0  0  0  0999 V2000
  140.9820   68.1420  228.3470 C   0  0  0  0  0  0  0  0  0  0  0  0
  141.4130   69.4210  228.5910 C   0  0  0  0  0  0  0  0  0  0  0  0
  141.1090   70.4210  227.6770 C   0  0  0  0  0  0  0  0  0  0  0  0
  140.3820   70.1690  226.5220 C   0  0  0  0  0  0  0  0  0  0  0  0
  139.9540   68.8890  226.2860 C   0  0  0  0  0  0  0  0  0  0  0  0
  140.2510   67.8760  227.1910 C   0  0  0  0  0  0  0  0  0  0  0  0
  139.1630   68.5080  225.0730 C   0  0  0  0  0  0  0  0  0  0  0  0
  139.5520   69.4930  223.9820 C   0  0  0  0  0  0  0  0  0  0  0  0
  139.1960   70.8740  224.5050 C   0  0  2  0  0  0  0  0  0  0  0  0
  139.0160   71.8290  223.4650 N   0  0  0  0  0  0  0  0  0  0  0  0
  139.9780   72.1330  222.4650 C   0  0  0  0  0  0  0  0  0  0  0  0
  140.5280   73.3720  222.3440 N   0  0  0  0  0  0  0  0  0  0  0  0
  141.4340   73.6450  221.3950 C   0  0  0  0  0  0  0  0  0  0  0  0
  142.0630   74.8940  221.2040 N   0  0  0  0  0  0  0  0  0  0  0  0
  142.2660   75.3110  219.8120 C   0  0  0  0  0  0  0  0  0  0  0  0
  143.7250   75.3010  219.4530 C   0  0  0  0  0  0  0  0  0  0  0  0
  144.4000   74.1680  220.1710 C   0  0  1  0  0  0  0  0  0  0  0  0
  144.9710   73.1210  219.2110 C   0  0  0  0  0  0  0  0  0  0  0  0
  146.0040   72.4310  220.1060 C   0  0  0  0  0  0  0  0  0  0  0  0
  146.1670   73.3220  221.3150 C   0  0  0  0  0  0  0  0  0  0  0  0
  145.6250   74.5860  220.8520 N   0  0  0  0  0  0  0  0  0  0  0  0
  141.7860   72.6510  220.5550 N   0  0  0  0  0  0  0  0  0  0  0  0
  141.2750   71.4130  220.6300 C   0  0  0  0  0  0  0  0  0  0  0  0
  141.7240   70.4440  219.6940 N   0  0  0  0  0  0  0  0  0  0  0  0
  141.0140   69.2030  219.5020 C   0  0  0  0  0  0  0  0  0  0  0  0
  141.8540   67.9760  219.5320 C   0  0  0  0  0  0  0  0  0  0  0  0
  143.2990   68.2260  219.3410 C   0  0  0  0  0  0  0  0  0  0  0  0
  144.1480   67.1420  219.4790 C   0  0  0  0  0  0  0  0  0  0  0  0
  145.5070   67.2930  219.3180 C   0  0  0  0  0  0  0  0  0  0  0  0
  146.0110   68.5530  219.0150 C   0  0  0  0  0  0  0  0  0  0  0  0
  145.1570   69.6270  218.8800 C   0  0  0  0  0  0  0  0  0  0  0  0
  143.7930   69.4650  219.0430 C   0  0  0  0  0  0  0  0  0  0  0  0
  142.9200   70.6560  218.8860 C   0  0  0  0  0  0  0  0  0  0  0  0
  140.3780   71.1720  221.5840 N   0  0  0  0  0  0  0  0  0  0  0  0
  140.1150   71.3160  225.6140 C   0  0  0  0  0  0  0  0  0  0  0  0
  141.2112   67.3339  229.0572 H   0  0  0  0  0  0  0  0  0  0  0  0
  141.9913   69.6513  229.4979 H   0  0  0  0  0  0  0  0  0  0  0  0
  141.4556   71.4461  227.8747 H   0  0  0  0  0  0  0  0  0  0  0  0
  139.9044   66.8512  226.9917 H   0  0  0  0  0  0  0  0  0  0  0  0
  139.4097   67.4813  224.7646 H   0  0  0  0  0  0  0  0  0  0  0  0
  138.0821   68.5413  225.2743 H   0  0  0  0  0  0  0  0  0  0  0  0
  140.6313   69.4295  223.7791 H   0  0  0  0  0  0  0  0  0  0  0  0
  139.0256   69.2747  223.0411 H   0  0  0  0  0  0  0  0  0  0  0  0
  138.2036   70.7977  224.9734 H   0  0  0  0  0  0  0  0  0  0  0  0
  138.1000   72.3510  223.4370 H   0  0  0  0  0  0  0  0  0  0  0  0
  142.3850   75.5230  221.9790 H   0  0  0  0  0  0  0  0  0  0  0  0
  141.7275   74.6194  219.1474 H   0  0  0  0  0  0  0  0  0  0  0  0
  141.8837   76.3357  219.6943 H   0  0  0  0  0  0  0  0  0  0  0  0
  143.8362   75.1671  218.3669 H   0  0  0  0  0  0  0  0  0  0  0  0
  144.1861   76.2547  219.7495 H   0  0  0  0  0  0  0  0  0  0  0  0
  143.6073   73.7967  220.8372 H   0  0  0  0  0  0  0  0  0  0  0  0
  144.1955   72.4175  218.8737 H   0  0  0  0  0  0  0  0  0  0  0  0
  145.3852   73.5384  218.2814 H   0  0  0  0  0  0  0  0  0  0  0  0
  145.6439   71.4369  220.4094 H   0  0  0  0  0  0  0  0  0  0  0  0
  146.9594   72.2849  219.5808 H   0  0  0  0  0  0  0  0  0  0  0  0
  145.5968   72.9358  222.1727 H   0  0  0  0  0  0  0  0  0  0  0  0
  147.2063   73.3946  221.6680 H   0  0  0  0  0  0  0  0  0  0  0  0
  146.2850   74.9100  220.0830 H   0  0  0  0  0  0  0  0  0  0  0  0
  140.2594   69.1172  220.2977 H   0  0  0  0  0  0  0  0  0  0  0  0
  140.5858   69.2524  218.4900 H   0  0  0  0  0  0  0  0  0  0  0  0
  141.7145   67.4862  220.5070 H   0  0  0  0  0  0  0  0  0  0  0  0
  141.5276   67.3487  218.6894 H   0  0  0  0  0  0  0  0  0  0  0  0
  143.7338   66.1517  219.7193 H   0  0  0  0  0  0  0  0  0  0  0  0
  146.1824   66.4317  219.4272 H   0  0  0  0  0  0  0  0  0  0  0  0
  147.0940   68.6933  218.8826 H   0  0  0  0  0  0  0  0  0  0  0  0
  145.5637   70.6207  218.6408 H   0  0  0  0  0  0  0  0  0  0  0  0
  143.4498   71.5560  219.2313 H   0  0  0  0  0  0  0  0  0  0  0  0
  142.6489   70.7962  217.8292 H   0  0  0  0  0  0  0  0  0  0  0  0
  141.0630   71.6724  225.1847 H   0  0  0  0  0  0  0  0  0  0  0  0
  139.6407   72.1305  226.1811 H   0  0  0  0  0  0  0  0  0  0  0  0
  1  2  2  0
  2  3  1  0
  3  4  2  0
  4  5  1  0
  5  6  2  0
  5  7  1  0
  7  8  1  0
  8  9  1  0
  9 10  1  0
 10 11  1  0
 11 12  2  0
 12 13  1  0
 13 14  1  0
 14 15  1  0
 15 16  1  0
 16 17  1  0
 17 18  1  0
 18 19  1  0
 19 20  1  0
 20 21  1  0
 13 22  2  0
 22 23  1  0
 23 24  1  0
 24 25  1  0
 25 26  1  0
 26 27  1  0
 27 28  2  0
 28 29  1  0
 29 30  2  0
 30 31  1  0
 31 32  2  0
 32 33  1  0
 23 34  2  0
  9 35  1  0
  6  1  1  0
 34 11  1  0
 35  4  1  0
 21 17  1  0
 33 24  1  0
 32 27  1  0
  1 36  1  0
  2 37  1  0
  3 38  1  0
  6 39  1  0
  7 40  1  0
  7 41  1  0
  8 42  1  0
  8 43  1  0
  9 44  1  1
 10 45  1  0
 14 46  1  0
 15 47  1  0
 15 48  1  0
 16 49  1  0
 16 50  1  0
 17 51  1  1
 18 52  1  0
 18 53  1  0
 19 54  1  0
 19 55  1  0
 20 56  1  0
 20 57  1  0
 21 58  1  0
 25 59  1  0
 25 60  1  0
 26 61  1  0
 26 62  1  0
 28 63  1  0
 29 64  1  0
 30 65  1  0
 31 66  1  0
 33 67  1  0
 33 68  1  0
 35 69  1  0
 35 70  1  0
M  END
>  <smiles>  (110) 
c1ccc2c(c1)CCC(Nc1nc(NCCC3CCCN3)nc(N3CCc4ccccc4C3)n1)C2

>  <score_type>  (110) 
oracle

>  <origin>  (110) 
autodockgpu

>  <m_score__min__energy>  (110) 
-10.69

>  <m_primary>  (110) 
energy

>  <rmsd>  (110) 
12.335834406585922

>  <m_score__min__rmsd>  (110) 
12.335834406585922

>  <meeko>  (110) 
{"free_energy": -10.69, "intermolecular_energy": -12.78, "internal_energy": -1.77, "cluster_size": 9, "cluster_id": 1, "rank_in_cluster": 1}

>  <energy>  (110) 
-10.34

>  <cluster_rmsd>  (110) 
0.0

>  <cluster>  (110) 
2

$$$$

     RDKit          3D

 70 75  0  0  1  0  0  0  0  0999 V2000
  140.6160   68.2890  228.1000 C   0  0  0  0  0  0  0  0  0  0  0  0
  141.1640   69.5220  228.3470 C   0  0  0  0  0  0  0  0  0  0  0  0
  140.9880   70.5360  227.4150 C   0  0  0  0  0  0  0  0  0  0  0  0
  140.2750   70.3430  226.2400 C   0  0  0  0  0  0  0  0  0  0  0  0
  139.7310   69.1080  226.0010 C   0  0  0  0  0  0  0  0  0  0  0  0
  139.8980   68.0830  226.9240 C   0  0  0  0  0  0  0  0  0  0  0  0
  138.9430   68.7930  224.7670 C   0  0  0  0  0  0  0  0  0  0  0  0
  139.4610   69.7220  223.6810 C   0  0  0  0  0  0  0  0  0  0  0  0
  139.2270   71.1380  224.1810 C   0  0  2  0  0  0  0  0  0  0  0  0
  139.1740   72.0930  223.1270 N   0  0  0  0  0  0  0  0  0  0  0  0
  140.1980   72.3010  222.1660 C   0  0  0  0  0  0  0  0  0  0  0  0
  140.8210   73.5040  222.0220 N   0  0  0  0  0  0  0  0  0  0  0  0
  141.7850   73.6860  221.1090 C   0  0  0  0  0  0  0  0  0  0  0  0
  142.4910   74.8900  220.8990 N   0  0  0  0  0  0  0  0  0  0  0  0
  143.3550   74.9360  219.7150 C   0  0  0  0  0  0  0  0  0  0  0  0
  144.5730   74.0740  219.9020 C   0  0  0  0  0  0  0  0  0  0  0  0
  144.7480   73.2030  218.6910 C   0  0  1  0  0  0  0  0  0  0  0  0
  143.8210   73.6040  217.5410 C   0  0  0  0  0  0  0  0  0  0  0  0
  144.5430   72.9730  216.3460 C   0  0  0  0  0  0  0  0  0  0  0  0
  145.9160   72.5910  216.8450 C   0  0  0  0  0  0  0  0  0  0  0  0
  146.0490   73.3900  218.0490 N   0  0  0  0  0  0  0  0  0  0  0  0
  142.1230   72.6390  220.3310 N   0  0  0  0  0  0  0  0  0  0  0  0
  141.5420   71.4340  220.4310 C   0  0  0  0  0  0  0  0  0  0  0  0
  141.9820   70.4020  219.5610 N   0  0  0  0  0  0  0  0  0  0  0  0
  141.2920   69.1370  219.4880 C   0  0  0  0  0  0  0  0  0  0  0  0
  142.1560   67.9320  219.5870 C   0  0  0  0  0  0  0  0  0  0  0  0
  143.5890   68.1900  219.3340 C   0  0  0  0  0  0  0  0  0  0  0  0
  144.4620   67.1350  219.5300 C   0  0  0  0  0  0  0  0  0  0  0  0
  145.8130   67.2960  219.3160 C   0  0  0  0  0  0  0  0  0  0  0  0
  146.2830   68.5370  218.9010 C   0  0  0  0  0  0  0  0  0  0  0  0
  145.4060   69.5820  218.7090 C   0  0  0  0  0  0  0  0  0  0  0  0
  144.0510   69.4110  218.9250 C   0  0  0  0  0  0  0  0  0  0  0  0
  143.1500   70.5700  218.7020 C   0  0  0  0  0  0  0  0  0  0  0  0
  140.5880   71.2830  221.3470 N   0  0  0  0  0  0  0  0  0  0  0  0
  140.1500   71.5000  225.3140 C   0  0  0  0  0  0  0  0  0  0  0  0
  140.7423   67.4704  228.8238 H   0  0  0  0  0  0  0  0  0  0  0  0
  141.7344   69.7047  229.2697 H   0  0  0  0  0  0  0  0  0  0  0  0
  141.4279   71.5243  227.6143 H   0  0  0  0  0  0  0  0  0  0  0  0
  139.4573   67.0953  226.7235 H   0  0  0  0  0  0  0  0  0  0  0  0
  139.0958   67.7435  224.4751 H   0  0  0  0  0  0  0  0  0  0  0  0
  137.8651   68.9351  224.9339 H   0  0  0  0  0  0  0  0  0  0  0  0
  140.5345   69.5501  223.5133 H   0  0  0  0  0  0  0  0  0  0  0  0
  138.9451   69.5458  222.7256 H   0  0  0  0  0  0  0  0  0  0  0  0
  138.2184   71.1660  224.6191 H   0  0  0  0  0  0  0  0  0  0  0  0
  138.3080   72.6930  223.0570 H   0  0  0  0  0  0  0  0  0  0  0  0
  142.4340   75.7310  221.5240 H   0  0  0  0  0  0  0  0  0  0  0  0
  142.7896   74.5753  218.8431 H   0  0  0  0  0  0  0  0  0  0  0  0
  143.6817   75.9749  219.5601 H   0  0  0  0  0  0  0  0  0  0  0  0
  145.4601   74.7120  220.0284 H   0  0  0  0  0  0  0  0  0  0  0  0
  144.4490   73.4455  220.7962 H   0  0  0  0  0  0  0  0  0  0  0  0
  144.5739   72.1931  219.0908 H   0  0  0  0  0  0  0  0  0  0  0  0
  142.8125   73.1843  217.6706 H   0  0  0  0  0  0  0  0  0  0  0  0
  143.6566   74.6878  217.4494 H   0  0  0  0  0  0  0  0  0  0  0  0
  144.0005   72.0813  215.9988 H   0  0  0  0  0  0  0  0  0  0  0  0
  144.6019   73.6695  215.4967 H   0  0  0  0  0  0  0  0  0  0  0  0
  145.9706   71.5164  217.0735 H   0  0  0  0  0  0  0  0  0  0  0  0
  146.7143   72.7712  216.1100 H   0  0  0  0  0  0  0  0  0  0  0  0
  146.0630   74.4000  217.7160 H   0  0  0  0  0  0  0  0  0  0  0  0
  140.5631   69.1003  220.3110 H   0  0  0  0  0  0  0  0  0  0  0  0
  140.8336   69.0995  218.4888 H   0  0  0  0  0  0  0  0  0  0  0  0
  142.0542   67.5172  220.6007 H   0  0  0  0  0  0  0  0  0  0  0  0
  141.8178   67.2362  218.8050 H   0  0  0  0  0  0  0  0  0  0  0  0
  144.0741   66.1598  219.8594 H   0  0  0  0  0  0  0  0  0  0  0  0
  146.5080   66.4575  219.4707 H   0  0  0  0  0  0  0  0  0  0  0  0
  147.3588   68.6849  218.7254 H   0  0  0  0  0  0  0  0  0  0  0  0
  145.7869   70.5605  218.3811 H   0  0  0  0  0  0  0  0  0  0  0  0
  143.6716   71.5038  218.9588 H   0  0  0  0  0  0  0  0  0  0  0  0
  142.8451   70.6208  217.6463 H   0  0  0  0  0  0  0  0  0  0  0  0
  141.1412   71.7567  224.9119 H   0  0  0  0  0  0  0  0  0  0  0  0
  139.7408   72.3635  225.8589 H   0  0  0  0  0  0  0  0  0  0  0  0
  1  2  2  0
  2  3  1  0
  3  4  2  0
  4  5  1  0
  5  6  2  0
  5  7  1  0
  7  8  1  0
  8  9  1  0
  9 10  1  0
 10 11  1  0
 11 12  2  0
 12 13  1  0
 13 14  1  0
 14 15  1  0
 15 16  1  0
 16 17  1  0
 17 18  1  0
 18 19  1  0
 19 20  1  0
 20 21  1  0
 13 22  2  0
 22 23  1  0
 23 24  1  0
 24 25  1  0
 25 26  1  0
 26 27  1  0
 27 28  2  0
 28 29  1  0
 29 30  2  0
 30 31  1  0
 31 32  2  0
 32 33  1  0
 23 34  2  0
  9 35  1  0
  6  1  1  0
 34 11  1  0
 35  4  1  0
 21 17  1  0
 33 24  1  0
 32 27  1  0
  1 36  1  0
  2 37  1  0
  3 38  1  0
  6 39  1  0
  7 40  1  0
  7 41  1  0
  8 42  1  0
  8 43  1  0
  9 44  1  1
 10 45  1  0
 14 46  1  0
 15 47  1  0
 15 48  1  0
 16 49  1  0
 16 50  1  0
 17 51  1  1
 18 52  1  0
 18 53  1  0
 19 54  1  0
 19 55  1  0
 20 56  1  0
 20 57  1  0
 21 58  1  0
 25 59  1  0
 25 60  1  0
 26 61  1  0
 26 62  1  0
 28 63  1  0
 29 64  1  0
 30 65  1  0
 31 66  1  0
 33 67  1  0
 33 68  1  0
 35 69  1  0
 35 70  1  0
M  END
>  <smiles>  (111) 
c1ccc2c(c1)CCC(Nc1nc(NCCC3CCCN3)nc(N3CCc4ccccc4C3)n1)C2

>  <score_type>  (111) 
oracle

>  <origin>  (111) 
autodockgpu

>  <m_score__min__energy>  (111) 
-10.69

>  <m_primary>  (111) 
energy

>  <rmsd>  (111) 
12.081705552318612

>  <m_score__min__rmsd>  (111) 
12.081705552318612

>  <meeko>  (111) 
{"free_energy": -10.16, "intermolecular_energy": -12.25, "internal_energy": -1.77, "cluster_size": 9, "cluster_id": 1, "rank_in_cluster": 5}

>  <energy>  (111) 
-10.31

>  <cluster_rmsd>  (111) 
1.28

>  <cluster>  (111) 
2

$$$$

     RDKit          3D

 70 75  0  0  1  0  0  0  0  0999 V2000
  140.7040   68.1340  228.1450 C   0  0  0  0  0  0  0  0  0  0  0  0
  141.2570   69.3740  228.3450 C   0  0  0  0  0  0  0  0  0  0  0  0
  141.0130   70.3780  227.4170 C   0  0  0  0  0  0  0  0  0  0  0  0
  140.2280   70.1680  226.2920 C   0  0  0  0  0  0  0  0  0  0  0  0
  139.6800   68.9280  226.1000 C   0  0  0  0  0  0  0  0  0  0  0  0
  139.9140   67.9120  227.0200 C   0  0  0  0  0  0  0  0  0  0  0  0
  138.8170   68.5950  224.9220 C   0  0  0  0  0  0  0  0  0  0  0  0
  139.2560   69.5180  223.7970 C   0  0  0  0  0  0  0  0  0  0  0  0
  139.0430   70.9360  224.2980 C   0  0  2  0  0  0  0  0  0  0  0  0
  138.9150   71.8810  223.2420 N   0  0  0  0  0  0  0  0  0  0  0  0
  139.9170   72.1600  222.2740 C   0  0  0  0  0  0  0  0  0  0  0  0
  140.5130   73.3800  222.1820 N   0  0  0  0  0  0  0  0  0  0  0  0
  141.4560   73.6300  221.2630 C   0  0  0  0  0  0  0  0  0  0  0  0
  142.1340   74.8580  221.1040 N   0  0  0  0  0  0  0  0  0  0  0  0
  142.2560   75.3560  219.7300 C   0  0  0  0  0  0  0  0  0  0  0  0
  143.5600   74.9290  219.1150 C   0  0  0  0  0  0  0  0  0  0  0  0
  144.2980   74.0530  220.0860 C   0  0  1  0  0  0  0  0  0  0  0  0
  144.9430   72.8410  219.4090 C   0  0  0  0  0  0  0  0  0  0  0  0
  146.0080   72.4590  220.4400 C   0  0  0  0  0  0  0  0  0  0  0  0
  146.1020   73.6270  221.3930 C   0  0  0  0  0  0  0  0  0  0  0  0
  145.4860   74.7020  220.6360 N   0  0  0  0  0  0  0  0  0  0  0  0
  141.7990   72.6320  220.4250 N   0  0  0  0  0  0  0  0  0  0  0  0
  141.2430   71.4120  220.4720 C   0  0  0  0  0  0  0  0  0  0  0  0
  141.6870   70.4360  219.5410 N   0  0  0  0  0  0  0  0  0  0  0  0
  140.9640   69.2030  219.3450 C   0  0  0  0  0  0  0  0  0  0  0  0
  141.7880   67.9670  219.3820 C   0  0  0  0  0  0  0  0  0  0  0  0
  143.2370   68.1990  219.2010 C   0  0  0  0  0  0  0  0  0  0  0  0
  144.0720   67.1040  219.3460 C   0  0  0  0  0  0  0  0  0  0  0  0
  145.4340   67.2380  219.1940 C   0  0  0  0  0  0  0  0  0  0  0  0
  145.9550   68.4920  218.8930 C   0  0  0  0  0  0  0  0  0  0  0  0
  145.1150   69.5760  218.7510 C   0  0  0  0  0  0  0  0  0  0  0  0
  143.7490   69.4310  218.9040 C   0  0  0  0  0  0  0  0  0  0  0  0
  142.8910   70.6330  218.7400 C   0  0  0  0  0  0  0  0  0  0  0  0
  140.3100   71.1940  221.3960 N   0  0  0  0  0  0  0  0  0  0  0  0
  140.0340   71.3160  225.3660 C   0  0  0  0  0  0  0  0  0  0  0  0
  140.8831   67.3232  228.8665 H   0  0  0  0  0  0  0  0  0  0  0  0
  141.8842   69.5698  229.2272 H   0  0  0  0  0  0  0  0  0  0  0  0
  141.4562   71.3717  227.5789 H   0  0  0  0  0  0  0  0  0  0  0  0
  139.4690   66.9193  226.8569 H   0  0  0  0  0  0  0  0  0  0  0  0
  138.9599   67.5441  224.6301 H   0  0  0  0  0  0  0  0  0  0  0  0
  137.7508   68.7298  225.1567 H   0  0  0  0  0  0  0  0  0  0  0  0
  140.3179   69.3530  223.5620 H   0  0  0  0  0  0  0  0  0  0  0  0
  138.6809   69.3289  222.8786 H   0  0  0  0  0  0  0  0  0  0  0  0
  138.0641   70.9595  224.7992 H   0  0  0  0  0  0  0  0  0  0  0  0
  138.0080   72.4150  223.1740 H   0  0  0  0  0  0  0  0  0  0  0  0
  142.5440   75.4180  221.8900 H   0  0  0  0  0  0  0  0  0  0  0  0
  141.4266   74.9566  219.1278 H   0  0  0  0  0  0  0  0  0  0  0  0
  142.2225   76.4553  219.7518 H   0  0  0  0  0  0  0  0  0  0  0  0
  143.3644   74.3688  218.1887 H   0  0  0  0  0  0  0  0  0  0  0  0
  144.1671   75.8159  218.8808 H   0  0  0  0  0  0  0  0  0  0  0  0
  143.5241   73.8074  220.8282 H   0  0  0  0  0  0  0  0  0  0  0  0
  144.2167   72.0286  219.2592 H   0  0  0  0  0  0  0  0  0  0  0  0
  145.3393   73.0427  218.4029 H   0  0  0  0  0  0  0  0  0  0  0  0
  145.7085   71.5485  220.9796 H   0  0  0  0  0  0  0  0  0  0  0  0
  146.9761   72.2505  219.9612 H   0  0  0  0  0  0  0  0  0  0  0  0
  145.5481   73.4273  222.3222 H   0  0  0  0  0  0  0  0  0  0  0  0
  147.1307   73.8499  221.7127 H   0  0  0  0  0  0  0  0  0  0  0  0
  146.1330   74.8690  219.8080 H   0  0  0  0  0  0  0  0  0  0  0  0
  140.2027   69.1269  220.1354 H   0  0  0  0  0  0  0  0  0  0  0  0
  140.5442   69.2565  218.3297 H   0  0  0  0  0  0  0  0  0  0  0  0
  141.6357   67.4799  220.3564 H   0  0  0  0  0  0  0  0  0  0  0  0
  141.4599   67.3429  218.5377 H   0  0  0  0  0  0  0  0  0  0  0  0
  143.6439   66.1192  219.5845 H   0  0  0  0  0  0  0  0  0  0  0  0
  146.0982   66.3687  219.3086 H   0  0  0  0  0  0  0  0  0  0  0  0
  147.0404   68.6192  218.7679 H   0  0  0  0  0  0  0  0  0  0  0  0
  145.5354   70.5645  218.5140 H   0  0  0  0  0  0  0  0  0  0  0  0
  143.4294   71.5270  219.0878 H   0  0  0  0  0  0  0  0  0  0  0  0
  142.6285   70.7754  217.6813 H   0  0  0  0  0  0  0  0  0  0  0  0
  140.9950   71.5769  224.8987 H   0  0  0  0  0  0  0  0  0  0  0  0
  139.6537   72.1813  225.9286 H   0  0  0  0  0  0  0  0  0  0  0  0
  1  2  2  0
  2  3  1  0
  3  4  2  0
  4  5  1  0
  5  6  2  0
  5  7  1  0
  7  8  1  0
  8  9  1  0
  9 10  1  0
 10 11  1  0
 11 12  2  0
 12 13  1  0
 13 14  1  0
 14 15  1  0
 15 16  1  0
 16 17  1  0
 17 18  1  0
 18 19  1  0
 19 20  1  0
 20 21  1  0
 13 22  2  0
 22 23  1  0
 23 24  1  0
 24 25  1  0
 25 26  1  0
 26 27  1  0
 27 28  2  0
 28 29  1  0
 29 30  2  0
 30 31  1  0
 31 32  2  0
 32 33  1  0
 23 34  2  0
  9 35  1  0
  6  1  1  0
 34 11  1  0
 35  4  1  0
 21 17  1  0
 33 24  1  0
 32 27  1  0
  1 36  1  0
  2 37  1  0
  3 38  1  0
  6 39  1  0
  7 40  1  0
  7 41  1  0
  8 42  1  0
  8 43  1  0
  9 44  1  1
 10 45  1  0
 14 46  1  0
 15 47  1  0
 15 48  1  0
 16 49  1  0
 16 50  1  0
 17 51  1  1
 18 52  1  0
 18 53  1  0
 19 54  1  0
 19 55  1  0
 20 56  1  0
 20 57  1  0
 21 58  1  0
 25 59  1  0
 25 60  1  0
 26 61  1  0
 26 62  1  0
 28 63  1  0
 29 64  1  0
 30 65  1  0
 31 66  1  0
 33 67  1  0
 33 68  1  0
 35 69  1  0
 35 70  1  0
M  END
>  <smiles>  (112) 
c1ccc2c(c1)CCC(Nc1nc(NCCC3CCCN3)nc(N3CCc4ccccc4C3)n1)C2

>  <score_type>  (112) 
oracle

>  <origin>  (112) 
autodockgpu

>  <m_score__min__energy>  (112) 
-10.69

>  <m_primary>  (112) 
energy

>  <rmsd>  (112) 
12.277607710398836

>  <m_score__min__rmsd>  (112) 
12.277607710398836

>  <meeko>  (112) 
{"free_energy": -10.35, "intermolecular_energy": -12.44, "internal_energy": -1.68, "cluster_size": 9, "cluster_id": 1, "rank_in_cluster": 2}

>  <energy>  (112) 
-10.15

>  <cluster_rmsd>  (112) 
0.37

>  <cluster>  (112) 
2

$$$$

     RDKit          3D

 70 75  0  0  1  0  0  0  0  0999 V2000
  140.8330   68.1650  228.0990 C   0  0  0  0  0  0  0  0  0  0  0  0
  141.2880   69.4330  228.3610 C   0  0  0  0  0  0  0  0  0  0  0  0
  141.0180   70.4470  227.4520 C   0  0  0  0  0  0  0  0  0  0  0  0
  140.3010   70.2200  226.2850 C   0  0  0  0  0  0  0  0  0  0  0  0
  139.8500   68.9520  226.0320 C   0  0  0  0  0  0  0  0  0  0  0  0
  140.1120   67.9260  226.9310 C   0  0  0  0  0  0  0  0  0  0  0  0
  139.0670   68.5990  224.8050 C   0  0  0  0  0  0  0  0  0  0  0  0
  139.4910   69.5850  223.7290 C   0  0  0  0  0  0  0  0  0  0  0  0
  139.1580   70.9690  224.2590 C   0  0  2  0  0  0  0  0  0  0  0  0
  139.0120   71.9360  223.2260 N   0  0  0  0  0  0  0  0  0  0  0  0
  140.0140   72.2670  222.2750 C   0  0  0  0  0  0  0  0  0  0  0  0
  140.5220   73.5260  222.1680 N   0  0  0  0  0  0  0  0  0  0  0  0
  141.4660   73.8250  221.2650 C   0  0  0  0  0  0  0  0  0  0  0  0
  142.0560   75.0950  221.0930 N   0  0  0  0  0  0  0  0  0  0  0  0
  141.1550   76.1750  220.6770 C   0  0  0  0  0  0  0  0  0  0  0  0
  140.3610   76.6960  221.8420 C   0  0  0  0  0  0  0  0  0  0  0  0
  138.9070   76.3970  221.6190 C   0  0  1  0  0  0  0  0  0  0  0  0
  138.6810   75.4160  220.4660 C   0  0  0  0  0  0  0  0  0  0  0  0
  137.2780   74.8940  220.7930 C   0  0  0  0  0  0  0  0  0  0  0  0
  136.9910   75.3350  222.2080 C   0  0  0  0  0  0  0  0  0  0  0  0
  138.3140   75.6390  222.7200 N   0  0  0  0  0  0  0  0  0  0  0  0
  141.9010   72.8360  220.4580 N   0  0  0  0  0  0  0  0  0  0  0  0
  141.4350   71.5800  220.5210 C   0  0  0  0  0  0  0  0  0  0  0  0
  141.9710   70.6190  219.6230 N   0  0  0  0  0  0  0  0  0  0  0  0
  141.3110   69.3570  219.3940 C   0  0  0  0  0  0  0  0  0  0  0  0
  142.1820   68.1560  219.4860 C   0  0  0  0  0  0  0  0  0  0  0  0
  143.6280   68.4460  219.3880 C   0  0  0  0  0  0  0  0  0  0  0  0
  144.4970   67.3870  219.5880 C   0  0  0  0  0  0  0  0  0  0  0  0
  145.8590   67.5760  219.5140 C   0  0  0  0  0  0  0  0  0  0  0  0
  146.3450   68.8490  219.2360 C   0  0  0  0  0  0  0  0  0  0  0  0
  145.4720   69.8970  219.0380 C   0  0  0  0  0  0  0  0  0  0  0  0
  144.1050   69.6970  219.1140 C   0  0  0  0  0  0  0  0  0  0  0  0
  143.2110   70.8620  218.8930 C   0  0  0  0  0  0  0  0  0  0  0  0
  140.4980   71.3140  221.4290 N   0  0  0  0  0  0  0  0  0  0  0  0
  140.0700   71.3810  225.3850 C   0  0  0  0  0  0  0  0  0  0  0  0
  141.0355   67.3455  228.8042 H   0  0  0  0  0  0  0  0  0  0  0  0
  141.8583   69.6428  229.2779 H   0  0  0  0  0  0  0  0  0  0  0  0
  141.3838   71.4627  227.6631 H   0  0  0  0  0  0  0  0  0  0  0  0
  139.7453   66.9111  226.7179 H   0  0  0  0  0  0  0  0  0  0  0  0
  139.2959   67.5702  224.4902 H   0  0  0  0  0  0  0  0  0  0  0  0
  137.9845   68.6535  224.9925 H   0  0  0  0  0  0  0  0  0  0  0  0
  140.5713   69.5000  223.5397 H   0  0  0  0  0  0  0  0  0  0  0  0
  138.9719   69.3864  222.7797 H   0  0  0  0  0  0  0  0  0  0  0  0
  138.1577   70.9106  224.7130 H   0  0  0  0  0  0  0  0  0  0  0  0
  138.0910   72.4470  223.1630 H   0  0  0  0  0  0  0  0  0  0  0  0
  143.0730   75.3040  221.2400 H   0  0  0  0  0  0  0  0  0  0  0  0
  141.7508   76.9963  220.2522 H   0  0  0  0  0  0  0  0  0  0  0  0
  140.4553   75.7771  219.9273 H   0  0  0  0  0  0  0  0  0  0  0  0
  140.7000   76.2066  222.7670 H   0  0  0  0  0  0  0  0  0  0  0  0
  140.5060   77.7826  221.9328 H   0  0  0  0  0  0  0  0  0  0  0  0
  138.4744   77.3966  221.4647 H   0  0  0  0  0  0  0  0  0  0  0  0
  138.7048   75.9261  219.4917 H   0  0  0  0  0  0  0  0  0  0  0  0
  139.4475   74.6314  220.3828 H   0  0  0  0  0  0  0  0  0  0  0  0
  136.5390   75.3241  220.1010 H   0  0  0  0  0  0  0  0  0  0  0  0
  137.2206   73.8002  220.6917 H   0  0  0  0  0  0  0  0  0  0  0  0
  136.3453   76.2254  222.2230 H   0  0  0  0  0  0  0  0  0  0  0  0
  136.4556   74.5792  222.8014 H   0  0  0  0  0  0  0  0  0  0  0  0
  138.8290   74.7080  222.7380 H   0  0  0  0  0  0  0  0  0  0  0  0
  140.5095   69.2529  220.1402 H   0  0  0  0  0  0  0  0  0  0  0  0
  140.9475   69.3890  218.3563 H   0  0  0  0  0  0  0  0  0  0  0  0
  141.9933   67.6665  220.4528 H   0  0  0  0  0  0  0  0  0  0  0  0
  141.9295   67.5165  218.6274 H   0  0  0  0  0  0  0  0  0  0  0  0
  144.0962   66.3865  219.8078 H   0  0  0  0  0  0  0  0  0  0  0  0
  146.5502   66.7350  219.6720 H   0  0  0  0  0  0  0  0  0  0  0  0
  147.4298   69.0201  219.1739 H   0  0  0  0  0  0  0  0  0  0  0  0
  145.8652   70.9005  218.8178 H   0  0  0  0  0  0  0  0  0  0  0  0
  143.6915   71.7783  219.2666 H   0  0  0  0  0  0  0  0  0  0  0  0
  143.0058   70.9901  217.8199 H   0  0  0  0  0  0  0  0  0  0  0  0
  141.0310   71.7222  224.9725 H   0  0  0  0  0  0  0  0  0  0  0  0
  139.6042   72.1992  225.9538 H   0  0  0  0  0  0  0  0  0  0  0  0
  1  2  2  0
  2  3  1  0
  3  4  2  0
  4  5  1  0
  5  6  2  0
  5  7  1  0
  7  8  1  0
  8  9  1  0
  9 10  1  0
 10 11  1  0
 11 12  2  0
 12 13  1  0
 13 14  1  0
 14 15  1  0
 15 16  1  0
 16 17  1  0
 17 18  1  0
 18 19  1  0
 19 20  1  0
 20 21  1  0
 13 22  2  0
 22 23  1  0
 23 24  1  0
 24 25  1  0
 25 26  1  0
 26 27  1  0
 27 28  2  0
 28 29  1  0
 29 30  2  0
 30 31  1  0
 31 32  2  0
 32 33  1  0
 23 34  2  0
  9 35  1  0
  6  1  1  0
 34 11  1  0
 35  4  1  0
 21 17  1  0
 33 24  1  0
 32 27  1  0
  1 36  1  0
  2 37  1  0
  3 38  1  0
  6 39  1  0
  7 40  1  0
  7 41  1  0
  8 42  1  0
  8 43  1  0
  9 44  1  1
 10 45  1  0
 14 46  1  0
 15 47  1  0
 15 48  1  0
 16 49  1  0
 16 50  1  0
 17 51  1  6
 18 52  1  0
 18 53  1  0
 19 54  1  0
 19 55  1  0
 20 56  1  0
 20 57  1  0
 21 58  1  0
 25 59  1  0
 25 60  1  0
 26 61  1  0
 26 62  1  0
 28 63  1  0
 29 64  1  0
 30 65  1  0
 31 66  1  0
 33 67  1  0
 33 68  1  0
 35 69  1  0
 35 70  1  0
M  END
>  <smiles>  (113) 
c1ccc2c(c1)CCC(Nc1nc(NCCC3CCCN3)nc(N3CCc4ccccc4C3)n1)C2

>  <score_type>  (113) 
oracle

>  <origin>  (113) 
autodockgpu

>  <m_score__min__energy>  (113) 
-10.69

>  <m_primary>  (113) 
energy

>  <rmsd>  (113) 
12.206515884273882

>  <m_score__min__rmsd>  (113) 
12.206515884273882

>  <meeko>  (113) 
{"free_energy": -9.44, "intermolecular_energy": -11.53, "internal_energy": -2.28, "cluster_size": 9, "cluster_id": 1, "rank_in_cluster": 7}

>  <energy>  (113) 
-10.08

>  <cluster_rmsd>  (113) 
1.55

>  <cluster>  (113) 
2

$$$$

     RDKit          3D

 70 75  0  0  1  0  0  0  0  0999 V2000
  141.0440   68.1560  228.2020 C   0  0  0  0  0  0  0  0  0  0  0  0
  141.4370   69.4430  228.4700 C   0  0  0  0  0  0  0  0  0  0  0  0
  141.0850   70.4530  227.5860 C   0  0  0  0  0  0  0  0  0  0  0  0
  140.3460   70.2050  226.4370 C   0  0  0  0  0  0  0  0  0  0  0  0
  139.9570   68.9170  226.1770 C   0  0  0  0  0  0  0  0  0  0  0  0
  140.3020   67.8940  227.0530 C   0  0  0  0  0  0  0  0  0  0  0  0
  139.1580   68.5390  224.9690 C   0  0  0  0  0  0  0  0  0  0  0  0
  139.4960   69.5620  223.8960 C   0  0  0  0  0  0  0  0  0  0  0  0
  139.1040   70.9180  224.4580 C   0  0  2  0  0  0  0  0  0  0  0  0
  138.8750   71.8900  223.4450 N   0  0  0  0  0  0  0  0  0  0  0  0
  139.8920   72.5220  222.6790 C   0  0  0  0  0  0  0  0  0  0  0  0
  141.0040   71.8540  222.2640 N   0  0  0  0  0  0  0  0  0  0  0  0
  141.9560   72.4630  221.5440 C   0  0  0  0  0  0  0  0  0  0  0  0
  143.1320   71.8480  221.0630 N   0  0  0  0  0  0  0  0  0  0  0  0
  143.7410   72.4560  219.8750 C   0  0  0  0  0  0  0  0  0  0  0  0
  143.3550   71.7100  218.6280 C   0  0  0  0  0  0  0  0  0  0  0  0
  144.1030   70.4080  218.5850 C   0  0  1  0  0  0  0  0  0  0  0  0
  145.6190   70.6050  218.5090 C   0  0  0  0  0  0  0  0  0  0  0  0
  146.1190   69.2440  219.0040 C   0  0  0  0  0  0  0  0  0  0  0  0
  144.9190   68.5580  219.6130 C   0  0  0  0  0  0  0  0  0  0  0  0
  144.0040   69.6620  219.8380 N   0  0  0  0  0  0  0  0  0  0  0  0
  141.7820   73.7650  221.2420 N   0  0  0  0  0  0  0  0  0  0  0  0
  140.7070   74.4690  221.6260 C   0  0  0  0  0  0  0  0  0  0  0  0
  140.6280   75.8350  221.2440 N   0  0  0  0  0  0  0  0  0  0  0  0
  141.4130   76.3550  220.1520 C   0  0  0  0  0  0  0  0  0  0  0  0
  142.1610   77.6050  220.4420 C   0  0  0  0  0  0  0  0  0  0  0  0
  141.6790   78.3380  221.6320 C   0  0  0  0  0  0  0  0  0  0  0  0
  142.4100   79.4450  222.0270 C   0  0  0  0  0  0  0  0  0  0  0  0
  142.0260   80.1800  223.1270 C   0  0  0  0  0  0  0  0  0  0  0  0
  140.8930   79.7900  223.8320 C   0  0  0  0  0  0  0  0  0  0  0  0
  140.1720   78.6860  223.4310 C   0  0  0  0  0  0  0  0  0  0  0  0
  140.5650   77.9540  222.3250 C   0  0  0  0  0  0  0  0  0  0  0  0
  139.7520   76.7740  221.9370 C   0  0  0  0  0  0  0  0  0  0  0  0
  139.7780   73.8370  222.3390 N   0  0  0  0  0  0  0  0  0  0  0  0
  140.0260   71.3630  225.5620 C   0  0  0  0  0  0  0  0  0  0  0  0
  141.3124   67.3391  228.8880 H   0  0  0  0  0  0  0  0  0  0  0  0
  142.0227   69.6709  229.3728 H   0  0  0  0  0  0  0  0  0  0  0  0
  141.4018   71.4839  227.8026 H   0  0  0  0  0  0  0  0  0  0  0  0
  139.9845   66.8635  226.8355 H   0  0  0  0  0  0  0  0  0  0  0  0
  139.4325   67.5286  224.6318 H   0  0  0  0  0  0  0  0  0  0  0  0
  138.0802   68.5318  225.1889 H   0  0  0  0  0  0  0  0  0  0  0  0
  140.5732   69.5390  223.6742 H   0  0  0  0  0  0  0  0  0  0  0  0
  138.9610   69.3488  222.9588 H   0  0  0  0  0  0  0  0  0  0  0  0
  138.1227   70.7985  224.9405 H   0  0  0  0  0  0  0  0  0  0  0  0
  137.8750   72.1630  223.2480 H   0  0  0  0  0  0  0  0  0  0  0  0
  143.5820   71.0040  221.4940 H   0  0  0  0  0  0  0  0  0  0  0  0
  143.4004   73.4985  219.7901 H   0  0  0  0  0  0  0  0  0  0  0  0
  144.8349   72.4147  219.9828 H   0  0  0  0  0  0  0  0  0  0  0  0
  142.2727   71.5134  218.6361 H   0  0  0  0  0  0  0  0  0  0  0  0
  143.6062   72.3120  217.7423 H   0  0  0  0  0  0  0  0  0  0  0  0
  143.6605   69.9027  217.7139 H   0  0  0  0  0  0  0  0  0  0  0  0
  145.9486   70.8056  217.4789 H   0  0  0  0  0  0  0  0  0  0  0  0
  145.9933   71.4622  219.0879 H   0  0  0  0  0  0  0  0  0  0  0  0
  146.5124   68.6525  218.1642 H   0  0  0  0  0  0  0  0  0  0  0  0
  146.9343   69.3547  219.7341 H   0  0  0  0  0  0  0  0  0  0  0  0
  144.4887   67.8206  218.9195 H   0  0  0  0  0  0  0  0  0  0  0  0
  145.1551   67.9922  220.5263 H   0  0  0  0  0  0  0  0  0  0  0  0
  144.4730   70.2710  220.5740 H   0  0  0  0  0  0  0  0  0  0  0  0
  142.1413   75.5839  219.8606 H   0  0  0  0  0  0  0  0  0  0  0  0
  140.6955   76.6092  219.3579 H   0  0  0  0  0  0  0  0  0  0  0  0
  143.2179   77.3453  220.6016 H   0  0  0  0  0  0  0  0  0  0  0  0
  142.0110   78.2703  219.5790 H   0  0  0  0  0  0  0  0  0  0  0  0
  143.3042   79.7400  221.4583 H   0  0  0  0  0  0  0  0  0  0  0  0
  142.6057   81.0601  223.4421 H   0  0  0  0  0  0  0  0  0  0  0  0
  140.5709   80.3646  224.7130 H   0  0  0  0  0  0  0  0  0  0  0  0
  139.2769   78.3846  223.9949 H   0  0  0  0  0  0  0  0  0  0  0  0
  139.3303   76.2989  222.8350 H   0  0  0  0  0  0  0  0  0  0  0  0
  138.9220   77.0786  221.2826 H   0  0  0  0  0  0  0  0  0  0  0  0
  140.9543   71.7610  225.1264 H   0  0  0  0  0  0  0  0  0  0  0  0
  139.5345   72.1471  226.1566 H   0  0  0  0  0  0  0  0  0  0  0  0
  1  2  2  0
  2  3  1  0
  3  4  2  0
  4  5  1  0
  5  6  2  0
  5  7  1  0
  7  8  1  0
  8  9  1  0
  9 10  1  0
 10 11  1  0
 11 12  2  0
 12 13  1  0
 13 14  1  0
 14 15  1  0
 15 16  1  0
 16 17  1  0
 17 18  1  0
 18 19  1  0
 19 20  1  0
 20 21  1  0
 13 22  2  0
 22 23  1  0
 23 24  1  0
 24 25  1  0
 25 26  1  0
 26 27  1  0
 27 28  2  0
 28 29  1  0
 29 30  2  0
 30 31  1  0
 31 32  2  0
 32 33  1  0
 23 34  2  0
  9 35  1  0
  6  1  1  0
 34 11  1  0
 35  4  1  0
 21 17  1  0
 33 24  1  0
 32 27  1  0
  1 36  1  0
  2 37  1  0
  3 38  1  0
  6 39  1  0
  7 40  1  0
  7 41  1  0
  8 42  1  0
  8 43  1  0
  9 44  1  1
 10 45  1  0
 14 46  1  0
 15 47  1  0
 15 48  1  0
 16 49  1  0
 16 50  1  0
 17 51  1  6
 18 52  1  0
 18 53  1  0
 19 54  1  0
 19 55  1  0
 20 56  1  0
 20 57  1  0
 21 58  1  0
 25 59  1  0
 25 60  1  0
 26 61  1  0
 26 62  1  0
 28 63  1  0
 29 64  1  0
 30 65  1  0
 31 66  1  0
 33 67  1  0
 33 68  1  0
 35 69  1  0
 35 70  1  0
M  END
>  <smiles>  (114) 
c1ccc2c(c1)CCC(Nc1nc(NCCC3CCCN3)nc(N3CCc4ccccc4C3)n1)C2

>  <score_type>  (114) 
oracle

>  <origin>  (114) 
autodockgpu

>  <m_score__min__energy>  (114) 
-10.69

>  <m_primary>  (114) 
energy

>  <rmsd>  (114) 
12.275298772511908

>  <m_score__min__rmsd>  (114) 
12.275298772511908

>  <meeko>  (114) 
{"free_energy": -9.84, "intermolecular_energy": -11.93, "internal_energy": -1.56, "cluster_size": 21, "cluster_id": 2, "rank_in_cluster": 6}

>  <energy>  (114) 
-9.98

>  <cluster_rmsd>  (114) 
0.69

>  <cluster>  (114) 
2

$$$$

     RDKit          3D

 70 75  0  0  1  0  0  0  0  0999 V2000
  140.3440   68.2250  227.6250 C   0  0  0  0  0  0  0  0  0  0  0  0
  141.0460   69.3970  227.7530 C   0  0  0  0  0  0  0  0  0  0  0  0
  141.0300   70.3100  226.7070 C   0  0  0  0  0  0  0  0  0  0  0  0
  140.3270   70.0750  225.5330 C   0  0  0  0  0  0  0  0  0  0  0  0
  139.6280   68.9030  225.4140 C   0  0  0  0  0  0  0  0  0  0  0  0
  139.6340   67.9790  226.4530 C   0  0  0  0  0  0  0  0  0  0  0  0
  138.8360   68.5510  224.1930 C   0  0  0  0  0  0  0  0  0  0  0  0
  139.4990   69.2710  223.0310 C   0  0  0  0  0  0  0  0  0  0  0  0
  139.4450   70.7530  223.3580 C   0  0  2  0  0  0  0  0  0  0  0  0
  139.5470   71.5780  222.2020 N   0  0  0  0  0  0  0  0  0  0  0  0
  139.2970   72.9760  222.1770 C   0  0  0  0  0  0  0  0  0  0  0  0
  140.2930   73.8850  221.9920 N   0  0  0  0  0  0  0  0  0  0  0  0
  140.0430   75.2020  221.9720 C   0  0  0  0  0  0  0  0  0  0  0  0
  141.0090   76.2120  221.7760 N   0  0  0  0  0  0  0  0  0  0  0  0
  140.8730   77.0080  220.5520 C   0  0  0  0  0  0  0  0  0  0  0  0
  141.8710   78.1330  220.5260 C   0  0  0  0  0  0  0  0  0  0  0  0
  141.4680   79.1700  221.5340 C   0  0  1  0  0  0  0  0  0  0  0  0
  141.8050   78.7560  222.9680 C   0  0  0  0  0  0  0  0  0  0  0  0
  141.8050   80.1140  223.6760 C   0  0  0  0  0  0  0  0  0  0  0  0
  141.8130   81.1530  222.5800 C   0  0  0  0  0  0  0  0  0  0  0  0
  142.2610   80.3940  221.4280 N   0  0  0  0  0  0  0  0  0  0  0  0
  138.7680   75.6030  222.1420 N   0  0  0  0  0  0  0  0  0  0  0  0
  137.7490   74.7500  222.3270 C   0  0  0  0  0  0  0  0  0  0  0  0
  136.4440   75.2880  222.4900 N   0  0  0  0  0  0  0  0  0  0  0  0
  136.1690   76.6790  222.2260 C   0  0  0  0  0  0  0  0  0  0  0  0
  135.4170   77.3940  223.2910 C   0  0  0  0  0  0  0  0  0  0  0  0
  134.7210   76.5030  224.2430 C   0  0  0  0  0  0  0  0  0  0  0  0
  134.1040   77.1020  225.3280 C   0  0  0  0  0  0  0  0  0  0  0  0
  133.4350   76.3410  226.2600 C   0  0  0  0  0  0  0  0  0  0  0  0
  133.3920   74.9610  226.0940 C   0  0  0  0  0  0  0  0  0  0  0  0
  134.0100   74.3740  225.0110 C   0  0  0  0  0  0  0  0  0  0  0  0
  134.6780   75.1460  224.0780 C   0  0  0  0  0  0  0  0  0  0  0  0
  135.3260   74.4620  222.9310 C   0  0  0  0  0  0  0  0  0  0  0  0
  138.0290   73.4490  222.3420 N   0  0  0  0  0  0  0  0  0  0  0  0
  140.3810   71.1220  224.4790 C   0  0  0  0  0  0  0  0  0  0  0  0
  140.3422   67.4869  228.4406 H   0  0  0  0  0  0  0  0  0  0  0  0
  141.6133   69.6102  228.6710 H   0  0  0  0  0  0  0  0  0  0  0  0
  141.5923   71.2496  226.8118 H   0  0  0  0  0  0  0  0  0  0  0  0
  139.0699   67.0406  226.3475 H   0  0  0  0  0  0  0  0  0  0  0  0
  138.8546   67.4637  224.0276 H   0  0  0  0  0  0  0  0  0  0  0  0
  137.7830   68.8506  224.2999 H   0  0  0  0  0  0  0  0  0  0  0  0
  140.5435   68.9424  222.9259 H   0  0  0  0  0  0  0  0  0  0  0  0
  138.9868   69.0530  222.0823 H   0  0  0  0  0  0  0  0  0  0  0  0
  138.4384   70.9623  223.7490 H   0  0  0  0  0  0  0  0  0  0  0  0
  139.8280   71.1150  221.2970 H   0  0  0  0  0  0  0  0  0  0  0  0
  141.7970   76.4180  222.4370 H   0  0  0  0  0  0  0  0  0  0  0  0
  141.0406   76.3585  219.6802 H   0  0  0  0  0  0  0  0  0  0  0  0
  139.8606   77.4374  220.5243 H   0  0  0  0  0  0  0  0  0  0  0  0
  142.8698   77.7453  220.7754 H   0  0  0  0  0  0  0  0  0  0  0  0
  141.8973   78.5822  219.5222 H   0  0  0  0  0  0  0  0  0  0  0  0
  140.3943   79.2994  221.3327 H   0  0  0  0  0  0  0  0  0  0  0  0
  141.0399   78.0841  223.3842 H   0  0  0  0  0  0  0  0  0  0  0  0
  142.7457   78.1946  223.0671 H   0  0  0  0  0  0  0  0  0  0  0  0
  140.9041   80.2211  224.2980 H   0  0  0  0  0  0  0  0  0  0  0  0
  142.6744   80.2223  224.3412 H   0  0  0  0  0  0  0  0  0  0  0  0
  140.8065   81.5657  222.4167 H   0  0  0  0  0  0  0  0  0  0  0  0
  142.4485   82.0220  222.8055 H   0  0  0  0  0  0  0  0  0  0  0  0
  143.2620   80.1080  221.6510 H   0  0  0  0  0  0  0  0  0  0  0  0
  137.1306   77.1942  222.0853 H   0  0  0  0  0  0  0  0  0  0  0  0
  135.5235   76.6965  221.3355 H   0  0  0  0  0  0  0  0  0  0  0  0
  136.1267   78.0160  223.8563 H   0  0  0  0  0  0  0  0  0  0  0  0
  134.6397   77.9864  222.7861 H   0  0  0  0  0  0  0  0  0  0  0  0
  134.1487   78.1947  225.4464 H   0  0  0  0  0  0  0  0  0  0  0  0
  132.9429   76.8164  227.1213 H   0  0  0  0  0  0  0  0  0  0  0  0
  132.8633   74.3363  226.8290 H   0  0  0  0  0  0  0  0  0  0  0  0
  133.9716   73.2816  224.8876 H   0  0  0  0  0  0  0  0  0  0  0  0
  135.6925   73.4732  223.2440 H   0  0  0  0  0  0  0  0  0  0  0  0
  134.6058   74.3227  222.1113 H   0  0  0  0  0  0  0  0  0  0  0  0
  141.4071   71.1985  224.0901 H   0  0  0  0  0  0  0  0  0  0  0  0
  140.0785   72.0893  224.9065 H   0  0  0  0  0  0  0  0  0  0  0  0
  1  2  2  0
  2  3  1  0
  3  4  2  0
  4  5  1  0
  5  6  2  0
  5  7  1  0
  7  8  1  0
  8  9  1  0
  9 10  1  0
 10 11  1  0
 11 12  2  0
 12 13  1  0
 13 14  1  0
 14 15  1  0
 15 16  1  0
 16 17  1  0
 17 18  1  0
 18 19  1  0
 19 20  1  0
 20 21  1  0
 13 22  2  0
 22 23  1  0
 23 24  1  0
 24 25  1  0
 25 26  1  0
 26 27  1  0
 27 28  2  0
 28 29  1  0
 29 30  2  0
 30 31  1  0
 31 32  2  0
 32 33  1  0
 23 34  2  0
  9 35  1  0
  6  1  1  0
 34 11  1  0
 35  4  1  0
 21 17  1  0
 33 24  1  0
 32 27  1  0
  1 36  1  0
  2 37  1  0
  3 38  1  0
  6 39  1  0
  7 40  1  0
  7 41  1  0
  8 42  1  0
  8 43  1  0
  9 44  1  1
 10 45  1  0
 14 46  1  0
 15 47  1  0
 15 48  1  0
 16 49  1  0
 16 50  1  0
 17 51  1  1
 18 52  1  0
 18 53  1  0
 19 54  1  0
 19 55  1  0
 20 56  1  0
 20 57  1  0
 21 58  1  0
 25 59  1  0
 25 60  1  0
 26 61  1  0
 26 62  1  0
 28 63  1  0
 29 64  1  0
 30 65  1  0
 31 66  1  0
 33 67  1  0
 33 68  1  0
 35 69  1  0
 35 70  1  0
M  END
>  <smiles>  (115) 
c1ccc2c(c1)CCC(Nc1nc(NCCC3CCCN3)nc(N3CCc4ccccc4C3)n1)C2

>  <score_type>  (115) 
oracle

>  <origin>  (115) 
autodockgpu

>  <m_score__min__energy>  (115) 
-10.69

>  <m_primary>  (115) 
energy

>  <rmsd>  (115) 
12.123673329827406

>  <m_score__min__rmsd>  (115) 
12.123673329827406

>  <meeko>  (115) 
{"free_energy": -9.85, "intermolecular_energy": -11.93, "internal_energy": -0.94, "cluster_size": 5, "cluster_id": 5, "rank_in_cluster": 5}

>  <energy>  (115) 
-9.84

>  <cluster_rmsd>  (115) 
1.85

>  <cluster>  (115) 
2

$$$$

     RDKit          3D

 70 75  0  0  1  0  0  0  0  0999 V2000
  141.0730   80.7670  223.8410 C   0  0  0  0  0  0  0  0  0  0  0  0
  142.2210   80.2360  223.3110 C   0  0  0  0  0  0  0  0  0  0  0  0
  142.1500   79.0400  222.6100 C   0  0  0  0  0  0  0  0  0  0  0  0
  140.9520   78.3630  222.4260 C   0  0  0  0  0  0  0  0  0  0  0  0
  139.8100   78.9000  222.9580 C   0  0  0  0  0  0  0  0  0  0  0  0
  139.8650   80.0970  223.6630 C   0  0  0  0  0  0  0  0  0  0  0  0
  138.4670   78.2530  222.8170 C   0  0  0  0  0  0  0  0  0  0  0  0
  138.7240   76.7610  222.6780 C   0  0  0  0  0  0  0  0  0  0  0  0
  139.5900   76.5890  221.4420 C   0  0  2  0  0  0  0  0  0  0  0  0
  139.5030   75.2820  220.8850 N   0  0  0  0  0  0  0  0  0  0  0  0
  138.8410   74.1820  221.4920 C   0  0  0  0  0  0  0  0  0  0  0  0
  137.4990   73.9890  221.3700 N   0  0  0  0  0  0  0  0  0  0  0  0
  136.8870   72.9470  221.9490 C   0  0  0  0  0  0  0  0  0  0  0  0
  135.5070   72.6640  221.8670 N   0  0  0  0  0  0  0  0  0  0  0  0
  134.6480   73.3430  222.8430 C   0  0  0  0  0  0  0  0  0  0  0  0
  135.1350   73.1090  224.2460 C   0  0  0  0  0  0  0  0  0  0  0  0
  135.0680   74.4000  225.0110 C   0  0  1  0  0  0  0  0  0  0  0  0
  134.4470   75.5350  224.1920 C   0  0  0  0  0  0  0  0  0  0  0  0
  134.0190   76.5000  225.3010 C   0  0  0  0  0  0  0  0  0  0  0  0
  134.1120   75.7190  226.5900 C   0  0  0  0  0  0  0  0  0  0  0  0
  134.1250   74.3440  226.1260 N   0  0  0  0  0  0  0  0  0  0  0  0
  137.6440   72.0890  222.6630 N   0  0  0  0  0  0  0  0  0  0  0  0
  138.9690   72.2320  222.8140 C   0  0  0  0  0  0  0  0  0  0  0  0
  139.6650   71.2630  223.5840 N   0  0  0  0  0  0  0  0  0  0  0  0
  139.3280   69.8620  223.5080 C   0  0  0  0  0  0  0  0  0  0  0  0
  139.1410   69.1790  224.8140 C   0  0  0  0  0  0  0  0  0  0  0  0
  139.7180   69.9040  225.9660 C   0  0  0  0  0  0  0  0  0  0  0  0
  139.4720   69.3820  227.2240 C   0  0  0  0  0  0  0  0  0  0  0  0
  139.9740   70.0010  228.3480 C   0  0  0  0  0  0  0  0  0  0  0  0
  140.7300   71.1570  228.1960 C   0  0  0  0  0  0  0  0  0  0  0  0
  140.9690   71.6700  226.9380 C   0  0  0  0  0  0  0  0  0  0  0  0
  140.4620   71.0410  225.8160 C   0  0  0  0  0  0  0  0  0  0  0  0
  140.7500   71.6360  224.4860 C   0  0  0  0  0  0  0  0  0  0  0  0
  139.5480   73.2770  222.2270 N   0  0  0  0  0  0  0  0  0  0  0  0
  140.9940   77.0900  221.6580 C   0  0  0  0  0  0  0  0  0  0  0  0
  141.1059   81.7130  224.4013 H   0  0  0  0  0  0  0  0  0  0  0  0
  143.1846   80.7507  223.4396 H   0  0  0  0  0  0  0  0  0  0  0  0
  143.0722   78.6152  222.1869 H   0  0  0  0  0  0  0  0  0  0  0  0
  138.9421   80.5206  224.0859 H   0  0  0  0  0  0  0  0  0  0  0  0
  137.8529   78.4523  223.7076 H   0  0  0  0  0  0  0  0  0  0  0  0
  137.9228   78.6476  221.9463 H   0  0  0  0  0  0  0  0  0  0  0  0
  139.2493   76.3809  223.5666 H   0  0  0  0  0  0  0  0  0  0  0  0
  137.7819   76.2006  222.5863 H   0  0  0  0  0  0  0  0  0  0  0  0
  139.1743   77.2417  220.6602 H   0  0  0  0  0  0  0  0  0  0  0  0
  139.9670   75.1190  219.9510 H   0  0  0  0  0  0  0  0  0  0  0  0
  135.0730   72.0140  221.1680 H   0  0  0  0  0  0  0  0  0  0  0  0
  134.6531   74.4234  222.6362 H   0  0  0  0  0  0  0  0  0  0  0  0
  133.6292   72.9378  222.7541 H   0  0  0  0  0  0  0  0  0  0  0  0
  134.4991   72.3570  224.7361 H   0  0  0  0  0  0  0  0  0  0  0  0
  136.1730   72.7456  224.2223 H   0  0  0  0  0  0  0  0  0  0  0  0
  136.1157   74.5630  225.3038 H   0  0  0  0  0  0  0  0  0  0  0  0
  135.1840   75.9962  223.5182 H   0  0  0  0  0  0  0  0  0  0  0  0
  133.6293   75.2183  223.5278 H   0  0  0  0  0  0  0  0  0  0  0  0
  134.6916   77.3698  225.3316 H   0  0  0  0  0  0  0  0  0  0  0  0
  133.0009   76.8812  225.1331 H   0  0  0  0  0  0  0  0  0  0  0  0
  135.0352   75.9626  227.1363 H   0  0  0  0  0  0  0  0  0  0  0  0
  133.2945   75.9360  227.2933 H   0  0  0  0  0  0  0  0  0  0  0  0
  133.1680   74.1870  225.6870 H   0  0  0  0  0  0  0  0  0  0  0  0
  138.3911   69.7689  222.9393 H   0  0  0  0  0  0  0  0  0  0  0  0
  140.1872   69.3695  223.0291 H   0  0  0  0  0  0  0  0  0  0  0  0
  138.0617   69.0578  224.9883 H   0  0  0  0  0  0  0  0  0  0  0  0
  139.6728   68.2184  224.7470 H   0  0  0  0  0  0  0  0  0  0  0  0
  138.8713   68.4663  227.3273 H   0  0  0  0  0  0  0  0  0  0  0  0
  139.7796   69.5872  229.3485 H   0  0  0  0  0  0  0  0  0  0  0  0
  141.1392   71.6647  229.0818 H   0  0  0  0  0  0  0  0  0  0  0  0
  141.5674   72.5863  226.8267 H   0  0  0  0  0  0  0  0  0  0  0  0
  140.8060   72.7313  224.5706 H   0  0  0  0  0  0  0  0  0  0  0  0
  141.7123   71.2674  224.1013 H   0  0  0  0  0  0  0  0  0  0  0  0
  141.5685   76.3402  222.2217 H   0  0  0  0  0  0  0  0  0  0  0  0
  141.4757   77.2641  220.6845 H   0  0  0  0  0  0  0  0  0  0  0  0
  1  2  2  0
  2  3  1  0
  3  4  2  0
  4  5  1  0
  5  6  2  0
  5  7  1  0
  7  8  1  0
  8  9  1  0
  9 10  1  0
 10 11  1  0
 11 12  2  0
 12 13  1  0
 13 14  1  0
 14 15  1  0
 15 16  1  0
 16 17  1  0
 17 18  1  0
 18 19  1  0
 19 20  1  0
 20 21  1  0
 13 22  2  0
 22 23  1  0
 23 24  1  0
 24 25  1  0
 25 26  1  0
 26 27  1  0
 27 28  2  0
 28 29  1  0
 29 30  2  0
 30 31  1  0
 31 32  2  0
 32 33  1  0
 23 34  2  0
  9 35  1  0
  6  1  1  0
 34 11  1  0
 35  4  1  0
 21 17  1  0
 33 24  1  0
 32 27  1  0
  1 36  1  0
  2 37  1  0
  3 38  1  0
  6 39  1  0
  7 40  1  0
  7 41  1  0
  8 42  1  0
  8 43  1  0
  9 44  1  6
 10 45  1  0
 14 46  1  0
 15 47  1  0
 15 48  1  0
 16 49  1  0
 16 50  1  0
 17 51  1  1
 18 52  1  0
 18 53  1  0
 19 54  1  0
 19 55  1  0
 20 56  1  0
 20 57  1  0
 21 58  1  0
 25 59  1  0
 25 60  1  0
 26 61  1  0
 26 62  1  0
 28 63  1  0
 29 64  1  0
 30 65  1  0
 31 66  1  0
 33 67  1  0
 33 68  1  0
 35 69  1  0
 35 70  1  0
M  END
>  <smiles>  (116) 
c1ccc2c(c1)CCC(Nc1nc(NCCC3CCCN3)nc(N3CCc4ccccc4C3)n1)C2

>  <score_type>  (116) 
oracle

>  <origin>  (116) 
autodockgpu

>  <m_score__min__energy>  (116) 
-10.69

>  <m_primary>  (116) 
energy

>  <rmsd>  (116) 
4.589278609158239

>  <m_score__min__rmsd>  (116) 
4.589278609158239

>  <meeko>  (116) 
{"free_energy": -9.58, "intermolecular_energy": -11.67, "internal_energy": -1.43, "cluster_size": 1, "cluster_id": 7, "rank_in_cluster": 1}

>  <energy>  (116) 
-9.78

>  <cluster_rmsd>  (116) 
1.82

>  <cluster>  (116) 
2

$$$$

     RDKit          3D

 70 75  0  0  1  0  0  0  0  0999 V2000
  132.5860   75.6160  227.2230 C   0  0  0  0  0  0  0  0  0  0  0  0
  131.8240   74.6700  227.8610 C   0  0  0  0  0  0  0  0  0  0  0  0
  132.0220   73.3290  227.5590 C   0  0  0  0  0  0  0  0  0  0  0  0
  132.9670   72.9130  226.6310 C   0  0  0  0  0  0  0  0  0  0  0  0
  133.7240   73.8640  225.9990 C   0  0  0  0  0  0  0  0  0  0  0  0
  133.5380   75.2110  226.2900 C   0  0  0  0  0  0  0  0  0  0  0  0
  134.7700   73.5250  224.9830 C   0  0  0  0  0  0  0  0  0  0  0  0
  134.3380   72.2150  224.3450 C   0  0  0  0  0  0  0  0  0  0  0  0
  134.2590   71.1960  225.4680 C   0  0  2  0  0  0  0  0  0  0  0  0
  134.3700   69.8550  225.0060 N   0  0  0  0  0  0  0  0  0  0  0  0
  135.5100   69.3090  224.3600 C   0  0  0  0  0  0  0  0  0  0  0  0
  135.4330   68.7130  223.1380 N   0  0  0  0  0  0  0  0  0  0  0  0
  136.5170   68.2010  222.5400 C   0  0  0  0  0  0  0  0  0  0  0  0
  136.5310   67.5780  221.2730 N   0  0  0  0  0  0  0  0  0  0  0  0
  137.0250   68.3930  220.1580 C   0  0  0  0  0  0  0  0  0  0  0  0
  138.1610   69.2760  220.5940 C   0  0  0  0  0  0  0  0  0  0  0  0
  137.6330   70.6540  220.8710 C   0  0  1  0  0  0  0  0  0  0  0  0
  136.1390   70.7820  220.5630 C   0  0  0  0  0  0  0  0  0  0  0  0
  135.7710   72.0150  221.3950 C   0  0  0  0  0  0  0  0  0  0  0  0
  136.9400   72.2550  222.3210 C   0  0  0  0  0  0  0  0  0  0  0  0
  137.6300   70.9780  222.2960 N   0  0  0  0  0  0  0  0  0  0  0  0
  137.6950   68.2900  223.1880 N   0  0  0  0  0  0  0  0  0  0  0  0
  137.8280   68.8660  224.3930 C   0  0  0  0  0  0  0  0  0  0  0  0
  139.1210   68.9070  224.9790 N   0  0  0  0  0  0  0  0  0  0  0  0
  139.5690   67.8730  225.8780 C   0  0  0  0  0  0  0  0  0  0  0  0
  140.1660   68.3510  227.1530 C   0  0  0  0  0  0  0  0  0  0  0  0
  140.5820   69.7700  227.1330 C   0  0  0  0  0  0  0  0  0  0  0  0
  141.0330   70.3090  228.3260 C   0  0  0  0  0  0  0  0  0  0  0  0
  141.4370   71.6240  228.3900 C   0  0  0  0  0  0  0  0  0  0  0  0
  141.3840   72.3990  227.2370 C   0  0  0  0  0  0  0  0  0  0  0  0
  140.9330   71.8520  226.0540 C   0  0  0  0  0  0  0  0  0  0  0  0
  140.5300   70.5310  225.9990 C   0  0  0  0  0  0  0  0  0  0  0  0
  140.0530   69.9940  224.6990 C   0  0  0  0  0  0  0  0  0  0  0  0
  136.7330   69.3660  224.9610 N   0  0  0  0  0  0  0  0  0  0  0  0
  133.0930   71.4520  226.3870 C   0  0  0  0  0  0  0  0  0  0  0  0
  132.4465   76.6841  227.4461 H   0  0  0  0  0  0  0  0  0  0  0  0
  131.0672   74.9694  228.6010 H   0  0  0  0  0  0  0  0  0  0  0  0
  131.4103   72.5720  228.0717 H   0  0  0  0  0  0  0  0  0  0  0  0
  134.1507   75.9668  225.7767 H   0  0  0  0  0  0  0  0  0  0  0  0
  134.8322   74.3168  224.2219 H   0  0  0  0  0  0  0  0  0  0  0  0
  135.7631   73.4347  225.4472 H   0  0  0  0  0  0  0  0  0  0  0  0
  133.3542   72.3311  223.8669 H   0  0  0  0  0  0  0  0  0  0  0  0
  135.0483   71.8970  223.5676 H   0  0  0  0  0  0  0  0  0  0  0  0
  135.1504   71.3366  226.0969 H   0  0  0  0  0  0  0  0  0  0  0  0
  133.5410   69.2190  225.1550 H   0  0  0  0  0  0  0  0  0  0  0  0
  136.2170   66.5950  221.0900 H   0  0  0  0  0  0  0  0  0  0  0  0
  137.3748   67.7281  219.3545 H   0  0  0  0  0  0  0  0  0  0  0  0
  136.2034   69.0316  219.8015 H   0  0  0  0  0  0  0  0  0  0  0  0
  138.6171   68.8657  221.5071 H   0  0  0  0  0  0  0  0  0  0  0  0
  138.9204   69.3226  219.7996 H   0  0  0  0  0  0  0  0  0  0  0  0
  138.2855   71.2921  220.2569 H   0  0  0  0  0  0  0  0  0  0  0  0
  135.9610   70.9509  219.4907 H   0  0  0  0  0  0  0  0  0  0  0  0
  135.5496   69.8839  220.7998 H   0  0  0  0  0  0  0  0  0  0  0  0
  135.6164   72.8856  220.7407 H   0  0  0  0  0  0  0  0  0  0  0  0
  134.8375   71.8593  221.9558 H   0  0  0  0  0  0  0  0  0  0  0  0
  137.5853   73.0626  221.9450 H   0  0  0  0  0  0  0  0  0  0  0  0
  136.6407   72.5713  223.3311 H   0  0  0  0  0  0  0  0  0  0  0  0
  136.9590   70.2870  222.7470 H   0  0  0  0  0  0  0  0  0  0  0  0
  138.7041   67.2397  226.1247 H   0  0  0  0  0  0  0  0  0  0  0  0
  140.3718   67.3385  225.3491 H   0  0  0  0  0  0  0  0  0  0  0  0
  139.4218   68.2209  227.9525 H   0  0  0  0  0  0  0  0  0  0  0  0
  141.0769   67.7568  227.3179 H   0  0  0  0  0  0  0  0  0  0  0  0
  141.0689   69.6822  229.2293 H   0  0  0  0  0  0  0  0  0  0  0  0
  141.7954   72.0537  229.3370 H   0  0  0  0  0  0  0  0  0  0  0  0
  141.7027   73.4514  227.2684 H   0  0  0  0  0  0  0  0  0  0  0  0
  140.8937   72.4723  225.1465 H   0  0  0  0  0  0  0  0  0  0  0  0
  139.5435   70.7866  224.1313 H   0  0  0  0  0  0  0  0  0  0  0  0
  140.9005   69.6282  224.1008 H   0  0  0  0  0  0  0  0  0  0  0  0
  132.1697   71.0769  225.9214 H   0  0  0  0  0  0  0  0  0  0  0  0
  133.2581   70.9331  227.3428 H   0  0  0  0  0  0  0  0  0  0  0  0
  1  2  2  0
  2  3  1  0
  3  4  2  0
  4  5  1  0
  5  6  2  0
  5  7  1  0
  7  8  1  0
  8  9  1  0
  9 10  1  0
 10 11  1  0
 11 12  2  0
 12 13  1  0
 13 14  1  0
 14 15  1  0
 15 16  1  0
 16 17  1  0
 17 18  1  0
 18 19  1  0
 19 20  1  0
 20 21  1  0
 13 22  2  0
 22 23  1  0
 23 24  1  0
 24 25  1  0
 25 26  1  0
 26 27  1  0
 27 28  2  0
 28 29  1  0
 29 30  2  0
 30 31  1  0
 31 32  2  0
 32 33  1  0
 23 34  2  0
  9 35  1  0
  6  1  1  0
 34 11  1  0
 35  4  1  0
 21 17  1  0
 33 24  1  0
 32 27  1  0
  1 36  1  0
  2 37  1  0
  3 38  1  0
  6 39  1  0
  7 40  1  0
  7 41  1  0
  8 42  1  0
  8 43  1  0
  9 44  1  1
 10 45  1  0
 14 46  1  0
 15 47  1  0
 15 48  1  0
 16 49  1  0
 16 50  1  0
 17 51  1  6
 18 52  1  0
 18 53  1  0
 19 54  1  0
 19 55  1  0
 20 56  1  0
 20 57  1  0
 21 58  1  0
 25 59  1  0
 25 60  1  0
 26 61  1  0
 26 62  1  0
 28 63  1  0
 29 64  1  0
 30 65  1  0
 31 66  1  0
 33 67  1  0
 33 68  1  0
 35 69  1  0
 35 70  1  0
M  END
>  <smiles>  (117) 
c1ccc2c(c1)CCC(Nc1nc(NCCC3CCCN3)nc(N3CCc4ccccc4C3)n1)C2

>  <score_type>  (117) 
oracle

>  <origin>  (117) 
autodockgpu

>  <m_score__min__energy>  (117) 
-10.69

>  <m_primary>  (117) 
energy

>  <rmsd>  (117) 
11.835312220715725

>  <m_score__min__rmsd>  (117) 
11.835312220715725

>  <meeko>  (117) 
{"free_energy": -7.77, "intermolecular_energy": -9.86, "internal_energy": -3.36, "cluster_size": 2, "cluster_id": 10, "rank_in_cluster": 1}

>  <energy>  (117) 
-9.74

>  <cluster_rmsd>  (117) 
1.58

>  <cluster>  (117) 
2

$$$$

     RDKit          3D

 70 75  0  0  1  0  0  0  0  0999 V2000
  132.8490   74.7390  226.9600 C   0  0  0  0  0  0  0  0  0  0  0  0
  133.6130   75.8720  226.8370 C   0  0  0  0  0  0  0  0  0  0  0  0
  134.4920   75.9790  225.7690 C   0  0  0  0  0  0  0  0  0  0  0  0
  134.6250   74.9750  224.8190 C   0  0  0  0  0  0  0  0  0  0  0  0
  133.8590   73.8470  224.9490 C   0  0  0  0  0  0  0  0  0  0  0  0
  132.9730   73.7250  226.0130 C   0  0  0  0  0  0  0  0  0  0  0  0
  133.9220   72.7070  223.9810 C   0  0  0  0  0  0  0  0  0  0  0  0
  135.3240   72.7230  223.3930 C   0  0  0  0  0  0  0  0  0  0  0  0
  135.4900   74.0730  222.7190 C   0  0  2  0  0  0  0  0  0  0  0  0
  136.5000   74.0690  221.7160 N   0  0  0  0  0  0  0  0  0  0  0  0
  137.8800   73.8330  221.9520 C   0  0  0  0  0  0  0  0  0  0  0  0
  138.8360   74.7480  221.6300 N   0  0  0  0  0  0  0  0  0  0  0  0
  140.1350   74.5120  221.8570 C   0  0  0  0  0  0  0  0  0  0  0  0
  141.1890   75.4040  221.5660 N   0  0  0  0  0  0  0  0  0  0  0  0
  140.7980   76.7700  221.2020 C   0  0  0  0  0  0  0  0  0  0  0  0
  140.1930   77.4900  222.3750 C   0  0  0  0  0  0  0  0  0  0  0  0
  140.8600   78.8270  222.5280 C   0  0  1  0  0  0  0  0  0  0  0  0
  141.5830   78.9710  223.8700 C   0  0  0  0  0  0  0  0  0  0  0  0
  142.5630   80.1060  223.5570 C   0  0  0  0  0  0  0  0  0  0  0  0
  142.5530   80.2600  222.0540 C   0  0  0  0  0  0  0  0  0  0  0  0
  141.9840   79.0010  221.6110 N   0  0  0  0  0  0  0  0  0  0  0  0
  140.4720   73.3320  222.4170 N   0  0  0  0  0  0  0  0  0  0  0  0
  139.5720   72.3970  222.7540 C   0  0  0  0  0  0  0  0  0  0  0  0
  140.0430   71.1930  223.3430 N   0  0  0  0  0  0  0  0  0  0  0  0
  139.5230   69.9090  222.9400 C   0  0  0  0  0  0  0  0  0  0  0  0
  139.1090   69.0120  224.0510 C   0  0  0  0  0  0  0  0  0  0  0  0
  139.6600   69.3870  225.3710 C   0  0  0  0  0  0  0  0  0  0  0  0
  139.2160   68.6660  226.4650 C   0  0  0  0  0  0  0  0  0  0  0  0
  139.6820   68.9550  227.7290 C   0  0  0  0  0  0  0  0  0  0  0  0
  140.6040   69.9840  227.8850 C   0  0  0  0  0  0  0  0  0  0  0  0
  141.0400   70.6970  226.7890 C   0  0  0  0  0  0  0  0  0  0  0  0
  140.5680   70.3990  225.5230 C   0  0  0  0  0  0  0  0  0  0  0  0
  141.0710   71.1980  224.3780 C   0  0  0  0  0  0  0  0  0  0  0  0
  138.2890   72.6610  222.5160 N   0  0  0  0  0  0  0  0  0  0  0  0
  135.5980   75.1970  223.7170 C   0  0  0  0  0  0  0  0  0  0  0  0
  132.1451   74.6324  227.7986 H   0  0  0  0  0  0  0  0  0  0  0  0
  133.5298   76.6838  227.5746 H   0  0  0  0  0  0  0  0  0  0  0  0
  135.1032   76.8884  225.6716 H   0  0  0  0  0  0  0  0  0  0  0  0
  132.3616   72.8156  226.1085 H   0  0  0  0  0  0  0  0  0  0  0  0
  133.7380   71.7553  224.5010 H   0  0  0  0  0  0  0  0  0  0  0  0
  133.1581   72.8068  223.1958 H   0  0  0  0  0  0  0  0  0  0  0  0
  136.0723   72.6010  224.1900 H   0  0  0  0  0  0  0  0  0  0  0  0
  135.4661   71.8996  222.6775 H   0  0  0  0  0  0  0  0  0  0  0  0
  134.5619   74.2751  222.1642 H   0  0  0  0  0  0  0  0  0  0  0  0
  136.1990   74.2570  220.7220 H   0  0  0  0  0  0  0  0  0  0  0  0
  142.2070   75.1530  221.5940 H   0  0  0  0  0  0  0  0  0  0  0  0
  141.6880   77.3202  220.8627 H   0  0  0  0  0  0  0  0  0  0  0  0
  140.0475   76.7167  220.3995 H   0  0  0  0  0  0  0  0  0  0  0  0
  139.1159   77.6331  222.2038 H   0  0  0  0  0  0  0  0  0  0  0  0
  140.3385   76.8963  223.2895 H   0  0  0  0  0  0  0  0  0  0  0  0
  140.0296   79.5320  222.3750 H   0  0  0  0  0  0  0  0  0  0  0  0
  140.8873   79.2492  224.6753 H   0  0  0  0  0  0  0  0  0  0  0  0
  142.0604   78.0470  224.2280 H   0  0  0  0  0  0  0  0  0  0  0  0
  142.2348   81.0386  224.0393 H   0  0  0  0  0  0  0  0  0  0  0  0
  143.5723   79.8829  223.9331 H   0  0  0  0  0  0  0  0  0  0  0  0
  141.9258   81.1095  221.7460 H   0  0  0  0  0  0  0  0  0  0  0  0
  143.5464   80.4651  221.6285 H   0  0  0  0  0  0  0  0  0  0  0  0
  142.6970   78.2590  221.8850 H   0  0  0  0  0  0  0  0  0  0  0  0
  138.6456   70.0838  222.2999 H   0  0  0  0  0  0  0  0  0  0  0  0
  140.3489   69.3948  222.4267 H   0  0  0  0  0  0  0  0  0  0  0  0
  138.0112   69.0299  224.1178 H   0  0  0  0  0  0  0  0  0  0  0  0
  139.5057   68.0135  223.8153 H   0  0  0  0  0  0  0  0  0  0  0  0
  138.4853   67.8558  226.3247 H   0  0  0  0  0  0  0  0  0  0  0  0
  139.3307   68.3816  228.5996 H   0  0  0  0  0  0  0  0  0  0  0  0
  140.9868   70.2299  228.8865 H   0  0  0  0  0  0  0  0  0  0  0  0
  141.7693   71.5097  226.9219 H   0  0  0  0  0  0  0  0  0  0  0  0
  141.2709   72.2302  224.7015 H   0  0  0  0  0  0  0  0  0  0  0  0
  142.0066   70.7676  223.9915 H   0  0  0  0  0  0  0  0  0  0  0  0
  136.6178   75.2257  224.1283 H   0  0  0  0  0  0  0  0  0  0  0  0
  135.3770   76.1526  223.2190 H   0  0  0  0  0  0  0  0  0  0  0  0
  1  2  2  0
  2  3  1  0
  3  4  2  0
  4  5  1  0
  5  6  2  0
  5  7  1  0
  7  8  1  0
  8  9  1  0
  9 10  1  0
 10 11  1  0
 11 12  2  0
 12 13  1  0
 13 14  1  0
 14 15  1  0
 15 16  1  0
 16 17  1  0
 17 18  1  0
 18 19  1  0
 19 20  1  0
 20 21  1  0
 13 22  2  0
 22 23  1  0
 23 24  1  0
 24 25  1  0
 25 26  1  0
 26 27  1  0
 27 28  2  0
 28 29  1  0
 29 30  2  0
 30 31  1  0
 31 32  2  0
 32 33  1  0
 23 34  2  0
  9 35  1  0
  6  1  1  0
 34 11  1  0
 35  4  1  0
 21 17  1  0
 33 24  1  0
 32 27  1  0
  1 36  1  0
  2 37  1  0
  3 38  1  0
  6 39  1  0
  7 40  1  0
  7 41  1  0
  8 42  1  0
  8 43  1  0
  9 44  1  6
 10 45  1  0
 14 46  1  0
 15 47  1  0
 15 48  1  0
 16 49  1  0
 16 50  1  0
 17 51  1  6
 18 52  1  0
 18 53  1  0
 19 54  1  0
 19 55  1  0
 20 56  1  0
 20 57  1  0
 21 58  1  0
 25 59  1  0
 25 60  1  0
 26 61  1  0
 26 62  1  0
 28 63  1  0
 29 64  1  0
 30 65  1  0
 31 66  1  0
 33 67  1  0
 33 68  1  0
 35 69  1  0
 35 70  1  0
M  END
>  <smiles>  (118) 
c1ccc2c(c1)CCC(Nc1nc(NCCC3CCCN3)nc(N3CCc4ccccc4C3)n1)C2

>  <score_type>  (118) 
oracle

>  <origin>  (118) 
autodockgpu

>  <m_score__min__energy>  (118) 
-10.69

>  <m_primary>  (118) 
energy

>  <rmsd>  (118) 
9.78798461399674

>  <m_score__min__rmsd>  (118) 
9.78798461399674

>  <meeko>  (118) 
{"free_energy": -9.95, "intermolecular_energy": -12.04, "internal_energy": -1.14, "cluster_size": 5, "cluster_id": 5, "rank_in_cluster": 2}

>  <energy>  (118) 
-9.59

>  <cluster_rmsd>  (118) 
1.98

>  <cluster>  (118) 
2

$$$$

     RDKit          3D

 70 75  0  0  1  0  0  0  0  0999 V2000
  140.1780   69.8900  228.0650 C   0  0  0  0  0  0  0  0  0  0  0  0
  141.0670   70.9250  227.9240 C   0  0  0  0  0  0  0  0  0  0  0  0
  141.1970   71.5390  226.6860 C   0  0  0  0  0  0  0  0  0  0  0  0
  140.4550   71.1400  225.5830 C   0  0  0  0  0  0  0  0  0  0  0  0
  139.5680   70.1060  225.7310 C   0  0  0  0  0  0  0  0  0  0  0  0
  139.4270   69.4800  226.9650 C   0  0  0  0  0  0  0  0  0  0  0  0
  138.7190   69.5970  224.6080 C   0  0  0  0  0  0  0  0  0  0  0  0
  139.4850   69.8870  223.3280 C   0  0  0  0  0  0  0  0  0  0  0  0
  139.6820   71.3920  223.2780 C   0  0  2  0  0  0  0  0  0  0  0  0
  139.9120   71.8760  221.9600 N   0  0  0  0  0  0  0  0  0  0  0  0
  140.5850   73.0870  221.6430 C   0  0  0  0  0  0  0  0  0  0  0  0
  141.6150   73.1300  220.7540 N   0  0  0  0  0  0  0  0  0  0  0  0
  142.2420   74.2790  220.4660 C   0  0  0  0  0  0  0  0  0  0  0  0
  143.3080   74.4180  219.5520 N   0  0  0  0  0  0  0  0  0  0  0  0
  143.6980   75.7920  219.2180 C   0  0  0  0  0  0  0  0  0  0  0  0
  142.7890   76.3720  218.1700 C   0  0  0  0  0  0  0  0  0  0  0  0
  142.0570   77.5470  218.7510 C   0  0  1  0  0  0  0  0  0  0  0  0
  142.6170   78.8860  218.2640 C   0  0  0  0  0  0  0  0  0  0  0  0
  141.4340   79.8190  218.5400 C   0  0  0  0  0  0  0  0  0  0  0  0
  140.2520   78.9200  218.8170 C   0  0  0  0  0  0  0  0  0  0  0  0
  140.6840   77.6510  218.2610 N   0  0  0  0  0  0  0  0  0  0  0  0
  141.8220   75.3990  221.0880 N   0  0  0  0  0  0  0  0  0  0  0  0
  140.8120   75.4120  221.9710 C   0  0  0  0  0  0  0  0  0  0  0  0
  140.4520   76.6530  222.5610 N   0  0  0  0  0  0  0  0  0  0  0  0
  139.1120   77.1740  222.4510 C   0  0  0  0  0  0  0  0  0  0  0  0
  139.0120   78.5920  222.0150 C   0  0  0  0  0  0  0  0  0  0  0  0
  140.2670   79.3600  222.1570 C   0  0  0  0  0  0  0  0  0  0  0  0
  140.2750   80.6500  221.6570 C   0  0  0  0  0  0  0  0  0  0  0  0
  141.4060   81.4290  221.7500 C   0  0  0  0  0  0  0  0  0  0  0  0
  142.5400   80.8970  222.3550 C   0  0  0  0  0  0  0  0  0  0  0  0
  142.5220   79.6110  222.8500 C   0  0  0  0  0  0  0  0  0  0  0  0
  141.3810   78.8360  222.7530 C   0  0  0  0  0  0  0  0  0  0  0  0
  141.4180   77.4570  223.3030 C   0  0  0  0  0  0  0  0  0  0  0  0
  140.2090   74.2550  222.2360 N   0  0  0  0  0  0  0  0  0  0  0  0
  140.6750   71.8690  224.3060 C   0  0  0  0  0  0  0  0  0  0  0  0
  140.0590   69.3885  229.0368 H   0  0  0  0  0  0  0  0  0  0  0  0
  141.6687   71.2638  228.7803 H   0  0  0  0  0  0  0  0  0  0  0  0
  141.9110   72.3684  226.5755 H   0  0  0  0  0  0  0  0  0  0  0  0
  138.7132   68.6502  227.0741 H   0  0  0  0  0  0  0  0  0  0  0  0
  138.5536   68.5149  224.7159 H   0  0  0  0  0  0  0  0  0  0  0  0
  137.7319   70.0825  224.6016 H   0  0  0  0  0  0  0  0  0  0  0  0
  140.4590   69.3761  223.3435 H   0  0  0  0  0  0  0  0  0  0  0  0
  138.9368   69.5270  222.4449 H   0  0  0  0  0  0  0  0  0  0  0  0
  138.7273   71.8539  223.5698 H   0  0  0  0  0  0  0  0  0  0  0  0
  139.5540   71.2920  221.1570 H   0  0  0  0  0  0  0  0  0  0  0  0
  143.8220   73.6180  219.1100 H   0  0  0  0  0  0  0  0  0  0  0  0
  143.6425   76.4120  220.1250 H   0  0  0  0  0  0  0  0  0  0  0  0
  144.7242   75.7780  218.8221 H   0  0  0  0  0  0  0  0  0  0  0  0
  143.3852   76.7000  217.3058 H   0  0  0  0  0  0  0  0  0  0  0  0
  142.0664   75.6098  217.8429 H   0  0  0  0  0  0  0  0  0  0  0  0
  142.1466   77.3771  219.8341 H   0  0  0  0  0  0  0  0  0  0  0  0
  143.5075   79.1833  218.8372 H   0  0  0  0  0  0  0  0  0  0  0  0
  142.9544   78.8811  217.2171 H   0  0  0  0  0  0  0  0  0  0  0  0
  141.6438   80.4547  219.4129 H   0  0  0  0  0  0  0  0  0  0  0  0
  141.2410   80.4883  217.6887 H   0  0  0  0  0  0  0  0  0  0  0  0
  140.0611   78.8362  219.8971 H   0  0  0  0  0  0  0  0  0  0  0  0
  139.3100   79.2894  218.3854 H   0  0  0  0  0  0  0  0  0  0  0  0
  140.7640   77.8160  217.2130 H   0  0  0  0  0  0  0  0  0  0  0  0
  138.5665   76.5559  221.7227 H   0  0  0  0  0  0  0  0  0  0  0  0
  138.6893   77.1388  223.4659 H   0  0  0  0  0  0  0  0  0  0  0  0
  138.7165   78.6070  220.9555 H   0  0  0  0  0  0  0  0  0  0  0  0
  138.2715   79.0728  222.6711 H   0  0  0  0  0  0  0  0  0  0  0  0
  139.3702   81.0564  221.1813 H   0  0  0  0  0  0  0  0  0  0  0  0
  141.4130   82.4547  221.3527 H   0  0  0  0  0  0  0  0  0  0  0  0
  143.4533   81.5043  222.4385 H   0  0  0  0  0  0  0  0  0  0  0  0
  143.4231   79.1975  223.3264 H   0  0  0  0  0  0  0  0  0  0  0  0
  142.4264   77.0339  223.1840 H   0  0  0  0  0  0  0  0  0  0  0  0
  141.1684   77.4645  224.3743 H   0  0  0  0  0  0  0  0  0  0  0  0
  141.6965   71.6774  223.9457 H   0  0  0  0  0  0  0  0  0  0  0  0
  140.5412   72.9481  224.4720 H   0  0  0  0  0  0  0  0  0  0  0  0
  1  2  2  0
  2  3  1  0
  3  4  2  0
  4  5  1  0
  5  6  2  0
  5  7  1  0
  7  8  1  0
  8  9  1  0
  9 10  1  0
 10 11  1  0
 11 12  2  0
 12 13  1  0
 13 14  1  0
 14 15  1  0
 15 16  1  0
 16 17  1  0
 17 18  1  0
 18 19  1  0
 19 20  1  0
 20 21  1  0
 13 22  2  0
 22 23  1  0
 23 24  1  0
 24 25  1  0
 25 26  1  0
 26 27  1  0
 27 28  2  0
 28 29  1  0
 29 30  2  0
 30 31  1  0
 31 32  2  0
 32 33  1  0
 23 34  2  0
  9 35  1  0
  6  1  1  0
 34 11  1  0
 35  4  1  0
 21 17  1  0
 33 24  1  0
 32 27  1  0
  1 36  1  0
  2 37  1  0
  3 38  1  0
  6 39  1  0
  7 40  1  0
  7 41  1  0
  8 42  1  0
  8 43  1  0
  9 44  1  1
 10 45  1  0
 14 46  1  0
 15 47  1  0
 15 48  1  0
 16 49  1  0
 16 50  1  0
 17 51  1  1
 18 52  1  0
 18 53  1  0
 19 54  1  0
 19 55  1  0
 20 56  1  0
 20 57  1  0
 21 58  1  0
 25 59  1  0
 25 60  1  0
 26 61  1  0
 26 62  1  0
 28 63  1  0
 29 64  1  0
 30 65  1  0
 31 66  1  0
 33 67  1  0
 33 68  1  0
 35 69  1  0
 35 70  1  0
M  END
>  <smiles>  (119) 
c1ccc2c(c1)CCC(Nc1nc(NCCC3CCCN3)nc(N3CCc4ccccc4C3)n1)C2

>  <score_type>  (119) 
oracle

>  <origin>  (119) 
autodockgpu

>  <m_score__min__energy>  (119) 
-10.69

>  <m_primary>  (119) 
energy

>  <rmsd>  (119) 
11.287370408321337

>  <m_score__min__rmsd>  (119) 
11.287370408321337

>  <meeko>  (119) 
{"free_energy": -8.95, "intermolecular_energy": -11.04, "internal_energy": -2.17, "cluster_size": 21, "cluster_id": 2, "rank_in_cluster": 17}

>  <energy>  (119) 
-9.57

>  <cluster_rmsd>  (119) 
2.0

>  <cluster>  (119) 
2

$$$$

     RDKit          3D

 70 75  0  0  1  0  0  0  0  0999 V2000
  140.3760   68.0030  227.6700 C   0  0  0  0  0  0  0  0  0  0  0  0
  139.4760   67.4220  226.8130 C   0  0  0  0  0  0  0  0  0  0  0  0
  139.1990   68.0430  225.6020 C   0  0  0  0  0  0  0  0  0  0  0  0
  139.8040   69.2360  225.2300 C   0  0  0  0  0  0  0  0  0  0  0  0
  140.7010   69.8100  226.0910 C   0  0  0  0  0  0  0  0  0  0  0  0
  140.9890   69.2000  227.3070 C   0  0  0  0  0  0  0  0  0  0  0  0
  141.4100   71.0930  225.7880 C   0  0  0  0  0  0  0  0  0  0  0  0
  140.4970   71.8770  224.8600 C   0  0  0  0  0  0  0  0  0  0  0  0
  140.2950   71.0140  223.6270 C   0  0  2  0  0  0  0  0  0  0  0  0
  139.9090   71.7660  222.4830 N   0  0  0  0  0  0  0  0  0  0  0  0
  140.6100   72.8930  221.9770 C   0  0  0  0  0  0  0  0  0  0  0  0
  141.7430   72.7650  221.2310 N   0  0  0  0  0  0  0  0  0  0  0  0
  142.3950   73.8370  220.7610 C   0  0  0  0  0  0  0  0  0  0  0  0
  143.5650   73.7980  219.9740 N   0  0  0  0  0  0  0  0  0  0  0  0
  143.7270   74.8840  219.0010 C   0  0  0  0  0  0  0  0  0  0  0  0
  142.5270   74.9880  218.1020 C   0  0  0  0  0  0  0  0  0  0  0  0
  142.0460   76.4100  218.0870 C   0  0  1  0  0  0  0  0  0  0  0  0
  142.9000   77.3270  218.9670 C   0  0  0  0  0  0  0  0  0  0  0  0
  142.5640   78.7000  218.3760 C   0  0  0  0  0  0  0  0  0  0  0  0
  141.8620   78.4270  217.0660 C   0  0  0  0  0  0  0  0  0  0  0  0
  142.2340   77.0530  216.7880 N   0  0  0  0  0  0  0  0  0  0  0  0
  141.8960   75.0550  221.0520 N   0  0  0  0  0  0  0  0  0  0  0  0
  140.7850   75.2380  221.7810 C   0  0  0  0  0  0  0  0  0  0  0  0
  140.3500   76.5690  222.0190 N   0  0  0  0  0  0  0  0  0  0  0  0
  139.3100   77.1710  221.2210 C   0  0  0  0  0  0  0  0  0  0  0  0
  139.6180   78.5230  220.6870 C   0  0  0  0  0  0  0  0  0  0  0  0
  140.7360   79.2060  221.3730 C   0  0  0  0  0  0  0  0  0  0  0  0
  141.1510   80.4160  220.8460 C   0  0  0  0  0  0  0  0  0  0  0  0
  142.1870   81.1140  221.4280 C   0  0  0  0  0  0  0  0  0  0  0  0
  142.8060   80.5800  222.5520 C   0  0  0  0  0  0  0  0  0  0  0  0
  142.3850   79.3740  223.0700 C   0  0  0  0  0  0  0  0  0  0  0  0
  141.3440   78.6810  222.4790 C   0  0  0  0  0  0  0  0  0  0  0  0
  140.9310   77.3870  223.0780 C   0  0  0  0  0  0  0  0  0  0  0  0
  140.1590   74.1540  222.2330 N   0  0  0  0  0  0  0  0  0  0  0  0
  139.4320   69.8120  223.9110 C   0  0  0  0  0  0  0  0  0  0  0  0
  140.6112   67.5284  228.6341 H   0  0  0  0  0  0  0  0  0  0  0  0
  138.9805   66.4773  227.0813 H   0  0  0  0  0  0  0  0  0  0  0  0
  138.4776   67.5750  224.9160 H   0  0  0  0  0  0  0  0  0  0  0  0
  141.7108   69.6692  227.9917 H   0  0  0  0  0  0  0  0  0  0  0  0
  141.5870   71.6583  226.7149 H   0  0  0  0  0  0  0  0  0  0  0  0
  142.3892   70.9079  225.3223 H   0  0  0  0  0  0  0  0  0  0  0  0
  139.5318   72.0711  225.3507 H   0  0  0  0  0  0  0  0  0  0  0  0
  140.9364   72.8507  224.5975 H   0  0  0  0  0  0  0  0  0  0  0  0
  141.2776   70.6005  223.3559 H   0  0  0  0  0  0  0  0  0  0  0  0
  139.0360   71.4650  221.9730 H   0  0  0  0  0  0  0  0  0  0  0  0
  144.3040   73.0570  220.0420 H   0  0  0  0  0  0  0  0  0  0  0  0
  143.8550   75.8339  219.5407 H   0  0  0  0  0  0  0  0  0  0  0  0
  144.6103   74.6694  218.3815 H   0  0  0  0  0  0  0  0  0  0  0  0
  142.8031   74.6818  217.0822 H   0  0  0  0  0  0  0  0  0  0  0  0
  141.7274   74.3303  218.4737 H   0  0  0  0  0  0  0  0  0  0  0  0
  140.9970   76.3146  218.4039 H   0  0  0  0  0  0  0  0  0  0  0  0
  142.6055   77.2600  220.0247 H   0  0  0  0  0  0  0  0  0  0  0  0
  143.9729   77.0843  218.9658 H   0  0  0  0  0  0  0  0  0  0  0  0
  141.9026   79.2575  219.0555 H   0  0  0  0  0  0  0  0  0  0  0  0
  143.4684   79.3090  218.2301 H   0  0  0  0  0  0  0  0  0  0  0  0
  140.7718   78.5298  217.1707 H   0  0  0  0  0  0  0  0  0  0  0  0
  142.1427   79.1268  216.2651 H   0  0  0  0  0  0  0  0  0  0  0  0
  143.2860   77.0740  216.6270 H   0  0  0  0  0  0  0  0  0  0  0  0
  139.1097   76.5066  220.3675 H   0  0  0  0  0  0  0  0  0  0  0  0
  138.4486   77.2996  221.8929 H   0  0  0  0  0  0  0  0  0  0  0  0
  139.8763   78.4227  219.6225 H   0  0  0  0  0  0  0  0  0  0  0  0
  138.7221   79.1395  220.8522 H   0  0  0  0  0  0  0  0  0  0  0  0
  140.6502   80.8240  219.9556 H   0  0  0  0  0  0  0  0  0  0  0  0
  142.5180   82.0764  221.0105 H   0  0  0  0  0  0  0  0  0  0  0  0
  143.6352   81.1220  223.0302 H   0  0  0  0  0  0  0  0  0  0  0  0
  142.8807   78.9595  223.9602 H   0  0  0  0  0  0  0  0  0  0  0  0
  141.8063   76.8771  223.5067 H   0  0  0  0  0  0  0  0  0  0  0  0
  140.1976   77.5526  223.8809 H   0  0  0  0  0  0  0  0  0  0  0  0
  138.3748   70.1154  223.9283 H   0  0  0  0  0  0  0  0  0  0  0  0
  139.5839   69.0574  223.1252 H   0  0  0  0  0  0  0  0  0  0  0  0
  1  2  2  0
  2  3  1  0
  3  4  2  0
  4  5  1  0
  5  6  2  0
  5  7  1  0
  7  8  1  0
  8  9  1  0
  9 10  1  0
 10 11  1  0
 11 12  2  0
 12 13  1  0
 13 14  1  0
 14 15  1  0
 15 16  1  0
 16 17  1  0
 17 18  1  0
 18 19  1  0
 19 20  1  0
 20 21  1  0
 13 22  2  0
 22 23  1  0
 23 24  1  0
 24 25  1  0
 25 26  1  0
 26 27  1  0
 27 28  2  0
 28 29  1  0
 29 30  2  0
 30 31  1  0
 31 32  2  0
 32 33  1  0
 23 34  2  0
  9 35  1  0
  6  1  1  0
 34 11  1  0
 35  4  1  0
 21 17  1  0
 33 24  1  0
 32 27  1  0
  1 36  1  0
  2 37  1  0
  3 38  1  0
  6 39  1  0
  7 40  1  0
  7 41  1  0
  8 42  1  0
  8 43  1  0
  9 44  1  6
 10 45  1  0
 14 46  1  0
 15 47  1  0
 15 48  1  0
 16 49  1  0
 16 50  1  0
 17 51  1  1
 18 52  1  0
 18 53  1  0
 19 54  1  0
 19 55  1  0
 20 56  1  0
 20 57  1  0
 21 58  1  0
 25 59  1  0
 25 60  1  0
 26 61  1  0
 26 62  1  0
 28 63  1  0
 29 64  1  0
 30 65  1  0
 31 66  1  0
 33 67  1  0
 33 68  1  0
 35 69  1  0
 35 70  1  0
M  END
>  <smiles>  (120) 
c1ccc2c(c1)CCC(Nc1nc(NCCC3CCCN3)nc(N3CCc4ccccc4C3)n1)C2

>  <score_type>  (120) 
oracle

>  <origin>  (120) 
autodockgpu

>  <m_score__min__energy>  (120) 
-10.69

>  <m_primary>  (120) 
energy

>  <rmsd>  (120) 
11.985165448976543

>  <m_score__min__rmsd>  (120) 
11.985165448976543

>  <meeko>  (120) 
{"free_energy": -8.87, "intermolecular_energy": -10.96, "internal_energy": -1.99, "cluster_size": 21, "cluster_id": 2, "rank_in_cluster": 18}

>  <energy>  (120) 
-9.51

>  <cluster_rmsd>  (120) 
0.75

>  <cluster>  (120) 
2

$$$$

     RDKit          3D

 70 75  0  0  1  0  0  0  0  0999 V2000
  141.0600   68.1610  228.1860 C   0  0  0  0  0  0  0  0  0  0  0  0
  141.4320   69.4510  228.4680 C   0  0  0  0  0  0  0  0  0  0  0  0
  141.0760   70.4630  227.5870 C   0  0  0  0  0  0  0  0  0  0  0  0
  140.3550   70.2120  226.4270 C   0  0  0  0  0  0  0  0  0  0  0  0
  139.9880   68.9210  226.1530 C   0  0  0  0  0  0  0  0  0  0  0  0
  140.3370   67.8970  227.0260 C   0  0  0  0  0  0  0  0  0  0  0  0
  139.2090   68.5400  224.9320 C   0  0  0  0  0  0  0  0  0  0  0  0
  139.5460   69.5750  223.8710 C   0  0  0  0  0  0  0  0  0  0  0  0
  139.1270   70.9210  224.4370 C   0  0  2  0  0  0  0  0  0  0  0  0
  138.8970   71.8980  223.4280 N   0  0  0  0  0  0  0  0  0  0  0  0
  139.9120   72.5310  222.6620 C   0  0  0  0  0  0  0  0  0  0  0  0
  141.0270   71.8660  222.2500 N   0  0  0  0  0  0  0  0  0  0  0  0
  141.9780   72.4760  221.5290 C   0  0  0  0  0  0  0  0  0  0  0  0
  143.1560   71.8640  221.0510 N   0  0  0  0  0  0  0  0  0  0  0  0
  143.8670   72.5750  219.9840 C   0  0  0  0  0  0  0  0  0  0  0  0
  144.8900   71.6870  219.3310 C   0  0  0  0  0  0  0  0  0  0  0  0
  144.2350   70.3980  218.9280 C   0  0  1  0  0  0  0  0  0  0  0  0
  145.0620   69.6140  217.9050 C   0  0  0  0  0  0  0  0  0  0  0  0
  144.4900   68.2040  218.0800 C   0  0  0  0  0  0  0  0  0  0  0  0
  143.6810   68.2390  219.3550 C   0  0  0  0  0  0  0  0  0  0  0  0
  144.1890   69.4260  220.0190 N   0  0  0  0  0  0  0  0  0  0  0  0
  141.8000   73.7760  221.2240 N   0  0  0  0  0  0  0  0  0  0  0  0
  140.7210   74.4780  221.6040 C   0  0  0  0  0  0  0  0  0  0  0  0
  140.6380   75.8430  221.2190 N   0  0  0  0  0  0  0  0  0  0  0  0
  141.4210   76.3610  220.1250 C   0  0  0  0  0  0  0  0  0  0  0  0
  142.1670   77.6150  220.4110 C   0  0  0  0  0  0  0  0  0  0  0  0
  141.6830   78.3500  221.6000 C   0  0  0  0  0  0  0  0  0  0  0  0
  142.4110   79.4600  221.9910 C   0  0  0  0  0  0  0  0  0  0  0  0
  142.0270   80.1970  223.0890 C   0  0  0  0  0  0  0  0  0  0  0  0
  140.8950   79.8060  223.7970 C   0  0  0  0  0  0  0  0  0  0  0  0
  140.1770   78.6980  223.3990 C   0  0  0  0  0  0  0  0  0  0  0  0
  140.5710   77.9650  222.2940 C   0  0  0  0  0  0  0  0  0  0  0  0
  139.7600   76.7810  221.9110 C   0  0  0  0  0  0  0  0  0  0  0  0
  139.7940   73.8450  222.3190 N   0  0  0  0  0  0  0  0  0  0  0  0
  140.0290   71.3720  225.5560 C   0  0  0  0  0  0  0  0  0  0  0  0
  141.3304   67.3430  228.8700 H   0  0  0  0  0  0  0  0  0  0  0  0
  142.0042   69.6801  229.3791 H   0  0  0  0  0  0  0  0  0  0  0  0
  141.3746   71.4968  227.8151 H   0  0  0  0  0  0  0  0  0  0  0  0
  140.0377   66.8636  226.7970 H   0  0  0  0  0  0  0  0  0  0  0  0
  139.5018   67.5359  224.5913 H   0  0  0  0  0  0  0  0  0  0  0  0
  138.1288   68.5159  225.1383 H   0  0  0  0  0  0  0  0  0  0  0  0
  140.6262   69.5692  223.6633 H   0  0  0  0  0  0  0  0  0  0  0  0
  139.0265   69.3607  222.9254 H   0  0  0  0  0  0  0  0  0  0  0  0
  138.1413   70.7830  224.9053 H   0  0  0  0  0  0  0  0  0  0  0  0
  137.8970   72.1730  223.2350 H   0  0  0  0  0  0  0  0  0  0  0  0
  143.5400   70.9540  221.4050 H   0  0  0  0  0  0  0  0  0  0  0  0
  143.1411   72.9046  219.2261 H   0  0  0  0  0  0  0  0  0  0  0  0
  144.3848   73.4396  220.4247 H   0  0  0  0  0  0  0  0  0  0  0  0
  145.2975   72.1875  218.4402 H   0  0  0  0  0  0  0  0  0  0  0  0
  145.7082   71.4823  220.0372 H   0  0  0  0  0  0  0  0  0  0  0  0
  143.2503   70.7295  218.5667 H   0  0  0  0  0  0  0  0  0  0  0  0
  144.9022   69.9902  216.8837 H   0  0  0  0  0  0  0  0  0  0  0  0
  146.1496   69.6824  218.0551 H   0  0  0  0  0  0  0  0  0  0  0  0
  143.8471   67.9435  217.2263 H   0  0  0  0  0  0  0  0  0  0  0  0
  145.2879   67.4485  218.1294 H   0  0  0  0  0  0  0  0  0  0  0  0
  142.6061   68.3329  219.1410 H   0  0  0  0  0  0  0  0  0  0  0  0
  143.7762   67.3247  219.9592 H   0  0  0  0  0  0  0  0  0  0  0  0
  145.2040   69.2050  220.2500 H   0  0  0  0  0  0  0  0  0  0  0  0
  142.1509   75.5906  219.8357 H   0  0  0  0  0  0  0  0  0  0  0  0
  140.7026   76.6108  219.3303 H   0  0  0  0  0  0  0  0  0  0  0  0
  143.2247   77.3585  220.5708 H   0  0  0  0  0  0  0  0  0  0  0  0
  142.0154   78.2776  219.5461 H   0  0  0  0  0  0  0  0  0  0  0  0
  143.3035   79.7560  221.4202 H   0  0  0  0  0  0  0  0  0  0  0  0
  142.6051   81.0794  223.4008 H   0  0  0  0  0  0  0  0  0  0  0  0
  140.5719   80.3822  224.6765 H   0  0  0  0  0  0  0  0  0  0  0  0
  139.2838   78.3946  223.9648 H   0  0  0  0  0  0  0  0  0  0  0  0
  139.3415   76.3072  222.8112 H   0  0  0  0  0  0  0  0  0  0  0  0
  138.9274   77.0810  221.2577 H   0  0  0  0  0  0  0  0  0  0  0  0
  140.9568   71.7866  225.1348 H   0  0  0  0  0  0  0  0  0  0  0  0
  139.5189   72.1448  226.1497 H   0  0  0  0  0  0  0  0  0  0  0  0
  1  2  2  0
  2  3  1  0
  3  4  2  0
  4  5  1  0
  5  6  2  0
  5  7  1  0
  7  8  1  0
  8  9  1  0
  9 10  1  0
 10 11  1  0
 11 12  2  0
 12 13  1  0
 13 14  1  0
 14 15  1  0
 15 16  1  0
 16 17  1  0
 17 18  1  0
 18 19  1  0
 19 20  1  0
 20 21  1  0
 13 22  2  0
 22 23  1  0
 23 24  1  0
 24 25  1  0
 25 26  1  0
 26 27  1  0
 27 28  2  0
 28 29  1  0
 29 30  2  0
 30 31  1  0
 31 32  2  0
 32 33  1  0
 23 34  2  0
  9 35  1  0
  6  1  1  0
 34 11  1  0
 35  4  1  0
 21 17  1  0
 33 24  1  0
 32 27  1  0
  1 36  1  0
  2 37  1  0
  3 38  1  0
  6 39  1  0
  7 40  1  0
  7 41  1  0
  8 42  1  0
  8 43  1  0
  9 44  1  1
 10 45  1  0
 14 46  1  0
 15 47  1  0
 15 48  1  0
 16 49  1  0
 16 50  1  0
 17 51  1  6
 18 52  1  0
 18 53  1  0
 19 54  1  0
 19 55  1  0
 20 56  1  0
 20 57  1  0
 21 58  1  0
 25 59  1  0
 25 60  1  0
 26 61  1  0
 26 62  1  0
 28 63  1  0
 29 64  1  0
 30 65  1  0
 31 66  1  0
 33 67  1  0
 33 68  1  0
 35 69  1  0
 35 70  1  0
M  END
>  <smiles>  (121) 
c1ccc2c(c1)CCC(Nc1nc(NCCC3CCCN3)nc(N3CCc4ccccc4C3)n1)C2

>  <score_type>  (121) 
oracle

>  <origin>  (121) 
autodockgpu

>  <m_score__min__energy>  (121) 
-10.69

>  <m_primary>  (121) 
energy

>  <rmsd>  (121) 
12.259600564524503

>  <m_score__min__rmsd>  (121) 
12.259600564524503

>  <meeko>  (121) 
{"free_energy": -9.57, "intermolecular_energy": -11.66, "internal_energy": -1.66, "cluster_size": 21, "cluster_id": 2, "rank_in_cluster": 10}

>  <energy>  (121) 
-9.44

>  <cluster_rmsd>  (121) 
1.2

>  <cluster>  (121) 
2

$$$$

     RDKit          3D

 70 75  0  0  1  0  0  0  0  0999 V2000
  141.0820   68.1510  228.2800 C   0  0  0  0  0  0  0  0  0  0  0  0
  141.4270   69.4560  228.5240 C   0  0  0  0  0  0  0  0  0  0  0  0
  141.0450   70.4360  227.6160 C   0  0  0  0  0  0  0  0  0  0  0  0
  140.3250   70.1370  226.4680 C   0  0  0  0  0  0  0  0  0  0  0  0
  139.9840   68.8310  226.2320 C   0  0  0  0  0  0  0  0  0  0  0  0
  140.3590   67.8390  227.1310 C   0  0  0  0  0  0  0  0  0  0  0  0
  139.2080   68.4000  225.0260 C   0  0  0  0  0  0  0  0  0  0  0  0
  139.5160   69.4120  223.9350 C   0  0  0  0  0  0  0  0  0  0  0  0
  139.0720   70.7640  224.4660 C   0  0  2  0  0  0  0  0  0  0  0  0
  138.8160   71.7070  223.4310 N   0  0  0  0  0  0  0  0  0  0  0  0
  139.7830   72.1780  222.5030 C   0  0  0  0  0  0  0  0  0  0  0  0
  140.1860   73.4780  222.4770 N   0  0  0  0  0  0  0  0  0  0  0  0
  141.0980   73.9100  221.5950 C   0  0  0  0  0  0  0  0  0  0  0  0
  141.5810   75.2320  221.5040 N   0  0  0  0  0  0  0  0  0  0  0  0
  140.5680   76.2930  221.5080 C   0  0  0  0  0  0  0  0  0  0  0  0
  139.4890   76.0150  220.4990 C   0  0  0  0  0  0  0  0  0  0  0  0
  138.1650   75.9440  221.2040 C   0  0  1  0  0  0  0  0  0  0  0  0
  137.4860   74.5810  221.0420 C   0  0  0  0  0  0  0  0  0  0  0  0
  136.5110   74.5940  222.2230 C   0  0  0  0  0  0  0  0  0  0  0  0
  136.9410   75.7430  223.1040 C   0  0  0  0  0  0  0  0  0  0  0  0
  138.3000   75.9910  222.6590 N   0  0  0  0  0  0  0  0  0  0  0  0
  141.6070   73.0130  220.7260 N   0  0  0  0  0  0  0  0  0  0  0  0
  141.2450   71.7220  220.7090 C   0  0  0  0  0  0  0  0  0  0  0  0
  141.8530   70.8670  219.7510 N   0  0  0  0  0  0  0  0  0  0  0  0
  141.2800   69.5850  219.4210 C   0  0  0  0  0  0  0  0  0  0  0  0
  142.2270   68.4400  219.4380 C   0  0  0  0  0  0  0  0  0  0  0  0
  143.6520   68.8300  219.3830 C   0  0  0  0  0  0  0  0  0  0  0  0
  144.5870   67.8180  219.5180 C   0  0  0  0  0  0  0  0  0  0  0  0
  145.9340   68.1010  219.4780 C   0  0  0  0  0  0  0  0  0  0  0  0
  146.3380   69.4200  219.3010 C   0  0  0  0  0  0  0  0  0  0  0  0
  145.3990   70.4210  219.1680 C   0  0  0  0  0  0  0  0  0  0  0  0
  144.0480   70.1270  219.2080 C   0  0  0  0  0  0  0  0  0  0  0  0
  143.0810   71.2440  219.0590 C   0  0  0  0  0  0  0  0  0  0  0  0
  140.3380   71.3240  221.5980 N   0  0  0  0  0  0  0  0  0  0  0  0
  139.9700   71.2650  225.5670 C   0  0  0  0  0  0  0  0  0  0  0  0
  141.3735   67.3585  228.9849 H   0  0  0  0  0  0  0  0  0  0  0  0
  141.9979   69.7229  229.4256 H   0  0  0  0  0  0  0  0  0  0  0  0
  141.3221   71.4820  227.8135 H   0  0  0  0  0  0  0  0  0  0  0  0
  140.0809   66.7934  226.9322 H   0  0  0  0  0  0  0  0  0  0  0  0
  139.5215   67.3937  224.7113 H   0  0  0  0  0  0  0  0  0  0  0  0
  138.1296   68.3583  225.2390 H   0  0  0  0  0  0  0  0  0  0  0  0
  140.5948   69.4233  223.7202 H   0  0  0  0  0  0  0  0  0  0  0  0
  138.9951   69.1605  222.9994 H   0  0  0  0  0  0  0  0  0  0  0  0
  138.0922   70.6189  224.9444 H   0  0  0  0  0  0  0  0  0  0  0  0
  137.8340   72.0850  223.3490 H   0  0  0  0  0  0  0  0  0  0  0  0
  142.5950   75.4920  221.4340 H   0  0  0  0  0  0  0  0  0  0  0  0
  140.1164   76.3547  222.5091 H   0  0  0  0  0  0  0  0  0  0  0  0
  141.0561   77.2430  221.2447 H   0  0  0  0  0  0  0  0  0  0  0  0
  139.4660   76.8222  219.7521 H   0  0  0  0  0  0  0  0  0  0  0  0
  139.6916   75.0596  219.9928 H   0  0  0  0  0  0  0  0  0  0  0  0
  137.6122   76.7884  220.7665 H   0  0  0  0  0  0  0  0  0  0  0  0
  136.9551   74.5064  220.0815 H   0  0  0  0  0  0  0  0  0  0  0  0
  138.1802   73.7277  221.0382 H   0  0  0  0  0  0  0  0  0  0  0  0
  135.4817   74.7492  221.8674 H   0  0  0  0  0  0  0  0  0  0  0  0
  136.5264   73.6393  222.7692 H   0  0  0  0  0  0  0  0  0  0  0  0
  136.3038   76.6254  222.9451 H   0  0  0  0  0  0  0  0  0  0  0  0
  136.8658   75.5223  224.1790 H   0  0  0  0  0  0  0  0  0  0  0  0
  138.8470   75.1180  222.9260 H   0  0  0  0  0  0  0  0  0  0  0  0
  140.4798   69.3743  220.1458 H   0  0  0  0  0  0  0  0  0  0  0  0
  140.9255   69.6697  218.3831 H   0  0  0  0  0  0  0  0  0  0  0  0
  142.0613   67.8692  220.3636 H   0  0  0  0  0  0  0  0  0  0  0  0
  142.0259   67.8505  218.5313 H   0  0  0  0  0  0  0  0  0  0  0  0
  144.2513   66.7799  219.6583 H   0  0  0  0  0  0  0  0  0  0  0  0
  146.6778   67.2976  219.5842 H   0  0  0  0  0  0  0  0  0  0  0  0
  147.4097   69.6654  219.2670 H   0  0  0  0  0  0  0  0  0  0  0  0
  145.7270   71.4617  219.0290 H   0  0  0  0  0  0  0  0  0  0  0  0
  143.4958   72.1599  219.5053 H   0  0  0  0  0  0  0  0  0  0  0  0
  142.8784   71.4372  217.9952 H   0  0  0  0  0  0  0  0  0  0  0  0
  140.8866   71.6872  225.1292 H   0  0  0  0  0  0  0  0  0  0  0  0
  139.4466   72.0431  226.1419 H   0  0  0  0  0  0  0  0  0  0  0  0
  1  2  2  0
  2  3  1  0
  3  4  2  0
  4  5  1  0
  5  6  2  0
  5  7  1  0
  7  8  1  0
  8  9  1  0
  9 10  1  0
 10 11  1  0
 11 12  2  0
 12 13  1  0
 13 14  1  0
 14 15  1  0
 15 16  1  0
 16 17  1  0
 17 18  1  0
 18 19  1  0
 19 20  1  0
 20 21  1  0
 13 22  2  0
 22 23  1  0
 23 24  1  0
 24 25  1  0
 25 26  1  0
 26 27  1  0
 27 28  2  0
 28 29  1  0
 29 30  2  0
 30 31  1  0
 31 32  2  0
 32 33  1  0
 23 34  2  0
  9 35  1  0
  6  1  1  0
 34 11  1  0
 35  4  1  0
 21 17  1  0
 33 24  1  0
 32 27  1  0
  1 36  1  0
  2 37  1  0
  3 38  1  0
  6 39  1  0
  7 40  1  0
  7 41  1  0
  8 42  1  0
  8 43  1  0
  9 44  1  1
 10 45  1  0
 14 46  1  0
 15 47  1  0
 15 48  1  0
 16 49  1  0
 16 50  1  0
 17 51  1  6
 18 52  1  0
 18 53  1  0
 19 54  1  0
 19 55  1  0
 20 56  1  0
 20 57  1  0
 21 58  1  0
 25 59  1  0
 25 60  1  0
 26 61  1  0
 26 62  1  0
 28 63  1  0
 29 64  1  0
 30 65  1  0
 31 66  1  0
 33 67  1  0
 33 68  1  0
 35 69  1  0
 35 70  1  0
M  END
>  <smiles>  (122) 
c1ccc2c(c1)CCC(Nc1nc(NCCC3CCCN3)nc(N3CCc4ccccc4C3)n1)C2

>  <score_type>  (122) 
oracle

>  <origin>  (122) 
autodockgpu

>  <m_score__min__energy>  (122) 
-10.69

>  <m_primary>  (122) 
energy

>  <rmsd>  (122) 
12.358761107612786

>  <m_score__min__rmsd>  (122) 
12.358761107612786

>  <meeko>  (122) 
{"free_energy": -9.15, "intermolecular_energy": -11.24, "internal_energy": -2.28, "cluster_size": 9, "cluster_id": 1, "rank_in_cluster": 9}

>  <energy>  (122) 
-9.29

>  <cluster_rmsd>  (122) 
0.82

>  <cluster>  (122) 
2

$$$$

     RDKit          3D

 70 75  0  0  1  0  0  0  0  0999 V2000
  140.7080   67.7840  227.3020 C   0  0  0  0  0  0  0  0  0  0  0  0
  141.1230   69.0130  227.7500 C   0  0  0  0  0  0  0  0  0  0  0  0
  140.7980   70.1440  227.0130 C   0  0  0  0  0  0  0  0  0  0  0  0
  140.0660   70.0730  225.8350 C   0  0  0  0  0  0  0  0  0  0  0  0
  139.6560   68.8420  225.3960 C   0  0  0  0  0  0  0  0  0  0  0  0
  139.9730   67.7000  226.1220 C   0  0  0  0  0  0  0  0  0  0  0  0
  138.8610   68.6530  224.1410 C   0  0  0  0  0  0  0  0  0  0  0  0
  139.2280   69.8080  223.2240 C   0  0  0  0  0  0  0  0  0  0  0  0
  138.8560   71.0790  223.9670 C   0  0  2  0  0  0  0  0  0  0  0  0
  138.6550   72.1880  223.0980 N   0  0  0  0  0  0  0  0  0  0  0  0
  139.6430   72.7340  222.2350 C   0  0  0  0  0  0  0  0  0  0  0  0
  140.0060   74.0460  222.2910 N   0  0  0  0  0  0  0  0  0  0  0  0
  140.9380   74.5480  221.4690 C   0  0  0  0  0  0  0  0  0  0  0  0
  141.3840   75.8870  221.4650 N   0  0  0  0  0  0  0  0  0  0  0  0
  140.6550   76.8080  220.5860 C   0  0  0  0  0  0  0  0  0  0  0  0
  139.7970   77.7510  221.3830 C   0  0  0  0  0  0  0  0  0  0  0  0
  140.6600   78.8400  221.9500 C   0  0  1  0  0  0  0  0  0  0  0  0
  140.4380   79.0430  223.4510 C   0  0  0  0  0  0  0  0  0  0  0  0
  141.7330   79.7580  223.8480 C   0  0  0  0  0  0  0  0  0  0  0  0
  142.6720   79.5970  222.6760 C   0  0  0  0  0  0  0  0  0  0  0  0
  142.0800   78.4910  221.9460 N   0  0  0  0  0  0  0  0  0  0  0  0
  141.5090   73.7130  220.5790 N   0  0  0  0  0  0  0  0  0  0  0  0
  141.1890   72.4140  220.4820 C   0  0  0  0  0  0  0  0  0  0  0  0
  141.8600   71.6270  219.5080 N   0  0  0  0  0  0  0  0  0  0  0  0
  141.2950   70.3930  219.0230 C   0  0  0  0  0  0  0  0  0  0  0  0
  142.2170   69.2260  219.0200 C   0  0  0  0  0  0  0  0  0  0  0  0
  143.6480   69.5840  219.1170 C   0  0  0  0  0  0  0  0  0  0  0  0
  144.5490   68.5420  219.2420 C   0  0  0  0  0  0  0  0  0  0  0  0
  145.9000   68.7930  219.3380 C   0  0  0  0  0  0  0  0  0  0  0  0
  146.3410   70.1110  219.3090 C   0  0  0  0  0  0  0  0  0  0  0  0
  145.4350   71.1430  219.1850 C   0  0  0  0  0  0  0  0  0  0  0  0
  144.0800   70.8810  219.0870 C   0  0  0  0  0  0  0  0  0  0  0  0
  143.1490   72.0300  218.9550 C   0  0  0  0  0  0  0  0  0  0  0  0
  140.2600   71.9440  221.3110 N   0  0  0  0  0  0  0  0  0  0  0  0
  139.7760   71.3480  225.1290 C   0  0  0  0  0  0  0  0  0  0  0  0
  140.9535   66.8741  227.8694 H   0  0  0  0  0  0  0  0  0  0  0  0
  141.7047   69.1008  228.6795 H   0  0  0  0  0  0  0  0  0  0  0  0
  141.1312   71.1282  227.3740 H   0  0  0  0  0  0  0  0  0  0  0  0
  139.6389   66.7166  225.7597 H   0  0  0  0  0  0  0  0  0  0  0  0
  139.1192   67.6942  223.6676 H   0  0  0  0  0  0  0  0  0  0  0  0
  137.7813   68.6373  224.3509 H   0  0  0  0  0  0  0  0  0  0  0  0
  140.3066   69.7950  223.0085 H   0  0  0  0  0  0  0  0  0  0  0  0
  138.6982   69.7381  222.2625 H   0  0  0  0  0  0  0  0  0  0  0  0
  137.8682   70.9120  224.4211 H   0  0  0  0  0  0  0  0  0  0  0  0
  137.7010   72.6390  223.0950 H   0  0  0  0  0  0  0  0  0  0  0  0
  142.1840   76.2510  222.0370 H   0  0  0  0  0  0  0  0  0  0  0  0
  141.3784   77.3910  219.9971 H   0  0  0  0  0  0  0  0  0  0  0  0
  140.0041   76.2179  219.9240 H   0  0  0  0  0  0  0  0  0  0  0  0
  139.0293   78.1918  220.7300 H   0  0  0  0  0  0  0  0  0  0  0  0
  139.3059   77.2036  222.2010 H   0  0  0  0  0  0  0  0  0  0  0  0
  140.3985   79.7065  221.3249 H   0  0  0  0  0  0  0  0  0  0  0  0
  139.5552   79.6692  223.6471 H   0  0  0  0  0  0  0  0  0  0  0  0
  140.2449   78.1148  224.0089 H   0  0  0  0  0  0  0  0  0  0  0  0
  141.5385   80.8238  224.0386 H   0  0  0  0  0  0  0  0  0  0  0  0
  142.1611   79.3355  224.7690 H   0  0  0  0  0  0  0  0  0  0  0  0
  142.7000   80.5088  222.0614 H   0  0  0  0  0  0  0  0  0  0  0  0
  143.7157   79.4166  222.9730 H   0  0  0  0  0  0  0  0  0  0  0  0
  142.1710   77.6490  222.5900 H   0  0  0  0  0  0  0  0  0  0  0  0
  140.4325   70.1422  219.6579 H   0  0  0  0  0  0  0  0  0  0  0  0
  141.0319   70.5736  217.9703 H   0  0  0  0  0  0  0  0  0  0  0  0
  141.9633   68.5837  219.8762 H   0  0  0  0  0  0  0  0  0  0  0  0
  142.0827   68.7196  218.0528 H   0  0  0  0  0  0  0  0  0  0  0  0
  144.1838   67.5047  219.2649 H   0  0  0  0  0  0  0  0  0  0  0  0
  146.6174   67.9649  219.4359 H   0  0  0  0  0  0  0  0  0  0  0  0
  147.4160   70.3313  219.3852 H   0  0  0  0  0  0  0  0  0  0  0  0
  145.7924   72.1831  219.1638 H   0  0  0  0  0  0  0  0  0  0  0  0
  143.5407   72.8945  219.5111 H   0  0  0  0  0  0  0  0  0  0  0  0
  143.0406   72.3167  217.8986 H   0  0  0  0  0  0  0  0  0  0  0  0
  140.7156   71.7848  224.7596 H   0  0  0  0  0  0  0  0  0  0  0  0
  139.2938   72.0512  225.8240 H   0  0  0  0  0  0  0  0  0  0  0  0
  1  2  2  0
  2  3  1  0
  3  4  2  0
  4  5  1  0
  5  6  2  0
  5  7  1  0
  7  8  1  0
  8  9  1  0
  9 10  1  0
 10 11  1  0
 11 12  2  0
 12 13  1  0
 13 14  1  0
 14 15  1  0
 15 16  1  0
 16 17  1  0
 17 18  1  0
 18 19  1  0
 19 20  1  0
 20 21  1  0
 13 22  2  0
 22 23  1  0
 23 24  1  0
 24 25  1  0
 25 26  1  0
 26 27  1  0
 27 28  2  0
 28 29  1  0
 29 30  2  0
 30 31  1  0
 31 32  2  0
 32 33  1  0
 23 34  2  0
  9 35  1  0
  6  1  1  0
 34 11  1  0
 35  4  1  0
 21 17  1  0
 33 24  1  0
 32 27  1  0
  1 36  1  0
  2 37  1  0
  3 38  1  0
  6 39  1  0
  7 40  1  0
  7 41  1  0
  8 42  1  0
  8 43  1  0
  9 44  1  1
 10 45  1  0
 14 46  1  0
 15 47  1  0
 15 48  1  0
 16 49  1  0
 16 50  1  0
 17 51  1  6
 18 52  1  0
 18 53  1  0
 19 54  1  0
 19 55  1  0
 20 56  1  0
 20 57  1  0
 21 58  1  0
 25 59  1  0
 25 60  1  0
 26 61  1  0
 26 62  1  0
 28 63  1  0
 29 64  1  0
 30 65  1  0
 31 66  1  0
 33 67  1  0
 33 68  1  0
 35 69  1  0
 35 70  1  0
M  END
>  <smiles>  (123) 
c1ccc2c(c1)CCC(Nc1nc(NCCC3CCCN3)nc(N3CCc4ccccc4C3)n1)C2

>  <score_type>  (123) 
oracle

>  <origin>  (123) 
autodockgpu

>  <m_score__min__energy>  (123) 
-10.69

>  <m_primary>  (123) 
energy

>  <rmsd>  (123) 
12.139438505997298

>  <m_score__min__rmsd>  (123) 
12.139438505997298

>  <meeko>  (123) 
{"free_energy": -9.95, "intermolecular_energy": -12.03, "internal_energy": -1.57, "cluster_size": 4, "cluster_id": 4, "rank_in_cluster": 2}

>  <energy>  (123) 
-9.26

>  <cluster_rmsd>  (123) 
1.77

>  <cluster>  (123) 
2

$$$$

     RDKit          3D

 70 75  0  0  1  0  0  0  0  0999 V2000
  140.3490   69.5570  228.0070 C   0  0  0  0  0  0  0  0  0  0  0  0
  141.0670   70.7250  227.9480 C   0  0  0  0  0  0  0  0  0  0  0  0
  141.0760   71.4510  226.7640 C   0  0  0  0  0  0  0  0  0  0  0  0
  140.3810   71.0340  225.6370 C   0  0  0  0  0  0  0  0  0  0  0  0
  139.6660   69.8670  225.7050 C   0  0  0  0  0  0  0  0  0  0  0  0
  139.6480   69.1280  226.8830 C   0  0  0  0  0  0  0  0  0  0  0  0
  138.8810   69.3280  224.5500 C   0  0  0  0  0  0  0  0  0  0  0  0
  139.5670   69.8360  223.2930 C   0  0  0  0  0  0  0  0  0  0  0  0
  139.5320   71.3530  223.3690 C   0  0  2  0  0  0  0  0  0  0  0  0
  139.6570   71.9730  222.0940 N   0  0  0  0  0  0  0  0  0  0  0  0
  140.0450   73.3220  221.8810 C   0  0  0  0  0  0  0  0  0  0  0  0
  139.3200   74.3680  222.3660 N   0  0  0  0  0  0  0  0  0  0  0  0
  139.6970   75.6370  222.1560 C   0  0  0  0  0  0  0  0  0  0  0  0
  139.0150   76.7780  222.6310 N   0  0  0  0  0  0  0  0  0  0  0  0
  139.3360   78.0460  221.9660 C   0  0  0  0  0  0  0  0  0  0  0  0
  139.2840   79.1930  222.9370 C   0  0  0  0  0  0  0  0  0  0  0  0
  140.6700   79.4740  223.4400 C   0  0  1  0  0  0  0  0  0  0  0  0
  141.7540   78.9760  222.4810 C   0  0  0  0  0  0  0  0  0  0  0  0
  142.9530   79.8200  222.9260 C   0  0  0  0  0  0  0  0  0  0  0  0
  142.3900   80.9070  223.8110 C   0  0  0  0  0  0  0  0  0  0  0  0
  140.9820   80.9020  223.4600 N   0  0  0  0  0  0  0  0  0  0  0  0
  140.8210   75.8500  221.4430 N   0  0  0  0  0  0  0  0  0  0  0  0
  141.5710   74.8580  220.9430 C   0  0  0  0  0  0  0  0  0  0  0  0
  142.7390   75.2020  220.2110 N   0  0  0  0  0  0  0  0  0  0  0  0
  142.7760   76.3700  219.3660 C   0  0  0  0  0  0  0  0  0  0  0  0
  143.2990   76.1470  217.9920 C   0  0  0  0  0  0  0  0  0  0  0  0
  144.0690   74.8960  217.8320 C   0  0  0  0  0  0  0  0  0  0  0  0
  144.4800   74.5700  216.5520 C   0  0  0  0  0  0  0  0  0  0  0  0
  145.2010   73.4190  216.3200 C   0  0  0  0  0  0  0  0  0  0  0  0
  145.5080   72.5920  217.3950 C   0  0  0  0  0  0  0  0  0  0  0  0
  145.0950   72.9260  218.6670 C   0  0  0  0  0  0  0  0  0  0  0  0
  144.3720   74.0840  218.8900 C   0  0  0  0  0  0  0  0  0  0  0  0
  143.9520   74.3940  220.2800 C   0  0  0  0  0  0  0  0  0  0  0  0
  141.1720   73.6080  221.1680 N   0  0  0  0  0  0  0  0  0  0  0  0
  140.4610   71.8910  224.4250 C   0  0  0  0  0  0  0  0  0  0  0  0
  140.3275   68.9650  228.9339 H   0  0  0  0  0  0  0  0  0  0  0  0
  141.6270   71.0809  228.8253 H   0  0  0  0  0  0  0  0  0  0  0  0
  141.6525   72.3867  226.7178 H   0  0  0  0  0  0  0  0  0  0  0  0
  139.0721   68.1918  226.9274 H   0  0  0  0  0  0  0  0  0  0  0  0
  138.8843   68.2281  224.5676 H   0  0  0  0  0  0  0  0  0  0  0  0
  137.8317   69.6554  224.5926 H   0  0  0  0  0  0  0  0  0  0  0  0
  140.6074   69.4807  223.2573 H   0  0  0  0  0  0  0  0  0  0  0  0
  139.0616   69.4702  222.3871 H   0  0  0  0  0  0  0  0  0  0  0  0
  138.5248   71.6375  223.7075 H   0  0  0  0  0  0  0  0  0  0  0  0
  139.4450   71.3850  221.2430 H   0  0  0  0  0  0  0  0  0  0  0  0
  138.3130   76.7710  223.4100 H   0  0  0  0  0  0  0  0  0  0  0  0
  140.3477   77.9820  221.5390 H   0  0  0  0  0  0  0  0  0  0  0  0
  138.5935   78.2238  221.1741 H   0  0  0  0  0  0  0  0  0  0  0  0
  138.8876   80.0859  222.4314 H   0  0  0  0  0  0  0  0  0  0  0  0
  138.6287   78.9340  223.7817 H   0  0  0  0  0  0  0  0  0  0  0  0
  140.6718   78.9902  224.4279 H   0  0  0  0  0  0  0  0  0  0  0  0
  141.9463   77.9010  222.6127 H   0  0  0  0  0  0  0  0  0  0  0  0
  141.4982   79.0799  221.4162 H   0  0  0  0  0  0  0  0  0  0  0  0
  143.6684   79.2016  223.4879 H   0  0  0  0  0  0  0  0  0  0  0  0
  143.4924   80.2403  222.0644 H   0  0  0  0  0  0  0  0  0  0  0  0
  142.5351   80.6680  224.8749 H   0  0  0  0  0  0  0  0  0  0  0  0
  142.8740   81.8841  223.6662 H   0  0  0  0  0  0  0  0  0  0  0  0
  140.9440   81.2190  222.4440 H   0  0  0  0  0  0  0  0  0  0  0  0
  141.7507   76.7591  219.2798 H   0  0  0  0  0  0  0  0  0  0  0  0
  143.4755   77.0697  219.8467 H   0  0  0  0  0  0  0  0  0  0  0  0
  142.4455   76.1177  217.2987 H   0  0  0  0  0  0  0  0  0  0  0  0
  143.9925   76.9741  217.7800 H   0  0  0  0  0  0  0  0  0  0  0  0
  144.2292   75.2351  215.7125 H   0  0  0  0  0  0  0  0  0  0  0  0
  145.5280   73.1589  215.3025 H   0  0  0  0  0  0  0  0  0  0  0  0
  146.0822   71.6684  217.2298 H   0  0  0  0  0  0  0  0  0  0  0  0
  145.3424   72.2662  219.5117 H   0  0  0  0  0  0  0  0  0  0  0  0
  143.7493   73.4610  220.8263 H   0  0  0  0  0  0  0  0  0  0  0  0
  144.7473   74.9402  220.8084 H   0  0  0  0  0  0  0  0  0  0  0  0
  141.4921   71.8893  224.0419 H   0  0  0  0  0  0  0  0  0  0  0  0
  140.1678   72.9194  224.6825 H   0  0  0  0  0  0  0  0  0  0  0  0
  1  2  2  0
  2  3  1  0
  3  4  2  0
  4  5  1  0
  5  6  2  0
  5  7  1  0
  7  8  1  0
  8  9  1  0
  9 10  1  0
 10 11  1  0
 11 12  2  0
 12 13  1  0
 13 14  1  0
 14 15  1  0
 15 16  1  0
 16 17  1  0
 17 18  1  0
 18 19  1  0
 19 20  1  0
 20 21  1  0
 13 22  2  0
 22 23  1  0
 23 24  1  0
 24 25  1  0
 25 26  1  0
 26 27  1  0
 27 28  2  0
 28 29  1  0
 29 30  2  0
 30 31  1  0
 31 32  2  0
 32 33  1  0
 23 34  2  0
  9 35  1  0
  6  1  1  0
 34 11  1  0
 35  4  1  0
 21 17  1  0
 33 24  1  0
 32 27  1  0
  1 36  1  0
  2 37  1  0
  3 38  1  0
  6 39  1  0
  7 40  1  0
  7 41  1  0
  8 42  1  0
  8 43  1  0
  9 44  1  1
 10 45  1  0
 14 46  1  0
 15 47  1  0
 15 48  1  0
 16 49  1  0
 16 50  1  0
 17 51  1  1
 18 52  1  0
 18 53  1  0
 19 54  1  0
 19 55  1  0
 20 56  1  0
 20 57  1  0
 21 58  1  0
 25 59  1  0
 25 60  1  0
 26 61  1  0
 26 62  1  0
 28 63  1  0
 29 64  1  0
 30 65  1  0
 31 66  1  0
 33 67  1  0
 33 68  1  0
 35 69  1  0
 35 70  1  0
M  END
>  <smiles>  (124) 
c1ccc2c(c1)CCC(Nc1nc(NCCC3CCCN3)nc(N3CCc4ccccc4C3)n1)C2

>  <score_type>  (124) 
oracle

>  <origin>  (124) 
autodockgpu

>  <m_score__min__energy>  (124) 
-10.69

>  <m_primary>  (124) 
energy

>  <rmsd>  (124) 
11.391016419366602

>  <m_score__min__rmsd>  (124) 
11.391016419366602

>  <meeko>  (124) 
{"free_energy": -9.6, "intermolecular_energy": -11.69, "internal_energy": -1.21, "cluster_size": 3, "cluster_id": 6, "rank_in_cluster": 1}

>  <energy>  (124) 
-9.08

>  <cluster_rmsd>  (124) 
0.83

>  <cluster>  (124) 
2

$$$$

     RDKit          3D

 70 75  0  0  1  0  0  0  0  0999 V2000
  140.1790   70.0900  228.1680 C   0  0  0  0  0  0  0  0  0  0  0  0
  141.0420   71.1410  227.9910 C   0  0  0  0  0  0  0  0  0  0  0  0
  141.1750   71.6980  226.7260 C   0  0  0  0  0  0  0  0  0  0  0  0
  140.4620   71.2240  225.6330 C   0  0  0  0  0  0  0  0  0  0  0  0
  139.6020   70.1740  225.8190 C   0  0  0  0  0  0  0  0  0  0  0  0
  139.4580   69.6060  227.0790 C   0  0  0  0  0  0  0  0  0  0  0  0
  138.7850   69.5880  224.7090 C   0  0  0  0  0  0  0  0  0  0  0  0
  139.5630   69.8370  223.4280 C   0  0  0  0  0  0  0  0  0  0  0  0
  139.7210   71.3430  223.3070 C   0  0  2  0  0  0  0  0  0  0  0  0
  139.9580   71.7680  221.9700 N   0  0  0  0  0  0  0  0  0  0  0  0
  140.8010   72.8500  221.5990 C   0  0  0  0  0  0  0  0  0  0  0  0
  142.0730   72.6550  221.1520 N   0  0  0  0  0  0  0  0  0  0  0  0
  142.8570   73.6850  220.8060 C   0  0  0  0  0  0  0  0  0  0  0  0
  144.1790   73.5760  220.3240 N   0  0  0  0  0  0  0  0  0  0  0  0
  144.7870   72.2430  220.3980 C   0  0  0  0  0  0  0  0  0  0  0  0
  144.5210   71.4570  219.1440 C   0  0  0  0  0  0  0  0  0  0  0  0
  144.9730   70.0400  219.3480 C   0  0  1  0  0  0  0  0  0  0  0  0
  143.8130   69.0420  219.3040 C   0  0  0  0  0  0  0  0  0  0  0  0
  144.5560   67.7380  219.0000 C   0  0  0  0  0  0  0  0  0  0  0  0
  145.9490   68.1430  218.5770 C   0  0  0  0  0  0  0  0  0  0  0  0
  145.7810   69.5430  218.2350 N   0  0  0  0  0  0  0  0  0  0  0  0
  142.3490   74.9290  220.9160 N   0  0  0  0  0  0  0  0  0  0  0  0
  141.1040   75.1760  221.3500 C   0  0  0  0  0  0  0  0  0  0  0  0
  140.6740   76.5280  221.4190 N   0  0  0  0  0  0  0  0  0  0  0  0
  140.4420   77.3030  220.2240 C   0  0  0  0  0  0  0  0  0  0  0  0
  141.0800   78.6450  220.2010 C   0  0  0  0  0  0  0  0  0  0  0  0
  141.4950   79.1420  221.5300 C   0  0  0  0  0  0  0  0  0  0  0  0
  142.2040   80.3310  221.5630 C   0  0  0  0  0  0  0  0  0  0  0  0
  142.6270   80.8590  222.7620 C   0  0  0  0  0  0  0  0  0  0  0  0
  142.3310   80.1780  223.9380 C   0  0  0  0  0  0  0  0  0  0  0  0
  141.6250   78.9950  223.8940 C   0  0  0  0  0  0  0  0  0  0  0  0
  141.2030   78.4720  222.6850 C   0  0  0  0  0  0  0  0  0  0  0  0
  140.4460   77.1950  222.6970 C   0  0  0  0  0  0  0  0  0  0  0  0
  140.3490   74.1330  221.6850 N   0  0  0  0  0  0  0  0  0  0  0  0
  140.6830   71.8970  224.3250 C   0  0  0  0  0  0  0  0  0  0  0  0
  140.0573   69.6332  229.1613 H   0  0  0  0  0  0  0  0  0  0  0  0
  141.6204   71.5370  228.8387 H   0  0  0  0  0  0  0  0  0  0  0  0
  141.8671   72.5414  226.5854 H   0  0  0  0  0  0  0  0  0  0  0  0
  138.7653   68.7629  227.2182 H   0  0  0  0  0  0  0  0  0  0  0  0
  138.6472   68.5081  224.8669 H   0  0  0  0  0  0  0  0  0  0  0  0
  137.7855   70.0452  224.6645 H   0  0  0  0  0  0  0  0  0  0  0  0
  140.5499   69.3543  223.4825 H   0  0  0  0  0  0  0  0  0  0  0  0
  139.0383   69.4201  222.5557 H   0  0  0  0  0  0  0  0  0  0  0  0
  138.7501   71.7928  223.5620 H   0  0  0  0  0  0  0  0  0  0  0  0
  139.4710   71.2410  221.1970 H   0  0  0  0  0  0  0  0  0  0  0  0
  144.7360   74.3720  219.9280 H   0  0  0  0  0  0  0  0  0  0  0  0
  145.8736   72.3505  220.5310 H   0  0  0  0  0  0  0  0  0  0  0  0
  144.3451   71.7039  221.2489 H   0  0  0  0  0  0  0  0  0  0  0  0
  143.4438   71.4717  218.9214 H   0  0  0  0  0  0  0  0  0  0  0  0
  145.0706   71.9041  218.3025 H   0  0  0  0  0  0  0  0  0  0  0  0
  145.5003   70.0899  220.3121 H   0  0  0  0  0  0  0  0  0  0  0  0
  143.2876   68.9913  220.2691 H   0  0  0  0  0  0  0  0  0  0  0  0
  143.0269   69.2944  218.5772 H   0  0  0  0  0  0  0  0  0  0  0  0
  144.5981   67.1036  219.8976 H   0  0  0  0  0  0  0  0  0  0  0  0
  144.0486   67.1580  218.2151 H   0  0  0  0  0  0  0  0  0  0  0  0
  146.6663   68.0189  219.4017 H   0  0  0  0  0  0  0  0  0  0  0  0
  146.3497   67.5359  217.7518 H   0  0  0  0  0  0  0  0  0  0  0  0
  145.1380   69.5510  217.3870 H   0  0  0  0  0  0  0  0  0  0  0  0
  140.8266   76.7296  219.3676 H   0  0  0  0  0  0  0  0  0  0  0  0
  139.3574   77.4822  220.1846 H   0  0  0  0  0  0  0  0  0  0  0  0
  141.9715   78.5921  219.5588 H   0  0  0  0  0  0  0  0  0  0  0  0
  140.3232   79.3481  219.8230 H   0  0  0  0  0  0  0  0  0  0  0  0
  142.4309   80.8575  220.6242 H   0  0  0  0  0  0  0  0  0  0  0  0
  143.1897   81.8038  222.7894 H   0  0  0  0  0  0  0  0  0  0  0  0
  142.6611   80.5844  224.9054 H   0  0  0  0  0  0  0  0  0  0  0  0
  141.3952   78.4622  224.8285 H   0  0  0  0  0  0  0  0  0  0  0  0
  140.8010   76.5575  223.5202 H   0  0  0  0  0  0  0  0  0  0  0  0
  139.3728   77.3864  222.8440 H   0  0  0  0  0  0  0  0  0  0  0  0
  141.7152   71.7174  223.9899 H   0  0  0  0  0  0  0  0  0  0  0  0
  140.5168   72.9787  224.4362 H   0  0  0  0  0  0  0  0  0  0  0  0
  1  2  2  0
  2  3  1  0
  3  4  2  0
  4  5  1  0
  5  6  2  0
  5  7  1  0
  7  8  1  0
  8  9  1  0
  9 10  1  0
 10 11  1  0
 11 12  2  0
 12 13  1  0
 13 14  1  0
 14 15  1  0
 15 16  1  0
 16 17  1  0
 17 18  1  0
 18 19  1  0
 19 20  1  0
 20 21  1  0
 13 22  2  0
 22 23  1  0
 23 24  1  0
 24 25  1  0
 25 26  1  0
 26 27  1  0
 27 28  2  0
 28 29  1  0
 29 30  2  0
 30 31  1  0
 31 32  2  0
 32 33  1  0
 23 34  2  0
  9 35  1  0
  6  1  1  0
 34 11  1  0
 35  4  1  0
 21 17  1  0
 33 24  1  0
 32 27  1  0
  1 36  1  0
  2 37  1  0
  3 38  1  0
  6 39  1  0
  7 40  1  0
  7 41  1  0
  8 42  1  0
  8 43  1  0
  9 44  1  1
 10 45  1  0
 14 46  1  0
 15 47  1  0
 15 48  1  0
 16 49  1  0
 16 50  1  0
 17 51  1  1
 18 52  1  0
 18 53  1  0
 19 54  1  0
 19 55  1  0
 20 56  1  0
 20 57  1  0
 21 58  1  0
 25 59  1  0
 25 60  1  0
 26 61  1  0
 26 62  1  0
 28 63  1  0
 29 64  1  0
 30 65  1  0
 31 66  1  0
 33 67  1  0
 33 68  1  0
 35 69  1  0
 35 70  1  0
M  END
>  <smiles>  (125) 
c1ccc2c(c1)CCC(Nc1nc(NCCC3CCCN3)nc(N3CCc4ccccc4C3)n1)C2

>  <score_type>  (125) 
oracle

>  <origin>  (125) 
autodockgpu

>  <m_score__min__energy>  (125) 
-10.69

>  <m_primary>  (125) 
energy

>  <rmsd>  (125) 
11.249220948626615

>  <m_score__min__rmsd>  (125) 
11.249220948626615

>  <meeko>  (125) 
{"free_energy": -10.15, "intermolecular_energy": -12.24, "internal_energy": -1.05, "cluster_size": 1, "cluster_id": 3, "rank_in_cluster": 1}

>  <energy>  (125) 
-8.99

>  <cluster_rmsd>  (125) 
0.87

>  <cluster>  (125) 
2

$$$$

     RDKit          3D

 70 75  0  0  1  0  0  0  0  0999 V2000
  132.7970   75.6880  227.1680 C   0  0  0  0  0  0  0  0  0  0  0  0
  132.0260   74.7550  227.8140 C   0  0  0  0  0  0  0  0  0  0  0  0
  132.1960   73.4110  227.5060 C   0  0  0  0  0  0  0  0  0  0  0  0
  133.1220   72.9810  226.5650 C   0  0  0  0  0  0  0  0  0  0  0  0
  133.8870   73.9200  225.9250 C   0  0  0  0  0  0  0  0  0  0  0  0
  133.7290   75.2680  226.2220 C   0  0  0  0  0  0  0  0  0  0  0  0
  134.9140   73.5640  224.8960 C   0  0  0  0  0  0  0  0  0  0  0  0
  134.4500   72.2640  224.2600 C   0  0  0  0  0  0  0  0  0  0  0  0
  134.3680   71.2440  225.3820 C   0  0  2  0  0  0  0  0  0  0  0  0
  134.4480   69.9020  224.9160 N   0  0  0  0  0  0  0  0  0  0  0  0
  135.5930   69.3190  224.3100 C   0  0  0  0  0  0  0  0  0  0  0  0
  135.5290   68.6790  223.1090 N   0  0  0  0  0  0  0  0  0  0  0  0
  136.6160   68.1320  222.5500 C   0  0  0  0  0  0  0  0  0  0  0  0
  136.6440   67.4630  221.3080 N   0  0  0  0  0  0  0  0  0  0  0  0
  137.1630   68.2310  220.1710 C   0  0  0  0  0  0  0  0  0  0  0  0
  138.2850   69.1360  220.5960 C   0  0  0  0  0  0  0  0  0  0  0  0
  137.7440   70.5200  220.8140 C   0  0  1  0  0  0  0  0  0  0  0  0
  136.2490   70.6210  220.5010 C   0  0  0  0  0  0  0  0  0  0  0  0
  135.8690   71.8840  221.2800 C   0  0  0  0  0  0  0  0  0  0  0  0
  137.0350   72.1740  222.1950 C   0  0  0  0  0  0  0  0  0  0  0  0
  137.7370   70.9040  222.2250 N   0  0  0  0  0  0  0  0  0  0  0  0
  137.7850   68.2320  223.2150 N   0  0  0  0  0  0  0  0  0  0  0  0
  137.9040   68.8500  224.3990 C   0  0  0  0  0  0  0  0  0  0  0  0
  139.1870   68.8980  225.0060 N   0  0  0  0  0  0  0  0  0  0  0  0
  139.6130   67.8850  225.9390 C   0  0  0  0  0  0  0  0  0  0  0  0
  140.1920   68.3910  227.2110 C   0  0  0  0  0  0  0  0  0  0  0  0
  140.6180   69.8060  227.1620 C   0  0  0  0  0  0  0  0  0  0  0  0
  141.0530   70.3730  228.3480 C   0  0  0  0  0  0  0  0  0  0  0  0
  141.4650   71.6860  228.3850 C   0  0  0  0  0  0  0  0  0  0  0  0
  141.4370   72.4320  227.2120 C   0  0  0  0  0  0  0  0  0  0  0  0
  141.0020   71.8580  226.0360 C   0  0  0  0  0  0  0  0  0  0  0  0
  140.5900   70.5380  226.0080 C   0  0  0  0  0  0  0  0  0  0  0  0
  140.1320   69.9710  224.7140 C   0  0  0  0  0  0  0  0  0  0  0  0
  136.8060   69.3840  224.9290 N   0  0  0  0  0  0  0  0  0  0  0  0
  133.2180   71.5180  226.3160 C   0  0  0  0  0  0  0  0  0  0  0  0
  132.6802   76.7579  227.3951 H   0  0  0  0  0  0  0  0  0  0  0  0
  131.2845   75.0664  228.5644 H   0  0  0  0  0  0  0  0  0  0  0  0
  131.5772   72.6636  228.0242 H   0  0  0  0  0  0  0  0  0  0  0  0
  134.3486   76.0140  225.7028 H   0  0  0  0  0  0  0  0  0  0  0  0
  134.9820   74.3564  224.1361 H   0  0  0  0  0  0  0  0  0  0  0  0
  135.9107   73.4537  225.3482 H   0  0  0  0  0  0  0  0  0  0  0  0
  133.4621   72.3990  223.7954 H   0  0  0  0  0  0  0  0  0  0  0  0
  135.1435   71.9355  223.4719 H   0  0  0  0  0  0  0  0  0  0  0  0
  135.2703   71.3678  225.9988 H   0  0  0  0  0  0  0  0  0  0  0  0
  133.5920   69.2950  225.0280 H   0  0  0  0  0  0  0  0  0  0  0  0
  136.3240   66.4760  221.1560 H   0  0  0  0  0  0  0  0  0  0  0  0
  137.5344   67.5334  219.4059 H   0  0  0  0  0  0  0  0  0  0  0  0
  136.3486   68.8504  219.7671 H   0  0  0  0  0  0  0  0  0  0  0  0
  138.7263   68.7614  221.5314 H   0  0  0  0  0  0  0  0  0  0  0  0
  139.0588   69.1593  219.8145 H   0  0  0  0  0  0  0  0  0  0  0  0
  138.3908   71.1374  220.1733 H   0  0  0  0  0  0  0  0  0  0  0  0
  136.0699   70.7429  219.4226 H   0  0  0  0  0  0  0  0  0  0  0  0
  135.6680   69.7282  220.7756 H   0  0  0  0  0  0  0  0  0  0  0  0
  135.7064   72.7247  220.5895 H   0  0  0  0  0  0  0  0  0  0  0  0
  134.9368   71.7432  221.8468 H   0  0  0  0  0  0  0  0  0  0  0  0
  137.6730   72.9708  221.7850 H   0  0  0  0  0  0  0  0  0  0  0  0
  136.7319   72.5302  223.1907 H   0  0  0  0  0  0  0  0  0  0  0  0
  137.0720   70.2260  222.7040 H   0  0  0  0  0  0  0  0  0  0  0  0
  138.7398   67.2639  226.1873 H   0  0  0  0  0  0  0  0  0  0  0  0
  140.4212   67.3325  225.4375 H   0  0  0  0  0  0  0  0  0  0  0  0
  139.4338   68.2861  228.0010 H   0  0  0  0  0  0  0  0  0  0  0  0
  141.0958   67.7952  227.4061 H   0  0  0  0  0  0  0  0  0  0  0  0
  141.0695   69.7697  229.2676 H   0  0  0  0  0  0  0  0  0  0  0  0
  141.8106   72.1374  229.3267 H   0  0  0  0  0  0  0  0  0  0  0  0
  141.7626   73.4826  227.2221 H   0  0  0  0  0  0  0  0  0  0  0  0
  140.9825   72.4551  225.1123 H   0  0  0  0  0  0  0  0  0  0  0  0
  139.6384   70.7521  224.1171 H   0  0  0  0  0  0  0  0  0  0  0  0
  140.9870   69.5841  224.1402 H   0  0  0  0  0  0  0  0  0  0  0  0
  132.2824   71.1610  225.8608 H   0  0  0  0  0  0  0  0  0  0  0  0
  133.3849   70.9933  227.2683 H   0  0  0  0  0  0  0  0  0  0  0  0
  1  2  2  0
  2  3  1  0
  3  4  2  0
  4  5  1  0
  5  6  2  0
  5  7  1  0
  7  8  1  0
  8  9  1  0
  9 10  1  0
 10 11  1  0
 11 12  2  0
 12 13  1  0
 13 14  1  0
 14 15  1  0
 15 16  1  0
 16 17  1  0
 17 18  1  0
 18 19  1  0
 19 20  1  0
 20 21  1  0
 13 22  2  0
 22 23  1  0
 23 24  1  0
 24 25  1  0
 25 26  1  0
 26 27  1  0
 27 28  2  0
 28 29  1  0
 29 30  2  0
 30 31  1  0
 31 32  2  0
 32 33  1  0
 23 34  2  0
  9 35  1  0
  6  1  1  0
 34 11  1  0
 35  4  1  0
 21 17  1  0
 33 24  1  0
 32 27  1  0
  1 36  1  0
  2 37  1  0
  3 38  1  0
  6 39  1  0
  7 40  1  0
  7 41  1  0
  8 42  1  0
  8 43  1  0
  9 44  1  1
 10 45  1  0
 14 46  1  0
 15 47  1  0
 15 48  1  0
 16 49  1  0
 16 50  1  0
 17 51  1  6
 18 52  1  0
 18 53  1  0
 19 54  1  0
 19 55  1  0
 20 56  1  0
 20 57  1  0
 21 58  1  0
 25 59  1  0
 25 60  1  0
 26 61  1  0
 26 62  1  0
 28 63  1  0
 29 64  1  0
 30 65  1  0
 31 66  1  0
 33 67  1  0
 33 68  1  0
 35 69  1  0
 35 70  1  0
M  END
>  <smiles>  (126) 
c1ccc2c(c1)CCC(Nc1nc(NCCC3CCCN3)nc(N3CCc4ccccc4C3)n1)C2

>  <score_type>  (126) 
oracle

>  <origin>  (126) 
autodockgpu

>  <m_score__min__energy>  (126) 
-10.69

>  <m_primary>  (126) 
energy

>  <rmsd>  (126) 
11.685133327894999

>  <m_score__min__rmsd>  (126) 
11.685133327894999

>  <meeko>  (126) 
{"free_energy": -7.74, "intermolecular_energy": -9.82, "internal_energy": -3.4, "cluster_size": 2, "cluster_id": 10, "rank_in_cluster": 2}

>  <energy>  (126) 
-8.95

>  <cluster_rmsd>  (126) 
1.6

>  <cluster>  (126) 
2

$$$$

     RDKit          3D

 70 75  0  0  1  0  0  0  0  0999 V2000
  140.8520   68.1030  228.4000 C   0  0  0  0  0  0  0  0  0  0  0  0
  141.3360   69.3690  228.6150 C   0  0  0  0  0  0  0  0  0  0  0  0
  141.0670   70.3610  227.6820 C   0  0  0  0  0  0  0  0  0  0  0  0
  140.3230   70.1140  226.5360 C   0  0  0  0  0  0  0  0  0  0  0  0
  139.8430   68.8470  226.3290 C   0  0  0  0  0  0  0  0  0  0  0  0
  140.1040   67.8430  227.2540 C   0  0  0  0  0  0  0  0  0  0  0  0
  139.0290   68.4740  225.1290 C   0  0  0  0  0  0  0  0  0  0  0  0
  139.4510   69.4190  224.0160 C   0  0  0  0  0  0  0  0  0  0  0  0
  139.1540   70.8240  224.5110 C   0  0  2  0  0  0  0  0  0  0  0  0
  139.0070   71.7630  223.4520 N   0  0  0  0  0  0  0  0  0  0  0  0
  139.9830   72.0230  222.4540 C   0  0  0  0  0  0  0  0  0  0  0  0
  140.5740   73.2420  222.3200 N   0  0  0  0  0  0  0  0  0  0  0  0
  141.4930   73.4740  221.3730 C   0  0  0  0  0  0  0  0  0  0  0  0
  142.1630   74.6990  221.1700 N   0  0  0  0  0  0  0  0  0  0  0  0
  142.2730   75.1540  219.7800 C   0  0  0  0  0  0  0  0  0  0  0  0
  142.8880   74.0930  218.9100 C   0  0  0  0  0  0  0  0  0  0  0  0
  144.3200   73.8950  219.3160 C   0  0  1  0  0  0  0  0  0  0  0  0
  144.7400   74.8250  220.4570 C   0  0  0  0  0  0  0  0  0  0  0  0
  145.9650   74.0870  221.0050 C   0  0  0  0  0  0  0  0  0  0  0  0
  145.9280   72.7080  220.3890 C   0  0  0  0  0  0  0  0  0  0  0  0
  144.5510   72.5960  219.9460 N   0  0  0  0  0  0  0  0  0  0  0  0
  141.8160   72.4580  220.5470 N   0  0  0  0  0  0  0  0  0  0  0  0
  141.2650   71.2380  220.6350 C   0  0  0  0  0  0  0  0  0  0  0  0
  141.6870   70.2430  219.7140 N   0  0  0  0  0  0  0  0  0  0  0  0
  141.0440   68.9530  219.6580 C   0  0  0  0  0  0  0  0  0  0  0  0
  141.9610   67.7820  219.6720 C   0  0  0  0  0  0  0  0  0  0  0  0
  143.3620   68.1050  219.3300 C   0  0  0  0  0  0  0  0  0  0  0  0
  144.2880   67.0830  219.4440 C   0  0  0  0  0  0  0  0  0  0  0  0
  145.6140   67.3040  219.1450 C   0  0  0  0  0  0  0  0  0  0  0  0
  146.0060   68.5710  218.7280 C   0  0  0  0  0  0  0  0  0  0  0  0
  145.0760   69.5830  218.6190 C   0  0  0  0  0  0  0  0  0  0  0  0
  143.7460   69.3520  218.9200 C   0  0  0  0  0  0  0  0  0  0  0  0
  142.7870   70.4770  218.7840 C   0  0  0  0  0  0  0  0  0  0  0  0
  140.3560   71.0390  221.5870 N   0  0  0  0  0  0  0  0  0  0  0  0
  140.0960   71.2510  225.6060 C   0  0  0  0  0  0  0  0  0  0  0  0
  141.0528   67.3011  229.1257 H   0  0  0  0  0  0  0  0  0  0  0  0
  141.9286   69.5945  229.5139 H   0  0  0  0  0  0  0  0  0  0  0  0
  141.4557   71.3752  227.8561 H   0  0  0  0  0  0  0  0  0  0  0  0
  139.7146   66.8293  227.0787 H   0  0  0  0  0  0  0  0  0  0  0  0
  139.2311   67.4319  224.8407 H   0  0  0  0  0  0  0  0  0  0  0  0
  137.9517   68.5560  225.3357 H   0  0  0  0  0  0  0  0  0  0  0  0
  140.5257   69.3076  223.8094 H   0  0  0  0  0  0  0  0  0  0  0  0
  138.9107   69.2024  223.0826 H   0  0  0  0  0  0  0  0  0  0  0  0
  138.1619   70.7985  224.9854 H   0  0  0  0  0  0  0  0  0  0  0  0
  138.1040   72.3080  223.4070 H   0  0  0  0  0  0  0  0  0  0  0  0
  142.5770   75.2850  221.9350 H   0  0  0  0  0  0  0  0  0  0  0  0
  141.2689   75.3929  219.3997 H   0  0  0  0  0  0  0  0  0  0  0  0
  142.9183   76.0444  219.7540 H   0  0  0  0  0  0  0  0  0  0  0  0
  142.3361   73.1495  219.0336 H   0  0  0  0  0  0  0  0  0  0  0  0
  142.8409   74.4043  217.8560 H   0  0  0  0  0  0  0  0  0  0  0  0
  144.8632   74.0503  218.3721 H   0  0  0  0  0  0  0  0  0  0  0  0
  145.0051   75.8256  220.0849 H   0  0  0  0  0  0  0  0  0  0  0  0
  143.9526   75.0096  221.2026 H   0  0  0  0  0  0  0  0  0  0  0  0
  146.8881   74.6106  220.7157 H   0  0  0  0  0  0  0  0  0  0  0  0
  145.9491   74.0388  222.1038 H   0  0  0  0  0  0  0  0  0  0  0  0
  146.6251   72.6329  219.5415 H   0  0  0  0  0  0  0  0  0  0  0  0
  146.2303   71.9104  221.0835 H   0  0  0  0  0  0  0  0  0  0  0  0
  143.9680   72.6010  220.8370 H   0  0  0  0  0  0  0  0  0  0  0  0
  140.3740   68.8698  220.5264 H   0  0  0  0  0  0  0  0  0  0  0  0
  140.5209   68.9168  218.6910 H   0  0  0  0  0  0  0  0  0  0  0  0
  141.9446   67.3431  220.6805 H   0  0  0  0  0  0  0  0  0  0  0  0
  141.5991   67.0881  218.8990 H   0  0  0  0  0  0  0  0  0  0  0  0
  143.9623   66.0862  219.7761 H   0  0  0  0  0  0  0  0  0  0  0  0
  146.3505   66.4919  219.2346 H   0  0  0  0  0  0  0  0  0  0  0  0
  147.0607   68.7665  218.4844 H   0  0  0  0  0  0  0  0  0  0  0  0
  145.3947   70.5830  218.2897 H   0  0  0  0  0  0  0  0  0  0  0  0
  143.2870   71.4260  219.0276 H   0  0  0  0  0  0  0  0  0  0  0  0
  142.4105   70.5372  217.7522 H   0  0  0  0  0  0  0  0  0  0  0  0
  141.0548   71.5607  225.1647 H   0  0  0  0  0  0  0  0  0  0  0  0
  139.6571   72.0947  226.1588 H   0  0  0  0  0  0  0  0  0  0  0  0
  1  2  2  0
  2  3  1  0
  3  4  2  0
  4  5  1  0
  5  6  2  0
  5  7  1  0
  7  8  1  0
  8  9  1  0
  9 10  1  0
 10 11  1  0
 11 12  2  0
 12 13  1  0
 13 14  1  0
 14 15  1  0
 15 16  1  0
 16 17  1  0
 17 18  1  0
 18 19  1  0
 19 20  1  0
 20 21  1  0
 13 22  2  0
 22 23  1  0
 23 24  1  0
 24 25  1  0
 25 26  1  0
 26 27  1  0
 27 28  2  0
 28 29  1  0
 29 30  2  0
 30 31  1  0
 31 32  2  0
 32 33  1  0
 23 34  2  0
  9 35  1  0
  6  1  1  0
 34 11  1  0
 35  4  1  0
 21 17  1  0
 33 24  1  0
 32 27  1  0
  1 36  1  0
  2 37  1  0
  3 38  1  0
  6 39  1  0
  7 40  1  0
  7 41  1  0
  8 42  1  0
  8 43  1  0
  9 44  1  1
 10 45  1  0
 14 46  1  0
 15 47  1  0
 15 48  1  0
 16 49  1  0
 16 50  1  0
 17 51  1  6
 18 52  1  0
 18 53  1  0
 19 54  1  0
 19 55  1  0
 20 56  1  0
 20 57  1  0
 21 58  1  0
 25 59  1  0
 25 60  1  0
 26 61  1  0
 26 62  1  0
 28 63  1  0
 29 64  1  0
 30 65  1  0
 31 66  1  0
 33 67  1  0
 33 68  1  0
 35 69  1  0
 35 70  1  0
M  END
>  <smiles>  (127) 
c1ccc2c(c1)CCC(Nc1nc(NCCC3CCCN3)nc(N3CCc4ccccc4C3)n1)C2

>  <score_type>  (127) 
oracle

>  <origin>  (127) 
autodockgpu

>  <m_score__min__energy>  (127) 
-10.69

>  <m_primary>  (127) 
energy

>  <rmsd>  (127) 
12.39834316053124

>  <m_score__min__rmsd>  (127) 
12.39834316053124

>  <meeko>  (127) 
{"free_energy": -9.61, "intermolecular_energy": -11.7, "internal_energy": -1.68, "cluster_size": 9, "cluster_id": 1, "rank_in_cluster": 6}

>  <energy>  (127) 
-8.87

>  <cluster_rmsd>  (127) 
1.19

>  <cluster>  (127) 
2

$$$$

     RDKit          3D

 70 75  0  0  1  0  0  0  0  0999 V2000
  140.5070   69.5770  228.3240 C   0  0  0  0  0  0  0  0  0  0  0  0
  141.1430   70.7880  228.2170 C   0  0  0  0  0  0  0  0  0  0  0  0
  141.0570   71.4910  227.0230 C   0  0  0  0  0  0  0  0  0  0  0  0
  140.3460   71.0090  225.9320 C   0  0  0  0  0  0  0  0  0  0  0  0
  139.7130   69.7990  226.0480 C   0  0  0  0  0  0  0  0  0  0  0  0
  139.7910   69.0830  227.2370 C   0  0  0  0  0  0  0  0  0  0  0  0
  138.9200   69.1880  224.9350 C   0  0  0  0  0  0  0  0  0  0  0  0
  139.5200   69.7170  223.6420 C   0  0  0  0  0  0  0  0  0  0  0  0
  139.3880   71.2290  223.6960 C   0  0  2  0  0  0  0  0  0  0  0  0
  139.4210   71.8320  222.4070 N   0  0  0  0  0  0  0  0  0  0  0  0
  140.3830   72.7860  221.9800 C   0  0  0  0  0  0  0  0  0  0  0  0
  141.6380   72.4240  221.5940 N   0  0  0  0  0  0  0  0  0  0  0  0
  142.5360   73.3350  221.1950 C   0  0  0  0  0  0  0  0  0  0  0  0
  143.8510   73.0500  220.7670 N   0  0  0  0  0  0  0  0  0  0  0  0
  144.4920   74.0650  219.9260 C   0  0  0  0  0  0  0  0  0  0  0  0
  144.2630   73.7820  218.4670 C   0  0  0  0  0  0  0  0  0  0  0  0
  143.7320   75.0200  217.8040 C   0  0  1  0  0  0  0  0  0  0  0  0
  142.2860   74.8580  217.3310 C   0  0  0  0  0  0  0  0  0  0  0  0
  141.8470   76.3200  217.2120 C   0  0  0  0  0  0  0  0  0  0  0  0
  142.9060   77.1300  217.9220 C   0  0  0  0  0  0  0  0  0  0  0  0
  143.5720   76.1330  218.7400 N   0  0  0  0  0  0  0  0  0  0  0  0
  142.1610   74.6290  221.1890 N   0  0  0  0  0  0  0  0  0  0  0  0
  140.9390   75.0400  221.5600 C   0  0  0  0  0  0  0  0  0  0  0  0
  140.6540   76.4310  221.5080 N   0  0  0  0  0  0  0  0  0  0  0  0
  140.7170   77.1630  220.2670 C   0  0  0  0  0  0  0  0  0  0  0  0
  141.4920   78.4300  220.3120 C   0  0  0  0  0  0  0  0  0  0  0  0
  141.7250   78.9500  221.6760 C   0  0  0  0  0  0  0  0  0  0  0  0
  142.5440   80.0600  221.7940 C   0  0  0  0  0  0  0  0  0  0  0  0
  142.8110   80.6030  223.0310 C   0  0  0  0  0  0  0  0  0  0  0  0
  142.2450   80.0160  224.1580 C   0  0  0  0  0  0  0  0  0  0  0  0
  141.4310   78.9110  224.0300 C   0  0  0  0  0  0  0  0  0  0  0  0
  141.1680   78.3730  222.7830 C   0  0  0  0  0  0  0  0  0  0  0  0
  140.2850   77.1820  222.7030 C   0  0  0  0  0  0  0  0  0  0  0  0
  140.0680   74.1120  221.9500 N   0  0  0  0  0  0  0  0  0  0  0  0
  140.3210   71.8460  224.7040 C   0  0  0  0  0  0  0  0  0  0  0  0
  140.5623   69.0018  229.2600 H   0  0  0  0  0  0  0  0  0  0  0  0
  141.7127   71.1959  229.0649 H   0  0  0  0  0  0  0  0  0  0  0  0
  141.5686   72.4611  226.9385 H   0  0  0  0  0  0  0  0  0  0  0  0
  139.2799   68.1125  227.3202 H   0  0  0  0  0  0  0  0  0  0  0  0
  138.9973   68.0913  224.9699 H   0  0  0  0  0  0  0  0  0  0  0  0
  137.8538   69.4463  225.0156 H   0  0  0  0  0  0  0  0  0  0  0  0
  140.5793   69.4299  223.5686 H   0  0  0  0  0  0  0  0  0  0  0  0
  139.0038   69.3025  222.7636 H   0  0  0  0  0  0  0  0  0  0  0  0
  138.3788   71.4533  224.0717 H   0  0  0  0  0  0  0  0  0  0  0  0
  138.6740   71.5500  221.7180 H   0  0  0  0  0  0  0  0  0  0  0  0
  144.3790   72.1770  221.0100 H   0  0  0  0  0  0  0  0  0  0  0  0
  144.0722   75.0518  220.1708 H   0  0  0  0  0  0  0  0  0  0  0  0
  145.5746   74.0467  220.1199 H   0  0  0  0  0  0  0  0  0  0  0  0
  145.2126   73.4898  217.9950 H   0  0  0  0  0  0  0  0  0  0  0  0
  143.5372   72.9627  218.3578 H   0  0  0  0  0  0  0  0  0  0  0  0
  144.4616   75.1967  217.0000 H   0  0  0  0  0  0  0  0  0  0  0  0
  142.2345   74.3414  216.3612 H   0  0  0  0  0  0  0  0  0  0  0  0
  141.6576   74.2507  217.9990 H   0  0  0  0  0  0  0  0  0  0  0  0
  141.7843   76.6157  216.1543 H   0  0  0  0  0  0  0  0  0  0  0  0
  140.8525   76.4801  217.6541 H   0  0  0  0  0  0  0  0  0  0  0  0
  143.6043   77.5861  217.2048 H   0  0  0  0  0  0  0  0  0  0  0  0
  142.4979   77.9705  218.5025 H   0  0  0  0  0  0  0  0  0  0  0  0
  142.8410   75.8130  219.4440 H   0  0  0  0  0  0  0  0  0  0  0  0
  141.1779   76.5101  219.5111 H   0  0  0  0  0  0  0  0  0  0  0  0
  139.6814   77.4498  220.0319 H   0  0  0  0  0  0  0  0  0  0  0  0
  142.4691   78.2536  219.8385 H   0  0  0  0  0  0  0  0  0  0  0  0
  140.8925   79.1860  219.7838 H   0  0  0  0  0  0  0  0  0  0  0  0
  142.9847   80.5115  220.8930 H   0  0  0  0  0  0  0  0  0  0  0  0
  143.4606   81.4856  223.1263 H   0  0  0  0  0  0  0  0  0  0  0  0
  142.4477   80.4350  225.1547 H   0  0  0  0  0  0  0  0  0  0  0  0
  140.9871   78.4534  224.9264 H   0  0  0  0  0  0  0  0  0  0  0  0
  140.4217   76.5545  223.5961 H   0  0  0  0  0  0  0  0  0  0  0  0
  139.2300   77.4893  222.6524 H   0  0  0  0  0  0  0  0  0  0  0  0
  141.3339   71.9040  224.2789 H   0  0  0  0  0  0  0  0  0  0  0  0
  139.9713   72.8579  224.9566 H   0  0  0  0  0  0  0  0  0  0  0  0
  1  2  2  0
  2  3  1  0
  3  4  2  0
  4  5  1  0
  5  6  2  0
  5  7  1  0
  7  8  1  0
  8  9  1  0
  9 10  1  0
 10 11  1  0
 11 12  2  0
 12 13  1  0
 13 14  1  0
 14 15  1  0
 15 16  1  0
 16 17  1  0
 17 18  1  0
 18 19  1  0
 19 20  1  0
 20 21  1  0
 13 22  2  0
 22 23  1  0
 23 24  1  0
 24 25  1  0
 25 26  1  0
 26 27  1  0
 27 28  2  0
 28 29  1  0
 29 30  2  0
 30 31  1  0
 31 32  2  0
 32 33  1  0
 23 34  2  0
  9 35  1  0
  6  1  1  0
 34 11  1  0
 35  4  1  0
 21 17  1  0
 33 24  1  0
 32 27  1  0
  1 36  1  0
  2 37  1  0
  3 38  1  0
  6 39  1  0
  7 40  1  0
  7 41  1  0
  8 42  1  0
  8 43  1  0
  9 44  1  1
 10 45  1  0
 14 46  1  0
 15 47  1  0
 15 48  1  0
 16 49  1  0
 16 50  1  0
 17 51  1  6
 18 52  1  0
 18 53  1  0
 19 54  1  0
 19 55  1  0
 20 56  1  0
 20 57  1  0
 21 58  1  0
 25 59  1  0
 25 60  1  0
 26 61  1  0
 26 62  1  0
 28 63  1  0
 29 64  1  0
 30 65  1  0
 31 66  1  0
 33 67  1  0
 33 68  1  0
 35 69  1  0
 35 70  1  0
M  END
>  <smiles>  (128) 
c1ccc2c(c1)CCC(Nc1nc(NCCC3CCCN3)nc(N3CCc4ccccc4C3)n1)C2

>  <score_type>  (128) 
oracle

>  <origin>  (128) 
autodockgpu

>  <m_score__min__energy>  (128) 
-10.69

>  <m_primary>  (128) 
energy

>  <rmsd>  (128) 
11.537767776357317

>  <m_score__min__rmsd>  (128) 
11.537767776357317

>  <meeko>  (128) 
{"free_energy": -9.51, "intermolecular_energy": -11.6, "internal_energy": -2.28, "cluster_size": 21, "cluster_id": 2, "rank_in_cluster": 11}

>  <energy>  (128) 
-8.75

>  <cluster_rmsd>  (128) 
1.29

>  <cluster>  (128) 
2

$$$$

     RDKit          3D

 70 75  0  0  1  0  0  0  0  0999 V2000
  140.2030   70.0600  228.1730 C   0  0  0  0  0  0  0  0  0  0  0  0
  141.0600   71.1180  228.0040 C   0  0  0  0  0  0  0  0  0  0  0  0
  141.1950   71.6820  226.7430 C   0  0  0  0  0  0  0  0  0  0  0  0
  140.4890   71.2100  225.6440 C   0  0  0  0  0  0  0  0  0  0  0  0
  139.6360   70.1540  225.8210 C   0  0  0  0  0  0  0  0  0  0  0  0
  139.4900   69.5780  227.0780 C   0  0  0  0  0  0  0  0  0  0  0  0
  138.8270   69.5680  224.7050 C   0  0  0  0  0  0  0  0  0  0  0  0
  139.6090   69.8290  223.4280 C   0  0  0  0  0  0  0  0  0  0  0  0
  139.7570   71.3360  223.3160 C   0  0  2  0  0  0  0  0  0  0  0  0
  139.9970   71.7700  221.9820 N   0  0  0  0  0  0  0  0  0  0  0  0
  140.8350   72.8580  221.6200 C   0  0  0  0  0  0  0  0  0  0  0  0
  142.1110   72.6730  221.1820 N   0  0  0  0  0  0  0  0  0  0  0  0
  142.8910   73.7090  220.8450 C   0  0  0  0  0  0  0  0  0  0  0  0
  144.2170   73.6100  220.3720 N   0  0  0  0  0  0  0  0  0  0  0  0
  144.7890   72.2600  220.3260 C   0  0  0  0  0  0  0  0  0  0  0  0
  144.3680   71.5380  219.0760 C   0  0  0  0  0  0  0  0  0  0  0  0
  145.0430   72.1690  217.8930 C   0  0  1  0  0  0  0  0  0  0  0  0
  144.0840   73.0160  217.0530 C   0  0  0  0  0  0  0  0  0  0  0  0
  145.0670   73.9190  216.3020 C   0  0  0  0  0  0  0  0  0  0  0  0
  146.3970   73.7550  216.9990 C   0  0  0  0  0  0  0  0  0  0  0  0
  146.0150   73.1910  218.2800 N   0  0  0  0  0  0  0  0  0  0  0  0
  142.3740   74.9490  220.9540 N   0  0  0  0  0  0  0  0  0  0  0  0
  141.1240   75.1870  221.3790 C   0  0  0  0  0  0  0  0  0  0  0  0
  140.6850   76.5360  221.4490 N   0  0  0  0  0  0  0  0  0  0  0  0
  140.4480   77.3090  220.2550 C   0  0  0  0  0  0  0  0  0  0  0  0
  141.0760   78.6560  220.2320 C   0  0  0  0  0  0  0  0  0  0  0  0
  141.4880   79.1560  221.5610 C   0  0  0  0  0  0  0  0  0  0  0  0
  142.1890   80.3490  221.5940 C   0  0  0  0  0  0  0  0  0  0  0  0
  142.6090   80.8800  222.7930 C   0  0  0  0  0  0  0  0  0  0  0  0
  142.3180   80.1970  223.9680 C   0  0  0  0  0  0  0  0  0  0  0  0
  141.6200   79.0090  223.9250 C   0  0  0  0  0  0  0  0  0  0  0  0
  141.2010   78.4830  222.7160 C   0  0  0  0  0  0  0  0  0  0  0  0
  140.4530   77.2010  222.7270 C   0  0  0  0  0  0  0  0  0  0  0  0
  140.3740   74.1380  221.7060 N   0  0  0  0  0  0  0  0  0  0  0  0
  140.7120   71.8910  224.3410 C   0  0  0  0  0  0  0  0  0  0  0  0
  140.0803   69.5971  229.1633 H   0  0  0  0  0  0  0  0  0  0  0  0
  141.6322   71.5138  228.8561 H   0  0  0  0  0  0  0  0  0  0  0  0
  141.8831   72.5298  226.6098 H   0  0  0  0  0  0  0  0  0  0  0  0
  138.8019   68.7299  227.2094 H   0  0  0  0  0  0  0  0  0  0  0  0
  138.6958   68.4865  224.8569 H   0  0  0  0  0  0  0  0  0  0  0  0
  137.8245   70.0184  224.6589 H   0  0  0  0  0  0  0  0  0  0  0  0
  140.5989   69.3527  223.4841 H   0  0  0  0  0  0  0  0  0  0  0  0
  139.0910   69.4131  222.5513 H   0  0  0  0  0  0  0  0  0  0  0  0
  138.7820   71.7776  223.5696 H   0  0  0  0  0  0  0  0  0  0  0  0
  139.5150   71.2440  221.2050 H   0  0  0  0  0  0  0  0  0  0  0  0
  144.8010   74.4240  220.0610 H   0  0  0  0  0  0  0  0  0  0  0  0
  145.8864   72.3335  220.3465 H   0  0  0  0  0  0  0  0  0  0  0  0
  144.4239   71.6952  221.1965 H   0  0  0  0  0  0  0  0  0  0  0  0
  144.6603   70.4798  219.1457 H   0  0  0  0  0  0  0  0  0  0  0  0
  143.2763   71.6054  218.9591 H   0  0  0  0  0  0  0  0  0  0  0  0
  145.4718   71.3026  217.3682 H   0  0  0  0  0  0  0  0  0  0  0  0
  143.4977   72.3942  216.3605 H   0  0  0  0  0  0  0  0  0  0  0  0
  143.3287   73.5594  217.6396 H   0  0  0  0  0  0  0  0  0  0  0  0
  145.1455   73.6072  215.2500 H   0  0  0  0  0  0  0  0  0  0  0  0
  144.7357   74.9679  216.3069 H   0  0  0  0  0  0  0  0  0  0  0  0
  147.0546   73.0700  216.4437 H   0  0  0  0  0  0  0  0  0  0  0  0
  146.9644   74.6934  217.0856 H   0  0  0  0  0  0  0  0  0  0  0  0
  145.4530   73.9520  218.7670 H   0  0  0  0  0  0  0  0  0  0  0  0
  140.8371   76.7386  219.3987 H   0  0  0  0  0  0  0  0  0  0  0  0
  139.3621   77.4803  220.2156 H   0  0  0  0  0  0  0  0  0  0  0  0
  141.9675   78.6099  219.5893 H   0  0  0  0  0  0  0  0  0  0  0  0
  140.3137   79.3535  219.8545 H   0  0  0  0  0  0  0  0  0  0  0  0
  142.4123   80.8770  220.6552 H   0  0  0  0  0  0  0  0  0  0  0  0
  143.1653   81.8285  222.8205 H   0  0  0  0  0  0  0  0  0  0  0  0
  142.6457   80.6057  224.9353 H   0  0  0  0  0  0  0  0  0  0  0  0
  141.3943   78.4749  224.8597 H   0  0  0  0  0  0  0  0  0  0  0  0
  140.8124   76.5655  223.5498 H   0  0  0  0  0  0  0  0  0  0  0  0
  139.3785   77.3853  222.8738 H   0  0  0  0  0  0  0  0  0  0  0  0
  141.7467   71.7191  224.0095 H   0  0  0  0  0  0  0  0  0  0  0  0
  140.5395   72.9712  224.4568 H   0  0  0  0  0  0  0  0  0  0  0  0
  1  2  2  0
  2  3  1  0
  3  4  2  0
  4  5  1  0
  5  6  2  0
  5  7  1  0
  7  8  1  0
  8  9  1  0
  9 10  1  0
 10 11  1  0
 11 12  2  0
 12 13  1  0
 13 14  1  0
 14 15  1  0
 15 16  1  0
 16 17  1  0
 17 18  1  0
 18 19  1  0
 19 20  1  0
 20 21  1  0
 13 22  2  0
 22 23  1  0
 23 24  1  0
 24 25  1  0
 25 26  1  0
 26 27  1  0
 27 28  2  0
 28 29  1  0
 29 30  2  0
 30 31  1  0
 31 32  2  0
 32 33  1  0
 23 34  2  0
  9 35  1  0
  6  1  1  0
 34 11  1  0
 35  4  1  0
 21 17  1  0
 33 24  1  0
 32 27  1  0
  1 36  1  0
  2 37  1  0
  3 38  1  0
  6 39  1  0
  7 40  1  0
  7 41  1  0
  8 42  1  0
  8 43  1  0
  9 44  1  1
 10 45  1  0
 14 46  1  0
 15 47  1  0
 15 48  1  0
 16 49  1  0
 16 50  1  0
 17 51  1  6
 18 52  1  0
 18 53  1  0
 19 54  1  0
 19 55  1  0
 20 56  1  0
 20 57  1  0
 21 58  1  0
 25 59  1  0
 25 60  1  0
 26 61  1  0
 26 62  1  0
 28 63  1  0
 29 64  1  0
 30 65  1  0
 31 66  1  0
 33 67  1  0
 33 68  1  0
 35 69  1  0
 35 70  1  0
M  END
>  <smiles>  (129) 
c1ccc2c(c1)CCC(Nc1nc(NCCC3CCCN3)nc(N3CCc4ccccc4C3)n1)C2

>  <score_type>  (129) 
oracle

>  <origin>  (129) 
autodockgpu

>  <m_score__min__energy>  (129) 
-10.69

>  <m_primary>  (129) 
energy

>  <rmsd>  (129) 
11.261283483528343

>  <m_score__min__rmsd>  (129) 
11.261283483528343

>  <meeko>  (129) 
{"free_energy": -10.31, "intermolecular_energy": -12.4, "internal_energy": -1.36, "cluster_size": 21, "cluster_id": 2, "rank_in_cluster": 2}

>  <energy>  (129) 
-8.73

>  <cluster_rmsd>  (129) 
1.52

>  <cluster>  (129) 
2

$$$$

     RDKit          3D

 70 75  0  0  1  0  0  0  0  0999 V2000
  140.3300   70.0800  228.2340 C   0  0  0  0  0  0  0  0  0  0  0  0
  141.0800   71.2040  227.9960 C   0  0  0  0  0  0  0  0  0  0  0  0
  141.0720   71.7640  226.7260 C   0  0  0  0  0  0  0  0  0  0  0  0
  140.3280   71.2240  225.6860 C   0  0  0  0  0  0  0  0  0  0  0  0
  139.5810   70.1020  225.9320 C   0  0  0  0  0  0  0  0  0  0  0  0
  139.5790   69.5290  227.1980 C   0  0  0  0  0  0  0  0  0  0  0  0
  138.7420   69.4390  224.8830 C   0  0  0  0  0  0  0  0  0  0  0  0
  139.4020   69.7510  223.5490 C   0  0  0  0  0  0  0  0  0  0  0  0
  139.4140   71.2640  223.4200 C   0  0  2  0  0  0  0  0  0  0  0  0
  139.5170   71.7030  222.0700 N   0  0  0  0  0  0  0  0  0  0  0  0
  140.1720   72.8900  221.6480 C   0  0  0  0  0  0  0  0  0  0  0  0
  141.1390   72.8800  220.6890 N   0  0  0  0  0  0  0  0  0  0  0  0
  141.7510   74.0070  220.3020 C   0  0  0  0  0  0  0  0  0  0  0  0
  142.7510   74.0920  219.3100 N   0  0  0  0  0  0  0  0  0  0  0  0
  143.5970   75.2900  219.3450 C   0  0  0  0  0  0  0  0  0  0  0  0
  143.6850   75.9290  217.9870 C   0  0  0  0  0  0  0  0  0  0  0  0
  142.9070   77.2140  217.9990 C   0  0  1  0  0  0  0  0  0  0  0  0
  141.4980   77.0510  217.4220 C   0  0  0  0  0  0  0  0  0  0  0  0
  140.7910   78.2700  218.0210 C   0  0  0  0  0  0  0  0  0  0  0  0
  141.7080   78.7930  219.1010 C   0  0  0  0  0  0  0  0  0  0  0  0
  142.5790   77.6600  219.3520 N   0  0  0  0  0  0  0  0  0  0  0  0
  141.3810   75.1600  220.8940 N   0  0  0  0  0  0  0  0  0  0  0  0
  140.4350   75.2260  221.8430 C   0  0  0  0  0  0  0  0  0  0  0  0
  140.1240   76.4980  222.3940 N   0  0  0  0  0  0  0  0  0  0  0  0
  138.7940   77.0490  222.3010 C   0  0  0  0  0  0  0  0  0  0  0  0
  138.7170   78.4510  221.8130 C   0  0  0  0  0  0  0  0  0  0  0  0
  139.9950   79.1910  221.8900 C   0  0  0  0  0  0  0  0  0  0  0  0
  140.0210   80.4600  221.3400 C   0  0  0  0  0  0  0  0  0  0  0  0
  141.1730   81.2130  221.3700 C   0  0  0  0  0  0  0  0  0  0  0  0
  142.3100   80.6750  221.9630 C   0  0  0  0  0  0  0  0  0  0  0  0
  142.2750   79.4090  222.5090 C   0  0  0  0  0  0  0  0  0  0  0  0
  141.1120   78.6610  222.4740 C   0  0  0  0  0  0  0  0  0  0  0  0
  141.1300   77.3040  223.0760 C   0  0  0  0  0  0  0  0  0  0  0  0
  139.8450   74.0900  222.2070 N   0  0  0  0  0  0  0  0  0  0  0  0
  140.3940   71.9070  224.3670 C   0  0  0  0  0  0  0  0  0  0  0  0
  140.3218   69.6187  229.2325 H   0  0  0  0  0  0  0  0  0  0  0  0
  141.6793   71.6551  228.8006 H   0  0  0  0  0  0  0  0  0  0  0  0
  141.6747   72.6647  226.5376 H   0  0  0  0  0  0  0  0  0  0  0  0
  138.9762   68.6280  227.3847 H   0  0  0  0  0  0  0  0  0  0  0  0
  138.7135   68.3520  225.0489 H   0  0  0  0  0  0  0  0  0  0  0  0
  137.7046   69.8038  224.9110 H   0  0  0  0  0  0  0  0  0  0  0  0
  140.4299   69.3596  223.5323 H   0  0  0  0  0  0  0  0  0  0  0  0
  138.8568   69.2841  222.7155 H   0  0  0  0  0  0  0  0  0  0  0  0
  138.4268   71.6247  223.7446 H   0  0  0  0  0  0  0  0  0  0  0  0
  139.0700   71.1000  221.3270 H   0  0  0  0  0  0  0  0  0  0  0  0
  142.9190   73.3680  218.5700 H   0  0  0  0  0  0  0  0  0  0  0  0
  143.1680   76.0124  220.0551 H   0  0  0  0  0  0  0  0  0  0  0  0
  144.6090   74.9946  219.6589 H   0  0  0  0  0  0  0  0  0  0  0  0
  144.7376   76.1376  217.7452 H   0  0  0  0  0  0  0  0  0  0  0  0
  143.2680   75.2495  217.2291 H   0  0  0  0  0  0  0  0  0  0  0  0
  143.5594   77.8977  217.4361 H   0  0  0  0  0  0  0  0  0  0  0  0
  141.5053   77.0886  216.3227 H   0  0  0  0  0  0  0  0  0  0  0  0
  141.0204   76.0890  217.6596 H   0  0  0  0  0  0  0  0  0  0  0  0
  140.6325   79.0376  217.2492 H   0  0  0  0  0  0  0  0  0  0  0  0
  139.8027   78.0049  218.4246 H   0  0  0  0  0  0  0  0  0  0  0  0
  142.2805   79.6637  218.7487 H   0  0  0  0  0  0  0  0  0  0  0  0
  141.1742   79.1418  219.9973 H   0  0  0  0  0  0  0  0  0  0  0  0
  141.9490   76.9050  219.7590 H   0  0  0  0  0  0  0  0  0  0  0  0
  138.2126   76.4178  221.6128 H   0  0  0  0  0  0  0  0  0  0  0  0
  138.3997   77.0636  223.3278 H   0  0  0  0  0  0  0  0  0  0  0  0
  138.3915   78.4331  220.7624 H   0  0  0  0  0  0  0  0  0  0  0  0
  138.0079   78.9758  222.4701 H   0  0  0  0  0  0  0  0  0  0  0  0
  139.1131   80.8711  220.8745 H   0  0  0  0  0  0  0  0  0  0  0  0
  141.1938   82.2221  220.9327 H   0  0  0  0  0  0  0  0  0  0  0  0
  143.2403   81.2611  221.9967 H   0  0  0  0  0  0  0  0  0  0  0  0
  143.1789   78.9909  222.9759 H   0  0  0  0  0  0  0  0  0  0  0  0
  142.1236   76.8504  222.9457 H   0  0  0  0  0  0  0  0  0  0  0  0
  140.9114   77.3594  224.1526 H   0  0  0  0  0  0  0  0  0  0  0  0
  141.4114   71.8181  223.9583 H   0  0  0  0  0  0  0  0  0  0  0  0
  140.1409   72.9703  224.4911 H   0  0  0  0  0  0  0  0  0  0  0  0
  1  2  2  0
  2  3  1  0
  3  4  2  0
  4  5  1  0
  5  6  2  0
  5  7  1  0
  7  8  1  0
  8  9  1  0
  9 10  1  0
 10 11  1  0
 11 12  2  0
 12 13  1  0
 13 14  1  0
 14 15  1  0
 15 16  1  0
 16 17  1  0
 17 18  1  0
 18 19  1  0
 19 20  1  0
 20 21  1  0
 13 22  2  0
 22 23  1  0
 23 24  1  0
 24 25  1  0
 25 26  1  0
 26 27  1  0
 27 28  2  0
 28 29  1  0
 29 30  2  0
 30 31  1  0
 31 32  2  0
 32 33  1  0
 23 34  2  0
  9 35  1  0
  6  1  1  0
 34 11  1  0
 35  4  1  0
 21 17  1  0
 33 24  1  0
 32 27  1  0
  1 36  1  0
  2 37  1  0
  3 38  1  0
  6 39  1  0
  7 40  1  0
  7 41  1  0
  8 42  1  0
  8 43  1  0
  9 44  1  1
 10 45  1  0
 14 46  1  0
 15 47  1  0
 15 48  1  0
 16 49  1  0
 16 50  1  0
 17 51  1  6
 18 52  1  0
 18 53  1  0
 19 54  1  0
 19 55  1  0
 20 56  1  0
 20 57  1  0
 21 58  1  0
 25 59  1  0
 25 60  1  0
 26 61  1  0
 26 62  1  0
 28 63  1  0
 29 64  1  0
 30 65  1  0
 31 66  1  0
 33 67  1  0
 33 68  1  0
 35 69  1  0
 35 70  1  0
M  END
>  <smiles>  (130) 
c1ccc2c(c1)CCC(Nc1nc(NCCC3CCCN3)nc(N3CCc4ccccc4C3)n1)C2

>  <score_type>  (130) 
oracle

>  <origin>  (130) 
autodockgpu

>  <m_score__min__energy>  (130) 
-10.69

>  <m_primary>  (130) 
energy

>  <rmsd>  (130) 
11.308468898705033

>  <m_score__min__rmsd>  (130) 
11.308468898705033

>  <meeko>  (130) 
{"free_energy": -8.73, "intermolecular_energy": -10.82, "internal_energy": -2.7, "cluster_size": 21, "cluster_id": 2, "rank_in_cluster": 20}

>  <energy>  (130) 
-8.01

>  <cluster_rmsd>  (130) 
1.95

>  <cluster>  (130) 
2

$$$$

     RDKit          3D

 70 75  0  0  1  0  0  0  0  0999 V2000
  140.5230   69.6090  228.3190 C   0  0  0  0  0  0  0  0  0  0  0  0
  141.1540   70.8210  228.1890 C   0  0  0  0  0  0  0  0  0  0  0  0
  141.0590   71.5040  226.9850 C   0  0  0  0  0  0  0  0  0  0  0  0
  140.3460   71.0010  225.9050 C   0  0  0  0  0  0  0  0  0  0  0  0
  139.7190   69.7900  226.0430 C   0  0  0  0  0  0  0  0  0  0  0  0
  139.8050   69.0940  227.2430 C   0  0  0  0  0  0  0  0  0  0  0  0
  138.9240   69.1580  224.9430 C   0  0  0  0  0  0  0  0  0  0  0  0
  139.5160   69.6690  223.6400 C   0  0  0  0  0  0  0  0  0  0  0  0
  139.3770   71.1810  223.6690 C   0  0  2  0  0  0  0  0  0  0  0  0
  139.4020   71.7630  222.3710 N   0  0  0  0  0  0  0  0  0  0  0  0
  140.3200   72.7590  221.9440 C   0  0  0  0  0  0  0  0  0  0  0  0
  141.5810   72.4520  221.5350 N   0  0  0  0  0  0  0  0  0  0  0  0
  142.4380   73.4020  221.1360 C   0  0  0  0  0  0  0  0  0  0  0  0
  143.7560   73.1740  220.6860 N   0  0  0  0  0  0  0  0  0  0  0  0
  143.8930   72.4030  219.4460 C   0  0  0  0  0  0  0  0  0  0  0  0
  144.6850   73.1650  218.4200 C   0  0  0  0  0  0  0  0  0  0  0  0
  143.8550   74.3070  217.9080 C   0  0  1  0  0  0  0  0  0  0  0  0
  142.3720   73.9480  217.7920 C   0  0  0  0  0  0  0  0  0  0  0  0
  141.7310   75.3390  217.7880 C   0  0  0  0  0  0  0  0  0  0  0  0
  142.8130   76.2960  218.2290 C   0  0  0  0  0  0  0  0  0  0  0  0
  143.7770   75.4140  218.8600 N   0  0  0  0  0  0  0  0  0  0  0  0
  142.0130   74.6810  221.1540 N   0  0  0  0  0  0  0  0  0  0  0  0
  140.7810   75.0390  221.5470 C   0  0  0  0  0  0  0  0  0  0  0  0
  140.4420   76.4180  221.5190 N   0  0  0  0  0  0  0  0  0  0  0  0
  140.3080   77.1310  220.2720 C   0  0  0  0  0  0  0  0  0  0  0  0
  141.0360   78.4240  220.1960 C   0  0  0  0  0  0  0  0  0  0  0  0
  141.4350   78.9740  221.5090 C   0  0  0  0  0  0  0  0  0  0  0  0
  142.2210   80.1130  221.5010 C   0  0  0  0  0  0  0  0  0  0  0  0
  142.6340   80.6860  222.6830 C   0  0  0  0  0  0  0  0  0  0  0  0
  142.2490   80.0990  223.8840 C   0  0  0  0  0  0  0  0  0  0  0  0
  141.4660   78.9640  223.8810 C   0  0  0  0  0  0  0  0  0  0  0  0
  141.0550   78.3970  222.6890 C   0  0  0  0  0  0  0  0  0  0  0  0
  140.2130   77.1750  222.7450 C   0  0  0  0  0  0  0  0  0  0  0  0
  139.9530   74.0720  221.9370 N   0  0  0  0  0  0  0  0  0  0  0  0
  140.3110   71.8180  224.6640 C   0  0  0  0  0  0  0  0  0  0  0  0
  140.5840   69.0499  229.2643 H   0  0  0  0  0  0  0  0  0  0  0  0
  141.7267   71.2447  229.0272 H   0  0  0  0  0  0  0  0  0  0  0  0
  141.5649   72.4754  226.8828 H   0  0  0  0  0  0  0  0  0  0  0  0
  139.2987   68.1227  227.3440 H   0  0  0  0  0  0  0  0  0  0  0  0
  139.0064   68.0623  224.9948 H   0  0  0  0  0  0  0  0  0  0  0  0
  137.8570   69.4128  225.0240 H   0  0  0  0  0  0  0  0  0  0  0  0
  140.5765   69.3859  223.5672 H   0  0  0  0  0  0  0  0  0  0  0  0
  138.9979   69.2378  222.7707 H   0  0  0  0  0  0  0  0  0  0  0  0
  138.3679   71.4074  224.0437 H   0  0  0  0  0  0  0  0  0  0  0  0
  138.6830   71.4300  221.6740 H   0  0  0  0  0  0  0  0  0  0  0  0
  144.6190   73.5140  221.1750 H   0  0  0  0  0  0  0  0  0  0  0  0
  144.4076   71.4562  219.6666 H   0  0  0  0  0  0  0  0  0  0  0  0
  142.8885   72.2115  219.0406 H   0  0  0  0  0  0  0  0  0  0  0  0
  145.6048   73.5553  218.8800 H   0  0  0  0  0  0  0  0  0  0  0  0
  144.9517   72.4979  217.5871 H   0  0  0  0  0  0  0  0  0  0  0  0
  144.3440   74.5547  216.9543 H   0  0  0  0  0  0  0  0  0  0  0  0
  142.1604   73.4035  216.8599 H   0  0  0  0  0  0  0  0  0  0  0  0
  142.0041   73.2827  218.5870 H   0  0  0  0  0  0  0  0  0  0  0  0
  141.3818   75.5962  216.7771 H   0  0  0  0  0  0  0  0  0  0  0  0
  140.8575   75.3825  218.4552 H   0  0  0  0  0  0  0  0  0  0  0  0
  143.2563   76.8182  217.3683 H   0  0  0  0  0  0  0  0  0  0  0  0
  142.4482   77.0929  218.8937 H   0  0  0  0  0  0  0  0  0  0  0  0
  143.2810   75.0230  219.7170 H   0  0  0  0  0  0  0  0  0  0  0  0
  140.6844   76.4818  219.4677 H   0  0  0  0  0  0  0  0  0  0  0  0
  139.2403   77.3782  220.1773 H   0  0  0  0  0  0  0  0  0  0  0  0
  141.9447   78.2732  219.5948 H   0  0  0  0  0  0  0  0  0  0  0  0
  140.3429   79.1506  219.7469 H   0  0  0  0  0  0  0  0  0  0  0  0
  142.5182   80.5642  220.5428 H   0  0  0  0  0  0  0  0  0  0  0  0
  143.2576   81.5922  222.6777 H   0  0  0  0  0  0  0  0  0  0  0  0
  142.5700   80.5414  224.8386 H   0  0  0  0  0  0  0  0  0  0  0  0
  141.1659   78.5059  224.8350 H   0  0  0  0  0  0  0  0  0  0  0  0
  140.4935   76.5672  223.6178 H   0  0  0  0  0  0  0  0  0  0  0  0
  139.1505   77.4448  222.8368 H   0  0  0  0  0  0  0  0  0  0  0  0
  141.3218   71.8746  224.2338 H   0  0  0  0  0  0  0  0  0  0  0  0
  139.9564   72.8316  224.9025 H   0  0  0  0  0  0  0  0  0  0  0  0
  1  2  2  0
  2  3  1  0
  3  4  2  0
  4  5  1  0
  5  6  2  0
  5  7  1  0
  7  8  1  0
  8  9  1  0
  9 10  1  0
 10 11  1  0
 11 12  2  0
 12 13  1  0
 13 14  1  0
 14 15  1  0
 15 16  1  0
 16 17  1  0
 17 18  1  0
 18 19  1  0
 19 20  1  0
 20 21  1  0
 13 22  2  0
 22 23  1  0
 23 24  1  0
 24 25  1  0
 25 26  1  0
 26 27  1  0
 27 28  2  0
 28 29  1  0
 29 30  2  0
 30 31  1  0
 31 32  2  0
 32 33  1  0
 23 34  2  0
  9 35  1  0
  6  1  1  0
 34 11  1  0
 35  4  1  0
 21 17  1  0
 33 24  1  0
 32 27  1  0
  1 36  1  0
  2 37  1  0
  3 38  1  0
  6 39  1  0
  7 40  1  0
  7 41  1  0
  8 42  1  0
  8 43  1  0
  9 44  1  1
 10 45  1  0
 14 46  1  0
 15 47  1  0
 15 48  1  0
 16 49  1  0
 16 50  1  0
 17 51  1  6
 18 52  1  0
 18 53  1  0
 19 54  1  0
 19 55  1  0
 20 56  1  0
 20 57  1  0
 21 58  1  0
 25 59  1  0
 25 60  1  0
 26 61  1  0
 26 62  1  0
 28 63  1  0
 29 64  1  0
 30 65  1  0
 31 66  1  0
 33 67  1  0
 33 68  1  0
 35 69  1  0
 35 70  1  0
M  END
>  <smiles>  (131) 
c1ccc2c(c1)CCC(Nc1nc(NCCC3CCCN3)nc(N3CCc4ccccc4C3)n1)C2

>  <score_type>  (131) 
oracle

>  <origin>  (131) 
autodockgpu

>  <m_score__min__energy>  (131) 
-10.69

>  <m_primary>  (131) 
energy

>  <rmsd>  (131) 
11.544210509589929

>  <m_score__min__rmsd>  (131) 
11.544210509589929

>  <meeko>  (131) 
{"free_energy": -9.08, "intermolecular_energy": -11.17, "internal_energy": -2.42, "cluster_size": 21, "cluster_id": 2, "rank_in_cluster": 15}

>  <energy>  (131) 
-10.15

>  <cluster_rmsd>  (131) 
0.0

>  <cluster>  (131) 
3

$$$$

     RDKit          3D

 70 75  0  0  1  0  0  0  0  0999 V2000
  140.9690   69.0900  228.4080 C   0  0  0  0  0  0  0  0  0  0  0  0
  141.3870   70.3940  228.3250 C   0  0  0  0  0  0  0  0  0  0  0  0
  141.0330   71.1450  227.2120 C   0  0  0  0  0  0  0  0  0  0  0  0
  140.2690   70.6200  226.1790 C   0  0  0  0  0  0  0  0  0  0  0  0
  139.8550   69.3170  226.2710 C   0  0  0  0  0  0  0  0  0  0  0  0
  140.2020   68.5510  227.3780 C   0  0  0  0  0  0  0  0  0  0  0  0
  139.0270   68.6530  225.2150 C   0  0  0  0  0  0  0  0  0  0  0  0
  139.3590   69.3530  223.9080 C   0  0  0  0  0  0  0  0  0  0  0  0
  138.9990   70.8160  224.1010 C   0  0  2  0  0  0  0  0  0  0  0  0
  138.7650   71.4940  222.8720 N   0  0  0  0  0  0  0  0  0  0  0  0
  139.6700   72.4010  222.2590 C   0  0  0  0  0  0  0  0  0  0  0  0
  140.8540   71.9900  221.7260 N   0  0  0  0  0  0  0  0  0  0  0  0
  141.7000   72.8560  221.1520 C   0  0  0  0  0  0  0  0  0  0  0  0
  142.9380   72.5190  220.5650 N   0  0  0  0  0  0  0  0  0  0  0  0
  143.9760   73.5540  220.6030 C   0  0  0  0  0  0  0  0  0  0  0  0
  144.4440   73.9020  219.2170 C   0  0  0  0  0  0  0  0  0  0  0  0
  143.5020   74.9070  218.6190 C   0  0  1  0  0  0  0  0  0  0  0  0
  143.5010   76.2360  219.3800 C   0  0  0  0  0  0  0  0  0  0  0  0
  142.9310   77.1830  218.3200 C   0  0  0  0  0  0  0  0  0  0  0  0
  142.9830   76.4250  217.0140 C   0  0  0  0  0  0  0  0  0  0  0  0
  143.9350   75.3670  217.3010 N   0  0  0  0  0  0  0  0  0  0  0  0
  141.3440   74.1560  221.1180 N   0  0  0  0  0  0  0  0  0  0  0  0
  140.1910   74.6140  221.6290 C   0  0  0  0  0  0  0  0  0  0  0  0
  139.9190   76.0050  221.5320 N   0  0  0  0  0  0  0  0  0  0  0  0
  139.6480   76.6280  220.2600 C   0  0  0  0  0  0  0  0  0  0  0  0
  140.4220   77.8660  219.9790 C   0  0  0  0  0  0  0  0  0  0  0  0
  141.0260   78.4890  221.1760 C   0  0  0  0  0  0  0  0  0  0  0  0
  141.8580   79.5740  220.9680 C   0  0  0  0  0  0  0  0  0  0  0  0
  142.4600   80.2080  222.0320 C   0  0  0  0  0  0  0  0  0  0  0  0
  142.2170   79.7380  223.3170 C   0  0  0  0  0  0  0  0  0  0  0  0
  141.3870   78.6560  223.5150 C   0  0  0  0  0  0  0  0  0  0  0  0
  140.7860   78.0260  222.4400 C   0  0  0  0  0  0  0  0  0  0  0  0
  139.9010   76.8650  222.7100 C   0  0  0  0  0  0  0  0  0  0  0  0
  139.3710   73.7290  222.1920 N   0  0  0  0  0  0  0  0  0  0  0  0
  139.9490   71.5160  225.0370 C   0  0  0  0  0  0  0  0  0  0  0  0
  141.2372   68.4757  229.2802 H   0  0  0  0  0  0  0  0  0  0  0  0
  141.9935   70.8380  229.1281 H   0  0  0  0  0  0  0  0  0  0  0  0
  141.3691   72.1904  227.1468 H   0  0  0  0  0  0  0  0  0  0  0  0
  139.8663   67.5054  227.4413 H   0  0  0  0  0  0  0  0  0  0  0  0
  139.2795   67.5844  225.1493 H   0  0  0  0  0  0  0  0  0  0  0  0
  137.9538   68.7251  225.4451 H   0  0  0  0  0  0  0  0  0  0  0  0
  140.4311   69.2515  223.6838 H   0  0  0  0  0  0  0  0  0  0  0  0
  138.8021   68.9130  223.0676 H   0  0  0  0  0  0  0  0  0  0  0  0
  138.0255   70.8464  224.6122 H   0  0  0  0  0  0  0  0  0  0  0  0
  137.8490   71.3110  222.3810 H   0  0  0  0  0  0  0  0  0  0  0  0
  143.1520   71.5960  220.1150 H   0  0  0  0  0  0  0  0  0  0  0  0
  143.5666   74.4561  221.0811 H   0  0  0  0  0  0  0  0  0  0  0  0
  144.8330   73.1687  221.1748 H   0  0  0  0  0  0  0  0  0  0  0  0
  145.4563   74.3296  219.2664 H   0  0  0  0  0  0  0  0  0  0  0  0
  144.4641   72.9958  218.5938 H   0  0  0  0  0  0  0  0  0  0  0  0
  142.5407   74.3724  218.6259 H   0  0  0  0  0  0  0  0  0  0  0  0
  142.8557   76.1910  220.2697 H   0  0  0  0  0  0  0  0  0  0  0  0
  144.4851   76.5342  219.7706 H   0  0  0  0  0  0  0  0  0  0  0  0
  141.8928   77.4510  218.5654 H   0  0  0  0  0  0  0  0  0  0  0  0
  143.5052   78.1197  218.2656 H   0  0  0  0  0  0  0  0  0  0  0  0
  141.9968   76.0125  216.7545 H   0  0  0  0  0  0  0  0  0  0  0  0
  143.2690   77.0506  216.1556 H   0  0  0  0  0  0  0  0  0  0  0  0
  144.8640   75.8610  217.4590 H   0  0  0  0  0  0  0  0  0  0  0  0
  139.8760   75.8982  219.4691 H   0  0  0  0  0  0  0  0  0  0  0  0
  138.5911   76.9313  220.2899 H   0  0  0  0  0  0  0  0  0  0  0  0
  141.2300   77.6153  219.2759 H   0  0  0  0  0  0  0  0  0  0  0  0
  139.7101   78.5969  219.5679 H   0  0  0  0  0  0  0  0  0  0  0  0
  142.0403   79.9334  219.9445 H   0  0  0  0  0  0  0  0  0  0  0  0
  143.1216   81.0713  221.8676 H   0  0  0  0  0  0  0  0  0  0  0  0
  142.6890   80.2316  224.1793 H   0  0  0  0  0  0  0  0  0  0  0  0
  141.2009   78.2904  224.5356 H   0  0  0  0  0  0  0  0  0  0  0  0
  140.2700   76.3090  223.5845 H   0  0  0  0  0  0  0  0  0  0  0  0
  138.8763   77.2048  222.9211 H   0  0  0  0  0  0  0  0  0  0  0  0
  140.8744   71.7689  224.4988 H   0  0  0  0  0  0  0  0  0  0  0  0
  139.4807   72.4373  225.4136 H   0  0  0  0  0  0  0  0  0  0  0  0
  1  2  2  0
  2  3  1  0
  3  4  2  0
  4  5  1  0
  5  6  2  0
  5  7  1  0
  7  8  1  0
  8  9  1  0
  9 10  1  0
 10 11  1  0
 11 12  2  0
 12 13  1  0
 13 14  1  0
 14 15  1  0
 15 16  1  0
 16 17  1  0
 17 18  1  0
 18 19  1  0
 19 20  1  0
 20 21  1  0
 13 22  2  0
 22 23  1  0
 23 24  1  0
 24 25  1  0
 25 26  1  0
 26 27  1  0
 27 28  2  0
 28 29  1  0
 29 30  2  0
 30 31  1  0
 31 32  2  0
 32 33  1  0
 23 34  2  0
  9 35  1  0
  6  1  1  0
 34 11  1  0
 35  4  1  0
 21 17  1  0
 33 24  1  0
 32 27  1  0
  1 36  1  0
  2 37  1  0
  3 38  1  0
  6 39  1  0
  7 40  1  0
  7 41  1  0
  8 42  1  0
  8 43  1  0
  9 44  1  1
 10 45  1  0
 14 46  1  0
 15 47  1  0
 15 48  1  0
 16 49  1  0
 16 50  1  0
 17 51  1  6
 18 52  1  0
 18 53  1  0
 19 54  1  0
 19 55  1  0
 20 56  1  0
 20 57  1  0
 21 58  1  0
 25 59  1  0
 25 60  1  0
 26 61  1  0
 26 62  1  0
 28 63  1  0
 29 64  1  0
 30 65  1  0
 31 66  1  0
 33 67  1  0
 33 68  1  0
 35 69  1  0
 35 70  1  0
M  END
>  <smiles>  (132) 
c1ccc2c(c1)CCC(Nc1nc(NCCC3CCCN3)nc(N3CCc4ccccc4C3)n1)C2

>  <score_type>  (132) 
oracle

>  <origin>  (132) 
autodockgpu

>  <m_score__min__energy>  (132) 
-10.69

>  <m_primary>  (132) 
energy

>  <rmsd>  (132) 
11.976490521747948

>  <m_score__min__rmsd>  (132) 
11.976490521747948

>  <meeko>  (132) 
{"free_energy": -9.98, "intermolecular_energy": -12.07, "internal_energy": -1.78, "cluster_size": 21, "cluster_id": 2, "rank_in_cluster": 5}

>  <energy>  (132) 
-9.99

>  <cluster_rmsd>  (132) 
0.0

>  <cluster>  (132) 
4

$$$$

     RDKit          3D

 70 75  0  0  1  0  0  0  0  0999 V2000
  141.0440   68.1270  228.1680 C   0  0  0  0  0  0  0  0  0  0  0  0
  141.4210   69.4150  228.4540 C   0  0  0  0  0  0  0  0  0  0  0  0
  141.0780   70.4290  227.5700 C   0  0  0  0  0  0  0  0  0  0  0  0
  140.3660   70.1830  226.4040 C   0  0  0  0  0  0  0  0  0  0  0  0
  139.9940   68.8950  226.1260 C   0  0  0  0  0  0  0  0  0  0  0  0
  140.3290   67.8680  227.0010 C   0  0  0  0  0  0  0  0  0  0  0  0
  139.2230   68.5200  224.8980 C   0  0  0  0  0  0  0  0  0  0  0  0
  139.5740   69.5530  223.8410 C   0  0  0  0  0  0  0  0  0  0  0  0
  139.1590   70.9010  224.4050 C   0  0  2  0  0  0  0  0  0  0  0  0
  138.9430   71.8800  223.3940 N   0  0  0  0  0  0  0  0  0  0  0  0
  139.9110   72.2890  222.4390 C   0  0  0  0  0  0  0  0  0  0  0  0
  140.3370   73.5790  222.3480 N   0  0  0  0  0  0  0  0  0  0  0  0
  141.2500   73.9520  221.4400 C   0  0  0  0  0  0  0  0  0  0  0  0
  141.7560   75.2590  221.2830 N   0  0  0  0  0  0  0  0  0  0  0  0
  141.6420   75.8400  219.9410 C   0  0  0  0  0  0  0  0  0  0  0  0
  140.5120   76.8290  219.8740 C   0  0  0  0  0  0  0  0  0  0  0  0
  140.7640   77.9310  220.8630 C   0  0  1  0  0  0  0  0  0  0  0  0
  140.2460   77.5930  222.2630 C   0  0  0  0  0  0  0  0  0  0  0  0
  141.0650   78.5600  223.1230 C   0  0  0  0  0  0  0  0  0  0  0  0
  142.1620   79.0850  222.2270 C   0  0  0  0  0  0  0  0  0  0  0  0
  142.1860   78.1100  221.1520 N   0  0  0  0  0  0  0  0  0  0  0  0
  141.7370   73.0060  220.6120 N   0  0  0  0  0  0  0  0  0  0  0  0
  141.3520   71.7220  220.6580 C   0  0  0  0  0  0  0  0  0  0  0  0
  141.9370   70.8120  219.7380 N   0  0  0  0  0  0  0  0  0  0  0  0
  141.3350   69.5290  219.4670 C   0  0  0  0  0  0  0  0  0  0  0  0
  142.2570   68.3650  219.5330 C   0  0  0  0  0  0  0  0  0  0  0  0
  143.6900   68.7210  219.4570 C   0  0  0  0  0  0  0  0  0  0  0  0
  144.6020   67.6950  219.6350 C   0  0  0  0  0  0  0  0  0  0  0  0
  145.9550   67.9460  219.5790 C   0  0  0  0  0  0  0  0  0  0  0  0
  146.3870   69.2460  219.3420 C   0  0  0  0  0  0  0  0  0  0  0  0
  145.4710   70.2600  219.1670 C   0  0  0  0  0  0  0  0  0  0  0  0
  144.1140   69.9990  219.2230 C   0  0  0  0  0  0  0  0  0  0  0  0
  143.1710   71.1290  219.0270 C   0  0  0  0  0  0  0  0  0  0  0  0
  140.4440   71.3820  221.5710 N   0  0  0  0  0  0  0  0  0  0  0  0
  140.0540   71.3460  225.5320 C   0  0  0  0  0  0  0  0  0  0  0  0
  141.3039   67.3070  228.8536 H   0  0  0  0  0  0  0  0  0  0  0  0
  141.9866   69.6407  229.3701 H   0  0  0  0  0  0  0  0  0  0  0  0
  141.3803   71.4611  227.8011 H   0  0  0  0  0  0  0  0  0  0  0  0
  140.0252   66.8366  226.7686 H   0  0  0  0  0  0  0  0  0  0  0  0
  139.5128   67.5146  224.5587 H   0  0  0  0  0  0  0  0  0  0  0  0
  138.1410   68.5024  225.0955 H   0  0  0  0  0  0  0  0  0  0  0  0
  140.6557   69.5407  223.6413 H   0  0  0  0  0  0  0  0  0  0  0  0
  139.0603   69.3426  222.8914 H   0  0  0  0  0  0  0  0  0  0  0  0
  138.1690   70.7688  224.8659 H   0  0  0  0  0  0  0  0  0  0  0  0
  137.9930   72.3360  223.3530 H   0  0  0  0  0  0  0  0  0  0  0  0
  142.1970   75.8230  222.0490 H   0  0  0  0  0  0  0  0  0  0  0  0
  142.5828   76.3518  219.6899 H   0  0  0  0  0  0  0  0  0  0  0  0
  141.4400   75.0295  219.2253 H   0  0  0  0  0  0  0  0  0  0  0  0
  140.4514   77.2509  218.8599 H   0  0  0  0  0  0  0  0  0  0  0  0
  139.5640   76.3253  220.1140 H   0  0  0  0  0  0  0  0  0  0  0  0
  140.2784   78.7975  220.3903 H   0  0  0  0  0  0  0  0  0  0  0  0
  139.1672   77.7887  222.3521 H   0  0  0  0  0  0  0  0  0  0  0  0
  140.3564   76.5349  222.5426 H   0  0  0  0  0  0  0  0  0  0  0  0
  140.4319   79.3869  223.4772 H   0  0  0  0  0  0  0  0  0  0  0  0
  141.4754   78.0601  224.0128 H   0  0  0  0  0  0  0  0  0  0  0  0
  141.9188   80.0885  221.8477 H   0  0  0  0  0  0  0  0  0  0  0  0
  143.1294   79.1962  222.7387 H   0  0  0  0  0  0  0  0  0  0  0  0
  142.5040   77.2010  221.6050 H   0  0  0  0  0  0  0  0  0  0  0  0
  140.5328   69.3685  220.2023 H   0  0  0  0  0  0  0  0  0  0  0  0
  140.9792   69.5750  218.4272 H   0  0  0  0  0  0  0  0  0  0  0  0
  142.0821   67.8400  220.4837 H   0  0  0  0  0  0  0  0  0  0  0  0
  142.0399   67.7399  218.6543 H   0  0  0  0  0  0  0  0  0  0  0  0
  144.2436   66.6721  219.8225 H   0  0  0  0  0  0  0  0  0  0  0  0
  146.6813   67.1319  219.7194 H   0  0  0  0  0  0  0  0  0  0  0  0
  147.4638   69.4657  219.2940 H   0  0  0  0  0  0  0  0  0  0  0  0
  145.8219   71.2859  218.9812 H   0  0  0  0  0  0  0  0  0  0  0  0
  143.6077   72.0544  219.4306 H   0  0  0  0  0  0  0  0  0  0  0  0
  142.9687   71.2778  217.9560 H   0  0  0  0  0  0  0  0  0  0  0  0
  140.9875   71.7560  225.1192 H   0  0  0  0  0  0  0  0  0  0  0  0
  139.5434   72.1211  226.1223 H   0  0  0  0  0  0  0  0  0  0  0  0
  1  2  2  0
  2  3  1  0
  3  4  2  0
  4  5  1  0
  5  6  2  0
  5  7  1  0
  7  8  1  0
  8  9  1  0
  9 10  1  0
 10 11  1  0
 11 12  2  0
 12 13  1  0
 13 14  1  0
 14 15  1  0
 15 16  1  0
 16 17  1  0
 17 18  1  0
 18 19  1  0
 19 20  1  0
 20 21  1  0
 13 22  2  0
 22 23  1  0
 23 24  1  0
 24 25  1  0
 25 26  1  0
 26 27  1  0
 27 28  2  0
 28 29  1  0
 29 30  2  0
 30 31  1  0
 31 32  2  0
 32 33  1  0
 23 34  2  0
  9 35  1  0
  6  1  1  0
 34 11  1  0
 35  4  1  0
 21 17  1  0
 33 24  1  0
 32 27  1  0
  1 36  1  0
  2 37  1  0
  3 38  1  0
  6 39  1  0
  7 40  1  0
  7 41  1  0
  8 42  1  0
  8 43  1  0
  9 44  1  1
 10 45  1  0
 14 46  1  0
 15 47  1  0
 15 48  1  0
 16 49  1  0
 16 50  1  0
 17 51  1  6
 18 52  1  0
 18 53  1  0
 19 54  1  0
 19 55  1  0
 20 56  1  0
 20 57  1  0
 21 58  1  0
 25 59  1  0
 25 60  1  0
 26 61  1  0
 26 62  1  0
 28 63  1  0
 29 64  1  0
 30 65  1  0
 31 66  1  0
 33 67  1  0
 33 68  1  0
 35 69  1  0
 35 70  1  0
M  END
>  <smiles>  (133) 
c1ccc2c(c1)CCC(Nc1nc(NCCC3CCCN3)nc(N3CCc4ccccc4C3)n1)C2

>  <score_type>  (133) 
oracle

>  <origin>  (133) 
autodockgpu

>  <m_score__min__energy>  (133) 
-10.69

>  <m_primary>  (133) 
energy

>  <rmsd>  (133) 
12.27232875906784

>  <m_score__min__rmsd>  (133) 
12.27232875906784

>  <meeko>  (133) 
{"free_energy": -10.21, "intermolecular_energy": -12.3, "internal_energy": -1.38, "cluster_size": 9, "cluster_id": 1, "rank_in_cluster": 3}

>  <energy>  (133) 
-9.95

>  <cluster_rmsd>  (133) 
0.84

>  <cluster>  (133) 
4

$$$$

     RDKit          3D

 70 75  0  0  1  0  0  0  0  0999 V2000
  140.5480   67.4820  227.2090 C   0  0  0  0  0  0  0  0  0  0  0  0
  139.3620   67.2300  226.5680 C   0  0  0  0  0  0  0  0  0  0  0  0
  138.9070   68.1300  225.6130 C   0  0  0  0  0  0  0  0  0  0  0  0
  139.6150   69.2790  225.2860 C   0  0  0  0  0  0  0  0  0  0  0  0
  140.7990   69.5230  225.9310 C   0  0  0  0  0  0  0  0  0  0  0  0
  141.2670   68.6310  226.8890 C   0  0  0  0  0  0  0  0  0  0  0  0
  141.6410   70.7290  225.6530 C   0  0  0  0  0  0  0  0  0  0  0  0
  140.6890   71.8140  225.1780 C   0  0  0  0  0  0  0  0  0  0  0  0
  140.0100   71.2730  223.9310 C   0  0  2  0  0  0  0  0  0  0  0  0
  139.4960   72.3010  223.0920 N   0  0  0  0  0  0  0  0  0  0  0  0
  140.2860   73.1700  222.2930 C   0  0  0  0  0  0  0  0  0  0  0  0
  141.3090   72.7110  221.5200 N   0  0  0  0  0  0  0  0  0  0  0  0
  142.0470   73.5420  220.7720 C   0  0  0  0  0  0  0  0  0  0  0  0
  143.1150   73.1530  219.9360 N   0  0  0  0  0  0  0  0  0  0  0  0
  144.0010   74.2280  219.4760 C   0  0  0  0  0  0  0  0  0  0  0  0
  144.0780   74.2590  217.9740 C   0  0  0  0  0  0  0  0  0  0  0  0
  143.6620   75.6190  217.4900 C   0  0  1  0  0  0  0  0  0  0  0  0
  142.3200   75.5940  216.7540 C   0  0  0  0  0  0  0  0  0  0  0  0
  141.9000   77.0630  216.8550 C   0  0  0  0  0  0  0  0  0  0  0  0
  142.8170   77.6870  217.8810 C   0  0  0  0  0  0  0  0  0  0  0  0
  143.3370   76.5300  218.5850 N   0  0  0  0  0  0  0  0  0  0  0  0
  141.7470   74.8560  220.8070 N   0  0  0  0  0  0  0  0  0  0  0  0
  140.7510   75.3610  221.5500 C   0  0  0  0  0  0  0  0  0  0  0  0
  140.5230   76.7620  221.5040 N   0  0  0  0  0  0  0  0  0  0  0  0
  140.6230   77.4970  220.2670 C   0  0  0  0  0  0  0  0  0  0  0  0
  141.4490   78.7310  220.3240 C   0  0  0  0  0  0  0  0  0  0  0  0
  141.6950   79.2340  221.6920 C   0  0  0  0  0  0  0  0  0  0  0  0
  142.5570   80.3090  221.8210 C   0  0  0  0  0  0  0  0  0  0  0  0
  142.8390   80.8340  223.0630 C   0  0  0  0  0  0  0  0  0  0  0  0
  142.2420   80.2660  224.1830 C   0  0  0  0  0  0  0  0  0  0  0  0
  141.3850   79.1950  224.0440 C   0  0  0  0  0  0  0  0  0  0  0  0
  141.1080   78.6750  222.7930 C   0  0  0  0  0  0  0  0  0  0  0  0
  140.1780   77.5210  222.7010 C   0  0  0  0  0  0  0  0  0  0  0  0
  140.0350   74.5100  222.2820 N   0  0  0  0  0  0  0  0  0  0  0  0
  139.0340   70.1710  224.2490 C   0  0  0  0  0  0  0  0  0  0  0  0
  140.9278   66.7831  227.9688 H   0  0  0  0  0  0  0  0  0  0  0  0
  138.7795   66.3280  226.8068 H   0  0  0  0  0  0  0  0  0  0  0  0
  137.9558   67.9262  225.0995 H   0  0  0  0  0  0  0  0  0  0  0  0
  142.2186   68.8356  227.4015 H   0  0  0  0  0  0  0  0  0  0  0  0
  142.1591   71.0510  226.5684 H   0  0  0  0  0  0  0  0  0  0  0  0
  142.4105   70.5135  224.8971 H   0  0  0  0  0  0  0  0  0  0  0  0
  139.9410   72.0306  225.9549 H   0  0  0  0  0  0  0  0  0  0  0  0
  141.2257   72.7504  224.9655 H   0  0  0  0  0  0  0  0  0  0  0  0
  140.7881   70.7933  223.3191 H   0  0  0  0  0  0  0  0  0  0  0  0
  138.4490   72.4280  223.0630 H   0  0  0  0  0  0  0  0  0  0  0  0
  143.3060   72.1670  219.6330 H   0  0  0  0  0  0  0  0  0  0  0  0
  143.6132   75.1923  219.8361 H   0  0  0  0  0  0  0  0  0  0  0  0
  145.0098   74.0447  219.8744 H   0  0  0  0  0  0  0  0  0  0  0  0
  145.1100   74.0534  217.6535 H   0  0  0  0  0  0  0  0  0  0  0  0
  143.4093   73.4942  217.5521 H   0  0  0  0  0  0  0  0  0  0  0  0
  144.5189   75.9297  216.8742 H   0  0  0  0  0  0  0  0  0  0  0  0
  142.4401   75.2799  215.7067 H   0  0  0  0  0  0  0  0  0  0  0  0
  141.5891   74.8851  217.1703 H   0  0  0  0  0  0  0  0  0  0  0  0
  142.0184   77.5625  215.8821 H   0  0  0  0  0  0  0  0  0  0  0  0
  140.8435   77.1617  217.1449 H   0  0  0  0  0  0  0  0  0  0  0  0
  143.6259   78.2546  217.3978 H   0  0  0  0  0  0  0  0  0  0  0  0
  142.3110   78.4088  218.5389 H   0  0  0  0  0  0  0  0  0  0  0  0
  142.4970   76.1000  219.0780 H   0  0  0  0  0  0  0  0  0  0  0  0
  141.0614   76.8298  219.5103 H   0  0  0  0  0  0  0  0  0  0  0  0
  139.6014   77.8268  220.0269 H   0  0  0  0  0  0  0  0  0  0  0  0
  142.4209   78.5173  219.8553 H   0  0  0  0  0  0  0  0  0  0  0  0
  140.8839   79.5137  219.7968 H   0  0  0  0  0  0  0  0  0  0  0  0
  143.0205   80.7476  220.9250 H   0  0  0  0  0  0  0  0  0  0  0  0
  143.5247   81.6879  223.1669 H   0  0  0  0  0  0  0  0  0  0  0  0
  142.4541   80.6724  225.1829 H   0  0  0  0  0  0  0  0  0  0  0  0
  140.9179   78.7507  224.9353 H   0  0  0  0  0  0  0  0  0  0  0  0
  140.2839   76.8836  223.5912 H   0  0  0  0  0  0  0  0  0  0  0  0
  139.1367   77.8713  222.6460 H   0  0  0  0  0  0  0  0  0  0  0  0
  138.0970   70.6081  224.6244 H   0  0  0  0  0  0  0  0  0  0  0  0
  138.8281   69.5893  223.3384 H   0  0  0  0  0  0  0  0  0  0  0  0
  1  2  2  0
  2  3  1  0
  3  4  2  0
  4  5  1  0
  5  6  2  0
  5  7  1  0
  7  8  1  0
  8  9  1  0
  9 10  1  0
 10 11  1  0
 11 12  2  0
 12 13  1  0
 13 14  1  0
 14 15  1  0
 15 16  1  0
 16 17  1  0
 17 18  1  0
 18 19  1  0
 19 20  1  0
 20 21  1  0
 13 22  2  0
 22 23  1  0
 23 24  1  0
 24 25  1  0
 25 26  1  0
 26 27  1  0
 27 28  2  0
 28 29  1  0
 29 30  2  0
 30 31  1  0
 31 32  2  0
 32 33  1  0
 23 34  2  0
  9 35  1  0
  6  1  1  0
 34 11  1  0
 35  4  1  0
 21 17  1  0
 33 24  1  0
 32 27  1  0
  1 36  1  0
  2 37  1  0
  3 38  1  0
  6 39  1  0
  7 40  1  0
  7 41  1  0
  8 42  1  0
  8 43  1  0
  9 44  1  6
 10 45  1  0
 14 46  1  0
 15 47  1  0
 15 48  1  0
 16 49  1  0
 16 50  1  0
 17 51  1  6
 18 52  1  0
 18 53  1  0
 19 54  1  0
 19 55  1  0
 20 56  1  0
 20 57  1  0
 21 58  1  0
 25 59  1  0
 25 60  1  0
 26 61  1  0
 26 62  1  0
 28 63  1  0
 29 64  1  0
 30 65  1  0
 31 66  1  0
 33 67  1  0
 33 68  1  0
 35 69  1  0
 35 70  1  0
M  END
>  <smiles>  (134) 
c1ccc2c(c1)CCC(Nc1nc(NCCC3CCCN3)nc(N3CCc4ccccc4C3)n1)C2

>  <score_type>  (134) 
oracle

>  <origin>  (134) 
autodockgpu

>  <m_score__min__energy>  (134) 
-10.69

>  <m_primary>  (134) 
energy

>  <rmsd>  (134) 
12.009397526134302

>  <m_score__min__rmsd>  (134) 
12.009397526134302

>  <meeko>  (134) 
{"free_energy": -9.44, "intermolecular_energy": -11.53, "internal_energy": -1.99, "cluster_size": 21, "cluster_id": 2, "rank_in_cluster": 12}

>  <energy>  (134) 
-9.79

>  <cluster_rmsd>  (134) 
1.08

>  <cluster>  (134) 
4

$$$$

     RDKit          3D

 70 75  0  0  1  0  0  0  0  0999 V2000
  140.1440   68.5150  227.9970 C   0  0  0  0  0  0  0  0  0  0  0  0
  140.9900   69.5920  228.0860 C   0  0  0  0  0  0  0  0  0  0  0  0
  141.1170   70.4410  226.9960 C   0  0  0  0  0  0  0  0  0  0  0  0
  140.4160   70.2370  225.8150 C   0  0  0  0  0  0  0  0  0  0  0  0
  139.5730   69.1600  225.7340 C   0  0  0  0  0  0  0  0  0  0  0  0
  139.4350   68.3000  226.8180 C   0  0  0  0  0  0  0  0  0  0  0  0
  138.7700   68.8480  224.5100 C   0  0  0  0  0  0  0  0  0  0  0  0
  139.5470   69.4130  223.3330 C   0  0  0  0  0  0  0  0  0  0  0  0
  139.6800   70.9060  223.5840 C   0  0  2  0  0  0  0  0  0  0  0  0
  139.9140   71.6470  222.3920 N   0  0  0  0  0  0  0  0  0  0  0  0
  139.6060   73.0230  222.2160 C   0  0  0  0  0  0  0  0  0  0  0  0
  140.5620   73.9450  221.9170 N   0  0  0  0  0  0  0  0  0  0  0  0
  140.2570   75.2400  221.7550 C   0  0  0  0  0  0  0  0  0  0  0  0
  141.1780   76.2600  221.4340 N   0  0  0  0  0  0  0  0  0  0  0  0
  140.6140   77.4800  220.8470 C   0  0  0  0  0  0  0  0  0  0  0  0
  139.9450   78.3250  221.8950 C   0  0  0  0  0  0  0  0  0  0  0  0
  140.8940   79.4010  222.3370 C   0  0  1  0  0  0  0  0  0  0  0  0
  141.1490   79.3740  223.8460 C   0  0  0  0  0  0  0  0  0  0  0  0
  142.4700   80.1450  223.9360 C   0  0  0  0  0  0  0  0  0  0  0  0
  142.9960   80.2340  222.5230 C   0  0  0  0  0  0  0  0  0  0  0  0
  142.2530   79.1890  221.8430 N   0  0  0  0  0  0  0  0  0  0  0  0
  138.9680   75.6070  221.9000 N   0  0  0  0  0  0  0  0  0  0  0  0
  137.9880   74.7400  222.1940 C   0  0  0  0  0  0  0  0  0  0  0  0
  136.6640   75.2390  222.3180 N   0  0  0  0  0  0  0  0  0  0  0  0
  136.3280   76.5800  221.9070 C   0  0  0  0  0  0  0  0  0  0  0  0
  135.5600   77.3780  222.8980 C   0  0  0  0  0  0  0  0  0  0  0  0
  134.9110   76.5710  223.9540 C   0  0  0  0  0  0  0  0  0  0  0  0
  134.2820   77.2610  224.9750 C   0  0  0  0  0  0  0  0  0  0  0  0
  133.6560   76.5820  225.9970 C   0  0  0  0  0  0  0  0  0  0  0  0
  133.6680   75.1920  225.9840 C   0  0  0  0  0  0  0  0  0  0  0  0
  134.2980   74.5130  224.9620 C   0  0  0  0  0  0  0  0  0  0  0  0
  134.9230   75.2040  223.9400 C   0  0  0  0  0  0  0  0  0  0  0  0
  135.5850   74.4230  222.8650 C   0  0  0  0  0  0  0  0  0  0  0  0
  138.3210   73.4600  222.3480 N   0  0  0  0  0  0  0  0  0  0  0  0
  140.6300   71.2100  224.7120 C   0  0  0  0  0  0  0  0  0  0  0  0
  140.0272   67.8285  228.8485 H   0  0  0  0  0  0  0  0  0  0  0  0
  141.5593   69.7794  229.0084 H   0  0  0  0  0  0  0  0  0  0  0  0
  141.7952   71.3039  227.0699 H   0  0  0  0  0  0  0  0  0  0  0  0
  138.7562   67.4377  226.7430 H   0  0  0  0  0  0  0  0  0  0  0  0
  138.6506   67.7600  224.4002 H   0  0  0  0  0  0  0  0  0  0  0  0
  137.7629   69.2862  224.5708 H   0  0  0  0  0  0  0  0  0  0  0  0
  140.5417   68.9469  223.2747 H   0  0  0  0  0  0  0  0  0  0  0  0
  139.0319   69.2127  222.3819 H   0  0  0  0  0  0  0  0  0  0  0  0
  138.7012   71.2651  223.9349 H   0  0  0  0  0  0  0  0  0  0  0  0
  140.3480   71.1360  221.5770 H   0  0  0  0  0  0  0  0  0  0  0  0
  142.2140   76.1960  221.5870 H   0  0  0  0  0  0  0  0  0  0  0  0
  141.4227   78.0609  220.3794 H   0  0  0  0  0  0  0  0  0  0  0  0
  139.8620   77.1921  220.0976 H   0  0  0  0  0  0  0  0  0  0  0  0
  139.0379   78.7837  221.4746 H   0  0  0  0  0  0  0  0  0  0  0  0
  139.6682   77.6983  222.7556 H   0  0  0  0  0  0  0  0  0  0  0  0
  140.4100   80.3176  221.9687 H   0  0  0  0  0  0  0  0  0  0  0  0
  140.3463   79.8827  224.4000 H   0  0  0  0  0  0  0  0  0  0  0  0
  141.1840   78.3642  224.2809 H   0  0  0  0  0  0  0  0  0  0  0  0
  142.2980   81.1519  224.3441 H   0  0  0  0  0  0  0  0  0  0  0  0
  143.1862   79.6416  224.6020 H   0  0  0  0  0  0  0  0  0  0  0  0
  142.7875   81.2203  222.0829 H   0  0  0  0  0  0  0  0  0  0  0  0
  144.0870   80.1117  222.4534 H   0  0  0  0  0  0  0  0  0  0  0  0
  142.5810   78.2780  222.2850 H   0  0  0  0  0  0  0  0  0  0  0  0
  137.2656   77.1146  221.6945 H   0  0  0  0  0  0  0  0  0  0  0  0
  135.6715   76.4725  221.0310 H   0  0  0  0  0  0  0  0  0  0  0  0
  136.2501   78.0860  223.3801 H   0  0  0  0  0  0  0  0  0  0  0  0
  134.7536   77.8798  222.3431 H   0  0  0  0  0  0  0  0  0  0  0  0
  134.2818   78.3610  224.9706 H   0  0  0  0  0  0  0  0  0  0  0  0
  133.1555   77.1299  226.8090 H   0  0  0  0  0  0  0  0  0  0  0  0
  133.1735   74.6319  226.7913 H   0  0  0  0  0  0  0  0  0  0  0  0
  134.3034   73.4130  224.9598 H   0  0  0  0  0  0  0  0  0  0  0  0
  135.9949   73.4900  223.2790 H   0  0  0  0  0  0  0  0  0  0  0  0
  134.8618   74.1656  222.0772 H   0  0  0  0  0  0  0  0  0  0  0  0
  141.6659   71.1323  224.3502 H   0  0  0  0  0  0  0  0  0  0  0  0
  140.4466   72.2297  225.0815 H   0  0  0  0  0  0  0  0  0  0  0  0
  1  2  2  0
  2  3  1  0
  3  4  2  0
  4  5  1  0
  5  6  2  0
  5  7  1  0
  7  8  1  0
  8  9  1  0
  9 10  1  0
 10 11  1  0
 11 12  2  0
 12 13  1  0
 13 14  1  0
 14 15  1  0
 15 16  1  0
 16 17  1  0
 17 18  1  0
 18 19  1  0
 19 20  1  0
 20 21  1  0
 13 22  2  0
 22 23  1  0
 23 24  1  0
 24 25  1  0
 25 26  1  0
 26 27  1  0
 27 28  2  0
 28 29  1  0
 29 30  2  0
 30 31  1  0
 31 32  2  0
 32 33  1  0
 23 34  2  0
  9 35  1  0
  6  1  1  0
 34 11  1  0
 35  4  1  0
 21 17  1  0
 33 24  1  0
 32 27  1  0
  1 36  1  0
  2 37  1  0
  3 38  1  0
  6 39  1  0
  7 40  1  0
  7 41  1  0
  8 42  1  0
  8 43  1  0
  9 44  1  1
 10 45  1  0
 14 46  1  0
 15 47  1  0
 15 48  1  0
 16 49  1  0
 16 50  1  0
 17 51  1  6
 18 52  1  0
 18 53  1  0
 19 54  1  0
 19 55  1  0
 20 56  1  0
 20 57  1  0
 21 58  1  0
 25 59  1  0
 25 60  1  0
 26 61  1  0
 26 62  1  0
 28 63  1  0
 29 64  1  0
 30 65  1  0
 31 66  1  0
 33 67  1  0
 33 68  1  0
 35 69  1  0
 35 70  1  0
M  END
>  <smiles>  (135) 
c1ccc2c(c1)CCC(Nc1nc(NCCC3CCCN3)nc(N3CCc4ccccc4C3)n1)C2

>  <score_type>  (135) 
oracle

>  <origin>  (135) 
autodockgpu

>  <m_score__min__energy>  (135) 
-10.69

>  <m_primary>  (135) 
energy

>  <rmsd>  (135) 
12.044885045704634

>  <m_score__min__rmsd>  (135) 
12.044885045704634

>  <meeko>  (135) 
{"free_energy": -9.9, "intermolecular_energy": -11.99, "internal_energy": -1.15, "cluster_size": 5, "cluster_id": 5, "rank_in_cluster": 4}

>  <energy>  (135) 
-9.67

>  <cluster_rmsd>  (135) 
1.66

>  <cluster>  (135) 
4

$$$$

     RDKit          3D

 70 75  0  0  1  0  0  0  0  0999 V2000
  141.2590   82.8150  221.2690 C   0  0  0  0  0  0  0  0  0  0  0  0
  141.4500   82.2550  220.0310 C   0  0  0  0  0  0  0  0  0  0  0  0
  141.4490   80.8720  219.9100 C   0  0  0  0  0  0  0  0  0  0  0  0
  141.2610   80.0350  221.0020 C   0  0  0  0  0  0  0  0  0  0  0  0
  141.0710   80.6030  222.2340 C   0  0  0  0  0  0  0  0  0  0  0  0
  141.0700   81.9860  222.3720 C   0  0  0  0  0  0  0  0  0  0  0  0
  140.8580   79.7940  223.4760 C   0  0  0  0  0  0  0  0  0  0  0  0
  141.5620   78.4670  223.2470 C   0  0  0  0  0  0  0  0  0  0  0  0
  140.9140   77.8430  222.0230 C   0  0  2  0  0  0  0  0  0  0  0  0
  141.0800   76.4300  221.9690 N   0  0  0  0  0  0  0  0  0  0  0  0
  140.0190   75.4860  221.9720 C   0  0  0  0  0  0  0  0  0  0  0  0
  138.7470   75.8280  221.6270 N   0  0  0  0  0  0  0  0  0  0  0  0
  137.7550   74.9270  221.6360 C   0  0  0  0  0  0  0  0  0  0  0  0
  136.4140   75.1880  221.2830 N   0  0  0  0  0  0  0  0  0  0  0  0
  136.2080   76.0120  220.0880 C   0  0  0  0  0  0  0  0  0  0  0  0
  135.2640   77.1480  220.3700 C   0  0  0  0  0  0  0  0  0  0  0  0
  136.0220   78.2650  221.0270 C   0  0  1  0  0  0  0  0  0  0  0  0
  136.3230   77.9830  222.5010 C   0  0  0  0  0  0  0  0  0  0  0  0
  137.4900   78.9420  222.7530 C   0  0  0  0  0  0  0  0  0  0  0  0
  137.9500   79.4040  221.3910 C   0  0  0  0  0  0  0  0  0  0  0  0
  137.3820   78.4010  220.5090 N   0  0  0  0  0  0  0  0  0  0  0  0
  138.0540   73.6640  222.0010 N   0  0  0  0  0  0  0  0  0  0  0  0
  139.2900   73.2740  222.3490 C   0  0  0  0  0  0  0  0  0  0  0  0
  139.4880   71.9150  222.7110 N   0  0  0  0  0  0  0  0  0  0  0  0
  138.5110   70.9040  222.3900 C   0  0  0  0  0  0  0  0  0  0  0  0
  138.1210   70.0140  223.5150 C   0  0  0  0  0  0  0  0  0  0  0  0
  139.0670   70.0240  224.6520 C   0  0  0  0  0  0  0  0  0  0  0  0
  138.7010   69.3110  225.7800 C   0  0  0  0  0  0  0  0  0  0  0  0
  139.5270   69.2720  226.8810 C   0  0  0  0  0  0  0  0  0  0  0  0
  140.7340   69.9610  226.8390 C   0  0  0  0  0  0  0  0  0  0  0  0
  141.0890   70.6680  225.7100 C   0  0  0  0  0  0  0  0  0  0  0  0
  140.2540   70.7010  224.6090 C   0  0  0  0  0  0  0  0  0  0  0  0
  140.6860   71.4790  223.4200 C   0  0  0  0  0  0  0  0  0  0  0  0
  140.2540   74.1920  222.3300 N   0  0  0  0  0  0  0  0  0  0  0  0
  141.2790   78.5690  220.7550 C   0  0  0  0  0  0  0  0  0  0  0  0
  141.2552   83.9084  221.3891 H   0  0  0  0  0  0  0  0  0  0  0  0
  141.6017   82.8924  219.1475 H   0  0  0  0  0  0  0  0  0  0  0  0
  141.6021   80.4246  218.9168 H   0  0  0  0  0  0  0  0  0  0  0  0
  140.9179   82.4319  223.3660 H   0  0  0  0  0  0  0  0  0  0  0  0
  141.2913   80.3099  224.3455 H   0  0  0  0  0  0  0  0  0  0  0  0
  139.7868   79.6483  223.6792 H   0  0  0  0  0  0  0  0  0  0  0  0
  142.6347   78.6315  223.0673 H   0  0  0  0  0  0  0  0  0  0  0  0
  141.4705   77.8105  224.1248 H   0  0  0  0  0  0  0  0  0  0  0  0
  139.8275   77.9808  222.1255 H   0  0  0  0  0  0  0  0  0  0  0  0
  142.0670   76.0580  221.9250 H   0  0  0  0  0  0  0  0  0  0  0  0
  135.5800   74.8370  221.8140 H   0  0  0  0  0  0  0  0  0  0  0  0
  137.1758   76.4214  219.7627 H   0  0  0  0  0  0  0  0  0  0  0  0
  135.7704   75.3815  219.3000 H   0  0  0  0  0  0  0  0  0  0  0  0
  134.8255   77.5054  219.4266 H   0  0  0  0  0  0  0  0  0  0  0  0
  134.4591   76.8043  221.0362 H   0  0  0  0  0  0  0  0  0  0  0  0
  135.3735   79.1355  220.8488 H   0  0  0  0  0  0  0  0  0  0  0  0
  135.4606   78.2200  223.1414 H   0  0  0  0  0  0  0  0  0  0  0  0
  136.5475   76.9293  222.7232 H   0  0  0  0  0  0  0  0  0  0  0  0
  137.1566   79.8000  223.3552 H   0  0  0  0  0  0  0  0  0  0  0  0
  138.3029   78.4507  223.3078 H   0  0  0  0  0  0  0  0  0  0  0  0
  137.5587   80.4053  221.1581 H   0  0  0  0  0  0  0  0  0  0  0  0
  139.0429   79.4941  221.3052 H   0  0  0  0  0  0  0  0  0  0  0  0
  137.8770   77.4930  220.7600 H   0  0  0  0  0  0  0  0  0  0  0  0
  137.6043   71.4110  222.0284 H   0  0  0  0  0  0  0  0  0  0  0  0
  138.9833   70.2538  221.6389 H   0  0  0  0  0  0  0  0  0  0  0  0
  137.1355   70.3352  223.8833 H   0  0  0  0  0  0  0  0  0  0  0  0
  138.1141   68.9879  223.1186 H   0  0  0  0  0  0  0  0  0  0  0  0
  137.7427   68.7711  225.7973 H   0  0  0  0  0  0  0  0  0  0  0  0
  139.2370   68.7056  227.7782 H   0  0  0  0  0  0  0  0  0  0  0  0
  141.4072   69.9419  227.7087 H   0  0  0  0  0  0  0  0  0  0  0  0
  142.0454   71.2108  225.6851 H   0  0  0  0  0  0  0  0  0  0  0  0
  141.2714   72.3542  223.7383 H   0  0  0  0  0  0  0  0  0  0  0  0
  141.3156   70.8595  222.7643 H   0  0  0  0  0  0  0  0  0  0  0  0
  142.2858   78.2634  220.4340 H   0  0  0  0  0  0  0  0  0  0  0  0
  140.5525   78.3204  219.9674 H   0  0  0  0  0  0  0  0  0  0  0  0
  1  2  2  0
  2  3  1  0
  3  4  2  0
  4  5  1  0
  5  6  2  0
  5  7  1  0
  7  8  1  0
  8  9  1  0
  9 10  1  0
 10 11  1  0
 11 12  2  0
 12 13  1  0
 13 14  1  0
 14 15  1  0
 15 16  1  0
 16 17  1  0
 17 18  1  0
 18 19  1  0
 19 20  1  0
 20 21  1  0
 13 22  2  0
 22 23  1  0
 23 24  1  0
 24 25  1  0
 25 26  1  0
 26 27  1  0
 27 28  2  0
 28 29  1  0
 29 30  2  0
 30 31  1  0
 31 32  2  0
 32 33  1  0
 23 34  2  0
  9 35  1  0
  6  1  1  0
 34 11  1  0
 35  4  1  0
 21 17  1  0
 33 24  1  0
 32 27  1  0
  1 36  1  0
  2 37  1  0
  3 38  1  0
  6 39  1  0
  7 40  1  0
  7 41  1  0
  8 42  1  0
  8 43  1  0
  9 44  1  1
 10 45  1  0
 14 46  1  0
 15 47  1  0
 15 48  1  0
 16 49  1  0
 16 50  1  0
 17 51  1  1
 18 52  1  0
 18 53  1  0
 19 54  1  0
 19 55  1  0
 20 56  1  0
 20 57  1  0
 21 58  1  0
 25 59  1  0
 25 60  1  0
 26 61  1  0
 26 62  1  0
 28 63  1  0
 29 64  1  0
 30 65  1  0
 31 66  1  0
 33 67  1  0
 33 68  1  0
 35 69  1  0
 35 70  1  0
M  END
>  <smiles>  (136) 
c1ccc2c(c1)CCC(Nc1nc(NCCC3CCCN3)nc(N3CCc4ccccc4C3)n1)C2

>  <score_type>  (136) 
oracle

>  <origin>  (136) 
autodockgpu

>  <m_score__min__energy>  (136) 
-10.69

>  <m_primary>  (136) 
energy

>  <rmsd>  (136) 
2.7230955352889

>  <m_score__min__rmsd>  (136) 
2.7230955352889

>  <meeko>  (136) 
{"free_energy": -7.99, "intermolecular_energy": -10.08, "internal_energy": -2.59, "cluster_size": 3, "cluster_id": 9, "rank_in_cluster": 3}

>  <energy>  (136) 
-9.95

>  <cluster_rmsd>  (136) 
0.0

>  <cluster>  (136) 
5

$$$$

     RDKit          3D

 70 75  0  0  1  0  0  0  0  0999 V2000
  140.4350   69.3790  228.3280 C   0  0  0  0  0  0  0  0  0  0  0  0
  141.1390   70.5480  228.1780 C   0  0  0  0  0  0  0  0  0  0  0  0
  141.0440   71.2430  226.9800 C   0  0  0  0  0  0  0  0  0  0  0  0
  140.2600   70.7940  225.9270 C   0  0  0  0  0  0  0  0  0  0  0  0
  139.5610   69.6260  226.0840 C   0  0  0  0  0  0  0  0  0  0  0  0
  139.6450   68.9190  227.2770 C   0  0  0  0  0  0  0  0  0  0  0  0
  138.6850   69.0540  225.0130 C   0  0  0  0  0  0  0  0  0  0  0  0
  139.2600   69.5320  223.6900 C   0  0  0  0  0  0  0  0  0  0  0  0
  139.2220   71.0500  223.7290 C   0  0  2  0  0  0  0  0  0  0  0  0
  139.2370   71.6370  222.4330 N   0  0  0  0  0  0  0  0  0  0  0  0
  140.1700   72.6140  221.9930 C   0  0  0  0  0  0  0  0  0  0  0  0
  141.4300   72.2820  221.5950 N   0  0  0  0  0  0  0  0  0  0  0  0
  142.3010   73.2140  221.1840 C   0  0  0  0  0  0  0  0  0  0  0  0
  143.6170   72.9610  220.7450 N   0  0  0  0  0  0  0  0  0  0  0  0
  143.7620   72.5250  219.3520 C   0  0  0  0  0  0  0  0  0  0  0  0
  144.5330   73.5350  218.5470 C   0  0  0  0  0  0  0  0  0  0  0  0
  143.6220   74.6730  218.1860 C   0  0  1  0  0  0  0  0  0  0  0  0
  143.6700   75.8100  219.2100 C   0  0  0  0  0  0  0  0  0  0  0  0
  143.1280   76.9780  218.3810 C   0  0  0  0  0  0  0  0  0  0  0  0
  143.1460   76.5110  216.9450 C   0  0  0  0  0  0  0  0  0  0  0  0
  144.0630   75.3870  216.9900 N   0  0  0  0  0  0  0  0  0  0  0  0
  141.8920   74.4990  221.1770 N   0  0  0  0  0  0  0  0  0  0  0  0
  140.6640   74.8790  221.5590 C   0  0  0  0  0  0  0  0  0  0  0  0
  140.3420   76.2620  221.5050 N   0  0  0  0  0  0  0  0  0  0  0  0
  140.1970   76.9480  220.2450 C   0  0  0  0  0  0  0  0  0  0  0  0
  140.9410   78.2300  220.1270 C   0  0  0  0  0  0  0  0  0  0  0  0
  141.3700   78.8030  221.4200 C   0  0  0  0  0  0  0  0  0  0  0  0
  142.1710   79.9310  221.3730 C   0  0  0  0  0  0  0  0  0  0  0  0
  142.6130   80.5240  222.5350 C   0  0  0  0  0  0  0  0  0  0  0  0
  142.2400   79.9700  223.7540 C   0  0  0  0  0  0  0  0  0  0  0  0
  141.4420   78.8460  223.7910 C   0  0  0  0  0  0  0  0  0  0  0  0
  141.0030   78.2580  222.6190 C   0  0  0  0  0  0  0  0  0  0  0  0
  140.1450   77.0500  222.7170 C   0  0  0  0  0  0  0  0  0  0  0  0
  139.8210   73.9310  221.9610 N   0  0  0  0  0  0  0  0  0  0  0  0
  140.2330   71.6190  224.6900 C   0  0  0  0  0  0  0  0  0  0  0  0
  140.4941   68.8115  229.2684 H   0  0  0  0  0  0  0  0  0  0  0  0
  141.7693   70.9285  228.9953 H   0  0  0  0  0  0  0  0  0  0  0  0
  141.6084   72.1797  226.8618 H   0  0  0  0  0  0  0  0  0  0  0  0
  139.0796   67.9826  227.3933 H   0  0  0  0  0  0  0  0  0  0  0  0
  138.6965   67.9550  225.0583 H   0  0  0  0  0  0  0  0  0  0  0  0
  137.6410   69.3783  225.1353 H   0  0  0  0  0  0  0  0  0  0  0  0
  140.2960   69.1802  223.5762 H   0  0  0  0  0  0  0  0  0  0  0  0
  138.6825   69.1405  222.8396 H   0  0  0  0  0  0  0  0  0  0  0  0
  138.2444   71.3393  224.1421 H   0  0  0  0  0  0  0  0  0  0  0  0
  138.4980   71.3240  221.7480 H   0  0  0  0  0  0  0  0  0  0  0  0
  144.4740   73.0630  221.3410 H   0  0  0  0  0  0  0  0  0  0  0  0
  144.2967   71.5639  219.3300 H   0  0  0  0  0  0  0  0  0  0  0  0
  142.7592   72.4191  218.9124 H   0  0  0  0  0  0  0  0  0  0  0  0
  145.3774   73.9133  219.1418 H   0  0  0  0  0  0  0  0  0  0  0  0
  144.9184   73.0633  217.6310 H   0  0  0  0  0  0  0  0  0  0  0  0
  142.6433   74.1798  218.0916 H   0  0  0  0  0  0  0  0  0  0  0  0
  143.0276   75.5988  220.0776 H   0  0  0  0  0  0  0  0  0  0  0  0
  144.6657   75.9866  219.6430 H   0  0  0  0  0  0  0  0  0  0  0  0
  142.1013   77.2228  218.6907 H   0  0  0  0  0  0  0  0  0  0  0  0
  143.7344   77.8855  218.5178 H   0  0  0  0  0  0  0  0  0  0  0  0
  142.1448   76.1940  216.6178 H   0  0  0  0  0  0  0  0  0  0  0  0
  143.4476   77.2940  216.2337 H   0  0  0  0  0  0  0  0  0  0  0  0
  145.0100   75.8060  217.2370 H   0  0  0  0  0  0  0  0  0  0  0  0
  140.5515   76.2756  219.4499 H   0  0  0  0  0  0  0  0  0  0  0  0
  139.1313   77.2076  220.1623 H   0  0  0  0  0  0  0  0  0  0  0  0
  141.8369   78.0537  219.5136 H   0  0  0  0  0  0  0  0  0  0  0  0
  140.2499   78.9558  219.6735 H   0  0  0  0  0  0  0  0  0  0  0  0
  142.4568   80.3571  220.4000 H   0  0  0  0  0  0  0  0  0  0  0  0
  143.2499   81.4201  222.4989 H   0  0  0  0  0  0  0  0  0  0  0  0
  142.5827   80.4299  224.6927 H   0  0  0  0  0  0  0  0  0  0  0  0
  141.1525   78.4139  224.7602 H   0  0  0  0  0  0  0  0  0  0  0  0
  140.4319   76.4581  223.5987 H   0  0  0  0  0  0  0  0  0  0  0  0
  139.0882   77.3373  222.8203 H   0  0  0  0  0  0  0  0  0  0  0  0
  141.2285   71.6111  224.2222 H   0  0  0  0  0  0  0  0  0  0  0  0
  139.9557   72.6526  224.9445 H   0  0  0  0  0  0  0  0  0  0  0  0
  1  2  2  0
  2  3  1  0
  3  4  2  0
  4  5  1  0
  5  6  2  0
  5  7  1  0
  7  8  1  0
  8  9  1  0
  9 10  1  0
 10 11  1  0
 11 12  2  0
 12 13  1  0
 13 14  1  0
 14 15  1  0
 15 16  1  0
 16 17  1  0
 17 18  1  0
 18 19  1  0
 19 20  1  0
 20 21  1  0
 13 22  2  0
 22 23  1  0
 23 24  1  0
 24 25  1  0
 25 26  1  0
 26 27  1  0
 27 28  2  0
 28 29  1  0
 29 30  2  0
 30 31  1  0
 31 32  2  0
 32 33  1  0
 23 34  2  0
  9 35  1  0
  6  1  1  0
 34 11  1  0
 35  4  1  0
 21 17  1  0
 33 24  1  0
 32 27  1  0
  1 36  1  0
  2 37  1  0
  3 38  1  0
  6 39  1  0
  7 40  1  0
  7 41  1  0
  8 42  1  0
  8 43  1  0
  9 44  1  1
 10 45  1  0
 14 46  1  0
 15 47  1  0
 15 48  1  0
 16 49  1  0
 16 50  1  0
 17 51  1  6
 18 52  1  0
 18 53  1  0
 19 54  1  0
 19 55  1  0
 20 56  1  0
 20 57  1  0
 21 58  1  0
 25 59  1  0
 25 60  1  0
 26 61  1  0
 26 62  1  0
 28 63  1  0
 29 64  1  0
 30 65  1  0
 31 66  1  0
 33 67  1  0
 33 68  1  0
 35 69  1  0
 35 70  1  0
M  END
>  <smiles>  (137) 
c1ccc2c(c1)CCC(Nc1nc(NCCC3CCCN3)nc(N3CCc4ccccc4C3)n1)C2

>  <score_type>  (137) 
oracle

>  <origin>  (137) 
autodockgpu

>  <m_score__min__energy>  (137) 
-10.69

>  <m_primary>  (137) 
energy

>  <rmsd>  (137) 
11.735647592000452

>  <m_score__min__rmsd>  (137) 
11.735647592000452

>  <meeko>  (137) 
{"free_energy": -10.15, "intermolecular_energy": -12.24, "internal_energy": -1.58, "cluster_size": 21, "cluster_id": 2, "rank_in_cluster": 3}

>  <energy>  (137) 
-9.95

>  <cluster_rmsd>  (137) 
0.62

>  <cluster>  (137) 
5

$$$$

     RDKit          3D

 70 75  0  0  1  0  0  0  0  0999 V2000
  140.6920   68.1870  228.0920 C   0  0  0  0  0  0  0  0  0  0  0  0
  141.2290   69.4220  228.3540 C   0  0  0  0  0  0  0  0  0  0  0  0
  141.0380   70.4490  227.4400 C   0  0  0  0  0  0  0  0  0  0  0  0
  140.3200   70.2670  226.2660 C   0  0  0  0  0  0  0  0  0  0  0  0
  139.7870   69.0310  226.0110 C   0  0  0  0  0  0  0  0  0  0  0  0
  139.9690   67.9930  226.9170 C   0  0  0  0  0  0  0  0  0  0  0  0
  138.9950   68.7270  224.7770 C   0  0  0  0  0  0  0  0  0  0  0  0
  139.4960   69.6780  223.7030 C   0  0  0  0  0  0  0  0  0  0  0  0
  139.2510   71.0830  224.2250 C   0  0  2  0  0  0  0  0  0  0  0  0
  139.1830   72.0540  223.1870 N   0  0  0  0  0  0  0  0  0  0  0  0
  140.1940   72.2780  222.2150 C   0  0  0  0  0  0  0  0  0  0  0  0
  140.7470   71.2600  221.5010 N   0  0  0  0  0  0  0  0  0  0  0  0
  141.7020   71.4860  220.5880 C   0  0  0  0  0  0  0  0  0  0  0  0
  142.3210   70.4960  219.7950 N   0  0  0  0  0  0  0  0  0  0  0  0
  143.3580   70.9640  218.8690 C   0  0  0  0  0  0  0  0  0  0  0  0
  144.7050   70.4090  219.2410 C   0  0  0  0  0  0  0  0  0  0  0  0
  144.7830   68.9740  218.8040 C   0  0  1  0  0  0  0  0  0  0  0  0
  146.0370   68.2690  219.3260 C   0  0  0  0  0  0  0  0  0  0  0  0
  145.6180   66.8000  219.2180 C   0  0  0  0  0  0  0  0  0  0  0  0
  144.1250   66.8110  218.9870 C   0  0  0  0  0  0  0  0  0  0  0  0
  143.7480   68.1440  219.4190 N   0  0  0  0  0  0  0  0  0  0  0  0
  142.1030   72.7580  220.3970 N   0  0  0  0  0  0  0  0  0  0  0  0
  141.5920   73.7980  221.0730 C   0  0  0  0  0  0  0  0  0  0  0  0
  142.0880   75.0970  220.7850 N   0  0  0  0  0  0  0  0  0  0  0  0
  141.4250   76.2790  221.2780 C   0  0  0  0  0  0  0  0  0  0  0  0
  141.1690   77.3360  220.2650 C   0  0  0  0  0  0  0  0  0  0  0  0
  141.9760   77.2040  219.0330 C   0  0  0  0  0  0  0  0  0  0  0  0
  141.6990   78.0850  218.0030 C   0  0  0  0  0  0  0  0  0  0  0  0
  142.4060   78.0260  216.8230 C   0  0  0  0  0  0  0  0  0  0  0  0
  143.4030   77.0660  216.6860 C   0  0  0  0  0  0  0  0  0  0  0  0
  143.6720   76.1930  217.7180 C   0  0  0  0  0  0  0  0  0  0  0  0
  142.9570   76.2610  218.9000 C   0  0  0  0  0  0  0  0  0  0  0  0
  143.2880   75.2960  219.9790 C   0  0  0  0  0  0  0  0  0  0  0  0
  140.6450   73.5420  221.9730 N   0  0  0  0  0  0  0  0  0  0  0  0
  140.1780   71.4370  225.3590 C   0  0  0  0  0  0  0  0  0  0  0  0
  140.8309   67.3586  228.8023 H   0  0  0  0  0  0  0  0  0  0  0  0
  141.8032   69.5960  229.2760 H   0  0  0  0  0  0  0  0  0  0  0  0
  141.4692   71.4384  227.6527 H   0  0  0  0  0  0  0  0  0  0  0  0
  139.5362   67.0045  226.7034 H   0  0  0  0  0  0  0  0  0  0  0  0
  139.1572   67.6839  224.4678 H   0  0  0  0  0  0  0  0  0  0  0  0
  137.9167   68.8550  224.9526 H   0  0  0  0  0  0  0  0  0  0  0  0
  140.5701   69.5200  223.5261 H   0  0  0  0  0  0  0  0  0  0  0  0
  138.9752   69.5111  222.7486 H   0  0  0  0  0  0  0  0  0  0  0  0
  138.2442   71.0938  224.6680 H   0  0  0  0  0  0  0  0  0  0  0  0
  138.3150   72.6530  223.1380 H   0  0  0  0  0  0  0  0  0  0  0  0
  142.0890   69.4740  219.8290 H   0  0  0  0  0  0  0  0  0  0  0  0
  143.1037   70.6375  217.8498 H   0  0  0  0  0  0  0  0  0  0  0  0
  143.4051   72.0617  218.9224 H   0  0  0  0  0  0  0  0  0  0  0  0
  145.4937   70.9899  218.7405 H   0  0  0  0  0  0  0  0  0  0  0  0
  144.8442   70.4728  220.3303 H   0  0  0  0  0  0  0  0  0  0  0  0
  144.7209   69.0499  217.7084 H   0  0  0  0  0  0  0  0  0  0  0  0
  146.9129   68.4858  218.6969 H   0  0  0  0  0  0  0  0  0  0  0  0
  146.3419   68.5787  220.3365 H   0  0  0  0  0  0  0  0  0  0  0  0
  146.1321   66.3165  218.3742 H   0  0  0  0  0  0  0  0  0  0  0  0
  145.8821   66.2370  220.1254 H   0  0  0  0  0  0  0  0  0  0  0  0
  143.8864   66.6555  217.9245 H   0  0  0  0  0  0  0  0  0  0  0  0
  143.5934   66.0107  219.5226 H   0  0  0  0  0  0  0  0  0  0  0  0
  143.9440   68.1670  220.4650 H   0  0  0  0  0  0  0  0  0  0  0  0
  140.4569   75.9733  221.7015 H   0  0  0  0  0  0  0  0  0  0  0  0
  142.1091   76.7250  222.0150 H   0  0  0  0  0  0  0  0  0  0  0  0
  140.1056   77.2964  219.9865 H   0  0  0  0  0  0  0  0  0  0  0  0
  141.4535   78.2925  220.7278 H   0  0  0  0  0  0  0  0  0  0  0  0
  140.9076   78.8387  218.1277 H   0  0  0  0  0  0  0  0  0  0  0  0
  142.1862   78.7257  216.0032 H   0  0  0  0  0  0  0  0  0  0  0  0
  143.9788   77.0033  215.7508 H   0  0  0  0  0  0  0  0  0  0  0  0
  144.4616   75.4362  217.6007 H   0  0  0  0  0  0  0  0  0  0  0  0
  143.6065   74.3390  219.5400 H   0  0  0  0  0  0  0  0  0  0  0  0
  144.1083   75.6830  220.6014 H   0  0  0  0  0  0  0  0  0  0  0  0
  141.1641   71.7098  224.9551 H   0  0  0  0  0  0  0  0  0  0  0  0
  139.7636   72.2878  225.9197 H   0  0  0  0  0  0  0  0  0  0  0  0
  1  2  2  0
  2  3  1  0
  3  4  2  0
  4  5  1  0
  5  6  2  0
  5  7  1  0
  7  8  1  0
  8  9  1  0
  9 10  1  0
 10 11  1  0
 11 12  2  0
 12 13  1  0
 13 14  1  0
 14 15  1  0
 15 16  1  0
 16 17  1  0
 17 18  1  0
 18 19  1  0
 19 20  1  0
 20 21  1  0
 13 22  2  0
 22 23  1  0
 23 24  1  0
 24 25  1  0
 25 26  1  0
 26 27  1  0
 27 28  2  0
 28 29  1  0
 29 30  2  0
 30 31  1  0
 31 32  2  0
 32 33  1  0
 23 34  2  0
  9 35  1  0
  6  1  1  0
 34 11  1  0
 35  4  1  0
 21 17  1  0
 33 24  1  0
 32 27  1  0
  1 36  1  0
  2 37  1  0
  3 38  1  0
  6 39  1  0
  7 40  1  0
  7 41  1  0
  8 42  1  0
  8 43  1  0
  9 44  1  1
 10 45  1  0
 14 46  1  0
 15 47  1  0
 15 48  1  0
 16 49  1  0
 16 50  1  0
 17 51  1  6
 18 52  1  0
 18 53  1  0
 19 54  1  0
 19 55  1  0
 20 56  1  0
 20 57  1  0
 21 58  1  0
 25 59  1  0
 25 60  1  0
 26 61  1  0
 26 62  1  0
 28 63  1  0
 29 64  1  0
 30 65  1  0
 31 66  1  0
 33 67  1  0
 33 68  1  0
 35 69  1  0
 35 70  1  0
M  END
>  <smiles>  (138) 
c1ccc2c(c1)CCC(Nc1nc(NCCC3CCCN3)nc(N3CCc4ccccc4C3)n1)C2

>  <score_type>  (138) 
oracle

>  <origin>  (138) 
autodockgpu

>  <m_score__min__energy>  (138) 
-10.69

>  <m_primary>  (138) 
energy

>  <rmsd>  (138) 
12.147647967394503

>  <m_score__min__rmsd>  (138) 
12.147647967394503

>  <meeko>  (138) 
{"free_energy": -9.06, "intermolecular_energy": -11.15, "internal_energy": -1.61, "cluster_size": 1, "cluster_id": 8, "rank_in_cluster": 1}

>  <energy>  (138) 
-9.94

>  <cluster_rmsd>  (138) 
1.46

>  <cluster>  (138) 
5

$$$$

     RDKit          3D

 70 75  0  0  1  0  0  0  0  0999 V2000
  140.3300   68.1610  227.7650 C   0  0  0  0  0  0  0  0  0  0  0  0
  139.5560   67.4540  226.8800 C   0  0  0  0  0  0  0  0  0  0  0  0
  139.3260   67.9800  225.6160 C   0  0  0  0  0  0  0  0  0  0  0  0
  139.8550   69.1990  225.2160 C   0  0  0  0  0  0  0  0  0  0  0  0
  140.6280   69.8990  226.1050 C   0  0  0  0  0  0  0  0  0  0  0  0
  140.8670   69.3860  227.3750 C   0  0  0  0  0  0  0  0  0  0  0  0
  141.2480   71.2220  225.7760 C   0  0  0  0  0  0  0  0  0  0  0  0
  140.3490   71.8670  224.7350 C   0  0  0  0  0  0  0  0  0  0  0  0
  140.3220   70.9210  223.5470 C   0  0  2  0  0  0  0  0  0  0  0  0
  139.9680   71.5710  222.3310 N   0  0  0  0  0  0  0  0  0  0  0  0
  139.6510   72.9500  222.2090 C   0  0  0  0  0  0  0  0  0  0  0  0
  140.6030   73.8910  221.9600 N   0  0  0  0  0  0  0  0  0  0  0  0
  140.2900   75.1900  221.8490 C   0  0  0  0  0  0  0  0  0  0  0  0
  141.2060   76.2290  221.5820 N   0  0  0  0  0  0  0  0  0  0  0  0
  140.7530   77.2680  220.6520 C   0  0  0  0  0  0  0  0  0  0  0  0
  141.7840   78.3540  220.5100 C   0  0  0  0  0  0  0  0  0  0  0  0
  141.5940   79.3570  221.6110 C   0  0  1  0  0  0  0  0  0  0  0  0
  140.6270   78.8670  222.6920 C   0  0  0  0  0  0  0  0  0  0  0  0
  141.0190   79.7650  223.8690 C   0  0  0  0  0  0  0  0  0  0  0  0
  142.3310   80.4070  223.4820 C   0  0  0  0  0  0  0  0  0  0  0  0
  142.8020   79.5450  222.4130 N   0  0  0  0  0  0  0  0  0  0  0  0
  138.9960   75.5400  221.9930 N   0  0  0  0  0  0  0  0  0  0  0  0
  138.0190   74.6540  222.2380 C   0  0  0  0  0  0  0  0  0  0  0  0
  136.6900   75.1380  222.3660 N   0  0  0  0  0  0  0  0  0  0  0  0
  136.3420   76.4820  221.9750 C   0  0  0  0  0  0  0  0  0  0  0  0
  135.5620   77.2560  222.9770 C   0  0  0  0  0  0  0  0  0  0  0  0
  134.9190   76.4260  224.0180 C   0  0  0  0  0  0  0  0  0  0  0  0
  134.2810   77.0930  225.0480 C   0  0  0  0  0  0  0  0  0  0  0  0
  133.6590   76.3910  226.0570 C   0  0  0  0  0  0  0  0  0  0  0  0
  133.6850   75.0010  226.0220 C   0  0  0  0  0  0  0  0  0  0  0  0
  134.3240   74.3460  224.9910 C   0  0  0  0  0  0  0  0  0  0  0  0
  134.9450   75.0590  223.9820 C   0  0  0  0  0  0  0  0  0  0  0  0
  135.6180   74.3020  222.8960 C   0  0  0  0  0  0  0  0  0  0  0  0
  138.3610   73.3720  222.3430 N   0  0  0  0  0  0  0  0  0  0  0  0
  139.5440   69.6640  223.8390 C   0  0  0  0  0  0  0  0  0  0  0  0
  140.5247   67.7646  228.7725 H   0  0  0  0  0  0  0  0  0  0  0  0
  139.1238   66.4843  227.1678 H   0  0  0  0  0  0  0  0  0  0  0  0
  138.7042   67.4120  224.9084 H   0  0  0  0  0  0  0  0  0  0  0  0
  141.4887   69.9553  228.0817 H   0  0  0  0  0  0  0  0  0  0  0  0
  141.3013   71.8520  226.6761 H   0  0  0  0  0  0  0  0  0  0  0  0
  142.2738   71.0999  225.3980 H   0  0  0  0  0  0  0  0  0  0  0  0
  139.3344   72.0002  225.1385 H   0  0  0  0  0  0  0  0  0  0  0  0
  140.7226   72.8603  224.4456 H   0  0  0  0  0  0  0  0  0  0  0  0
  141.3549   70.5820  223.3787 H   0  0  0  0  0  0  0  0  0  0  0  0
  139.9380   70.9830  221.4550 H   0  0  0  0  0  0  0  0  0  0  0  0
  142.1670   76.2970  221.9980 H   0  0  0  0  0  0  0  0  0  0  0  0
  140.5714   76.8139  219.6667 H   0  0  0  0  0  0  0  0  0  0  0  0
  139.8287   77.7133  221.0486 H   0  0  0  0  0  0  0  0  0  0  0  0
  142.7912   77.9173  220.5790 H   0  0  0  0  0  0  0  0  0  0  0  0
  141.6703   78.8483  219.5339 H   0  0  0  0  0  0  0  0  0  0  0  0
  141.2593   80.2529  221.0676 H   0  0  0  0  0  0  0  0  0  0  0  0
  139.5790   79.0236  222.3967 H   0  0  0  0  0  0  0  0  0  0  0  0
  140.6939   77.7896  222.9036 H   0  0  0  0  0  0  0  0  0  0  0  0
  140.2509   80.5347  224.0353 H   0  0  0  0  0  0  0  0  0  0  0  0
  141.1108   79.1900  224.8022 H   0  0  0  0  0  0  0  0  0  0  0  0
  142.1793   81.4362  223.1246 H   0  0  0  0  0  0  0  0  0  0  0  0
  143.0396   80.4933  224.3189 H   0  0  0  0  0  0  0  0  0  0  0  0
  142.9910   78.6040  222.8730 H   0  0  0  0  0  0  0  0  0  0  0  0
  137.2748   77.0294  221.7746 H   0  0  0  0  0  0  0  0  0  0  0  0
  135.6901   76.3824  221.0946 H   0  0  0  0  0  0  0  0  0  0  0  0
  136.2430   77.9638  223.4722 H   0  0  0  0  0  0  0  0  0  0  0  0
  134.7515   77.7573  222.4276 H   0  0  0  0  0  0  0  0  0  0  0  0
  134.2702   78.1929  225.0616 H   0  0  0  0  0  0  0  0  0  0  0  0
  133.1506   76.9207  226.8761 H   0  0  0  0  0  0  0  0  0  0  0  0
  133.1945   74.4228  226.8189 H   0  0  0  0  0  0  0  0  0  0  0  0
  134.3400   73.2463  224.9708 H   0  0  0  0  0  0  0  0  0  0  0  0
  136.0362   73.3665  223.2959 H   0  0  0  0  0  0  0  0  0  0  0  0
  134.8997   74.0499  222.1019 H   0  0  0  0  0  0  0  0  0  0  0  0
  138.4669   69.8716  223.7563 H   0  0  0  0  0  0  0  0  0  0  0  0
  139.8229   68.8833  223.1160 H   0  0  0  0  0  0  0  0  0  0  0  0
  1  2  2  0
  2  3  1  0
  3  4  2  0
  4  5  1  0
  5  6  2  0
  5  7  1  0
  7  8  1  0
  8  9  1  0
  9 10  1  0
 10 11  1  0
 11 12  2  0
 12 13  1  0
 13 14  1  0
 14 15  1  0
 15 16  1  0
 16 17  1  0
 17 18  1  0
 18 19  1  0
 19 20  1  0
 20 21  1  0
 13 22  2  0
 22 23  1  0
 23 24  1  0
 24 25  1  0
 25 26  1  0
 26 27  1  0
 27 28  2  0
 28 29  1  0
 29 30  2  0
 30 31  1  0
 31 32  2  0
 32 33  1  0
 23 34  2  0
  9 35  1  0
  6  1  1  0
 34 11  1  0
 35  4  1  0
 21 17  1  0
 33 24  1  0
 32 27  1  0
  1 36  1  0
  2 37  1  0
  3 38  1  0
  6 39  1  0
  7 40  1  0
  7 41  1  0
  8 42  1  0
  8 43  1  0
  9 44  1  6
 10 45  1  0
 14 46  1  0
 15 47  1  0
 15 48  1  0
 16 49  1  0
 16 50  1  0
 17 51  1  6
 18 52  1  0
 18 53  1  0
 19 54  1  0
 19 55  1  0
 20 56  1  0
 20 57  1  0
 21 58  1  0
 25 59  1  0
 25 60  1  0
 26 61  1  0
 26 62  1  0
 28 63  1  0
 29 64  1  0
 30 65  1  0
 31 66  1  0
 33 67  1  0
 33 68  1  0
 35 69  1  0
 35 70  1  0
M  END
>  <smiles>  (139) 
c1ccc2c(c1)CCC(Nc1nc(NCCC3CCCN3)nc(N3CCc4ccccc4C3)n1)C2

>  <score_type>  (139) 
oracle

>  <origin>  (139) 
autodockgpu

>  <m_score__min__energy>  (139) 
-10.69

>  <m_primary>  (139) 
energy

>  <rmsd>  (139) 
11.992492615331155

>  <m_score__min__rmsd>  (139) 
11.992492615331155

>  <meeko>  (139) 
{"free_energy": -9.94, "intermolecular_energy": -12.03, "internal_energy": -1.17, "cluster_size": 5, "cluster_id": 5, "rank_in_cluster": 3}

>  <energy>  (139) 
-9.9

>  <cluster_rmsd>  (139) 
1.37

>  <cluster>  (139) 
5

$$$$

     RDKit          3D

 70 75  0  0  1  0  0  0  0  0999 V2000
  140.1140   70.0980  228.1510 C   0  0  0  0  0  0  0  0  0  0  0  0
  140.9780   71.1500  227.9820 C   0  0  0  0  0  0  0  0  0  0  0  0
  141.1310   71.7000  226.7170 C   0  0  0  0  0  0  0  0  0  0  0  0
  140.4370   71.2190  225.6140 C   0  0  0  0  0  0  0  0  0  0  0  0
  139.5770   70.1680  225.7920 C   0  0  0  0  0  0  0  0  0  0  0  0
  139.4120   69.6060  227.0530 C   0  0  0  0  0  0  0  0  0  0  0  0
  138.7800   69.5740  224.6720 C   0  0  0  0  0  0  0  0  0  0  0  0
  139.5790   69.8170  223.4030 C   0  0  0  0  0  0  0  0  0  0  0  0
  139.7350   71.3230  223.2760 C   0  0  2  0  0  0  0  0  0  0  0  0
  139.9940   71.7410  221.9410 N   0  0  0  0  0  0  0  0  0  0  0  0
  140.8360   72.8260  221.5780 C   0  0  0  0  0  0  0  0  0  0  0  0
  142.1160   72.6370  221.1530 N   0  0  0  0  0  0  0  0  0  0  0  0
  142.9000   73.6690  220.8150 C   0  0  0  0  0  0  0  0  0  0  0  0
  144.2300   73.5660  220.3540 N   0  0  0  0  0  0  0  0  0  0  0  0
  144.6660   72.2310  219.9300 C   0  0  0  0  0  0  0  0  0  0  0  0
  144.1750   71.9180  218.5440 C   0  0  0  0  0  0  0  0  0  0  0  0
  143.5750   70.5410  218.5360 C   0  0  1  0  0  0  0  0  0  0  0  0
  144.3160   69.5720  219.4600 C   0  0  0  0  0  0  0  0  0  0  0  0
  143.2500   68.4940  219.6740 C   0  0  0  0  0  0  0  0  0  0  0  0
  141.9550   69.0840  219.1680 C   0  0  0  0  0  0  0  0  0  0  0  0
  142.2450   70.5060  219.1420 N   0  0  0  0  0  0  0  0  0  0  0  0
  142.3830   74.9110  220.9100 N   0  0  0  0  0  0  0  0  0  0  0  0
  141.1290   75.1530  221.3220 C   0  0  0  0  0  0  0  0  0  0  0  0
  140.6900   76.5030  221.3780 N   0  0  0  0  0  0  0  0  0  0  0  0
  140.4660   77.2670  220.1760 C   0  0  0  0  0  0  0  0  0  0  0  0
  141.0950   78.6140  220.1500 C   0  0  0  0  0  0  0  0  0  0  0  0
  141.4950   79.1230  221.4790 C   0  0  0  0  0  0  0  0  0  0  0  0
  142.1960   80.3150  221.5110 C   0  0  0  0  0  0  0  0  0  0  0  0
  142.6040   80.8550  222.7100 C   0  0  0  0  0  0  0  0  0  0  0  0
  142.3010   80.1800  223.8870 C   0  0  0  0  0  0  0  0  0  0  0  0
  141.6020   78.9920  223.8450 C   0  0  0  0  0  0  0  0  0  0  0  0
  141.1950   78.4580  222.6360 C   0  0  0  0  0  0  0  0  0  0  0  0
  140.4460   77.1760  222.6490 C   0  0  0  0  0  0  0  0  0  0  0  0
  140.3750   74.1070  221.6510 N   0  0  0  0  0  0  0  0  0  0  0  0
  140.6790   71.8840  224.3070 C   0  0  0  0  0  0  0  0  0  0  0  0
  139.9767   69.6469  229.1448 H   0  0  0  0  0  0  0  0  0  0  0  0
  141.5415   71.5519  228.8369 H   0  0  0  0  0  0  0  0  0  0  0  0
  141.8240   72.5438  226.5835 H   0  0  0  0  0  0  0  0  0  0  0  0
  138.7185   68.7624  227.1852 H   0  0  0  0  0  0  0  0  0  0  0  0
  138.6415   68.4948  224.8339 H   0  0  0  0  0  0  0  0  0  0  0  0
  137.7806   70.0290  224.6079 H   0  0  0  0  0  0  0  0  0  0  0  0
  140.5661   69.3372  223.4772 H   0  0  0  0  0  0  0  0  0  0  0  0
  139.0706   69.3933  222.5244 H   0  0  0  0  0  0  0  0  0  0  0  0
  138.7589   71.7722  223.5114 H   0  0  0  0  0  0  0  0  0  0  0  0
  139.5240   71.2050  221.1630 H   0  0  0  0  0  0  0  0  0  0  0  0
  144.9050   74.3670  220.3000 H   0  0  0  0  0  0  0  0  0  0  0  0
  145.7653   72.1919  219.9394 H   0  0  0  0  0  0  0  0  0  0  0  0
  144.2476   71.4887  220.6256 H   0  0  0  0  0  0  0  0  0  0  0  0
  143.4129   72.6539  218.2480 H   0  0  0  0  0  0  0  0  0  0  0  0
  145.0143   71.9613  217.8343 H   0  0  0  0  0  0  0  0  0  0  0  0
  143.6021   70.2707  217.4701 H   0  0  0  0  0  0  0  0  0  0  0  0
  145.2143   69.1607  218.9764 H   0  0  0  0  0  0  0  0  0  0  0  0
  144.6897   70.0289  220.3882 H   0  0  0  0  0  0  0  0  0  0  0  0
  143.5044   67.5867  219.1064 H   0  0  0  0  0  0  0  0  0  0  0  0
  143.1751   68.2055  220.7329 H   0  0  0  0  0  0  0  0  0  0  0  0
  141.7139   68.7093  218.1623 H   0  0  0  0  0  0  0  0  0  0  0  0
  141.0842   68.8259  219.7885 H   0  0  0  0  0  0  0  0  0  0  0  0
  142.3850   70.7830  220.1590 H   0  0  0  0  0  0  0  0  0  0  0  0
  140.8640   76.6902  219.3281 H   0  0  0  0  0  0  0  0  0  0  0  0
  139.3807   77.4382  220.1235 H   0  0  0  0  0  0  0  0  0  0  0  0
  141.9924   78.5632  219.5159 H   0  0  0  0  0  0  0  0  0  0  0  0
  140.3363   79.3091  219.7611 H   0  0  0  0  0  0  0  0  0  0  0  0
  142.4294   80.8359  220.5707 H   0  0  0  0  0  0  0  0  0  0  0  0
  143.1599   81.8038  222.7362 H   0  0  0  0  0  0  0  0  0  0  0  0
  142.6198   80.5948  224.8546 H   0  0  0  0  0  0  0  0  0  0  0  0
  141.3662   78.4646  224.7811 H   0  0  0  0  0  0  0  0  0  0  0  0
  140.7974   76.5459  223.4794 H   0  0  0  0  0  0  0  0  0  0  0  0
  139.3703   77.3613  222.7849 H   0  0  0  0  0  0  0  0  0  0  0  0
  141.7169   71.7037  223.9905 H   0  0  0  0  0  0  0  0  0  0  0  0
  140.5096   72.9661  224.4091 H   0  0  0  0  0  0  0  0  0  0  0  0
  1  2  2  0
  2  3  1  0
  3  4  2  0
  4  5  1  0
  5  6  2  0
  5  7  1  0
  7  8  1  0
  8  9  1  0
  9 10  1  0
 10 11  1  0
 11 12  2  0
 12 13  1  0
 13 14  1  0
 14 15  1  0
 15 16  1  0
 16 17  1  0
 17 18  1  0
 18 19  1  0
 19 20  1  0
 20 21  1  0
 13 22  2  0
 22 23  1  0
 23 24  1  0
 24 25  1  0
 25 26  1  0
 26 27  1  0
 27 28  2  0
 28 29  1  0
 29 30  2  0
 30 31  1  0
 31 32  2  0
 32 33  1  0
 23 34  2  0
  9 35  1  0
  6  1  1  0
 34 11  1  0
 35  4  1  0
 21 17  1  0
 33 24  1  0
 32 27  1  0
  1 36  1  0
  2 37  1  0
  3 38  1  0
  6 39  1  0
  7 40  1  0
  7 41  1  0
  8 42  1  0
  8 43  1  0
  9 44  1  1
 10 45  1  0
 14 46  1  0
 15 47  1  0
 15 48  1  0
 16 49  1  0
 16 50  1  0
 17 51  1  6
 18 52  1  0
 18 53  1  0
 19 54  1  0
 19 55  1  0
 20 56  1  0
 20 57  1  0
 21 58  1  0
 25 59  1  0
 25 60  1  0
 26 61  1  0
 26 62  1  0
 28 63  1  0
 29 64  1  0
 30 65  1  0
 31 66  1  0
 33 67  1  0
 33 68  1  0
 35 69  1  0
 35 70  1  0
M  END
>  <smiles>  (140) 
c1ccc2c(c1)CCC(Nc1nc(NCCC3CCCN3)nc(N3CCc4ccccc4C3)n1)C2

>  <score_type>  (140) 
oracle

>  <origin>  (140) 
autodockgpu

>  <m_score__min__energy>  (140) 
-10.69

>  <m_primary>  (140) 
energy

>  <rmsd>  (140) 
11.24720266372144

>  <m_score__min__rmsd>  (140) 
11.24720266372144

>  <meeko>  (140) 
{"free_energy": -9.26, "intermolecular_energy": -11.35, "internal_energy": -2.06, "cluster_size": 21, "cluster_id": 2, "rank_in_cluster": 14}

>  <energy>  (140) 
-9.85

>  <cluster_rmsd>  (140) 
1.39

>  <cluster>  (140) 
5

$$$$

     RDKit          3D

 70 75  0  0  1  0  0  0  0  0999 V2000
  139.7180   69.9480  227.9880 C   0  0  0  0  0  0  0  0  0  0  0  0
  140.6470   70.9570  227.9470 C   0  0  0  0  0  0  0  0  0  0  0  0
  140.9390   71.5550  226.7280 C   0  0  0  0  0  0  0  0  0  0  0  0
  140.3210   71.1650  225.5480 C   0  0  0  0  0  0  0  0  0  0  0  0
  139.3950   70.1570  225.5980 C   0  0  0  0  0  0  0  0  0  0  0  0
  139.0910   69.5490  226.8100 C   0  0  0  0  0  0  0  0  0  0  0  0
  138.6690   69.6610  224.3860 C   0  0  0  0  0  0  0  0  0  0  0  0
  139.5890   69.9170  223.2030 C   0  0  0  0  0  0  0  0  0  0  0  0
  139.8340   71.4160  223.1670 C   0  0  2  0  0  0  0  0  0  0  0  0
  140.2310   71.8800  221.8810 N   0  0  0  0  0  0  0  0  0  0  0  0
  139.9040   73.1520  221.3400 C   0  0  0  0  0  0  0  0  0  0  0  0
  139.5050   73.3060  220.0470 N   0  0  0  0  0  0  0  0  0  0  0  0
  139.2020   74.5130  219.5490 C   0  0  0  0  0  0  0  0  0  0  0  0
  138.7690   74.7640  218.2290 N   0  0  0  0  0  0  0  0  0  0  0  0
  139.7820   75.2820  217.3040 C   0  0  0  0  0  0  0  0  0  0  0  0
  140.5700   76.3960  217.9340 C   0  0  0  0  0  0  0  0  0  0  0  0
  141.9150   75.8720  218.3490 C   0  0  1  0  0  0  0  0  0  0  0  0
  142.5180   76.6620  219.5130 C   0  0  0  0  0  0  0  0  0  0  0  0
  143.5370   75.6560  220.0560 C   0  0  0  0  0  0  0  0  0  0  0  0
  143.1990   74.3330  219.4110 C   0  0  0  0  0  0  0  0  0  0  0  0
  141.8380   74.5440  218.9530 N   0  0  0  0  0  0  0  0  0  0  0  0
  139.3060   75.5780  220.3690 N   0  0  0  0  0  0  0  0  0  0  0  0
  139.6950   75.4820  221.6490 C   0  0  0  0  0  0  0  0  0  0  0  0
  139.7640   76.6720  222.4210 N   0  0  0  0  0  0  0  0  0  0  0  0
  138.5790   77.4320  222.7330 C   0  0  0  0  0  0  0  0  0  0  0  0
  138.6680   78.8920  222.4680 C   0  0  0  0  0  0  0  0  0  0  0  0
  140.0500   79.3980  222.3220 C   0  0  0  0  0  0  0  0  0  0  0  0
  140.1970   80.7240  221.9530 C   0  0  0  0  0  0  0  0  0  0  0  0
  141.4520   81.2700  221.7960 C   0  0  0  0  0  0  0  0  0  0  0  0
  142.5650   80.4670  222.0130 C   0  0  0  0  0  0  0  0  0  0  0  0
  142.4080   79.1470  222.3800 C   0  0  0  0  0  0  0  0  0  0  0  0
  141.1440   78.6070  222.5360 C   0  0  0  0  0  0  0  0  0  0  0  0
  141.0320   77.1810  222.9320 C   0  0  0  0  0  0  0  0  0  0  0  0
  139.9890   74.2700  222.1150 N   0  0  0  0  0  0  0  0  0  0  0  0
  140.7110   71.8750  224.3010 C   0  0  0  0  0  0  0  0  0  0  0  0
  139.4709   69.4590  228.9419 H   0  0  0  0  0  0  0  0  0  0  0  0
  141.1530   71.2874  228.8661 H   0  0  0  0  0  0  0  0  0  0  0  0
  141.6840   72.3637  226.6967 H   0  0  0  0  0  0  0  0  0  0  0  0
  138.3448   68.7414  226.8395 H   0  0  0  0  0  0  0  0  0  0  0  0
  138.4606   68.5851  224.4806 H   0  0  0  0  0  0  0  0  0  0  0  0
  137.7040   70.1738  224.2603 H   0  0  0  0  0  0  0  0  0  0  0  0
  140.5393   69.3793  223.3367 H   0  0  0  0  0  0  0  0  0  0  0  0
  139.1386   69.5638  222.2637 H   0  0  0  0  0  0  0  0  0  0  0  0
  138.8657   71.9079  223.3416 H   0  0  0  0  0  0  0  0  0  0  0  0
  140.8100   71.2290  221.2860 H   0  0  0  0  0  0  0  0  0  0  0  0
  137.7910   74.6060  217.8830 H   0  0  0  0  0  0  0  0  0  0  0  0
  140.4680   74.4672  217.0294 H   0  0  0  0  0  0  0  0  0  0  0  0
  139.2725   75.6752  216.4119 H   0  0  0  0  0  0  0  0  0  0  0  0
  140.7004   77.2117  217.2076 H   0  0  0  0  0  0  0  0  0  0  0  0
  140.0330   76.7782  218.8147 H   0  0  0  0  0  0  0  0  0  0  0  0
  142.4924   75.9178  217.4138 H   0  0  0  0  0  0  0  0  0  0  0  0
  143.0071   77.5836  219.1646 H   0  0  0  0  0  0  0  0  0  0  0  0
  141.7826   77.0063  220.2551 H   0  0  0  0  0  0  0  0  0  0  0  0
  144.5583   75.9630  219.7864 H   0  0  0  0  0  0  0  0  0  0  0  0
  143.4950   75.5920  221.1533 H   0  0  0  0  0  0  0  0  0  0  0  0
  143.8729   74.1181  218.5686 H   0  0  0  0  0  0  0  0  0  0  0  0
  143.3043   73.4747  220.0909 H   0  0  0  0  0  0  0  0  0  0  0  0
  141.2590   74.6630  219.8380 H   0  0  0  0  0  0  0  0  0  0  0  0
  137.7497   77.0285  222.1334 H   0  0  0  0  0  0  0  0  0  0  0  0
  138.4314   77.3301  223.8183 H   0  0  0  0  0  0  0  0  0  0  0  0
  138.1215   79.1079  221.5381 H   0  0  0  0  0  0  0  0  0  0  0  0
  138.2362   79.3993  223.3434 H   0  0  0  0  0  0  0  0  0  0  0  0
  139.3056   81.3460  221.7840 H   0  0  0  0  0  0  0  0  0  0  0  0
  141.5710   82.3238  221.5038 H   0  0  0  0  0  0  0  0  0  0  0  0
  143.5749   80.8857  221.8916 H   0  0  0  0  0  0  0  0  0  0  0  0
  143.2947   78.5186  222.5500 H   0  0  0  0  0  0  0  0  0  0  0  0
  141.8658   76.6070  222.5016 H   0  0  0  0  0  0  0  0  0  0  0  0
  141.0708   77.0832  224.0270 H   0  0  0  0  0  0  0  0  0  0  0  0
  141.7620   71.6517  224.0653 H   0  0  0  0  0  0  0  0  0  0  0  0
  140.5894   72.9590  224.4429 H   0  0  0  0  0  0  0  0  0  0  0  0
  1  2  2  0
  2  3  1  0
  3  4  2  0
  4  5  1  0
  5  6  2  0
  5  7  1  0
  7  8  1  0
  8  9  1  0
  9 10  1  0
 10 11  1  0
 11 12  2  0
 12 13  1  0
 13 14  1  0
 14 15  1  0
 15 16  1  0
 16 17  1  0
 17 18  1  0
 18 19  1  0
 19 20  1  0
 20 21  1  0
 13 22  2  0
 22 23  1  0
 23 24  1  0
 24 25  1  0
 25 26  1  0
 26 27  1  0
 27 28  2  0
 28 29  1  0
 29 30  2  0
 30 31  1  0
 31 32  2  0
 32 33  1  0
 23 34  2  0
  9 35  1  0
  6  1  1  0
 34 11  1  0
 35  4  1  0
 21 17  1  0
 33 24  1  0
 32 27  1  0
  1 36  1  0
  2 37  1  0
  3 38  1  0
  6 39  1  0
  7 40  1  0
  7 41  1  0
  8 42  1  0
  8 43  1  0
  9 44  1  1
 10 45  1  0
 14 46  1  0
 15 47  1  0
 15 48  1  0
 16 49  1  0
 16 50  1  0
 17 51  1  6
 18 52  1  0
 18 53  1  0
 19 54  1  0
 19 55  1  0
 20 56  1  0
 20 57  1  0
 21 58  1  0
 25 59  1  0
 25 60  1  0
 26 61  1  0
 26 62  1  0
 28 63  1  0
 29 64  1  0
 30 65  1  0
 31 66  1  0
 33 67  1  0
 33 68  1  0
 35 69  1  0
 35 70  1  0
M  END
>  <smiles>  (141) 
c1ccc2c(c1)CCC(Nc1nc(NCCC3CCCN3)nc(N3CCc4ccccc4C3)n1)C2

>  <score_type>  (141) 
oracle

>  <origin>  (141) 
autodockgpu

>  <m_score__min__energy>  (141) 
-10.69

>  <m_primary>  (141) 
energy

>  <rmsd>  (141) 
11.21373660382312

>  <m_score__min__rmsd>  (141) 
11.21373660382312

>  <meeko>  (141) 
{"free_energy": -8.01, "intermolecular_energy": -10.09, "internal_energy": -2.96, "cluster_size": 21, "cluster_id": 2, "rank_in_cluster": 21}

>  <energy>  (141) 
-9.6

>  <cluster_rmsd>  (141) 
0.0

>  <cluster>  (141) 
6

$$$$

     RDKit          3D

 70 75  0  0  1  0  0  0  0  0999 V2000
  140.2550   69.9880  228.3300 C   0  0  0  0  0  0  0  0  0  0  0  0
  141.0430   71.0950  228.1370 C   0  0  0  0  0  0  0  0  0  0  0  0
  141.0940   71.6740  226.8760 C   0  0  0  0  0  0  0  0  0  0  0  0
  140.3730   71.1700  225.8020 C   0  0  0  0  0  0  0  0  0  0  0  0
  139.5880   70.0650  226.0040 C   0  0  0  0  0  0  0  0  0  0  0  0
  139.5270   69.4730  227.2600 C   0  0  0  0  0  0  0  0  0  0  0  0
  138.7700   69.4420  224.9150 C   0  0  0  0  0  0  0  0  0  0  0  0
  139.4840   69.7560  223.6110 C   0  0  0  0  0  0  0  0  0  0  0  0
  139.5410   71.2700  223.5070 C   0  0  2  0  0  0  0  0  0  0  0  0
  139.7020   71.7260  222.1690 N   0  0  0  0  0  0  0  0  0  0  0  0
  140.5710   72.7750  221.7660 C   0  0  0  0  0  0  0  0  0  0  0  0
  141.8410   72.5370  221.3370 N   0  0  0  0  0  0  0  0  0  0  0  0
  142.6510   73.5370  220.9620 C   0  0  0  0  0  0  0  0  0  0  0  0
  143.9730   73.3820  220.4950 N   0  0  0  0  0  0  0  0  0  0  0  0
  144.1230   72.7910  219.1600 C   0  0  0  0  0  0  0  0  0  0  0  0
  142.8770   72.9830  218.3410 C   0  0  0  0  0  0  0  0  0  0  0  0
  142.9150   74.3400  217.7000 C   0  0  1  0  0  0  0  0  0  0  0  0
  141.5230   74.9600  217.5550 C   0  0  0  0  0  0  0  0  0  0  0  0
  141.8730   76.4430  217.4050 C   0  0  0  0  0  0  0  0  0  0  0  0
  143.3250   76.5690  217.8050 C   0  0  0  0  0  0  0  0  0  0  0  0
  143.5550   75.3440  218.5480 N   0  0  0  0  0  0  0  0  0  0  0  0
  142.1690   74.7950  221.0230 N   0  0  0  0  0  0  0  0  0  0  0  0
  140.9270   75.0840  221.4380 C   0  0  0  0  0  0  0  0  0  0  0  0
  140.5260   76.4470  221.4560 N   0  0  0  0  0  0  0  0  0  0  0  0
  140.3320   77.1870  220.2340 C   0  0  0  0  0  0  0  0  0  0  0  0
  141.0000   78.5140  220.1780 C   0  0  0  0  0  0  0  0  0  0  0  0
  141.4040   79.0450  221.4980 C   0  0  0  0  0  0  0  0  0  0  0  0
  142.1380   80.2180  221.5050 C   0  0  0  0  0  0  0  0  0  0  0  0
  142.5530   80.7750  222.6940 C   0  0  0  0  0  0  0  0  0  0  0  0
  142.2220   80.1390  223.8850 C   0  0  0  0  0  0  0  0  0  0  0  0
  141.4900   78.9710  223.8670 C   0  0  0  0  0  0  0  0  0  0  0  0
  141.0770   78.4190  222.6690 C   0  0  0  0  0  0  0  0  0  0  0  0
  140.2920   77.1590  222.7080 C   0  0  0  0  0  0  0  0  0  0  0  0
  140.1460   74.0700  221.8040 N   0  0  0  0  0  0  0  0  0  0  0  0
  140.5030   71.8710  224.4980 C   0  0  0  0  0  0  0  0  0  0  0  0
  140.1989   69.5121  229.3201 H   0  0  0  0  0  0  0  0  0  0  0  0
  141.6256   71.5173  228.9690 H   0  0  0  0  0  0  0  0  0  0  0  0
  141.7263   72.5610  226.7230 H   0  0  0  0  0  0  0  0  0  0  0  0
  138.8950   68.5854  227.4111 H   0  0  0  0  0  0  0  0  0  0  0  0
  138.7065   68.3537  225.0617 H   0  0  0  0  0  0  0  0  0  0  0  0
  137.7427   69.8352  224.9125 H   0  0  0  0  0  0  0  0  0  0  0  0
  140.5010   69.3370  223.6237 H   0  0  0  0  0  0  0  0  0  0  0  0
  138.9561   69.3169  222.7516 H   0  0  0  0  0  0  0  0  0  0  0  0
  138.5534   71.6535  223.8029 H   0  0  0  0  0  0  0  0  0  0  0  0
  139.1320   71.2490  221.4200 H   0  0  0  0  0  0  0  0  0  0  0  0
  144.8310   73.6580  221.0320 H   0  0  0  0  0  0  0  0  0  0  0  0
  144.9683   73.2726  218.6466 H   0  0  0  0  0  0  0  0  0  0  0  0
  144.3041   71.7120  219.2735 H   0  0  0  0  0  0  0  0  0  0  0  0
  142.8256   72.2086  217.5614 H   0  0  0  0  0  0  0  0  0  0  0  0
  141.9916   72.9038  218.9890 H   0  0  0  0  0  0  0  0  0  0  0  0
  143.4327   74.1441  216.7494 H   0  0  0  0  0  0  0  0  0  0  0  0
  141.0015   74.5768  216.6655 H   0  0  0  0  0  0  0  0  0  0  0  0
  140.8409   74.7389  218.3891 H   0  0  0  0  0  0  0  0  0  0  0  0
  141.7341   76.7653  216.3625 H   0  0  0  0  0  0  0  0  0  0  0  0
  141.2258   77.0757  218.0301 H   0  0  0  0  0  0  0  0  0  0  0  0
  143.9771   76.6258  216.9210 H   0  0  0  0  0  0  0  0  0  0  0  0
  143.5426   77.4792  218.3831 H   0  0  0  0  0  0  0  0  0  0  0  0
  142.9420   75.4220  219.4150 H   0  0  0  0  0  0  0  0  0  0  0  0
  140.7181   76.5776  219.4036 H   0  0  0  0  0  0  0  0  0  0  0  0
  139.2525   77.3887  220.1705 H   0  0  0  0  0  0  0  0  0  0  0  0
  141.9005   78.4209  219.5532 H   0  0  0  0  0  0  0  0  0  0  0  0
  140.2656   79.2206  219.7641 H   0  0  0  0  0  0  0  0  0  0  0  0
  142.3918   80.7090  220.5540 H   0  0  0  0  0  0  0  0  0  0  0  0
  143.1365   81.7074  222.7013 H   0  0  0  0  0  0  0  0  0  0  0  0
  142.5451   80.5690  224.8445 H   0  0  0  0  0  0  0  0  0  0  0  0
  141.2324   78.4741  224.8140 H   0  0  0  0  0  0  0  0  0  0  0  0
  140.6195   76.5405  223.5567 H   0  0  0  0  0  0  0  0  0  0  0  0
  139.2210   77.3780  222.8304 H   0  0  0  0  0  0  0  0  0  0  0  0
  141.5315   71.7612  224.1236 H   0  0  0  0  0  0  0  0  0  0  0  0
  140.2733   72.9385  224.6310 H   0  0  0  0  0  0  0  0  0  0  0  0
  1  2  2  0
  2  3  1  0
  3  4  2  0
  4  5  1  0
  5  6  2  0
  5  7  1  0
  7  8  1  0
  8  9  1  0
  9 10  1  0
 10 11  1  0
 11 12  2  0
 12 13  1  0
 13 14  1  0
 14 15  1  0
 15 16  1  0
 16 17  1  0
 17 18  1  0
 18 19  1  0
 19 20  1  0
 20 21  1  0
 13 22  2  0
 22 23  1  0
 23 24  1  0
 24 25  1  0
 25 26  1  0
 26 27  1  0
 27 28  2  0
 28 29  1  0
 29 30  2  0
 30 31  1  0
 31 32  2  0
 32 33  1  0
 23 34  2  0
  9 35  1  0
  6  1  1  0
 34 11  1  0
 35  4  1  0
 21 17  1  0
 33 24  1  0
 32 27  1  0
  1 36  1  0
  2 37  1  0
  3 38  1  0
  6 39  1  0
  7 40  1  0
  7 41  1  0
  8 42  1  0
  8 43  1  0
  9 44  1  1
 10 45  1  0
 14 46  1  0
 15 47  1  0
 15 48  1  0
 16 49  1  0
 16 50  1  0
 17 51  1  6
 18 52  1  0
 18 53  1  0
 19 54  1  0
 19 55  1  0
 20 56  1  0
 20 57  1  0
 21 58  1  0
 25 59  1  0
 25 60  1  0
 26 61  1  0
 26 62  1  0
 28 63  1  0
 29 64  1  0
 30 65  1  0
 31 66  1  0
 33 67  1  0
 33 68  1  0
 35 69  1  0
 35 70  1  0
M  END
>  <smiles>  (142) 
c1ccc2c(c1)CCC(Nc1nc(NCCC3CCCN3)nc(N3CCc4ccccc4C3)n1)C2

>  <score_type>  (142) 
oracle

>  <origin>  (142) 
autodockgpu

>  <m_score__min__energy>  (142) 
-10.69

>  <m_primary>  (142) 
energy

>  <rmsd>  (142) 
11.368805590069202

>  <m_score__min__rmsd>  (142) 
11.368805590069202

>  <meeko>  (142) 
{"free_energy": -8.99, "intermolecular_energy": -11.08, "internal_energy": -2.46, "cluster_size": 21, "cluster_id": 2, "rank_in_cluster": 16}

>  <energy>  (142) 
-9.21

>  <cluster_rmsd>  (142) 
0.67

>  <cluster>  (142) 
6

$$$$

     RDKit          3D

 70 75  0  0  1  0  0  0  0  0999 V2000
  140.4180   69.6280  228.1110 C   0  0  0  0  0  0  0  0  0  0  0  0
  141.0830   70.8230  228.0040 C   0  0  0  0  0  0  0  0  0  0  0  0
  141.0340   71.5160  226.8020 C   0  0  0  0  0  0  0  0  0  0  0  0
  140.3330   71.0380  225.7030 C   0  0  0  0  0  0  0  0  0  0  0  0
  139.6720   69.8440  225.8180 C   0  0  0  0  0  0  0  0  0  0  0  0
  139.7110   69.1380  227.0150 C   0  0  0  0  0  0  0  0  0  0  0  0
  138.8860   69.2400  224.6960 C   0  0  0  0  0  0  0  0  0  0  0  0
  139.5210   69.7430  223.4100 C   0  0  0  0  0  0  0  0  0  0  0  0
  139.4210   71.2580  223.4460 C   0  0  2  0  0  0  0  0  0  0  0  0
  139.4920   71.8470  222.1530 N   0  0  0  0  0  0  0  0  0  0  0  0
  140.2700   72.9880  221.8210 C   0  0  0  0  0  0  0  0  0  0  0  0
  141.4180   72.8940  221.0940 N   0  0  0  0  0  0  0  0  0  0  0  0
  142.1430   73.9790  220.7890 C   0  0  0  0  0  0  0  0  0  0  0  0
  143.3350   73.9760  220.0340 N   0  0  0  0  0  0  0  0  0  0  0  0
  143.1790   73.8780  218.5790 C   0  0  0  0  0  0  0  0  0  0  0  0
  143.8490   75.0310  217.8850 C   0  0  0  0  0  0  0  0  0  0  0  0
  142.9930   76.2570  218.0320 C   0  0  1  0  0  0  0  0  0  0  0  0
  141.5070   75.9200  218.1810 C   0  0  0  0  0  0  0  0  0  0  0  0
  140.9760   77.2040  218.8240 C   0  0  0  0  0  0  0  0  0  0  0  0
  142.1930   77.9750  219.2780 C   0  0  0  0  0  0  0  0  0  0  0  0
  143.2250   76.9550  219.2950 N   0  0  0  0  0  0  0  0  0  0  0  0
  141.7020   75.1750  221.2270 N   0  0  0  0  0  0  0  0  0  0  0  0
  140.5790   75.3240  221.9450 C   0  0  0  0  0  0  0  0  0  0  0  0
  140.2090   76.6350  222.3480 N   0  0  0  0  0  0  0  0  0  0  0  0
  138.9150   77.1820  222.0210 C   0  0  0  0  0  0  0  0  0  0  0  0
  138.9300   78.5430  221.4250 C   0  0  0  0  0  0  0  0  0  0  0  0
  140.1930   79.2830  221.6330 C   0  0  0  0  0  0  0  0  0  0  0  0
  140.3160   80.5070  221.0000 C   0  0  0  0  0  0  0  0  0  0  0  0
  141.4630   81.2560  221.1430 C   0  0  0  0  0  0  0  0  0  0  0  0
  142.4930   80.7610  221.9340 C   0  0  0  0  0  0  0  0  0  0  0  0
  142.3610   79.5400  222.5610 C   0  0  0  0  0  0  0  0  0  0  0  0
  141.2050   78.7950  222.4120 C   0  0  0  0  0  0  0  0  0  0  0  0
  141.1160   77.4870  223.1090 C   0  0  0  0  0  0  0  0  0  0  0  0
  139.8800   74.2280  222.2320 N   0  0  0  0  0  0  0  0  0  0  0  0
  140.3490   71.8640  224.4660 C   0  0  0  0  0  0  0  0  0  0  0  0
  140.4427   69.0617  229.0537 H   0  0  0  0  0  0  0  0  0  0  0  0
  141.6468   71.2263  228.8581 H   0  0  0  0  0  0  0  0  0  0  0  0
  141.5675   72.4742  226.7177 H   0  0  0  0  0  0  0  0  0  0  0  0
  139.1767   68.1801  227.0979 H   0  0  0  0  0  0  0  0  0  0  0  0
  138.9382   68.1422  224.7424 H   0  0  0  0  0  0  0  0  0  0  0  0
  137.8245   69.5226  224.7545 H   0  0  0  0  0  0  0  0  0  0  0  0
  140.5750   69.4325  223.3595 H   0  0  0  0  0  0  0  0  0  0  0  0
  139.0119   69.3308  222.5263 H   0  0  0  0  0  0  0  0  0  0  0  0
  138.4097   71.5084  223.7990 H   0  0  0  0  0  0  0  0  0  0  0  0
  138.9220   71.4030  221.3840 H   0  0  0  0  0  0  0  0  0  0  0  0
  144.2990   74.0370  220.4430 H   0  0  0  0  0  0  0  0  0  0  0  0
  143.6313   72.9374  218.2315 H   0  0  0  0  0  0  0  0  0  0  0  0
  142.1056   73.9017  218.3399 H   0  0  0  0  0  0  0  0  0  0  0  0
  144.8340   75.2127  218.3396 H   0  0  0  0  0  0  0  0  0  0  0  0
  143.9805   74.7962  216.8184 H   0  0  0  0  0  0  0  0  0  0  0  0
  143.2451   76.8385  217.1329 H   0  0  0  0  0  0  0  0  0  0  0  0
  141.0359   75.7330  217.2048 H   0  0  0  0  0  0  0  0  0  0  0  0
  141.3062   75.0072  218.7611 H   0  0  0  0  0  0  0  0  0  0  0  0
  140.4034   77.7906  218.0904 H   0  0  0  0  0  0  0  0  0  0  0  0
  140.3007   76.9849  219.6642 H   0  0  0  0  0  0  0  0  0  0  0  0
  142.4409   78.7791  218.5695 H   0  0  0  0  0  0  0  0  0  0  0  0
  142.0570   78.4763  220.2476 H   0  0  0  0  0  0  0  0  0  0  0  0
  142.9340   76.2730  220.0580 H   0  0  0  0  0  0  0  0  0  0  0  0
  138.4310   76.5028  221.3037 H   0  0  0  0  0  0  0  0  0  0  0  0
  138.3756   77.2751  222.9752 H   0  0  0  0  0  0  0  0  0  0  0  0
  138.7609   78.4471  220.3423 H   0  0  0  0  0  0  0  0  0  0  0  0
  138.1404   79.1179  221.9310 H   0  0  0  0  0  0  0  0  0  0  0  0
  139.4914   80.8849  220.3777 H   0  0  0  0  0  0  0  0  0  0  0  0
  141.5621   82.2291  220.6399 H   0  0  0  0  0  0  0  0  0  0  0  0
  143.4165   81.3451  222.0603 H   0  0  0  0  0  0  0  0  0  0  0  0
  143.1814   79.1553  223.1846 H   0  0  0  0  0  0  0  0  0  0  0  0
  142.1115   77.0219  223.1597 H   0  0  0  0  0  0  0  0  0  0  0  0
  140.7434   77.6238  224.1349 H   0  0  0  0  0  0  0  0  0  0  0  0
  141.3706   71.8956  224.0593 H   0  0  0  0  0  0  0  0  0  0  0  0
  140.0170   72.8856  224.7028 H   0  0  0  0  0  0  0  0  0  0  0  0
  1  2  2  0
  2  3  1  0
  3  4  2  0
  4  5  1  0
  5  6  2  0
  5  7  1  0
  7  8  1  0
  8  9  1  0
  9 10  1  0
 10 11  1  0
 11 12  2  0
 12 13  1  0
 13 14  1  0
 14 15  1  0
 15 16  1  0
 16 17  1  0
 17 18  1  0
 18 19  1  0
 19 20  1  0
 20 21  1  0
 13 22  2  0
 22 23  1  0
 23 24  1  0
 24 25  1  0
 25 26  1  0
 26 27  1  0
 27 28  2  0
 28 29  1  0
 29 30  2  0
 30 31  1  0
 31 32  2  0
 32 33  1  0
 23 34  2  0
  9 35  1  0
  6  1  1  0
 34 11  1  0
 35  4  1  0
 21 17  1  0
 33 24  1  0
 32 27  1  0
  1 36  1  0
  2 37  1  0
  3 38  1  0
  6 39  1  0
  7 40  1  0
  7 41  1  0
  8 42  1  0
  8 43  1  0
  9 44  1  1
 10 45  1  0
 14 46  1  0
 15 47  1  0
 15 48  1  0
 16 49  1  0
 16 50  1  0
 17 51  1  6
 18 52  1  0
 18 53  1  0
 19 54  1  0
 19 55  1  0
 20 56  1  0
 20 57  1  0
 21 58  1  0
 25 59  1  0
 25 60  1  0
 26 61  1  0
 26 62  1  0
 28 63  1  0
 29 64  1  0
 30 65  1  0
 31 66  1  0
 33 67  1  0
 33 68  1  0
 35 69  1  0
 35 70  1  0
M  END
>  <smiles>  (143) 
c1ccc2c(c1)CCC(Nc1nc(NCCC3CCCN3)nc(N3CCc4ccccc4C3)n1)C2

>  <score_type>  (143) 
oracle

>  <origin>  (143) 
autodockgpu

>  <m_score__min__energy>  (143) 
-10.69

>  <m_primary>  (143) 
energy

>  <rmsd>  (143) 
11.436736578465016

>  <m_score__min__rmsd>  (143) 
11.436736578465016

>  <meeko>  (143) 
{"free_energy": -8.75, "intermolecular_energy": -10.84, "internal_energy": -2.83, "cluster_size": 21, "cluster_id": 2, "rank_in_cluster": 19}

>  <energy>  (143) 
-9.07

>  <cluster_rmsd>  (143) 
0.9

>  <cluster>  (143) 
6

$$$$

     RDKit          3D

 70 75  0  0  1  0  0  0  0  0999 V2000
  140.2250   69.1450  227.9630 C   0  0  0  0  0  0  0  0  0  0  0  0
  140.9910   70.2830  227.9490 C   0  0  0  0  0  0  0  0  0  0  0  0
  141.0620   71.0330  226.7820 C   0  0  0  0  0  0  0  0  0  0  0  0
  140.3820   70.6680  225.6280 C   0  0  0  0  0  0  0  0  0  0  0  0
  139.6190   69.5300  225.6510 C   0  0  0  0  0  0  0  0  0  0  0  0
  139.5380   68.7690  226.8110 C   0  0  0  0  0  0  0  0  0  0  0  0
  138.8450   69.0480  224.4640 C   0  0  0  0  0  0  0  0  0  0  0  0
  139.5860   69.5540  223.2370 C   0  0  0  0  0  0  0  0  0  0  0  0
  139.6090   71.0680  223.3450 C   0  0  2  0  0  0  0  0  0  0  0  0
  139.7950   71.7090  222.0870 N   0  0  0  0  0  0  0  0  0  0  0  0
  139.9970   73.1030  221.9070 C   0  0  0  0  0  0  0  0  0  0  0  0
  139.1160   74.0280  222.3790 N   0  0  0  0  0  0  0  0  0  0  0  0
  139.3180   75.3410  222.2010 C   0  0  0  0  0  0  0  0  0  0  0  0
  138.4670   76.3670  222.6640 N   0  0  0  0  0  0  0  0  0  0  0  0
  138.6090   77.6710  222.0090 C   0  0  0  0  0  0  0  0  0  0  0  0
  138.8780   78.7550  223.0160 C   0  0  0  0  0  0  0  0  0  0  0  0
  140.1960   79.4020  222.7010 C   0  0  1  0  0  0  0  0  0  0  0  0
  141.1980   79.2800  223.8520 C   0  0  0  0  0  0  0  0  0  0  0  0
  142.5220   79.5060  223.1160 C   0  0  0  0  0  0  0  0  0  0  0  0
  142.2030   79.3950  221.6430 C   0  0  0  0  0  0  0  0  0  0  0  0
  140.9280   78.7010  221.6480 N   0  0  0  0  0  0  0  0  0  0  0  0
  140.4260   75.7230  221.5340 N   0  0  0  0  0  0  0  0  0  0  0  0
  141.3250   74.8540  221.0480 C   0  0  0  0  0  0  0  0  0  0  0  0
  142.4580   75.3720  220.3660 N   0  0  0  0  0  0  0  0  0  0  0  0
  142.4370   76.6840  219.7670 C   0  0  0  0  0  0  0  0  0  0  0  0
  142.9180   76.7510  218.3620 C   0  0  0  0  0  0  0  0  0  0  0  0
  143.7140   75.5800  217.9370 C   0  0  0  0  0  0  0  0  0  0  0  0
  144.0890   75.5250  216.6060 C   0  0  0  0  0  0  0  0  0  0  0  0
  144.8300   74.4650  216.1320 C   0  0  0  0  0  0  0  0  0  0  0  0
  145.1950   73.4540  217.0130 C   0  0  0  0  0  0  0  0  0  0  0  0
  144.8170   73.5180  218.3370 C   0  0  0  0  0  0  0  0  0  0  0  0
  144.0730   74.5860  218.8050 C   0  0  0  0  0  0  0  0  0  0  0  0
  143.6930   74.6040  220.2400 C   0  0  0  0  0  0  0  0  0  0  0  0
  141.0970   73.5570  221.2420 N   0  0  0  0  0  0  0  0  0  0  0  0
  140.5300   71.5460  224.4370 C   0  0  0  0  0  0  0  0  0  0  0  0
  140.1540   68.5350  228.8756 H   0  0  0  0  0  0  0  0  0  0  0  0
  141.5408   70.5969  228.8486 H   0  0  0  0  0  0  0  0  0  0  0  0
  141.6766   71.9452  226.7719 H   0  0  0  0  0  0  0  0  0  0  0  0
  138.9229   67.8571  226.8196 H   0  0  0  0  0  0  0  0  0  0  0  0
  138.8033   67.9488  224.4573 H   0  0  0  0  0  0  0  0  0  0  0  0
  137.8090   69.4171  224.4857 H   0  0  0  0  0  0  0  0  0  0  0  0
  140.6121   69.1579  223.2219 H   0  0  0  0  0  0  0  0  0  0  0  0
  139.0922   69.2276  222.3099 H   0  0  0  0  0  0  0  0  0  0  0  0
  138.6048   71.3857  223.6622 H   0  0  0  0  0  0  0  0  0  0  0  0
  139.7800   71.1020  221.2250 H   0  0  0  0  0  0  0  0  0  0  0  0
  137.7590   76.2520  223.4300 H   0  0  0  0  0  0  0  0  0  0  0  0
  139.4461   77.6262  221.2968 H   0  0  0  0  0  0  0  0  0  0  0  0
  137.6695   77.9042  221.4865 H   0  0  0  0  0  0  0  0  0  0  0  0
  138.0775   79.5080  222.9694 H   0  0  0  0  0  0  0  0  0  0  0  0
  138.9097   78.3223  224.0268 H   0  0  0  0  0  0  0  0  0  0  0  0
  139.9068   80.4332  222.4499 H   0  0  0  0  0  0  0  0  0  0  0  0
  141.0266   80.0492  224.6194 H   0  0  0  0  0  0  0  0  0  0  0  0
  141.1424   78.3285  224.4012 H   0  0  0  0  0  0  0  0  0  0  0  0
  142.9220   80.5045  223.3464 H   0  0  0  0  0  0  0  0  0  0  0  0
  143.2829   78.7721  223.4202 H   0  0  0  0  0  0  0  0  0  0  0  0
  142.1127   80.3887  221.1800 H   0  0  0  0  0  0  0  0  0  0  0  0
  142.9816   78.8768  221.0640 H   0  0  0  0  0  0  0  0  0  0  0  0
  141.1370   77.7330  222.0380 H   0  0  0  0  0  0  0  0  0  0  0  0
  141.4000   77.0504  219.7886 H   0  0  0  0  0  0  0  0  0  0  0  0
  143.1348   77.2974  220.3559 H   0  0  0  0  0  0  0  0  0  0  0  0
  142.0423   76.8310  217.7011 H   0  0  0  0  0  0  0  0  0  0  0  0
  143.5826   77.6251  218.2970 H   0  0  0  0  0  0  0  0  0  0  0  0
  143.7932   76.3337  215.9216 H   0  0  0  0  0  0  0  0  0  0  0  0
  145.1278   74.4195  215.0741 H   0  0  0  0  0  0  0  0  0  0  0  0
  145.7874   72.6001  216.6526 H   0  0  0  0  0  0  0  0  0  0  0  0
  145.1095   72.7130  219.0272 H   0  0  0  0  0  0  0  0  0  0  0  0
  143.5323   73.5761  220.5973 H   0  0  0  0  0  0  0  0  0  0  0  0
  144.4919   75.0603  220.8429 H   0  0  0  0  0  0  0  0  0  0  0  0
  141.5704   71.5099  224.0815 H   0  0  0  0  0  0  0  0  0  0  0  0
  140.2718   72.5802  224.7087 H   0  0  0  0  0  0  0  0  0  0  0  0
  1  2  2  0
  2  3  1  0
  3  4  2  0
  4  5  1  0
  5  6  2  0
  5  7  1  0
  7  8  1  0
  8  9  1  0
  9 10  1  0
 10 11  1  0
 11 12  2  0
 12 13  1  0
 13 14  1  0
 14 15  1  0
 15 16  1  0
 16 17  1  0
 17 18  1  0
 18 19  1  0
 19 20  1  0
 20 21  1  0
 13 22  2  0
 22 23  1  0
 23 24  1  0
 24 25  1  0
 25 26  1  0
 26 27  1  0
 27 28  2  0
 28 29  1  0
 29 30  2  0
 30 31  1  0
 31 32  2  0
 32 33  1  0
 23 34  2  0
  9 35  1  0
  6  1  1  0
 34 11  1  0
 35  4  1  0
 21 17  1  0
 33 24  1  0
 32 27  1  0
  1 36  1  0
  2 37  1  0
  3 38  1  0
  6 39  1  0
  7 40  1  0
  7 41  1  0
  8 42  1  0
  8 43  1  0
  9 44  1  1
 10 45  1  0
 14 46  1  0
 15 47  1  0
 15 48  1  0
 16 49  1  0
 16 50  1  0
 17 51  1  6
 18 52  1  0
 18 53  1  0
 19 54  1  0
 19 55  1  0
 20 56  1  0
 20 57  1  0
 21 58  1  0
 25 59  1  0
 25 60  1  0
 26 61  1  0
 26 62  1  0
 28 63  1  0
 29 64  1  0
 30 65  1  0
 31 66  1  0
 33 67  1  0
 33 68  1  0
 35 69  1  0
 35 70  1  0
M  END
>  <smiles>  (144) 
c1ccc2c(c1)CCC(Nc1nc(NCCC3CCCN3)nc(N3CCc4ccccc4C3)n1)C2

>  <score_type>  (144) 
oracle

>  <origin>  (144) 
autodockgpu

>  <m_score__min__energy>  (144) 
-10.69

>  <m_primary>  (144) 
energy

>  <rmsd>  (144) 
11.679609415462101

>  <m_score__min__rmsd>  (144) 
11.679609415462101

>  <meeko>  (144) 
{"free_energy": -9.07, "intermolecular_energy": -11.16, "internal_energy": -2.04, "cluster_size": 3, "cluster_id": 6, "rank_in_cluster": 3}

>  <energy>  (144) 
-9.58

>  <cluster_rmsd>  (144) 
0.0

>  <cluster>  (144) 
7

$$$$

     RDKit          3D

 70 75  0  0  1  0  0  0  0  0999 V2000
  140.3650   69.7030  228.3230 C   0  0  0  0  0  0  0  0  0  0  0  0
  141.0610   70.8780  228.1920 C   0  0  0  0  0  0  0  0  0  0  0  0
  141.0470   71.5370  226.9700 C   0  0  0  0  0  0  0  0  0  0  0  0
  140.3520   71.0450  225.8740 C   0  0  0  0  0  0  0  0  0  0  0  0
  139.6600   69.8710  226.0130 C   0  0  0  0  0  0  0  0  0  0  0  0
  139.6630   69.2000  227.2300 C   0  0  0  0  0  0  0  0  0  0  0  0
  138.8760   69.2540  224.8960 C   0  0  0  0  0  0  0  0  0  0  0  0
  139.5430   69.7040  223.6070 C   0  0  0  0  0  0  0  0  0  0  0  0
  139.4800   71.2210  223.5980 C   0  0  2  0  0  0  0  0  0  0  0  0
  139.5850   71.7710  222.2900 N   0  0  0  0  0  0  0  0  0  0  0  0
  140.5010   72.7870  221.9060 C   0  0  0  0  0  0  0  0  0  0  0  0
  141.7840   72.5050  221.5480 N   0  0  0  0  0  0  0  0  0  0  0  0
  142.6380   73.4730  221.1890 C   0  0  0  0  0  0  0  0  0  0  0  0
  143.9780   73.2720  220.7940 N   0  0  0  0  0  0  0  0  0  0  0  0
  144.3770   73.8890  219.5240 C   0  0  0  0  0  0  0  0  0  0  0  0
  143.2870   73.7650  218.4960 C   0  0  0  0  0  0  0  0  0  0  0  0
  143.0960   75.0930  217.8200 C   0  0  1  0  0  0  0  0  0  0  0  0
  141.6370   75.3510  217.4370 C   0  0  0  0  0  0  0  0  0  0  0  0
  141.6350   76.8760  217.2910 C   0  0  0  0  0  0  0  0  0  0  0  0
  142.9290   77.3530  217.9080 C   0  0  0  0  0  0  0  0  0  0  0  0
  143.3270   76.2200  218.7220 N   0  0  0  0  0  0  0  0  0  0  0  0
  142.1880   74.7440  221.1940 N   0  0  0  0  0  0  0  0  0  0  0  0
  140.9340   75.0760  221.5370 C   0  0  0  0  0  0  0  0  0  0  0  0
  140.5700   76.4490  221.5000 N   0  0  0  0  0  0  0  0  0  0  0  0
  140.4710   77.1640  220.2520 C   0  0  0  0  0  0  0  0  0  0  0  0
  141.1760   78.4720  220.2080 C   0  0  0  0  0  0  0  0  0  0  0  0
  141.5130   79.0240  221.5370 C   0  0  0  0  0  0  0  0  0  0  0  0
  142.2770   80.1770  221.5630 C   0  0  0  0  0  0  0  0  0  0  0  0
  142.6340   80.7530  222.7620 C   0  0  0  0  0  0  0  0  0  0  0  0
  142.2140   80.1540  223.9450 C   0  0  0  0  0  0  0  0  0  0  0  0
  141.4530   79.0050  223.9090 C   0  0  0  0  0  0  0  0  0  0  0  0
  141.0990   78.4350  222.6990 C   0  0  0  0  0  0  0  0  0  0  0  0
  140.2790   77.1970  222.7190 C   0  0  0  0  0  0  0  0  0  0  0  0
  140.1100   74.0930  221.8880 N   0  0  0  0  0  0  0  0  0  0  0  0
  140.4070   71.8340  224.6150 C   0  0  0  0  0  0  0  0  0  0  0  0
  140.3613   69.1635  229.2816 H   0  0  0  0  0  0  0  0  0  0  0  0
  141.6220   71.2920  229.0428 H   0  0  0  0  0  0  0  0  0  0  0  0
  141.6048   72.4795  226.8672 H   0  0  0  0  0  0  0  0  0  0  0  0
  139.1032   68.2586  227.3316 H   0  0  0  0  0  0  0  0  0  0  0  0
  138.9001   68.1571  224.9744 H   0  0  0  0  0  0  0  0  0  0  0  0
  137.8211   69.5638  224.9294 H   0  0  0  0  0  0  0  0  0  0  0  0
  140.5897   69.3667  223.5825 H   0  0  0  0  0  0  0  0  0  0  0  0
  139.0376   69.2789  222.7273 H   0  0  0  0  0  0  0  0  0  0  0  0
  138.4697   71.5053  223.9275 H   0  0  0  0  0  0  0  0  0  0  0  0
  138.9320   71.3960  221.5510 H   0  0  0  0  0  0  0  0  0  0  0  0
  144.6840   72.7220  221.3400 H   0  0  0  0  0  0  0  0  0  0  0  0
  144.5911   74.9545  219.6939 H   0  0  0  0  0  0  0  0  0  0  0  0
  145.2714   73.3699  219.1492 H   0  0  0  0  0  0  0  0  0  0  0  0
  143.5694   73.0086  217.7490 H   0  0  0  0  0  0  0  0  0  0  0  0
  142.3499   73.4593  218.9843 H   0  0  0  0  0  0  0  0  0  0  0  0
  143.7916   75.0352  216.9698 H   0  0  0  0  0  0  0  0  0  0  0  0
  141.3744   74.8548  216.4910 H   0  0  0  0  0  0  0  0  0  0  0  0
  140.9043   74.9651  218.1610 H   0  0  0  0  0  0  0  0  0  0  0  0
  141.5906   77.1586  216.2288 H   0  0  0  0  0  0  0  0  0  0  0  0
  140.7618   77.3277  217.7844 H   0  0  0  0  0  0  0  0  0  0  0  0
  143.6810   77.5707  217.1353 H   0  0  0  0  0  0  0  0  0  0  0  0
  142.8235   78.2871  218.4793 H   0  0  0  0  0  0  0  0  0  0  0  0
  142.5830   76.1410  219.4780 H   0  0  0  0  0  0  0  0  0  0  0  0
  140.8911   76.5254  219.4610 H   0  0  0  0  0  0  0  0  0  0  0  0
  139.4032   77.3910  220.1170 H   0  0  0  0  0  0  0  0  0  0  0  0
  142.1100   78.3415  219.6418 H   0  0  0  0  0  0  0  0  0  0  0  0
  140.4867   79.1867  219.7346 H   0  0  0  0  0  0  0  0  0  0  0  0
  142.6020   80.6375  220.6184 H   0  0  0  0  0  0  0  0  0  0  0  0
  143.2405   81.6704  222.7837 H   0  0  0  0  0  0  0  0  0  0  0  0
  142.4900   80.5986  224.9126 H   0  0  0  0  0  0  0  0  0  0  0  0
  141.1248   78.5379  224.8493 H   0  0  0  0  0  0  0  0  0  0  0  0
  140.5372   76.5914  223.6002 H   0  0  0  0  0  0  0  0  0  0  0  0
  139.2088   77.4460  222.7706 H   0  0  0  0  0  0  0  0  0  0  0  0
  141.4351   71.8294  224.2239 H   0  0  0  0  0  0  0  0  0  0  0  0
  140.0965   72.8697  224.8172 H   0  0  0  0  0  0  0  0  0  0  0  0
  1  2  2  0
  2  3  1  0
  3  4  2  0
  4  5  1  0
  5  6  2  0
  5  7  1  0
  7  8  1  0
  8  9  1  0
  9 10  1  0
 10 11  1  0
 11 12  2  0
 12 13  1  0
 13 14  1  0
 14 15  1  0
 15 16  1  0
 16 17  1  0
 17 18  1  0
 18 19  1  0
 19 20  1  0
 20 21  1  0
 13 22  2  0
 22 23  1  0
 23 24  1  0
 24 25  1  0
 25 26  1  0
 26 27  1  0
 27 28  2  0
 28 29  1  0
 29 30  2  0
 30 31  1  0
 31 32  2  0
 32 33  1  0
 23 34  2  0
  9 35  1  0
  6  1  1  0
 34 11  1  0
 35  4  1  0
 21 17  1  0
 33 24  1  0
 32 27  1  0
  1 36  1  0
  2 37  1  0
  3 38  1  0
  6 39  1  0
  7 40  1  0
  7 41  1  0
  8 42  1  0
  8 43  1  0
  9 44  1  1
 10 45  1  0
 14 46  1  0
 15 47  1  0
 15 48  1  0
 16 49  1  0
 16 50  1  0
 17 51  1  6
 18 52  1  0
 18 53  1  0
 19 54  1  0
 19 55  1  0
 20 56  1  0
 20 57  1  0
 21 58  1  0
 25 59  1  0
 25 60  1  0
 26 61  1  0
 26 62  1  0
 28 63  1  0
 29 64  1  0
 30 65  1  0
 31 66  1  0
 33 67  1  0
 33 68  1  0
 35 69  1  0
 35 70  1  0
M  END
>  <smiles>  (145) 
c1ccc2c(c1)CCC(Nc1nc(NCCC3CCCN3)nc(N3CCc4ccccc4C3)n1)C2

>  <score_type>  (145) 
oracle

>  <origin>  (145) 
autodockgpu

>  <m_score__min__energy>  (145) 
-10.69

>  <m_primary>  (145) 
energy

>  <rmsd>  (145) 
11.488104512420637

>  <m_score__min__rmsd>  (145) 
11.488104512420637

>  <meeko>  (145) 
{"free_energy": -9.29, "intermolecular_energy": -11.38, "internal_energy": -2.33, "cluster_size": 21, "cluster_id": 2, "rank_in_cluster": 13}

>  <energy>  (145) 
-9.06

>  <cluster_rmsd>  (145) 
0.0

>  <cluster>  (145) 
8

$$$$

     RDKit          3D

 70 75  0  0  1  0  0  0  0  0999 V2000
  140.5430   69.3900  228.3600 C   0  0  0  0  0  0  0  0  0  0  0  0
  141.1670   70.6060  228.2410 C   0  0  0  0  0  0  0  0  0  0  0  0
  141.0700   71.2990  227.0410 C   0  0  0  0  0  0  0  0  0  0  0  0
  140.3620   70.8000  225.9560 C   0  0  0  0  0  0  0  0  0  0  0  0
  139.7420   69.5850  226.0840 C   0  0  0  0  0  0  0  0  0  0  0  0
  139.8290   68.8800  227.2780 C   0  0  0  0  0  0  0  0  0  0  0  0
  138.9520   68.9580  224.9770 C   0  0  0  0  0  0  0  0  0  0  0  0
  139.5440   69.4820  223.6790 C   0  0  0  0  0  0  0  0  0  0  0  0
  139.3960   70.9930  223.7200 C   0  0  2  0  0  0  0  0  0  0  0  0
  139.4200   71.5860  222.4270 N   0  0  0  0  0  0  0  0  0  0  0  0
  140.3470   72.5750  222.0030 C   0  0  0  0  0  0  0  0  0  0  0  0
  141.6190   72.2620  221.6310 N   0  0  0  0  0  0  0  0  0  0  0  0
  142.4840   73.2060  221.2340 C   0  0  0  0  0  0  0  0  0  0  0  0
  143.8120   72.9720  220.8220 N   0  0  0  0  0  0  0  0  0  0  0  0
  144.3680   73.9260  219.8570 C   0  0  0  0  0  0  0  0  0  0  0  0
  143.8940   73.6230  218.4620 C   0  0  0  0  0  0  0  0  0  0  0  0
  143.2830   74.8610  217.8720 C   0  0  1  0  0  0  0  0  0  0  0  0
  143.3020   76.0450  218.8420 C   0  0  0  0  0  0  0  0  0  0  0  0
  143.1480   77.2220  217.8750 C   0  0  0  0  0  0  0  0  0  0  0  0
  143.3930   76.6600  216.4950 C   0  0  0  0  0  0  0  0  0  0  0  0
  144.0800   75.4140  216.7780 N   0  0  0  0  0  0  0  0  0  0  0  0
  142.0560   74.4840  221.2160 N   0  0  0  0  0  0  0  0  0  0  0  0
  140.8150   74.8470  221.5720 C   0  0  0  0  0  0  0  0  0  0  0  0
  140.4740   76.2240  221.5080 N   0  0  0  0  0  0  0  0  0  0  0  0
  140.3740   76.9130  220.2450 C   0  0  0  0  0  0  0  0  0  0  0  0
  141.1010   78.2070  220.1650 C   0  0  0  0  0  0  0  0  0  0  0  0
  141.4620   78.7820  221.4780 C   0  0  0  0  0  0  0  0  0  0  0  0
  142.2460   79.9230  221.4710 C   0  0  0  0  0  0  0  0  0  0  0  0
  142.6250   80.5180  222.6530 C   0  0  0  0  0  0  0  0  0  0  0  0
  142.2080   79.9540  223.8530 C   0  0  0  0  0  0  0  0  0  0  0  0
  141.4270   78.8170  223.8500 C   0  0  0  0  0  0  0  0  0  0  0  0
  141.0500   78.2270  222.6570 C   0  0  0  0  0  0  0  0  0  0  0  0
  140.2090   77.0040  222.7130 C   0  0  0  0  0  0  0  0  0  0  0  0
  139.9790   73.8870  221.9610 N   0  0  0  0  0  0  0  0  0  0  0  0
  140.3260   71.6280  224.7210 C   0  0  0  0  0  0  0  0  0  0  0  0
  140.6059   68.8232  229.3007 H   0  0  0  0  0  0  0  0  0  0  0  0
  141.7359   71.0261  229.0836 H   0  0  0  0  0  0  0  0  0  0  0  0
  141.5701   72.2743  226.9474 H   0  0  0  0  0  0  0  0  0  0  0  0
  139.3271   67.9055  227.3703 H   0  0  0  0  0  0  0  0  0  0  0  0
  139.0394   67.8623  225.0203 H   0  0  0  0  0  0  0  0  0  0  0  0
  137.8837   69.2074  225.0580 H   0  0  0  0  0  0  0  0  0  0  0  0
  140.6062   69.2055  223.6063 H   0  0  0  0  0  0  0  0  0  0  0  0
  139.0307   69.0544  222.8051 H   0  0  0  0  0  0  0  0  0  0  0  0
  138.3849   71.2094  224.0952 H   0  0  0  0  0  0  0  0  0  0  0  0
  138.6940   71.2660  221.7310 H   0  0  0  0  0  0  0  0  0  0  0  0
  144.4080   72.1760  221.1560 H   0  0  0  0  0  0  0  0  0  0  0  0
  144.0493   74.9423  220.1320 H   0  0  0  0  0  0  0  0  0  0  0  0
  145.4649   73.8459  219.8786 H   0  0  0  0  0  0  0  0  0  0  0  0
  144.7462   73.3025  217.8447 H   0  0  0  0  0  0  0  0  0  0  0  0
  143.1454   72.8176  218.4913 H   0  0  0  0  0  0  0  0  0  0  0  0
  142.2782   74.5202  217.5819 H   0  0  0  0  0  0  0  0  0  0  0  0
  142.4654   75.9962  219.5545 H   0  0  0  0  0  0  0  0  0  0  0  0
  144.1993   76.0954  219.4763 H   0  0  0  0  0  0  0  0  0  0  0  0
  142.1336   77.6420  217.9423 H   0  0  0  0  0  0  0  0  0  0  0  0
  143.8525   78.0331  218.1112 H   0  0  0  0  0  0  0  0  0  0  0  0
  142.4457   76.4798  215.9657 H   0  0  0  0  0  0  0  0  0  0  0  0
  143.9646   77.3363  215.8424 H   0  0  0  0  0  0  0  0  0  0  0  0
  145.0080   75.6970  217.2130 H   0  0  0  0  0  0  0  0  0  0  0  0
  140.7746   76.2499  219.4641 H   0  0  0  0  0  0  0  0  0  0  0  0
  139.3089   77.1554  220.1157 H   0  0  0  0  0  0  0  0  0  0  0  0
  142.0264   78.0478  219.5920 H   0  0  0  0  0  0  0  0  0  0  0  0
  140.4190   78.9232  219.6833 H   0  0  0  0  0  0  0  0  0  0  0  0
  142.5686   80.3575  220.5133 H   0  0  0  0  0  0  0  0  0  0  0  0
  143.2476   81.4248  222.6480 H   0  0  0  0  0  0  0  0  0  0  0  0
  142.5015   80.4155  224.8074 H   0  0  0  0  0  0  0  0  0  0  0  0
  141.1015   78.3760  224.8037 H   0  0  0  0  0  0  0  0  0  0  0  0
  140.4662   76.4137  223.6048 H   0  0  0  0  0  0  0  0  0  0  0  0
  139.1439   77.2727  222.7699 H   0  0  0  0  0  0  0  0  0  0  0  0
  141.3372   71.6927  224.2929 H   0  0  0  0  0  0  0  0  0  0  0  0
  139.9674   72.6385  224.9663 H   0  0  0  0  0  0  0  0  0  0  0  0
  1  2  2  0
  2  3  1  0
  3  4  2  0
  4  5  1  0
  5  6  2  0
  5  7  1  0
  7  8  1  0
  8  9  1  0
  9 10  1  0
 10 11  1  0
 11 12  2  0
 12 13  1  0
 13 14  1  0
 14 15  1  0
 15 16  1  0
 16 17  1  0
 17 18  1  0
 18 19  1  0
 19 20  1  0
 20 21  1  0
 13 22  2  0
 22 23  1  0
 23 24  1  0
 24 25  1  0
 25 26  1  0
 26 27  1  0
 27 28  2  0
 28 29  1  0
 29 30  2  0
 30 31  1  0
 31 32  2  0
 32 33  1  0
 23 34  2  0
  9 35  1  0
  6  1  1  0
 34 11  1  0
 35  4  1  0
 21 17  1  0
 33 24  1  0
 32 27  1  0
  1 36  1  0
  2 37  1  0
  3 38  1  0
  6 39  1  0
  7 40  1  0
  7 41  1  0
  8 42  1  0
  8 43  1  0
  9 44  1  1
 10 45  1  0
 14 46  1  0
 15 47  1  0
 15 48  1  0
 16 49  1  0
 16 50  1  0
 17 51  1  6
 18 52  1  0
 18 53  1  0
 19 54  1  0
 19 55  1  0
 20 56  1  0
 20 57  1  0
 21 58  1  0
 25 59  1  0
 25 60  1  0
 26 61  1  0
 26 62  1  0
 28 63  1  0
 29 64  1  0
 30 65  1  0
 31 66  1  0
 33 67  1  0
 33 68  1  0
 35 69  1  0
 35 70  1  0
M  END
>  <smiles>  (146) 
c1ccc2c(c1)CCC(Nc1nc(NCCC3CCCN3)nc(N3CCc4ccccc4C3)n1)C2

>  <score_type>  (146) 
oracle

>  <origin>  (146) 
autodockgpu

>  <m_score__min__energy>  (146) 
-10.69

>  <m_primary>  (146) 
energy

>  <rmsd>  (146) 
11.728627162994648

>  <m_score__min__rmsd>  (146) 
11.728627162994648

>  <meeko>  (146) 
{"free_energy": -10.34, "intermolecular_energy": -12.43, "internal_energy": -1.66, "cluster_size": 21, "cluster_id": 2, "rank_in_cluster": 1}

>  <energy>  (146) 
-8.55

>  <cluster_rmsd>  (146) 
0.0

>  <cluster>  (146) 
9

$$$$

     RDKit          3D

 70 75  0  0  1  0  0  0  0  0999 V2000
  139.9670   68.7530  227.2200 C   0  0  0  0  0  0  0  0  0  0  0  0
  140.7290   69.8630  227.4840 C   0  0  0  0  0  0  0  0  0  0  0  0
  140.8380   70.8510  226.5150 C   0  0  0  0  0  0  0  0  0  0  0  0
  140.2010   70.7530  225.2850 C   0  0  0  0  0  0  0  0  0  0  0  0
  139.4420   69.6410  225.0300 C   0  0  0  0  0  0  0  0  0  0  0  0
  139.3220   68.6430  225.9900 C   0  0  0  0  0  0  0  0  0  0  0  0
  138.7120   69.4360  223.7390 C   0  0  0  0  0  0  0  0  0  0  0  0
  139.4940   70.1960  222.6800 C   0  0  0  0  0  0  0  0  0  0  0  0
  139.5090   71.6500  223.1200 C   0  0  2  0  0  0  0  0  0  0  0  0
  139.7370   72.5510  222.0430 N   0  0  0  0  0  0  0  0  0  0  0  0
  139.3970   73.9300  222.0500 C   0  0  0  0  0  0  0  0  0  0  0  0
  138.1030   74.3550  222.0570 N   0  0  0  0  0  0  0  0  0  0  0  0
  137.7960   75.6600  222.0620 C   0  0  0  0  0  0  0  0  0  0  0  0
  136.4880   76.1890  222.0810 N   0  0  0  0  0  0  0  0  0  0  0  0
  135.7910   76.1440  223.3700 C   0  0  0  0  0  0  0  0  0  0  0  0
  134.4620   75.4520  223.2420 C   0  0  0  0  0  0  0  0  0  0  0  0
  134.6680   73.9690  223.3640 C   0  0  1  0  0  0  0  0  0  0  0  0
  135.0810   73.3230  222.0390 C   0  0  0  0  0  0  0  0  0  0  0  0
  135.7180   72.0210  222.5320 C   0  0  0  0  0  0  0  0  0  0  0  0
  135.9140   72.1910  224.0200 C   0  0  0  0  0  0  0  0  0  0  0  0
  135.8270   73.6290  224.1870 N   0  0  0  0  0  0  0  0  0  0  0  0
  138.8120   76.5460  222.0580 N   0  0  0  0  0  0  0  0  0  0  0  0
  140.1030   76.1810  222.0510 C   0  0  0  0  0  0  0  0  0  0  0  0
  141.0900   77.2030  222.0530 N   0  0  0  0  0  0  0  0  0  0  0  0
  141.4580   77.8860  223.2690 C   0  0  0  0  0  0  0  0  0  0  0  0
  141.4810   79.3700  223.1850 C   0  0  0  0  0  0  0  0  0  0  0  0
  141.5290   79.8990  221.8060 C   0  0  0  0  0  0  0  0  0  0  0  0
  141.4300   81.2710  221.6550 C   0  0  0  0  0  0  0  0  0  0  0  0
  141.4660   81.8410  220.4020 C   0  0  0  0  0  0  0  0  0  0  0  0
  141.6030   81.0140  219.2920 C   0  0  0  0  0  0  0  0  0  0  0  0
  141.7010   79.6480  219.4530 C   0  0  0  0  0  0  0  0  0  0  0  0
  141.6650   79.0850  220.7150 C   0  0  0  0  0  0  0  0  0  0  0  0
  141.7740   77.6090  220.8300 C   0  0  0  0  0  0  0  0  0  0  0  0
  140.3760   74.8780  222.0470 N   0  0  0  0  0  0  0  0  0  0  0  0
  140.3880   71.8710  224.3230 C   0  0  0  0  0  0  0  0  0  0  0  0
  139.8662   67.9572  227.9727 H   0  0  0  0  0  0  0  0  0  0  0  0
  141.2459   69.9685  228.4492 H   0  0  0  0  0  0  0  0  0  0  0  0
  141.4489   71.7405  226.7285 H   0  0  0  0  0  0  0  0  0  0  0  0
  138.7097   67.7546  225.7758 H   0  0  0  0  0  0  0  0  0  0  0  0
  138.6740   68.3655  223.4890 H   0  0  0  0  0  0  0  0  0  0  0  0
  137.6749   69.7965  223.8051 H   0  0  0  0  0  0  0  0  0  0  0  0
  140.5211   69.8079  222.6136 H   0  0  0  0  0  0  0  0  0  0  0  0
  139.0338   70.0842  221.6871 H   0  0  0  0  0  0  0  0  0  0  0  0
  138.4931   71.8950  223.4633 H   0  0  0  0  0  0  0  0  0  0  0  0
  140.1920   72.1640  221.1730 H   0  0  0  0  0  0  0  0  0  0  0  0
  136.0000   76.6000  221.2480 H   0  0  0  0  0  0  0  0  0  0  0  0
  136.4120   75.5982  224.0955 H   0  0  0  0  0  0  0  0  0  0  0  0
  135.6169   77.1757  223.7096 H   0  0  0  0  0  0  0  0  0  0  0  0
  133.7882   75.7974  224.0399 H   0  0  0  0  0  0  0  0  0  0  0  0
  134.0145   75.6855  222.2647 H   0  0  0  0  0  0  0  0  0  0  0  0
  133.7036   73.6225  223.7637 H   0  0  0  0  0  0  0  0  0  0  0  0
  134.2099   73.1280  221.3963 H   0  0  0  0  0  0  0  0  0  0  0  0
  135.7440   73.9449  221.4196 H   0  0  0  0  0  0  0  0  0  0  0  0
  135.0525   71.1690  222.3290 H   0  0  0  0  0  0  0  0  0  0  0  0
  136.6708   71.8196  222.0204 H   0  0  0  0  0  0  0  0  0  0  0  0
  135.1235   71.6767  224.5862 H   0  0  0  0  0  0  0  0  0  0  0  0
  136.8579   71.7635  224.3892 H   0  0  0  0  0  0  0  0  0  0  0  0
  136.6710   74.0240  223.6730 H   0  0  0  0  0  0  0  0  0  0  0  0
  140.7370   77.6014  224.0495 H   0  0  0  0  0  0  0  0  0  0  0  0
  142.4912   77.5788  223.4883 H   0  0  0  0  0  0  0  0  0  0  0  0
  140.5734   79.7570  223.6713 H   0  0  0  0  0  0  0  0  0  0  0  0
  142.4052   79.7000  223.6820 H   0  0  0  0  0  0  0  0  0  0  0  0
  141.3217   81.9113  222.5429 H   0  0  0  0  0  0  0  0  0  0  0  0
  141.3878   82.9315  220.2810 H   0  0  0  0  0  0  0  0  0  0  0  0
  141.6332   81.4509  218.2829 H   0  0  0  0  0  0  0  0  0  0  0  0
  141.8087   79.0010  218.5699 H   0  0  0  0  0  0  0  0  0  0  0  0
  141.3003   77.1303  219.9603 H   0  0  0  0  0  0  0  0  0  0  0  0
  142.8304   77.3041  220.8624 H   0  0  0  0  0  0  0  0  0  0  0  0
  141.4406   71.9098  224.0059 H   0  0  0  0  0  0  0  0  0  0  0  0
  140.1157   72.8206  224.8068 H   0  0  0  0  0  0  0  0  0  0  0  0
  1  2  2  0
  2  3  1  0
  3  4  2  0
  4  5  1  0
  5  6  2  0
  5  7  1  0
  7  8  1  0
  8  9  1  0
  9 10  1  0
 10 11  1  0
 11 12  2  0
 12 13  1  0
 13 14  1  0
 14 15  1  0
 15 16  1  0
 16 17  1  0
 17 18  1  0
 18 19  1  0
 19 20  1  0
 20 21  1  0
 13 22  2  0
 22 23  1  0
 23 24  1  0
 24 25  1  0
 25 26  1  0
 26 27  1  0
 27 28  2  0
 28 29  1  0
 29 30  2  0
 30 31  1  0
 31 32  2  0
 32 33  1  0
 23 34  2  0
  9 35  1  0
  6  1  1  0
 34 11  1  0
 35  4  1  0
 21 17  1  0
 33 24  1  0
 32 27  1  0
  1 36  1  0
  2 37  1  0
  3 38  1  0
  6 39  1  0
  7 40  1  0
  7 41  1  0
  8 42  1  0
  8 43  1  0
  9 44  1  1
 10 45  1  0
 14 46  1  0
 15 47  1  0
 15 48  1  0
 16 49  1  0
 16 50  1  0
 17 51  1  1
 18 52  1  0
 18 53  1  0
 19 54  1  0
 19 55  1  0
 20 56  1  0
 20 57  1  0
 21 58  1  0
 25 59  1  0
 25 60  1  0
 26 61  1  0
 26 62  1  0
 28 63  1  0
 29 64  1  0
 30 65  1  0
 31 66  1  0
 33 67  1  0
 33 68  1  0
 35 69  1  0
 35 70  1  0
M  END
>  <smiles>  (147) 
c1ccc2c(c1)CCC(Nc1nc(NCCC3CCCN3)nc(N3CCc4ccccc4C3)n1)C2

>  <score_type>  (147) 
oracle

>  <origin>  (147) 
autodockgpu

>  <m_score__min__energy>  (147) 
-10.69

>  <m_primary>  (147) 
energy

>  <rmsd>  (147) 
11.402509252647757

>  <m_score__min__rmsd>  (147) 
11.402509252647757

>  <meeko>  (147) 
{"free_energy": -8.55, "intermolecular_energy": -10.64, "internal_energy": -2.36, "cluster_size": 3, "cluster_id": 9, "rank_in_cluster": 1}

>  <energy>  (147) 
-8.22

>  <cluster_rmsd>  (147) 
1.79

>  <cluster>  (147) 
9

$$$$

     RDKit          3D

 70 75  0  0  1  0  0  0  0  0999 V2000
  140.2200   69.9660  227.7480 C   0  0  0  0  0  0  0  0  0  0  0  0
  141.0850   71.0120  227.5490 C   0  0  0  0  0  0  0  0  0  0  0  0
  141.1320   71.6210  226.3020 C   0  0  0  0  0  0  0  0  0  0  0  0
  140.3300   71.2050  225.2480 C   0  0  0  0  0  0  0  0  0  0  0  0
  139.4690   70.1600  225.4550 C   0  0  0  0  0  0  0  0  0  0  0  0
  139.4110   69.5400  226.6970 C   0  0  0  0  0  0  0  0  0  0  0  0
  138.5600   69.6330  224.3870 C   0  0  0  0  0  0  0  0  0  0  0  0
  139.2440   69.9260  223.0620 C   0  0  0  0  0  0  0  0  0  0  0  0
  139.4170   71.4340  222.9930 C   0  0  2  0  0  0  0  0  0  0  0  0
  139.5610   71.9130  221.6600 N   0  0  0  0  0  0  0  0  0  0  0  0
  140.1690   73.1450  221.3000 C   0  0  0  0  0  0  0  0  0  0  0  0
  141.0130   73.2500  220.2370 N   0  0  0  0  0  0  0  0  0  0  0  0
  141.5820   74.4180  219.9090 C   0  0  0  0  0  0  0  0  0  0  0  0
  142.4560   74.6220  218.8200 N   0  0  0  0  0  0  0  0  0  0  0  0
  142.7330   73.4490  217.9840 C   0  0  0  0  0  0  0  0  0  0  0  0
  143.6640   72.4960  218.6810 C   0  0  0  0  0  0  0  0  0  0  0  0
  144.5960   73.2770  219.5630 C   0  0  1  0  0  0  0  0  0  0  0  0
  144.5300   72.8310  221.0260 C   0  0  0  0  0  0  0  0  0  0  0  0
  145.8680   73.3550  221.5550 C   0  0  0  0  0  0  0  0  0  0  0  0
  146.6810   73.7220  220.3360 C   0  0  0  0  0  0  0  0  0  0  0  0
  146.0020   73.0020  219.2740 N   0  0  0  0  0  0  0  0  0  0  0  0
  141.2940   75.4940  220.6690 N   0  0  0  0  0  0  0  0  0  0  0  0
  140.4710   75.4450  221.7270 C   0  0  0  0  0  0  0  0  0  0  0  0
  140.2380   76.6440  222.4520 N   0  0  0  0  0  0  0  0  0  0  0  0
  138.9120   77.1980  222.5770 C   0  0  0  0  0  0  0  0  0  0  0  0
  138.7940   78.6470  222.2650 C   0  0  0  0  0  0  0  0  0  0  0  0
  140.0790   79.3770  222.2790 C   0  0  0  0  0  0  0  0  0  0  0  0
  140.0540   80.7010  221.8790 C   0  0  0  0  0  0  0  0  0  0  0  0
  141.2110   81.4490  221.8640 C   0  0  0  0  0  0  0  0  0  0  0  0
  142.4020   80.8500  222.2560 C   0  0  0  0  0  0  0  0  0  0  0  0
  142.4170   79.5300  222.6530 C   0  0  0  0  0  0  0  0  0  0  0  0
  141.2510   78.7870  222.6660 C   0  0  0  0  0  0  0  0  0  0  0  0
  141.3240   77.3690  223.1020 C   0  0  0  0  0  0  0  0  0  0  0  0
  139.9210   74.2710  222.0270 N   0  0  0  0  0  0  0  0  0  0  0  0
  140.4640   71.9300  223.9560 C   0  0  0  0  0  0  0  0  0  0  0  0
  140.1658   69.4687  228.7276 H   0  0  0  0  0  0  0  0  0  0  0  0
  141.7324   71.3634  228.3659 H   0  0  0  0  0  0  0  0  0  0  0  0
  141.8265   72.4594  226.1444 H   0  0  0  0  0  0  0  0  0  0  0  0
  138.7167   68.7011  226.8526 H   0  0  0  0  0  0  0  0  0  0  0  0
  138.4160   68.5494  224.5099 H   0  0  0  0  0  0  0  0  0  0  0  0
  137.5677   70.1051  224.4377 H   0  0  0  0  0  0  0  0  0  0  0  0
  140.2242   69.4283  223.0216 H   0  0  0  0  0  0  0  0  0  0  0  0
  138.6490   69.5536  222.2150 H   0  0  0  0  0  0  0  0  0  0  0  0
  138.4756   71.8849  223.3402 H   0  0  0  0  0  0  0  0  0  0  0  0
  139.1850   71.3070  220.8820 H   0  0  0  0  0  0  0  0  0  0  0  0
  142.9070   75.5380  218.5820 H   0  0  0  0  0  0  0  0  0  0  0  0
  141.7870   72.9320  217.7654 H   0  0  0  0  0  0  0  0  0  0  0  0
  143.2119   73.7880  217.0535 H   0  0  0  0  0  0  0  0  0  0  0  0
  143.0806   71.7924  219.2930 H   0  0  0  0  0  0  0  0  0  0  0  0
  144.2441   71.9324  217.9355 H   0  0  0  0  0  0  0  0  0  0  0  0
  144.2853   74.3172  219.3853 H   0  0  0  0  0  0  0  0  0  0  0  0
  143.6802   73.2923  221.5505 H   0  0  0  0  0  0  0  0  0  0  0  0
  144.3817   71.7497  221.1630 H   0  0  0  0  0  0  0  0  0  0  0  0
  145.7086   74.2397  222.1889 H   0  0  0  0  0  0  0  0  0  0  0  0
  146.3814   72.6017  222.1706 H   0  0  0  0  0  0  0  0  0  0  0  0
  146.6600   74.8071  220.1566 H   0  0  0  0  0  0  0  0  0  0  0  0
  147.7466   73.4648  220.4271 H   0  0  0  0  0  0  0  0  0  0  0  0
  146.1460   71.9720  219.4970 H   0  0  0  0  0  0  0  0  0  0  0  0
  138.2488   76.6485  221.8928 H   0  0  0  0  0  0  0  0  0  0  0  0
  138.6385   77.0931  223.6373 H   0  0  0  0  0  0  0  0  0  0  0  0
  138.3503   78.7491  221.2637 H   0  0  0  0  0  0  0  0  0  0  0  0
  138.1703   79.0904  223.0552 H   0  0  0  0  0  0  0  0  0  0  0  0
  139.1032   81.1601  221.5705 H   0  0  0  0  0  0  0  0  0  0  0  0
  141.1922   82.5022  221.5472 H   0  0  0  0  0  0  0  0  0  0  0  0
  143.3359   81.4311  222.2495 H   0  0  0  0  0  0  0  0  0  0  0  0
  143.3643   79.0640  222.9620 H   0  0  0  0  0  0  0  0  0  0  0  0
  142.2914   76.9365  222.8069 H   0  0  0  0  0  0  0  0  0  0  0  0
  141.2309   77.2990  224.1958 H   0  0  0  0  0  0  0  0  0  0  0  0
  141.4643   71.7491  223.5357 H   0  0  0  0  0  0  0  0  0  0  0  0
  140.3273   73.0085  224.1239 H   0  0  0  0  0  0  0  0  0  0  0  0
  1  2  2  0
  2  3  1  0
  3  4  2  0
  4  5  1  0
  5  6  2  0
  5  7  1  0
  7  8  1  0
  8  9  1  0
  9 10  1  0
 10 11  1  0
 11 12  2  0
 12 13  1  0
 13 14  1  0
 14 15  1  0
 15 16  1  0
 16 17  1  0
 17 18  1  0
 18 19  1  0
 19 20  1  0
 20 21  1  0
 13 22  2  0
 22 23  1  0
 23 24  1  0
 24 25  1  0
 25 26  1  0
 26 27  1  0
 27 28  2  0
 28 29  1  0
 29 30  2  0
 30 31  1  0
 31 32  2  0
 32 33  1  0
 23 34  2  0
  9 35  1  0
  6  1  1  0
 34 11  1  0
 35  4  1  0
 21 17  1  0
 33 24  1  0
 32 27  1  0
  1 36  1  0
  2 37  1  0
  3 38  1  0
  6 39  1  0
  7 40  1  0
  7 41  1  0
  8 42  1  0
  8 43  1  0
  9 44  1  1
 10 45  1  0
 14 46  1  0
 15 47  1  0
 15 48  1  0
 16 49  1  0
 16 50  1  0
 17 51  1  1
 18 52  1  0
 18 53  1  0
 19 54  1  0
 19 55  1  0
 20 56  1  0
 20 57  1  0
 21 58  1  0
 25 59  1  0
 25 60  1  0
 26 61  1  0
 26 62  1  0
 28 63  1  0
 29 64  1  0
 30 65  1  0
 31 66  1  0
 33 67  1  0
 33 68  1  0
 35 69  1  0
 35 70  1  0
M  END
>  <smiles>  (148) 
c1ccc2c(c1)CCC(Nc1nc(NCCC3CCCN3)nc(N3CCc4ccccc4C3)n1)C2

>  <score_type>  (148) 
oracle

>  <origin>  (148) 
autodockgpu

>  <m_score__min__energy>  (148) 
-10.69

>  <m_primary>  (148) 
energy

>  <rmsd>  (148) 
11.168442740198865

>  <m_score__min__rmsd>  (148) 
11.168442740198865

>  <meeko>  (148) 
{"free_energy": -9.74, "intermolecular_energy": -11.83, "internal_energy": -1.32, "cluster_size": 21, "cluster_id": 2, "rank_in_cluster": 8}

>  <energy>  (148) 
-7.99

>  <cluster_rmsd>  (148) 
1.78

>  <cluster>  (148) 
9

$$$$

     RDKit          3D

 70 75  0  0  1  0  0  0  0  0999 V2000
  140.6840   68.1540  228.1840 C   0  0  0  0  0  0  0  0  0  0  0  0
  141.2760   69.3800  228.3540 C   0  0  0  0  0  0  0  0  0  0  0  0
  141.0600   70.3700  227.4050 C   0  0  0  0  0  0  0  0  0  0  0  0
  140.2640   70.1600  226.2880 C   0  0  0  0  0  0  0  0  0  0  0  0
  139.6760   68.9340  226.1260 C   0  0  0  0  0  0  0  0  0  0  0  0
  139.8820   67.9320  227.0670 C   0  0  0  0  0  0  0  0  0  0  0  0
  138.7980   68.6020  224.9590 C   0  0  0  0  0  0  0  0  0  0  0  0
  139.2610   69.4850  223.8120 C   0  0  0  0  0  0  0  0  0  0  0  0
  139.0950   70.9200  224.2810 C   0  0  2  0  0  0  0  0  0  0  0  0
  138.9920   71.8450  223.2040 N   0  0  0  0  0  0  0  0  0  0  0  0
  140.0110   72.0950  222.2470 C   0  0  0  0  0  0  0  0  0  0  0  0
  140.6400   73.2990  222.1580 N   0  0  0  0  0  0  0  0  0  0  0  0
  141.5990   73.5220  221.2490 C   0  0  0  0  0  0  0  0  0  0  0  0
  142.3090   74.7310  221.0930 N   0  0  0  0  0  0  0  0  0  0  0  0
  142.4300   75.2390  219.7220 C   0  0  0  0  0  0  0  0  0  0  0  0
  143.6110   74.6270  219.0210 C   0  0  0  0  0  0  0  0  0  0  0  0
  144.4230   73.8480  220.0160 C   0  0  1  0  0  0  0  0  0  0  0  0
  145.2180   72.7140  219.3640 C   0  0  0  0  0  0  0  0  0  0  0  0
  146.2970   72.4640  220.4220 C   0  0  0  0  0  0  0  0  0  0  0  0
  146.2360   73.6420  221.3640 C   0  0  0  0  0  0  0  0  0  0  0  0
  145.5170   74.6330  220.5850 N   0  0  0  0  0  0  0  0  0  0  0  0
  141.9240   72.5120  220.4160 N   0  0  0  0  0  0  0  0  0  0  0  0
  141.3370   71.3070  220.4610 C   0  0  0  0  0  0  0  0  0  0  0  0
  141.7650   70.3170  219.5370 N   0  0  0  0  0  0  0  0  0  0  0  0
  141.0290   69.0890  219.3600 C   0  0  0  0  0  0  0  0  0  0  0  0
  141.8420   67.8460  219.4050 C   0  0  0  0  0  0  0  0  0  0  0  0
  143.2920   68.0620  219.2110 C   0  0  0  0  0  0  0  0  0  0  0  0
  144.1170   66.9620  219.3620 C   0  0  0  0  0  0  0  0  0  0  0  0
  145.4800   67.0810  219.1990 C   0  0  0  0  0  0  0  0  0  0  0  0
  146.0100   68.3270  218.8810 C   0  0  0  0  0  0  0  0  0  0  0  0
  145.1800   69.4170  218.7330 C   0  0  0  0  0  0  0  0  0  0  0  0
  143.8130   69.2870  218.8980 C   0  0  0  0  0  0  0  0  0  0  0  0
  142.9650   70.4940  218.7270 C   0  0  0  0  0  0  0  0  0  0  0  0
  140.3890   71.1160  221.3760 N   0  0  0  0  0  0  0  0  0  0  0  0
  140.1020   71.2920  225.3370 C   0  0  0  0  0  0  0  0  0  0  0  0
  140.8412   67.3542  228.9226 H   0  0  0  0  0  0  0  0  0  0  0  0
  141.9125   69.5757  229.2295 H   0  0  0  0  0  0  0  0  0  0  0  0
  141.5351   71.3525  227.5430 H   0  0  0  0  0  0  0  0  0  0  0  0
  139.4053   66.9505  226.9277 H   0  0  0  0  0  0  0  0  0  0  0  0
  138.9065   67.5408  224.6905 H   0  0  0  0  0  0  0  0  0  0  0  0
  137.7376   68.7756  225.1943 H   0  0  0  0  0  0  0  0  0  0  0  0
  140.3161   69.2813  223.5771 H   0  0  0  0  0  0  0  0  0  0  0  0
  138.6761   69.2934  222.9003 H   0  0  0  0  0  0  0  0  0  0  0  0
  138.1193   70.9863  224.7845 H   0  0  0  0  0  0  0  0  0  0  0  0
  138.0910   72.3860  223.1120 H   0  0  0  0  0  0  0  0  0  0  0  0
  142.7440   75.2710  221.8800 H   0  0  0  0  0  0  0  0  0  0  0  0
  141.5140   74.9922  219.1651 H   0  0  0  0  0  0  0  0  0  0  0  0
  142.5746   76.3286  219.7643 H   0  0  0  0  0  0  0  0  0  0  0  0
  143.2590   73.9541  218.2252 H   0  0  0  0  0  0  0  0  0  0  0  0
  144.2303   75.4201  218.5767 H   0  0  0  0  0  0  0  0  0  0  0  0
  143.6660   73.5203  220.7438 H   0  0  0  0  0  0  0  0  0  0  0  0
  144.5935   71.8223  219.2060 H   0  0  0  0  0  0  0  0  0  0  0  0
  145.6109   72.9532  218.3648 H   0  0  0  0  0  0  0  0  0  0  0  0
  146.0912   71.5295  220.9646 H   0  0  0  0  0  0  0  0  0  0  0  0
  147.2930   72.3635  219.9661 H   0  0  0  0  0  0  0  0  0  0  0  0
  145.6894   73.3870  222.2839 H   0  0  0  0  0  0  0  0  0  0  0  0
  147.2255   73.9843  221.7014 H   0  0  0  0  0  0  0  0  0  0  0  0
  146.1580   74.8680  219.7680 H   0  0  0  0  0  0  0  0  0  0  0  0
  140.2728   69.0288  220.1566 H   0  0  0  0  0  0  0  0  0  0  0  0
  140.6020   69.1351  218.3473 H   0  0  0  0  0  0  0  0  0  0  0  0
  141.6923   67.3713  220.3859 H   0  0  0  0  0  0  0  0  0  0  0  0
  141.5020   67.2159  218.5699 H   0  0  0  0  0  0  0  0  0  0  0  0
  143.6813   65.9840  219.6143 H   0  0  0  0  0  0  0  0  0  0  0  0
  146.1368   66.2067  219.3182 H   0  0  0  0  0  0  0  0  0  0  0  0
  147.0957   68.4428  218.7471 H   0  0  0  0  0  0  0  0  0  0  0  0
  145.6082   70.3985  218.4816 H   0  0  0  0  0  0  0  0  0  0  0  0
  143.5136   71.3867  219.0618 H   0  0  0  0  0  0  0  0  0  0  0  0
  142.6967   70.6271  217.6686 H   0  0  0  0  0  0  0  0  0  0  0  0
  141.0688   71.5119  224.8605 H   0  0  0  0  0  0  0  0  0  0  0  0
  139.7510   72.1810  225.8815 H   0  0  0  0  0  0  0  0  0  0  0  0
  1  2  2  0
  2  3  1  0
  3  4  2  0
  4  5  1  0
  5  6  2  0
  5  7  1  0
  7  8  1  0
  8  9  1  0
  9 10  1  0
 10 11  1  0
 11 12  2  0
 12 13  1  0
 13 14  1  0
 14 15  1  0
 15 16  1  0
 16 17  1  0
 17 18  1  0
 18 19  1  0
 19 20  1  0
 20 21  1  0
 13 22  2  0
 22 23  1  0
 23 24  1  0
 24 25  1  0
 25 26  1  0
 26 27  1  0
 27 28  2  0
 28 29  1  0
 29 30  2  0
 30 31  1  0
 31 32  2  0
 32 33  1  0
 23 34  2  0
  9 35  1  0
  6  1  1  0
 34 11  1  0
 35  4  1  0
 21 17  1  0
 33 24  1  0
 32 27  1  0
  1 36  1  0
  2 37  1  0
  3 38  1  0
  6 39  1  0
  7 40  1  0
  7 41  1  0
  8 42  1  0
  8 43  1  0
  9 44  1  1
 10 45  1  0
 14 46  1  0
 15 47  1  0
 15 48  1  0
 16 49  1  0
 16 50  1  0
 17 51  1  1
 18 52  1  0
 18 53  1  0
 19 54  1  0
 19 55  1  0
 20 56  1  0
 20 57  1  0
 21 58  1  0
 25 59  1  0
 25 60  1  0
 26 61  1  0
 26 62  1  0
 28 63  1  0
 29 64  1  0
 30 65  1  0
 31 66  1  0
 33 67  1  0
 33 68  1  0
 35 69  1  0
 35 70  1  0
M  END
>  <smiles>  (149) 
c1ccc2c(c1)CCC(Nc1nc(NCCC3CCCN3)nc(N3CCc4ccccc4C3)n1)C2

>  <score_type>  (149) 
oracle

>  <origin>  (149) 
autodockgpu

>  <m_score__min__energy>  (149) 
-10.69

>  <m_primary>  (149) 
energy

>  <rmsd>  (149) 
12.287885319307494

>  <m_score__min__rmsd>  (149) 
12.287885319307494

>  <meeko>  (149) 
{"free_energy": -10.18, "intermolecular_energy": -12.27, "internal_energy": -1.69, "cluster_size": 9, "cluster_id": 1, "rank_in_cluster": 4}

>  <energy>  (149) 
-7.77

>  <cluster_rmsd>  (149) 
0.0

>  <cluster>  (149) 
10

$$$$

     RDKit          3D

 70 75  0  0  1  0  0  0  0  0999 V2000
  140.3890   69.4690  228.2710 C   0  0  0  0  0  0  0  0  0  0  0  0
  141.1000   70.6320  228.1170 C   0  0  0  0  0  0  0  0  0  0  0  0
  141.0630   71.2880  226.8940 C   0  0  0  0  0  0  0  0  0  0  0  0
  140.3270   70.8050  225.8200 C   0  0  0  0  0  0  0  0  0  0  0  0
  139.6200   69.6440  225.9830 C   0  0  0  0  0  0  0  0  0  0  0  0
  139.6470   68.9750  227.2010 C   0  0  0  0  0  0  0  0  0  0  0  0
  138.7940   69.0370  224.8910 C   0  0  0  0  0  0  0  0  0  0  0  0
  139.4310   69.4720  223.5810 C   0  0  0  0  0  0  0  0  0  0  0  0
  139.3930   70.9910  223.5700 C   0  0  2  0  0  0  0  0  0  0  0  0
  139.4690   71.5360  222.2570 N   0  0  0  0  0  0  0  0  0  0  0  0
  140.4700   72.4390  221.8090 C   0  0  0  0  0  0  0  0  0  0  0  0
  140.3800   73.7810  222.0210 N   0  0  0  0  0  0  0  0  0  0  0  0
  141.3300   74.6220  221.5900 C   0  0  0  0  0  0  0  0  0  0  0  0
  141.3250   76.0200  221.7750 N   0  0  0  0  0  0  0  0  0  0  0  0
  140.3430   76.7740  220.9870 C   0  0  0  0  0  0  0  0  0  0  0  0
  139.6080   77.7660  221.8460 C   0  0  0  0  0  0  0  0  0  0  0  0
  140.5080   78.9350  222.1240 C   0  0  1  0  0  0  0  0  0  0  0  0
  140.5960   79.2660  223.6160 C   0  0  0  0  0  0  0  0  0  0  0  0
  141.9020   80.0640  223.6660 C   0  0  0  0  0  0  0  0  0  0  0  0
  142.5810   79.8320  222.3360 C   0  0  0  0  0  0  0  0  0  0  0  0
  141.9130   78.6420  221.8440 N   0  0  0  0  0  0  0  0  0  0  0  0
  142.3850   74.0970  220.9340 N   0  0  0  0  0  0  0  0  0  0  0  0
  142.5230   72.7840  220.6990 C   0  0  0  0  0  0  0  0  0  0  0  0
  143.6800   72.3450  220.0020 N   0  0  0  0  0  0  0  0  0  0  0  0
  145.0050   72.6540  220.4810 C   0  0  0  0  0  0  0  0  0  0  0  0
  145.9360   73.2130  219.4660 C   0  0  0  0  0  0  0  0  0  0  0  0
  145.5140   72.9880  218.0670 C   0  0  0  0  0  0  0  0  0  0  0  0
  146.2720   73.5880  217.0770 C   0  0  0  0  0  0  0  0  0  0  0  0
  145.9440   73.4260  215.7500 C   0  0  0  0  0  0  0  0  0  0  0  0
  144.8370   72.6510  215.4220 C   0  0  0  0  0  0  0  0  0  0  0  0
  144.0870   72.0570  216.4150 C   0  0  0  0  0  0  0  0  0  0  0  0
  144.4260   72.2240  217.7460 C   0  0  0  0  0  0  0  0  0  0  0  0
  143.5840   71.5630  218.7740 C   0  0  0  0  0  0  0  0  0  0  0  0
  141.5630   71.9740  221.1390 N   0  0  0  0  0  0  0  0  0  0  0  0
  140.3600   71.5900  224.5580 C   0  0  0  0  0  0  0  0  0  0  0  0
  140.4048   68.9316  229.2307 H   0  0  0  0  0  0  0  0  0  0  0  0
  141.6910   71.0390  228.9507 H   0  0  0  0  0  0  0  0  0  0  0  0
  141.6347   72.2198  226.7718 H   0  0  0  0  0  0  0  0  0  0  0  0
  139.0749   68.0432  227.3214 H   0  0  0  0  0  0  0  0  0  0  0  0
  138.8020   67.9401  224.9725 H   0  0  0  0  0  0  0  0  0  0  0  0
  137.7459   69.3648  224.9537 H   0  0  0  0  0  0  0  0  0  0  0  0
  140.4707   69.1169  223.5270 H   0  0  0  0  0  0  0  0  0  0  0  0
  138.8936   69.0531  222.7174 H   0  0  0  0  0  0  0  0  0  0  0  0
  138.3981   71.2939  223.9282 H   0  0  0  0  0  0  0  0  0  0  0  0
  138.7260   71.2470  221.5670 H   0  0  0  0  0  0  0  0  0  0  0  0
  141.9650   76.5380  222.4250 H   0  0  0  0  0  0  0  0  0  0  0  0
  140.8650   77.3125  220.1823 H   0  0  0  0  0  0  0  0  0  0  0  0
  139.6131   76.0660  220.5674 H   0  0  0  0  0  0  0  0  0  0  0  0
  138.7061   78.1121  221.3199 H   0  0  0  0  0  0  0  0  0  0  0  0
  139.3139   77.2905  222.7933 H   0  0  0  0  0  0  0  0  0  0  0  0
  140.0717   79.7297  221.5010 H   0  0  0  0  0  0  0  0  0  0  0  0
  139.7398   79.8728  223.9457 H   0  0  0  0  0  0  0  0  0  0  0  0
  140.5786   78.3861  224.2759 H   0  0  0  0  0  0  0  0  0  0  0  0
  141.6911   81.1344  223.8062 H   0  0  0  0  0  0  0  0  0  0  0  0
  142.5380   79.7451  224.5049 H   0  0  0  0  0  0  0  0  0  0  0  0
  142.4265   80.6837  221.6572 H   0  0  0  0  0  0  0  0  0  0  0  0
  143.6724   79.7204  222.4152 H   0  0  0  0  0  0  0  0  0  0  0  0
  142.1850   77.8660  222.5190 H   0  0  0  0  0  0  0  0  0  0  0  0
  144.9091   73.3884  221.2943 H   0  0  0  0  0  0  0  0  0  0  0  0
  145.4431   71.6964  220.7991 H   0  0  0  0  0  0  0  0  0  0  0  0
  146.0163   74.2975  219.6319 H   0  0  0  0  0  0  0  0  0  0  0  0
  146.8950   72.6898  219.5948 H   0  0  0  0  0  0  0  0  0  0  0  0
  147.1439   74.1994  217.3527 H   0  0  0  0  0  0  0  0  0  0  0  0
  146.5472   73.9014  214.9625 H   0  0  0  0  0  0  0  0  0  0  0  0
  144.5587   72.5113  214.3670 H   0  0  0  0  0  0  0  0  0  0  0  0
  143.2126   71.4458  216.1469 H   0  0  0  0  0  0  0  0  0  0  0  0
  142.5384   71.5273  218.4343 H   0  0  0  0  0  0  0  0  0  0  0  0
  143.9286   70.5329  218.9475 H   0  0  0  0  0  0  0  0  0  0  0  0
  141.3762   71.5660  224.1375 H   0  0  0  0  0  0  0  0  0  0  0  0
  140.0744   72.6317  224.7659 H   0  0  0  0  0  0  0  0  0  0  0  0
  1  2  2  0
  2  3  1  0
  3  4  2  0
  4  5  1  0
  5  6  2  0
  5  7  1  0
  7  8  1  0
  8  9  1  0
  9 10  1  0
 10 11  1  0
 11 12  2  0
 12 13  1  0
 13 14  1  0
 14 15  1  0
 15 16  1  0
 16 17  1  0
 17 18  1  0
 18 19  1  0
 19 20  1  0
 20 21  1  0
 13 22  2  0
 22 23  1  0
 23 24  1  0
 24 25  1  0
 25 26  1  0
 26 27  1  0
 27 28  2  0
 28 29  1  0
 29 30  2  0
 30 31  1  0
 31 32  2  0
 32 33  1  0
 23 34  2  0
  9 35  1  0
  6  1  1  0
 34 11  1  0
 35  4  1  0
 21 17  1  0
 33 24  1  0
 32 27  1  0
  1 36  1  0
  2 37  1  0
  3 38  1  0
  6 39  1  0
  7 40  1  0
  7 41  1  0
  8 42  1  0
  8 43  1  0
  9 44  1  1
 10 45  1  0
 14 46  1  0
 15 47  1  0
 15 48  1  0
 16 49  1  0
 16 50  1  0
 17 51  1  6
 18 52  1  0
 18 53  1  0
 19 54  1  0
 19 55  1  0
 20 56  1  0
 20 57  1  0
 21 58  1  0
 25 59  1  0
 25 60  1  0
 26 61  1  0
 26 62  1  0
 28 63  1  0
 29 64  1  0
 30 65  1  0
 31 66  1  0
 33 67  1  0
 33 68  1  0
 35 69  1  0
 35 70  1  0
M  END
>  <smiles>  (150) 
c1ccc2c(c1)CCC(Nc1nc(NCCC3CCCN3)nc(N3CCc4ccccc4C3)n1)C2

>  <score_type>  (150) 
oracle

>  <origin>  (150) 
autodockgpu

>  <m_score__min__energy>  (150) 
-10.69

>  <m_primary>  (150) 
energy

>  <rmsd>  (150) 
11.688549893437804

>  <m_score__min__rmsd>  (150) 
11.688549893437804

>  <meeko>  (150) 
{"free_energy": -9.67, "intermolecular_energy": -11.76, "internal_energy": -1.44, "cluster_size": 4, "cluster_id": 4, "rank_in_cluster": 4}

>  <energy>  (150) 
-7.74

>  <cluster_rmsd>  (150) 
0.15

>  <cluster>  (150) 
10

$$$$

     RDKit          3D

 70 75  0  0  1  0  0  0  0  0999 V2000
  140.1220   70.3310  228.3020 C   0  0  0  0  0  0  0  0  0  0  0  0
  140.8320   71.4820  228.0150 C   0  0  0  0  0  0  0  0  0  0  0  0
  141.0090   71.9100  226.7220 C   0  0  0  0  0  0  0  0  0  0  0  0
  140.4790   71.2010  225.6660 C   0  0  0  0  0  0  0  0  0  0  0  0
  139.7710   70.0580  225.9420 C   0  0  0  0  0  0  0  0  0  0  0  0
  139.5750   69.5980  227.2460 C   0  0  0  0  0  0  0  0  0  0  0  0
  139.2090   69.3140  224.7680 C   0  0  0  0  0  0  0  0  0  0  0  0
  138.7160   70.4120  223.8170 C   0  0  0  0  0  0  0  0  0  0  0  0
  139.9670   71.0220  223.2250 C   0  0  1  0  0  0  0  0  0  0  0  0
  139.5790   71.8880  222.1430 N   0  0  0  0  0  0  0  0  0  0  0  0
  138.7380   73.0210  222.2820 C   0  0  0  0  0  0  0  0  0  0  0  0
  137.4160   72.8590  222.4860 N   0  0  0  0  0  0  0  0  0  0  0  0
  136.5670   73.8900  222.6280 C   0  0  0  0  0  0  0  0  0  0  0  0
  135.1760   73.7100  222.8430 N   0  0  0  0  0  0  0  0  0  0  0  0
  134.6540   72.7740  223.8190 C   0  0  0  0  0  0  0  0  0  0  0  0
  133.6530   73.3700  224.7490 C   0  0  0  0  0  0  0  0  0  0  0  0
  134.2250   73.8250  226.0570 C   0  0  1  0  0  0  0  0  0  0  0  0
  134.6680   75.2520  226.0590 C   0  0  0  0  0  0  0  0  0  0  0  0
  133.3250   75.9830  226.0760 C   0  0  0  0  0  0  0  0  0  0  0  0
  132.5550   75.1120  227.0520 C   0  0  0  0  0  0  0  0  0  0  0  0
  133.1610   73.8140  227.0310 N   0  0  0  0  0  0  0  0  0  0  0  0
  137.0780   75.1220  222.5590 N   0  0  0  0  0  0  0  0  0  0  0  0
  138.4110   75.3060  222.3520 C   0  0  0  0  0  0  0  0  0  0  0  0
  138.9040   76.6420  222.2860 N   0  0  0  0  0  0  0  0  0  0  0  0
  137.9470   77.7220  222.2880 C   0  0  0  0  0  0  0  0  0  0  0  0
  138.5140   79.0600  222.0440 C   0  0  0  0  0  0  0  0  0  0  0  0
  139.8230   79.3040  222.6890 C   0  0  0  0  0  0  0  0  0  0  0  0
  140.1330   80.5620  223.1860 C   0  0  0  0  0  0  0  0  0  0  0  0
  141.3690   80.7730  223.7880 C   0  0  0  0  0  0  0  0  0  0  0  0
  142.2460   79.7370  223.8780 C   0  0  0  0  0  0  0  0  0  0  0  0
  141.9150   78.4830  223.3730 C   0  0  0  0  0  0  0  0  0  0  0  0
  140.6960   78.2380  222.7680 C   0  0  0  0  0  0  0  0  0  0  0  0
  140.3020   76.9260  222.2190 C   0  0  0  0  0  0  0  0  0  0  0  0
  139.2240   74.2670  222.2170 N   0  0  0  0  0  0  0  0  0  0  0  0
  140.7140   71.7300  224.3050 C   0  0  0  0  0  0  0  0  0  0  0  0
  139.9903   69.9986  229.3423 H   0  0  0  0  0  0  0  0  0  0  0  0
  141.2644   72.0675  228.8398 H   0  0  0  0  0  0  0  0  0  0  0  0
  141.5805   72.8295  226.5272 H   0  0  0  0  0  0  0  0  0  0  0  0
  139.0024   68.6785  227.4374 H   0  0  0  0  0  0  0  0  0  0  0  0
  139.9867   68.7031  224.2865 H   0  0  0  0  0  0  0  0  0  0  0  0
  138.4059   68.6206  225.0580 H   0  0  0  0  0  0  0  0  0  0  0  0
  138.0861   69.9808  223.0249 H   0  0  0  0  0  0  0  0  0  0  0  0
  138.1034   71.1613  224.3398 H   0  0  0  0  0  0  0  0  0  0  0  0
  140.6431   70.2586  222.8126 H   0  0  0  0  0  0  0  0  0  0  0  0
  139.9590   71.6400  221.1890 H   0  0  0  0  0  0  0  0  0  0  0  0
  134.4860   74.2560  222.2960 H   0  0  0  0  0  0  0  0  0  0  0  0
  134.1753   71.9426  223.2807 H   0  0  0  0  0  0  0  0  0  0  0  0
  135.5048   72.4438  224.4330 H   0  0  0  0  0  0  0  0  0  0  0  0
  133.1945   74.2378  224.2524 H   0  0  0  0  0  0  0  0  0  0  0  0
  132.9255   72.5781  224.9803 H   0  0  0  0  0  0  0  0  0  0  0  0
  135.0765   73.1589  226.2603 H   0  0  0  0  0  0  0  0  0  0  0  0
  135.2655   75.4868  226.9522 H   0  0  0  0  0  0  0  0  0  0  0  0
  135.3176   75.5231  225.2137 H   0  0  0  0  0  0  0  0  0  0  0  0
  133.4276   77.0144  226.4443 H   0  0  0  0  0  0  0  0  0  0  0  0
  132.8515   76.0995  225.0900 H   0  0  0  0  0  0  0  0  0  0  0  0
  132.6128   75.5385  228.0643 H   0  0  0  0  0  0  0  0  0  0  0  0
  131.4939   75.0520  226.7684 H   0  0  0  0  0  0  0  0  0  0  0  0
  133.3960   73.4050  227.9440 H   0  0  0  0  0  0  0  0  0  0  0  0
  137.2026   77.5192  221.5039 H   0  0  0  0  0  0  0  0  0  0  0  0
  137.5194   77.7506  223.3011 H   0  0  0  0  0  0  0  0  0  0  0  0
  138.6381   79.1867  220.9584 H   0  0  0  0  0  0  0  0  0  0  0  0
  137.8106   79.7808  222.4864 H   0  0  0  0  0  0  0  0  0  0  0  0
  139.4077   81.3850  223.1046 H   0  0  0  0  0  0  0  0  0  0  0  0
  141.6337   81.7638  224.1858 H   0  0  0  0  0  0  0  0  0  0  0  0
  143.2255   79.8917  224.3541 H   0  0  0  0  0  0  0  0  0  0  0  0
  142.6439   77.6635  223.4576 H   0  0  0  0  0  0  0  0  0  0  0  0
  140.6075   76.8917  221.1628 H   0  0  0  0  0  0  0  0  0  0  0  0
  140.8011   76.1685  222.8411 H   0  0  0  0  0  0  0  0  0  0  0  0
  141.7893   71.6505  224.0871 H   0  0  0  0  0  0  0  0  0  0  0  0
  140.3493   72.7678  224.3070 H   0  0  0  0  0  0  0  0  0  0  0  0
  1  2  2  0
  2  3  1  0
  3  4  2  0
  4  5  1  0
  5  6  2  0
  5  7  1  0
  7  8  1  0
  8  9  1  0
  9 10  1  0
 10 11  1  0
 11 12  2  0
 12 13  1  0
 13 14  1  0
 14 15  1  0
 15 16  1  0
 16 17  1  0
 17 18  1  0
 18 19  1  0
 19 20  1  0
 20 21  1  0
 13 22  2  0
 22 23  1  0
 23 24  1  0
 24 25  1  0
 25 26  1  0
 26 27  1  0
 27 28  2  0
 28 29  1  0
 29 30  2  0
 30 31  1  0
 31 32  2  0
 32 33  1  0
 23 34  2  0
  9 35  1  0
  6  1  1  0
 34 11  1  0
 35  4  1  0
 21 17  1  0
 33 24  1  0
 32 27  1  0
  1 36  1  0
  2 37  1  0
  3 38  1  0
  6 39  1  0
  7 40  1  0
  7 41  1  0
  8 42  1  0
  8 43  1  0
  9 44  1  6
 10 45  1  0
 14 46  1  0
 15 47  1  0
 15 48  1  0
 16 49  1  0
 16 50  1  0
 17 51  1  1
 18 52  1  0
 18 53  1  0
 19 54  1  0
 19 55  1  0
 20 56  1  0
 20 57  1  0
 21 58  1  0
 25 59  1  0
 25 60  1  0
 26 61  1  0
 26 62  1  0
 28 63  1  0
 29 64  1  0
 30 65  1  0
 31 66  1  0
 33 67  1  0
 33 68  1  0
 35 69  1  0
 35 70  1  0
M  END
>  <smiles>  (151) 
c1ccc2c(c1)CCC(Nc1nc(NCCC3CCCN3)nc(N3CCc4ccccc4C3)n1)C2

>  <score_type>  (151) 
oracle

>  <origin>  (151) 
autodockgpu

>  <m_score__min__energy>  (151) 
-11.550000000000001

>  <m_primary>  (151) 
energy

>  <rmsd>  (151) 
11.178179430323032

>  <m_score__min__rmsd>  (151) 
11.178179430323032

>  <meeko>  (151) 
{"free_energy": -10.38, "intermolecular_energy": -12.47, "internal_energy": -1.26, "cluster_size": 5, "cluster_id": 3, "rank_in_cluster": 1}

>  <energy>  (151) 
-11.55

>  <cluster_rmsd>  (151) 
0.0

>  <cluster>  (151) 
1

$$$$

     RDKit          3D

 70 75  0  0  1  0  0  0  0  0999 V2000
  138.8970   81.1860  223.1840 C   0  0  0  0  0  0  0  0  0  0  0  0
  140.2510   81.1380  223.4600 C   0  0  0  0  0  0  0  0  0  0  0  0
  140.9560   79.9630  223.3790 C   0  0  0  0  0  0  0  0  0  0  0  0
  140.3310   78.7890  223.0160 C   0  0  0  0  0  0  0  0  0  0  0  0
  138.9870   78.8280  222.7400 C   0  0  0  0  0  0  0  0  0  0  0  0
  138.2440   80.0080  222.8140 C   0  0  0  0  0  0  0  0  0  0  0  0
  138.3420   77.5320  222.3490 C   0  0  0  0  0  0  0  0  0  0  0  0
  139.3770   76.8440  221.4500 C   0  0  0  0  0  0  0  0  0  0  0  0
  140.4710   76.3740  222.3830 C   0  0  1  0  0  0  0  0  0  0  0  0
  141.3520   75.5070  221.6460 N   0  0  0  0  0  0  0  0  0  0  0  0
  141.1610   74.1120  221.4880 C   0  0  0  0  0  0  0  0  0  0  0  0
  141.4420   73.5220  220.3090 N   0  0  0  0  0  0  0  0  0  0  0  0
  141.2850   72.2060  220.0950 C   0  0  0  0  0  0  0  0  0  0  0  0
  141.5850   71.5930  218.8500 N   0  0  0  0  0  0  0  0  0  0  0  0
  142.6810   72.0330  218.0090 C   0  0  0  0  0  0  0  0  0  0  0  0
  144.0000   72.0550  218.7020 C   0  0  0  0  0  0  0  0  0  0  0  0
  144.6370   73.4100  218.7680 C   0  0  1  0  0  0  0  0  0  0  0  0
  144.2330   74.2090  219.9640 C   0  0  0  0  0  0  0  0  0  0  0  0
  144.9970   73.4900  221.0770 C   0  0  0  0  0  0  0  0  0  0  0  0
  146.3170   73.2290  220.3740 C   0  0  0  0  0  0  0  0  0  0  0  0
  146.0540   73.2210  218.9660 N   0  0  0  0  0  0  0  0  0  0  0  0
  140.8290   71.4670  221.1090 N   0  0  0  0  0  0  0  0  0  0  0  0
  140.5380   72.0440  222.3070 C   0  0  0  0  0  0  0  0  0  0  0  0
  140.0520   71.2110  223.3570 N   0  0  0  0  0  0  0  0  0  0  0  0
  139.3290   70.0150  222.9980 C   0  0  0  0  0  0  0  0  0  0  0  0
  138.7100   69.2960  224.1250 C   0  0  0  0  0  0  0  0  0  0  0  0
  139.5280   69.2570  225.3570 C   0  0  0  0  0  0  0  0  0  0  0  0
  139.5090   68.1340  226.1720 C   0  0  0  0  0  0  0  0  0  0  0  0
  140.2840   68.1160  227.3270 C   0  0  0  0  0  0  0  0  0  0  0  0
  141.0460   69.2020  227.6300 C   0  0  0  0  0  0  0  0  0  0  0  0
  141.0490   70.3180  226.7980 C   0  0  0  0  0  0  0  0  0  0  0  0
  140.2910   70.3700  225.6430 C   0  0  0  0  0  0  0  0  0  0  0  0
  140.2650   71.5310  224.7330 C   0  0  0  0  0  0  0  0  0  0  0  0
  140.7040   73.3480  222.4870 N   0  0  0  0  0  0  0  0  0  0  0  0
  141.1620   77.5680  222.9520 C   0  0  0  0  0  0  0  0  0  0  0  0
  138.3443   82.1344  223.2545 H   0  0  0  0  0  0  0  0  0  0  0  0
  140.7743   82.0609  223.7506 H   0  0  0  0  0  0  0  0  0  0  0  0
  142.0322   79.9581  223.6064 H   0  0  0  0  0  0  0  0  0  0  0  0
  137.1679   80.0098  222.5859 H   0  0  0  0  0  0  0  0  0  0  0  0
  138.1304   76.9193  223.2377 H   0  0  0  0  0  0  0  0  0  0  0  0
  137.3786   77.6811  221.8395 H   0  0  0  0  0  0  0  0  0  0  0  0
  138.9242   75.9891  220.9264 H   0  0  0  0  0  0  0  0  0  0  0  0
  139.7634   77.5242  220.6767 H   0  0  0  0  0  0  0  0  0  0  0  0
  140.0719   75.7976  223.2306 H   0  0  0  0  0  0  0  0  0  0  0  0
  142.1930   75.9670  221.2000 H   0  0  0  0  0  0  0  0  0  0  0  0
  141.0150   70.7990  218.5070 H   0  0  0  0  0  0  0  0  0  0  0  0
  142.7528   71.3517  217.1484 H   0  0  0  0  0  0  0  0  0  0  0  0
  142.4593   73.0680  217.7096 H   0  0  0  0  0  0  0  0  0  0  0  0
  143.8556   71.6913  219.7300 H   0  0  0  0  0  0  0  0  0  0  0  0
  144.6762   71.4162  218.1148 H   0  0  0  0  0  0  0  0  0  0  0  0
  144.3407   73.9275  217.8436 H   0  0  0  0  0  0  0  0  0  0  0  0
  144.5485   75.2588  219.8722 H   0  0  0  0  0  0  0  0  0  0  0  0
  143.1461   74.2610  220.1247 H   0  0  0  0  0  0  0  0  0  0  0  0
  145.1266   74.1309  221.9615 H   0  0  0  0  0  0  0  0  0  0  0  0
  144.4995   72.5917  221.4713 H   0  0  0  0  0  0  0  0  0  0  0  0
  147.0373   74.0237  220.6181 H   0  0  0  0  0  0  0  0  0  0  0  0
  146.7471   72.2691  220.6958 H   0  0  0  0  0  0  0  0  0  0  0  0
  146.6670   73.8040  218.3830 H   0  0  0  0  0  0  0  0  0  0  0  0
  138.5316   70.2972  222.2948 H   0  0  0  0  0  0  0  0  0  0  0  0
  140.0709   69.3269  222.5665 H   0  0  0  0  0  0  0  0  0  0  0  0
  137.7555   69.7883  224.3628 H   0  0  0  0  0  0  0  0  0  0  0  0
  138.5890   68.2524  223.7991 H   0  0  0  0  0  0  0  0  0  0  0  0
  138.8870   67.2663  225.9072 H   0  0  0  0  0  0  0  0  0  0  0  0
  140.2809   67.2357  227.9866 H   0  0  0  0  0  0  0  0  0  0  0  0
  141.6645   69.1979  228.5396 H   0  0  0  0  0  0  0  0  0  0  0  0
  141.6724   71.1834  227.0673 H   0  0  0  0  0  0  0  0  0  0  0  0
  139.4556   72.2015  225.0573 H   0  0  0  0  0  0  0  0  0  0  0  0
  141.2619   71.9923  224.7922 H   0  0  0  0  0  0  0  0  0  0  0  0
  141.4880   77.3212  223.9732 H   0  0  0  0  0  0  0  0  0  0  0  0
  141.9982   77.7958  222.2746 H   0  0  0  0  0  0  0  0  0  0  0  0
  1  2  2  0
  2  3  1  0
  3  4  2  0
  4  5  1  0
  5  6  2  0
  5  7  1  0
  7  8  1  0
  8  9  1  0
  9 10  1  0
 10 11  1  0
 11 12  2  0
 12 13  1  0
 13 14  1  0
 14 15  1  0
 15 16  1  0
 16 17  1  0
 17 18  1  0
 18 19  1  0
 19 20  1  0
 20 21  1  0
 13 22  2  0
 22 23  1  0
 23 24  1  0
 24 25  1  0
 25 26  1  0
 26 27  1  0
 27 28  2  0
 28 29  1  0
 29 30  2  0
 30 31  1  0
 31 32  2  0
 32 33  1  0
 23 34  2  0
  9 35  1  0
  6  1  1  0
 34 11  1  0
 35  4  1  0
 21 17  1  0
 33 24  1  0
 32 27  1  0
  1 36  1  0
  2 37  1  0
  3 38  1  0
  6 39  1  0
  7 40  1  0
  7 41  1  0
  8 42  1  0
  8 43  1  0
  9 44  1  1
 10 45  1  0
 14 46  1  0
 15 47  1  0
 15 48  1  0
 16 49  1  0
 16 50  1  0
 17 51  1  6
 18 52  1  0
 18 53  1  0
 19 54  1  0
 19 55  1  0
 20 56  1  0
 20 57  1  0
 21 58  1  0
 25 59  1  0
 25 60  1  0
 26 61  1  0
 26 62  1  0
 28 63  1  0
 29 64  1  0
 30 65  1  0
 31 66  1  0
 33 67  1  0
 33 68  1  0
 35 69  1  0
 35 70  1  0
M  END
>  <smiles>  (152) 
c1ccc2c(c1)CCC(Nc1nc(NCCC3CCCN3)nc(N3CCc4ccccc4C3)n1)C2

>  <score_type>  (152) 
oracle

>  <origin>  (152) 
autodockgpu

>  <m_score__min__energy>  (152) 
-11.550000000000001

>  <m_primary>  (152) 
energy

>  <rmsd>  (152) 
4.07021247032599

>  <m_score__min__rmsd>  (152) 
4.07021247032599

>  <meeko>  (152) 
{"free_energy": -10.53, "intermolecular_energy": -12.61, "internal_energy": -1.27, "cluster_size": 31, "cluster_id": 1, "rank_in_cluster": 9}

>  <energy>  (152) 
-11.14

>  <cluster_rmsd>  (152) 
0.82

>  <cluster>  (152) 
1

$$$$

     RDKit          3D

 70 75  0  0  1  0  0  0  0  0999 V2000
  140.4440   68.8440  228.1480 C   0  0  0  0  0  0  0  0  0  0  0  0
  141.0630   70.0790  228.1850 C   0  0  0  0  0  0  0  0  0  0  0  0
  141.0760   70.9060  227.0890 C   0  0  0  0  0  0  0  0  0  0  0  0
  140.4670   70.5270  225.9130 C   0  0  0  0  0  0  0  0  0  0  0  0
  139.8500   69.3020  225.8670 C   0  0  0  0  0  0  0  0  0  0  0  0
  139.8200   68.4390  226.9650 C   0  0  0  0  0  0  0  0  0  0  0  0
  139.1980   68.9240  224.5710 C   0  0  0  0  0  0  0  0  0  0  0  0
  138.5510   70.2240  224.0730 C   0  0  0  0  0  0  0  0  0  0  0  0
  139.6990   71.0870  223.6000 C   0  0  1  0  0  0  0  0  0  0  0  0
  139.1530   72.2170  222.8940 N   0  0  0  0  0  0  0  0  0  0  0  0
  139.9200   73.1520  222.1550 C   0  0  0  0  0  0  0  0  0  0  0  0
  140.8020   72.7190  221.2320 N   0  0  0  0  0  0  0  0  0  0  0  0
  141.5570   73.5530  220.4980 C   0  0  0  0  0  0  0  0  0  0  0  0
  142.4830   73.0890  219.5270 N   0  0  0  0  0  0  0  0  0  0  0  0
  143.8090   73.6570  219.3810 C   0  0  0  0  0  0  0  0  0  0  0  0
  144.9110   72.6920  219.6570 C   0  0  0  0  0  0  0  0  0  0  0  0
  145.1930   71.7440  218.5320 C   0  0  1  0  0  0  0  0  0  0  0  0
  145.7140   70.4160  218.9780 C   0  0  0  0  0  0  0  0  0  0  0  0
  144.4530   69.7810  219.5650 C   0  0  0  0  0  0  0  0  0  0  0  0
  143.4240   70.2250  218.5410 C   0  0  0  0  0  0  0  0  0  0  0  0
  143.9340   71.4070  217.9140 N   0  0  0  0  0  0  0  0  0  0  0  0
  141.4110   74.8630  220.7080 N   0  0  0  0  0  0  0  0  0  0  0  0
  140.5260   75.3190  221.6370 C   0  0  0  0  0  0  0  0  0  0  0  0
  140.4100   76.7280  221.8230 N   0  0  0  0  0  0  0  0  0  0  0  0
  139.1820   77.2420  222.3780 C   0  0  0  0  0  0  0  0  0  0  0  0
  139.0640   78.7110  222.3810 C   0  0  0  0  0  0  0  0  0  0  0  0
  140.3160   79.4300  222.7040 C   0  0  0  0  0  0  0  0  0  0  0  0
  140.2740   80.6090  223.4360 C   0  0  0  0  0  0  0  0  0  0  0  0
  141.4610   81.2730  223.7300 C   0  0  0  0  0  0  0  0  0  0  0  0
  142.6380   80.7470  223.2930 C   0  0  0  0  0  0  0  0  0  0  0  0
  142.6560   79.5640  222.5600 C   0  0  0  0  0  0  0  0  0  0  0  0
  141.4960   78.8790  222.2500 C   0  0  0  0  0  0  0  0  0  0  0  0
  141.4690   77.6220  221.4770 C   0  0  0  0  0  0  0  0  0  0  0  0
  139.7940   74.4700  222.3470 N   0  0  0  0  0  0  0  0  0  0  0  0
  140.5260   71.4760  224.7800 C   0  0  0  0  0  0  0  0  0  0  0  0
  140.4425   68.1916  229.0336 H   0  0  0  0  0  0  0  0  0  0  0  0
  141.5558   70.4065  229.1123 H   0  0  0  0  0  0  0  0  0  0  0  0
  141.5786   71.8825  227.1508 H   0  0  0  0  0  0  0  0  0  0  0  0
  139.3168   67.4630  226.8999 H   0  0  0  0  0  0  0  0  0  0  0  0
  139.9460   68.5612  223.8507 H   0  0  0  0  0  0  0  0  0  0  0  0
  138.4659   68.1120  224.6922 H   0  0  0  0  0  0  0  0  0  0  0  0
  137.8583   70.0164  223.2441 H   0  0  0  0  0  0  0  0  0  0  0  0
  137.9651   70.7182  224.8620 H   0  0  0  0  0  0  0  0  0  0  0  0
  140.3610   70.5492  222.9054 H   0  0  0  0  0  0  0  0  0  0  0  0
  138.1030   72.3360  222.9470 H   0  0  0  0  0  0  0  0  0  0  0  0
  142.2260   72.3160  218.8860 H   0  0  0  0  0  0  0  0  0  0  0  0
  143.9181   74.0221  218.3491 H   0  0  0  0  0  0  0  0  0  0  0  0
  143.8956   74.4631  220.1244 H   0  0  0  0  0  0  0  0  0  0  0  0
  145.8273   73.2645  219.8636 H   0  0  0  0  0  0  0  0  0  0  0  0
  144.5887   72.0804  220.5126 H   0  0  0  0  0  0  0  0  0  0  0  0
  145.9294   72.2497  217.8902 H   0  0  0  0  0  0  0  0  0  0  0  0
  146.1027   69.8310  218.1314 H   0  0  0  0  0  0  0  0  0  0  0  0
  146.5573   70.4763  219.6817 H   0  0  0  0  0  0  0  0  0  0  0  0
  144.5334   68.6850  219.6123 H   0  0  0  0  0  0  0  0  0  0  0  0
  144.2286   70.0754  220.6008 H   0  0  0  0  0  0  0  0  0  0  0  0
  143.2739   69.4350  217.7905 H   0  0  0  0  0  0  0  0  0  0  0  0
  142.4552   70.4249  219.0221 H   0  0  0  0  0  0  0  0  0  0  0  0
  143.9250   71.4190  216.8860 H   0  0  0  0  0  0  0  0  0  0  0  0
  138.3458   76.8342  221.7911 H   0  0  0  0  0  0  0  0  0  0  0  0
  139.1691   76.9315  223.4332 H   0  0  0  0  0  0  0  0  0  0  0  0
  138.7332   79.0304  221.3817 H   0  0  0  0  0  0  0  0  0  0  0  0
  138.3461   78.9639  223.1752 H   0  0  0  0  0  0  0  0  0  0  0  0
  139.3112   81.0145  223.7804 H   0  0  0  0  0  0  0  0  0  0  0  0
  141.4484   82.2093  224.3071 H   0  0  0  0  0  0  0  0  0  0  0  0
  143.5831   81.2614  223.5212 H   0  0  0  0  0  0  0  0  0  0  0  0
  143.6211   79.1625  222.2175 H   0  0  0  0  0  0  0  0  0  0  0  0
  141.3668   77.8775  220.4120 H   0  0  0  0  0  0  0  0  0  0  0  0
  142.4065   77.0957  221.7094 H   0  0  0  0  0  0  0  0  0  0  0  0
  141.5734   71.5559  224.4536 H   0  0  0  0  0  0  0  0  0  0  0  0
  140.1152   72.4275  225.1486 H   0  0  0  0  0  0  0  0  0  0  0  0
  1  2  2  0
  2  3  1  0
  3  4  2  0
  4  5  1  0
  5  6  2  0
  5  7  1  0
  7  8  1  0
  8  9  1  0
  9 10  1  0
 10 11  1  0
 11 12  2  0
 12 13  1  0
 13 14  1  0
 14 15  1  0
 15 16  1  0
 16 17  1  0
 17 18  1  0
 18 19  1  0
 19 20  1  0
 20 21  1  0
 13 22  2  0
 22 23  1  0
 23 24  1  0
 24 25  1  0
 25 26  1  0
 26 27  1  0
 27 28  2  0
 28 29  1  0
 29 30  2  0
 30 31  1  0
 31 32  2  0
 32 33  1  0
 23 34  2  0
  9 35  1  0
  6  1  1  0
 34 11  1  0
 35  4  1  0
 21 17  1  0
 33 24  1  0
 32 27  1  0
  1 36  1  0
  2 37  1  0
  3 38  1  0
  6 39  1  0
  7 40  1  0
  7 41  1  0
  8 42  1  0
  8 43  1  0
  9 44  1  6
 10 45  1  0
 14 46  1  0
 15 47  1  0
 15 48  1  0
 16 49  1  0
 16 50  1  0
 17 51  1  6
 18 52  1  0
 18 53  1  0
 19 54  1  0
 19 55  1  0
 20 56  1  0
 20 57  1  0
 21 58  1  0
 25 59  1  0
 25 60  1  0
 26 61  1  0
 26 62  1  0
 28 63  1  0
 29 64  1  0
 30 65  1  0
 31 66  1  0
 33 67  1  0
 33 68  1  0
 35 69  1  0
 35 70  1  0
M  END
>  <smiles>  (153) 
c1ccc2c(c1)CCC(Nc1nc(NCCC3CCCN3)nc(N3CCc4ccccc4C3)n1)C2

>  <score_type>  (153) 
oracle

>  <origin>  (153) 
autodockgpu

>  <m_score__min__energy>  (153) 
-11.550000000000001

>  <m_primary>  (153) 
energy

>  <rmsd>  (153) 
11.815319445140956

>  <m_score__min__rmsd>  (153) 
11.815319445140956

>  <meeko>  (153) 
{"free_energy": -10.11, "intermolecular_energy": -12.2, "internal_energy": -1.53, "cluster_size": 31, "cluster_id": 1, "rank_in_cluster": 18}

>  <energy>  (153) 
-11.01

>  <cluster_rmsd>  (153) 
0.85

>  <cluster>  (153) 
1

$$$$

     RDKit          3D

 70 75  0  0  1  0  0  0  0  0999 V2000
  140.5210   68.7200  228.1630 C   0  0  0  0  0  0  0  0  0  0  0  0
  141.0700   69.9850  228.2540 C   0  0  0  0  0  0  0  0  0  0  0  0
  141.0300   70.8600  227.1970 C   0  0  0  0  0  0  0  0  0  0  0  0
  140.4360   70.5020  226.0070 C   0  0  0  0  0  0  0  0  0  0  0  0
  139.8880   69.2470  225.9080 C   0  0  0  0  0  0  0  0  0  0  0  0
  139.9130   68.3350  226.9660 C   0  0  0  0  0  0  0  0  0  0  0  0
  139.2500   68.8920  224.5980 C   0  0  0  0  0  0  0  0  0  0  0  0
  138.5290   70.1750  224.1620 C   0  0  0  0  0  0  0  0  0  0  0  0
  139.6240   71.1220  223.7250 C   0  0  1  0  0  0  0  0  0  0  0  0
  139.0110   72.2500  223.0730 N   0  0  0  0  0  0  0  0  0  0  0  0
  139.6970   73.1650  222.2360 C   0  0  0  0  0  0  0  0  0  0  0  0
  140.4270   72.7120  221.1990 N   0  0  0  0  0  0  0  0  0  0  0  0
  141.0980   73.5270  220.3680 C   0  0  0  0  0  0  0  0  0  0  0  0
  141.8650   73.0420  219.2770 N   0  0  0  0  0  0  0  0  0  0  0  0
  142.9510   73.8010  218.6880 C   0  0  0  0  0  0  0  0  0  0  0  0
  142.5040   75.0130  217.9440 C   0  0  0  0  0  0  0  0  0  0  0  0
  143.5140   76.1200  217.9110 C   0  0  1  0  0  0  0  0  0  0  0  0
  143.3910   77.0130  216.7190 C   0  0  0  0  0  0  0  0  0  0  0  0
  142.1270   77.8010  217.0640 C   0  0  0  0  0  0  0  0  0  0  0  0
  142.3530   78.0390  218.5460 C   0  0  0  0  0  0  0  0  0  0  0  0
  143.2310   77.0080  219.0120 N   0  0  0  0  0  0  0  0  0  0  0  0
  141.0240   74.8400  220.5990 N   0  0  0  0  0  0  0  0  0  0  0  0
  140.2910   75.3170  221.6420 C   0  0  0  0  0  0  0  0  0  0  0  0
  140.2450   76.7270  221.8450 N   0  0  0  0  0  0  0  0  0  0  0  0
  139.0320   77.2990  222.3750 C   0  0  0  0  0  0  0  0  0  0  0  0
  138.9920   78.7720  222.3960 C   0  0  0  0  0  0  0  0  0  0  0  0
  140.2710   79.4190  222.7620 C   0  0  0  0  0  0  0  0  0  0  0  0
  140.2730   80.5890  223.5100 C   0  0  0  0  0  0  0  0  0  0  0  0
  141.4850   81.1840  223.8430 C   0  0  0  0  0  0  0  0  0  0  0  0
  142.6440   80.6020  223.4300 C   0  0  0  0  0  0  0  0  0  0  0  0
  142.6190   79.4290  222.6810 C   0  0  0  0  0  0  0  0  0  0  0  0
  141.4320   78.8110  222.3310 C   0  0  0  0  0  0  0  0  0  0  0  0
  141.3590   77.5680  221.5400 C   0  0  0  0  0  0  0  0  0  0  0  0
  139.6390   74.4860  222.4450 N   0  0  0  0  0  0  0  0  0  0  0  0
  140.4340   71.5020  224.9180 C   0  0  0  0  0  0  0  0  0  0  0  0
  140.5621   68.0289  229.0178 H   0  0  0  0  0  0  0  0  0  0  0  0
  141.5493   70.2974  229.1935 H   0  0  0  0  0  0  0  0  0  0  0  0
  141.4778   71.8593  227.3017 H   0  0  0  0  0  0  0  0  0  0  0  0
  139.4641   67.3365  226.8588 H   0  0  0  0  0  0  0  0  0  0  0  0
  140.0126   68.6043  223.8593 H   0  0  0  0  0  0  0  0  0  0  0  0
  138.5649   68.0358  224.6846 H   0  0  0  0  0  0  0  0  0  0  0  0
  137.8442   69.9668  223.3267 H   0  0  0  0  0  0  0  0  0  0  0  0
  137.9214   70.5993  224.9749 H   0  0  0  0  0  0  0  0  0  0  0  0
  140.3114   70.6552  223.0042 H   0  0  0  0  0  0  0  0  0  0  0  0
  137.9770   72.3830  223.2470 H   0  0  0  0  0  0  0  0  0  0  0  0
  141.6620   72.1120  218.8660 H   0  0  0  0  0  0  0  0  0  0  0  0
  143.6287   74.1192  219.4939 H   0  0  0  0  0  0  0  0  0  0  0  0
  143.4442   73.1414  217.9589 H   0  0  0  0  0  0  0  0  0  0  0  0
  142.2803   74.7190  216.9079 H   0  0  0  0  0  0  0  0  0  0  0  0
  141.6236   75.4036  218.4753 H   0  0  0  0  0  0  0  0  0  0  0  0
  144.4985   75.6294  217.9237 H   0  0  0  0  0  0  0  0  0  0  0  0
  144.2638   77.6751  216.6201 H   0  0  0  0  0  0  0  0  0  0  0  0
  143.3405   76.4784  215.7590 H   0  0  0  0  0  0  0  0  0  0  0  0
  142.0707   78.7460  216.5038 H   0  0  0  0  0  0  0  0  0  0  0  0
  141.1842   77.2906  216.8178 H   0  0  0  0  0  0  0  0  0  0  0  0
  142.8134   79.0255  218.7033 H   0  0  0  0  0  0  0  0  0  0  0  0
  141.3998   78.0172  219.0946 H   0  0  0  0  0  0  0  0  0  0  0  0
  144.0450   77.3130  219.5590 H   0  0  0  0  0  0  0  0  0  0  0  0
  138.1913   76.9441  221.7608 H   0  0  0  0  0  0  0  0  0  0  0  0
  138.9747   76.9762  223.4250 H   0  0  0  0  0  0  0  0  0  0  0  0
  138.7057   79.1215  221.3931 H   0  0  0  0  0  0  0  0  0  0  0  0
  138.2674   79.0525  223.1747 H   0  0  0  0  0  0  0  0  0  0  0  0
  139.3246   81.0410  223.8361 H   0  0  0  0  0  0  0  0  0  0  0  0
  141.5067   82.1126  224.4323 H   0  0  0  0  0  0  0  0  0  0  0  0
  143.6085   81.0625  223.6903 H   0  0  0  0  0  0  0  0  0  0  0  0
  143.5703   78.9807  222.3583 H   0  0  0  0  0  0  0  0  0  0  0  0
  141.2992   77.8425  220.4765 H   0  0  0  0  0  0  0  0  0  0  0  0
  142.2606   76.9894  221.7895 H   0  0  0  0  0  0  0  0  0  0  0  0
  141.4733   71.6556  224.5918 H   0  0  0  0  0  0  0  0  0  0  0  0
  139.9715   72.4105  225.3311 H   0  0  0  0  0  0  0  0  0  0  0  0
  1  2  2  0
  2  3  1  0
  3  4  2  0
  4  5  1  0
  5  6  2  0
  5  7  1  0
  7  8  1  0
  8  9  1  0
  9 10  1  0
 10 11  1  0
 11 12  2  0
 12 13  1  0
 13 14  1  0
 14 15  1  0
 15 16  1  0
 16 17  1  0
 17 18  1  0
 18 19  1  0
 19 20  1  0
 20 21  1  0
 13 22  2  0
 22 23  1  0
 23 24  1  0
 24 25  1  0
 25 26  1  0
 26 27  1  0
 27 28  2  0
 28 29  1  0
 29 30  2  0
 30 31  1  0
 31 32  2  0
 32 33  1  0
 23 34  2  0
  9 35  1  0
  6  1  1  0
 34 11  1  0
 35  4  1  0
 21 17  1  0
 33 24  1  0
 32 27  1  0
  1 36  1  0
  2 37  1  0
  3 38  1  0
  6 39  1  0
  7 40  1  0
  7 41  1  0
  8 42  1  0
  8 43  1  0
  9 44  1  6
 10 45  1  0
 14 46  1  0
 15 47  1  0
 15 48  1  0
 16 49  1  0
 16 50  1  0
 17 51  1  1
 18 52  1  0
 18 53  1  0
 19 54  1  0
 19 55  1  0
 20 56  1  0
 20 57  1  0
 21 58  1  0
 25 59  1  0
 25 60  1  0
 26 61  1  0
 26 62  1  0
 28 63  1  0
 29 64  1  0
 30 65  1  0
 31 66  1  0
 33 67  1  0
 33 68  1  0
 35 69  1  0
 35 70  1  0
M  END
>  <smiles>  (154) 
c1ccc2c(c1)CCC(Nc1nc(NCCC3CCCN3)nc(N3CCc4ccccc4C3)n1)C2

>  <score_type>  (154) 
oracle

>  <origin>  (154) 
autodockgpu

>  <m_score__min__energy>  (154) 
-11.550000000000001

>  <m_primary>  (154) 
energy

>  <rmsd>  (154) 
11.883015469075112

>  <m_score__min__rmsd>  (154) 
11.883015469075112

>  <meeko>  (154) 
{"free_energy": -10.52, "intermolecular_energy": -12.61, "internal_energy": -1.37, "cluster_size": 31, "cluster_id": 1, "rank_in_cluster": 10}

>  <energy>  (154) 
-10.98

>  <cluster_rmsd>  (154) 
0.7

>  <cluster>  (154) 
1

$$$$

     RDKit          3D

 70 75  0  0  1  0  0  0  0  0999 V2000
  145.6550   67.3970  218.8770 C   0  0  0  0  0  0  0  0  0  0  0  0
  144.3380   67.2280  219.2600 C   0  0  0  0  0  0  0  0  0  0  0  0
  143.5650   68.2920  219.6550 C   0  0  0  0  0  0  0  0  0  0  0  0
  144.0840   69.5690  219.6820 C   0  0  0  0  0  0  0  0  0  0  0  0
  145.3920   69.7460  219.3030 C   0  0  0  0  0  0  0  0  0  0  0  0
  146.2020   68.6830  218.8960 C   0  0  0  0  0  0  0  0  0  0  0  0
  145.9210   71.1480  219.3440 C   0  0  0  0  0  0  0  0  0  0  0  0
  144.7610   72.0110  218.8310 C   0  0  0  0  0  0  0  0  0  0  0  0
  143.7480   72.0310  219.9550 C   0  0  1  0  0  0  0  0  0  0  0  0
  142.7490   73.0190  219.6440 N   0  0  0  0  0  0  0  0  0  0  0  0
  141.7960   73.5190  220.5670 C   0  0  0  0  0  0  0  0  0  0  0  0
  141.0460   72.6630  221.2900 N   0  0  0  0  0  0  0  0  0  0  0  0
  140.1280   73.0720  222.1810 C   0  0  0  0  0  0  0  0  0  0  0  0
  139.3430   72.1640  222.9390 N   0  0  0  0  0  0  0  0  0  0  0  0
  139.9160   71.0250  223.6280 C   0  0  0  0  0  0  0  0  0  0  0  0
  139.8260   71.1120  225.1130 C   0  0  0  0  0  0  0  0  0  0  0  0
  141.1340   70.9220  225.8200 C   0  0  1  0  0  0  0  0  0  0  0  0
  141.4130   71.9550  226.8620 C   0  0  0  0  0  0  0  0  0  0  0  0
  140.4390   71.5380  227.9660 C   0  0  0  0  0  0  0  0  0  0  0  0
  140.5900   70.0290  227.9040 C   0  0  0  0  0  0  0  0  0  0  0  0
  141.0470   69.7030  226.5860 N   0  0  0  0  0  0  0  0  0  0  0  0
  139.9690   74.3870  222.3430 N   0  0  0  0  0  0  0  0  0  0  0  0
  140.7170   75.2670  221.6220 C   0  0  0  0  0  0  0  0  0  0  0  0
  140.5070   76.6610  221.8320 N   0  0  0  0  0  0  0  0  0  0  0  0
  139.2780   77.0770  222.4620 C   0  0  0  0  0  0  0  0  0  0  0  0
  139.0510   78.5330  222.4900 C   0  0  0  0  0  0  0  0  0  0  0  0
  140.2620   79.3420  222.7520 C   0  0  0  0  0  0  0  0  0  0  0  0
  140.1740   80.5070  223.5000 C   0  0  0  0  0  0  0  0  0  0  0  0
  141.3230   81.2560  223.7350 C   0  0  0  0  0  0  0  0  0  0  0  0
  142.5090   80.8240  223.2260 C   0  0  0  0  0  0  0  0  0  0  0  0
  142.5740   79.6520  222.4780 C   0  0  0  0  0  0  0  0  0  0  0  0
  141.4520   78.8850  222.2250 C   0  0  0  0  0  0  0  0  0  0  0  0
  141.4750   77.6360  221.4390 C   0  0  0  0  0  0  0  0  0  0  0  0
  141.6170   74.8320  220.7490 N   0  0  0  0  0  0  0  0  0  0  0  0
  143.1860   70.6590  220.1190 C   0  0  0  0  0  0  0  0  0  0  0  0
  146.2618   66.5350  218.5629 H   0  0  0  0  0  0  0  0  0  0  0  0
  143.8994   66.2193  219.2482 H   0  0  0  0  0  0  0  0  0  0  0  0
  142.5197   68.1235  219.9533 H   0  0  0  0  0  0  0  0  0  0  0  0
  147.2467   68.8543  218.5972 H   0  0  0  0  0  0  0  0  0  0  0  0
  146.1918   71.4316  220.3717 H   0  0  0  0  0  0  0  0  0  0  0  0
  146.8320   71.2693  218.7395 H   0  0  0  0  0  0  0  0  0  0  0  0
  145.1089   73.0305  218.6081 H   0  0  0  0  0  0  0  0  0  0  0  0
  144.3324   71.6096  217.9009 H   0  0  0  0  0  0  0  0  0  0  0  0
  144.2029   72.3102  220.9168 H   0  0  0  0  0  0  0  0  0  0  0  0
  142.7460   73.3820  218.6510 H   0  0  0  0  0  0  0  0  0  0  0  0
  138.3180   72.2990  223.0180 H   0  0  0  0  0  0  0  0  0  0  0  0
  139.3850   70.1189  223.3010 H   0  0  0  0  0  0  0  0  0  0  0  0
  140.9858   71.0016  223.3730 H   0  0  0  0  0  0  0  0  0  0  0  0
  139.4321   72.1045  225.3772 H   0  0  0  0  0  0  0  0  0  0  0  0
  139.1688   70.2921  225.4384 H   0  0  0  0  0  0  0  0  0  0  0  0
  141.9059   70.9497  225.0368 H   0  0  0  0  0  0  0  0  0  0  0  0
  142.4565   71.9077  227.2067 H   0  0  0  0  0  0  0  0  0  0  0  0
  141.2841   72.9909  226.5152 H   0  0  0  0  0  0  0  0  0  0  0  0
  140.7393   71.9373  228.9460 H   0  0  0  0  0  0  0  0  0  0  0  0
  139.4099   71.9038  227.8349 H   0  0  0  0  0  0  0  0  0  0  0  0
  141.3237   69.6926  228.6513 H   0  0  0  0  0  0  0  0  0  0  0  0
  139.6329   69.5315  228.1197 H   0  0  0  0  0  0  0  0  0  0  0  0
  141.8620   69.0800  226.5260 H   0  0  0  0  0  0  0  0  0  0  0  0
  138.4422   76.6123  221.9184 H   0  0  0  0  0  0  0  0  0  0  0  0
  139.3491   76.7580  223.5123 H   0  0  0  0  0  0  0  0  0  0  0  0
  138.6415   78.8349  221.5147 H   0  0  0  0  0  0  0  0  0  0  0  0
  138.3623   78.7243  223.3261 H   0  0  0  0  0  0  0  0  0  0  0  0
  139.2049   80.8357  223.9036 H   0  0  0  0  0  0  0  0  0  0  0  0
  141.2734   82.1839  224.3237 H   0  0  0  0  0  0  0  0  0  0  0  0
  143.4244   81.4063  223.4074 H   0  0  0  0  0  0  0  0  0  0  0  0
  143.5453   79.3270  222.0769 H   0  0  0  0  0  0  0  0  0  0  0  0
  141.2937   77.8921  220.3847 H   0  0  0  0  0  0  0  0  0  0  0  0
  142.4609   77.1799  221.6124 H   0  0  0  0  0  0  0  0  0  0  0  0
  142.9560   70.5077  221.1840 H   0  0  0  0  0  0  0  0  0  0  0  0
  142.2968   70.6075  219.4735 H   0  0  0  0  0  0  0  0  0  0  0  0
  1  2  2  0
  2  3  1  0
  3  4  2  0
  4  5  1  0
  5  6  2  0
  5  7  1  0
  7  8  1  0
  8  9  1  0
  9 10  1  0
 10 11  1  0
 11 12  2  0
 12 13  1  0
 13 14  1  0
 14 15  1  0
 15 16  1  0
 16 17  1  0
 17 18  1  0
 18 19  1  0
 19 20  1  0
 20 21  1  0
 13 22  2  0
 22 23  1  0
 23 24  1  0
 24 25  1  0
 25 26  1  0
 26 27  1  0
 27 28  2  0
 28 29  1  0
 29 30  2  0
 30 31  1  0
 31 32  2  0
 32 33  1  0
 23 34  2  0
  9 35  1  0
  6  1  1  0
 34 11  1  0
 35  4  1  0
 21 17  1  0
 33 24  1  0
 32 27  1  0
  1 36  1  0
  2 37  1  0
  3 38  1  0
  6 39  1  0
  7 40  1  0
  7 41  1  0
  8 42  1  0
  8 43  1  0
  9 44  1  1
 10 45  1  0
 14 46  1  0
 15 47  1  0
 15 48  1  0
 16 49  1  0
 16 50  1  0
 17 51  1  6
 18 52  1  0
 18 53  1  0
 19 54  1  0
 19 55  1  0
 20 56  1  0
 20 57  1  0
 21 58  1  0
 25 59  1  0
 25 60  1  0
 26 61  1  0
 26 62  1  0
 28 63  1  0
 29 64  1  0
 30 65  1  0
 31 66  1  0
 33 67  1  0
 33 68  1  0
 35 69  1  0
 35 70  1  0
M  END
>  <smiles>  (155) 
c1ccc2c(c1)CCC(Nc1nc(NCCC3CCCN3)nc(N3CCc4ccccc4C3)n1)C2

>  <score_type>  (155) 
oracle

>  <origin>  (155) 
autodockgpu

>  <m_score__min__energy>  (155) 
-11.550000000000001

>  <m_primary>  (155) 
energy

>  <rmsd>  (155) 
11.886132802019345

>  <m_score__min__rmsd>  (155) 
11.886132802019345

>  <meeko>  (155) 
{"free_energy": -10.32, "intermolecular_energy": -12.41, "internal_energy": -0.9, "cluster_size": 1, "cluster_id": 4, "rank_in_cluster": 1}

>  <energy>  (155) 
-10.93

>  <cluster_rmsd>  (155) 
0.77

>  <cluster>  (155) 
1

$$$$

     RDKit          3D

 70 75  0  0  1  0  0  0  0  0999 V2000
  140.7970   69.7310  228.3870 C   0  0  0  0  0  0  0  0  0  0  0  0
  141.2140   71.0370  228.2070 C   0  0  0  0  0  0  0  0  0  0  0  0
  141.0930   71.6660  226.9930 C   0  0  0  0  0  0  0  0  0  0  0  0
  140.5470   71.0100  225.9100 C   0  0  0  0  0  0  0  0  0  0  0  0
  140.1300   69.7130  226.0810 C   0  0  0  0  0  0  0  0  0  0  0  0
  140.2410   69.0470  227.3040 C   0  0  0  0  0  0  0  0  0  0  0  0
  139.5420   69.0320  224.8810 C   0  0  0  0  0  0  0  0  0  0  0  0
  138.6970   70.1160  224.2000 C   0  0  0  0  0  0  0  0  0  0  0  0
  139.6920   71.0580  223.5610 C   0  0  1  0  0  0  0  0  0  0  0  0
  138.9730   71.9590  222.6990 N   0  0  0  0  0  0  0  0  0  0  0  0
  139.5760   72.9560  221.8930 C   0  0  0  0  0  0  0  0  0  0  0  0
  140.1870   72.6130  220.7420 N   0  0  0  0  0  0  0  0  0  0  0  0
  140.7760   73.5090  219.9320 C   0  0  0  0  0  0  0  0  0  0  0  0
  141.4160   73.1390  218.7210 N   0  0  0  0  0  0  0  0  0  0  0  0
  142.8560   73.1810  218.5560 C   0  0  0  0  0  0  0  0  0  0  0  0
  143.5930   72.2690  219.4760 C   0  0  0  0  0  0  0  0  0  0  0  0
  143.8500   72.8430  220.8360 C   0  0  1  0  0  0  0  0  0  0  0  0
  145.2800   72.7670  221.2630 C   0  0  0  0  0  0  0  0  0  0  0  0
  145.9150   73.8450  220.3820 C   0  0  0  0  0  0  0  0  0  0  0  0
  144.8440   74.9180  220.4550 C   0  0  0  0  0  0  0  0  0  0  0  0
  143.6080   74.2640  220.7660 N   0  0  0  0  0  0  0  0  0  0  0  0
  140.7420   74.7900  220.3050 N   0  0  0  0  0  0  0  0  0  0  0  0
  140.1310   75.1570  221.4650 C   0  0  0  0  0  0  0  0  0  0  0  0
  140.1240   76.5380  221.8170 N   0  0  0  0  0  0  0  0  0  0  0  0
  139.0560   77.0210  222.6570 C   0  0  0  0  0  0  0  0  0  0  0  0
  139.0150   78.4840  222.8380 C   0  0  0  0  0  0  0  0  0  0  0  0
  140.3400   79.1260  222.9770 C   0  0  0  0  0  0  0  0  0  0  0  0
  140.5020   80.2160  223.8210 C   0  0  0  0  0  0  0  0  0  0  0  0
  141.7560   80.8080  223.9380 C   0  0  0  0  0  0  0  0  0  0  0  0
  142.7960   80.3030  223.2220 C   0  0  0  0  0  0  0  0  0  0  0  0
  142.6110   79.2090  222.3800 C   0  0  0  0  0  0  0  0  0  0  0  0
  141.3790   78.5960  222.2400 C   0  0  0  0  0  0  0  0  0  0  0  0
  141.1380   77.4360  221.3610 C   0  0  0  0  0  0  0  0  0  0  0  0
  139.5570   74.2470  222.2430 N   0  0  0  0  0  0  0  0  0  0  0  0
  140.4510   71.7580  224.6380 C   0  0  0  0  0  0  0  0  0  0  0  0
  140.9014   69.2397  229.3656 H   0  0  0  0  0  0  0  0  0  0  0  0
  141.6522   71.5837  229.0550 H   0  0  0  0  0  0  0  0  0  0  0  0
  141.4356   72.7055  226.8828 H   0  0  0  0  0  0  0  0  0  0  0  0
  139.8982   68.0073  227.4114 H   0  0  0  0  0  0  0  0  0  0  0  0
  140.3359   68.6774  224.2072 H   0  0  0  0  0  0  0  0  0  0  0  0
  138.9477   68.1468  225.1517 H   0  0  0  0  0  0  0  0  0  0  0  0
  138.0430   69.6707  223.4358 H   0  0  0  0  0  0  0  0  0  0  0  0
  138.0435   70.6355  224.9162 H   0  0  0  0  0  0  0  0  0  0  0  0
  140.4276   70.5229  222.9425 H   0  0  0  0  0  0  0  0  0  0  0  0
  137.9210   71.8480  222.6840 H   0  0  0  0  0  0  0  0  0  0  0  0
  140.8560   72.8230  217.9080 H   0  0  0  0  0  0  0  0  0  0  0  0
  143.0950   72.8967  217.5206 H   0  0  0  0  0  0  0  0  0  0  0  0
  143.1765   74.2057  218.7955 H   0  0  0  0  0  0  0  0  0  0  0  0
  143.0019   71.3491  219.5961 H   0  0  0  0  0  0  0  0  0  0  0  0
  144.5770   72.0874  219.0190 H   0  0  0  0  0  0  0  0  0  0  0  0
  143.2120   72.2742  221.5284 H   0  0  0  0  0  0  0  0  0  0  0  0
  145.3940   73.0019  222.3316 H   0  0  0  0  0  0  0  0  0  0  0  0
  145.7310   71.7701  221.1499 H   0  0  0  0  0  0  0  0  0  0  0  0
  146.8723   74.1963  220.7945 H   0  0  0  0  0  0  0  0  0  0  0  0
  146.1702   73.5168  219.3636 H   0  0  0  0  0  0  0  0  0  0  0  0
  145.0931   75.6460  221.2411 H   0  0  0  0  0  0  0  0  0  0  0  0
  144.7691   75.4598  219.5006 H   0  0  0  0  0  0  0  0  0  0  0  0
  143.0630   74.6620  221.5410 H   0  0  0  0  0  0  0  0  0  0  0  0
  138.1017   76.7062  222.2096 H   0  0  0  0  0  0  0  0  0  0  0  0
  139.2342   76.5939  223.6549 H   0  0  0  0  0  0  0  0  0  0  0  0
  138.5111   78.9235  221.9646 H   0  0  0  0  0  0  0  0  0  0  0  0
  138.4807   78.6658  223.7822 H   0  0  0  0  0  0  0  0  0  0  0  0
  139.6474   80.6081  224.3919 H   0  0  0  0  0  0  0  0  0  0  0  0
  141.9040   81.6732  224.6010 H   0  0  0  0  0  0  0  0  0  0  0  0
  143.7917   80.7624  223.3085 H   0  0  0  0  0  0  0  0  0  0  0  0
  143.4686   78.8217  221.8104 H   0  0  0  0  0  0  0  0  0  0  0  0
  140.8412   77.8128  220.3711 H   0  0  0  0  0  0  0  0  0  0  0  0
  142.0755   76.8609  221.3438 H   0  0  0  0  0  0  0  0  0  0  0  0
  141.4714   71.9452  224.2723 H   0  0  0  0  0  0  0  0  0  0  0  0
  139.8960   72.6812  224.8606 H   0  0  0  0  0  0  0  0  0  0  0  0
  1  2  2  0
  2  3  1  0
  3  4  2  0
  4  5  1  0
  5  6  2  0
  5  7  1  0
  7  8  1  0
  8  9  1  0
  9 10  1  0
 10 11  1  0
 11 12  2  0
 12 13  1  0
 13 14  1  0
 14 15  1  0
 15 16  1  0
 16 17  1  0
 17 18  1  0
 18 19  1  0
 19 20  1  0
 20 21  1  0
 13 22  2  0
 22 23  1  0
 23 24  1  0
 24 25  1  0
 25 26  1  0
 26 27  1  0
 27 28  2  0
 28 29  1  0
 29 30  2  0
 30 31  1  0
 31 32  2  0
 32 33  1  0
 23 34  2  0
  9 35  1  0
  6  1  1  0
 34 11  1  0
 35  4  1  0
 21 17  1  0
 33 24  1  0
 32 27  1  0
  1 36  1  0
  2 37  1  0
  3 38  1  0
  6 39  1  0
  7 40  1  0
  7 41  1  0
  8 42  1  0
  8 43  1  0
  9 44  1  6
 10 45  1  0
 14 46  1  0
 15 47  1  0
 15 48  1  0
 16 49  1  0
 16 50  1  0
 17 51  1  1
 18 52  1  0
 18 53  1  0
 19 54  1  0
 19 55  1  0
 20 56  1  0
 20 57  1  0
 21 58  1  0
 25 59  1  0
 25 60  1  0
 26 61  1  0
 26 62  1  0
 28 63  1  0
 29 64  1  0
 30 65  1  0
 31 66  1  0
 33 67  1  0
 33 68  1  0
 35 69  1  0
 35 70  1  0
M  END
>  <smiles>  (156) 
c1ccc2c(c1)CCC(Nc1nc(NCCC3CCCN3)nc(N3CCc4ccccc4C3)n1)C2

>  <score_type>  (156) 
oracle

>  <origin>  (156) 
autodockgpu

>  <m_score__min__energy>  (156) 
-11.550000000000001

>  <m_primary>  (156) 
energy

>  <rmsd>  (156) 
11.51583938685352

>  <m_score__min__rmsd>  (156) 
11.51583938685352

>  <meeko>  (156) 
{"free_energy": -10.2, "intermolecular_energy": -12.29, "internal_energy": -1.58, "cluster_size": 31, "cluster_id": 1, "rank_in_cluster": 17}

>  <energy>  (156) 
-10.93

>  <cluster_rmsd>  (156) 
0.79

>  <cluster>  (156) 
1

$$$$

     RDKit          3D

 70 75  0  0  1  0  0  0  0  0999 V2000
  140.2890   69.5950  228.3570 C   0  0  0  0  0  0  0  0  0  0  0  0
  141.0680   70.7170  228.1480 C   0  0  0  0  0  0  0  0  0  0  0  0
  141.1690   71.2980  226.9080 C   0  0  0  0  0  0  0  0  0  0  0  0
  140.4890   70.7770  225.8280 C   0  0  0  0  0  0  0  0  0  0  0  0
  139.7120   69.6630  226.0270 C   0  0  0  0  0  0  0  0  0  0  0  0
  139.5910   69.0500  227.2760 C   0  0  0  0  0  0  0  0  0  0  0  0
  138.9880   69.1250  224.8300 C   0  0  0  0  0  0  0  0  0  0  0  0
  138.5110   70.3730  224.0760 C   0  0  0  0  0  0  0  0  0  0  0  0
  139.7530   70.9610  223.4460 C   0  0  1  0  0  0  0  0  0  0  0  0
  139.3480   71.9890  222.5240 N   0  0  0  0  0  0  0  0  0  0  0  0
  140.2020   73.0050  222.0260 C   0  0  0  0  0  0  0  0  0  0  0  0
  141.3070   72.6740  221.3280 N   0  0  0  0  0  0  0  0  0  0  0  0
  142.1550   73.5880  220.8280 C   0  0  0  0  0  0  0  0  0  0  0  0
  143.3160   73.2310  220.0930 N   0  0  0  0  0  0  0  0  0  0  0  0
  143.9750   74.1480  219.1840 C   0  0  0  0  0  0  0  0  0  0  0  0
  143.0350   74.9310  218.3330 C   0  0  0  0  0  0  0  0  0  0  0  0
  143.5440   76.2850  217.9430 C   0  0  1  0  0  0  0  0  0  0  0  0
  142.9920   76.7870  216.6480 C   0  0  0  0  0  0  0  0  0  0  0  0
  141.5570   77.1350  217.0480 C   0  0  0  0  0  0  0  0  0  0  0  0
  141.8000   77.7610  218.4100 C   0  0  0  0  0  0  0  0  0  0  0  0
  143.0390   77.2380  218.9020 N   0  0  0  0  0  0  0  0  0  0  0  0
  141.8710   74.8750  221.0430 N   0  0  0  0  0  0  0  0  0  0  0  0
  140.7600   75.2290  221.7470 C   0  0  0  0  0  0  0  0  0  0  0  0
  140.5040   76.6160  221.9490 N   0  0  0  0  0  0  0  0  0  0  0  0
  139.2610   76.9950  222.5750 C   0  0  0  0  0  0  0  0  0  0  0  0
  138.9870   78.4430  222.5950 C   0  0  0  0  0  0  0  0  0  0  0  0
  140.1700   79.2920  222.8540 C   0  0  0  0  0  0  0  0  0  0  0  0
  140.0430   80.4580  223.5960 C   0  0  0  0  0  0  0  0  0  0  0  0
  141.1670   81.2450  223.8280 C   0  0  0  0  0  0  0  0  0  0  0  0
  142.3670   80.8500  223.3230 C   0  0  0  0  0  0  0  0  0  0  0  0
  142.4710   79.6770  222.5810 C   0  0  0  0  0  0  0  0  0  0  0  0
  141.3750   78.8710  222.3310 C   0  0  0  0  0  0  0  0  0  0  0  0
  141.4400   77.6200  221.5510 C   0  0  0  0  0  0  0  0  0  0  0  0
  139.9420   74.3020  222.2270 N   0  0  0  0  0  0  0  0  0  0  0  0
  140.6500   71.4620  224.5280 C   0  0  0  0  0  0  0  0  0  0  0  0
  140.2196   69.1393  229.3557 H   0  0  0  0  0  0  0  0  0  0  0  0
  141.6193   71.1543  228.9935 H   0  0  0  0  0  0  0  0  0  0  0  0
  141.7997   72.1893  226.7749 H   0  0  0  0  0  0  0  0  0  0  0  0
  138.9604   68.1581  227.4059 H   0  0  0  0  0  0  0  0  0  0  0  0
  139.6651   68.5269  224.2025 H   0  0  0  0  0  0  0  0  0  0  0  0
  138.1562   68.4611  225.1080 H   0  0  0  0  0  0  0  0  0  0  0  0
  137.7797   70.0986  223.3015 H   0  0  0  0  0  0  0  0  0  0  0  0
  138.0134   71.0900  224.7456 H   0  0  0  0  0  0  0  0  0  0  0  0
  140.3223   70.2110  222.8774 H   0  0  0  0  0  0  0  0  0  0  0  0
  138.3380   71.9630  222.2110 H   0  0  0  0  0  0  0  0  0  0  0  0
  143.7280   72.2850  220.1930 H   0  0  0  0  0  0  0  0  0  0  0  0
  144.5750   74.8534  219.7776 H   0  0  0  0  0  0  0  0  0  0  0  0
  144.5903   73.5393  218.5052 H   0  0  0  0  0  0  0  0  0  0  0  0
  142.8414   74.3573  217.4146 H   0  0  0  0  0  0  0  0  0  0  0  0
  142.1270   75.0946  218.9320 H   0  0  0  0  0  0  0  0  0  0  0  0
  144.6382   76.1895  217.8827 H   0  0  0  0  0  0  0  0  0  0  0  0
  143.5379   77.6742  216.2946 H   0  0  0  0  0  0  0  0  0  0  0  0
  143.0665   76.0688  215.8182 H   0  0  0  0  0  0  0  0  0  0  0  0
  141.1009   77.8496  216.3470 H   0  0  0  0  0  0  0  0  0  0  0  0
  140.8600   76.2840  217.0498 H   0  0  0  0  0  0  0  0  0  0  0  0
  141.8637   78.8551  218.3158 H   0  0  0  0  0  0  0  0  0  0  0  0
  140.9760   77.5265  219.0999 H   0  0  0  0  0  0  0  0  0  0  0  0
  143.7200   77.9250  219.2470 H   0  0  0  0  0  0  0  0  0  0  0  0
  138.4417   76.5006  222.0325 H   0  0  0  0  0  0  0  0  0  0  0  0
  139.3405   76.6838  223.6270 H   0  0  0  0  0  0  0  0  0  0  0  0
  138.5693   78.7263  221.6176 H   0  0  0  0  0  0  0  0  0  0  0  0
  138.2914   78.6162  223.4294 H   0  0  0  0  0  0  0  0  0  0  0  0
  139.0633   80.7572  223.9968 H   0  0  0  0  0  0  0  0  0  0  0  0
  141.0864   82.1738  224.4118 H   0  0  0  0  0  0  0  0  0  0  0  0
  143.2626   81.4629  223.5026 H   0  0  0  0  0  0  0  0  0  0  0  0
  143.4529   79.3825  222.1820 H   0  0  0  0  0  0  0  0  0  0  0  0
  141.2510   77.8648  220.4954 H   0  0  0  0  0  0  0  0  0  0  0  0
  142.4404   77.1975  221.7263 H   0  0  0  0  0  0  0  0  0  0  0  0
  141.6912   71.3315  224.1982 H   0  0  0  0  0  0  0  0  0  0  0  0
  140.3787   72.5149  224.6950 H   0  0  0  0  0  0  0  0  0  0  0  0
  1  2  2  0
  2  3  1  0
  3  4  2  0
  4  5  1  0
  5  6  2  0
  5  7  1  0
  7  8  1  0
  8  9  1  0
  9 10  1  0
 10 11  1  0
 11 12  2  0
 12 13  1  0
 13 14  1  0
 14 15  1  0
 15 16  1  0
 16 17  1  0
 17 18  1  0
 18 19  1  0
 19 20  1  0
 20 21  1  0
 13 22  2  0
 22 23  1  0
 23 24  1  0
 24 25  1  0
 25 26  1  0
 26 27  1  0
 27 28  2  0
 28 29  1  0
 29 30  2  0
 30 31  1  0
 31 32  2  0
 32 33  1  0
 23 34  2  0
  9 35  1  0
  6  1  1  0
 34 11  1  0
 35  4  1  0
 21 17  1  0
 33 24  1  0
 32 27  1  0
  1 36  1  0
  2 37  1  0
  3 38  1  0
  6 39  1  0
  7 40  1  0
  7 41  1  0
  8 42  1  0
  8 43  1  0
  9 44  1  6
 10 45  1  0
 14 46  1  0
 15 47  1  0
 15 48  1  0
 16 49  1  0
 16 50  1  0
 17 51  1  6
 18 52  1  0
 18 53  1  0
 19 54  1  0
 19 55  1  0
 20 56  1  0
 20 57  1  0
 21 58  1  0
 25 59  1  0
 25 60  1  0
 26 61  1  0
 26 62  1  0
 28 63  1  0
 29 64  1  0
 30 65  1  0
 31 66  1  0
 33 67  1  0
 33 68  1  0
 35 69  1  0
 35 70  1  0
M  END
>  <smiles>  (157) 
c1ccc2c(c1)CCC(Nc1nc(NCCC3CCCN3)nc(N3CCc4ccccc4C3)n1)C2

>  <score_type>  (157) 
oracle

>  <origin>  (157) 
autodockgpu

>  <m_score__min__energy>  (157) 
-11.550000000000001

>  <m_primary>  (157) 
energy

>  <rmsd>  (157) 
11.567054409692531

>  <m_score__min__rmsd>  (157) 
11.567054409692531

>  <meeko>  (157) 
{"free_energy": -10.41, "intermolecular_energy": -12.5, "internal_energy": -1.45, "cluster_size": 31, "cluster_id": 1, "rank_in_cluster": 11}

>  <energy>  (157) 
-10.77

>  <cluster_rmsd>  (157) 
0.7

>  <cluster>  (157) 
1

$$$$

     RDKit          3D

 70 75  0  0  1  0  0  0  0  0999 V2000
  141.7330   81.3110  223.1880 C   0  0  0  0  0  0  0  0  0  0  0  0
  142.7320   80.3790  222.9780 C   0  0  0  0  0  0  0  0  0  0  0  0
  142.4460   79.0450  222.8250 C   0  0  0  0  0  0  0  0  0  0  0  0
  141.1450   78.5930  222.8760 C   0  0  0  0  0  0  0  0  0  0  0  0
  140.1470   79.5110  223.0850 C   0  0  0  0  0  0  0  0  0  0  0  0
  140.4070   80.8750  223.2430 C   0  0  0  0  0  0  0  0  0  0  0  0
  138.7440   78.9830  223.1340 C   0  0  0  0  0  0  0  0  0  0  0  0
  138.7000   77.9090  222.0390 C   0  0  0  0  0  0  0  0  0  0  0  0
  139.4890   76.7420  222.5890 C   0  0  1  0  0  0  0  0  0  0  0  0
  139.2830   75.6110  221.7230 N   0  0  0  0  0  0  0  0  0  0  0  0
  139.9760   74.3790  221.8300 C   0  0  0  0  0  0  0  0  0  0  0  0
  141.0430   74.1360  221.0430 N   0  0  0  0  0  0  0  0  0  0  0  0
  141.7430   72.9910  221.0960 C   0  0  0  0  0  0  0  0  0  0  0  0
  142.8660   72.7440  220.2640 N   0  0  0  0  0  0  0  0  0  0  0  0
  144.0630   73.5610  220.3060 C   0  0  0  0  0  0  0  0  0  0  0  0
  144.0480   74.6980  219.3420 C   0  0  0  0  0  0  0  0  0  0  0  0
  142.9060   75.6490  219.5300 C   0  0  1  0  0  0  0  0  0  0  0  0
  143.1660   77.0200  218.9950 C   0  0  0  0  0  0  0  0  0  0  0  0
  143.0770   76.7750  217.4880 C   0  0  0  0  0  0  0  0  0  0  0  0
  141.8930   75.8260  217.4380 C   0  0  0  0  0  0  0  0  0  0  0  0
  141.8090   75.1860  218.7160 N   0  0  0  0  0  0  0  0  0  0  0  0
  141.3470   72.0670  221.9740 N   0  0  0  0  0  0  0  0  0  0  0  0
  140.2710   72.2940  222.7770 C   0  0  0  0  0  0  0  0  0  0  0  0
  139.8900   71.2730  223.6970 N   0  0  0  0  0  0  0  0  0  0  0  0
  139.3580   70.0420  223.1660 C   0  0  0  0  0  0  0  0  0  0  0  0
  138.8260   69.1060  224.1720 C   0  0  0  0  0  0  0  0  0  0  0  0
  139.6130   69.0290  225.4210 C   0  0  0  0  0  0  0  0  0  0  0  0
  139.7410   67.8200  226.0930 C   0  0  0  0  0  0  0  0  0  0  0  0
  140.4840   67.7670  227.2680 C   0  0  0  0  0  0  0  0  0  0  0  0
  141.0720   68.9040  227.7310 C   0  0  0  0  0  0  0  0  0  0  0  0
  140.9300   70.1050  227.0420 C   0  0  0  0  0  0  0  0  0  0  0  0
  140.1990   70.1940  225.8720 C   0  0  0  0  0  0  0  0  0  0  0  0
  140.0230   71.4450  225.1090 C   0  0  0  0  0  0  0  0  0  0  0  0
  139.6000   73.4350  222.7010 N   0  0  0  0  0  0  0  0  0  0  0  0
  140.9220   77.1410  222.7020 C   0  0  0  0  0  0  0  0  0  0  0  0
  141.9777   82.3765  223.3096 H   0  0  0  0  0  0  0  0  0  0  0  0
  143.7789   80.7135  222.9325 H   0  0  0  0  0  0  0  0  0  0  0  0
  143.2644   78.3288  222.6598 H   0  0  0  0  0  0  0  0  0  0  0  0
  139.5863   81.5889  223.4069 H   0  0  0  0  0  0  0  0  0  0  0  0
  138.5281   78.5433  224.1189 H   0  0  0  0  0  0  0  0  0  0  0  0
  137.9941   79.7722  222.9766 H   0  0  0  0  0  0  0  0  0  0  0  0
  137.6614   77.6095  221.8353 H   0  0  0  0  0  0  0  0  0  0  0  0
  139.1189   78.2750  221.0900 H   0  0  0  0  0  0  0  0  0  0  0  0
  139.1540   76.4550  223.5967 H   0  0  0  0  0  0  0  0  0  0  0  0
  138.5590   75.7320  220.9620 H   0  0  0  0  0  0  0  0  0  0  0  0
  142.8560   71.9540  219.5920 H   0  0  0  0  0  0  0  0  0  0  0  0
  144.1694   73.9688  221.3221 H   0  0  0  0  0  0  0  0  0  0  0  0
  144.9048   72.9117  220.0234 H   0  0  0  0  0  0  0  0  0  0  0  0
  144.9868   75.2597  219.4568 H   0  0  0  0  0  0  0  0  0  0  0  0
  143.9323   74.2602  218.3395 H   0  0  0  0  0  0  0  0  0  0  0  0
  142.7241   75.6888  220.6141 H   0  0  0  0  0  0  0  0  0  0  0  0
  142.4018   77.7356  219.3325 H   0  0  0  0  0  0  0  0  0  0  0  0
  144.1192   77.4591  219.3246 H   0  0  0  0  0  0  0  0  0  0  0  0
  142.8771   77.7049  216.9354 H   0  0  0  0  0  0  0  0  0  0  0  0
  143.9983   76.3870  217.0290 H   0  0  0  0  0  0  0  0  0  0  0  0
  140.9686   76.3870  217.2360 H   0  0  0  0  0  0  0  0  0  0  0  0
  142.0216   75.0831  216.6370 H   0  0  0  0  0  0  0  0  0  0  0  0
  140.8860   75.1890  219.1680 H   0  0  0  0  0  0  0  0  0  0  0  0
  138.5436   70.2944  222.4710 H   0  0  0  0  0  0  0  0  0  0  0  0
  140.2015   69.5265  222.6835 H   0  0  0  0  0  0  0  0  0  0  0  0
  137.8048   69.4237  224.4294 H   0  0  0  0  0  0  0  0  0  0  0  0
  138.8661   68.1052  223.7172 H   0  0  0  0  0  0  0  0  0  0  0  0
  139.2592   66.9127  225.6996 H   0  0  0  0  0  0  0  0  0  0  0  0
  140.5948   66.8193  227.8154 H   0  0  0  0  0  0  0  0  0  0  0  0
  141.6644   68.8734  228.6574 H   0  0  0  0  0  0  0  0  0  0  0  0
  141.4133   71.0095  227.4399 H   0  0  0  0  0  0  0  0  0  0  0  0
  139.1168   71.9468  225.4792 H   0  0  0  0  0  0  0  0  0  0  0  0
  140.9395   72.0332  225.2639 H   0  0  0  0  0  0  0  0  0  0  0  0
  141.3556   76.6209  223.5689 H   0  0  0  0  0  0  0  0  0  0  0  0
  141.3987   76.8642  221.7501 H   0  0  0  0  0  0  0  0  0  0  0  0
  1  2  2  0
  2  3  1  0
  3  4  2  0
  4  5  1  0
  5  6  2  0
  5  7  1  0
  7  8  1  0
  8  9  1  0
  9 10  1  0
 10 11  1  0
 11 12  2  0
 12 13  1  0
 13 14  1  0
 14 15  1  0
 15 16  1  0
 16 17  1  0
 17 18  1  0
 18 19  1  0
 19 20  1  0
 20 21  1  0
 13 22  2  0
 22 23  1  0
 23 24  1  0
 24 25  1  0
 25 26  1  0
 26 27  1  0
 27 28  2  0
 28 29  1  0
 29 30  2  0
 30 31  1  0
 31 32  2  0
 32 33  1  0
 23 34  2  0
  9 35  1  0
  6  1  1  0
 34 11  1  0
 35  4  1  0
 21 17  1  0
 33 24  1  0
 32 27  1  0
  1 36  1  0
  2 37  1  0
  3 38  1  0
  6 39  1  0
  7 40  1  0
  7 41  1  0
  8 42  1  0
  8 43  1  0
  9 44  1  1
 10 45  1  0
 14 46  1  0
 15 47  1  0
 15 48  1  0
 16 49  1  0
 16 50  1  0
 17 51  1  1
 18 52  1  0
 18 53  1  0
 19 54  1  0
 19 55  1  0
 20 56  1  0
 20 57  1  0
 21 58  1  0
 25 59  1  0
 25 60  1  0
 26 61  1  0
 26 62  1  0
 28 63  1  0
 29 64  1  0
 30 65  1  0
 31 66  1  0
 33 67  1  0
 33 68  1  0
 35 69  1  0
 35 70  1  0
M  END
>  <smiles>  (158) 
c1ccc2c(c1)CCC(Nc1nc(NCCC3CCCN3)nc(N3CCc4ccccc4C3)n1)C2

>  <score_type>  (158) 
oracle

>  <origin>  (158) 
autodockgpu

>  <m_score__min__energy>  (158) 
-11.550000000000001

>  <m_primary>  (158) 
energy

>  <rmsd>  (158) 
4.35610435930858

>  <m_score__min__rmsd>  (158) 
4.35610435930858

>  <meeko>  (158) 
{"free_energy": -9.7, "intermolecular_energy": -11.79, "internal_energy": -1.99, "cluster_size": 31, "cluster_id": 1, "rank_in_cluster": 26}

>  <energy>  (158) 
-10.72

>  <cluster_rmsd>  (158) 
1.0

>  <cluster>  (158) 
1

$$$$

     RDKit          3D

 70 75  0  0  1  0  0  0  0  0999 V2000
  140.8290   68.0810  227.7200 C   0  0  0  0  0  0  0  0  0  0  0  0
  139.9640   67.4320  226.8590 C   0  0  0  0  0  0  0  0  0  0  0  0
  139.3450   68.0980  225.8310 C   0  0  0  0  0  0  0  0  0  0  0  0
  139.5690   69.4420  225.6240 C   0  0  0  0  0  0  0  0  0  0  0  0
  140.4270   70.0940  226.4750 C   0  0  0  0  0  0  0  0  0  0  0  0
  141.0720   69.4440  227.5290 C   0  0  0  0  0  0  0  0  0  0  0  0
  140.6470   71.5560  226.2190 C   0  0  0  0  0  0  0  0  0  0  0  0
  140.7090   71.6730  224.6910 C   0  0  0  0  0  0  0  0  0  0  0  0
  139.2850   71.4880  224.2160 C   0  0  1  0  0  0  0  0  0  0  0  0
  139.2270   71.8300  222.8190 N   0  0  0  0  0  0  0  0  0  0  0  0
  140.2990   72.3960  222.0840 C   0  0  0  0  0  0  0  0  0  0  0  0
  140.4270   73.7350  222.0030 N   0  0  0  0  0  0  0  0  0  0  0  0
  141.4200   74.3340  221.3240 C   0  0  0  0  0  0  0  0  0  0  0  0
  141.5480   75.7450  221.2450 N   0  0  0  0  0  0  0  0  0  0  0  0
  140.8220   76.5400  220.2740 C   0  0  0  0  0  0  0  0  0  0  0  0
  139.5970   77.1880  220.8240 C   0  0  0  0  0  0  0  0  0  0  0  0
  139.3630   76.9240  222.2800 C   0  0  1  0  0  0  0  0  0  0  0  0
  138.4110   77.8810  222.9210 C   0  0  0  0  0  0  0  0  0  0  0  0
  137.0770   77.4140  222.3380 C   0  0  0  0  0  0  0  0  0  0  0  0
  137.2670   75.9090  222.3980 C   0  0  0  0  0  0  0  0  0  0  0  0
  138.6780   75.6600  222.3930 N   0  0  0  0  0  0  0  0  0  0  0  0
  142.3080   73.5480  220.7110 N   0  0  0  0  0  0  0  0  0  0  0  0
  142.1950   72.1930  220.7810 C   0  0  0  0  0  0  0  0  0  0  0  0
  143.1690   71.3990  220.1070 N   0  0  0  0  0  0  0  0  0  0  0  0
  144.5310   71.8750  220.0760 C   0  0  0  0  0  0  0  0  0  0  0  0
  145.4450   71.0980  219.2200 C   0  0  0  0  0  0  0  0  0  0  0  0
  145.2320   69.6350  219.2570 C   0  0  0  0  0  0  0  0  0  0  0  0
  146.3140   68.7690  219.1660 C   0  0  0  0  0  0  0  0  0  0  0  0
  146.0930   67.3960  219.2020 C   0  0  0  0  0  0  0  0  0  0  0  0
  144.8200   66.9330  219.3270 C   0  0  0  0  0  0  0  0  0  0  0  0
  143.7500   67.8190  219.4160 C   0  0  0  0  0  0  0  0  0  0  0  0
  143.9320   69.1890  219.3840 C   0  0  0  0  0  0  0  0  0  0  0  0
  142.8280   70.1640  219.4760 C   0  0  0  0  0  0  0  0  0  0  0  0
  141.2030   71.6320  221.4600 N   0  0  0  0  0  0  0  0  0  0  0  0
  138.8640   70.0850  224.4940 C   0  0  0  0  0  0  0  0  0  0  0  0
  141.3172   67.5347  228.5405 H   0  0  0  0  0  0  0  0  0  0  0  0
  139.7676   66.3590  227.0008 H   0  0  0  0  0  0  0  0  0  0  0  0
  138.6615   67.5522  225.1639 H   0  0  0  0  0  0  0  0  0  0  0  0
  141.7558   69.9921  228.1938 H   0  0  0  0  0  0  0  0  0  0  0  0
  139.8137   72.1509  226.6210 H   0  0  0  0  0  0  0  0  0  0  0  0
  141.5590   71.9332  226.7048 H   0  0  0  0  0  0  0  0  0  0  0  0
  141.0877   72.6627  224.3958 H   0  0  0  0  0  0  0  0  0  0  0  0
  141.3873   70.9272  224.2508 H   0  0  0  0  0  0  0  0  0  0  0  0
  138.5835   72.1468  224.7488 H   0  0  0  0  0  0  0  0  0  0  0  0
  138.3100   71.6370  222.3290 H   0  0  0  0  0  0  0  0  0  0  0  0
  142.1790   76.2510  221.8940 H   0  0  0  0  0  0  0  0  0  0  0  0
  141.4925   77.3273  219.8990 H   0  0  0  0  0  0  0  0  0  0  0  0
  140.4931   75.8543  219.4792 H   0  0  0  0  0  0  0  0  0  0  0  0
  139.6879   78.2749  220.6808 H   0  0  0  0  0  0  0  0  0  0  0  0
  138.7416   76.7567  220.2833 H   0  0  0  0  0  0  0  0  0  0  0  0
  140.3508   76.9859  222.7601 H   0  0  0  0  0  0  0  0  0  0  0  0
  138.4253   77.7895  224.0171 H   0  0  0  0  0  0  0  0  0  0  0  0
  138.6399   78.9397  222.7295 H   0  0  0  0  0  0  0  0  0  0  0  0
  136.2266   77.7418  222.9539 H   0  0  0  0  0  0  0  0  0  0  0  0
  136.8479   77.8097  221.3375 H   0  0  0  0  0  0  0  0  0  0  0  0
  136.8168   75.5086  223.3183 H   0  0  0  0  0  0  0  0  0  0  0  0
  136.7809   75.4194  221.5413 H   0  0  0  0  0  0  0  0  0  0  0  0
  139.0320   75.0250  223.1190 H   0  0  0  0  0  0  0  0  0  0  0  0
  144.5212   72.9125  219.7107 H   0  0  0  0  0  0  0  0  0  0  0  0
  144.9138   71.7758  221.1025 H   0  0  0  0  0  0  0  0  0  0  0  0
  145.3137   71.4373  218.1819 H   0  0  0  0  0  0  0  0  0  0  0  0
  146.4592   71.2743  219.6078 H   0  0  0  0  0  0  0  0  0  0  0  0
  147.3355   69.1648  219.0665 H   0  0  0  0  0  0  0  0  0  0  0  0
  146.9367   66.6938  219.1303 H   0  0  0  0  0  0  0  0  0  0  0  0
  144.6346   65.8492  219.3580 H   0  0  0  0  0  0  0  0  0  0  0  0
  142.7306   67.4176  219.5146 H   0  0  0  0  0  0  0  0  0  0  0  0
  142.4815   70.3855  218.4558 H   0  0  0  0  0  0  0  0  0  0  0  0
  142.0558   69.6980  220.1058 H   0  0  0  0  0  0  0  0  0  0  0  0
  137.7872   70.0883  224.7189 H   0  0  0  0  0  0  0  0  0  0  0  0
  139.1162   69.5007  223.5968 H   0  0  0  0  0  0  0  0  0  0  0  0
  1  2  2  0
  2  3  1  0
  3  4  2  0
  4  5  1  0
  5  6  2  0
  5  7  1  0
  7  8  1  0
  8  9  1  0
  9 10  1  0
 10 11  1  0
 11 12  2  0
 12 13  1  0
 13 14  1  0
 14 15  1  0
 15 16  1  0
 16 17  1  0
 17 18  1  0
 18 19  1  0
 19 20  1  0
 20 21  1  0
 13 22  2  0
 22 23  1  0
 23 24  1  0
 24 25  1  0
 25 26  1  0
 26 27  1  0
 27 28  2  0
 28 29  1  0
 29 30  2  0
 30 31  1  0
 31 32  2  0
 32 33  1  0
 23 34  2  0
  9 35  1  0
  6  1  1  0
 34 11  1  0
 35  4  1  0
 21 17  1  0
 33 24  1  0
 32 27  1  0
  1 36  1  0
  2 37  1  0
  3 38  1  0
  6 39  1  0
  7 40  1  0
  7 41  1  0
  8 42  1  0
  8 43  1  0
  9 44  1  1
 10 45  1  0
 14 46  1  0
 15 47  1  0
 15 48  1  0
 16 49  1  0
 16 50  1  0
 17 51  1  1
 18 52  1  0
 18 53  1  0
 19 54  1  0
 19 55  1  0
 20 56  1  0
 20 57  1  0
 21 58  1  0
 25 59  1  0
 25 60  1  0
 26 61  1  0
 26 62  1  0
 28 63  1  0
 29 64  1  0
 30 65  1  0
 31 66  1  0
 33 67  1  0
 33 68  1  0
 35 69  1  0
 35 70  1  0
M  END
>  <smiles>  (159) 
c1ccc2c(c1)CCC(Nc1nc(NCCC3CCCN3)nc(N3CCc4ccccc4C3)n1)C2

>  <score_type>  (159) 
oracle

>  <origin>  (159) 
autodockgpu

>  <m_score__min__energy>  (159) 
-11.550000000000001

>  <m_primary>  (159) 
energy

>  <rmsd>  (159) 
11.959795730917499

>  <m_score__min__rmsd>  (159) 
11.959795730917499

>  <meeko>  (159) 
{"free_energy": -10.15, "intermolecular_energy": -12.24, "internal_energy": -1.78, "cluster_size": 11, "cluster_id": 2, "rank_in_cluster": 10}

>  <energy>  (159) 
-10.53

>  <cluster_rmsd>  (159) 
1.35

>  <cluster>  (159) 
1

$$$$

     RDKit          3D

 70 75  0  0  1  0  0  0  0  0999 V2000
  140.4780   68.6680  228.2320 C   0  0  0  0  0  0  0  0  0  0  0  0
  141.0410   69.9250  228.3470 C   0  0  0  0  0  0  0  0  0  0  0  0
  141.0490   70.8050  227.2940 C   0  0  0  0  0  0  0  0  0  0  0  0
  140.4900   70.4600  226.0820 C   0  0  0  0  0  0  0  0  0  0  0  0
  139.9280   69.2140  225.9590 C   0  0  0  0  0  0  0  0  0  0  0  0
  139.9050   68.2970  227.0120 C   0  0  0  0  0  0  0  0  0  0  0  0
  139.3300   68.8740  224.6260 C   0  0  0  0  0  0  0  0  0  0  0  0
  138.6410   70.1690  224.1730 C   0  0  0  0  0  0  0  0  0  0  0  0
  139.7630   71.1030  223.7780 C   0  0  1  0  0  0  0  0  0  0  0  0
  139.1880   72.2420  223.1120 N   0  0  0  0  0  0  0  0  0  0  0  0
  139.8340   72.9910  222.0960 C   0  0  0  0  0  0  0  0  0  0  0  0
  140.1540   72.4030  220.9270 N   0  0  0  0  0  0  0  0  0  0  0  0
  140.7640   73.0570  219.9240 C   0  0  0  0  0  0  0  0  0  0  0  0
  141.0980   72.4310  218.6950 N   0  0  0  0  0  0  0  0  0  0  0  0
  142.4130   72.5420  218.0960 C   0  0  0  0  0  0  0  0  0  0  0  0
  143.5310   72.4640  219.0790 C   0  0  0  0  0  0  0  0  0  0  0  0
  144.3980   73.6860  219.1210 C   0  0  1  0  0  0  0  0  0  0  0  0
  144.4170   74.3680  220.4500 C   0  0  0  0  0  0  0  0  0  0  0  0
  145.2660   73.3980  221.2730 C   0  0  0  0  0  0  0  0  0  0  0  0
  146.3310   73.0380  220.2520 C   0  0  0  0  0  0  0  0  0  0  0  0
  145.7660   73.2600  218.9540 N   0  0  0  0  0  0  0  0  0  0  0  0
  141.0570   74.3450  220.1180 N   0  0  0  0  0  0  0  0  0  0  0  0
  140.7420   74.9560  221.2930 C   0  0  0  0  0  0  0  0  0  0  0  0
  141.0770   76.3330  221.4480 N   0  0  0  0  0  0  0  0  0  0  0  0
  141.4290   77.0850  220.2690 C   0  0  0  0  0  0  0  0  0  0  0  0
  141.9290   78.4480  220.5220 C   0  0  0  0  0  0  0  0  0  0  0  0
  141.2340   79.1690  221.6110 C   0  0  0  0  0  0  0  0  0  0  0  0
  141.0250   80.5380  221.5200 C   0  0  0  0  0  0  0  0  0  0  0  0
  140.3710   81.1990  222.5550 C   0  0  0  0  0  0  0  0  0  0  0  0
  139.9490   80.4850  223.6330 C   0  0  0  0  0  0  0  0  0  0  0  0
  140.1690   79.1120  223.7040 C   0  0  0  0  0  0  0  0  0  0  0  0
  140.8160   78.4240  222.6940 C   0  0  0  0  0  0  0  0  0  0  0  0
  141.0700   76.9700  222.7270 C   0  0  0  0  0  0  0  0  0  0  0  0
  140.1380   74.2830  222.2640 N   0  0  0  0  0  0  0  0  0  0  0  0
  140.5390   71.4660  224.9990 C   0  0  0  0  0  0  0  0  0  0  0  0
  140.4807   67.9726  229.0843 H   0  0  0  0  0  0  0  0  0  0  0  0
  141.4926   70.2267  229.3036 H   0  0  0  0  0  0  0  0  0  0  0  0
  141.5069   71.7974  227.4185 H   0  0  0  0  0  0  0  0  0  0  0  0
  139.4464   67.3053  226.8844 H   0  0  0  0  0  0  0  0  0  0  0  0
  140.1133   68.5799  223.9119 H   0  0  0  0  0  0  0  0  0  0  0  0
  138.6312   68.0265  224.6847 H   0  0  0  0  0  0  0  0  0  0  0  0
  137.9818   69.9743  223.3142 H   0  0  0  0  0  0  0  0  0  0  0  0
  138.0121   70.5975  224.9672 H   0  0  0  0  0  0  0  0  0  0  0  0
  140.4675   70.6298  223.0781 H   0  0  0  0  0  0  0  0  0  0  0  0
  138.2150   72.5190  223.4200 H   0  0  0  0  0  0  0  0  0  0  0  0
  140.3920   71.8670  218.1870 H   0  0  0  0  0  0  0  0  0  0  0  0
  142.5329   71.7252  217.3690 H   0  0  0  0  0  0  0  0  0  0  0  0
  142.4681   73.5353  217.6266 H   0  0  0  0  0  0  0  0  0  0  0  0
  143.1006   72.3117  220.0798 H   0  0  0  0  0  0  0  0  0  0  0  0
  144.1744   71.6305  218.7607 H   0  0  0  0  0  0  0  0  0  0  0  0
  144.0021   74.3627  218.3494 H   0  0  0  0  0  0  0  0  0  0  0  0
  144.8871   75.3604  220.3865 H   0  0  0  0  0  0  0  0  0  0  0  0
  143.4194   74.5619  220.8709 H   0  0  0  0  0  0  0  0  0  0  0  0
  145.6992   73.8864  222.1583 H   0  0  0  0  0  0  0  0  0  0  0  0
  144.7154   72.5403  221.6866 H   0  0  0  0  0  0  0  0  0  0  0  0
  147.2171   73.6747  220.3912 H   0  0  0  0  0  0  0  0  0  0  0  0
  146.6441   71.9898  220.3675 H   0  0  0  0  0  0  0  0  0  0  0  0
  146.3300   73.8180  218.3000 H   0  0  0  0  0  0  0  0  0  0  0  0
  142.2117   76.5294  219.7317 H   0  0  0  0  0  0  0  0  0  0  0  0
  140.4998   77.2022  219.6921 H   0  0  0  0  0  0  0  0  0  0  0  0
  142.9954   78.3789  220.7828 H   0  0  0  0  0  0  0  0  0  0  0  0
  141.7449   79.0223  219.6021 H   0  0  0  0  0  0  0  0  0  0  0  0
  141.3731   81.0953  220.6378 H   0  0  0  0  0  0  0  0  0  0  0  0
  140.1976   82.2840  222.5022 H   0  0  0  0  0  0  0  0  0  0  0  0
  139.4292   80.9969  224.4562 H   0  0  0  0  0  0  0  0  0  0  0  0
  139.8184   78.5593  224.5881 H   0  0  0  0  0  0  0  0  0  0  0  0
  142.0508   76.8047  223.1968 H   0  0  0  0  0  0  0  0  0  0  0  0
  140.2376   76.5233  223.2905 H   0  0  0  0  0  0  0  0  0  0  0  0
  141.5906   71.6059  224.7081 H   0  0  0  0  0  0  0  0  0  0  0  0
  140.0772   72.3797  225.4014 H   0  0  0  0  0  0  0  0  0  0  0  0
  1  2  2  0
  2  3  1  0
  3  4  2  0
  4  5  1  0
  5  6  2  0
  5  7  1  0
  7  8  1  0
  8  9  1  0
  9 10  1  0
 10 11  1  0
 11 12  2  0
 12 13  1  0
 13 14  1  0
 14 15  1  0
 15 16  1  0
 16 17  1  0
 17 18  1  0
 18 19  1  0
 19 20  1  0
 20 21  1  0
 13 22  2  0
 22 23  1  0
 23 24  1  0
 24 25  1  0
 25 26  1  0
 26 27  1  0
 27 28  2  0
 28 29  1  0
 29 30  2  0
 30 31  1  0
 31 32  2  0
 32 33  1  0
 23 34  2  0
  9 35  1  0
  6  1  1  0
 34 11  1  0
 35  4  1  0
 21 17  1  0
 33 24  1  0
 32 27  1  0
  1 36  1  0
  2 37  1  0
  3 38  1  0
  6 39  1  0
  7 40  1  0
  7 41  1  0
  8 42  1  0
  8 43  1  0
  9 44  1  6
 10 45  1  0
 14 46  1  0
 15 47  1  0
 15 48  1  0
 16 49  1  0
 16 50  1  0
 17 51  1  6
 18 52  1  0
 18 53  1  0
 19 54  1  0
 19 55  1  0
 20 56  1  0
 20 57  1  0
 21 58  1  0
 25 59  1  0
 25 60  1  0
 26 61  1  0
 26 62  1  0
 28 63  1  0
 29 64  1  0
 30 65  1  0
 31 66  1  0
 33 67  1  0
 33 68  1  0
 35 69  1  0
 35 70  1  0
M  END
>  <smiles>  (160) 
c1ccc2c(c1)CCC(Nc1nc(NCCC3CCCN3)nc(N3CCc4ccccc4C3)n1)C2

>  <score_type>  (160) 
oracle

>  <origin>  (160) 
autodockgpu

>  <m_score__min__energy>  (160) 
-11.550000000000001

>  <m_primary>  (160) 
energy

>  <rmsd>  (160) 
11.918381234335468

>  <m_score__min__rmsd>  (160) 
11.918381234335468

>  <meeko>  (160) 
{"free_energy": -10.93, "intermolecular_energy": -13.01, "internal_energy": -1.39, "cluster_size": 31, "cluster_id": 1, "rank_in_cluster": 6}

>  <energy>  (160) 
-10.52

>  <cluster_rmsd>  (160) 
1.67

>  <cluster>  (160) 
1

$$$$

     RDKit          3D

 70 75  0  0  1  0  0  0  0  0999 V2000
  140.2750   68.5190  228.2900 C   0  0  0  0  0  0  0  0  0  0  0  0
  141.0080   69.6890  228.3440 C   0  0  0  0  0  0  0  0  0  0  0  0
  141.0640   70.5490  227.2750 C   0  0  0  0  0  0  0  0  0  0  0  0
  140.3850   70.2680  226.1080 C   0  0  0  0  0  0  0  0  0  0  0  0
  139.6540   69.1080  226.0470 C   0  0  0  0  0  0  0  0  0  0  0  0
  139.5780   68.2150  227.1180 C   0  0  0  0  0  0  0  0  0  0  0  0
  138.9290   68.8370  224.7620 C   0  0  0  0  0  0  0  0  0  0  0  0
  138.3920   70.2070  224.3280 C   0  0  0  0  0  0  0  0  0  0  0  0
  139.6010   70.9760  223.8420 C   0  0  1  0  0  0  0  0  0  0  0  0
  139.1410   72.1740  223.1910 N   0  0  0  0  0  0  0  0  0  0  0  0
  139.8630   72.8740  222.1920 C   0  0  0  0  0  0  0  0  0  0  0  0
  140.3220   72.2180  221.1080 N   0  0  0  0  0  0  0  0  0  0  0  0
  141.0100   72.8220  220.1260 C   0  0  0  0  0  0  0  0  0  0  0  0
  141.4900   72.1240  218.9870 N   0  0  0  0  0  0  0  0  0  0  0  0
  142.7910   71.4840  218.9560 C   0  0  0  0  0  0  0  0  0  0  0  0
  143.4600   71.4180  220.2860 C   0  0  0  0  0  0  0  0  0  0  0  0
  143.8870   72.7490  220.8260 C   0  0  1  0  0  0  0  0  0  0  0  0
  145.3290   72.8100  221.2130 C   0  0  0  0  0  0  0  0  0  0  0  0
  146.0070   72.8370  219.8430 C   0  0  0  0  0  0  0  0  0  0  0  0
  145.0710   73.7700  219.0960 C   0  0  0  0  0  0  0  0  0  0  0  0
  143.7990   73.7090  219.7520 N   0  0  0  0  0  0  0  0  0  0  0  0
  141.2370   74.1320  220.2490 N   0  0  0  0  0  0  0  0  0  0  0  0
  140.7820   74.8130  221.3370 C   0  0  0  0  0  0  0  0  0  0  0  0
  141.0520   76.2100  221.4190 N   0  0  0  0  0  0  0  0  0  0  0  0
  141.3640   76.9160  220.2010 C   0  0  0  0  0  0  0  0  0  0  0  0
  141.8000   78.3130  220.3810 C   0  0  0  0  0  0  0  0  0  0  0  0
  141.0760   79.0540  221.4370 C   0  0  0  0  0  0  0  0  0  0  0  0
  140.8030   80.4060  221.2770 C   0  0  0  0  0  0  0  0  0  0  0  0
  140.1220   81.0870  222.2820 C   0  0  0  0  0  0  0  0  0  0  0  0
  139.7380   80.4100  223.3980 C   0  0  0  0  0  0  0  0  0  0  0  0
  140.0230   79.0550  223.5360 C   0  0  0  0  0  0  0  0  0  0  0  0
  140.6980   78.3470  222.5590 C   0  0  0  0  0  0  0  0  0  0  0  0
  141.0200   76.9100  222.6640 C   0  0  0  0  0  0  0  0  0  0  0  0
  140.1050   74.1870  222.2900 N   0  0  0  0  0  0  0  0  0  0  0  0
  140.4970   71.2450  225.0040 C   0  0  0  0  0  0  0  0  0  0  0  0
  140.2408   67.8392  229.1541 H   0  0  0  0  0  0  0  0  0  0  0  0
  141.5587   69.9369  229.2634 H   0  0  0  0  0  0  0  0  0  0  0  0
  141.6571   71.4724  227.3503 H   0  0  0  0  0  0  0  0  0  0  0  0
  138.9829   67.2932  227.0406 H   0  0  0  0  0  0  0  0  0  0  0  0
  139.6169   68.4315  224.0054 H   0  0  0  0  0  0  0  0  0  0  0  0
  138.1281   68.0927  224.8824 H   0  0  0  0  0  0  0  0  0  0  0  0
  137.6568   70.0933  223.5177 H   0  0  0  0  0  0  0  0  0  0  0  0
  137.8808   70.7261  225.1521 H   0  0  0  0  0  0  0  0  0  0  0  0
  140.1880   70.4043  223.1081 H   0  0  0  0  0  0  0  0  0  0  0  0
  138.1970   72.5380  223.4980 H   0  0  0  0  0  0  0  0  0  0  0  0
  140.9070   72.0520  218.1330 H   0  0  0  0  0  0  0  0  0  0  0  0
  142.6640   70.4580  218.5802 H   0  0  0  0  0  0  0  0  0  0  0  0
  143.4331   72.0944  218.3040 H   0  0  0  0  0  0  0  0  0  0  0  0
  142.7595   70.9638  221.0023 H   0  0  0  0  0  0  0  0  0  0  0  0
  144.3757   70.8238  220.1499 H   0  0  0  0  0  0  0  0  0  0  0  0
  143.2468   72.9374  221.7004 H   0  0  0  0  0  0  0  0  0  0  0  0
  145.5526   73.7190  221.7908 H   0  0  0  0  0  0  0  0  0  0  0  0
  145.6564   71.9837  221.8610 H   0  0  0  0  0  0  0  0  0  0  0  0
  147.0269   73.2448  219.9016 H   0  0  0  0  0  0  0  0  0  0  0  0
  146.1425   71.8500  219.3766 H   0  0  0  0  0  0  0  0  0  0  0  0
  145.4612   74.7980  219.1254 H   0  0  0  0  0  0  0  0  0  0  0  0
  144.9810   73.4704  218.0414 H   0  0  0  0  0  0  0  0  0  0  0  0
  143.3650   74.6080  219.9920 H   0  0  0  0  0  0  0  0  0  0  0  0
  142.1703   76.3709  219.6883 H   0  0  0  0  0  0  0  0  0  0  0  0
  140.4283   76.9594  219.6243 H   0  0  0  0  0  0  0  0  0  0  0  0
  142.8697   78.3080  220.6375 H   0  0  0  0  0  0  0  0  0  0  0  0
  141.5851   78.8306  219.4344 H   0  0  0  0  0  0  0  0  0  0  0  0
  141.1215   80.9333  220.3657 H   0  0  0  0  0  0  0  0  0  0  0  0
  139.8972   82.1585  222.1753 H   0  0  0  0  0  0  0  0  0  0  0  0
  139.1979   80.9381  224.1976 H   0  0  0  0  0  0  0  0  0  0  0  0
  139.7019   78.5320  224.4489 H   0  0  0  0  0  0  0  0  0  0  0  0
  142.0092   76.8147  223.1355 H   0  0  0  0  0  0  0  0  0  0  0  0
  140.2116   76.4542  223.2545 H   0  0  0  0  0  0  0  0  0  0  0  0
  141.5365   71.2382  224.6442 H   0  0  0  0  0  0  0  0  0  0  0  0
  140.1888   72.2172  225.4162 H   0  0  0  0  0  0  0  0  0  0  0  0
  1  2  2  0
  2  3  1  0
  3  4  2  0
  4  5  1  0
  5  6  2  0
  5  7  1  0
  7  8  1  0
  8  9  1  0
  9 10  1  0
 10 11  1  0
 11 12  2  0
 12 13  1  0
 13 14  1  0
 14 15  1  0
 15 16  1  0
 16 17  1  0
 17 18  1  0
 18 19  1  0
 19 20  1  0
 20 21  1  0
 13 22  2  0
 22 23  1  0
 23 24  1  0
 24 25  1  0
 25 26  1  0
 26 27  1  0
 27 28  2  0
 28 29  1  0
 29 30  2  0
 30 31  1  0
 31 32  2  0
 32 33  1  0
 23 34  2  0
  9 35  1  0
  6  1  1  0
 34 11  1  0
 35  4  1  0
 21 17  1  0
 33 24  1  0
 32 27  1  0
  1 36  1  0
  2 37  1  0
  3 38  1  0
  6 39  1  0
  7 40  1  0
  7 41  1  0
  8 42  1  0
  8 43  1  0
  9 44  1  6
 10 45  1  0
 14 46  1  0
 15 47  1  0
 15 48  1  0
 16 49  1  0
 16 50  1  0
 17 51  1  1
 18 52  1  0
 18 53  1  0
 19 54  1  0
 19 55  1  0
 20 56  1  0
 20 57  1  0
 21 58  1  0
 25 59  1  0
 25 60  1  0
 26 61  1  0
 26 62  1  0
 28 63  1  0
 29 64  1  0
 30 65  1  0
 31 66  1  0
 33 67  1  0
 33 68  1  0
 35 69  1  0
 35 70  1  0
M  END
>  <smiles>  (161) 
c1ccc2c(c1)CCC(Nc1nc(NCCC3CCCN3)nc(N3CCc4ccccc4C3)n1)C2

>  <score_type>  (161) 
oracle

>  <origin>  (161) 
autodockgpu

>  <m_score__min__energy>  (161) 
-11.550000000000001

>  <m_primary>  (161) 
energy

>  <rmsd>  (161) 
12.062109013653346

>  <m_score__min__rmsd>  (161) 
12.062109013653346

>  <meeko>  (161) 
{"free_energy": -9.58, "intermolecular_energy": -11.67, "internal_energy": -1.62, "cluster_size": 31, "cluster_id": 1, "rank_in_cluster": 31}

>  <energy>  (161) 
-10.41

>  <cluster_rmsd>  (161) 
1.84

>  <cluster>  (161) 
1

$$$$

     RDKit          3D

 70 75  0  0  1  0  0  0  0  0999 V2000
  140.0560   68.8580  228.4800 C   0  0  0  0  0  0  0  0  0  0  0  0
  141.0430   69.8170  228.3530 C   0  0  0  0  0  0  0  0  0  0  0  0
  141.1950   70.5400  227.1960 C   0  0  0  0  0  0  0  0  0  0  0  0
  140.3610   70.3290  226.1180 C   0  0  0  0  0  0  0  0  0  0  0  0
  139.3780   69.3790  226.2360 C   0  0  0  0  0  0  0  0  0  0  0  0
  139.1980   68.6290  227.4000 C   0  0  0  0  0  0  0  0  0  0  0  0
  138.4900   69.1790  225.0440 C   0  0  0  0  0  0  0  0  0  0  0  0
  138.2480   70.5940  224.5030 C   0  0  0  0  0  0  0  0  0  0  0  0
  139.5500   71.0020  223.8510 C   0  0  1  0  0  0  0  0  0  0  0  0
  139.3220   72.2140  223.1080 N   0  0  0  0  0  0  0  0  0  0  0  0
  140.3010   72.8720  222.3220 C   0  0  0  0  0  0  0  0  0  0  0  0
  140.3290   74.2180  222.2700 N   0  0  0  0  0  0  0  0  0  0  0  0
  141.2310   74.9020  221.5460 C   0  0  0  0  0  0  0  0  0  0  0  0
  141.2540   76.3200  221.4970 N   0  0  0  0  0  0  0  0  0  0  0  0
  140.0600   77.1120  221.2740 C   0  0  0  0  0  0  0  0  0  0  0  0
  140.3270   78.5680  221.1020 C   0  0  0  0  0  0  0  0  0  0  0  0
  141.6790   79.0050  221.5770 C   0  0  1  0  0  0  0  0  0  0  0  0
  141.8220   80.4860  221.7130 C   0  0  0  0  0  0  0  0  0  0  0  0
  140.9880   80.7540  222.9670 C   0  0  0  0  0  0  0  0  0  0  0  0
  141.3960   79.5680  223.8220 C   0  0  0  0  0  0  0  0  0  0  0  0
  141.8410   78.5380  222.9330 N   0  0  0  0  0  0  0  0  0  0  0  0
  142.1300   74.1960  220.8560 N   0  0  0  0  0  0  0  0  0  0  0  0
  142.1170   72.8350  220.8960 C   0  0  0  0  0  0  0  0  0  0  0  0
  143.0980   72.1300  220.1400 N   0  0  0  0  0  0  0  0  0  0  0  0
  144.4010   72.7300  219.9870 C   0  0  0  0  0  0  0  0  0  0  0  0
  145.3050   72.0340  219.0540 C   0  0  0  0  0  0  0  0  0  0  0  0
  145.2350   70.5570  219.1140 C   0  0  0  0  0  0  0  0  0  0  0  0
  146.3810   69.7960  218.9290 C   0  0  0  0  0  0  0  0  0  0  0  0
  146.2950   68.4080  218.9870 C   0  0  0  0  0  0  0  0  0  0  0  0
  145.0870   67.8290  219.2260 C   0  0  0  0  0  0  0  0  0  0  0  0
  143.9510   68.6120  219.4080 C   0  0  0  0  0  0  0  0  0  0  0  0
  143.9990   69.9930  219.3560 C   0  0  0  0  0  0  0  0  0  0  0  0
  142.8210   70.8620  219.5440 C   0  0  0  0  0  0  0  0  0  0  0  0
  141.2130   72.1890  221.6210 N   0  0  0  0  0  0  0  0  0  0  0  0
  140.5910   71.1490  224.9090 C   0  0  0  0  0  0  0  0  0  0  0  0
  139.9475   68.2857  229.4131 H   0  0  0  0  0  0  0  0  0  0  0  0
  141.7219   70.0051  229.1978 H   0  0  0  0  0  0  0  0  0  0  0  0
  141.9910   71.2962  227.1279 H   0  0  0  0  0  0  0  0  0  0  0  0
  138.3995   67.8753  227.4658 H   0  0  0  0  0  0  0  0  0  0  0  0
  138.9884   68.5539  224.2885 H   0  0  0  0  0  0  0  0  0  0  0  0
  137.5529   68.6642  225.3025 H   0  0  0  0  0  0  0  0  0  0  0  0
  137.4325   70.5897  223.7648 H   0  0  0  0  0  0  0  0  0  0  0  0
  137.9530   71.2922  225.3002 H   0  0  0  0  0  0  0  0  0  0  0  0
  139.9141   70.2424  223.1436 H   0  0  0  0  0  0  0  0  0  0  0  0
  138.3490   72.6220  223.1700 H   0  0  0  0  0  0  0  0  0  0  0  0
  142.1450   76.8340  221.6230 H   0  0  0  0  0  0  0  0  0  0  0  0
  139.5625   76.7411  220.3658 H   0  0  0  0  0  0  0  0  0  0  0  0
  139.4328   77.0053  222.1713 H   0  0  0  0  0  0  0  0  0  0  0  0
  140.2423   78.8102  220.0323 H   0  0  0  0  0  0  0  0  0  0  0  0
  139.5881   79.0998  221.7194 H   0  0  0  0  0  0  0  0  0  0  0  0
  142.3968   78.6164  220.8396 H   0  0  0  0  0  0  0  0  0  0  0  0
  142.8727   80.7774  221.8584 H   0  0  0  0  0  0  0  0  0  0  0  0
  141.4988   81.0529  220.8275 H   0  0  0  0  0  0  0  0  0  0  0  0
  141.2595   81.7093  223.4399 H   0  0  0  0  0  0  0  0  0  0  0  0
  139.9060   80.8438  222.7901 H   0  0  0  0  0  0  0  0  0  0  0  0
  142.2108   79.8565  224.5024 H   0  0  0  0  0  0  0  0  0  0  0  0
  140.5508   79.2181  224.4329 H   0  0  0  0  0  0  0  0  0  0  0  0
  142.7490   78.1070  223.1500 H   0  0  0  0  0  0  0  0  0  0  0  0
  144.2617   73.7586  219.6228 H   0  0  0  0  0  0  0  0  0  0  0  0
  144.8807   72.6760  220.9754 H   0  0  0  0  0  0  0  0  0  0  0  0
  145.0503   72.3482  218.0311 H   0  0  0  0  0  0  0  0  0  0  0  0
  146.3285   72.3095  219.3481 H   0  0  0  0  0  0  0  0  0  0  0  0
  147.3477   70.2851  218.7384 H   0  0  0  0  0  0  0  0  0  0  0  0
  147.1915   67.7874  218.8416 H   0  0  0  0  0  0  0  0  0  0  0  0
  145.0077   66.7330  219.2757 H   0  0  0  0  0  0  0  0  0  0  0  0
  142.9869   68.1180  219.5988 H   0  0  0  0  0  0  0  0  0  0  0  0
  142.3667   71.0398  218.5581 H   0  0  0  0  0  0  0  0  0  0  0  0
  142.1551   70.3324  220.2412 H   0  0  0  0  0  0  0  0  0  0  0  0
  141.5611   70.8602  224.4782 H   0  0  0  0  0  0  0  0  0  0  0  0
  140.5584   72.1993  225.2342 H   0  0  0  0  0  0  0  0  0  0  0  0
  1  2  2  0
  2  3  1  0
  3  4  2  0
  4  5  1  0
  5  6  2  0
  5  7  1  0
  7  8  1  0
  8  9  1  0
  9 10  1  0
 10 11  1  0
 11 12  2  0
 12 13  1  0
 13 14  1  0
 14 15  1  0
 15 16  1  0
 16 17  1  0
 17 18  1  0
 18 19  1  0
 19 20  1  0
 20 21  1  0
 13 22  2  0
 22 23  1  0
 23 24  1  0
 24 25  1  0
 25 26  1  0
 26 27  1  0
 27 28  2  0
 28 29  1  0
 29 30  2  0
 30 31  1  0
 31 32  2  0
 32 33  1  0
 23 34  2  0
  9 35  1  0
  6  1  1  0
 34 11  1  0
 35  4  1  0
 21 17  1  0
 33 24  1  0
 32 27  1  0
  1 36  1  0
  2 37  1  0
  3 38  1  0
  6 39  1  0
  7 40  1  0
  7 41  1  0
  8 42  1  0
  8 43  1  0
  9 44  1  6
 10 45  1  0
 14 46  1  0
 15 47  1  0
 15 48  1  0
 16 49  1  0
 16 50  1  0
 17 51  1  6
 18 52  1  0
 18 53  1  0
 19 54  1  0
 19 55  1  0
 20 56  1  0
 20 57  1  0
 21 58  1  0
 25 59  1  0
 25 60  1  0
 26 61  1  0
 26 62  1  0
 28 63  1  0
 29 64  1  0
 30 65  1  0
 31 66  1  0
 33 67  1  0
 33 68  1  0
 35 69  1  0
 35 70  1  0
M  END
>  <smiles>  (162) 
c1ccc2c(c1)CCC(Nc1nc(NCCC3CCCN3)nc(N3CCc4ccccc4C3)n1)C2

>  <score_type>  (162) 
oracle

>  <origin>  (162) 
autodockgpu

>  <m_score__min__energy>  (162) 
-11.550000000000001

>  <m_primary>  (162) 
energy

>  <rmsd>  (162) 
11.942208825448965

>  <m_score__min__rmsd>  (162) 
11.942208825448965

>  <meeko>  (162) 
{"free_energy": -10.88, "intermolecular_energy": -12.97, "internal_energy": -1.38, "cluster_size": 11, "cluster_id": 2, "rank_in_cluster": 7}

>  <energy>  (162) 
-10.4

>  <cluster_rmsd>  (162) 
0.98

>  <cluster>  (162) 
1

$$$$

     RDKit          3D

 70 75  0  0  1  0  0  0  0  0999 V2000
  140.1340   70.1360  228.3560 C   0  0  0  0  0  0  0  0  0  0  0  0
  140.9930   71.1750  228.0500 C   0  0  0  0  0  0  0  0  0  0  0  0
  141.1550   71.6140  226.7590 C   0  0  0  0  0  0  0  0  0  0  0  0
  140.4600   71.0280  225.7230 C   0  0  0  0  0  0  0  0  0  0  0  0
  139.6040   69.9960  226.0180 C   0  0  0  0  0  0  0  0  0  0  0  0
  139.4190   69.5280  227.3210 C   0  0  0  0  0  0  0  0  0  0  0  0
  138.8650   69.3830  224.8660 C   0  0  0  0  0  0  0  0  0  0  0  0
  138.4890   70.5740  223.9750 C   0  0  0  0  0  0  0  0  0  0  0  0
  139.7800   71.0070  223.3170 C   0  0  1  0  0  0  0  0  0  0  0  0
  139.4630   71.9570  222.2830 N   0  0  0  0  0  0  0  0  0  0  0  0
  140.3220   73.0020  221.8590 C   0  0  0  0  0  0  0  0  0  0  0  0
  141.4580   72.7120  221.1950 N   0  0  0  0  0  0  0  0  0  0  0  0
  142.3130   73.6540  220.7650 C   0  0  0  0  0  0  0  0  0  0  0  0
  143.5080   73.3400  220.0660 N   0  0  0  0  0  0  0  0  0  0  0  0
  143.5050   72.6840  218.7740 C   0  0  0  0  0  0  0  0  0  0  0  0
  142.5660   73.2950  217.7910 C   0  0  0  0  0  0  0  0  0  0  0  0
  143.1440   74.4450  217.0230 C   0  0  1  0  0  0  0  0  0  0  0  0
  142.1450   75.5010  216.6750 C   0  0  0  0  0  0  0  0  0  0  0  0
  141.9200   76.1610  218.0360 C   0  0  0  0  0  0  0  0  0  0  0  0
  143.3430   76.1830  218.5650 C   0  0  0  0  0  0  0  0  0  0  0  0
  144.0600   75.1400  217.8950 N   0  0  0  0  0  0  0  0  0  0  0  0
  142.0030   74.9280  221.0180 N   0  0  0  0  0  0  0  0  0  0  0  0
  140.8600   75.2410  221.6880 C   0  0  0  0  0  0  0  0  0  0  0  0
  140.5770   76.6170  221.9320 N   0  0  0  0  0  0  0  0  0  0  0  0
  139.3700   76.9460  222.6500 C   0  0  0  0  0  0  0  0  0  0  0  0
  139.0530   78.3840  222.7150 C   0  0  0  0  0  0  0  0  0  0  0  0
  140.2260   79.2660  222.9050 C   0  0  0  0  0  0  0  0  0  0  0  0
  140.1160   80.4170  223.6740 C   0  0  0  0  0  0  0  0  0  0  0  0
  141.2290   81.2350  223.8400 C   0  0  0  0  0  0  0  0  0  0  0  0
  142.4020   80.8860  223.2450 C   0  0  0  0  0  0  0  0  0  0  0  0
  142.4890   79.7280  222.4770 C   0  0  0  0  0  0  0  0  0  0  0  0
  141.4030   78.8920  222.2910 C   0  0  0  0  0  0  0  0  0  0  0  0
  141.4510   77.6560  221.4870 C   0  0  0  0  0  0  0  0  0  0  0  0
  140.0350   74.2870  222.0990 N   0  0  0  0  0  0  0  0  0  0  0  0
  140.6890   71.5590  224.3630 C   0  0  0  0  0  0  0  0  0  0  0  0
  140.0156   69.7943  229.3949 H   0  0  0  0  0  0  0  0  0  0  0  0
  141.5592   71.6607  228.8584 H   0  0  0  0  0  0  0  0  0  0  0  0
  141.8473   72.4427  226.5493 H   0  0  0  0  0  0  0  0  0  0  0  0
  138.7259   68.6992  227.5277 H   0  0  0  0  0  0  0  0  0  0  0  0
  139.5099   68.6779  224.3211 H   0  0  0  0  0  0  0  0  0  0  0  0
  137.9848   68.8088  225.1910 H   0  0  0  0  0  0  0  0  0  0  0  0
  137.7534   70.2696  223.2159 H   0  0  0  0  0  0  0  0  0  0  0  0
  138.0315   71.3897  224.5542 H   0  0  0  0  0  0  0  0  0  0  0  0
  140.3060   70.1648  222.8436 H   0  0  0  0  0  0  0  0  0  0  0  0
  138.5170   71.8470  221.8230 H   0  0  0  0  0  0  0  0  0  0  0  0
  144.4310   73.5790  220.4730 H   0  0  0  0  0  0  0  0  0  0  0  0
  144.5222   72.7324  218.3582 H   0  0  0  0  0  0  0  0  0  0  0  0
  143.1668   71.6506  218.9403 H   0  0  0  0  0  0  0  0  0  0  0  0
  142.2638   72.5179  217.0735 H   0  0  0  0  0  0  0  0  0  0  0  0
  141.7190   73.6940  218.3684 H   0  0  0  0  0  0  0  0  0  0  0  0
  143.5770   74.0103  216.1100 H   0  0  0  0  0  0  0  0  0  0  0  0
  142.5519   76.2149  215.9437 H   0  0  0  0  0  0  0  0  0  0  0  0
  141.2284   75.1162  216.2040 H   0  0  0  0  0  0  0  0  0  0  0  0
  141.5082   77.1758  217.9331 H   0  0  0  0  0  0  0  0  0  0  0  0
  141.1957   75.6454  218.6838 H   0  0  0  0  0  0  0  0  0  0  0  0
  143.8088   77.1567  218.3532 H   0  0  0  0  0  0  0  0  0  0  0  0
  143.3571   76.0293  219.6541 H   0  0  0  0  0  0  0  0  0  0  0  0
  144.9610   75.4010  217.4760 H   0  0  0  0  0  0  0  0  0  0  0  0
  138.5303   76.4339  222.1574 H   0  0  0  0  0  0  0  0  0  0  0  0
  139.5332   76.6212  223.6882 H   0  0  0  0  0  0  0  0  0  0  0  0
  138.5583   78.6690  221.7748 H   0  0  0  0  0  0  0  0  0  0  0  0
  138.4129   78.5222  223.5988 H   0  0  0  0  0  0  0  0  0  0  0  0
  139.1583   80.6794  224.1472 H   0  0  0  0  0  0  0  0  0  0  0  0
  141.1617   82.1517  224.4442 H   0  0  0  0  0  0  0  0  0  0  0  0
  143.2889   81.5242  223.3719 H   0  0  0  0  0  0  0  0  0  0  0  0
  143.4486   79.4707  222.0048 H   0  0  0  0  0  0  0  0  0  0  0  0
  141.1804   77.9106  220.4516 H   0  0  0  0  0  0  0  0  0  0  0  0
  142.4738   77.2630  221.5844 H   0  0  0  0  0  0  0  0  0  0  0  0
  141.7247   71.3265  224.0743 H   0  0  0  0  0  0  0  0  0  0  0  0
  140.4856   72.6389  224.4129 H   0  0  0  0  0  0  0  0  0  0  0  0
  1  2  2  0
  2  3  1  0
  3  4  2  0
  4  5  1  0
  5  6  2  0
  5  7  1  0
  7  8  1  0
  8  9  1  0
  9 10  1  0
 10 11  1  0
 11 12  2  0
 12 13  1  0
 13 14  1  0
 14 15  1  0
 15 16  1  0
 16 17  1  0
 17 18  1  0
 18 19  1  0
 19 20  1  0
 20 21  1  0
 13 22  2  0
 22 23  1  0
 23 24  1  0
 24 25  1  0
 25 26  1  0
 26 27  1  0
 27 28  2  0
 28 29  1  0
 29 30  2  0
 30 31  1  0
 31 32  2  0
 32 33  1  0
 23 34  2  0
  9 35  1  0
  6  1  1  0
 34 11  1  0
 35  4  1  0
 21 17  1  0
 33 24  1  0
 32 27  1  0
  1 36  1  0
  2 37  1  0
  3 38  1  0
  6 39  1  0
  7 40  1  0
  7 41  1  0
  8 42  1  0
  8 43  1  0
  9 44  1  6
 10 45  1  0
 14 46  1  0
 15 47  1  0
 15 48  1  0
 16 49  1  0
 16 50  1  0
 17 51  1  6
 18 52  1  0
 18 53  1  0
 19 54  1  0
 19 55  1  0
 20 56  1  0
 20 57  1  0
 21 58  1  0
 25 59  1  0
 25 60  1  0
 26 61  1  0
 26 62  1  0
 28 63  1  0
 29 64  1  0
 30 65  1  0
 31 66  1  0
 33 67  1  0
 33 68  1  0
 35 69  1  0
 35 70  1  0
M  END
>  <smiles>  (163) 
c1ccc2c(c1)CCC(Nc1nc(NCCC3CCCN3)nc(N3CCc4ccccc4C3)n1)C2

>  <score_type>  (163) 
oracle

>  <origin>  (163) 
autodockgpu

>  <m_score__min__energy>  (163) 
-11.550000000000001

>  <m_primary>  (163) 
energy

>  <rmsd>  (163) 
11.306327507823003

>  <m_score__min__rmsd>  (163) 
11.306327507823003

>  <meeko>  (163) 
{"free_energy": -9.88, "intermolecular_energy": -11.97, "internal_energy": -1.52, "cluster_size": 31, "cluster_id": 1, "rank_in_cluster": 20}

>  <energy>  (163) 
-10.35

>  <cluster_rmsd>  (163) 
1.32

>  <cluster>  (163) 
1

$$$$

     RDKit          3D

 70 75  0  0  1  0  0  0  0  0999 V2000
  140.0390   68.5790  228.2130 C   0  0  0  0  0  0  0  0  0  0  0  0
  140.8590   69.6860  228.3260 C   0  0  0  0  0  0  0  0  0  0  0  0
  141.0750   70.5290  227.2630 C   0  0  0  0  0  0  0  0  0  0  0  0
  140.4740   70.2950  226.0450 C   0  0  0  0  0  0  0  0  0  0  0  0
  139.6570   69.1980  225.9240 C   0  0  0  0  0  0  0  0  0  0  0  0
  139.4200   68.3230  226.9870 C   0  0  0  0  0  0  0  0  0  0  0  0
  139.0210   68.9760  224.5850 C   0  0  0  0  0  0  0  0  0  0  0  0
  138.6370   70.3820  224.1050 C   0  0  0  0  0  0  0  0  0  0  0  0
  139.9410   71.0450  223.7200 C   0  0  1  0  0  0  0  0  0  0  0  0
  139.6380   72.2710  223.0310 N   0  0  0  0  0  0  0  0  0  0  0  0
  140.5730   73.0240  222.2780 C   0  0  0  0  0  0  0  0  0  0  0  0
  140.5000   74.3700  222.2650 N   0  0  0  0  0  0  0  0  0  0  0  0
  141.3560   75.1410  221.5750 C   0  0  0  0  0  0  0  0  0  0  0  0
  141.2730   76.5580  221.5670 N   0  0  0  0  0  0  0  0  0  0  0  0
  140.0190   77.2650  221.7410 C   0  0  0  0  0  0  0  0  0  0  0  0
  140.1740   78.6330  222.3140 C   0  0  0  0  0  0  0  0  0  0  0  0
  141.2770   79.4360  221.6950 C   0  0  1  0  0  0  0  0  0  0  0  0
  141.1790   80.9030  221.9630 C   0  0  0  0  0  0  0  0  0  0  0  0
  141.5840   80.9660  223.4370 C   0  0  0  0  0  0  0  0  0  0  0  0
  142.7220   79.9610  223.4470 C   0  0  0  0  0  0  0  0  0  0  0  0
  142.5100   79.0680  222.3480 N   0  0  0  0  0  0  0  0  0  0  0  0
  142.3140   74.5260  220.8780 N   0  0  0  0  0  0  0  0  0  0  0  0
  142.4040   73.1670  220.8780 C   0  0  0  0  0  0  0  0  0  0  0  0
  143.4450   72.5600  220.1160 N   0  0  0  0  0  0  0  0  0  0  0  0
  143.4450   71.1240  219.9870 C   0  0  0  0  0  0  0  0  0  0  0  0
  144.6390   70.5540  219.3360 C   0  0  0  0  0  0  0  0  0  0  0  0
  145.1580   71.3440  218.1980 C   0  0  0  0  0  0  0  0  0  0  0  0
  145.7090   70.7030  217.0970 C   0  0  0  0  0  0  0  0  0  0  0  0
  146.1930   71.4620  216.0370 C   0  0  0  0  0  0  0  0  0  0  0  0
  146.1130   72.8190  216.1040 C   0  0  0  0  0  0  0  0  0  0  0  0
  145.5570   73.4410  217.2180 C   0  0  0  0  0  0  0  0  0  0  0  0
  145.0670   72.7180  218.2900 C   0  0  0  0  0  0  0  0  0  0  0  0
  144.4690   73.3350  219.4900 C   0  0  0  0  0  0  0  0  0  0  0  0
  141.5430   72.4330  221.5710 N   0  0  0  0  0  0  0  0  0  0  0  0
  140.7570   71.2500  224.9520 C   0  0  0  0  0  0  0  0  0  0  0  0
  139.8768   67.9119  229.0725 H   0  0  0  0  0  0  0  0  0  0  0  0
  141.3492   69.8965  229.2880 H   0  0  0  0  0  0  0  0  0  0  0  0
  141.7350   71.4005  227.3853 H   0  0  0  0  0  0  0  0  0  0  0  0
  138.7605   67.4516  226.8614 H   0  0  0  0  0  0  0  0  0  0  0  0
  139.7329   68.5083  223.8890 H   0  0  0  0  0  0  0  0  0  0  0  0
  138.1540   68.3012  224.6401 H   0  0  0  0  0  0  0  0  0  0  0  0
  137.9647   70.3219  223.2365 H   0  0  0  0  0  0  0  0  0  0  0  0
  138.1040   70.9485  224.8828 H   0  0  0  0  0  0  0  0  0  0  0  0
  140.5368   70.4201  223.0384 H   0  0  0  0  0  0  0  0  0  0  0  0
  138.6400   72.6140  223.1070 H   0  0  0  0  0  0  0  0  0  0  0  0
  142.1250   77.1320  221.4350 H   0  0  0  0  0  0  0  0  0  0  0  0
  139.5316   77.3535  220.7589 H   0  0  0  0  0  0  0  0  0  0  0  0
  139.4200   76.6835  222.4573 H   0  0  0  0  0  0  0  0  0  0  0  0
  139.2286   79.1766  222.1699 H   0  0  0  0  0  0  0  0  0  0  0  0
  140.4336   78.5040  223.3751 H   0  0  0  0  0  0  0  0  0  0  0  0
  141.2225   79.2389  220.6142 H   0  0  0  0  0  0  0  0  0  0  0  0
  141.8730   81.4753  221.3299 H   0  0  0  0  0  0  0  0  0  0  0  0
  140.1904   81.3351  221.7485 H   0  0  0  0  0  0  0  0  0  0  0  0
  141.9262   81.9716  223.7227 H   0  0  0  0  0  0  0  0  0  0  0  0
  140.7725   80.7508  224.1478 H   0  0  0  0  0  0  0  0  0  0  0  0
  143.6844   80.4807  223.3297 H   0  0  0  0  0  0  0  0  0  0  0  0
  142.7465   79.4094  224.3984 H   0  0  0  0  0  0  0  0  0  0  0  0
  143.3130   78.9100  221.7260 H   0  0  0  0  0  0  0  0  0  0  0  0
  143.3675   70.6914  220.9954 H   0  0  0  0  0  0  0  0  0  0  0  0
  142.5935   70.8751  219.3366 H   0  0  0  0  0  0  0  0  0  0  0  0
  145.4358   70.4750  220.0902 H   0  0  0  0  0  0  0  0  0  0  0  0
  144.3343   69.5801  218.9253 H   0  0  0  0  0  0  0  0  0  0  0  0
  145.7623   69.6048  217.0632 H   0  0  0  0  0  0  0  0  0  0  0  0
  146.6344   70.9723  215.1565 H   0  0  0  0  0  0  0  0  0  0  0  0
  146.4910   73.4294  215.2706 H   0  0  0  0  0  0  0  0  0  0  0  0
  145.5059   74.5394  217.2465 H   0  0  0  0  0  0  0  0  0  0  0  0
  145.2705   73.5003  220.2251 H   0  0  0  0  0  0  0  0  0  0  0  0
  143.9898   74.2660  219.1529 H   0  0  0  0  0  0  0  0  0  0  0  0
  141.8186   71.1550  224.6799 H   0  0  0  0  0  0  0  0  0  0  0  0
  140.4969   72.2477  225.3352 H   0  0  0  0  0  0  0  0  0  0  0  0
  1  2  2  0
  2  3  1  0
  3  4  2  0
  4  5  1  0
  5  6  2  0
  5  7  1  0
  7  8  1  0
  8  9  1  0
  9 10  1  0
 10 11  1  0
 11 12  2  0
 12 13  1  0
 13 14  1  0
 14 15  1  0
 15 16  1  0
 16 17  1  0
 17 18  1  0
 18 19  1  0
 19 20  1  0
 20 21  1  0
 13 22  2  0
 22 23  1  0
 23 24  1  0
 24 25  1  0
 25 26  1  0
 26 27  1  0
 27 28  2  0
 28 29  1  0
 29 30  2  0
 30 31  1  0
 31 32  2  0
 32 33  1  0
 23 34  2  0
  9 35  1  0
  6  1  1  0
 34 11  1  0
 35  4  1  0
 21 17  1  0
 33 24  1  0
 32 27  1  0
  1 36  1  0
  2 37  1  0
  3 38  1  0
  6 39  1  0
  7 40  1  0
  7 41  1  0
  8 42  1  0
  8 43  1  0
  9 44  1  6
 10 45  1  0
 14 46  1  0
 15 47  1  0
 15 48  1  0
 16 49  1  0
 16 50  1  0
 17 51  1  6
 18 52  1  0
 18 53  1  0
 19 54  1  0
 19 55  1  0
 20 56  1  0
 20 57  1  0
 21 58  1  0
 25 59  1  0
 25 60  1  0
 26 61  1  0
 26 62  1  0
 28 63  1  0
 29 64  1  0
 30 65  1  0
 31 66  1  0
 33 67  1  0
 33 68  1  0
 35 69  1  0
 35 70  1  0
M  END
>  <smiles>  (164) 
c1ccc2c(c1)CCC(Nc1nc(NCCC3CCCN3)nc(N3CCc4ccccc4C3)n1)C2

>  <score_type>  (164) 
oracle

>  <origin>  (164) 
autodockgpu

>  <m_score__min__energy>  (164) 
-11.550000000000001

>  <m_primary>  (164) 
energy

>  <rmsd>  (164) 
11.942352230268275

>  <m_score__min__rmsd>  (164) 
11.942352230268275

>  <meeko>  (164) 
{"free_energy": -10.57, "intermolecular_energy": -12.66, "internal_energy": -1.45, "cluster_size": 11, "cluster_id": 2, "rank_in_cluster": 8}

>  <energy>  (164) 
-10.31

>  <cluster_rmsd>  (164) 
1.7

>  <cluster>  (164) 
1

$$$$

     RDKit          3D

 70 75  0  0  1  0  0  0  0  0999 V2000
  140.5000   68.4580  227.5860 C   0  0  0  0  0  0  0  0  0  0  0  0
  141.0370   69.7130  227.8000 C   0  0  0  0  0  0  0  0  0  0  0  0
  140.9930   70.6850  226.8310 C   0  0  0  0  0  0  0  0  0  0  0  0
  140.4080   70.4360  225.6080 C   0  0  0  0  0  0  0  0  0  0  0  0
  139.8720   69.1910  225.3870 C   0  0  0  0  0  0  0  0  0  0  0  0
  139.9020   68.1830  226.3530 C   0  0  0  0  0  0  0  0  0  0  0  0
  139.2440   68.9570  224.0460 C   0  0  0  0  0  0  0  0  0  0  0  0
  138.5130   70.2690  223.7300 C   0  0  0  0  0  0  0  0  0  0  0  0
  139.6010   71.2630  223.3910 C   0  0  1  0  0  0  0  0  0  0  0  0
  138.9800   72.4420  222.8460 N   0  0  0  0  0  0  0  0  0  0  0  0
  139.6390   73.3930  222.0280 C   0  0  0  0  0  0  0  0  0  0  0  0
  140.2560   72.9970  220.8970 N   0  0  0  0  0  0  0  0  0  0  0  0
  140.8960   73.8470  220.0780 C   0  0  0  0  0  0  0  0  0  0  0  0
  141.5430   73.4220  218.8890 N   0  0  0  0  0  0  0  0  0  0  0  0
  142.4980   72.3310  218.8690 C   0  0  0  0  0  0  0  0  0  0  0  0
  143.8650   72.7200  219.3210 C   0  0  0  0  0  0  0  0  0  0  0  0
  144.5310   71.7060  220.2010 C   0  0  1  0  0  0  0  0  0  0  0  0
  143.9690   70.3280  220.0680 C   0  0  0  0  0  0  0  0  0  0  0  0
  144.5160   69.9110  218.7020 C   0  0  0  0  0  0  0  0  0  0  0  0
  145.9220   70.4770  218.7890 C   0  0  0  0  0  0  0  0  0  0  0  0
  145.8890   71.5480  219.7390 N   0  0  0  0  0  0  0  0  0  0  0  0
  140.9090   75.1380  220.4190 N   0  0  0  0  0  0  0  0  0  0  0  0
  140.2920   75.5580  221.5570 C   0  0  0  0  0  0  0  0  0  0  0  0
  140.3360   76.9470  221.8750 N   0  0  0  0  0  0  0  0  0  0  0  0
  139.2020   77.5270  222.5530 C   0  0  0  0  0  0  0  0  0  0  0  0
  139.2410   78.9930  222.6940 C   0  0  0  0  0  0  0  0  0  0  0  0
  140.5770   79.5490  222.9980 C   0  0  0  0  0  0  0  0  0  0  0  0
  140.7010   80.6510  223.8330 C   0  0  0  0  0  0  0  0  0  0  0  0
  141.9670   81.1620  224.1060 C   0  0  0  0  0  0  0  0  0  0  0  0
  143.0550   80.5650  223.5480 C   0  0  0  0  0  0  0  0  0  0  0  0
  142.9070   79.4610  222.7130 C   0  0  0  0  0  0  0  0  0  0  0  0
  141.6660   78.9290  222.4200 C   0  0  0  0  0  0  0  0  0  0  0  0
  141.4620   77.7600  221.5420 C   0  0  0  0  0  0  0  0  0  0  0  0
  139.6670   74.6930  222.3460 N   0  0  0  0  0  0  0  0  0  0  0  0
  140.4020   71.5350  224.6190 C   0  0  0  0  0  0  0  0  0  0  0  0
  140.5424   67.6893  228.3717 H   0  0  0  0  0  0  0  0  0  0  0  0
  141.5099   69.9383  228.7673 H   0  0  0  0  0  0  0  0  0  0  0  0
  141.4298   71.6741  227.0332 H   0  0  0  0  0  0  0  0  0  0  0  0
  139.4648   67.1946  226.1481 H   0  0  0  0  0  0  0  0  0  0  0  0
  140.0129   68.7479  223.2877 H   0  0  0  0  0  0  0  0  0  0  0  0
  138.5666   68.0904  224.0468 H   0  0  0  0  0  0  0  0  0  0  0  0
  137.8340   70.1350  222.8750 H   0  0  0  0  0  0  0  0  0  0  0  0
  137.8977   70.6086  224.5762 H   0  0  0  0  0  0  0  0  0  0  0  0
  140.2963   70.8733  222.6329 H   0  0  0  0  0  0  0  0  0  0  0  0
  137.9610   72.5860  223.0880 H   0  0  0  0  0  0  0  0  0  0  0  0
  141.3420   73.8910  217.9870 H   0  0  0  0  0  0  0  0  0  0  0  0
  142.1278   71.5337  219.5302 H   0  0  0  0  0  0  0  0  0  0  0  0
  142.5875   72.0024  217.8231 H   0  0  0  0  0  0  0  0  0  0  0  0
  144.4933   72.8704  218.4307 H   0  0  0  0  0  0  0  0  0  0  0  0
  143.7519   73.6349  219.9212 H   0  0  0  0  0  0  0  0  0  0  0  0
  144.4065   72.0730  221.2305 H   0  0  0  0  0  0  0  0  0  0  0  0
  144.3337   69.6657  220.8669 H   0  0  0  0  0  0  0  0  0  0  0  0
  142.8730   70.2791  220.1481 H   0  0  0  0  0  0  0  0  0  0  0  0
  144.5241   68.8175  218.5833 H   0  0  0  0  0  0  0  0  0  0  0  0
  143.9287   70.2666  217.8426 H   0  0  0  0  0  0  0  0  0  0  0  0
  146.6221   69.6975  219.1240 H   0  0  0  0  0  0  0  0  0  0  0  0
  146.2596   70.8371  217.8060 H   0  0  0  0  0  0  0  0  0  0  0  0
  146.6090   71.5310  220.4720 H   0  0  0  0  0  0  0  0  0  0  0  0
  138.2957   77.2630  221.9883 H   0  0  0  0  0  0  0  0  0  0  0  0
  139.2153   77.1205  223.5750 H   0  0  0  0  0  0  0  0  0  0  0  0
  138.8915   79.4374  221.7504 H   0  0  0  0  0  0  0  0  0  0  0  0
  138.5990   79.2398  223.5525 H   0  0  0  0  0  0  0  0  0  0  0  0
  139.8074   81.1161  224.2748 H   0  0  0  0  0  0  0  0  0  0  0  0
  142.0860   82.0359  224.7634 H   0  0  0  0  0  0  0  0  0  0  0  0
  144.0605   80.9583  223.7586 H   0  0  0  0  0  0  0  0  0  0  0  0
  143.8036   78.9991  222.2740 H   0  0  0  0  0  0  0  0  0  0  0  0
  141.3277   78.1248  220.5130 H   0  0  0  0  0  0  0  0  0  0  0  0
  142.3500   77.1227  221.6656 H   0  0  0  0  0  0  0  0  0  0  0  0
  141.4413   71.7278  224.3146 H   0  0  0  0  0  0  0  0  0  0  0  0
  139.9295   72.3962  225.1140 H   0  0  0  0  0  0  0  0  0  0  0  0
  1  2  2  0
  2  3  1  0
  3  4  2  0
  4  5  1  0
  5  6  2  0
  5  7  1  0
  7  8  1  0
  8  9  1  0
  9 10  1  0
 10 11  1  0
 11 12  2  0
 12 13  1  0
 13 14  1  0
 14 15  1  0
 15 16  1  0
 16 17  1  0
 17 18  1  0
 18 19  1  0
 19 20  1  0
 20 21  1  0
 13 22  2  0
 22 23  1  0
 23 24  1  0
 24 25  1  0
 25 26  1  0
 26 27  1  0
 27 28  2  0
 28 29  1  0
 29 30  2  0
 30 31  1  0
 31 32  2  0
 32 33  1  0
 23 34  2  0
  9 35  1  0
  6  1  1  0
 34 11  1  0
 35  4  1  0
 21 17  1  0
 33 24  1  0
 32 27  1  0
  1 36  1  0
  2 37  1  0
  3 38  1  0
  6 39  1  0
  7 40  1  0
  7 41  1  0
  8 42  1  0
  8 43  1  0
  9 44  1  6
 10 45  1  0
 14 46  1  0
 15 47  1  0
 15 48  1  0
 16 49  1  0
 16 50  1  0
 17 51  1  1
 18 52  1  0
 18 53  1  0
 19 54  1  0
 19 55  1  0
 20 56  1  0
 20 57  1  0
 21 58  1  0
 25 59  1  0
 25 60  1  0
 26 61  1  0
 26 62  1  0
 28 63  1  0
 29 64  1  0
 30 65  1  0
 31 66  1  0
 33 67  1  0
 33 68  1  0
 35 69  1  0
 35 70  1  0
M  END
>  <smiles>  (165) 
c1ccc2c(c1)CCC(Nc1nc(NCCC3CCCN3)nc(N3CCc4ccccc4C3)n1)C2

>  <score_type>  (165) 
oracle

>  <origin>  (165) 
autodockgpu

>  <m_score__min__energy>  (165) 
-11.550000000000001

>  <m_primary>  (165) 
energy

>  <rmsd>  (165) 
11.79109019810575

>  <m_score__min__rmsd>  (165) 
11.79109019810575

>  <meeko>  (165) 
{"free_energy": -10.4, "intermolecular_energy": -12.49, "internal_energy": -0.94, "cluster_size": 31, "cluster_id": 1, "rank_in_cluster": 12}

>  <energy>  (165) 
-10.28

>  <cluster_rmsd>  (165) 
1.72

>  <cluster>  (165) 
1

$$$$

     RDKit          3D

 70 75  0  0  1  0  0  0  0  0999 V2000
  141.0090   69.7280  228.4940 C   0  0  0  0  0  0  0  0  0  0  0  0
  141.3110   71.0690  228.3470 C   0  0  0  0  0  0  0  0  0  0  0  0
  141.1230   71.7180  227.1520 C   0  0  0  0  0  0  0  0  0  0  0  0
  140.6240   71.0480  226.0560 C   0  0  0  0  0  0  0  0  0  0  0  0
  140.3210   69.7160  226.1940 C   0  0  0  0  0  0  0  0  0  0  0  0
  140.5010   69.0290  227.3960 C   0  0  0  0  0  0  0  0  0  0  0  0
  139.7790   69.0200  224.9810 C   0  0  0  0  0  0  0  0  0  0  0  0
  138.8380   70.0470  224.3370 C   0  0  0  0  0  0  0  0  0  0  0  0
  139.7430   71.0880  223.7170 C   0  0  1  0  0  0  0  0  0  0  0  0
  138.9400   71.9470  222.8870 N   0  0  0  0  0  0  0  0  0  0  0  0
  139.4590   72.9100  221.9850 C   0  0  0  0  0  0  0  0  0  0  0  0
  139.9280   72.5220  220.7830 N   0  0  0  0  0  0  0  0  0  0  0  0
  140.4310   73.3850  219.8840 C   0  0  0  0  0  0  0  0  0  0  0  0
  140.9230   72.9690  218.6190 N   0  0  0  0  0  0  0  0  0  0  0  0
  142.2860   73.2160  218.1930 C   0  0  0  0  0  0  0  0  0  0  0  0
  143.3090   72.4810  218.9900 C   0  0  0  0  0  0  0  0  0  0  0  0
  143.3700   72.8850  220.4320 C   0  0  1  0  0  0  0  0  0  0  0  0
  144.7050   72.6630  221.0650 C   0  0  0  0  0  0  0  0  0  0  0  0
  145.5290   73.7840  220.4290 C   0  0  0  0  0  0  0  0  0  0  0  0
  144.5170   74.9150  220.4610 C   0  0  0  0  0  0  0  0  0  0  0  0
  143.2150   74.3180  220.4950 N   0  0  0  0  0  0  0  0  0  0  0  0
  140.4570   74.6770  220.2170 N   0  0  0  0  0  0  0  0  0  0  0  0
  139.9880   75.0870  221.4280 C   0  0  0  0  0  0  0  0  0  0  0  0
  140.0400   76.4790  221.7340 N   0  0  0  0  0  0  0  0  0  0  0  0
  138.9340   77.0580  222.4580 C   0  0  0  0  0  0  0  0  0  0  0  0
  138.9720   78.5250  222.5880 C   0  0  0  0  0  0  0  0  0  0  0  0
  140.3180   79.0890  222.8280 C   0  0  0  0  0  0  0  0  0  0  0  0
  140.4740   80.1970  223.6500 C   0  0  0  0  0  0  0  0  0  0  0  0
  141.7470   80.7150  223.8630 C   0  0  0  0  0  0  0  0  0  0  0  0
  142.8130   80.1200  223.2620 C   0  0  0  0  0  0  0  0  0  0  0  0
  142.6330   79.0100  222.4410 C   0  0  0  0  0  0  0  0  0  0  0  0
  141.3820   78.4700  222.2070 C   0  0  0  0  0  0  0  0  0  0  0  0
  141.1460   77.2940  221.3460 C   0  0  0  0  0  0  0  0  0  0  0  0
  139.4970   74.2110  222.2940 N   0  0  0  0  0  0  0  0  0  0  0  0
  140.4510   71.8190  224.8070 C   0  0  0  0  0  0  0  0  0  0  0  0
  141.1657   69.2207  229.4574 H   0  0  0  0  0  0  0  0  0  0  0  0
  141.7105   71.6280  229.2060 H   0  0  0  0  0  0  0  0  0  0  0  0
  141.3737   72.7858  227.0683 H   0  0  0  0  0  0  0  0  0  0  0  0
  140.2486   67.9614  227.4768 H   0  0  0  0  0  0  0  0  0  0  0  0
  140.5924   68.7516  224.2908 H   0  0  0  0  0  0  0  0  0  0  0  0
  139.2641   68.0811  225.2326 H   0  0  0  0  0  0  0  0  0  0  0  0
  138.2165   69.5688  223.5656 H   0  0  0  0  0  0  0  0  0  0  0  0
  138.1501   70.4891  225.0728 H   0  0  0  0  0  0  0  0  0  0  0  0
  140.5155   70.6361  223.0774 H   0  0  0  0  0  0  0  0  0  0  0  0
  137.8920   71.8320  222.9740 H   0  0  0  0  0  0  0  0  0  0  0  0
  140.3040   72.4660  217.9560 H   0  0  0  0  0  0  0  0  0  0  0  0
  142.3811   72.9102  217.1407 H   0  0  0  0  0  0  0  0  0  0  0  0
  142.4773   74.2894  218.3390 H   0  0  0  0  0  0  0  0  0  0  0  0
  143.0774   71.4067  218.9421 H   0  0  0  0  0  0  0  0  0  0  0  0
  144.2876   72.7256  218.5512 H   0  0  0  0  0  0  0  0  0  0  0  0
  142.5991   72.2902  220.9437 H   0  0  0  0  0  0  0  0  0  0  0  0
  144.6550   72.7708  222.1586 H   0  0  0  0  0  0  0  0  0  0  0  0
  145.1169   71.6555  220.9059 H   0  0  0  0  0  0  0  0  0  0  0  0
  146.4229   74.0205  221.0248 H   0  0  0  0  0  0  0  0  0  0  0  0
  145.9295   73.5522  219.4311 H   0  0  0  0  0  0  0  0  0  0  0  0
  144.6714   75.5336  221.3574 H   0  0  0  0  0  0  0  0  0  0  0  0
  144.6268   75.5621  219.5783 H   0  0  0  0  0  0  0  0  0  0  0  0
  142.5720   74.6650  221.2170 H   0  0  0  0  0  0  0  0  0  0  0  0
  138.0050   76.7861  221.9356 H   0  0  0  0  0  0  0  0  0  0  0  0
  138.9944   76.6580  223.4809 H   0  0  0  0  0  0  0  0  0  0  0  0
  138.5781   78.9618  221.6584 H   0  0  0  0  0  0  0  0  0  0  0  0
  138.3681   78.7745  223.4729 H   0  0  0  0  0  0  0  0  0  0  0  0
  139.5988   80.6609  224.1284 H   0  0  0  0  0  0  0  0  0  0  0  0
  141.8902   81.5939  224.5087 H   0  0  0  0  0  0  0  0  0  0  0  0
  143.8248   80.5191  223.4261 H   0  0  0  0  0  0  0  0  0  0  0  0
  143.5112   78.5495  221.9649 H   0  0  0  0  0  0  0  0  0  0  0  0
  140.9649   77.6511  220.3215 H   0  0  0  0  0  0  0  0  0  0  0  0
  142.0418   76.6617  221.4339 H   0  0  0  0  0  0  0  0  0  0  0  0
  141.4479   72.1024  224.4383 H   0  0  0  0  0  0  0  0  0  0  0  0
  139.8215   72.6846  225.0607 H   0  0  0  0  0  0  0  0  0  0  0  0
  1  2  2  0
  2  3  1  0
  3  4  2  0
  4  5  1  0
  5  6  2  0
  5  7  1  0
  7  8  1  0
  8  9  1  0
  9 10  1  0
 10 11  1  0
 11 12  2  0
 12 13  1  0
 13 14  1  0
 14 15  1  0
 15 16  1  0
 16 17  1  0
 17 18  1  0
 18 19  1  0
 19 20  1  0
 20 21  1  0
 13 22  2  0
 22 23  1  0
 23 24  1  0
 24 25  1  0
 25 26  1  0
 26 27  1  0
 27 28  2  0
 28 29  1  0
 29 30  2  0
 30 31  1  0
 31 32  2  0
 32 33  1  0
 23 34  2  0
  9 35  1  0
  6  1  1  0
 34 11  1  0
 35  4  1  0
 21 17  1  0
 33 24  1  0
 32 27  1  0
  1 36  1  0
  2 37  1  0
  3 38  1  0
  6 39  1  0
  7 40  1  0
  7 41  1  0
  8 42  1  0
  8 43  1  0
  9 44  1  6
 10 45  1  0
 14 46  1  0
 15 47  1  0
 15 48  1  0
 16 49  1  0
 16 50  1  0
 17 51  1  1
 18 52  1  0
 18 53  1  0
 19 54  1  0
 19 55  1  0
 20 56  1  0
 20 57  1  0
 21 58  1  0
 25 59  1  0
 25 60  1  0
 26 61  1  0
 26 62  1  0
 28 63  1  0
 29 64  1  0
 30 65  1  0
 31 66  1  0
 33 67  1  0
 33 68  1  0
 35 69  1  0
 35 70  1  0
M  END
>  <smiles>  (166) 
c1ccc2c(c1)CCC(Nc1nc(NCCC3CCCN3)nc(N3CCc4ccccc4C3)n1)C2

>  <score_type>  (166) 
oracle

>  <origin>  (166) 
autodockgpu

>  <m_score__min__energy>  (166) 
-11.550000000000001

>  <m_primary>  (166) 
energy

>  <rmsd>  (166) 
11.552313585201894

>  <m_score__min__rmsd>  (166) 
11.552313585201894

>  <meeko>  (166) 
{"free_energy": -9.81, "intermolecular_energy": -11.9, "internal_energy": -1.84, "cluster_size": 31, "cluster_id": 1, "rank_in_cluster": 22}

>  <energy>  (166) 
-10.25

>  <cluster_rmsd>  (166) 
0.77

>  <cluster>  (166) 
1

$$$$

     RDKit          3D

 70 75  0  0  1  0  0  0  0  0999 V2000
  140.0990   68.9610  228.5010 C   0  0  0  0  0  0  0  0  0  0  0  0
  141.1010   69.9010  228.3440 C   0  0  0  0  0  0  0  0  0  0  0  0
  141.2480   70.6000  227.1720 C   0  0  0  0  0  0  0  0  0  0  0  0
  140.3960   70.3860  226.1100 C   0  0  0  0  0  0  0  0  0  0  0  0
  139.3980   69.4550  226.2580 C   0  0  0  0  0  0  0  0  0  0  0  0
  139.2230   68.7280  227.4380 C   0  0  0  0  0  0  0  0  0  0  0  0
  138.4900   69.2490  225.0820 C   0  0  0  0  0  0  0  0  0  0  0  0
  138.2640   70.6580  224.5200 C   0  0  0  0  0  0  0  0  0  0  0  0
  139.5630   71.0330  223.8430 C   0  0  1  0  0  0  0  0  0  0  0  0
  139.3450   72.2350  223.0830 N   0  0  0  0  0  0  0  0  0  0  0  0
  140.3350   72.8860  222.3050 C   0  0  0  0  0  0  0  0  0  0  0  0
  140.3670   74.2320  222.2440 N   0  0  0  0  0  0  0  0  0  0  0  0
  141.2790   74.9090  221.5270 C   0  0  0  0  0  0  0  0  0  0  0  0
  141.3050   76.3270  221.4690 N   0  0  0  0  0  0  0  0  0  0  0  0
  140.1020   77.1320  221.5340 C   0  0  0  0  0  0  0  0  0  0  0  0
  140.3610   78.5860  221.7360 C   0  0  0  0  0  0  0  0  0  0  0  0
  140.4580   78.9990  223.1730 C   0  0  1  0  0  0  0  0  0  0  0  0
  141.7870   78.7150  223.7940 C   0  0  0  0  0  0  0  0  0  0  0  0
  142.6600   79.7860  223.1380 C   0  0  0  0  0  0  0  0  0  0  0  0
  141.7070   80.9680  223.1700 C   0  0  0  0  0  0  0  0  0  0  0  0
  140.3770   80.4390  223.2240 N   0  0  0  0  0  0  0  0  0  0  0  0
  142.1850   74.1970  220.8530 N   0  0  0  0  0  0  0  0  0  0  0  0
  142.1690   72.8360  220.9020 C   0  0  0  0  0  0  0  0  0  0  0  0
  143.1590   72.1240  220.1640 N   0  0  0  0  0  0  0  0  0  0  0  0
  144.4780   72.6980  220.0640 C   0  0  0  0  0  0  0  0  0  0  0  0
  145.3970   72.0000  219.1470 C   0  0  0  0  0  0  0  0  0  0  0  0
  145.2930   70.5240  219.1740 C   0  0  0  0  0  0  0  0  0  0  0  0
  146.4270   69.7410  219.0100 C   0  0  0  0  0  0  0  0  0  0  0  0
  146.3090   68.3550  219.0370 C   0  0  0  0  0  0  0  0  0  0  0  0
  145.0820   67.7990  219.2260 C   0  0  0  0  0  0  0  0  0  0  0  0
  143.9570   68.6030  219.3880 C   0  0  0  0  0  0  0  0  0  0  0  0
  144.0380   69.9830  219.3660 C   0  0  0  0  0  0  0  0  0  0  0  0
  142.8730   70.8740  219.5330 C   0  0  0  0  0  0  0  0  0  0  0  0
  141.2550   72.1970  221.6200 N   0  0  0  0  0  0  0  0  0  0  0  0
  140.6220   71.1800  224.8840 C   0  0  0  0  0  0  0  0  0  0  0  0
  139.9936   68.4070  229.4454 H   0  0  0  0  0  0  0  0  0  0  0  0
  141.7948   70.0925  229.1758 H   0  0  0  0  0  0  0  0  0  0  0  0
  142.0561   71.3405  227.0791 H   0  0  0  0  0  0  0  0  0  0  0  0
  138.4136   67.9886  227.5281 H   0  0  0  0  0  0  0  0  0  0  0  0
  138.9673   68.6027  224.3307 H   0  0  0  0  0  0  0  0  0  0  0  0
  137.5483   68.7544  225.3622 H   0  0  0  0  0  0  0  0  0  0  0  0
  137.4382   70.6547  223.7934 H   0  0  0  0  0  0  0  0  0  0  0  0
  137.9920   71.3745  225.3091 H   0  0  0  0  0  0  0  0  0  0  0  0
  139.9041   70.2555  223.1436 H   0  0  0  0  0  0  0  0  0  0  0  0
  138.3700   72.6420  223.1240 H   0  0  0  0  0  0  0  0  0  0  0  0
  142.2070   76.8310  221.3760 H   0  0  0  0  0  0  0  0  0  0  0  0
  139.5491   77.0059  220.5915 H   0  0  0  0  0  0  0  0  0  0  0  0
  139.5307   76.7841  222.4072 H   0  0  0  0  0  0  0  0  0  0  0  0
  141.3092   78.8397  221.2394 H   0  0  0  0  0  0  0  0  0  0  0  0
  139.5001   79.1224  221.3105 H   0  0  0  0  0  0  0  0  0  0  0  0
  139.6634   78.4489  223.6983 H   0  0  0  0  0  0  0  0  0  0  0  0
  141.7548   78.8357  224.8869 H   0  0  0  0  0  0  0  0  0  0  0  0
  142.1450   77.6862  223.6407 H   0  0  0  0  0  0  0  0  0  0  0  0
  143.5716   79.9820  223.7216 H   0  0  0  0  0  0  0  0  0  0  0  0
  143.0369   79.5247  222.1382 H   0  0  0  0  0  0  0  0  0  0  0  0
  141.9030   81.5861  224.0586 H   0  0  0  0  0  0  0  0  0  0  0  0
  141.8396   81.6005  222.2798 H   0  0  0  0  0  0  0  0  0  0  0  0
  139.7610   80.8250  223.9500 H   0  0  0  0  0  0  0  0  0  0  0  0
  144.3722   73.7359  219.7153 H   0  0  0  0  0  0  0  0  0  0  0  0
  144.9243   72.6151  221.0660 H   0  0  0  0  0  0  0  0  0  0  0  0
  145.1834   72.3401  218.1229 H   0  0  0  0  0  0  0  0  0  0  0  0
  146.4159   72.2463  219.4805 H   0  0  0  0  0  0  0  0  0  0  0  0
  147.4098   70.2117  218.8601 H   0  0  0  0  0  0  0  0  0  0  0  0
  147.1959   67.7174  218.9073 H   0  0  0  0  0  0  0  0  0  0  0  0
  144.9777   66.7042  219.2511 H   0  0  0  0  0  0  0  0  0  0  0  0
  142.9766   68.1271  219.5376 H   0  0  0  0  0  0  0  0  0  0  0  0
  142.4555   71.0814  218.5367 H   0  0  0  0  0  0  0  0  0  0  0  0
  142.1723   70.3459  220.1964 H   0  0  0  0  0  0  0  0  0  0  0  0
  141.5805   70.8668  224.4446 H   0  0  0  0  0  0  0  0  0  0  0  0
  140.6119   72.2362  225.1911 H   0  0  0  0  0  0  0  0  0  0  0  0
  1  2  2  0
  2  3  1  0
  3  4  2  0
  4  5  1  0
  5  6  2  0
  5  7  1  0
  7  8  1  0
  8  9  1  0
  9 10  1  0
 10 11  1  0
 11 12  2  0
 12 13  1  0
 13 14  1  0
 14 15  1  0
 15 16  1  0
 16 17  1  0
 17 18  1  0
 18 19  1  0
 19 20  1  0
 20 21  1  0
 13 22  2  0
 22 23  1  0
 23 24  1  0
 24 25  1  0
 25 26  1  0
 26 27  1  0
 27 28  2  0
 28 29  1  0
 29 30  2  0
 30 31  1  0
 31 32  2  0
 32 33  1  0
 23 34  2  0
  9 35  1  0
  6  1  1  0
 34 11  1  0
 35  4  1  0
 21 17  1  0
 33 24  1  0
 32 27  1  0
  1 36  1  0
  2 37  1  0
  3 38  1  0
  6 39  1  0
  7 40  1  0
  7 41  1  0
  8 42  1  0
  8 43  1  0
  9 44  1  6
 10 45  1  0
 14 46  1  0
 15 47  1  0
 15 48  1  0
 16 49  1  0
 16 50  1  0
 17 51  1  1
 18 52  1  0
 18 53  1  0
 19 54  1  0
 19 55  1  0
 20 56  1  0
 20 57  1  0
 21 58  1  0
 25 59  1  0
 25 60  1  0
 26 61  1  0
 26 62  1  0
 28 63  1  0
 29 64  1  0
 30 65  1  0
 31 66  1  0
 33 67  1  0
 33 68  1  0
 35 69  1  0
 35 70  1  0
M  END
>  <smiles>  (167) 
c1ccc2c(c1)CCC(Nc1nc(NCCC3CCCN3)nc(N3CCc4ccccc4C3)n1)C2

>  <score_type>  (167) 
oracle

>  <origin>  (167) 
autodockgpu

>  <m_score__min__energy>  (167) 
-11.550000000000001

>  <m_primary>  (167) 
energy

>  <rmsd>  (167) 
11.887861196861095

>  <m_score__min__rmsd>  (167) 
11.887861196861095

>  <meeko>  (167) 
{"free_energy": -10.91, "intermolecular_energy": -13.0, "internal_energy": -0.93, "cluster_size": 11, "cluster_id": 2, "rank_in_cluster": 6}

>  <energy>  (167) 
-10.2

>  <cluster_rmsd>  (167) 
0.98

>  <cluster>  (167) 
1

$$$$

     RDKit          3D

 70 75  0  0  1  0  0  0  0  0999 V2000
  140.0750   68.7980  228.4490 C   0  0  0  0  0  0  0  0  0  0  0  0
  141.0810   69.7380  228.3240 C   0  0  0  0  0  0  0  0  0  0  0  0
  141.2500   70.4570  227.1670 C   0  0  0  0  0  0  0  0  0  0  0  0
  140.4140   70.2630  226.0880 C   0  0  0  0  0  0  0  0  0  0  0  0
  139.4120   69.3310  226.2030 C   0  0  0  0  0  0  0  0  0  0  0  0
  139.2160   68.5850  227.3670 C   0  0  0  0  0  0  0  0  0  0  0  0
  138.5240   69.1480  225.0090 C   0  0  0  0  0  0  0  0  0  0  0  0
  138.3100   70.5670  224.4670 C   0  0  0  0  0  0  0  0  0  0  0  0
  139.6210   70.9500  223.8190 C   0  0  1  0  0  0  0  0  0  0  0  0
  139.4190   72.1660  223.0750 N   0  0  0  0  0  0  0  0  0  0  0  0
  140.4210   72.8230  222.3190 C   0  0  0  0  0  0  0  0  0  0  0  0
  140.4710   74.1700  222.2930 N   0  0  0  0  0  0  0  0  0  0  0  0
  141.3950   74.8530  221.5980 C   0  0  0  0  0  0  0  0  0  0  0  0
  141.4410   76.2710  221.5770 N   0  0  0  0  0  0  0  0  0  0  0  0
  141.4240   77.0330  220.3440 C   0  0  0  0  0  0  0  0  0  0  0  0
  141.1120   78.4780  220.5340 C   0  0  0  0  0  0  0  0  0  0  0  0
  140.7470   78.8480  221.9390 C   0  0  1  0  0  0  0  0  0  0  0  0
  141.9230   79.0080  222.8460 C   0  0  0  0  0  0  0  0  0  0  0  0
  142.5040   80.3340  222.3540 C   0  0  0  0  0  0  0  0  0  0  0  0
  141.2260   81.1220  222.1280 C   0  0  0  0  0  0  0  0  0  0  0  0
  140.1760   80.1730  221.9110 N   0  0  0  0  0  0  0  0  0  0  0  0
  142.2950   74.1460  220.9090 N   0  0  0  0  0  0  0  0  0  0  0  0
  142.2600   72.7850  220.9220 C   0  0  0  0  0  0  0  0  0  0  0  0
  143.2430   72.0780  220.1690 N   0  0  0  0  0  0  0  0  0  0  0  0
  144.5780   72.6220  220.1130 C   0  0  0  0  0  0  0  0  0  0  0  0
  145.4930   71.9390  219.1810 C   0  0  0  0  0  0  0  0  0  0  0  0
  145.3510   70.4670  219.1450 C   0  0  0  0  0  0  0  0  0  0  0  0
  146.4670   69.6620  218.9650 C   0  0  0  0  0  0  0  0  0  0  0  0
  146.3140   68.2790  218.9320 C   0  0  0  0  0  0  0  0  0  0  0  0
  145.0700   67.7480  219.0790 C   0  0  0  0  0  0  0  0  0  0  0  0
  143.9640   68.5740  219.2570 C   0  0  0  0  0  0  0  0  0  0  0  0
  144.0800   69.9510  219.2950 C   0  0  0  0  0  0  0  0  0  0  0  0
  142.9350   70.8640  219.4830 C   0  0  0  0  0  0  0  0  0  0  0  0
  141.3340   72.1390  221.6190 N   0  0  0  0  0  0  0  0  0  0  0  0
  140.6630   71.0770  224.8790 C   0  0  0  0  0  0  0  0  0  0  0  0
  139.9528   68.2285  229.3822 H   0  0  0  0  0  0  0  0  0  0  0  0
  141.7611   69.9136  229.1705 H   0  0  0  0  0  0  0  0  0  0  0  0
  142.0617   71.1964  227.1000 H   0  0  0  0  0  0  0  0  0  0  0  0
  138.4036   67.8461  227.4311 H   0  0  0  0  0  0  0  0  0  0  0  0
  139.0126   68.5135  224.2549 H   0  0  0  0  0  0  0  0  0  0  0  0
  137.5766   68.6512  225.2651 H   0  0  0  0  0  0  0  0  0  0  0  0
  137.4968   70.5777  223.7263 H   0  0  0  0  0  0  0  0  0  0  0  0
  138.0256   71.2709  225.2630 H   0  0  0  0  0  0  0  0  0  0  0  0
  139.9716   70.1828  223.1129 H   0  0  0  0  0  0  0  0  0  0  0  0
  138.4460   72.5780  223.1130 H   0  0  0  0  0  0  0  0  0  0  0  0
  141.4890   76.8070  222.4630 H   0  0  0  0  0  0  0  0  0  0  0  0
  142.4142   76.9512  219.8721 H   0  0  0  0  0  0  0  0  0  0  0  0
  140.6233   76.6120  219.7183 H   0  0  0  0  0  0  0  0  0  0  0  0
  141.9965   79.0632  220.2419 H   0  0  0  0  0  0  0  0  0  0  0  0
  140.2320   78.6959  219.9111 H   0  0  0  0  0  0  0  0  0  0  0  0
  140.0902   78.0433  222.3010 H   0  0  0  0  0  0  0  0  0  0  0  0
  141.6131   79.0706  223.8996 H   0  0  0  0  0  0  0  0  0  0  0  0
  142.6319   78.1674  222.8163 H   0  0  0  0  0  0  0  0  0  0  0  0
  143.1438   80.8053  223.1146 H   0  0  0  0  0  0  0  0  0  0  0  0
  143.1568   80.2522  221.4724 H   0  0  0  0  0  0  0  0  0  0  0  0
  141.0013   81.7371  223.0118 H   0  0  0  0  0  0  0  0  0  0  0  0
  141.3295   81.7942  221.2635 H   0  0  0  0  0  0  0  0  0  0  0  0
  139.3220   80.3020  222.4680 H   0  0  0  0  0  0  0  0  0  0  0  0
  144.5039   73.6759  219.8068 H   0  0  0  0  0  0  0  0  0  0  0  0
  145.0063   72.4865  221.1171 H   0  0  0  0  0  0  0  0  0  0  0  0
  145.3039   72.3266  218.1691 H   0  0  0  0  0  0  0  0  0  0  0  0
  146.5126   72.1448  219.5389 H   0  0  0  0  0  0  0  0  0  0  0  0
  147.4636   70.1129  218.8494 H   0  0  0  0  0  0  0  0  0  0  0  0
  147.1865   67.6245  218.7891 H   0  0  0  0  0  0  0  0  0  0  0  0
  144.9372   66.6563  219.0570 H   0  0  0  0  0  0  0  0  0  0  0  0
  142.9694   68.1182  219.3707 H   0  0  0  0  0  0  0  0  0  0  0  0
  142.5376   71.1232  218.4906 H   0  0  0  0  0  0  0  0  0  0  0  0
  142.2114   70.3270  220.1139 H   0  0  0  0  0  0  0  0  0  0  0  0
  141.6278   70.7683  224.4503 H   0  0  0  0  0  0  0  0  0  0  0  0
  140.6512   72.1281  225.2032 H   0  0  0  0  0  0  0  0  0  0  0  0
  1  2  2  0
  2  3  1  0
  3  4  2  0
  4  5  1  0
  5  6  2  0
  5  7  1  0
  7  8  1  0
  8  9  1  0
  9 10  1  0
 10 11  1  0
 11 12  2  0
 12 13  1  0
 13 14  1  0
 14 15  1  0
 15 16  1  0
 16 17  1  0
 17 18  1  0
 18 19  1  0
 19 20  1  0
 20 21  1  0
 13 22  2  0
 22 23  1  0
 23 24  1  0
 24 25  1  0
 25 26  1  0
 26 27  1  0
 27 28  2  0
 28 29  1  0
 29 30  2  0
 30 31  1  0
 31 32  2  0
 32 33  1  0
 23 34  2  0
  9 35  1  0
  6  1  1  0
 34 11  1  0
 35  4  1  0
 21 17  1  0
 33 24  1  0
 32 27  1  0
  1 36  1  0
  2 37  1  0
  3 38  1  0
  6 39  1  0
  7 40  1  0
  7 41  1  0
  8 42  1  0
  8 43  1  0
  9 44  1  6
 10 45  1  0
 14 46  1  0
 15 47  1  0
 15 48  1  0
 16 49  1  0
 16 50  1  0
 17 51  1  1
 18 52  1  0
 18 53  1  0
 19 54  1  0
 19 55  1  0
 20 56  1  0
 20 57  1  0
 21 58  1  0
 25 59  1  0
 25 60  1  0
 26 61  1  0
 26 62  1  0
 28 63  1  0
 29 64  1  0
 30 65  1  0
 31 66  1  0
 33 67  1  0
 33 68  1  0
 35 69  1  0
 35 70  1  0
M  END
>  <smiles>  (168) 
c1ccc2c(c1)CCC(Nc1nc(NCCC3CCCN3)nc(N3CCc4ccccc4C3)n1)C2

>  <score_type>  (168) 
oracle

>  <origin>  (168) 
autodockgpu

>  <m_score__min__energy>  (168) 
-11.550000000000001

>  <m_primary>  (168) 
energy

>  <rmsd>  (168) 
11.972481806173372

>  <m_score__min__rmsd>  (168) 
11.972481806173372

>  <meeko>  (168) 
{"free_energy": -10.06, "intermolecular_energy": -12.15, "internal_energy": -0.83, "cluster_size": 11, "cluster_id": 2, "rank_in_cluster": 11}

>  <energy>  (168) 
-10.11

>  <cluster_rmsd>  (168) 
1.07

>  <cluster>  (168) 
1

$$$$

     RDKit          3D

 70 75  0  0  1  0  0  0  0  0999 V2000
  140.3900   68.8130  228.2480 C   0  0  0  0  0  0  0  0  0  0  0  0
  141.0010   70.0490  228.3380 C   0  0  0  0  0  0  0  0  0  0  0  0
  141.0610   70.8980  227.2600 C   0  0  0  0  0  0  0  0  0  0  0  0
  140.5080   70.5400  226.0490 C   0  0  0  0  0  0  0  0  0  0  0  0
  139.8990   69.3140  225.9520 C   0  0  0  0  0  0  0  0  0  0  0  0
  139.8230   68.4300  227.0300 C   0  0  0  0  0  0  0  0  0  0  0  0
  139.3090   68.9590  224.6190 C   0  0  0  0  0  0  0  0  0  0  0  0
  138.6810   70.2660  224.1180 C   0  0  0  0  0  0  0  0  0  0  0  0
  139.8450   71.1430  223.7150 C   0  0  1  0  0  0  0  0  0  0  0  0
  139.3270   72.2840  223.0080 N   0  0  0  0  0  0  0  0  0  0  0  0
  140.0590   73.0460  222.0620 C   0  0  0  0  0  0  0  0  0  0  0  0
  140.5820   72.4460  220.9750 N   0  0  0  0  0  0  0  0  0  0  0  0
  141.2840   73.1100  220.0420 C   0  0  0  0  0  0  0  0  0  0  0  0
  141.8320   72.4710  218.8990 N   0  0  0  0  0  0  0  0  0  0  0  0
  142.8630   71.4570  218.9920 C   0  0  0  0  0  0  0  0  0  0  0  0
  144.0900   71.9110  219.7070 C   0  0  0  0  0  0  0  0  0  0  0  0
  144.5120   73.3110  219.3760 C   0  0  1  0  0  0  0  0  0  0  0  0
  144.4630   74.2470  220.5400 C   0  0  0  0  0  0  0  0  0  0  0  0
  145.6720   73.7790  221.3520 C   0  0  0  0  0  0  0  0  0  0  0  0
  146.6680   73.5290  220.2340 C   0  0  0  0  0  0  0  0  0  0  0  0
  145.9150   73.2800  219.0420 N   0  0  0  0  0  0  0  0  0  0  0  0
  141.4580   74.4220  220.2200 N   0  0  0  0  0  0  0  0  0  0  0  0
  140.9380   75.0450  221.3130 C   0  0  0  0  0  0  0  0  0  0  0  0
  141.1540   76.4470  221.4560 N   0  0  0  0  0  0  0  0  0  0  0  0
  141.4680   77.2110  220.2730 C   0  0  0  0  0  0  0  0  0  0  0  0
  141.8470   78.6150  220.5180 C   0  0  0  0  0  0  0  0  0  0  0  0
  141.0700   79.2880  221.5820 C   0  0  0  0  0  0  0  0  0  0  0  0
  140.7500   80.6340  221.4670 C   0  0  0  0  0  0  0  0  0  0  0  0
  140.0210   81.2500  222.4790 C   0  0  0  0  0  0  0  0  0  0  0  0
  139.6350   80.5160  223.5580 C   0  0  0  0  0  0  0  0  0  0  0  0
  139.9670   79.1680  223.6520 C   0  0  0  0  0  0  0  0  0  0  0  0
  140.6920   78.5230  222.6670 C   0  0  0  0  0  0  0  0  0  0  0  0
  141.0650   77.0970  222.7250 C   0  0  0  0  0  0  0  0  0  0  0  0
  140.2490   74.3610  222.2170 N   0  0  0  0  0  0  0  0  0  0  0  0
  140.6150   71.5110  224.9390 C   0  0  0  0  0  0  0  0  0  0  0  0
  140.3507   68.1429  229.1194 H   0  0  0  0  0  0  0  0  0  0  0  0
  141.4490   70.3597  229.2934 H   0  0  0  0  0  0  0  0  0  0  0  0
  141.5560   71.8748  227.3641 H   0  0  0  0  0  0  0  0  0  0  0  0
  139.3277   67.4537  226.9227 H   0  0  0  0  0  0  0  0  0  0  0  0
  140.0910   68.6129  223.9272 H   0  0  0  0  0  0  0  0  0  0  0  0
  138.5757   68.1422  224.6898 H   0  0  0  0  0  0  0  0  0  0  0  0
  138.0278   70.0727  223.2543 H   0  0  0  0  0  0  0  0  0  0  0  0
  138.0582   70.7423  224.8895 H   0  0  0  0  0  0  0  0  0  0  0  0
  140.5404   70.6222  223.0404 H   0  0  0  0  0  0  0  0  0  0  0  0
  138.3280   72.5530  223.2260 H   0  0  0  0  0  0  0  0  0  0  0  0
  141.4980   72.7200  217.9500 H   0  0  0  0  0  0  0  0  0  0  0  0
  142.4497   70.5902  219.5284 H   0  0  0  0  0  0  0  0  0  0  0  0
  143.1641   71.2106  217.9631 H   0  0  0  0  0  0  0  0  0  0  0  0
  143.8994   71.8549  220.7889 H   0  0  0  0  0  0  0  0  0  0  0  0
  144.9073   71.2498  219.3832 H   0  0  0  0  0  0  0  0  0  0  0  0
  143.8313   73.6512  218.5817 H   0  0  0  0  0  0  0  0  0  0  0  0
  144.5735   75.2936  220.2200 H   0  0  0  0  0  0  0  0  0  0  0  0
  143.5131   74.2272  221.0943 H   0  0  0  0  0  0  0  0  0  0  0  0
  146.0239   74.5582  222.0441 H   0  0  0  0  0  0  0  0  0  0  0  0
  145.4826   72.9126  222.0027 H   0  0  0  0  0  0  0  0  0  0  0  0
  147.3095   74.4120  220.0967 H   0  0  0  0  0  0  0  0  0  0  0  0
  147.3149   72.6719  220.4726 H   0  0  0  0  0  0  0  0  0  0  0  0
  146.1860   73.8180  218.2100 H   0  0  0  0  0  0  0  0  0  0  0  0
  142.3060   76.7162  219.7601 H   0  0  0  0  0  0  0  0  0  0  0  0
  140.5456   77.2424  219.6745 H   0  0  0  0  0  0  0  0  0  0  0  0
  142.9094   78.6386  220.8023 H   0  0  0  0  0  0  0  0  0  0  0  0
  141.6363   79.1609  219.5866 H   0  0  0  0  0  0  0  0  0  0  0  0
  141.0697   81.2076  220.5845 H   0  0  0  0  0  0  0  0  0  0  0  0
  139.7600   82.3162  222.4080 H   0  0  0  0  0  0  0  0  0  0  0  0
  139.0556   80.9924  224.3626 H   0  0  0  0  0  0  0  0  0  0  0  0
  139.6432   78.5988  224.5358 H   0  0  0  0  0  0  0  0  0  0  0  0
  142.0453   77.0199  223.2180 H   0  0  0  0  0  0  0  0  0  0  0  0
  140.2596   76.5894  223.2761 H   0  0  0  0  0  0  0  0  0  0  0  0
  141.6760   71.6007  224.6628 H   0  0  0  0  0  0  0  0  0  0  0  0
  140.1836   72.4536  225.3069 H   0  0  0  0  0  0  0  0  0  0  0  0
  1  2  2  0
  2  3  1  0
  3  4  2  0
  4  5  1  0
  5  6  2  0
  5  7  1  0
  7  8  1  0
  8  9  1  0
  9 10  1  0
 10 11  1  0
 11 12  2  0
 12 13  1  0
 13 14  1  0
 14 15  1  0
 15 16  1  0
 16 17  1  0
 17 18  1  0
 18 19  1  0
 19 20  1  0
 20 21  1  0
 13 22  2  0
 22 23  1  0
 23 24  1  0
 24 25  1  0
 25 26  1  0
 26 27  1  0
 27 28  2  0
 28 29  1  0
 29 30  2  0
 30 31  1  0
 31 32  2  0
 32 33  1  0
 23 34  2  0
  9 35  1  0
  6  1  1  0
 34 11  1  0
 35  4  1  0
 21 17  1  0
 33 24  1  0
 32 27  1  0
  1 36  1  0
  2 37  1  0
  3 38  1  0
  6 39  1  0
  7 40  1  0
  7 41  1  0
  8 42  1  0
  8 43  1  0
  9 44  1  6
 10 45  1  0
 14 46  1  0
 15 47  1  0
 15 48  1  0
 16 49  1  0
 16 50  1  0
 17 51  1  6
 18 52  1  0
 18 53  1  0
 19 54  1  0
 19 55  1  0
 20 56  1  0
 20 57  1  0
 21 58  1  0
 25 59  1  0
 25 60  1  0
 26 61  1  0
 26 62  1  0
 28 63  1  0
 29 64  1  0
 30 65  1  0
 31 66  1  0
 33 67  1  0
 33 68  1  0
 35 69  1  0
 35 70  1  0
M  END
>  <smiles>  (169) 
c1ccc2c(c1)CCC(Nc1nc(NCCC3CCCN3)nc(N3CCc4ccccc4C3)n1)C2

>  <score_type>  (169) 
oracle

>  <origin>  (169) 
autodockgpu

>  <m_score__min__energy>  (169) 
-11.550000000000001

>  <m_primary>  (169) 
energy

>  <rmsd>  (169) 
11.824191502860327

>  <m_score__min__rmsd>  (169) 
11.824191502860327

>  <meeko>  (169) 
{"free_energy": -10.98, "intermolecular_energy": -13.07, "internal_energy": -1.3, "cluster_size": 31, "cluster_id": 1, "rank_in_cluster": 4}

>  <energy>  (169) 
-9.92

>  <cluster_rmsd>  (169) 
1.65

>  <cluster>  (169) 
1

$$$$

     RDKit          3D

 70 75  0  0  1  0  0  0  0  0999 V2000
  140.2270   69.3780  228.3810 C   0  0  0  0  0  0  0  0  0  0  0  0
  140.9500   70.5500  228.2560 C   0  0  0  0  0  0  0  0  0  0  0  0
  141.0400   71.2110  227.0560 C   0  0  0  0  0  0  0  0  0  0  0  0
  140.4070   70.7240  225.9330 C   0  0  0  0  0  0  0  0  0  0  0  0
  139.6860   69.5610  226.0480 C   0  0  0  0  0  0  0  0  0  0  0  0
  139.5770   68.8660  227.2550 C   0  0  0  0  0  0  0  0  0  0  0  0
  139.0110   69.0610  224.8060 C   0  0  0  0  0  0  0  0  0  0  0  0
  138.4810   70.3280  224.1210 C   0  0  0  0  0  0  0  0  0  0  0  0
  139.7020   71.0170  223.5520 C   0  0  1  0  0  0  0  0  0  0  0  0
  139.2590   72.0780  222.6870 N   0  0  0  0  0  0  0  0  0  0  0  0
  140.1050   73.0700  222.1310 C   0  0  0  0  0  0  0  0  0  0  0  0
  141.1580   72.7070  221.3710 N   0  0  0  0  0  0  0  0  0  0  0  0
  141.9960   73.5970  220.8140 C   0  0  0  0  0  0  0  0  0  0  0  0
  143.1020   73.2070  220.0150 N   0  0  0  0  0  0  0  0  0  0  0  0
  144.1150   74.1460  219.5740 C   0  0  0  0  0  0  0  0  0  0  0  0
  143.6970   74.9800  218.4120 C   0  0  0  0  0  0  0  0  0  0  0  0
  142.9260   76.2100  218.7850 C   0  0  1  0  0  0  0  0  0  0  0  0
  143.0910   77.3410  217.8230 C   0  0  0  0  0  0  0  0  0  0  0  0
  142.2650   76.8470  216.6340 C   0  0  0  0  0  0  0  0  0  0  0  0
  141.0790   76.2410  217.3620 C   0  0  0  0  0  0  0  0  0  0  0  0
  141.5210   75.8980  218.6810 N   0  0  0  0  0  0  0  0  0  0  0  0
  141.7570   74.8910  221.0360 N   0  0  0  0  0  0  0  0  0  0  0  0
  140.6990   75.2770  221.8010 C   0  0  0  0  0  0  0  0  0  0  0  0
  140.4890   76.6720  222.0070 N   0  0  0  0  0  0  0  0  0  0  0  0
  139.2810   77.0870  222.6770 C   0  0  0  0  0  0  0  0  0  0  0  0
  139.0470   78.5420  222.7020 C   0  0  0  0  0  0  0  0  0  0  0  0
  140.2620   79.3590  222.9130 C   0  0  0  0  0  0  0  0  0  0  0  0
  140.1950   80.5300  223.6540 C   0  0  0  0  0  0  0  0  0  0  0  0
  141.3480   81.2870  223.8410 C   0  0  0  0  0  0  0  0  0  0  0  0
  142.5170   80.8570  223.2930 C   0  0  0  0  0  0  0  0  0  0  0  0
  142.5610   79.6790  222.5520 C   0  0  0  0  0  0  0  0  0  0  0  0
  141.4350   78.9030  222.3470 C   0  0  0  0  0  0  0  0  0  0  0  0
  141.4360   77.6480  221.5710 C   0  0  0  0  0  0  0  0  0  0  0  0
  139.8880   74.3740  222.3370 N   0  0  0  0  0  0  0  0  0  0  0  0
  140.5520   71.4960  224.6810 C   0  0  0  0  0  0  0  0  0  0  0  0
  140.1647   68.8585  229.3486 H   0  0  0  0  0  0  0  0  0  0  0  0
  141.4642   70.9617  229.1370 H   0  0  0  0  0  0  0  0  0  0  0  0
  141.6244   72.1406  226.9902 H   0  0  0  0  0  0  0  0  0  0  0  0
  138.9924   67.9363  227.3176 H   0  0  0  0  0  0  0  0  0  0  0  0
  139.7290   68.5390  224.1564 H   0  0  0  0  0  0  0  0  0  0  0  0
  138.2113   68.3385  225.0261 H   0  0  0  0  0  0  0  0  0  0  0  0
  137.7775   70.0655  223.3172 H   0  0  0  0  0  0  0  0  0  0  0  0
  137.9357   70.9755  224.8234 H   0  0  0  0  0  0  0  0  0  0  0  0
  140.3195   70.3340  222.9501 H   0  0  0  0  0  0  0  0  0  0  0  0
  138.2250   72.0980  222.4660 H   0  0  0  0  0  0  0  0  0  0  0  0
  143.2140   72.2190  219.7210 H   0  0  0  0  0  0  0  0  0  0  0  0
  144.3558   74.8157  220.4128 H   0  0  0  0  0  0  0  0  0  0  0  0
  144.9815   73.5524  219.2471 H   0  0  0  0  0  0  0  0  0  0  0  0
  144.6008   75.2911  217.8677 H   0  0  0  0  0  0  0  0  0  0  0  0
  143.0252   74.3584  217.8019 H   0  0  0  0  0  0  0  0  0  0  0  0
  143.2868   76.4994  219.7830 H   0  0  0  0  0  0  0  0  0  0  0  0
  142.6874   78.2792  218.2316 H   0  0  0  0  0  0  0  0  0  0  0  0
  144.1376   77.5747  217.5781 H   0  0  0  0  0  0  0  0  0  0  0  0
  141.9600   77.6755  215.9779 H   0  0  0  0  0  0  0  0  0  0  0  0
  142.7940   76.1567  215.9605 H   0  0  0  0  0  0  0  0  0  0  0  0
  140.2580   76.9710  217.4177 H   0  0  0  0  0  0  0  0  0  0  0  0
  140.7081   75.3518  216.8312 H   0  0  0  0  0  0  0  0  0  0  0  0
  140.9340   76.2230  219.4590 H   0  0  0  0  0  0  0  0  0  0  0  0
  138.4290   76.6137  222.1671 H   0  0  0  0  0  0  0  0  0  0  0  0
  139.3914   76.7769  223.7266 H   0  0  0  0  0  0  0  0  0  0  0  0
  138.6003   78.8340  221.7401 H   0  0  0  0  0  0  0  0  0  0  0  0
  138.3883   78.7364  223.5612 H   0  0  0  0  0  0  0  0  0  0  0  0
  139.2395   80.8572  224.0898 H   0  0  0  0  0  0  0  0  0  0  0  0
  141.3147   82.2195  224.4235 H   0  0  0  0  0  0  0  0  0  0  0  0
  143.4353   81.4453  223.4367 H   0  0  0  0  0  0  0  0  0  0  0  0
  143.5187   79.3565  222.1174 H   0  0  0  0  0  0  0  0  0  0  0  0
  141.2147   77.8944  220.5220 H   0  0  0  0  0  0  0  0  0  0  0  0
  142.4301   77.1985  221.7117 H   0  0  0  0  0  0  0  0  0  0  0  0
  141.6042   71.4419  224.3648 H   0  0  0  0  0  0  0  0  0  0  0  0
  140.2206   72.5203  224.9070 H   0  0  0  0  0  0  0  0  0  0  0  0
  1  2  2  0
  2  3  1  0
  3  4  2  0
  4  5  1  0
  5  6  2  0
  5  7  1  0
  7  8  1  0
  8  9  1  0
  9 10  1  0
 10 11  1  0
 11 12  2  0
 12 13  1  0
 13 14  1  0
 14 15  1  0
 15 16  1  0
 16 17  1  0
 17 18  1  0
 18 19  1  0
 19 20  1  0
 20 21  1  0
 13 22  2  0
 22 23  1  0
 23 24  1  0
 24 25  1  0
 25 26  1  0
 26 27  1  0
 27 28  2  0
 28 29  1  0
 29 30  2  0
 30 31  1  0
 31 32  2  0
 32 33  1  0
 23 34  2  0
  9 35  1  0
  6  1  1  0
 34 11  1  0
 35  4  1  0
 21 17  1  0
 33 24  1  0
 32 27  1  0
  1 36  1  0
  2 37  1  0
  3 38  1  0
  6 39  1  0
  7 40  1  0
  7 41  1  0
  8 42  1  0
  8 43  1  0
  9 44  1  6
 10 45  1  0
 14 46  1  0
 15 47  1  0
 15 48  1  0
 16 49  1  0
 16 50  1  0
 17 51  1  1
 18 52  1  0
 18 53  1  0
 19 54  1  0
 19 55  1  0
 20 56  1  0
 20 57  1  0
 21 58  1  0
 25 59  1  0
 25 60  1  0
 26 61  1  0
 26 62  1  0
 28 63  1  0
 29 64  1  0
 30 65  1  0
 31 66  1  0
 33 67  1  0
 33 68  1  0
 35 69  1  0
 35 70  1  0
M  END
>  <smiles>  (170) 
c1ccc2c(c1)CCC(Nc1nc(NCCC3CCCN3)nc(N3CCc4ccccc4C3)n1)C2

>  <score_type>  (170) 
oracle

>  <origin>  (170) 
autodockgpu

>  <m_score__min__energy>  (170) 
-11.550000000000001

>  <m_primary>  (170) 
energy

>  <rmsd>  (170) 
11.655364358100037

>  <m_score__min__rmsd>  (170) 
11.655364358100037

>  <meeko>  (170) 
{"free_energy": -9.92, "intermolecular_energy": -12.01, "internal_energy": -1.85, "cluster_size": 31, "cluster_id": 1, "rank_in_cluster": 19}

>  <energy>  (170) 
-9.88

>  <cluster_rmsd>  (170) 
1.58

>  <cluster>  (170) 
1

$$$$

     RDKit          3D

 70 75  0  0  1  0  0  0  0  0999 V2000
  142.0080   80.1050  223.3610 C   0  0  0  0  0  0  0  0  0  0  0  0
  140.7370   80.0050  223.8960 C   0  0  0  0  0  0  0  0  0  0  0  0
  139.8460   79.0600  223.4520 C   0  0  0  0  0  0  0  0  0  0  0  0
  140.1940   78.1760  222.4540 C   0  0  0  0  0  0  0  0  0  0  0  0
  141.4550   78.2670  221.9170 C   0  0  0  0  0  0  0  0  0  0  0  0
  142.3830   79.2180  222.3480 C   0  0  0  0  0  0  0  0  0  0  0  0
  141.7980   77.2890  220.8340 C   0  0  0  0  0  0  0  0  0  0  0  0
  141.1600   75.9710  221.2910 C   0  0  0  0  0  0  0  0  0  0  0  0
  139.6730   76.1510  221.0820 C   0  0  1  0  0  0  0  0  0  0  0  0
  139.0350   74.8720  221.2560 N   0  0  0  0  0  0  0  0  0  0  0  0
  139.7130   73.6720  221.5860 C   0  0  0  0  0  0  0  0  0  0  0  0
  140.6860   73.2050  220.7780 N   0  0  0  0  0  0  0  0  0  0  0  0
  141.3680   72.0760  221.0350 C   0  0  0  0  0  0  0  0  0  0  0  0
  142.3910   71.5910  220.1800 N   0  0  0  0  0  0  0  0  0  0  0  0
  142.6960   72.2060  218.9020 C   0  0  0  0  0  0  0  0  0  0  0  0
  144.1540   72.2750  218.6000 C   0  0  0  0  0  0  0  0  0  0  0  0
  144.7720   73.6150  218.8610 C   0  0  1  0  0  0  0  0  0  0  0  0
  144.2670   74.2810  220.1000 C   0  0  0  0  0  0  0  0  0  0  0  0
  144.9460   73.4460  221.1870 C   0  0  0  0  0  0  0  0  0  0  0  0
  146.3200   73.2620  220.5690 C   0  0  0  0  0  0  0  0  0  0  0  0
  146.1700   73.4060  219.1520 N   0  0  0  0  0  0  0  0  0  0  0  0
  141.0510   71.4040  222.1440 N   0  0  0  0  0  0  0  0  0  0  0  0
  140.0700   71.8600  222.9710 C   0  0  0  0  0  0  0  0  0  0  0  0
  139.7700   71.1030  224.1420 N   0  0  0  0  0  0  0  0  0  0  0  0
  139.0920   69.8410  223.9810 C   0  0  0  0  0  0  0  0  0  0  0  0
  138.6610   69.1980  225.2350 C   0  0  0  0  0  0  0  0  0  0  0  0
  139.6210   69.3220  226.3540 C   0  0  0  0  0  0  0  0  0  0  0  0
  139.7750   68.2810  227.2600 C   0  0  0  0  0  0  0  0  0  0  0  0
  140.6810   68.4160  228.3070 C   0  0  0  0  0  0  0  0  0  0  0  0
  141.3990   69.5670  228.4160 C   0  0  0  0  0  0  0  0  0  0  0  0
  141.2280   70.5980  227.4960 C   0  0  0  0  0  0  0  0  0  0  0  0
  140.3360   70.4980  226.4450 C   0  0  0  0  0  0  0  0  0  0  0  0
  140.1240   71.5640  225.4470 C   0  0  0  0  0  0  0  0  0  0  0  0
  139.4150   72.9790  222.6900 N   0  0  0  0  0  0  0  0  0  0  0  0
  139.1770   77.1880  222.0330 C   0  0  0  0  0  0  0  0  0  0  0  0
  142.7109   80.8684  223.7258 H   0  0  0  0  0  0  0  0  0  0  0  0
  140.4333   80.6977  224.6947 H   0  0  0  0  0  0  0  0  0  0  0  0
  138.8420   79.0078  223.8983 H   0  0  0  0  0  0  0  0  0  0  0  0
  143.3865   79.2677  221.9002 H   0  0  0  0  0  0  0  0  0  0  0  0
  141.3762   77.6118  219.8707 H   0  0  0  0  0  0  0  0  0  0  0  0
  142.8835   77.1976  220.6812 H   0  0  0  0  0  0  0  0  0  0  0  0
  141.5349   75.1320  220.6864 H   0  0  0  0  0  0  0  0  0  0  0  0
  141.4010   75.7418  222.3395 H   0  0  0  0  0  0  0  0  0  0  0  0
  139.4379   76.5044  220.0672 H   0  0  0  0  0  0  0  0  0  0  0  0
  137.9860   74.8540  221.1220 H   0  0  0  0  0  0  0  0  0  0  0  0
  142.9580   70.7690  220.4560 H   0  0  0  0  0  0  0  0  0  0  0  0
  142.2051   71.6215  218.1099 H   0  0  0  0  0  0  0  0  0  0  0  0
  142.3294   73.2420  218.9495 H   0  0  0  0  0  0  0  0  0  0  0  0
  144.6709   71.5295  219.2221 H   0  0  0  0  0  0  0  0  0  0  0  0
  144.2636   72.0805  217.5229 H   0  0  0  0  0  0  0  0  0  0  0  0
  144.5463   74.2281  217.9760 H   0  0  0  0  0  0  0  0  0  0  0  0
  144.5800   75.3345  220.1471 H   0  0  0  0  0  0  0  0  0  0  0  0
  143.1703   74.3157  220.1778 H   0  0  0  0  0  0  0  0  0  0  0  0
  144.9989   73.9878  222.1429 H   0  0  0  0  0  0  0  0  0  0  0  0
  144.4263   72.5103  221.4408 H   0  0  0  0  0  0  0  0  0  0  0  0
  147.0118   74.0256  220.9542 H   0  0  0  0  0  0  0  0  0  0  0  0
  146.7315   72.2731  220.8195 H   0  0  0  0  0  0  0  0  0  0  0  0
  146.8220   74.0480  218.6860 H   0  0  0  0  0  0  0  0  0  0  0  0
  138.1995   70.0105  223.3608 H   0  0  0  0  0  0  0  0  0  0  0  0
  139.8217   69.1579  223.5217 H   0  0  0  0  0  0  0  0  0  0  0  0
  137.7107   69.6563  225.5462 H   0  0  0  0  0  0  0  0  0  0  0  0
  138.5722   68.1231  225.0189 H   0  0  0  0  0  0  0  0  0  0  0  0
  139.1861   67.3583  227.1508 H   0  0  0  0  0  0  0  0  0  0  0  0
  140.8152   67.6038  229.0366 H   0  0  0  0  0  0  0  0  0  0  0  0
  142.1206   69.6838  229.2380 H   0  0  0  0  0  0  0  0  0  0  0  0
  141.8197   71.5184  227.6089 H   0  0  0  0  0  0  0  0  0  0  0  0
  139.3161   72.2164  225.8100 H   0  0  0  0  0  0  0  0  0  0  0  0
  141.0877   72.0835  225.3403 H   0  0  0  0  0  0  0  0  0  0  0  0
  138.3517   77.7306  221.5488 H   0  0  0  0  0  0  0  0  0  0  0  0
  138.8674   76.6531  222.9430 H   0  0  0  0  0  0  0  0  0  0  0  0
  1  2  2  0
  2  3  1  0
  3  4  2  0
  4  5  1  0
  5  6  2  0
  5  7  1  0
  7  8  1  0
  8  9  1  0
  9 10  1  0
 10 11  1  0
 11 12  2  0
 12 13  1  0
 13 14  1  0
 14 15  1  0
 15 16  1  0
 16 17  1  0
 17 18  1  0
 18 19  1  0
 19 20  1  0
 20 21  1  0
 13 22  2  0
 22 23  1  0
 23 24  1  0
 24 25  1  0
 25 26  1  0
 26 27  1  0
 27 28  2  0
 28 29  1  0
 29 30  2  0
 30 31  1  0
 31 32  2  0
 32 33  1  0
 23 34  2  0
  9 35  1  0
  6  1  1  0
 34 11  1  0
 35  4  1  0
 21 17  1  0
 33 24  1  0
 32 27  1  0
  1 36  1  0
  2 37  1  0
  3 38  1  0
  6 39  1  0
  7 40  1  0
  7 41  1  0
  8 42  1  0
  8 43  1  0
  9 44  1  6
 10 45  1  0
 14 46  1  0
 15 47  1  0
 15 48  1  0
 16 49  1  0
 16 50  1  0
 17 51  1  6
 18 52  1  0
 18 53  1  0
 19 54  1  0
 19 55  1  0
 20 56  1  0
 20 57  1  0
 21 58  1  0
 25 59  1  0
 25 60  1  0
 26 61  1  0
 26 62  1  0
 28 63  1  0
 29 64  1  0
 30 65  1  0
 31 66  1  0
 33 67  1  0
 33 68  1  0
 35 69  1  0
 35 70  1  0
M  END
>  <smiles>  (171) 
c1ccc2c(c1)CCC(Nc1nc(NCCC3CCCN3)nc(N3CCc4ccccc4C3)n1)C2

>  <score_type>  (171) 
oracle

>  <origin>  (171) 
autodockgpu

>  <m_score__min__energy>  (171) 
-11.550000000000001

>  <m_primary>  (171) 
energy

>  <rmsd>  (171) 
4.312261872946703

>  <m_score__min__rmsd>  (171) 
4.312261872946703

>  <meeko>  (171) 
{"free_energy": -10.35, "intermolecular_energy": -12.44, "internal_energy": -1.36, "cluster_size": 31, "cluster_id": 1, "rank_in_cluster": 13}

>  <energy>  (171) 
-9.84

>  <cluster_rmsd>  (171) 
1.81

>  <cluster>  (171) 
1

$$$$

     RDKit          3D

 70 75  0  0  1  0  0  0  0  0999 V2000
  140.2520   70.3800  228.3380 C   0  0  0  0  0  0  0  0  0  0  0  0
  140.9780   71.5060  227.9960 C   0  0  0  0  0  0  0  0  0  0  0  0
  141.1070   71.9050  226.6880 C   0  0  0  0  0  0  0  0  0  0  0  0
  140.5110   71.1910  225.6710 C   0  0  0  0  0  0  0  0  0  0  0  0
  139.7870   70.0720  226.0020 C   0  0  0  0  0  0  0  0  0  0  0  0
  139.6390   69.6420  227.3220 C   0  0  0  0  0  0  0  0  0  0  0  0
  139.1530   69.3210  224.8690 C   0  0  0  0  0  0  0  0  0  0  0  0
  138.6450   70.4150  223.9200 C   0  0  0  0  0  0  0  0  0  0  0  0
  139.8830   70.9800  223.2600 C   0  0  1  0  0  0  0  0  0  0  0  0
  139.4680   71.8360  222.1800 N   0  0  0  0  0  0  0  0  0  0  0  0
  138.6810   73.0040  222.3360 C   0  0  0  0  0  0  0  0  0  0  0  0
  137.3710   72.8980  222.6360 N   0  0  0  0  0  0  0  0  0  0  0  0
  136.5710   73.9650  222.7990 C   0  0  0  0  0  0  0  0  0  0  0  0
  135.1930   73.8450  223.1160 N   0  0  0  0  0  0  0  0  0  0  0  0
  134.5130   74.7710  223.9990 C   0  0  0  0  0  0  0  0  0  0  0  0
  134.5540   74.3740  225.4350 C   0  0  0  0  0  0  0  0  0  0  0  0
  133.2670   73.8070  225.9520 C   0  0  1  0  0  0  0  0  0  0  0  0
  132.7350   72.6750  225.1340 C   0  0  0  0  0  0  0  0  0  0  0  0
  133.7040   71.5520  225.5100 C   0  0  0  0  0  0  0  0  0  0  0  0
  133.8470   71.8060  226.9990 C   0  0  0  0  0  0  0  0  0  0  0  0
  133.5400   73.1860  227.2260 N   0  0  0  0  0  0  0  0  0  0  0  0
  137.1190   75.1730  222.6520 N   0  0  0  0  0  0  0  0  0  0  0  0
  138.4400   75.3010  222.3480 C   0  0  0  0  0  0  0  0  0  0  0  0
  138.9750   76.6140  222.2020 N   0  0  0  0  0  0  0  0  0  0  0  0
  138.0560   77.7010  221.9690 C   0  0  0  0  0  0  0  0  0  0  0  0
  138.6860   78.9960  221.6550 C   0  0  0  0  0  0  0  0  0  0  0  0
  139.9110   79.2900  222.4300 C   0  0  0  0  0  0  0  0  0  0  0  0
  140.1920   80.5910  222.8240 C   0  0  0  0  0  0  0  0  0  0  0  0
  141.3510   80.8490  223.5500 C   0  0  0  0  0  0  0  0  0  0  0  0
  142.1810   79.8160  223.8600 C   0  0  0  0  0  0  0  0  0  0  0  0
  141.8800   78.5190  223.4540 C   0  0  0  0  0  0  0  0  0  0  0  0
  140.7380   78.2270  222.7310 C   0  0  0  0  0  0  0  0  0  0  0  0
  140.3780   76.8680  222.2810 C   0  0  0  0  0  0  0  0  0  0  0  0
  139.2050   74.2270  222.1940 N   0  0  0  0  0  0  0  0  0  0  0  0
  140.6970   71.6880  224.2910 C   0  0  0  0  0  0  0  0  0  0  0  0
  140.1588   70.0711  229.3896 H   0  0  0  0  0  0  0  0  0  0  0  0
  141.4627   72.0950  228.7886 H   0  0  0  0  0  0  0  0  0  0  0  0
  141.6928   72.8049  226.4495 H   0  0  0  0  0  0  0  0  0  0  0  0
  139.0525   68.7416  227.5572 H   0  0  0  0  0  0  0  0  0  0  0  0
  139.8921   68.6812  224.3647 H   0  0  0  0  0  0  0  0  0  0  0  0
  138.3468   68.6539  225.2083 H   0  0  0  0  0  0  0  0  0  0  0  0
  137.9682   69.9867  223.1660 H   0  0  0  0  0  0  0  0  0  0  0  0
  138.0768   71.1899  224.4555 H   0  0  0  0  0  0  0  0  0  0  0  0
  140.5196   70.1912  222.8327 H   0  0  0  0  0  0  0  0  0  0  0  0
  139.7860   71.5510  221.2120 H   0  0  0  0  0  0  0  0  0  0  0  0
  134.6290   73.0740  222.7130 H   0  0  0  0  0  0  0  0  0  0  0  0
  134.9879   75.7581  223.8985 H   0  0  0  0  0  0  0  0  0  0  0  0
  133.4546   74.7802  223.6995 H   0  0  0  0  0  0  0  0  0  0  0  0
  135.3405   73.6154  225.5609 H   0  0  0  0  0  0  0  0  0  0  0  0
  134.7499   75.2904  226.0110 H   0  0  0  0  0  0  0  0  0  0  0  0
  132.5521   74.6429  225.9620 H   0  0  0  0  0  0  0  0  0  0  0  0
  131.7012   72.4259  225.4154 H   0  0  0  0  0  0  0  0  0  0  0  0
  132.6842   72.8837  224.0552 H   0  0  0  0  0  0  0  0  0  0  0  0
  133.2761   70.5595  225.3055 H   0  0  0  0  0  0  0  0  0  0  0  0
  134.6504   71.5530  224.9494 H   0  0  0  0  0  0  0  0  0  0  0  0
  133.1477   71.1676  227.5588 H   0  0  0  0  0  0  0  0  0  0  0  0
  134.8671   71.5727  227.3381 H   0  0  0  0  0  0  0  0  0  0  0  0
  132.8630   73.3870  227.9730 H   0  0  0  0  0  0  0  0  0  0  0  0
  137.4075   77.4239  221.1248 H   0  0  0  0  0  0  0  0  0  0  0  0
  137.5090   77.8471  222.9121 H   0  0  0  0  0  0  0  0  0  0  0  0
  138.9470   79.0002  220.5864 H   0  0  0  0  0  0  0  0  0  0  0  0
  137.9539   79.7717  221.9240 H   0  0  0  0  0  0  0  0  0  0  0  0
  139.5052   81.4102  222.5649 H   0  0  0  0  0  0  0  0  0  0  0  0
  141.5928   81.8736  223.8688 H   0  0  0  0  0  0  0  0  0  0  0  0
  143.0980   80.0077  224.4366 H   0  0  0  0  0  0  0  0  0  0  0  0
  142.5701   77.7033  223.7157 H   0  0  0  0  0  0  0  0  0  0  0  0
  140.8104   76.7130  221.2815 H   0  0  0  0  0  0  0  0  0  0  0  0
  140.7751   76.1763  223.0385 H   0  0  0  0  0  0  0  0  0  0  0  0
  141.7587   71.5757  224.0262 H   0  0  0  0  0  0  0  0  0  0  0  0
  140.3598   72.7350  224.2890 H   0  0  0  0  0  0  0  0  0  0  0  0
  1  2  2  0
  2  3  1  0
  3  4  2  0
  4  5  1  0
  5  6  2  0
  5  7  1  0
  7  8  1  0
  8  9  1  0
  9 10  1  0
 10 11  1  0
 11 12  2  0
 12 13  1  0
 13 14  1  0
 14 15  1  0
 15 16  1  0
 16 17  1  0
 17 18  1  0
 18 19  1  0
 19 20  1  0
 20 21  1  0
 13 22  2  0
 22 23  1  0
 23 24  1  0
 24 25  1  0
 25 26  1  0
 26 27  1  0
 27 28  2  0
 28 29  1  0
 29 30  2  0
 30 31  1  0
 31 32  2  0
 32 33  1  0
 23 34  2  0
  9 35  1  0
  6  1  1  0
 34 11  1  0
 35  4  1  0
 21 17  1  0
 33 24  1  0
 32 27  1  0
  1 36  1  0
  2 37  1  0
  3 38  1  0
  6 39  1  0
  7 40  1  0
  7 41  1  0
  8 42  1  0
  8 43  1  0
  9 44  1  6
 10 45  1  0
 14 46  1  0
 15 47  1  0
 15 48  1  0
 16 49  1  0
 16 50  1  0
 17 51  1  1
 18 52  1  0
 18 53  1  0
 19 54  1  0
 19 55  1  0
 20 56  1  0
 20 57  1  0
 21 58  1  0
 25 59  1  0
 25 60  1  0
 26 61  1  0
 26 62  1  0
 28 63  1  0
 29 64  1  0
 30 65  1  0
 31 66  1  0
 33 67  1  0
 33 68  1  0
 35 69  1  0
 35 70  1  0
M  END
>  <smiles>  (172) 
c1ccc2c(c1)CCC(Nc1nc(NCCC3CCCN3)nc(N3CCc4ccccc4C3)n1)C2

>  <score_type>  (172) 
oracle

>  <origin>  (172) 
autodockgpu

>  <m_score__min__energy>  (172) 
-11.550000000000001

>  <m_primary>  (172) 
energy

>  <rmsd>  (172) 
11.197004536510356

>  <m_score__min__rmsd>  (172) 
11.197004536510356

>  <meeko>  (172) 
{"free_energy": -10.28, "intermolecular_energy": -12.37, "internal_energy": -1.29, "cluster_size": 5, "cluster_id": 3, "rank_in_cluster": 2}

>  <energy>  (172) 
-9.81

>  <cluster_rmsd>  (172) 
0.99

>  <cluster>  (172) 
1

$$$$

     RDKit          3D

 70 75  0  0  1  0  0  0  0  0999 V2000
  140.6640   68.6740  228.2010 C   0  0  0  0  0  0  0  0  0  0  0  0
  141.1120   69.9770  228.3180 C   0  0  0  0  0  0  0  0  0  0  0  0
  141.0200   70.8610  227.2720 C   0  0  0  0  0  0  0  0  0  0  0  0
  140.4750   70.4740  226.0670 C   0  0  0  0  0  0  0  0  0  0  0  0
  140.0270   69.1820  225.9420 C   0  0  0  0  0  0  0  0  0  0  0  0
  140.1070   68.2600  226.9890 C   0  0  0  0  0  0  0  0  0  0  0  0
  139.4400   68.7980  224.6180 C   0  0  0  0  0  0  0  0  0  0  0  0
  138.6280   70.0260  224.1860 C   0  0  0  0  0  0  0  0  0  0  0  0
  139.6520   71.0620  223.7800 C   0  0  1  0  0  0  0  0  0  0  0  0
  138.9640   72.1470  223.1330 N   0  0  0  0  0  0  0  0  0  0  0  0
  139.5640   73.0510  222.2200 C   0  0  0  0  0  0  0  0  0  0  0  0
  140.1450   72.5870  221.0970 N   0  0  0  0  0  0  0  0  0  0  0  0
  140.7290   73.3890  220.1910 C   0  0  0  0  0  0  0  0  0  0  0  0
  141.3380   72.8920  219.0100 N   0  0  0  0  0  0  0  0  0  0  0  0
  142.5440   72.0870  219.0350 C   0  0  0  0  0  0  0  0  0  0  0  0
  143.5900   72.5980  219.9650 C   0  0  0  0  0  0  0  0  0  0  0  0
  144.5980   73.4990  219.3210 C   0  0  1  0  0  0  0  0  0  0  0  0
  144.0620   74.2730  218.1610 C   0  0  0  0  0  0  0  0  0  0  0  0
  143.1820   75.3040  218.8690 C   0  0  0  0  0  0  0  0  0  0  0  0
  144.0680   75.6490  220.0530 C   0  0  0  0  0  0  0  0  0  0  0  0
  144.9370   74.5310  220.2700 N   0  0  0  0  0  0  0  0  0  0  0  0
  140.7210   74.7020  220.4360 N   0  0  0  0  0  0  0  0  0  0  0  0
  140.1390   75.1900  221.5670 C   0  0  0  0  0  0  0  0  0  0  0  0
  140.1590   76.5990  221.7800 N   0  0  0  0  0  0  0  0  0  0  0  0
  138.9730   77.2240  222.3120 C   0  0  0  0  0  0  0  0  0  0  0  0
  139.0030   78.6970  222.3440 C   0  0  0  0  0  0  0  0  0  0  0  0
  140.3100   79.2800  222.7180 C   0  0  0  0  0  0  0  0  0  0  0  0
  140.3640   80.4430  223.4750 C   0  0  0  0  0  0  0  0  0  0  0  0
  141.6020   80.9780  223.8160 C   0  0  0  0  0  0  0  0  0  0  0  0
  142.7330   80.3450  223.4010 C   0  0  0  0  0  0  0  0  0  0  0  0
  142.6550   79.1800  222.6430 C   0  0  0  0  0  0  0  0  0  0  0  0
  141.4420   78.6220  222.2850 C   0  0  0  0  0  0  0  0  0  0  0  0
  141.3120   77.3890  221.4840 C   0  0  0  0  0  0  0  0  0  0  0  0
  139.5700   74.3710  222.4410 N   0  0  0  0  0  0  0  0  0  0  0  0
  140.4120   71.4870  224.9910 C   0  0  0  0  0  0  0  0  0  0  0  0
  140.7449   67.9761  229.0474 H   0  0  0  0  0  0  0  0  0  0  0  0
  141.5513   70.3121  229.2692 H   0  0  0  0  0  0  0  0  0  0  0  0
  141.3858   71.8908  227.3972 H   0  0  0  0  0  0  0  0  0  0  0  0
  139.7395   67.2311  226.8614 H   0  0  0  0  0  0  0  0  0  0  0  0
  140.2345   68.5813  223.8888 H   0  0  0  0  0  0  0  0  0  0  0  0
  138.8223   67.8901  224.6822 H   0  0  0  0  0  0  0  0  0  0  0  0
  137.9753   69.7764  223.3365 H   0  0  0  0  0  0  0  0  0  0  0  0
  137.9759   70.3900  224.9936 H   0  0  0  0  0  0  0  0  0  0  0  0
  140.3847   70.6603  223.0646 H   0  0  0  0  0  0  0  0  0  0  0  0
  137.9400   72.2580  223.3720 H   0  0  0  0  0  0  0  0  0  0  0  0
  140.9260   73.0980  218.0820 H   0  0  0  0  0  0  0  0  0  0  0  0
  142.2734   71.0667  219.3446 H   0  0  0  0  0  0  0  0  0  0  0  0
  142.9722   72.1206  218.0223 H   0  0  0  0  0  0  0  0  0  0  0  0
  143.0918   73.1578  220.7702 H   0  0  0  0  0  0  0  0  0  0  0  0
  144.1410   71.7201  220.3334 H   0  0  0  0  0  0  0  0  0  0  0  0
  145.4221   72.8455  218.9988 H   0  0  0  0  0  0  0  0  0  0  0  0
  144.8697   74.7562  217.5917 H   0  0  0  0  0  0  0  0  0  0  0  0
  143.5295   73.6606  217.4184 H   0  0  0  0  0  0  0  0  0  0  0  0
  142.9917   76.1816  218.2337 H   0  0  0  0  0  0  0  0  0  0  0  0
  142.1764   74.9462  219.1350 H   0  0  0  0  0  0  0  0  0  0  0  0
  144.6599   76.5493  219.8314 H   0  0  0  0  0  0  0  0  0  0  0  0
  143.4624   75.8531  220.9483 H   0  0  0  0  0  0  0  0  0  0  0  0
  145.9390   74.7430  220.3600 H   0  0  0  0  0  0  0  0  0  0  0  0
  138.1178   76.9140  221.6934 H   0  0  0  0  0  0  0  0  0  0  0  0
  138.8979   76.8965  223.3594 H   0  0  0  0  0  0  0  0  0  0  0  0
  138.7365   79.0671  221.3430 H   0  0  0  0  0  0  0  0  0  0  0  0
  138.2904   79.0057  223.1231 H   0  0  0  0  0  0  0  0  0  0  0  0
  139.4368   80.9364  223.8018 H   0  0  0  0  0  0  0  0  0  0  0  0
  141.6659   81.8998  224.4128 H   0  0  0  0  0  0  0  0  0  0  0  0
  143.7174   80.7575  223.6669 H   0  0  0  0  0  0  0  0  0  0  0  0
  143.5850   78.6895  222.3197 H   0  0  0  0  0  0  0  0  0  0  0  0
  141.2678   77.6740  220.4225 H   0  0  0  0  0  0  0  0  0  0  0  0
  142.1846   76.7666  221.7313 H   0  0  0  0  0  0  0  0  0  0  0  0
  141.4410   71.7253  224.6838 H   0  0  0  0  0  0  0  0  0  0  0  0
  139.8744   72.3512  225.4083 H   0  0  0  0  0  0  0  0  0  0  0  0
  1  2  2  0
  2  3  1  0
  3  4  2  0
  4  5  1  0
  5  6  2  0
  5  7  1  0
  7  8  1  0
  8  9  1  0
  9 10  1  0
 10 11  1  0
 11 12  2  0
 12 13  1  0
 13 14  1  0
 14 15  1  0
 15 16  1  0
 16 17  1  0
 17 18  1  0
 18 19  1  0
 19 20  1  0
 20 21  1  0
 13 22  2  0
 22 23  1  0
 23 24  1  0
 24 25  1  0
 25 26  1  0
 26 27  1  0
 27 28  2  0
 28 29  1  0
 29 30  2  0
 30 31  1  0
 31 32  2  0
 32 33  1  0
 23 34  2  0
  9 35  1  0
  6  1  1  0
 34 11  1  0
 35  4  1  0
 21 17  1  0
 33 24  1  0
 32 27  1  0
  1 36  1  0
  2 37  1  0
  3 38  1  0
  6 39  1  0
  7 40  1  0
  7 41  1  0
  8 42  1  0
  8 43  1  0
  9 44  1  6
 10 45  1  0
 14 46  1  0
 15 47  1  0
 15 48  1  0
 16 49  1  0
 16 50  1  0
 17 51  1  6
 18 52  1  0
 18 53  1  0
 19 54  1  0
 19 55  1  0
 20 56  1  0
 20 57  1  0
 21 58  1  0
 25 59  1  0
 25 60  1  0
 26 61  1  0
 26 62  1  0
 28 63  1  0
 29 64  1  0
 30 65  1  0
 31 66  1  0
 33 67  1  0
 33 68  1  0
 35 69  1  0
 35 70  1  0
M  END
>  <smiles>  (173) 
c1ccc2c(c1)CCC(Nc1nc(NCCC3CCCN3)nc(N3CCc4ccccc4C3)n1)C2

>  <score_type>  (173) 
oracle

>  <origin>  (173) 
autodockgpu

>  <m_score__min__energy>  (173) 
-11.550000000000001

>  <m_primary>  (173) 
energy

>  <rmsd>  (173) 
11.946698607580453

>  <m_score__min__rmsd>  (173) 
11.946698607580453

>  <meeko>  (173) 
{"free_energy": -10.25, "intermolecular_energy": -12.34, "internal_energy": -1.4, "cluster_size": 31, "cluster_id": 1, "rank_in_cluster": 16}

>  <energy>  (173) 
-9.77

>  <cluster_rmsd>  (173) 
1.39

>  <cluster>  (173) 
1

$$$$

     RDKit          3D

 70 75  0  0  1  0  0  0  0  0999 V2000
  140.5300   68.6590  228.0900 C   0  0  0  0  0  0  0  0  0  0  0  0
  141.0350   69.9390  228.2200 C   0  0  0  0  0  0  0  0  0  0  0  0
  140.9790   70.8390  227.1840 C   0  0  0  0  0  0  0  0  0  0  0  0
  140.4130   70.4900  225.9770 C   0  0  0  0  0  0  0  0  0  0  0  0
  139.9080   69.2210  225.8400 C   0  0  0  0  0  0  0  0  0  0  0  0
  139.9510   68.2840  226.8750 C   0  0  0  0  0  0  0  0  0  0  0  0
  139.3000   68.8780  224.5130 C   0  0  0  0  0  0  0  0  0  0  0  0
  138.5410   70.1450  224.0990 C   0  0  0  0  0  0  0  0  0  0  0  0
  139.6090   71.1400  223.7000 C   0  0  1  0  0  0  0  0  0  0  0  0
  138.9670   72.2620  223.0680 N   0  0  0  0  0  0  0  0  0  0  0  0
  139.6120   73.1700  222.1920 C   0  0  0  0  0  0  0  0  0  0  0  0
  140.2620   72.7100  221.1050 N   0  0  0  0  0  0  0  0  0  0  0  0
  140.8920   73.5170  220.2350 C   0  0  0  0  0  0  0  0  0  0  0  0
  141.5730   73.0240  219.0920 N   0  0  0  0  0  0  0  0  0  0  0  0
  142.3280   71.7860  219.1080 C   0  0  0  0  0  0  0  0  0  0  0  0
  143.2310   71.6470  220.2860 C   0  0  0  0  0  0  0  0  0  0  0  0
  144.6740   71.9190  219.9890 C   0  0  1  0  0  0  0  0  0  0  0  0
  144.8890   72.8550  218.8440 C   0  0  0  0  0  0  0  0  0  0  0  0
  144.4790   74.1900  219.4670 C   0  0  0  0  0  0  0  0  0  0  0  0
  145.0950   74.0460  220.8470 C   0  0  0  0  0  0  0  0  0  0  0  0
  145.2250   72.6440  221.1090 N   0  0  0  0  0  0  0  0  0  0  0  0
  140.8590   74.8290  220.4780 N   0  0  0  0  0  0  0  0  0  0  0  0
  140.2080   75.3130  221.5710 C   0  0  0  0  0  0  0  0  0  0  0  0
  140.2040   76.7230  221.7840 N   0  0  0  0  0  0  0  0  0  0  0  0
  139.0140   77.3240  222.3340 C   0  0  0  0  0  0  0  0  0  0  0  0
  139.0150   78.7980  222.3650 C   0  0  0  0  0  0  0  0  0  0  0  0
  140.3160   79.4060  222.7190 C   0  0  0  0  0  0  0  0  0  0  0  0
  140.3600   80.5700  223.4740 C   0  0  0  0  0  0  0  0  0  0  0  0
  141.5930   81.1290  223.7960 C   0  0  0  0  0  0  0  0  0  0  0  0
  142.7290   80.5180  223.3640 C   0  0  0  0  0  0  0  0  0  0  0  0
  142.6620   79.3520  222.6070 C   0  0  0  0  0  0  0  0  0  0  0  0
  141.4540   78.7700  222.2690 C   0  0  0  0  0  0  0  0  0  0  0  0
  141.3360   77.5340  221.4700 C   0  0  0  0  0  0  0  0  0  0  0  0
  139.5950   74.4900  222.4120 N   0  0  0  0  0  0  0  0  0  0  0  0
  140.3910   71.5170  224.9130 C   0  0  0  0  0  0  0  0  0  0  0  0
  140.5830   67.9484  228.9280 H   0  0  0  0  0  0  0  0  0  0  0  0
  141.4915   70.2434  229.1734 H   0  0  0  0  0  0  0  0  0  0  0  0
  141.3907   71.8500  227.3193 H   0  0  0  0  0  0  0  0  0  0  0  0
  139.5384   67.2738  226.7366 H   0  0  0  0  0  0  0  0  0  0  0  0
  140.0818   68.6356  223.7782 H   0  0  0  0  0  0  0  0  0  0  0  0
  138.6438   67.9969  224.5689 H   0  0  0  0  0  0  0  0  0  0  0  0
  137.8745   69.9343  223.2496 H   0  0  0  0  0  0  0  0  0  0  0  0
  137.9086   70.5279  224.9135 H   0  0  0  0  0  0  0  0  0  0  0  0
  140.3207   70.7149  222.9770 H   0  0  0  0  0  0  0  0  0  0  0  0
  137.9410   72.3970  223.2900 H   0  0  0  0  0  0  0  0  0  0  0  0
  141.5460   73.5490  218.1990 H   0  0  0  0  0  0  0  0  0  0  0  0
  141.6173   70.9465  219.1149 H   0  0  0  0  0  0  0  0  0  0  0  0
  142.9674   71.7892  218.2129 H   0  0  0  0  0  0  0  0  0  0  0  0
  142.8990   72.3540  221.0605 H   0  0  0  0  0  0  0  0  0  0  0  0
  143.1674   70.5981  220.6110 H   0  0  0  0  0  0  0  0  0  0  0  0
  145.1265   70.9397  219.7739 H   0  0  0  0  0  0  0  0  0  0  0  0
  145.9417   72.8659  218.5251 H   0  0  0  0  0  0  0  0  0  0  0  0
  144.3284   72.5911  217.9351 H   0  0  0  0  0  0  0  0  0  0  0  0
  144.9048   75.0430  218.9183 H   0  0  0  0  0  0  0  0  0  0  0  0
  143.3967   74.3863  219.4641 H   0  0  0  0  0  0  0  0  0  0  0  0
  146.0840   74.5270  220.8702 H   0  0  0  0  0  0  0  0  0  0  0  0
  144.4643   74.5285  221.6082 H   0  0  0  0  0  0  0  0  0  0  0  0
  146.1450   72.3240  221.4370 H   0  0  0  0  0  0  0  0  0  0  0  0
  138.1559   76.9964  221.7288 H   0  0  0  0  0  0  0  0  0  0  0  0
  138.9614   76.9955  223.3825 H   0  0  0  0  0  0  0  0  0  0  0  0
  138.7261   79.1622  221.3681 H   0  0  0  0  0  0  0  0  0  0  0  0
  138.3080   79.0935  223.1542 H   0  0  0  0  0  0  0  0  0  0  0  0
  139.4287   81.0462  223.8146 H   0  0  0  0  0  0  0  0  0  0  0  0
  141.6483   82.0521  224.3916 H   0  0  0  0  0  0  0  0  0  0  0  0
  143.7093   80.9493  223.6152 H   0  0  0  0  0  0  0  0  0  0  0  0
  143.5961   78.8802  222.2681 H   0  0  0  0  0  0  0  0  0  0  0  0
  141.2700   77.8175  220.4092 H   0  0  0  0  0  0  0  0  0  0  0  0
  142.2244   76.9288  221.7036 H   0  0  0  0  0  0  0  0  0  0  0  0
  141.4285   71.7134  224.6046 H   0  0  0  0  0  0  0  0  0  0  0  0
  139.8932   72.3990  225.3423 H   0  0  0  0  0  0  0  0  0  0  0  0
  1  2  2  0
  2  3  1  0
  3  4  2  0
  4  5  1  0
  5  6  2  0
  5  7  1  0
  7  8  1  0
  8  9  1  0
  9 10  1  0
 10 11  1  0
 11 12  2  0
 12 13  1  0
 13 14  1  0
 14 15  1  0
 15 16  1  0
 16 17  1  0
 17 18  1  0
 18 19  1  0
 19 20  1  0
 20 21  1  0
 13 22  2  0
 22 23  1  0
 23 24  1  0
 24 25  1  0
 25 26  1  0
 26 27  1  0
 27 28  2  0
 28 29  1  0
 29 30  2  0
 30 31  1  0
 31 32  2  0
 32 33  1  0
 23 34  2  0
  9 35  1  0
  6  1  1  0
 34 11  1  0
 35  4  1  0
 21 17  1  0
 33 24  1  0
 32 27  1  0
  1 36  1  0
  2 37  1  0
  3 38  1  0
  6 39  1  0
  7 40  1  0
  7 41  1  0
  8 42  1  0
  8 43  1  0
  9 44  1  6
 10 45  1  0
 14 46  1  0
 15 47  1  0
 15 48  1  0
 16 49  1  0
 16 50  1  0
 17 51  1  6
 18 52  1  0
 18 53  1  0
 19 54  1  0
 19 55  1  0
 20 56  1  0
 20 57  1  0
 21 58  1  0
 25 59  1  0
 25 60  1  0
 26 61  1  0
 26 62  1  0
 28 63  1  0
 29 64  1  0
 30 65  1  0
 31 66  1  0
 33 67  1  0
 33 68  1  0
 35 69  1  0
 35 70  1  0
M  END
>  <smiles>  (174) 
c1ccc2c(c1)CCC(Nc1nc(NCCC3CCCN3)nc(N3CCc4ccccc4C3)n1)C2

>  <score_type>  (174) 
oracle

>  <origin>  (174) 
autodockgpu

>  <m_score__min__energy>  (174) 
-11.550000000000001

>  <m_primary>  (174) 
energy

>  <rmsd>  (174) 
11.887654832015972

>  <m_score__min__rmsd>  (174) 
11.887654832015972

>  <meeko>  (174) 
{"free_energy": -10.93, "intermolecular_energy": -13.02, "internal_energy": -1.25, "cluster_size": 31, "cluster_id": 1, "rank_in_cluster": 5}

>  <energy>  (174) 
-9.71

>  <cluster_rmsd>  (174) 
1.13

>  <cluster>  (174) 
1

$$$$

     RDKit          3D

 70 75  0  0  1  0  0  0  0  0999 V2000
  140.3730   68.1780  227.8220 C   0  0  0  0  0  0  0  0  0  0  0  0
  139.6490   67.4970  226.8620 C   0  0  0  0  0  0  0  0  0  0  0  0
  139.2770   68.1000  225.6850 C   0  0  0  0  0  0  0  0  0  0  0  0
  139.6190   69.4090  225.4250 C   0  0  0  0  0  0  0  0  0  0  0  0
  140.3390   70.0930  226.3730 C   0  0  0  0  0  0  0  0  0  0  0  0
  140.7310   69.5070  227.5790 C   0  0  0  0  0  0  0  0  0  0  0  0
  140.6920   71.5150  226.0550 C   0  0  0  0  0  0  0  0  0  0  0  0
  141.0500   71.4960  224.5630 C   0  0  0  0  0  0  0  0  0  0  0  0
  139.7330   71.3370  223.8370 C   0  0  1  0  0  0  0  0  0  0  0  0
  139.9610   71.5590  222.4330 N   0  0  0  0  0  0  0  0  0  0  0  0
  140.6780   72.6600  221.8990 C   0  0  0  0  0  0  0  0  0  0  0  0
  141.7690   72.4470  221.1380 N   0  0  0  0  0  0  0  0  0  0  0  0
  142.4910   73.4450  220.6010 C   0  0  0  0  0  0  0  0  0  0  0  0
  143.6390   73.2120  219.8000 N   0  0  0  0  0  0  0  0  0  0  0  0
  144.0180   71.8880  219.3480 C   0  0  0  0  0  0  0  0  0  0  0  0
  144.6100   71.8650  217.9800 C   0  0  0  0  0  0  0  0  0  0  0  0
  145.4390   73.0690  217.6500 C   0  0  1  0  0  0  0  0  0  0  0  0
  146.1950   72.9480  216.3670 C   0  0  0  0  0  0  0  0  0  0  0  0
  145.0700   73.0970  215.3410 C   0  0  0  0  0  0  0  0  0  0  0  0
  144.2560   74.2020  215.9900 C   0  0  0  0  0  0  0  0  0  0  0  0
  144.5380   74.1670  217.3940 N   0  0  0  0  0  0  0  0  0  0  0  0
  142.0900   74.6940  220.8450 N   0  0  0  0  0  0  0  0  0  0  0  0
  140.9900   74.9300  221.6120 C   0  0  0  0  0  0  0  0  0  0  0  0
  140.6060   76.2830  221.8430 N   0  0  0  0  0  0  0  0  0  0  0  0
  139.3500   76.5300  222.5080 C   0  0  0  0  0  0  0  0  0  0  0  0
  138.9360   77.9440  222.5580 C   0  0  0  0  0  0  0  0  0  0  0  0
  140.0380   78.9020  222.7970 C   0  0  0  0  0  0  0  0  0  0  0  0
  139.8190   80.0410  223.5600 C   0  0  0  0  0  0  0  0  0  0  0  0
  140.8670   80.9310  223.7720 C   0  0  0  0  0  0  0  0  0  0  0  0
  142.0850   80.6620  223.2290 C   0  0  0  0  0  0  0  0  0  0  0  0
  142.2820   79.5140  222.4670 C   0  0  0  0  0  0  0  0  0  0  0  0
  141.2630   78.6080  222.2340 C   0  0  0  0  0  0  0  0  0  0  0  0
  141.4270   77.3780  221.4350 C   0  0  0  0  0  0  0  0  0  0  0  0
  140.2980   73.9220  222.1280 N   0  0  0  0  0  0  0  0  0  0  0  0
  139.1810   69.9830  224.1340 C   0  0  0  0  0  0  0  0  0  0  0  0
  140.6624   67.6830  228.7607 H   0  0  0  0  0  0  0  0  0  0  0  0
  139.3646   66.4501  227.0441 H   0  0  0  0  0  0  0  0  0  0  0  0
  138.6994   67.5311  224.9416 H   0  0  0  0  0  0  0  0  0  0  0  0
  141.3084   70.0786  228.3206 H   0  0  0  0  0  0  0  0  0  0  0  0
  139.8354   72.1795  226.2411 H   0  0  0  0  0  0  0  0  0  0  0  0
  141.5161   71.8915  226.6787 H   0  0  0  0  0  0  0  0  0  0  0  0
  141.5387   72.4376  224.2723 H   0  0  0  0  0  0  0  0  0  0  0  0
  141.7518   70.6844  224.3206 H   0  0  0  0  0  0  0  0  0  0  0  0
  138.9859   72.0714  224.1725 H   0  0  0  0  0  0  0  0  0  0  0  0
  139.5560   70.8380  221.7750 H   0  0  0  0  0  0  0  0  0  0  0  0
  144.2460   74.0010  219.5130 H   0  0  0  0  0  0  0  0  0  0  0  0
  144.7574   71.4796  220.0526 H   0  0  0  0  0  0  0  0  0  0  0  0
  143.0972   71.2876  219.3084 H   0  0  0  0  0  0  0  0  0  0  0  0
  145.2479   70.9729  217.8949 H   0  0  0  0  0  0  0  0  0  0  0  0
  143.7688   71.8560  217.2713 H   0  0  0  0  0  0  0  0  0  0  0  0
  146.1333   73.1968  218.4936 H   0  0  0  0  0  0  0  0  0  0  0  0
  146.9430   73.7478  216.2634 H   0  0  0  0  0  0  0  0  0  0  0  0
  146.7724   72.0167  216.2704 H   0  0  0  0  0  0  0  0  0  0  0  0
  145.4549   73.3998  214.3560 H   0  0  0  0  0  0  0  0  0  0  0  0
  144.5099   72.1731  215.1342 H   0  0  0  0  0  0  0  0  0  0  0  0
  144.5443   75.1777  215.5719 H   0  0  0  0  0  0  0  0  0  0  0  0
  143.1817   74.0565  215.8037 H   0  0  0  0  0  0  0  0  0  0  0  0
  144.7910   75.0620  217.8310 H   0  0  0  0  0  0  0  0  0  0  0  0
  138.5680   75.9645  221.9801 H   0  0  0  0  0  0  0  0  0  0  0  0
  139.4894   76.2146  223.5526 H   0  0  0  0  0  0  0  0  0  0  0  0
  138.4640   78.1972  221.5972 H   0  0  0  0  0  0  0  0  0  0  0  0
  138.2514   78.0376  223.4139 H   0  0  0  0  0  0  0  0  0  0  0  0
  138.8269   80.2377  223.9925 H   0  0  0  0  0  0  0  0  0  0  0  0
  140.7128   81.8406  224.3710 H   0  0  0  0  0  0  0  0  0  0  0  0
  142.9212   81.3576  223.3935 H   0  0  0  0  0  0  0  0  0  0  0  0
  143.2764   79.3217  222.0378 H   0  0  0  0  0  0  0  0  0  0  0  0
  141.1851   77.6153  220.3885 H   0  0  0  0  0  0  0  0  0  0  0  0
  142.4683   77.0534  221.5779 H   0  0  0  0  0  0  0  0  0  0  0  0
  138.0834   70.0549  224.1452 H   0  0  0  0  0  0  0  0  0  0  0  0
  139.5615   69.3123  223.3495 H   0  0  0  0  0  0  0  0  0  0  0  0
  1  2  2  0
  2  3  1  0
  3  4  2  0
  4  5  1  0
  5  6  2  0
  5  7  1  0
  7  8  1  0
  8  9  1  0
  9 10  1  0
 10 11  1  0
 11 12  2  0
 12 13  1  0
 13 14  1  0
 14 15  1  0
 15 16  1  0
 16 17  1  0
 17 18  1  0
 18 19  1  0
 19 20  1  0
 20 21  1  0
 13 22  2  0
 22 23  1  0
 23 24  1  0
 24 25  1  0
 25 26  1  0
 26 27  1  0
 27 28  2  0
 28 29  1  0
 29 30  2  0
 30 31  1  0
 31 32  2  0
 32 33  1  0
 23 34  2  0
  9 35  1  0
  6  1  1  0
 34 11  1  0
 35  4  1  0
 21 17  1  0
 33 24  1  0
 32 27  1  0
  1 36  1  0
  2 37  1  0
  3 38  1  0
  6 39  1  0
  7 40  1  0
  7 41  1  0
  8 42  1  0
  8 43  1  0
  9 44  1  1
 10 45  1  0
 14 46  1  0
 15 47  1  0
 15 48  1  0
 16 49  1  0
 16 50  1  0
 17 51  1  1
 18 52  1  0
 18 53  1  0
 19 54  1  0
 19 55  1  0
 20 56  1  0
 20 57  1  0
 21 58  1  0
 25 59  1  0
 25 60  1  0
 26 61  1  0
 26 62  1  0
 28 63  1  0
 29 64  1  0
 30 65  1  0
 31 66  1  0
 33 67  1  0
 33 68  1  0
 35 69  1  0
 35 70  1  0
M  END
>  <smiles>  (175) 
c1ccc2c(c1)CCC(Nc1nc(NCCC3CCCN3)nc(N3CCc4ccccc4C3)n1)C2

>  <score_type>  (175) 
oracle

>  <origin>  (175) 
autodockgpu

>  <m_score__min__energy>  (175) 
-11.550000000000001

>  <m_primary>  (175) 
energy

>  <rmsd>  (175) 
11.948257992812751

>  <m_score__min__rmsd>  (175) 
11.948257992812751

>  <meeko>  (175) 
{"free_energy": -9.67, "intermolecular_energy": -11.75, "internal_energy": -1.47, "cluster_size": 31, "cluster_id": 1, "rank_in_cluster": 29}

>  <energy>  (175) 
-9.7

>  <cluster_rmsd>  (175) 
1.1

>  <cluster>  (175) 
1

$$$$

     RDKit          3D

 70 75  0  0  1  0  0  0  0  0999 V2000
  140.2120   70.4130  227.9690 C   0  0  0  0  0  0  0  0  0  0  0  0
  140.9670   71.5010  227.5740 C   0  0  0  0  0  0  0  0  0  0  0  0
  141.0170   71.8980  226.2610 C   0  0  0  0  0  0  0  0  0  0  0  0
  140.3090   71.2210  225.2920 C   0  0  0  0  0  0  0  0  0  0  0  0
  139.5550   70.1400  225.6760 C   0  0  0  0  0  0  0  0  0  0  0  0
  139.4850   69.7120  227.0040 C   0  0  0  0  0  0  0  0  0  0  0  0
  138.7990   69.4280  224.5940 C   0  0  0  0  0  0  0  0  0  0  0  0
  138.2780   70.5510  223.6870 C   0  0  0  0  0  0  0  0  0  0  0  0
  139.4900   71.0530  222.9350 C   0  0  1  0  0  0  0  0  0  0  0  0
  139.0390   71.9340  221.8900 N   0  0  0  0  0  0  0  0  0  0  0  0
  138.4620   73.2110  222.1070 C   0  0  0  0  0  0  0  0  0  0  0  0
  137.1890   73.3090  222.5380 N   0  0  0  0  0  0  0  0  0  0  0  0
  136.5840   74.4870  222.7650 C   0  0  0  0  0  0  0  0  0  0  0  0
  135.2430   74.5820  223.2200 N   0  0  0  0  0  0  0  0  0  0  0  0
  134.6050   73.5320  223.9900 C   0  0  0  0  0  0  0  0  0  0  0  0
  134.2260   73.9450  225.3710 C   0  0  0  0  0  0  0  0  0  0  0  0
  133.0220   73.2380  225.9150 C   0  0  1  0  0  0  0  0  0  0  0  0
  132.7950   71.8870  225.3190 C   0  0  0  0  0  0  0  0  0  0  0  0
  133.9120   71.0770  225.9780 C   0  0  0  0  0  0  0  0  0  0  0  0
  133.8550   71.6350  227.3890 C   0  0  0  0  0  0  0  0  0  0  0  0
  133.2750   72.9420  227.3040 N   0  0  0  0  0  0  0  0  0  0  0  0
  137.2940   75.5960  222.5460 N   0  0  0  0  0  0  0  0  0  0  0  0
  138.5810   75.5170  222.1090 C   0  0  0  0  0  0  0  0  0  0  0  0
  139.2950   76.7310  221.8910 N   0  0  0  0  0  0  0  0  0  0  0  0
  138.6430   77.7780  221.1420 C   0  0  0  0  0  0  0  0  0  0  0  0
  139.4970   78.9320  220.8060 C   0  0  0  0  0  0  0  0  0  0  0  0
  140.4360   79.3370  221.8760 C   0  0  0  0  0  0  0  0  0  0  0  0
  140.7360   80.6780  222.0690 C   0  0  0  0  0  0  0  0  0  0  0  0
  141.6230   81.0400  223.0790 C   0  0  0  0  0  0  0  0  0  0  0  0
  142.1730   80.0680  223.8560 C   0  0  0  0  0  0  0  0  0  0  0  0
  141.8580   78.7290  223.6440 C   0  0  0  0  0  0  0  0  0  0  0  0
  140.9820   78.3340  222.6500 C   0  0  0  0  0  0  0  0  0  0  0  0
  140.6190   76.9270  222.3900 C   0  0  0  0  0  0  0  0  0  0  0  0
  139.1510   74.3380  221.8950 N   0  0  0  0  0  0  0  0  0  0  0  0
  140.4150   71.7140  223.9020 C   0  0  0  0  0  0  0  0  0  0  0  0
  140.1841   70.1045  229.0245 H   0  0  0  0  0  0  0  0  0  0  0  0
  141.5401   72.0608  228.3278 H   0  0  0  0  0  0  0  0  0  0  0  0
  141.6296   72.7670  225.9790 H   0  0  0  0  0  0  0  0  0  0  0  0
  138.8714   68.8428  227.2833 H   0  0  0  0  0  0  0  0  0  0  0  0
  139.4636   68.7532  224.0347 H   0  0  0  0  0  0  0  0  0  0  0  0
  137.9873   68.8019  224.9931 H   0  0  0  0  0  0  0  0  0  0  0  0
  137.5242   70.1619  222.9867 H   0  0  0  0  0  0  0  0  0  0  0  0
  137.7934   71.3522  224.2643 H   0  0  0  0  0  0  0  0  0  0  0  0
  140.0507   70.2343  222.4603 H   0  0  0  0  0  0  0  0  0  0  0  0
  139.1580   71.5820  220.9000 H   0  0  0  0  0  0  0  0  0  0  0  0
  134.6760   75.4230  223.0070 H   0  0  0  0  0  0  0  0  0  0  0  0
  133.6940   73.2175  223.4597 H   0  0  0  0  0  0  0  0  0  0  0  0
  135.3370   72.7169  224.0887 H   0  0  0  0  0  0  0  0  0  0  0  0
  135.0766   73.7406  226.0378 H   0  0  0  0  0  0  0  0  0  0  0  0
  133.9698   75.0136  225.3222 H   0  0  0  0  0  0  0  0  0  0  0  0
  132.1666   73.8976  225.7072 H   0  0  0  0  0  0  0  0  0  0  0  0
  131.8025   71.4924  225.5821 H   0  0  0  0  0  0  0  0  0  0  0  0
  132.8154   71.8707  224.2193 H   0  0  0  0  0  0  0  0  0  0  0  0
  133.6986   69.9981  225.9580 H   0  0  0  0  0  0  0  0  0  0  0  0
  134.8933   71.1623  225.4883 H   0  0  0  0  0  0  0  0  0  0  0  0
  133.2339   70.9877  228.0256 H   0  0  0  0  0  0  0  0  0  0  0  0
  134.8610   71.6820  227.8315 H   0  0  0  0  0  0  0  0  0  0  0  0
  132.5010   73.1410  227.9500 H   0  0  0  0  0  0  0  0  0  0  0  0
  138.2717   77.3438  220.2020 H   0  0  0  0  0  0  0  0  0  0  0  0
  137.8444   78.1668  221.7908 H   0  0  0  0  0  0  0  0  0  0  0  0
  140.0852   78.6748  219.9128 H   0  0  0  0  0  0  0  0  0  0  0  0
  138.8201   79.7843  220.6467 H   0  0  0  0  0  0  0  0  0  0  0  0
  140.2775   81.4473  221.4303 H   0  0  0  0  0  0  0  0  0  0  0  0
  141.8757   82.0974  223.2465 H   0  0  0  0  0  0  0  0  0  0  0  0
  142.8729   80.3428  224.6589 H   0  0  0  0  0  0  0  0  0  0  0  0
  142.3190   77.9634  224.2854 H   0  0  0  0  0  0  0  0  0  0  0  0
  141.3263   76.5223  221.6511 H   0  0  0  0  0  0  0  0  0  0  0  0
  140.6627   76.4121  223.3610 H   0  0  0  0  0  0  0  0  0  0  0  0
  141.4465   71.5490  223.5574 H   0  0  0  0  0  0  0  0  0  0  0  0
  140.1324   72.7768  223.9263 H   0  0  0  0  0  0  0  0  0  0  0  0
  1  2  2  0
  2  3  1  0
  3  4  2  0
  4  5  1  0
  5  6  2  0
  5  7  1  0
  7  8  1  0
  8  9  1  0
  9 10  1  0
 10 11  1  0
 11 12  2  0
 12 13  1  0
 13 14  1  0
 14 15  1  0
 15 16  1  0
 16 17  1  0
 17 18  1  0
 18 19  1  0
 19 20  1  0
 20 21  1  0
 13 22  2  0
 22 23  1  0
 23 24  1  0
 24 25  1  0
 25 26  1  0
 26 27  1  0
 27 28  2  0
 28 29  1  0
 29 30  2  0
 30 31  1  0
 31 32  2  0
 32 33  1  0
 23 34  2  0
  9 35  1  0
  6  1  1  0
 34 11  1  0
 35  4  1  0
 21 17  1  0
 33 24  1  0
 32 27  1  0
  1 36  1  0
  2 37  1  0
  3 38  1  0
  6 39  1  0
  7 40  1  0
  7 41  1  0
  8 42  1  0
  8 43  1  0
  9 44  1  6
 10 45  1  0
 14 46  1  0
 15 47  1  0
 15 48  1  0
 16 49  1  0
 16 50  1  0
 17 51  1  1
 18 52  1  0
 18 53  1  0
 19 54  1  0
 19 55  1  0
 20 56  1  0
 20 57  1  0
 21 58  1  0
 25 59  1  0
 25 60  1  0
 26 61  1  0
 26 62  1  0
 28 63  1  0
 29 64  1  0
 30 65  1  0
 31 66  1  0
 33 67  1  0
 33 68  1  0
 35 69  1  0
 35 70  1  0
M  END
>  <smiles>  (176) 
c1ccc2c(c1)CCC(Nc1nc(NCCC3CCCN3)nc(N3CCc4ccccc4C3)n1)C2

>  <score_type>  (176) 
oracle

>  <origin>  (176) 
autodockgpu

>  <m_score__min__energy>  (176) 
-11.550000000000001

>  <m_primary>  (176) 
energy

>  <rmsd>  (176) 
11.079984709646029

>  <m_score__min__rmsd>  (176) 
11.079984709646029

>  <meeko>  (176) 
{"free_energy": -9.9, "intermolecular_energy": -11.99, "internal_energy": -1.21, "cluster_size": 5, "cluster_id": 3, "rank_in_cluster": 4}

>  <energy>  (176) 
-9.7

>  <cluster_rmsd>  (176) 
1.67

>  <cluster>  (176) 
1

$$$$

     RDKit          3D

 70 75  0  0  1  0  0  0  0  0999 V2000
  140.8350   68.9430  228.6990 C   0  0  0  0  0  0  0  0  0  0  0  0
  139.9460   68.1380  228.0110 C   0  0  0  0  0  0  0  0  0  0  0  0
  139.4050   68.5310  226.8120 C   0  0  0  0  0  0  0  0  0  0  0  0
  139.7350   69.7470  226.2540 C   0  0  0  0  0  0  0  0  0  0  0  0
  140.6170   70.5530  226.9310 C   0  0  0  0  0  0  0  0  0  0  0  0
  141.1840   70.1800  228.1510 C   0  0  0  0  0  0  0  0  0  0  0  0
  140.9520   71.8680  226.2930 C   0  0  0  0  0  0  0  0  0  0  0  0
  141.0620   71.5520  224.7960 C   0  0  0  0  0  0  0  0  0  0  0  0
  139.6400   71.3370  224.3260 C   0  0  1  0  0  0  0  0  0  0  0  0
  139.6440   71.2810  222.8880 N   0  0  0  0  0  0  0  0  0  0  0  0
  140.1120   72.3180  222.0430 C   0  0  0  0  0  0  0  0  0  0  0  0
  140.7850   72.0150  220.9150 N   0  0  0  0  0  0  0  0  0  0  0  0
  141.2530   72.9500  220.0720 C   0  0  0  0  0  0  0  0  0  0  0  0
  141.9590   72.6230  218.8850 N   0  0  0  0  0  0  0  0  0  0  0  0
  142.8980   71.5210  218.8160 C   0  0  0  0  0  0  0  0  0  0  0  0
  144.2490   71.8460  219.3550 C   0  0  0  0  0  0  0  0  0  0  0  0
  144.6380   73.2860  219.2110 C   0  0  1  0  0  0  0  0  0  0  0  0
  144.4330   74.0940  220.4510 C   0  0  0  0  0  0  0  0  0  0  0  0
  145.5760   73.5870  221.3320 C   0  0  0  0  0  0  0  0  0  0  0  0
  146.6880   73.4890  220.3030 C   0  0  0  0  0  0  0  0  0  0  0  0
  146.0670   73.3390  219.0210 N   0  0  0  0  0  0  0  0  0  0  0  0
  141.0310   74.2290  220.3850 N   0  0  0  0  0  0  0  0  0  0  0  0
  140.3550   74.5540  221.5210 C   0  0  0  0  0  0  0  0  0  0  0  0
  140.1460   75.9350  221.8100 N   0  0  0  0  0  0  0  0  0  0  0  0
  138.9920   76.2990  222.5940 C   0  0  0  0  0  0  0  0  0  0  0  0
  138.7440   77.7480  222.7070 C   0  0  0  0  0  0  0  0  0  0  0  0
  139.9620   78.5730  222.8570 C   0  0  0  0  0  0  0  0  0  0  0  0
  139.9420   79.7080  223.6560 C   0  0  0  0  0  0  0  0  0  0  0  0
  141.0980   80.4720  223.7840 C   0  0  0  0  0  0  0  0  0  0  0  0
  142.2230   80.0870  223.1240 C   0  0  0  0  0  0  0  0  0  0  0  0
  142.2210   78.9450  222.3280 C   0  0  0  0  0  0  0  0  0  0  0  0
  141.0910   78.1620  222.1770 C   0  0  0  0  0  0  0  0  0  0  0  0
  141.0430   76.9450  221.3450 C   0  0  0  0  0  0  0  0  0  0  0  0
  139.9040   73.6070  222.3340 N   0  0  0  0  0  0  0  0  0  0  0  0
  139.1090   70.0960  224.9610 C   0  0  0  0  0  0  0  0  0  0  0  0
  141.2595   68.6158  229.6596 H   0  0  0  0  0  0  0  0  0  0  0  0
  139.6662   67.1617  228.4334 H   0  0  0  0  0  0  0  0  0  0  0  0
  138.6997   67.8673  226.2905 H   0  0  0  0  0  0  0  0  0  0  0  0
  141.8900   70.8454  228.6695 H   0  0  0  0  0  0  0  0  0  0  0  0
  140.1554   72.6038  226.4775 H   0  0  0  0  0  0  0  0  0  0  0  0
  141.8769   72.3053  226.6971 H   0  0  0  0  0  0  0  0  0  0  0  0
  141.5223   72.3936  224.2577 H   0  0  0  0  0  0  0  0  0  0  0  0
  141.6927   70.6704  224.6090 H   0  0  0  0  0  0  0  0  0  0  0  0
  138.9759   72.1619  224.6236 H   0  0  0  0  0  0  0  0  0  0  0  0
  139.2650   70.3930  222.4560 H   0  0  0  0  0  0  0  0  0  0  0  0
  141.8160   73.1780  218.0210 H   0  0  0  0  0  0  0  0  0  0  0  0
  142.4877   70.6794  219.3933 H   0  0  0  0  0  0  0  0  0  0  0  0
  143.0283   71.2779  217.7511 H   0  0  0  0  0  0  0  0  0  0  0  0
  144.2644   71.5899  220.4247 H   0  0  0  0  0  0  0  0  0  0  0  0
  144.9726   71.2629  218.7665 H   0  0  0  0  0  0  0  0  0  0  0  0
  144.0237   73.6827  218.3893 H   0  0  0  0  0  0  0  0  0  0  0  0
  144.5272   75.1713  220.2497 H   0  0  0  0  0  0  0  0  0  0  0  0
  143.4351   73.9838  220.9004 H   0  0  0  0  0  0  0  0  0  0  0  0
  145.8223   74.3021  222.1307 H   0  0  0  0  0  0  0  0  0  0  0  0
  145.3627   72.6517  221.8702 H   0  0  0  0  0  0  0  0  0  0  0  0
  147.2996   74.4031  220.3208 H   0  0  0  0  0  0  0  0  0  0  0  0
  147.3466   72.6351  220.5201 H   0  0  0  0  0  0  0  0  0  0  0  0
  146.3950   73.9700  218.2780 H   0  0  0  0  0  0  0  0  0  0  0  0
  138.1069   75.8368  222.1324 H   0  0  0  0  0  0  0  0  0  0  0  0
  139.1906   75.9418  223.6152 H   0  0  0  0  0  0  0  0  0  0  0  0
  138.2166   78.0773  221.7995 H   0  0  0  0  0  0  0  0  0  0  0  0
  138.1559   77.8921  223.6253 H   0  0  0  0  0  0  0  0  0  0  0  0
  139.0216   80.0005  224.1827 H   0  0  0  0  0  0  0  0  0  0  0  0
  141.1018   81.3758  224.4110 H   0  0  0  0  0  0  0  0  0  0  0  0
  143.1425   80.6831  223.2200 H   0  0  0  0  0  0  0  0  0  0  0  0
  143.1444   78.6571  221.8042 H   0  0  0  0  0  0  0  0  0  0  0  0
  140.7336   77.2364  220.3304 H   0  0  0  0  0  0  0  0  0  0  0  0
  142.0504   76.5049  221.3827 H   0  0  0  0  0  0  0  0  0  0  0  0
  138.0302   70.2313  225.1281 H   0  0  0  0  0  0  0  0  0  0  0  0
  139.3401   69.2708  224.2713 H   0  0  0  0  0  0  0  0  0  0  0  0
  1  2  2  0
  2  3  1  0
  3  4  2  0
  4  5  1  0
  5  6  2  0
  5  7  1  0
  7  8  1  0
  8  9  1  0
  9 10  1  0
 10 11  1  0
 11 12  2  0
 12 13  1  0
 13 14  1  0
 14 15  1  0
 15 16  1  0
 16 17  1  0
 17 18  1  0
 18 19  1  0
 19 20  1  0
 20 21  1  0
 13 22  2  0
 22 23  1  0
 23 24  1  0
 24 25  1  0
 25 26  1  0
 26 27  1  0
 27 28  2  0
 28 29  1  0
 29 30  2  0
 30 31  1  0
 31 32  2  0
 32 33  1  0
 23 34  2  0
  9 35  1  0
  6  1  1  0
 34 11  1  0
 35  4  1  0
 21 17  1  0
 33 24  1  0
 32 27  1  0
  1 36  1  0
  2 37  1  0
  3 38  1  0
  6 39  1  0
  7 40  1  0
  7 41  1  0
  8 42  1  0
  8 43  1  0
  9 44  1  6
 10 45  1  0
 14 46  1  0
 15 47  1  0
 15 48  1  0
 16 49  1  0
 16 50  1  0
 17 51  1  6
 18 52  1  0
 18 53  1  0
 19 54  1  0
 19 55  1  0
 20 56  1  0
 20 57  1  0
 21 58  1  0
 25 59  1  0
 25 60  1  0
 26 61  1  0
 26 62  1  0
 28 63  1  0
 29 64  1  0
 30 65  1  0
 31 66  1  0
 33 67  1  0
 33 68  1  0
 35 69  1  0
 35 70  1  0
M  END
>  <smiles>  (177) 
c1ccc2c(c1)CCC(Nc1nc(NCCC3CCCN3)nc(N3CCc4ccccc4C3)n1)C2

>  <score_type>  (177) 
oracle

>  <origin>  (177) 
autodockgpu

>  <m_score__min__energy>  (177) 
-11.550000000000001

>  <m_primary>  (177) 
energy

>  <rmsd>  (177) 
11.914994613649922

>  <m_score__min__rmsd>  (177) 
11.914994613649922

>  <meeko>  (177) 
{"free_energy": -11.14, "intermolecular_energy": -13.23, "internal_energy": -1.31, "cluster_size": 31, "cluster_id": 1, "rank_in_cluster": 2}

>  <energy>  (177) 
-9.7

>  <cluster_rmsd>  (177) 
1.46

>  <cluster>  (177) 
1

$$$$

     RDKit          3D

 70 75  0  0  1  0  0  0  0  0999 V2000
  140.8860   70.2640  228.3830 C   0  0  0  0  0  0  0  0  0  0  0  0
  141.2250   71.5720  228.0930 C   0  0  0  0  0  0  0  0  0  0  0  0
  141.1100   72.0760  226.8210 C   0  0  0  0  0  0  0  0  0  0  0  0
  140.6490   71.2870  225.7890 C   0  0  0  0  0  0  0  0  0  0  0  0
  140.3090   69.9860  226.0680 C   0  0  0  0  0  0  0  0  0  0  0  0
  140.4150   69.4460  227.3520 C   0  0  0  0  0  0  0  0  0  0  0  0
  139.8110   69.1590  224.9210 C   0  0  0  0  0  0  0  0  0  0  0  0
  138.9250   70.1170  224.1130 C   0  0  0  0  0  0  0  0  0  0  0  0
  139.8830   71.0600  223.4200 C   0  0  1  0  0  0  0  0  0  0  0  0
  139.1400   71.8260  222.4540 N   0  0  0  0  0  0  0  0  0  0  0  0
  139.6860   72.8660  221.6600 C   0  0  0  0  0  0  0  0  0  0  0  0
  140.2620   72.5790  220.4760 N   0  0  0  0  0  0  0  0  0  0  0  0
  140.7960   73.5170  219.6770 C   0  0  0  0  0  0  0  0  0  0  0  0
  141.4000   73.2060  218.4310 N   0  0  0  0  0  0  0  0  0  0  0  0
  142.5280   73.9480  217.9050 C   0  0  0  0  0  0  0  0  0  0  0  0
  143.8400   73.5390  218.4830 C   0  0  0  0  0  0  0  0  0  0  0  0
  143.7340   72.7760  219.7680 C   0  0  1  0  0  0  0  0  0  0  0  0
  144.8360   71.7880  219.9750 C   0  0  0  0  0  0  0  0  0  0  0  0
  146.0110   72.7120  220.2990 C   0  0  0  0  0  0  0  0  0  0  0  0
  145.3190   73.7280  221.1890 C   0  0  0  0  0  0  0  0  0  0  0  0
  143.9270   73.7090  220.8510 N   0  0  0  0  0  0  0  0  0  0  0  0
  140.7420   74.7840  220.0940 N   0  0  0  0  0  0  0  0  0  0  0  0
  140.1640   75.0950  221.2870 C   0  0  0  0  0  0  0  0  0  0  0  0
  140.1340   76.4630  221.6860 N   0  0  0  0  0  0  0  0  0  0  0  0
  139.0590   76.8980  222.5440 C   0  0  0  0  0  0  0  0  0  0  0  0
  138.9920   78.3520  222.7740 C   0  0  0  0  0  0  0  0  0  0  0  0
  140.3050   79.0140  222.9320 C   0  0  0  0  0  0  0  0  0  0  0  0
  140.4490   80.0770  223.8130 C   0  0  0  0  0  0  0  0  0  0  0  0
  141.6920   80.6880  223.9480 C   0  0  0  0  0  0  0  0  0  0  0  0
  142.7400   80.2250  223.2130 C   0  0  0  0  0  0  0  0  0  0  0  0
  142.5730   79.1580  222.3350 C   0  0  0  0  0  0  0  0  0  0  0  0
  141.3520   78.5280  222.1760 C   0  0  0  0  0  0  0  0  0  0  0  0
  141.1300   77.3940  221.2590 C   0  0  0  0  0  0  0  0  0  0  0  0
  139.6450   74.1440  222.0540 N   0  0  0  0  0  0  0  0  0  0  0  0
  140.5540   71.9050  224.4490 C   0  0  0  0  0  0  0  0  0  0  0  0
  140.9850   69.8737  229.4066 H   0  0  0  0  0  0  0  0  0  0  0  0
  141.5949   72.2233  228.8986 H   0  0  0  0  0  0  0  0  0  0  0  0
  141.3890   73.1215  226.6232 H   0  0  0  0  0  0  0  0  0  0  0  0
  140.1341   68.4006  227.5473 H   0  0  0  0  0  0  0  0  0  0  0  0
  140.6505   68.7967  224.3095 H   0  0  0  0  0  0  0  0  0  0  0  0
  139.2640   68.2654  225.2560 H   0  0  0  0  0  0  0  0  0  0  0  0
  138.3303   69.5604  223.3738 H   0  0  0  0  0  0  0  0  0  0  0  0
  138.2126   70.6557  224.7550 H   0  0  0  0  0  0  0  0  0  0  0  0
  140.6754   70.5216  222.8794 H   0  0  0  0  0  0  0  0  0  0  0  0
  138.1180   71.5770  222.3470 H   0  0  0  0  0  0  0  0  0  0  0  0
  141.0400   72.4220  217.8560 H   0  0  0  0  0  0  0  0  0  0  0  0
  142.5661   73.7955  216.8163 H   0  0  0  0  0  0  0  0  0  0  0  0
  142.3728   75.0024  218.1774 H   0  0  0  0  0  0  0  0  0  0  0  0
  144.3586   72.9061  217.7478 H   0  0  0  0  0  0  0  0  0  0  0  0
  144.3880   74.4654  218.7098 H   0  0  0  0  0  0  0  0  0  0  0  0
  142.7607   72.2645  219.7353 H   0  0  0  0  0  0  0  0  0  0  0  0
  144.6156   71.1086  220.8115 H   0  0  0  0  0  0  0  0  0  0  0  0
  145.0104   71.1218  219.1172 H   0  0  0  0  0  0  0  0  0  0  0  0
  146.8114   72.1802  220.8343 H   0  0  0  0  0  0  0  0  0  0  0  0
  146.5175   73.1384  219.4206 H   0  0  0  0  0  0  0  0  0  0  0  0
  145.4538   73.4564  222.2464 H   0  0  0  0  0  0  0  0  0  0  0  0
  145.7435   74.7316  221.0390 H   0  0  0  0  0  0  0  0  0  0  0  0
  143.2680   73.6230  221.6350 H   0  0  0  0  0  0  0  0  0  0  0  0
  138.1095   76.5810  222.0880 H   0  0  0  0  0  0  0  0  0  0  0  0
  139.2472   76.4408  223.5266 H   0  0  0  0  0  0  0  0  0  0  0  0
  138.4778   78.8111  221.9168 H   0  0  0  0  0  0  0  0  0  0  0  0
  138.4573   78.4917  223.7251 H   0  0  0  0  0  0  0  0  0  0  0  0
  139.5888   80.4330  224.3989 H   0  0  0  0  0  0  0  0  0  0  0  0
  141.8258   81.5333  224.6390 H   0  0  0  0  0  0  0  0  0  0  0  0
  143.7278   80.6984  223.3138 H   0  0  0  0  0  0  0  0  0  0  0  0
  143.4363   78.8059  221.7512 H   0  0  0  0  0  0  0  0  0  0  0  0
  140.8241   77.7984  220.2828 H   0  0  0  0  0  0  0  0  0  0  0  0
  142.0778   76.8370  221.2210 H   0  0  0  0  0  0  0  0  0  0  0  0
  141.5737   72.1251  224.1000 H   0  0  0  0  0  0  0  0  0  0  0  0
  139.9329   72.8054  224.5652 H   0  0  0  0  0  0  0  0  0  0  0  0
  1  2  2  0
  2  3  1  0
  3  4  2  0
  4  5  1  0
  5  6  2  0
  5  7  1  0
  7  8  1  0
  8  9  1  0
  9 10  1  0
 10 11  1  0
 11 12  2  0
 12 13  1  0
 13 14  1  0
 14 15  1  0
 15 16  1  0
 16 17  1  0
 17 18  1  0
 18 19  1  0
 19 20  1  0
 20 21  1  0
 13 22  2  0
 22 23  1  0
 23 24  1  0
 24 25  1  0
 25 26  1  0
 26 27  1  0
 27 28  2  0
 28 29  1  0
 29 30  2  0
 30 31  1  0
 31 32  2  0
 32 33  1  0
 23 34  2  0
  9 35  1  0
  6  1  1  0
 34 11  1  0
 35  4  1  0
 21 17  1  0
 33 24  1  0
 32 27  1  0
  1 36  1  0
  2 37  1  0
  3 38  1  0
  6 39  1  0
  7 40  1  0
  7 41  1  0
  8 42  1  0
  8 43  1  0
  9 44  1  6
 10 45  1  0
 14 46  1  0
 15 47  1  0
 15 48  1  0
 16 49  1  0
 16 50  1  0
 17 51  1  1
 18 52  1  0
 18 53  1  0
 19 54  1  0
 19 55  1  0
 20 56  1  0
 20 57  1  0
 21 58  1  0
 25 59  1  0
 25 60  1  0
 26 61  1  0
 26 62  1  0
 28 63  1  0
 29 64  1  0
 30 65  1  0
 31 66  1  0
 33 67  1  0
 33 68  1  0
 35 69  1  0
 35 70  1  0
M  END
>  <smiles>  (178) 
c1ccc2c(c1)CCC(Nc1nc(NCCC3CCCN3)nc(N3CCc4ccccc4C3)n1)C2

>  <score_type>  (178) 
oracle

>  <origin>  (178) 
autodockgpu

>  <m_score__min__energy>  (178) 
-11.550000000000001

>  <m_primary>  (178) 
energy

>  <rmsd>  (178) 
11.269958236926213

>  <m_score__min__rmsd>  (178) 
11.269958236926213

>  <meeko>  (178) 
{"free_energy": -9.7, "intermolecular_energy": -11.79, "internal_energy": -1.33, "cluster_size": 31, "cluster_id": 1, "rank_in_cluster": 25}

>  <energy>  (178) 
-9.68

>  <cluster_rmsd>  (178) 
1.75

>  <cluster>  (178) 
1

$$$$

     RDKit          3D

 70 75  0  0  1  0  0  0  0  0999 V2000
  139.9530   70.2040  228.3080 C   0  0  0  0  0  0  0  0  0  0  0  0
  140.6290   71.3930  228.1100 C   0  0  0  0  0  0  0  0  0  0  0  0
  140.8560   71.8860  226.8490 C   0  0  0  0  0  0  0  0  0  0  0  0
  140.4110   71.2060  225.7350 C   0  0  0  0  0  0  0  0  0  0  0  0
  139.7380   70.0240  225.9230 C   0  0  0  0  0  0  0  0  0  0  0  0
  139.4930   69.4980  227.1940 C   0  0  0  0  0  0  0  0  0  0  0  0
  139.2690   69.3130  224.6890 C   0  0  0  0  0  0  0  0  0  0  0  0
  138.7820   70.4340  223.7620 C   0  0  0  0  0  0  0  0  0  0  0  0
  140.0360   71.1180  223.2650 C   0  0  1  0  0  0  0  0  0  0  0  0
  139.6690   72.0170  222.2020 N   0  0  0  0  0  0  0  0  0  0  0  0
  138.7700   73.1040  222.3420 C   0  0  0  0  0  0  0  0  0  0  0  0
  137.4530   72.8710  222.5120 N   0  0  0  0  0  0  0  0  0  0  0  0
  136.5500   73.8560  222.6520 C   0  0  0  0  0  0  0  0  0  0  0  0
  135.1660   73.6030  222.8320 N   0  0  0  0  0  0  0  0  0  0  0  0
  134.2280   74.6370  223.2220 C   0  0  0  0  0  0  0  0  0  0  0  0
  133.4020   74.2830  224.4110 C   0  0  0  0  0  0  0  0  0  0  0  0
  134.1520   74.3040  225.7080 C   0  0  1  0  0  0  0  0  0  0  0  0
  134.7230   75.6410  226.0540 C   0  0  0  0  0  0  0  0  0  0  0  0
  133.4630   76.4130  226.4490 C   0  0  0  0  0  0  0  0  0  0  0  0
  132.7250   75.3420  227.2330 C   0  0  0  0  0  0  0  0  0  0  0  0
  133.2020   74.0730  226.7700 N   0  0  0  0  0  0  0  0  0  0  0  0
  137.0000   75.1130  222.6190 N   0  0  0  0  0  0  0  0  0  0  0  0
  138.3260   75.3680  222.4470 C   0  0  0  0  0  0  0  0  0  0  0  0
  138.7530   76.7270  222.4180 N   0  0  0  0  0  0  0  0  0  0  0  0
  137.7760   77.7540  222.6870 C   0  0  0  0  0  0  0  0  0  0  0  0
  138.2430   79.1350  222.4710 C   0  0  0  0  0  0  0  0  0  0  0  0
  139.6370   79.3880  222.8950 C   0  0  0  0  0  0  0  0  0  0  0  0
  139.9880   80.6150  223.4420 C   0  0  0  0  0  0  0  0  0  0  0  0
  141.3040   80.8360  223.8340 C   0  0  0  0  0  0  0  0  0  0  0  0
  142.2190   79.8410  223.6730 C   0  0  0  0  0  0  0  0  0  0  0  0
  141.8450   78.6190  223.1210 C   0  0  0  0  0  0  0  0  0  0  0  0
  140.5460   78.3650  222.7200 C   0  0  0  0  0  0  0  0  0  0  0  0
  140.1060   77.0850  222.1320 C   0  0  0  0  0  0  0  0  0  0  0  0
  139.1930   74.3730  222.3120 N   0  0  0  0  0  0  0  0  0  0  0  0
  140.6950   71.8050  224.4140 C   0  0  0  0  0  0  0  0  0  0  0  0
  139.7803   69.8206  229.3244 H   0  0  0  0  0  0  0  0  0  0  0  0
  140.9931   71.9566  228.9817 H   0  0  0  0  0  0  0  0  0  0  0  0
  141.3992   72.8345  226.7258 H   0  0  0  0  0  0  0  0  0  0  0  0
  138.9499   68.5490  227.3147 H   0  0  0  0  0  0  0  0  0  0  0  0
  140.0951   68.7552  224.2239 H   0  0  0  0  0  0  0  0  0  0  0  0
  138.4811   68.5763  224.9045 H   0  0  0  0  0  0  0  0  0  0  0  0
  138.2119   70.0160  222.9192 H   0  0  0  0  0  0  0  0  0  0  0  0
  138.1135   71.1346  224.2838 H   0  0  0  0  0  0  0  0  0  0  0  0
  140.7638   70.4013  222.8568 H   0  0  0  0  0  0  0  0  0  0  0  0
  140.1140   71.8320  221.2610 H   0  0  0  0  0  0  0  0  0  0  0  0
  134.7840   72.6500  222.6830 H   0  0  0  0  0  0  0  0  0  0  0  0
  134.7954   75.5505  223.4535 H   0  0  0  0  0  0  0  0  0  0  0  0
  133.5342   74.7743  222.3795 H   0  0  0  0  0  0  0  0  0  0  0  0
  132.5720   75.0015  224.4808 H   0  0  0  0  0  0  0  0  0  0  0  0
  133.0588   73.2487  224.2609 H   0  0  0  0  0  0  0  0  0  0  0  0
  134.9546   73.5592  225.6029 H   0  0  0  0  0  0  0  0  0  0  0  0
  135.4317   75.5713  226.8924 H   0  0  0  0  0  0  0  0  0  0  0  0
  135.3007   76.1074  225.2424 H   0  0  0  0  0  0  0  0  0  0  0  0
  133.6997   77.2858  227.0753 H   0  0  0  0  0  0  0  0  0  0  0  0
  132.8991   76.8377  225.6054 H   0  0  0  0  0  0  0  0  0  0  0  0
  132.9310   75.4526  228.3079 H   0  0  0  0  0  0  0  0  0  0  0  0
  131.6385   75.4284  227.0843 H   0  0  0  0  0  0  0  0  0  0  0  0
  133.4940   73.4040  227.4920 H   0  0  0  0  0  0  0  0  0  0  0  0
  136.9104   77.5807  222.0308 H   0  0  0  0  0  0  0  0  0  0  0  0
  137.5374   77.6760  223.7580 H   0  0  0  0  0  0  0  0  0  0  0  0
  138.1652   79.3592  221.3969 H   0  0  0  0  0  0  0  0  0  0  0  0
  137.6061   79.7800  223.0942 H   0  0  0  0  0  0  0  0  0  0  0  0
  139.2323   81.4049  223.5642 H   0  0  0  0  0  0  0  0  0  0  0  0
  141.6015   81.8019  224.2683 H   0  0  0  0  0  0  0  0  0  0  0  0
  143.2622   80.0039  223.9816 H   0  0  0  0  0  0  0  0  0  0  0  0
  142.6047   77.8326  223.0003 H   0  0  0  0  0  0  0  0  0  0  0  0
  140.2180   77.1539  221.0399 H   0  0  0  0  0  0  0  0  0  0  0  0
  140.7348   76.3043  222.5850 H   0  0  0  0  0  0  0  0  0  0  0  0
  141.7826   71.7778  224.2518 H   0  0  0  0  0  0  0  0  0  0  0  0
  140.2878   72.8265  224.4412 H   0  0  0  0  0  0  0  0  0  0  0  0
  1  2  2  0
  2  3  1  0
  3  4  2  0
  4  5  1  0
  5  6  2  0
  5  7  1  0
  7  8  1  0
  8  9  1  0
  9 10  1  0
 10 11  1  0
 11 12  2  0
 12 13  1  0
 13 14  1  0
 14 15  1  0
 15 16  1  0
 16 17  1  0
 17 18  1  0
 18 19  1  0
 19 20  1  0
 20 21  1  0
 13 22  2  0
 22 23  1  0
 23 24  1  0
 24 25  1  0
 25 26  1  0
 26 27  1  0
 27 28  2  0
 28 29  1  0
 29 30  2  0
 30 31  1  0
 31 32  2  0
 32 33  1  0
 23 34  2  0
  9 35  1  0
  6  1  1  0
 34 11  1  0
 35  4  1  0
 21 17  1  0
 33 24  1  0
 32 27  1  0
  1 36  1  0
  2 37  1  0
  3 38  1  0
  6 39  1  0
  7 40  1  0
  7 41  1  0
  8 42  1  0
  8 43  1  0
  9 44  1  6
 10 45  1  0
 14 46  1  0
 15 47  1  0
 15 48  1  0
 16 49  1  0
 16 50  1  0
 17 51  1  6
 18 52  1  0
 18 53  1  0
 19 54  1  0
 19 55  1  0
 20 56  1  0
 20 57  1  0
 21 58  1  0
 25 59  1  0
 25 60  1  0
 26 61  1  0
 26 62  1  0
 28 63  1  0
 29 64  1  0
 30 65  1  0
 31 66  1  0
 33 67  1  0
 33 68  1  0
 35 69  1  0
 35 70  1  0
M  END
>  <smiles>  (179) 
c1ccc2c(c1)CCC(Nc1nc(NCCC3CCCN3)nc(N3CCc4ccccc4C3)n1)C2

>  <score_type>  (179) 
oracle

>  <origin>  (179) 
autodockgpu

>  <m_score__min__energy>  (179) 
-11.550000000000001

>  <m_primary>  (179) 
energy

>  <rmsd>  (179) 
11.184513629055843

>  <m_score__min__rmsd>  (179) 
11.184513629055843

>  <meeko>  (179) 
{"free_energy": -10.1, "intermolecular_energy": -12.19, "internal_energy": -1.24, "cluster_size": 5, "cluster_id": 3, "rank_in_cluster": 3}

>  <energy>  (179) 
-9.67

>  <cluster_rmsd>  (179) 
1.56

>  <cluster>  (179) 
1

$$$$

     RDKit          3D

 70 75  0  0  1  0  0  0  0  0999 V2000
  140.4960   69.4210  228.2470 C   0  0  0  0  0  0  0  0  0  0  0  0
  141.0090   70.7000  228.1420 C   0  0  0  0  0  0  0  0  0  0  0  0
  140.9470   71.4020  226.9640 C   0  0  0  0  0  0  0  0  0  0  0  0
  140.3660   70.8490  225.8430 C   0  0  0  0  0  0  0  0  0  0  0  0
  139.8530   69.5800  225.9380 C   0  0  0  0  0  0  0  0  0  0  0  0
  139.9020   68.8410  227.1230 C   0  0  0  0  0  0  0  0  0  0  0  0
  139.2290   69.0110  224.6990 C   0  0  0  0  0  0  0  0  0  0  0  0
  138.4740   70.1910  224.0740 C   0  0  0  0  0  0  0  0  0  0  0  0
  139.5430   71.0900  223.4950 C   0  0  1  0  0  0  0  0  0  0  0  0
  138.9000   72.0880  222.6800 N   0  0  0  0  0  0  0  0  0  0  0  0
  139.5390   73.2480  222.1760 C   0  0  0  0  0  0  0  0  0  0  0  0
  138.9570   74.4550  222.3230 N   0  0  0  0  0  0  0  0  0  0  0  0
  139.5100   75.5920  221.8710 C   0  0  0  0  0  0  0  0  0  0  0  0
  138.8910   76.8590  222.0310 N   0  0  0  0  0  0  0  0  0  0  0  0
  138.9840   77.9040  221.0300 C   0  0  0  0  0  0  0  0  0  0  0  0
  139.8750   79.0330  221.4200 C   0  0  0  0  0  0  0  0  0  0  0  0
  141.3190   78.6570  221.5580 C   0  0  1  0  0  0  0  0  0  0  0  0
  142.2100   79.8010  221.9160 C   0  0  0  0  0  0  0  0  0  0  0  0
  141.8400   80.0220  223.3840 C   0  0  0  0  0  0  0  0  0  0  0  0
  141.7250   78.5830  223.8530 C   0  0  0  0  0  0  0  0  0  0  0  0
  141.4380   77.7830  222.7010 N   0  0  0  0  0  0  0  0  0  0  0  0
  140.6890   75.5000  221.2500 N   0  0  0  0  0  0  0  0  0  0  0  0
  141.2920   74.2890  221.0910 C   0  0  0  0  0  0  0  0  0  0  0  0
  142.5490   74.2460  220.4200 N   0  0  0  0  0  0  0  0  0  0  0  0
  143.4660   73.1860  220.7610 C   0  0  0  0  0  0  0  0  0  0  0  0
  144.8070   73.3020  220.1610 C   0  0  0  0  0  0  0  0  0  0  0  0
  144.8180   73.7940  218.7660 C   0  0  0  0  0  0  0  0  0  0  0  0
  145.7520   73.3070  217.8610 C   0  0  0  0  0  0  0  0  0  0  0  0
  145.7480   73.7830  216.5540 C   0  0  0  0  0  0  0  0  0  0  0  0
  144.8260   74.7160  216.1920 C   0  0  0  0  0  0  0  0  0  0  0  0
  143.8990   75.1910  217.1160 C   0  0  0  0  0  0  0  0  0  0  0  0
  143.8740   74.7400  218.4230 C   0  0  0  0  0  0  0  0  0  0  0  0
  142.9100   75.2150  219.4340 C   0  0  0  0  0  0  0  0  0  0  0  0
  140.7200   73.1840  221.5500 N   0  0  0  0  0  0  0  0  0  0  0  0
  140.3390   71.6710  224.6140 C   0  0  0  0  0  0  0  0  0  0  0  0
  140.5542   68.8701  229.1973 H   0  0  0  0  0  0  0  0  0  0  0  0
  141.4773   71.1657  229.0217 H   0  0  0  0  0  0  0  0  0  0  0  0
  141.3659   72.4179  226.9140 H   0  0  0  0  0  0  0  0  0  0  0  0
  139.4823   67.8253  227.1699 H   0  0  0  0  0  0  0  0  0  0  0  0
  140.0014   68.6355  224.0117 H   0  0  0  0  0  0  0  0  0  0  0  0
  138.5682   68.1589  224.9164 H   0  0  0  0  0  0  0  0  0  0  0  0
  137.7969   69.8386  223.2819 H   0  0  0  0  0  0  0  0  0  0  0  0
  137.8532   70.7175  224.8138 H   0  0  0  0  0  0  0  0  0  0  0  0
  140.2445   70.5374  222.8527 H   0  0  0  0  0  0  0  0  0  0  0  0
  137.8810   71.9200  222.4560 H   0  0  0  0  0  0  0  0  0  0  0  0
  138.3450   77.0710  222.8870 H   0  0  0  0  0  0  0  0  0  0  0  0
  139.3721   77.4608  220.1011 H   0  0  0  0  0  0  0  0  0  0  0  0
  137.9735   78.3210  220.9074 H   0  0  0  0  0  0  0  0  0  0  0  0
  139.7945   79.8169  220.6525 H   0  0  0  0  0  0  0  0  0  0  0  0
  139.5405   79.3714  222.4118 H   0  0  0  0  0  0  0  0  0  0  0  0
  141.6132   78.2317  220.5872 H   0  0  0  0  0  0  0  0  0  0  0  0
  143.2715   79.5349  221.8040 H   0  0  0  0  0  0  0  0  0  0  0  0
  142.0798   80.6892  221.2802 H   0  0  0  0  0  0  0  0  0  0  0  0
  142.6287   80.5649  223.9254 H   0  0  0  0  0  0  0  0  0  0  0  0
  140.9395   80.6327  223.5454 H   0  0  0  0  0  0  0  0  0  0  0  0
  142.6716   78.2591  224.3103 H   0  0  0  0  0  0  0  0  0  0  0  0
  140.9304   78.4807  224.6068 H   0  0  0  0  0  0  0  0  0  0  0  0
  142.0250   76.9510  222.5650 H   0  0  0  0  0  0  0  0  0  0  0  0
  143.5820   73.1745  221.8548 H   0  0  0  0  0  0  0  0  0  0  0  0
  143.0287   72.2610  220.3570 H   0  0  0  0  0  0  0  0  0  0  0  0
  145.3982   73.9976  220.7746 H   0  0  0  0  0  0  0  0  0  0  0  0
  145.2258   72.2852  220.1358 H   0  0  0  0  0  0  0  0  0  0  0  0
  146.4879   72.5520  218.1747 H   0  0  0  0  0  0  0  0  0  0  0  0
  146.4804   73.4102  215.8228 H   0  0  0  0  0  0  0  0  0  0  0  0
  144.8129   75.0982  215.1606 H   0  0  0  0  0  0  0  0  0  0  0  0
  143.1657   75.9465  216.7973 H   0  0  0  0  0  0  0  0  0  0  0  0
  143.3534   76.0793  219.9500 H   0  0  0  0  0  0  0  0  0  0  0  0
  141.9865   75.4613  218.8894 H   0  0  0  0  0  0  0  0  0  0  0  0
  141.3743   71.8022  224.2664 H   0  0  0  0  0  0  0  0  0  0  0  0
  139.8507   72.6189  224.8841 H   0  0  0  0  0  0  0  0  0  0  0  0
  1  2  2  0
  2  3  1  0
  3  4  2  0
  4  5  1  0
  5  6  2  0
  5  7  1  0
  7  8  1  0
  8  9  1  0
  9 10  1  0
 10 11  1  0
 11 12  2  0
 12 13  1  0
 13 14  1  0
 14 15  1  0
 15 16  1  0
 16 17  1  0
 17 18  1  0
 18 19  1  0
 19 20  1  0
 20 21  1  0
 13 22  2  0
 22 23  1  0
 23 24  1  0
 24 25  1  0
 25 26  1  0
 26 27  1  0
 27 28  2  0
 28 29  1  0
 29 30  2  0
 30 31  1  0
 31 32  2  0
 32 33  1  0
 23 34  2  0
  9 35  1  0
  6  1  1  0
 34 11  1  0
 35  4  1  0
 21 17  1  0
 33 24  1  0
 32 27  1  0
  1 36  1  0
  2 37  1  0
  3 38  1  0
  6 39  1  0
  7 40  1  0
  7 41  1  0
  8 42  1  0
  8 43  1  0
  9 44  1  6
 10 45  1  0
 14 46  1  0
 15 47  1  0
 15 48  1  0
 16 49  1  0
 16 50  1  0
 17 51  1  6
 18 52  1  0
 18 53  1  0
 19 54  1  0
 19 55  1  0
 20 56  1  0
 20 57  1  0
 21 58  1  0
 25 59  1  0
 25 60  1  0
 26 61  1  0
 26 62  1  0
 28 63  1  0
 29 64  1  0
 30 65  1  0
 31 66  1  0
 33 67  1  0
 33 68  1  0
 35 69  1  0
 35 70  1  0
M  END
>  <smiles>  (180) 
c1ccc2c(c1)CCC(Nc1nc(NCCC3CCCN3)nc(N3CCc4ccccc4C3)n1)C2

>  <score_type>  (180) 
oracle

>  <origin>  (180) 
autodockgpu

>  <m_score__min__energy>  (180) 
-11.550000000000001

>  <m_primary>  (180) 
energy

>  <rmsd>  (180) 
11.597877072876157

>  <m_score__min__rmsd>  (180) 
11.597877072876157

>  <meeko>  (180) 
{"free_energy": -9.61, "intermolecular_energy": -11.69, "internal_energy": -1.64, "cluster_size": 1, "cluster_id": 6, "rank_in_cluster": 1}

>  <energy>  (180) 
-9.63

>  <cluster_rmsd>  (180) 
1.88

>  <cluster>  (180) 
1

$$$$

     RDKit          3D

 70 75  0  0  1  0  0  0  0  0999 V2000
  140.0470   68.8800  228.4320 C   0  0  0  0  0  0  0  0  0  0  0  0
  141.0330   69.8410  228.3180 C   0  0  0  0  0  0  0  0  0  0  0  0
  141.1920   70.5710  227.1660 C   0  0  0  0  0  0  0  0  0  0  0  0
  140.3660   70.3650  226.0820 C   0  0  0  0  0  0  0  0  0  0  0  0
  139.3830   69.4120  226.1870 C   0  0  0  0  0  0  0  0  0  0  0  0
  139.1980   68.6550  227.3460 C   0  0  0  0  0  0  0  0  0  0  0  0
  138.5040   69.2160  224.9880 C   0  0  0  0  0  0  0  0  0  0  0  0
  138.2630   70.6340  224.4530 C   0  0  0  0  0  0  0  0  0  0  0  0
  139.5680   71.0490  223.8130 C   0  0  1  0  0  0  0  0  0  0  0  0
  139.3430   72.2640  223.0760 N   0  0  0  0  0  0  0  0  0  0  0  0
  140.3340   72.9460  222.3250 C   0  0  0  0  0  0  0  0  0  0  0  0
  140.3410   74.2930  222.2870 N   0  0  0  0  0  0  0  0  0  0  0  0
  141.2520   74.9990  221.5970 C   0  0  0  0  0  0  0  0  0  0  0  0
  141.2530   76.4170  221.5620 N   0  0  0  0  0  0  0  0  0  0  0  0
  140.0460   77.2020  221.7290 C   0  0  0  0  0  0  0  0  0  0  0  0
  140.2170   78.6470  221.4050 C   0  0  0  0  0  0  0  0  0  0  0  0
  141.6430   79.1070  221.3870 C   0  0  1  0  0  0  0  0  0  0  0  0
  141.7970   80.5930  221.3780 C   0  0  0  0  0  0  0  0  0  0  0  0
  141.4110   80.9440  222.8160 C   0  0  0  0  0  0  0  0  0  0  0  0
  142.0950   79.8130  223.5630 C   0  0  0  0  0  0  0  0  0  0  0  0
  142.2440   78.7260  222.6420 N   0  0  0  0  0  0  0  0  0  0  0  0
  142.1830   74.3140  220.9280 N   0  0  0  0  0  0  0  0  0  0  0  0
  142.1920   72.9530  220.9540 C   0  0  0  0  0  0  0  0  0  0  0  0
  143.2070   72.2710  220.2210 N   0  0  0  0  0  0  0  0  0  0  0  0
  144.5460   72.8050  220.2550 C   0  0  0  0  0  0  0  0  0  0  0  0
  145.5030   72.1550  219.3420 C   0  0  0  0  0  0  0  0  0  0  0  0
  145.3530   70.6870  219.2350 C   0  0  0  0  0  0  0  0  0  0  0  0
  146.4730   69.8810  219.0770 C   0  0  0  0  0  0  0  0  0  0  0  0
  146.3130   68.5030  218.9760 C   0  0  0  0  0  0  0  0  0  0  0  0
  145.0600   67.9760  219.0380 C   0  0  0  0  0  0  0  0  0  0  0  0
  143.9510   68.8030  219.1960 C   0  0  0  0  0  0  0  0  0  0  0  0
  144.0730   70.1760  219.2990 C   0  0  0  0  0  0  0  0  0  0  0  0
  142.9270   71.0900  219.4680 C   0  0  0  0  0  0  0  0  0  0  0  0
  141.2780   72.2850  221.6450 N   0  0  0  0  0  0  0  0  0  0  0  0
  140.6020   71.1920  224.8790 C   0  0  0  0  0  0  0  0  0  0  0  0
  139.9327   68.3025  229.3612 H   0  0  0  0  0  0  0  0  0  0  0  0
  141.7054   70.0254  229.1688 H   0  0  0  0  0  0  0  0  0  0  0  0
  141.9874   71.3286  227.1076 H   0  0  0  0  0  0  0  0  0  0  0  0
  138.4014   67.8985  227.4023 H   0  0  0  0  0  0  0  0  0  0  0  0
  139.0091   68.5960  224.2327 H   0  0  0  0  0  0  0  0  0  0  0  0
  137.5663   68.6976  225.2368 H   0  0  0  0  0  0  0  0  0  0  0  0
  137.4529   70.6320  223.7088 H   0  0  0  0  0  0  0  0  0  0  0  0
  137.9609   71.3268  225.2522 H   0  0  0  0  0  0  0  0  0  0  0  0
  139.9383   70.2942  223.1037 H   0  0  0  0  0  0  0  0  0  0  0  0
  138.3610   72.6560  223.1120 H   0  0  0  0  0  0  0  0  0  0  0  0
  142.1380   76.9370  221.4130 H   0  0  0  0  0  0  0  0  0  0  0  0
  139.2694   76.7883  221.0688 H   0  0  0  0  0  0  0  0  0  0  0  0
  139.7707   77.1431  222.7924 H   0  0  0  0  0  0  0  0  0  0  0  0
  139.7822   78.8318  220.4116 H   0  0  0  0  0  0  0  0  0  0  0  0
  139.7122   79.2120  222.2025 H   0  0  0  0  0  0  0  0  0  0  0  0
  142.0894   78.6693  220.4819 H   0  0  0  0  0  0  0  0  0  0  0  0
  142.8328   80.8890  221.1556 H   0  0  0  0  0  0  0  0  0  0  0  0
  141.1939   81.1034  220.6127 H   0  0  0  0  0  0  0  0  0  0  0  0
  141.8051   81.9265  223.1151 H   0  0  0  0  0  0  0  0  0  0  0  0
  140.3289   81.0268  222.9956 H   0  0  0  0  0  0  0  0  0  0  0  0
  143.0818   80.1409  223.9218 H   0  0  0  0  0  0  0  0  0  0  0  0
  141.5006   79.5062  224.4362 H   0  0  0  0  0  0  0  0  0  0  0  0
  143.1800   78.3070  222.5780 H   0  0  0  0  0  0  0  0  0  0  0  0
  144.4941   73.8716  219.9909 H   0  0  0  0  0  0  0  0  0  0  0  0
  144.9221   72.6227  221.2725 H   0  0  0  0  0  0  0  0  0  0  0  0
  145.3686   72.5875  218.3396 H   0  0  0  0  0  0  0  0  0  0  0  0
  146.5044   72.3362  219.7597 H   0  0  0  0  0  0  0  0  0  0  0  0
  147.4770   70.3282  219.0322 H   0  0  0  0  0  0  0  0  0  0  0  0
  147.1875   67.8481  218.8478 H   0  0  0  0  0  0  0  0  0  0  0  0
  144.9220   66.8873  218.9626 H   0  0  0  0  0  0  0  0  0  0  0  0
  142.9492   68.3508  219.2401 H   0  0  0  0  0  0  0  0  0  0  0  0
  142.5828   71.3952  218.4688 H   0  0  0  0  0  0  0  0  0  0  0  0
  142.1688   70.5328  220.0377 H   0  0  0  0  0  0  0  0  0  0  0  0
  141.5754   70.9075  224.4529 H   0  0  0  0  0  0  0  0  0  0  0  0
  140.5650   72.2404  225.2099 H   0  0  0  0  0  0  0  0  0  0  0  0
  1  2  2  0
  2  3  1  0
  3  4  2  0
  4  5  1  0
  5  6  2  0
  5  7  1  0
  7  8  1  0
  8  9  1  0
  9 10  1  0
 10 11  1  0
 11 12  2  0
 12 13  1  0
 13 14  1  0
 14 15  1  0
 15 16  1  0
 16 17  1  0
 17 18  1  0
 18 19  1  0
 19 20  1  0
 20 21  1  0
 13 22  2  0
 22 23  1  0
 23 24  1  0
 24 25  1  0
 25 26  1  0
 26 27  1  0
 27 28  2  0
 28 29  1  0
 29 30  2  0
 30 31  1  0
 31 32  2  0
 32 33  1  0
 23 34  2  0
  9 35  1  0
  6  1  1  0
 34 11  1  0
 35  4  1  0
 21 17  1  0
 33 24  1  0
 32 27  1  0
  1 36  1  0
  2 37  1  0
  3 38  1  0
  6 39  1  0
  7 40  1  0
  7 41  1  0
  8 42  1  0
  8 43  1  0
  9 44  1  6
 10 45  1  0
 14 46  1  0
 15 47  1  0
 15 48  1  0
 16 49  1  0
 16 50  1  0
 17 51  1  6
 18 52  1  0
 18 53  1  0
 19 54  1  0
 19 55  1  0
 20 56  1  0
 20 57  1  0
 21 58  1  0
 25 59  1  0
 25 60  1  0
 26 61  1  0
 26 62  1  0
 28 63  1  0
 29 64  1  0
 30 65  1  0
 31 66  1  0
 33 67  1  0
 33 68  1  0
 35 69  1  0
 35 70  1  0
M  END
>  <smiles>  (181) 
c1ccc2c(c1)CCC(Nc1nc(NCCC3CCCN3)nc(N3CCc4ccccc4C3)n1)C2

>  <score_type>  (181) 
oracle

>  <origin>  (181) 
autodockgpu

>  <m_score__min__energy>  (181) 
-11.550000000000001

>  <m_primary>  (181) 
energy

>  <rmsd>  (181) 
11.897417894464256

>  <m_score__min__rmsd>  (181) 
11.897417894464256

>  <meeko>  (181) 
{"free_energy": -11.02, "intermolecular_energy": -13.1, "internal_energy": -1.39, "cluster_size": 11, "cluster_id": 2, "rank_in_cluster": 3}

>  <energy>  (181) 
-9.58

>  <cluster_rmsd>  (181) 
1.03

>  <cluster>  (181) 
1

$$$$

     RDKit          3D

 70 75  0  0  1  0  0  0  0  0999 V2000
  141.8370   81.4060  223.3950 C   0  0  0  0  0  0  0  0  0  0  0  0
  142.8370   80.4610  223.2590 C   0  0  0  0  0  0  0  0  0  0  0  0
  142.5450   79.1370  223.0420 C   0  0  0  0  0  0  0  0  0  0  0  0
  141.2380   78.7090  222.9520 C   0  0  0  0  0  0  0  0  0  0  0  0
  140.2390   79.6410  223.0860 C   0  0  0  0  0  0  0  0  0  0  0  0
  140.5050   80.9940  223.3070 C   0  0  0  0  0  0  0  0  0  0  0  0
  138.8300   79.1380  222.9820 C   0  0  0  0  0  0  0  0  0  0  0  0
  138.8770   78.0950  221.8580 C   0  0  0  0  0  0  0  0  0  0  0  0
  139.5880   76.8980  222.4510 C   0  0  1  0  0  0  0  0  0  0  0  0
  139.4500   75.7940  221.5380 N   0  0  0  0  0  0  0  0  0  0  0  0
  140.1340   74.5580  221.6620 C   0  0  0  0  0  0  0  0  0  0  0  0
  141.2360   74.3220  220.9230 N   0  0  0  0  0  0  0  0  0  0  0  0
  141.9300   73.1740  220.9940 C   0  0  0  0  0  0  0  0  0  0  0  0
  143.0900   72.9330  220.2140 N   0  0  0  0  0  0  0  0  0  0  0  0
  144.0260   73.9830  219.8640 C   0  0  0  0  0  0  0  0  0  0  0  0
  143.4240   75.3470  219.8560 C   0  0  0  0  0  0  0  0  0  0  0  0
  142.9120   75.7850  218.5180 C   0  0  1  0  0  0  0  0  0  0  0  0
  141.4230   75.8840  218.4440 C   0  0  0  0  0  0  0  0  0  0  0  0
  141.1650   77.1480  219.2660 C   0  0  0  0  0  0  0  0  0  0  0  0
  142.3090   78.0210  218.7840 C   0  0  0  0  0  0  0  0  0  0  0  0
  143.3380   77.1470  218.3070 N   0  0  0  0  0  0  0  0  0  0  0  0
  141.4900   72.2400  221.8410 N   0  0  0  0  0  0  0  0  0  0  0  0
  140.3770   72.4600  222.5950 C   0  0  0  0  0  0  0  0  0  0  0  0
  139.9490   71.4290  223.4820 N   0  0  0  0  0  0  0  0  0  0  0  0
  139.3050   70.2690  222.9170 C   0  0  0  0  0  0  0  0  0  0  0  0
  138.7360   69.3290  223.8990 C   0  0  0  0  0  0  0  0  0  0  0  0
  139.5580   69.1320  225.1130 C   0  0  0  0  0  0  0  0  0  0  0  0
  139.6140   67.8870  225.7240 C   0  0  0  0  0  0  0  0  0  0  0  0
  140.3910   67.7220  226.8660 C   0  0  0  0  0  0  0  0  0  0  0  0
  141.0810   68.7870  227.3570 C   0  0  0  0  0  0  0  0  0  0  0  0
  141.0100   70.0270  226.7280 C   0  0  0  0  0  0  0  0  0  0  0  0
  140.2480   70.2270  225.5930 C   0  0  0  0  0  0  0  0  0  0  0  0
  140.1440   71.5230  224.8940 C   0  0  0  0  0  0  0  0  0  0  0  0
  139.7140   73.6050  222.5020 N   0  0  0  0  0  0  0  0  0  0  0  0
  141.0090   77.2670  222.7170 C   0  0  0  0  0  0  0  0  0  0  0  0
  142.0857   82.4632  223.5694 H   0  0  0  0  0  0  0  0  0  0  0  0
  143.8887   80.7765  223.3260 H   0  0  0  0  0  0  0  0  0  0  0  0
  143.3636   78.4095  222.9388 H   0  0  0  0  0  0  0  0  0  0  0  0
  139.6842   81.7191  223.4095 H   0  0  0  0  0  0  0  0  0  0  0  0
  138.5111   78.6761  223.9280 H   0  0  0  0  0  0  0  0  0  0  0  0
  138.1119   79.9449  222.7743 H   0  0  0  0  0  0  0  0  0  0  0  0
  137.8589   77.8214  221.5439 H   0  0  0  0  0  0  0  0  0  0  0  0
  139.3942   78.4777  220.9658 H   0  0  0  0  0  0  0  0  0  0  0  0
  139.1498   76.5906  223.4120 H   0  0  0  0  0  0  0  0  0  0  0  0
  138.7880   75.9400  220.7270 H   0  0  0  0  0  0  0  0  0  0  0  0
  143.3000   71.9780  219.8680 H   0  0  0  0  0  0  0  0  0  0  0  0
  144.8491   73.9714  220.5936 H   0  0  0  0  0  0  0  0  0  0  0  0
  144.3692   73.7780  218.8392 H   0  0  0  0  0  0  0  0  0  0  0  0
  142.5846   75.3576  220.5668 H   0  0  0  0  0  0  0  0  0  0  0  0
  144.2257   76.0477  220.1322 H   0  0  0  0  0  0  0  0  0  0  0  0
  143.2838   75.0424  217.7967 H   0  0  0  0  0  0  0  0  0  0  0  0
  141.0784   76.0015  217.4060 H   0  0  0  0  0  0  0  0  0  0  0  0
  140.8936   74.9923  218.8110 H   0  0  0  0  0  0  0  0  0  0  0  0
  140.1866   77.5931  219.0323 H   0  0  0  0  0  0  0  0  0  0  0  0
  141.1313   76.9914  220.3543 H   0  0  0  0  0  0  0  0  0  0  0  0
  141.9653   78.6773  217.9709 H   0  0  0  0  0  0  0  0  0  0  0  0
  142.6844   78.6571  219.5991 H   0  0  0  0  0  0  0  0  0  0  0  0
  143.7190   77.3560  217.3760 H   0  0  0  0  0  0  0  0  0  0  0  0
  138.4896   70.6157  222.2651 H   0  0  0  0  0  0  0  0  0  0  0  0
  140.0891   69.7142  222.3809 H   0  0  0  0  0  0  0  0  0  0  0  0
  137.7523   69.7112  224.2093 H   0  0  0  0  0  0  0  0  0  0  0  0
  138.6814   68.3511  223.3982 H   0  0  0  0  0  0  0  0  0  0  0  0
  139.0494   67.0390  225.3092 H   0  0  0  0  0  0  0  0  0  0  0  0
  140.4469   66.7435  227.3655 H   0  0  0  0  0  0  0  0  0  0  0  0
  141.7000   68.6673  228.2584 H   0  0  0  0  0  0  0  0  0  0  0  0
  141.5768   70.8717  227.1467 H   0  0  0  0  0  0  0  0  0  0  0  0
  139.2933   72.0745  225.3208 H   0  0  0  0  0  0  0  0  0  0  0  0
  141.1085   72.0313  225.0398 H   0  0  0  0  0  0  0  0  0  0  0  0
  141.3451   76.7167  223.6082 H   0  0  0  0  0  0  0  0  0  0  0  0
  141.5735   77.0060  221.8097 H   0  0  0  0  0  0  0  0  0  0  0  0
  1  2  2  0
  2  3  1  0
  3  4  2  0
  4  5  1  0
  5  6  2  0
  5  7  1  0
  7  8  1  0
  8  9  1  0
  9 10  1  0
 10 11  1  0
 11 12  2  0
 12 13  1  0
 13 14  1  0
 14 15  1  0
 15 16  1  0
 16 17  1  0
 17 18  1  0
 18 19  1  0
 19 20  1  0
 20 21  1  0
 13 22  2  0
 22 23  1  0
 23 24  1  0
 24 25  1  0
 25 26  1  0
 26 27  1  0
 27 28  2  0
 28 29  1  0
 29 30  2  0
 30 31  1  0
 31 32  2  0
 32 33  1  0
 23 34  2  0
  9 35  1  0
  6  1  1  0
 34 11  1  0
 35  4  1  0
 21 17  1  0
 33 24  1  0
 32 27  1  0
  1 36  1  0
  2 37  1  0
  3 38  1  0
  6 39  1  0
  7 40  1  0
  7 41  1  0
  8 42  1  0
  8 43  1  0
  9 44  1  1
 10 45  1  0
 14 46  1  0
 15 47  1  0
 15 48  1  0
 16 49  1  0
 16 50  1  0
 17 51  1  6
 18 52  1  0
 18 53  1  0
 19 54  1  0
 19 55  1  0
 20 56  1  0
 20 57  1  0
 21 58  1  0
 25 59  1  0
 25 60  1  0
 26 61  1  0
 26 62  1  0
 28 63  1  0
 29 64  1  0
 30 65  1  0
 31 66  1  0
 33 67  1  0
 33 68  1  0
 35 69  1  0
 35 70  1  0
M  END
>  <smiles>  (182) 
c1ccc2c(c1)CCC(Nc1nc(NCCC3CCCN3)nc(N3CCc4ccccc4C3)n1)C2

>  <score_type>  (182) 
oracle

>  <origin>  (182) 
autodockgpu

>  <m_score__min__energy>  (182) 
-11.550000000000001

>  <m_primary>  (182) 
energy

>  <rmsd>  (182) 
4.31144707227364

>  <m_score__min__rmsd>  (182) 
4.31144707227364

>  <meeko>  (182) 
{"free_energy": -9.84, "intermolecular_energy": -11.93, "internal_energy": -1.53, "cluster_size": 31, "cluster_id": 1, "rank_in_cluster": 21}

>  <energy>  (182) 
-11.2

>  <cluster_rmsd>  (182) 
0.0

>  <cluster>  (182) 
2

$$$$

     RDKit          3D

 70 75  0  0  1  0  0  0  0  0999 V2000
  142.3560   80.8530  218.4930 C   0  0  0  0  0  0  0  0  0  0  0  0
  141.7690   81.0700  219.7260 C   0  0  0  0  0  0  0  0  0  0  0  0
  141.3170   80.0270  220.4970 C   0  0  0  0  0  0  0  0  0  0  0  0
  141.4380   78.7250  220.0620 C   0  0  0  0  0  0  0  0  0  0  0  0
  142.0210   78.5000  218.8400 C   0  0  0  0  0  0  0  0  0  0  0  0
  142.4890   79.5400  218.0330 C   0  0  0  0  0  0  0  0  0  0  0  0
  142.1350   77.0710  218.4000 C   0  0  0  0  0  0  0  0  0  0  0  0
  142.5100   76.3060  219.6760 C   0  0  0  0  0  0  0  0  0  0  0  0
  141.2480   76.2720  220.5090 C   0  0  1  0  0  0  0  0  0  0  0  0
  141.4550   75.3610  221.6040 N   0  0  0  0  0  0  0  0  0  0  0  0
  141.2540   73.9600  221.5350 C   0  0  0  0  0  0  0  0  0  0  0  0
  141.5710   73.2890  220.4110 N   0  0  0  0  0  0  0  0  0  0  0  0
  141.4070   71.9620  220.2820 C   0  0  0  0  0  0  0  0  0  0  0  0
  141.7450   71.2620  219.0940 N   0  0  0  0  0  0  0  0  0  0  0  0
  142.9230   71.5800  218.3110 C   0  0  0  0  0  0  0  0  0  0  0  0
  144.1290   71.8810  219.1330 C   0  0  0  0  0  0  0  0  0  0  0  0
  144.5300   73.3250  219.1290 C   0  0  1  0  0  0  0  0  0  0  0  0
  144.3810   73.9970  220.4550 C   0  0  0  0  0  0  0  0  0  0  0  0
  145.5480   73.3880  221.2330 C   0  0  0  0  0  0  0  0  0  0  0  0
  146.6200   73.3920  220.1590 C   0  0  0  0  0  0  0  0  0  0  0  0
  145.9520   73.3860  218.8920 N   0  0  0  0  0  0  0  0  0  0  0  0
  140.9050   71.2990  221.3260 N   0  0  0  0  0  0  0  0  0  0  0  0
  140.5770   71.9600  222.4700 C   0  0  0  0  0  0  0  0  0  0  0  0
  140.0430   71.2050  223.5560 N   0  0  0  0  0  0  0  0  0  0  0  0
  139.1840   70.0880  223.2500 C   0  0  0  0  0  0  0  0  0  0  0  0
  138.5320   69.4620  224.4150 C   0  0  0  0  0  0  0  0  0  0  0  0
  139.3860   69.3600  225.6190 C   0  0  0  0  0  0  0  0  0  0  0  0
  139.2770   68.2620  226.4610 C   0  0  0  0  0  0  0  0  0  0  0  0
  140.0870   68.1840  227.5890 C   0  0  0  0  0  0  0  0  0  0  0  0
  140.9710   69.1880  227.8400 C   0  0  0  0  0  0  0  0  0  0  0  0
  141.0640   70.2800  226.9820 C   0  0  0  0  0  0  0  0  0  0  0  0
  140.2740   70.3900  225.8520 C   0  0  0  0  0  0  0  0  0  0  0  0
  140.3390   71.5290  224.9150 C   0  0  0  0  0  0  0  0  0  0  0  0
  140.7520   73.2720  222.5670 N   0  0  0  0  0  0  0  0  0  0  0  0
  140.9280   77.6600  220.9520 C   0  0  0  0  0  0  0  0  0  0  0  0
  142.7117   81.6982  217.8854 H   0  0  0  0  0  0  0  0  0  0  0  0
  141.6617   82.0999  220.0973 H   0  0  0  0  0  0  0  0  0  0  0  0
  140.8531   80.2333  221.4728 H   0  0  0  0  0  0  0  0  0  0  0  0
  142.9518   79.3301  217.0574 H   0  0  0  0  0  0  0  0  0  0  0  0
  141.1769   76.7103  217.9976 H   0  0  0  0  0  0  0  0  0  0  0  0
  142.8766   76.9376  217.5986 H   0  0  0  0  0  0  0  0  0  0  0  0
  142.8368   75.2848  219.4305 H   0  0  0  0  0  0  0  0  0  0  0  0
  143.3414   76.7870  220.2121 H   0  0  0  0  0  0  0  0  0  0  0  0
  140.3828   75.9094  219.9346 H   0  0  0  0  0  0  0  0  0  0  0  0
  141.7800   75.7930  222.5140 H   0  0  0  0  0  0  0  0  0  0  0  0
  141.1430   70.4910  218.7520 H   0  0  0  0  0  0  0  0  0  0  0  0
  143.1508   70.7209  217.6629 H   0  0  0  0  0  0  0  0  0  0  0  0
  142.6907   72.4900  217.7383 H   0  0  0  0  0  0  0  0  0  0  0  0
  143.9218   71.5833  220.1715 H   0  0  0  0  0  0  0  0  0  0  0  0
  144.9636   71.3198  218.6874 H   0  0  0  0  0  0  0  0  0  0  0  0
  143.8907   73.8125  218.3783 H   0  0  0  0  0  0  0  0  0  0  0  0
  144.4821   75.0888  220.3667 H   0  0  0  0  0  0  0  0  0  0  0  0
  143.3987   73.8484  220.9272 H   0  0  0  0  0  0  0  0  0  0  0  0
  145.8322   74.0105  222.0942 H   0  0  0  0  0  0  0  0  0  0  0  0
  145.3424   72.4020  221.6752 H   0  0  0  0  0  0  0  0  0  0  0  0
  147.2430   74.2938  220.2520 H   0  0  0  0  0  0  0  0  0  0  0  0
  147.2750   72.5139  220.2586 H   0  0  0  0  0  0  0  0  0  0  0  0
  146.2600   74.0890  218.2100 H   0  0  0  0  0  0  0  0  0  0  0  0
  138.3966   70.4407  222.5677 H   0  0  0  0  0  0  0  0  0  0  0  0
  139.8317   69.3154  222.8100 H   0  0  0  0  0  0  0  0  0  0  0  0
  137.6450   70.0590  224.6733 H   0  0  0  0  0  0  0  0  0  0  0  0
  138.2877   68.4313  224.1184 H   0  0  0  0  0  0  0  0  0  0  0  0
  138.5567   67.4610  226.2383 H   0  0  0  0  0  0  0  0  0  0  0  0
  140.0142   67.3225  228.2691 H   0  0  0  0  0  0  0  0  0  0  0  0
  141.6174   69.1360  228.7285 H   0  0  0  0  0  0  0  0  0  0  0  0
  141.7862   71.0781  227.2090 H   0  0  0  0  0  0  0  0  0  0  0  0
  139.6181   72.2893  225.2502 H   0  0  0  0  0  0  0  0  0  0  0  0
  141.3807   71.8820  224.9290 H   0  0  0  0  0  0  0  0  0  0  0  0
  139.8339   77.7573  221.0109 H   0  0  0  0  0  0  0  0  0  0  0  0
  141.4274   77.7997  221.9221 H   0  0  0  0  0  0  0  0  0  0  0  0
  1  2  2  0
  2  3  1  0
  3  4  2  0
  4  5  1  0
  5  6  2  0
  5  7  1  0
  7  8  1  0
  8  9  1  0
  9 10  1  0
 10 11  1  0
 11 12  2  0
 12 13  1  0
 13 14  1  0
 14 15  1  0
 15 16  1  0
 16 17  1  0
 17 18  1  0
 18 19  1  0
 19 20  1  0
 20 21  1  0
 13 22  2  0
 22 23  1  0
 23 24  1  0
 24 25  1  0
 25 26  1  0
 26 27  1  0
 27 28  2  0
 28 29  1  0
 29 30  2  0
 30 31  1  0
 31 32  2  0
 32 33  1  0
 23 34  2  0
  9 35  1  0
  6  1  1  0
 34 11  1  0
 35  4  1  0
 21 17  1  0
 33 24  1  0
 32 27  1  0
  1 36  1  0
  2 37  1  0
  3 38  1  0
  6 39  1  0
  7 40  1  0
  7 41  1  0
  8 42  1  0
  8 43  1  0
  9 44  1  6
 10 45  1  0
 14 46  1  0
 15 47  1  0
 15 48  1  0
 16 49  1  0
 16 50  1  0
 17 51  1  6
 18 52  1  0
 18 53  1  0
 19 54  1  0
 19 55  1  0
 20 56  1  0
 20 57  1  0
 21 58  1  0
 25 59  1  0
 25 60  1  0
 26 61  1  0
 26 62  1  0
 28 63  1  0
 29 64  1  0
 30 65  1  0
 31 66  1  0
 33 67  1  0
 33 68  1  0
 35 69  1  0
 35 70  1  0
M  END
>  <smiles>  (183) 
c1ccc2c(c1)CCC(Nc1nc(NCCC3CCCN3)nc(N3CCc4ccccc4C3)n1)C2

>  <score_type>  (183) 
oracle

>  <origin>  (183) 
autodockgpu

>  <m_score__min__energy>  (183) 
-11.550000000000001

>  <m_primary>  (183) 
energy

>  <rmsd>  (183) 
3.908354632651688

>  <m_score__min__rmsd>  (183) 
3.908354632651688

>  <meeko>  (183) 
{"free_energy": -10.13, "intermolecular_energy": -12.22, "internal_energy": -1.43, "cluster_size": 1, "cluster_id": 5, "rank_in_cluster": 1}

>  <energy>  (183) 
-11.02

>  <cluster_rmsd>  (183) 
0.43

>  <cluster>  (183) 
2

$$$$

     RDKit          3D

 70 75  0  0  1  0  0  0  0  0999 V2000
  140.8630   70.4620  228.3330 C   0  0  0  0  0  0  0  0  0  0  0  0
  141.2690   71.7330  227.9720 C   0  0  0  0  0  0  0  0  0  0  0  0
  141.1900   72.1670  226.6710 C   0  0  0  0  0  0  0  0  0  0  0  0
  140.6990   71.3430  225.6810 C   0  0  0  0  0  0  0  0  0  0  0  0
  140.2930   70.0790  226.0320 C   0  0  0  0  0  0  0  0  0  0  0  0
  140.3610   69.6100  227.3460 C   0  0  0  0  0  0  0  0  0  0  0  0
  139.7650   69.2120  224.9290 C   0  0  0  0  0  0  0  0  0  0  0  0
  138.9350   70.1630  224.0570 C   0  0  0  0  0  0  0  0  0  0  0  0
  139.9430   71.0160  223.3210 C   0  0  1  0  0  0  0  0  0  0  0  0
  139.2480   71.7600  222.3030 N   0  0  0  0  0  0  0  0  0  0  0  0
  139.8140   72.8230  221.5550 C   0  0  0  0  0  0  0  0  0  0  0  0
  140.4510   72.5660  220.3960 N   0  0  0  0  0  0  0  0  0  0  0  0
  141.0070   73.5270  219.6390 C   0  0  0  0  0  0  0  0  0  0  0  0
  141.6750   73.2470  218.4190 N   0  0  0  0  0  0  0  0  0  0  0  0
  142.7820   74.0490  217.9350 C   0  0  0  0  0  0  0  0  0  0  0  0
  144.0090   73.9490  218.7760 C   0  0  0  0  0  0  0  0  0  0  0  0
  144.1600   72.6400  219.4890 C   0  0  1  0  0  0  0  0  0  0  0  0
  145.5330   72.0570  219.3950 C   0  0  0  0  0  0  0  0  0  0  0  0
  146.3140   72.9760  220.3350 C   0  0  0  0  0  0  0  0  0  0  0  0
  145.3060   73.1350  221.4580 C   0  0  0  0  0  0  0  0  0  0  0  0
  144.0090   72.8890  220.9020 N   0  0  0  0  0  0  0  0  0  0  0  0
  140.9120   74.7850  220.0750 N   0  0  0  0  0  0  0  0  0  0  0  0
  140.2740   75.0650  221.2450 C   0  0  0  0  0  0  0  0  0  0  0  0
  140.2020   76.4250  221.6650 N   0  0  0  0  0  0  0  0  0  0  0  0
  139.1560   76.7980  222.5860 C   0  0  0  0  0  0  0  0  0  0  0  0
  139.0350   78.2450  222.8410 C   0  0  0  0  0  0  0  0  0  0  0  0
  140.3230   78.9650  222.9400 C   0  0  0  0  0  0  0  0  0  0  0  0
  140.4660   80.0220  223.8280 C   0  0  0  0  0  0  0  0  0  0  0  0
  141.6850   80.6890  223.9050 C   0  0  0  0  0  0  0  0  0  0  0  0
  142.7120   80.2850  223.1090 C   0  0  0  0  0  0  0  0  0  0  0  0
  142.5460   79.2220  222.2250 C   0  0  0  0  0  0  0  0  0  0  0  0
  141.3490   78.5380  222.1210 C   0  0  0  0  0  0  0  0  0  0  0  0
  141.1290   77.4070  221.2000 C   0  0  0  0  0  0  0  0  0  0  0  0
  139.7340   74.0930  221.9690 N   0  0  0  0  0  0  0  0  0  0  0  0
  140.6470   71.8860  224.3070 C   0  0  0  0  0  0  0  0  0  0  0  0
  140.9339   70.1274  229.3785 H   0  0  0  0  0  0  0  0  0  0  0  0
  141.6637   72.4113  228.7428 H   0  0  0  0  0  0  0  0  0  0  0  0
  141.5225   73.1841  226.4163 H   0  0  0  0  0  0  0  0  0  0  0  0
  140.0268   68.5927  227.5980 H   0  0  0  0  0  0  0  0  0  0  0  0
  140.5910   68.7741  224.3493 H   0  0  0  0  0  0  0  0  0  0  0  0
  139.1715   68.3672  225.3086 H   0  0  0  0  0  0  0  0  0  0  0  0
  138.3196   69.5937  223.3448 H   0  0  0  0  0  0  0  0  0  0  0  0
  138.2453   70.7728  224.6590 H   0  0  0  0  0  0  0  0  0  0  0  0
  140.7115   70.4082  222.8209 H   0  0  0  0  0  0  0  0  0  0  0  0
  138.2470   71.4750  222.1200 H   0  0  0  0  0  0  0  0  0  0  0  0
  141.3800   72.4450  217.8320 H   0  0  0  0  0  0  0  0  0  0  0  0
  143.0315   73.7173  216.9163 H   0  0  0  0  0  0  0  0  0  0  0  0
  142.4557   75.0990  217.9671 H   0  0  0  0  0  0  0  0  0  0  0  0
  144.8851   74.0909  218.1262 H   0  0  0  0  0  0  0  0  0  0  0  0
  143.9241   74.7237  219.5523 H   0  0  0  0  0  0  0  0  0  0  0  0
  143.4231   71.9620  219.0337 H   0  0  0  0  0  0  0  0  0  0  0  0
  145.5523   71.0139  219.7438 H   0  0  0  0  0  0  0  0  0  0  0  0
  145.9345   72.0129  218.3719 H   0  0  0  0  0  0  0  0  0  0  0  0
  147.2435   72.5041  220.6862 H   0  0  0  0  0  0  0  0  0  0  0  0
  146.6507   73.9199  219.8815 H   0  0  0  0  0  0  0  0  0  0  0  0
  145.5164   72.4104  222.2584 H   0  0  0  0  0  0  0  0  0  0  0  0
  145.3599   74.1450  221.8905 H   0  0  0  0  0  0  0  0  0  0  0  0
  143.4130   72.2240  221.4100 H   0  0  0  0  0  0  0  0  0  0  0  0
  138.1988   76.4427  222.1768 H   0  0  0  0  0  0  0  0  0  0  0  0
  139.4177   76.3375  223.5501 H   0  0  0  0  0  0  0  0  0  0  0  0
  138.4558   78.6905  222.0188 H   0  0  0  0  0  0  0  0  0  0  0  0
  138.5455   78.3479  223.8207 H   0  0  0  0  0  0  0  0  0  0  0  0
  139.6237   80.3297  224.4650 H   0  0  0  0  0  0  0  0  0  0  0  0
  141.8165   81.5314  224.6000 H   0  0  0  0  0  0  0  0  0  0  0  0
  143.6812   80.8023  223.1643 H   0  0  0  0  0  0  0  0  0  0  0  0
  143.3918   78.9176  221.5910 H   0  0  0  0  0  0  0  0  0  0  0  0
  140.7518   77.8096  220.2483 H   0  0  0  0  0  0  0  0  0  0  0  0
  142.0978   76.8953  221.1025 H   0  0  0  0  0  0  0  0  0  0  0  0
  141.6794   72.0345  223.9576 H   0  0  0  0  0  0  0  0  0  0  0  0
  140.0714   72.8217  224.3635 H   0  0  0  0  0  0  0  0  0  0  0  0
  1  2  2  0
  2  3  1  0
  3  4  2  0
  4  5  1  0
  5  6  2  0
  5  7  1  0
  7  8  1  0
  8  9  1  0
  9 10  1  0
 10 11  1  0
 11 12  2  0
 12 13  1  0
 13 14  1  0
 14 15  1  0
 15 16  1  0
 16 17  1  0
 17 18  1  0
 18 19  1  0
 19 20  1  0
 20 21  1  0
 13 22  2  0
 22 23  1  0
 23 24  1  0
 24 25  1  0
 25 26  1  0
 26 27  1  0
 27 28  2  0
 28 29  1  0
 29 30  2  0
 30 31  1  0
 31 32  2  0
 32 33  1  0
 23 34  2  0
  9 35  1  0
  6  1  1  0
 34 11  1  0
 35  4  1  0
 21 17  1  0
 33 24  1  0
 32 27  1  0
  1 36  1  0
  2 37  1  0
  3 38  1  0
  6 39  1  0
  7 40  1  0
  7 41  1  0
  8 42  1  0
  8 43  1  0
  9 44  1  6
 10 45  1  0
 14 46  1  0
 15 47  1  0
 15 48  1  0
 16 49  1  0
 16 50  1  0
 17 51  1  6
 18 52  1  0
 18 53  1  0
 19 54  1  0
 19 55  1  0
 20 56  1  0
 20 57  1  0
 21 58  1  0
 25 59  1  0
 25 60  1  0
 26 61  1  0
 26 62  1  0
 28 63  1  0
 29 64  1  0
 30 65  1  0
 31 66  1  0
 33 67  1  0
 33 68  1  0
 35 69  1  0
 35 70  1  0
M  END
>  <smiles>  (184) 
c1ccc2c(c1)CCC(Nc1nc(NCCC3CCCN3)nc(N3CCc4ccccc4C3)n1)C2

>  <score_type>  (184) 
oracle

>  <origin>  (184) 
autodockgpu

>  <m_score__min__energy>  (184) 
-11.550000000000001

>  <m_primary>  (184) 
energy

>  <rmsd>  (184) 
11.180079822392022

>  <m_score__min__rmsd>  (184) 
11.180079822392022

>  <meeko>  (184) 
{"free_energy": -9.71, "intermolecular_energy": -11.8, "internal_energy": -1.38, "cluster_size": 31, "cluster_id": 1, "rank_in_cluster": 24}

>  <energy>  (184) 
-11.02

>  <cluster_rmsd>  (184) 
0.4

>  <cluster>  (184) 
2

$$$$

     RDKit          3D

 70 75  0  0  1  0  0  0  0  0999 V2000
  140.0580   68.9090  228.4500 C   0  0  0  0  0  0  0  0  0  0  0  0
  141.0430   69.8710  228.3270 C   0  0  0  0  0  0  0  0  0  0  0  0
  141.1990   70.5920  227.1690 C   0  0  0  0  0  0  0  0  0  0  0  0
  140.3700   70.3790  226.0890 C   0  0  0  0  0  0  0  0  0  0  0  0
  139.3890   69.4260  226.2020 C   0  0  0  0  0  0  0  0  0  0  0  0
  139.2070   68.6760  227.3670 C   0  0  0  0  0  0  0  0  0  0  0  0
  138.5070   69.2210  225.0070 C   0  0  0  0  0  0  0  0  0  0  0  0
  138.2630   70.6350  224.4630 C   0  0  0  0  0  0  0  0  0  0  0  0
  139.5670   71.0460  223.8170 C   0  0  1  0  0  0  0  0  0  0  0  0
  139.3390   72.2570  223.0720 N   0  0  0  0  0  0  0  0  0  0  0  0
  140.3310   72.9420  222.3270 C   0  0  0  0  0  0  0  0  0  0  0  0
  140.3220   74.2890  222.2740 N   0  0  0  0  0  0  0  0  0  0  0  0
  141.2340   74.9980  221.5880 C   0  0  0  0  0  0  0  0  0  0  0  0
  141.2180   76.4160  221.5370 N   0  0  0  0  0  0  0  0  0  0  0  0
  140.0480   77.1960  221.8950 C   0  0  0  0  0  0  0  0  0  0  0  0
  140.2990   78.6640  221.9550 C   0  0  0  0  0  0  0  0  0  0  0  0
  140.4980   79.1960  223.3420 C   0  0  1  0  0  0  0  0  0  0  0  0
  141.8470   78.9040  223.9130 C   0  0  0  0  0  0  0  0  0  0  0  0
  142.7260   79.8700  223.1170 C   0  0  0  0  0  0  0  0  0  0  0  0
  141.8290   81.0940  223.0940 C   0  0  0  0  0  0  0  0  0  0  0  0
  140.4830   80.6370  223.2670 N   0  0  0  0  0  0  0  0  0  0  0  0
  142.1820   74.3180  220.9390 N   0  0  0  0  0  0  0  0  0  0  0  0
  142.2070   72.9580  220.9810 C   0  0  0  0  0  0  0  0  0  0  0  0
  143.2410   72.2810  220.2700 N   0  0  0  0  0  0  0  0  0  0  0  0
  144.5890   72.7800  220.3890 C   0  0  0  0  0  0  0  0  0  0  0  0
  145.5730   72.1430  219.4950 C   0  0  0  0  0  0  0  0  0  0  0  0
  145.3950   70.6840  219.3210 C   0  0  0  0  0  0  0  0  0  0  0  0
  146.5020   69.8580  219.1830 C   0  0  0  0  0  0  0  0  0  0  0  0
  146.3160   68.4890  219.0190 C   0  0  0  0  0  0  0  0  0  0  0  0
  145.0500   67.9910  219.0000 C   0  0  0  0  0  0  0  0  0  0  0  0
  143.9540   68.8380  219.1400 C   0  0  0  0  0  0  0  0  0  0  0  0
  144.1020   70.2030  219.3040 C   0  0  0  0  0  0  0  0  0  0  0  0
  142.9700   71.1380  219.4570 C   0  0  0  0  0  0  0  0  0  0  0  0
  141.2920   72.2860  221.6680 N   0  0  0  0  0  0  0  0  0  0  0  0
  140.6030   71.1970  224.8800 C   0  0  0  0  0  0  0  0  0  0  0  0
  139.9464   68.3376  229.3833 H   0  0  0  0  0  0  0  0  0  0  0  0
  141.7165   70.0631  229.1753 H   0  0  0  0  0  0  0  0  0  0  0  0
  141.9949   71.3484  227.1026 H   0  0  0  0  0  0  0  0  0  0  0  0
  138.4113   67.9190  227.4298 H   0  0  0  0  0  0  0  0  0  0  0  0
  139.0106   68.5964  224.2545 H   0  0  0  0  0  0  0  0  0  0  0  0
  137.5705   68.7034  225.2620 H   0  0  0  0  0  0  0  0  0  0  0  0
  137.4512   70.6272  223.7208 H   0  0  0  0  0  0  0  0  0  0  0  0
  137.9617   71.3333  225.2578 H   0  0  0  0  0  0  0  0  0  0  0  0
  139.9366   70.2867  223.1122 H   0  0  0  0  0  0  0  0  0  0  0  0
  138.3540   72.6410  223.0980 H   0  0  0  0  0  0  0  0  0  0  0  0
  142.0610   76.9390  221.2370 H   0  0  0  0  0  0  0  0  0  0  0  0
  139.2639   77.0085  221.1466 H   0  0  0  0  0  0  0  0  0  0  0  0
  139.7495   76.8804  222.9056 H   0  0  0  0  0  0  0  0  0  0  0  0
  141.2029   78.8839  221.3680 H   0  0  0  0  0  0  0  0  0  0  0  0
  139.4006   79.1555  221.5533 H   0  0  0  0  0  0  0  0  0  0  0  0
  139.7125   78.7328  223.9571 H   0  0  0  0  0  0  0  0  0  0  0  0
  141.8836   79.1214  224.9907 H   0  0  0  0  0  0  0  0  0  0  0  0
  142.1507   77.8497  223.8338 H   0  0  0  0  0  0  0  0  0  0  0  0
  143.6776   80.0721  223.6305 H   0  0  0  0  0  0  0  0  0  0  0  0
  143.0326   79.5044  222.1259 H   0  0  0  0  0  0  0  0  0  0  0  0
  142.1029   81.7772  223.9115 H   0  0  0  0  0  0  0  0  0  0  0  0
  141.9369   81.6389  222.1446 H   0  0  0  0  0  0  0  0  0  0  0  0
  139.9270   81.1150  223.9870 H   0  0  0  0  0  0  0  0  0  0  0  0
  144.5744   73.8573  220.1672 H   0  0  0  0  0  0  0  0  0  0  0  0
  144.9120   72.5482  221.4147 H   0  0  0  0  0  0  0  0  0  0  0  0
  145.4958   72.6182  218.5060 H   0  0  0  0  0  0  0  0  0  0  0  0
  146.5574   72.2826  219.9657 H   0  0  0  0  0  0  0  0  0  0  0  0
  147.5169   70.2819  219.2031 H   0  0  0  0  0  0  0  0  0  0  0  0
  147.1806   67.8184  218.9062 H   0  0  0  0  0  0  0  0  0  0  0  0
  144.8911   66.9100  218.8729 H   0  0  0  0  0  0  0  0  0  0  0  0
  142.9413   68.4091  219.1196 H   0  0  0  0  0  0  0  0  0  0  0  0
  142.6805   71.4911  218.4562 H   0  0  0  0  0  0  0  0  0  0  0  0
  142.1731   70.5775  219.9677 H   0  0  0  0  0  0  0  0  0  0  0  0
  141.5757   70.9098  224.4540 H   0  0  0  0  0  0  0  0  0  0  0  0
  140.5660   72.2477  225.2034 H   0  0  0  0  0  0  0  0  0  0  0  0
  1  2  2  0
  2  3  1  0
  3  4  2  0
  4  5  1  0
  5  6  2  0
  5  7  1  0
  7  8  1  0
  8  9  1  0
  9 10  1  0
 10 11  1  0
 11 12  2  0
 12 13  1  0
 13 14  1  0
 14 15  1  0
 15 16  1  0
 16 17  1  0
 17 18  1  0
 18 19  1  0
 19 20  1  0
 20 21  1  0
 13 22  2  0
 22 23  1  0
 23 24  1  0
 24 25  1  0
 25 26  1  0
 26 27  1  0
 27 28  2  0
 28 29  1  0
 29 30  2  0
 30 31  1  0
 31 32  2  0
 32 33  1  0
 23 34  2  0
  9 35  1  0
  6  1  1  0
 34 11  1  0
 35  4  1  0
 21 17  1  0
 33 24  1  0
 32 27  1  0
  1 36  1  0
  2 37  1  0
  3 38  1  0
  6 39  1  0
  7 40  1  0
  7 41  1  0
  8 42  1  0
  8 43  1  0
  9 44  1  6
 10 45  1  0
 14 46  1  0
 15 47  1  0
 15 48  1  0
 16 49  1  0
 16 50  1  0
 17 51  1  1
 18 52  1  0
 18 53  1  0
 19 54  1  0
 19 55  1  0
 20 56  1  0
 20 57  1  0
 21 58  1  0
 25 59  1  0
 25 60  1  0
 26 61  1  0
 26 62  1  0
 28 63  1  0
 29 64  1  0
 30 65  1  0
 31 66  1  0
 33 67  1  0
 33 68  1  0
 35 69  1  0
 35 70  1  0
M  END
>  <smiles>  (185) 
c1ccc2c(c1)CCC(Nc1nc(NCCC3CCCN3)nc(N3CCc4ccccc4C3)n1)C2

>  <score_type>  (185) 
oracle

>  <origin>  (185) 
autodockgpu

>  <m_score__min__energy>  (185) 
-11.550000000000001

>  <m_primary>  (185) 
energy

>  <rmsd>  (185) 
11.890589725273905

>  <m_score__min__rmsd>  (185) 
11.890589725273905

>  <meeko>  (185) 
{"free_energy": -10.92, "intermolecular_energy": -13.0, "internal_energy": -0.91, "cluster_size": 11, "cluster_id": 2, "rank_in_cluster": 5}

>  <energy>  (185) 
-11.0

>  <cluster_rmsd>  (185) 
0.49

>  <cluster>  (185) 
2

$$$$

     RDKit          3D

 70 75  0  0  1  0  0  0  0  0999 V2000
  141.0520   67.7630  227.3500 C   0  0  0  0  0  0  0  0  0  0  0  0
  140.2140   67.0840  226.4860 C   0  0  0  0  0  0  0  0  0  0  0  0
  139.4670   67.7460  225.5430 C   0  0  0  0  0  0  0  0  0  0  0  0
  139.5320   69.1180  225.4300 C   0  0  0  0  0  0  0  0  0  0  0  0
  140.3620   69.8010  226.2830 C   0  0  0  0  0  0  0  0  0  0  0  0
  141.1330   69.1550  227.2520 C   0  0  0  0  0  0  0  0  0  0  0  0
  140.4060   71.2920  226.1300 C   0  0  0  0  0  0  0  0  0  0  0  0
  140.3660   71.5230  224.6140 C   0  0  0  0  0  0  0  0  0  0  0  0
  138.9450   71.2140  224.1980 C   0  0  1  0  0  0  0  0  0  0  0  0
  138.7690   71.6450  222.8360 N   0  0  0  0  0  0  0  0  0  0  0  0
  139.6030   72.5800  222.1740 C   0  0  0  0  0  0  0  0  0  0  0  0
  140.5730   72.1490  221.3440 N   0  0  0  0  0  0  0  0  0  0  0  0
  141.3950   72.9830  220.6850 C   0  0  0  0  0  0  0  0  0  0  0  0
  142.4130   72.5200  219.8120 N   0  0  0  0  0  0  0  0  0  0  0  0
  142.3720   72.7430  218.3800 C   0  0  0  0  0  0  0  0  0  0  0  0
  142.0930   74.1560  217.9980 C   0  0  0  0  0  0  0  0  0  0  0  0
  143.3200   74.9720  217.7230 C   0  0  1  0  0  0  0  0  0  0  0  0
  143.0400   76.4190  217.4790 C   0  0  0  0  0  0  0  0  0  0  0  0
  142.6980   76.9010  218.8900 C   0  0  0  0  0  0  0  0  0  0  0  0
  143.7410   76.1450  219.6940 C   0  0  0  0  0  0  0  0  0  0  0  0
  144.1140   74.9930  218.9280 N   0  0  0  0  0  0  0  0  0  0  0  0
  141.2250   74.2930  220.8770 N   0  0  0  0  0  0  0  0  0  0  0  0
  140.2510   74.7490  221.7130 C   0  0  0  0  0  0  0  0  0  0  0  0
  140.1130   76.1570  221.8820 N   0  0  0  0  0  0  0  0  0  0  0  0
  138.8490   76.6650  222.3580 C   0  0  0  0  0  0  0  0  0  0  0  0
  138.7190   78.1330  222.3450 C   0  0  0  0  0  0  0  0  0  0  0  0
  139.9430   78.8640  222.7400 C   0  0  0  0  0  0  0  0  0  0  0  0
  139.8480   80.0460  223.4610 C   0  0  0  0  0  0  0  0  0  0  0  0
  141.0100   80.7210  223.8220 C   0  0  0  0  0  0  0  0  0  0  0  0
  142.2150   80.2030  223.4610 C   0  0  0  0  0  0  0  0  0  0  0  0
  142.2870   79.0160  222.7380 C   0  0  0  0  0  0  0  0  0  0  0  0
  141.1530   78.3200  222.3620 C   0  0  0  0  0  0  0  0  0  0  0  0
  141.1830   77.0580  221.5960 C   0  0  0  0  0  0  0  0  0  0  0  0
  139.4550   73.8990  222.3480 N   0  0  0  0  0  0  0  0  0  0  0  0
  138.6960   69.7550  224.3890 C   0  0  0  0  0  0  0  0  0  0  0  0
  141.6439   67.2185  228.1004 H   0  0  0  0  0  0  0  0  0  0  0  0
  140.1438   65.9884  226.5552 H   0  0  0  0  0  0  0  0  0  0  0  0
  138.8097   67.1752  224.8706 H   0  0  0  0  0  0  0  0  0  0  0  0
  141.7892   69.7288  227.9230 H   0  0  0  0  0  0  0  0  0  0  0  0
  139.5375   71.7588  226.6176 H   0  0  0  0  0  0  0  0  0  0  0  0
  141.2979   71.7347  226.5975 H   0  0  0  0  0  0  0  0  0  0  0  0
  140.6180   72.5672  224.3770 H   0  0  0  0  0  0  0  0  0  0  0  0
  141.0939   70.8907  224.0845 H   0  0  0  0  0  0  0  0  0  0  0  0
  138.2082   71.7509  224.8135 H   0  0  0  0  0  0  0  0  0  0  0  0
  137.9540   71.2190  222.3140 H   0  0  0  0  0  0  0  0  0  0  0  0
  143.2280   72.0010  220.1870 H   0  0  0  0  0  0  0  0  0  0  0  0
  143.3455   72.4552  217.9564 H   0  0  0  0  0  0  0  0  0  0  0  0
  141.5442   72.1355  217.9853 H   0  0  0  0  0  0  0  0  0  0  0  0
  141.4711   74.1517  217.0907 H   0  0  0  0  0  0  0  0  0  0  0  0
  141.5895   74.6223  218.8577 H   0  0  0  0  0  0  0  0  0  0  0  0
  143.7914   74.5182  216.8388 H   0  0  0  0  0  0  0  0  0  0  0  0
  143.9236   76.9382  217.0794 H   0  0  0  0  0  0  0  0  0  0  0  0
  142.2508   76.6057  216.7358 H   0  0  0  0  0  0  0  0  0  0  0  0
  142.8185   77.9899  218.9887 H   0  0  0  0  0  0  0  0  0  0  0  0
  141.6579   76.7205  219.1992 H   0  0  0  0  0  0  0  0  0  0  0  0
  144.6198   76.7837  219.8661 H   0  0  0  0  0  0  0  0  0  0  0  0
  143.3389   75.8486  220.6740 H   0  0  0  0  0  0  0  0  0  0  0  0
  145.1210   74.8360  218.8010 H   0  0  0  0  0  0  0  0  0  0  0  0
  138.0534   76.2471  221.7237 H   0  0  0  0  0  0  0  0  0  0  0  0
  138.7747   76.3608  223.4125 H   0  0  0  0  0  0  0  0  0  0  0  0
  138.4477   78.4442  221.3254 H   0  0  0  0  0  0  0  0  0  0  0  0
  137.9516   78.3843  223.0919 H   0  0  0  0  0  0  0  0  0  0  0  0
  138.8631   80.4456  223.7445 H   0  0  0  0  0  0  0  0  0  0  0  0
  140.9550   81.6605  224.3915 H   0  0  0  0  0  0  0  0  0  0  0  0
  143.1403   80.7268  223.7429 H   0  0  0  0  0  0  0  0  0  0  0  0
  143.2743   78.6202  222.4577 H   0  0  0  0  0  0  0  0  0  0  0  0
  141.1435   77.3069  220.5252 H   0  0  0  0  0  0  0  0  0  0  0  0
  142.1089   76.5410  221.8883 H   0  0  0  0  0  0  0  0  0  0  0  0
  137.6403   69.6208  224.6674 H   0  0  0  0  0  0  0  0  0  0  0  0
  138.9573   69.2674  223.4382 H   0  0  0  0  0  0  0  0  0  0  0  0
  1  2  2  0
  2  3  1  0
  3  4  2  0
  4  5  1  0
  5  6  2  0
  5  7  1  0
  7  8  1  0
  8  9  1  0
  9 10  1  0
 10 11  1  0
 11 12  2  0
 12 13  1  0
 13 14  1  0
 14 15  1  0
 15 16  1  0
 16 17  1  0
 17 18  1  0
 18 19  1  0
 19 20  1  0
 20 21  1  0
 13 22  2  0
 22 23  1  0
 23 24  1  0
 24 25  1  0
 25 26  1  0
 26 27  1  0
 27 28  2  0
 28 29  1  0
 29 30  2  0
 30 31  1  0
 31 32  2  0
 32 33  1  0
 23 34  2  0
  9 35  1  0
  6  1  1  0
 34 11  1  0
 35  4  1  0
 21 17  1  0
 33 24  1  0
 32 27  1  0
  1 36  1  0
  2 37  1  0
  3 38  1  0
  6 39  1  0
  7 40  1  0
  7 41  1  0
  8 42  1  0
  8 43  1  0
  9 44  1  1
 10 45  1  0
 14 46  1  0
 15 47  1  0
 15 48  1  0
 16 49  1  0
 16 50  1  0
 17 51  1  6
 18 52  1  0
 18 53  1  0
 19 54  1  0
 19 55  1  0
 20 56  1  0
 20 57  1  0
 21 58  1  0
 25 59  1  0
 25 60  1  0
 26 61  1  0
 26 62  1  0
 28 63  1  0
 29 64  1  0
 30 65  1  0
 31 66  1  0
 33 67  1  0
 33 68  1  0
 35 69  1  0
 35 70  1  0
M  END
>  <smiles>  (186) 
c1ccc2c(c1)CCC(Nc1nc(NCCC3CCCN3)nc(N3CCc4ccccc4C3)n1)C2

>  <score_type>  (186) 
oracle

>  <origin>  (186) 
autodockgpu

>  <m_score__min__energy>  (186) 
-11.550000000000001

>  <m_primary>  (186) 
energy

>  <rmsd>  (186) 
12.160686632896452

>  <m_score__min__rmsd>  (186) 
12.160686632896452

>  <meeko>  (186) 
{"free_energy": -9.7, "intermolecular_energy": -11.78, "internal_energy": -1.56, "cluster_size": 31, "cluster_id": 1, "rank_in_cluster": 27}

>  <energy>  (186) 
-10.92

>  <cluster_rmsd>  (186) 
0.95

>  <cluster>  (186) 
2

$$$$

     RDKit          3D

 70 75  0  0  1  0  0  0  0  0999 V2000
  139.9880   68.7750  228.3550 C   0  0  0  0  0  0  0  0  0  0  0  0
  140.9260   69.7890  228.3120 C   0  0  0  0  0  0  0  0  0  0  0  0
  141.0950   70.5600  227.1890 C   0  0  0  0  0  0  0  0  0  0  0  0
  140.3290   70.3460  226.0640 C   0  0  0  0  0  0  0  0  0  0  0  0
  139.3940   69.3410  226.0980 C   0  0  0  0  0  0  0  0  0  0  0  0
  139.1990   68.5400  227.2250 C   0  0  0  0  0  0  0  0  0  0  0  0
  138.5790   69.1370  224.8560 C   0  0  0  0  0  0  0  0  0  0  0  0
  138.2870   70.5560  224.3510 C   0  0  0  0  0  0  0  0  0  0  0  0
  139.5950   71.0570  223.7810 C   0  0  1  0  0  0  0  0  0  0  0  0
  139.3380   72.2810  223.0700 N   0  0  0  0  0  0  0  0  0  0  0  0
  140.3130   73.0080  222.3400 C   0  0  0  0  0  0  0  0  0  0  0  0
  140.2730   74.3540  222.3210 N   0  0  0  0  0  0  0  0  0  0  0  0
  141.1670   75.1010  221.6510 C   0  0  0  0  0  0  0  0  0  0  0  0
  141.1190   76.5190  221.6360 N   0  0  0  0  0  0  0  0  0  0  0  0
  139.9120   77.2610  221.9440 C   0  0  0  0  0  0  0  0  0  0  0  0
  140.1670   78.6240  222.4930 C   0  0  0  0  0  0  0  0  0  0  0  0
  141.2300   79.3890  221.7670 C   0  0  1  0  0  0  0  0  0  0  0  0
  141.1780   80.8640  222.0010 C   0  0  0  0  0  0  0  0  0  0  0  0
  141.6980   80.9600  223.4350 C   0  0  0  0  0  0  0  0  0  0  0  0
  142.8170   79.9350  223.3860 C   0  0  0  0  0  0  0  0  0  0  0  0
  142.5050   79.0170  222.3330 N   0  0  0  0  0  0  0  0  0  0  0  0
  142.1280   74.4590  220.9830 N   0  0  0  0  0  0  0  0  0  0  0  0
  142.1840   73.0990  220.9900 C   0  0  0  0  0  0  0  0  0  0  0  0
  143.2300   72.4630  220.2590 N   0  0  0  0  0  0  0  0  0  0  0  0
  144.5800   72.9290  220.4600 C   0  0  0  0  0  0  0  0  0  0  0  0
  145.5840   72.3480  219.5490 C   0  0  0  0  0  0  0  0  0  0  0  0
  145.3910   70.9120  219.2530 C   0  0  0  0  0  0  0  0  0  0  0  0
  146.4900   70.0810  219.0840 C   0  0  0  0  0  0  0  0  0  0  0  0
  146.2900   68.7330  218.8050 C   0  0  0  0  0  0  0  0  0  0  0  0
  145.0180   68.2590  218.7060 C   0  0  0  0  0  0  0  0  0  0  0  0
  143.9300   69.1110  218.8790 C   0  0  0  0  0  0  0  0  0  0  0  0
  144.0930   70.4560  219.1570 C   0  0  0  0  0  0  0  0  0  0  0  0
  142.9700   71.3940  219.3490 C   0  0  0  0  0  0  0  0  0  0  0  0
  141.2860   72.3900  221.6620 N   0  0  0  0  0  0  0  0  0  0  0  0
  140.5730   71.2200  224.8960 C   0  0  0  0  0  0  0  0  0  0  0  0
  139.8645   68.1642  229.2614 H   0  0  0  0  0  0  0  0  0  0  0  0
  141.5505   69.9824  229.1966 H   0  0  0  0  0  0  0  0  0  0  0  0
  141.8514   71.3586  227.1872 H   0  0  0  0  0  0  0  0  0  0  0  0
  138.4418   67.7422  227.2238 H   0  0  0  0  0  0  0  0  0  0  0  0
  139.1480   68.5670  224.1068 H   0  0  0  0  0  0  0  0  0  0  0  0
  137.6599   68.5639  225.0481 H   0  0  0  0  0  0  0  0  0  0  0  0
  137.5107   70.5350  223.5719 H   0  0  0  0  0  0  0  0  0  0  0  0
  137.9151   71.2078  225.1553 H   0  0  0  0  0  0  0  0  0  0  0  0
  140.0347   70.3447  223.0673 H   0  0  0  0  0  0  0  0  0  0  0  0
  138.3460   72.6430  223.1090 H   0  0  0  0  0  0  0  0  0  0  0  0
  141.9650   77.0700  221.4000 H   0  0  0  0  0  0  0  0  0  0  0  0
  139.3229   77.3636  221.0207 H   0  0  0  0  0  0  0  0  0  0  0  0
  139.3788   76.6964  222.7231 H   0  0  0  0  0  0  0  0  0  0  0  0
  139.2305   79.1985  222.4388 H   0  0  0  0  0  0  0  0  0  0  0  0
  140.5242   78.4877  223.5244 H   0  0  0  0  0  0  0  0  0  0  0  0
  141.0870   79.1634  220.6999 H   0  0  0  0  0  0  0  0  0  0  0  0
  141.8294   81.4059  221.2996 H   0  0  0  0  0  0  0  0  0  0  0  0
  140.1826   81.3081  221.8528 H   0  0  0  0  0  0  0  0  0  0  0  0
  142.0777   81.9667  223.6638 H   0  0  0  0  0  0  0  0  0  0  0  0
  140.9413   80.7792  224.2126 H   0  0  0  0  0  0  0  0  0  0  0  0
  143.7757   80.4334  223.1797 H   0  0  0  0  0  0  0  0  0  0  0  0
  142.9071   79.4093  224.3481 H   0  0  0  0  0  0  0  0  0  0  0  0
  143.2530   78.8260  221.6560 H   0  0  0  0  0  0  0  0  0  0  0  0
  144.5876   74.0206  220.3242 H   0  0  0  0  0  0  0  0  0  0  0  0
  144.8660   72.6120  221.4738 H   0  0  0  0  0  0  0  0  0  0  0  0
  145.5464   72.9018  218.5993 H   0  0  0  0  0  0  0  0  0  0  0  0
  146.5541   72.4325  220.0606 H   0  0  0  0  0  0  0  0  0  0  0  0
  147.5096   70.4847  219.1699 H   0  0  0  0  0  0  0  0  0  0  0  0
  147.1483   68.0592  218.6662 H   0  0  0  0  0  0  0  0  0  0  0  0
  144.8480   67.1944  218.4876 H   0  0  0  0  0  0  0  0  0  0  0  0
  142.9123   68.7027  218.7921 H   0  0  0  0  0  0  0  0  0  0  0  0
  142.7183   71.8308  218.3713 H   0  0  0  0  0  0  0  0  0  0  0  0
  142.1491   70.8076  219.7875 H   0  0  0  0  0  0  0  0  0  0  0  0
  141.5774   70.9985  224.5060 H   0  0  0  0  0  0  0  0  0  0  0  0
  140.4666   72.2546  225.2542 H   0  0  0  0  0  0  0  0  0  0  0  0
  1  2  2  0
  2  3  1  0
  3  4  2  0
  4  5  1  0
  5  6  2  0
  5  7  1  0
  7  8  1  0
  8  9  1  0
  9 10  1  0
 10 11  1  0
 11 12  2  0
 12 13  1  0
 13 14  1  0
 14 15  1  0
 15 16  1  0
 16 17  1  0
 17 18  1  0
 18 19  1  0
 19 20  1  0
 20 21  1  0
 13 22  2  0
 22 23  1  0
 23 24  1  0
 24 25  1  0
 25 26  1  0
 26 27  1  0
 27 28  2  0
 28 29  1  0
 29 30  2  0
 30 31  1  0
 31 32  2  0
 32 33  1  0
 23 34  2  0
  9 35  1  0
  6  1  1  0
 34 11  1  0
 35  4  1  0
 21 17  1  0
 33 24  1  0
 32 27  1  0
  1 36  1  0
  2 37  1  0
  3 38  1  0
  6 39  1  0
  7 40  1  0
  7 41  1  0
  8 42  1  0
  8 43  1  0
  9 44  1  6
 10 45  1  0
 14 46  1  0
 15 47  1  0
 15 48  1  0
 16 49  1  0
 16 50  1  0
 17 51  1  6
 18 52  1  0
 18 53  1  0
 19 54  1  0
 19 55  1  0
 20 56  1  0
 20 57  1  0
 21 58  1  0
 25 59  1  0
 25 60  1  0
 26 61  1  0
 26 62  1  0
 28 63  1  0
 29 64  1  0
 30 65  1  0
 31 66  1  0
 33 67  1  0
 33 68  1  0
 35 69  1  0
 35 70  1  0
M  END
>  <smiles>  (187) 
c1ccc2c(c1)CCC(Nc1nc(NCCC3CCCN3)nc(N3CCc4ccccc4C3)n1)C2

>  <score_type>  (187) 
oracle

>  <origin>  (187) 
autodockgpu

>  <m_score__min__energy>  (187) 
-11.550000000000001

>  <m_primary>  (187) 
energy

>  <rmsd>  (187) 
11.917663549793401

>  <m_score__min__rmsd>  (187) 
11.917663549793401

>  <meeko>  (187) 
{"free_energy": -11.2, "intermolecular_energy": -13.29, "internal_energy": -1.43, "cluster_size": 11, "cluster_id": 2, "rank_in_cluster": 1}

>  <energy>  (187) 
-10.91

>  <cluster_rmsd>  (187) 
0.99

>  <cluster>  (187) 
2

$$$$

     RDKit          3D

 70 75  0  0  1  0  0  0  0  0999 V2000
  140.0990   68.8780  228.4770 C   0  0  0  0  0  0  0  0  0  0  0  0
  141.1040   69.8150  228.3310 C   0  0  0  0  0  0  0  0  0  0  0  0
  141.2540   70.5270  227.1660 C   0  0  0  0  0  0  0  0  0  0  0  0
  140.4010   70.3280  226.1030 C   0  0  0  0  0  0  0  0  0  0  0  0
  139.4000   69.3990  226.2400 C   0  0  0  0  0  0  0  0  0  0  0  0
  139.2220   68.6600  227.4110 C   0  0  0  0  0  0  0  0  0  0  0  0
  138.4910   69.2100  225.0620 C   0  0  0  0  0  0  0  0  0  0  0  0
  138.2710   70.6260  224.5160 C   0  0  0  0  0  0  0  0  0  0  0  0
  139.5710   71.0040  223.8430 C   0  0  1  0  0  0  0  0  0  0  0  0
  139.3580   72.2160  223.0960 N   0  0  0  0  0  0  0  0  0  0  0  0
  140.3400   72.8520  222.2970 C   0  0  0  0  0  0  0  0  0  0  0  0
  140.3780   74.1970  222.2190 N   0  0  0  0  0  0  0  0  0  0  0  0
  141.2840   74.8600  221.4820 C   0  0  0  0  0  0  0  0  0  0  0  0
  141.3170   76.2770  221.4060 N   0  0  0  0  0  0  0  0  0  0  0  0
  140.1990   77.0580  220.9130 C   0  0  0  0  0  0  0  0  0  0  0  0
  139.9660   78.3200  221.6710 C   0  0  0  0  0  0  0  0  0  0  0  0
  141.0370   79.3510  221.4910 C   0  0  1  0  0  0  0  0  0  0  0  0
  140.7300   80.6610  222.1420 C   0  0  0  0  0  0  0  0  0  0  0  0
  140.9250   80.3150  223.6190 C   0  0  0  0  0  0  0  0  0  0  0  0
  142.1630   79.4410  223.5310 C   0  0  0  0  0  0  0  0  0  0  0  0
  142.2070   78.9010  222.2050 N   0  0  0  0  0  0  0  0  0  0  0  0
  142.1760   74.1350  220.8040 N   0  0  0  0  0  0  0  0  0  0  0  0
  142.1540   72.7750  220.8690 C   0  0  0  0  0  0  0  0  0  0  0  0
  143.1290   72.0490  220.1250 N   0  0  0  0  0  0  0  0  0  0  0  0
  144.4490   72.6160  219.9970 C   0  0  0  0  0  0  0  0  0  0  0  0
  145.3510   71.9010  219.0760 C   0  0  0  0  0  0  0  0  0  0  0  0
  145.2400   70.4270  219.1240 C   0  0  0  0  0  0  0  0  0  0  0  0
  146.3690   69.6370  218.9540 C   0  0  0  0  0  0  0  0  0  0  0  0
  146.2460   68.2510  219.0010 C   0  0  0  0  0  0  0  0  0  0  0  0
  145.0190   67.7030  219.2160 C   0  0  0  0  0  0  0  0  0  0  0  0
  143.9000   68.5150  219.3840 C   0  0  0  0  0  0  0  0  0  0  0  0
  143.9860   69.8940  219.3420 C   0  0  0  0  0  0  0  0  0  0  0  0
  142.8280   70.7920  219.5160 C   0  0  0  0  0  0  0  0  0  0  0  0
  141.2470   72.1490  221.6070 N   0  0  0  0  0  0  0  0  0  0  0  0
  140.6300   71.1360  224.8850 C   0  0  0  0  0  0  0  0  0  0  0  0
  139.9912   68.3139  229.4152 H   0  0  0  0  0  0  0  0  0  0  0  0
  141.7984   69.9945  229.1651 H   0  0  0  0  0  0  0  0  0  0  0  0
  142.0652   71.2651  227.0809 H   0  0  0  0  0  0  0  0  0  0  0  0
  138.4097   67.9227  227.4927 H   0  0  0  0  0  0  0  0  0  0  0  0
  138.9655   68.5701  224.3034 H   0  0  0  0  0  0  0  0  0  0  0  0
  137.5472   68.7162  225.3368 H   0  0  0  0  0  0  0  0  0  0  0  0
  137.4451   70.6342  223.7895 H   0  0  0  0  0  0  0  0  0  0  0  0
  138.0024   71.3345  225.3134 H   0  0  0  0  0  0  0  0  0  0  0  0
  139.9085   70.2329  223.1349 H   0  0  0  0  0  0  0  0  0  0  0  0
  138.3930   72.6420  223.1660 H   0  0  0  0  0  0  0  0  0  0  0  0
  142.1600   76.7980  221.7090 H   0  0  0  0  0  0  0  0  0  0  0  0
  140.3930   77.3159  219.8614 H   0  0  0  0  0  0  0  0  0  0  0  0
  139.2975   76.4397  221.0354 H   0  0  0  0  0  0  0  0  0  0  0  0
  139.0114   78.7522  221.3363 H   0  0  0  0  0  0  0  0  0  0  0  0
  139.9617   78.0517  222.7378 H   0  0  0  0  0  0  0  0  0  0  0  0
  141.1503   79.4792  220.4044 H   0  0  0  0  0  0  0  0  0  0  0  0
  141.4287   81.4458  221.8167 H   0  0  0  0  0  0  0  0  0  0  0  0
  139.7342   81.0613  221.9009 H   0  0  0  0  0  0  0  0  0  0  0  0
  141.1036   81.2138  224.2275 H   0  0  0  0  0  0  0  0  0  0  0  0
  140.0576   79.8382  224.0989 H   0  0  0  0  0  0  0  0  0  0  0  0
  143.0636   80.0428  223.7229 H   0  0  0  0  0  0  0  0  0  0  0  0
  142.1264   78.6357  224.2795 H   0  0  0  0  0  0  0  0  0  0  0  0
  143.0990   78.9940  221.7030 H   0  0  0  0  0  0  0  0  0  0  0  0
  144.3422   73.6493  219.6353 H   0  0  0  0  0  0  0  0  0  0  0  0
  144.9102   72.5454  220.9931 H   0  0  0  0  0  0  0  0  0  0  0  0
  145.1242   72.2287  218.0507 H   0  0  0  0  0  0  0  0  0  0  0  0
  146.3759   72.1463  219.3914 H   0  0  0  0  0  0  0  0  0  0  0  0
  147.3514   70.1018  218.7838 H   0  0  0  0  0  0  0  0  0  0  0  0
  147.1282   67.6079  218.8663 H   0  0  0  0  0  0  0  0  0  0  0  0
  144.9101   66.6092  219.2575 H   0  0  0  0  0  0  0  0  0  0  0  0
  142.9200   68.0456  219.5550 H   0  0  0  0  0  0  0  0  0  0  0  0
  142.3950   70.9877  218.5239 H   0  0  0  0  0  0  0  0  0  0  0  0
  142.1365   70.2758  220.1982 H   0  0  0  0  0  0  0  0  0  0  0  0
  141.5876   70.8248  224.4421 H   0  0  0  0  0  0  0  0  0  0  0  0
  140.6234   72.1887  225.2040 H   0  0  0  0  0  0  0  0  0  0  0  0
  1  2  2  0
  2  3  1  0
  3  4  2  0
  4  5  1  0
  5  6  2  0
  5  7  1  0
  7  8  1  0
  8  9  1  0
  9 10  1  0
 10 11  1  0
 11 12  2  0
 12 13  1  0
 13 14  1  0
 14 15  1  0
 15 16  1  0
 16 17  1  0
 17 18  1  0
 18 19  1  0
 19 20  1  0
 20 21  1  0
 13 22  2  0
 22 23  1  0
 23 24  1  0
 24 25  1  0
 25 26  1  0
 26 27  1  0
 27 28  2  0
 28 29  1  0
 29 30  2  0
 30 31  1  0
 31 32  2  0
 32 33  1  0
 23 34  2  0
  9 35  1  0
  6  1  1  0
 34 11  1  0
 35  4  1  0
 21 17  1  0
 33 24  1  0
 32 27  1  0
  1 36  1  0
  2 37  1  0
  3 38  1  0
  6 39  1  0
  7 40  1  0
  7 41  1  0
  8 42  1  0
  8 43  1  0
  9 44  1  6
 10 45  1  0
 14 46  1  0
 15 47  1  0
 15 48  1  0
 16 49  1  0
 16 50  1  0
 17 51  1  6
 18 52  1  0
 18 53  1  0
 19 54  1  0
 19 55  1  0
 20 56  1  0
 20 57  1  0
 21 58  1  0
 25 59  1  0
 25 60  1  0
 26 61  1  0
 26 62  1  0
 28 63  1  0
 29 64  1  0
 30 65  1  0
 31 66  1  0
 33 67  1  0
 33 68  1  0
 35 69  1  0
 35 70  1  0
M  END
>  <smiles>  (188) 
c1ccc2c(c1)CCC(Nc1nc(NCCC3CCCN3)nc(N3CCc4ccccc4C3)n1)C2

>  <score_type>  (188) 
oracle

>  <origin>  (188) 
autodockgpu

>  <m_score__min__energy>  (188) 
-11.550000000000001

>  <m_primary>  (188) 
energy

>  <rmsd>  (188) 
11.929227431265483

>  <m_score__min__rmsd>  (188) 
11.929227431265483

>  <meeko>  (188) 
{"free_energy": -11.0, "intermolecular_energy": -13.09, "internal_energy": -1.5, "cluster_size": 11, "cluster_id": 2, "rank_in_cluster": 4}

>  <energy>  (188) 
-10.88

>  <cluster_rmsd>  (188) 
0.61

>  <cluster>  (188) 
2

$$$$

     RDKit          3D

 70 75  0  0  1  0  0  0  0  0999 V2000
  140.3070   68.1970  228.5980 C   0  0  0  0  0  0  0  0  0  0  0  0
  141.0800   69.3390  228.6920 C   0  0  0  0  0  0  0  0  0  0  0  0
  141.2160   70.2010  227.6310 C   0  0  0  0  0  0  0  0  0  0  0  0
  140.5800   69.9510  226.4340 C   0  0  0  0  0  0  0  0  0  0  0  0
  139.8100   68.8190  226.3320 C   0  0  0  0  0  0  0  0  0  0  0  0
  139.6530   67.9250  227.3940 C   0  0  0  0  0  0  0  0  0  0  0  0
  139.1330   68.5810  225.0160 C   0  0  0  0  0  0  0  0  0  0  0  0
  138.6670   69.9720  224.5660 C   0  0  0  0  0  0  0  0  0  0  0  0
  139.9240   70.6980  224.1400 C   0  0  1  0  0  0  0  0  0  0  0  0
  139.5380   71.9160  223.4770 N   0  0  0  0  0  0  0  0  0  0  0  0
  140.2080   72.4690  222.3570 C   0  0  0  0  0  0  0  0  0  0  0  0
  140.9050   71.6690  221.5260 N   0  0  0  0  0  0  0  0  0  0  0  0
  141.5590   72.1300  220.4470 C   0  0  0  0  0  0  0  0  0  0  0  0
  142.2900   71.2800  219.5770 N   0  0  0  0  0  0  0  0  0  0  0  0
  143.6270   70.8110  219.8860 C   0  0  0  0  0  0  0  0  0  0  0  0
  144.6930   71.4420  219.0560 C   0  0  0  0  0  0  0  0  0  0  0  0
  144.7010   72.9390  219.1000 C   0  0  1  0  0  0  0  0  0  0  0  0
  144.3720   73.5050  220.4440 C   0  0  0  0  0  0  0  0  0  0  0  0
  145.6540   73.1980  221.2200 C   0  0  0  0  0  0  0  0  0  0  0  0
  146.6940   73.5180  220.1620 C   0  0  0  0  0  0  0  0  0  0  0  0
  146.0580   73.3790  218.8860 N   0  0  0  0  0  0  0  0  0  0  0  0
  141.5030   73.4420  220.2070 N   0  0  0  0  0  0  0  0  0  0  0  0
  140.8050   74.2670  221.0350 C   0  0  0  0  0  0  0  0  0  0  0  0
  140.7780   75.6600  220.7340 N   0  0  0  0  0  0  0  0  0  0  0  0
  140.7240   76.5930  221.8320 C   0  0  0  0  0  0  0  0  0  0  0  0
  140.5250   78.0010  221.4470 C   0  0  0  0  0  0  0  0  0  0  0  0
  141.2550   78.4180  220.2300 C   0  0  0  0  0  0  0  0  0  0  0  0
  141.7770   79.7010  220.1340 C   0  0  0  0  0  0  0  0  0  0  0  0
  142.4600   80.0750  218.9810 C   0  0  0  0  0  0  0  0  0  0  0  0
  142.6010   79.1720  217.9730 C   0  0  0  0  0  0  0  0  0  0  0  0
  142.0680   77.8920  218.0900 C   0  0  0  0  0  0  0  0  0  0  0  0
  141.3840   77.4860  219.2210 C   0  0  0  0  0  0  0  0  0  0  0  0
  140.8040   76.1390  219.3880 C   0  0  0  0  0  0  0  0  0  0  0  0
  140.1690   73.7810  222.0930 N   0  0  0  0  0  0  0  0  0  0  0  0
  140.7760   70.9280  225.3420 C   0  0  0  0  0  0  0  0  0  0  0  0
  140.2087   67.5150  229.4554 H   0  0  0  0  0  0  0  0  0  0  0  0
  141.5974   69.5624  229.6367 H   0  0  0  0  0  0  0  0  0  0  0  0
  141.8395   71.1009  227.7379 H   0  0  0  0  0  0  0  0  0  0  0  0
  139.0280   67.0265  227.2845 H   0  0  0  0  0  0  0  0  0  0  0  0
  139.8378   68.1528  224.2881 H   0  0  0  0  0  0  0  0  0  0  0  0
  138.3001   67.8671  225.0974 H   0  0  0  0  0  0  0  0  0  0  0  0
  137.9659   69.8889  223.7225 H   0  0  0  0  0  0  0  0  0  0  0  0
  138.1382   70.5061  225.3692 H   0  0  0  0  0  0  0  0  0  0  0  0
  140.5219   70.1083  223.4295 H   0  0  0  0  0  0  0  0  0  0  0  0
  138.6940   72.4140  223.8720 H   0  0  0  0  0  0  0  0  0  0  0  0
  141.8750   70.9670  218.6800 H   0  0  0  0  0  0  0  0  0  0  0  0
  143.8356   71.0302  220.9436 H   0  0  0  0  0  0  0  0  0  0  0  0
  143.6468   69.7331  219.6675 H   0  0  0  0  0  0  0  0  0  0  0  0
  145.6682   71.0813  219.4148 H   0  0  0  0  0  0  0  0  0  0  0  0
  144.4905   71.1579  218.0128 H   0  0  0  0  0  0  0  0  0  0  0  0
  143.9614   73.2657  218.3542 H   0  0  0  0  0  0  0  0  0  0  0  0
  144.1833   74.5873  220.3900 H   0  0  0  0  0  0  0  0  0  0  0  0
  143.4602   73.0889  220.8973 H   0  0  0  0  0  0  0  0  0  0  0  0
  145.7598   73.8447  222.1035 H   0  0  0  0  0  0  0  0  0  0  0  0
  145.7118   72.1786  221.6292 H   0  0  0  0  0  0  0  0  0  0  0  0
  147.0583   74.5479  220.2912 H   0  0  0  0  0  0  0  0  0  0  0  0
  147.5558   72.8394  220.2443 H   0  0  0  0  0  0  0  0  0  0  0  0
  146.1750   74.1600  218.2300 H   0  0  0  0  0  0  0  0  0  0  0  0
  139.8921   76.2985  222.4887 H   0  0  0  0  0  0  0  0  0  0  0  0
  141.7075   76.5458  222.3225 H   0  0  0  0  0  0  0  0  0  0  0  0
  139.4505   78.1602  221.2735 H   0  0  0  0  0  0  0  0  0  0  0  0
  140.9247   78.6083  222.2725 H   0  0  0  0  0  0  0  0  0  0  0  0
  141.6518   80.4148  220.9615 H   0  0  0  0  0  0  0  0  0  0  0  0
  142.8803   81.0870  218.8856 H   0  0  0  0  0  0  0  0  0  0  0  0
  143.1410   79.4563  217.0578 H   0  0  0  0  0  0  0  0  0  0  0  0
  142.1944   77.1827  217.2588 H   0  0  0  0  0  0  0  0  0  0  0  0
  139.7701   76.1629  219.0133 H   0  0  0  0  0  0  0  0  0  0  0  0
  141.4534   75.4507  218.8271 H   0  0  0  0  0  0  0  0  0  0  0  0
  141.8295   70.8849  225.0286 H   0  0  0  0  0  0  0  0  0  0  0  0
  140.4847   71.9086  225.7464 H   0  0  0  0  0  0  0  0  0  0  0  0
  1  2  2  0
  2  3  1  0
  3  4  2  0
  4  5  1  0
  5  6  2  0
  5  7  1  0
  7  8  1  0
  8  9  1  0
  9 10  1  0
 10 11  1  0
 11 12  2  0
 12 13  1  0
 13 14  1  0
 14 15  1  0
 15 16  1  0
 16 17  1  0
 17 18  1  0
 18 19  1  0
 19 20  1  0
 20 21  1  0
 13 22  2  0
 22 23  1  0
 23 24  1  0
 24 25  1  0
 25 26  1  0
 26 27  1  0
 27 28  2  0
 28 29  1  0
 29 30  2  0
 30 31  1  0
 31 32  2  0
 32 33  1  0
 23 34  2  0
  9 35  1  0
  6  1  1  0
 34 11  1  0
 35  4  1  0
 21 17  1  0
 33 24  1  0
 32 27  1  0
  1 36  1  0
  2 37  1  0
  3 38  1  0
  6 39  1  0
  7 40  1  0
  7 41  1  0
  8 42  1  0
  8 43  1  0
  9 44  1  6
 10 45  1  0
 14 46  1  0
 15 47  1  0
 15 48  1  0
 16 49  1  0
 16 50  1  0
 17 51  1  6
 18 52  1  0
 18 53  1  0
 19 54  1  0
 19 55  1  0
 20 56  1  0
 20 57  1  0
 21 58  1  0
 25 59  1  0
 25 60  1  0
 26 61  1  0
 26 62  1  0
 28 63  1  0
 29 64  1  0
 30 65  1  0
 31 66  1  0
 33 67  1  0
 33 68  1  0
 35 69  1  0
 35 70  1  0
M  END
>  <smiles>  (189) 
c1ccc2c(c1)CCC(Nc1nc(NCCC3CCCN3)nc(N3CCc4ccccc4C3)n1)C2

>  <score_type>  (189) 
oracle

>  <origin>  (189) 
autodockgpu

>  <m_score__min__energy>  (189) 
-11.550000000000001

>  <m_primary>  (189) 
energy

>  <rmsd>  (189) 
12.389274418608284

>  <m_score__min__rmsd>  (189) 
12.389274418608284

>  <meeko>  (189) 
{"free_energy": -10.28, "intermolecular_energy": -12.37, "internal_energy": -1.17, "cluster_size": 31, "cluster_id": 1, "rank_in_cluster": 15}

>  <energy>  (189) 
-10.57

>  <cluster_rmsd>  (189) 
1.19

>  <cluster>  (189) 
2

$$$$

     RDKit          3D

 70 75  0  0  1  0  0  0  0  0999 V2000
  140.0270   68.5210  228.3500 C   0  0  0  0  0  0  0  0  0  0  0  0
  140.9350   69.5630  228.3510 C   0  0  0  0  0  0  0  0  0  0  0  0
  141.0990   70.3710  227.2530 C   0  0  0  0  0  0  0  0  0  0  0  0
  140.3570   70.1660  226.1100 C   0  0  0  0  0  0  0  0  0  0  0  0
  139.4520   69.1340  226.1000 C   0  0  0  0  0  0  0  0  0  0  0  0
  139.2630   68.2950  227.2010 C   0  0  0  0  0  0  0  0  0  0  0  0
  138.6630   68.9410  224.8390 C   0  0  0  0  0  0  0  0  0  0  0  0
  138.3360   70.3650  224.3700 C   0  0  0  0  0  0  0  0  0  0  0  0
  139.6380   70.9210  223.8370 C   0  0  1  0  0  0  0  0  0  0  0  0
  139.3560   72.1570  223.1560 N   0  0  0  0  0  0  0  0  0  0  0  0
  140.2970   72.8840  222.3840 C   0  0  0  0  0  0  0  0  0  0  0  0
  140.2150   74.2270  222.3120 N   0  0  0  0  0  0  0  0  0  0  0  0
  141.0750   74.9740  221.6010 C   0  0  0  0  0  0  0  0  0  0  0  0
  140.9820   76.3880  221.5310 N   0  0  0  0  0  0  0  0  0  0  0  0
  140.9570   77.1060  220.2720 C   0  0  0  0  0  0  0  0  0  0  0  0
  140.6820   78.5640  220.4160 C   0  0  0  0  0  0  0  0  0  0  0  0
  141.8110   79.3450  221.0180 C   0  0  1  0  0  0  0  0  0  0  0  0
  141.4230   80.7150  221.4700 C   0  0  0  0  0  0  0  0  0  0  0  0
  140.6070   80.3990  222.7240 C   0  0  0  0  0  0  0  0  0  0  0  0
  141.4490   79.2860  223.3210 C   0  0  0  0  0  0  0  0  0  0  0  0
  142.1910   78.6930  222.2480 N   0  0  0  0  0  0  0  0  0  0  0  0
  142.0470   74.3360  220.9440 N   0  0  0  0  0  0  0  0  0  0  0  0
  142.1460   72.9790  221.0040 C   0  0  0  0  0  0  0  0  0  0  0  0
  143.2020   72.3480  220.2840 N   0  0  0  0  0  0  0  0  0  0  0  0
  144.5450   72.8350  220.4790 C   0  0  0  0  0  0  0  0  0  0  0  0
  145.5580   72.2560  219.5780 C   0  0  0  0  0  0  0  0  0  0  0  0
  145.3860   70.8130  219.3030 C   0  0  0  0  0  0  0  0  0  0  0  0
  146.4970   69.9950  219.1470 C   0  0  0  0  0  0  0  0  0  0  0  0
  146.3160   68.6400  218.8870 C   0  0  0  0  0  0  0  0  0  0  0  0
  145.0510   68.1470  218.7940 C   0  0  0  0  0  0  0  0  0  0  0  0
  143.9510   68.9860  218.9540 C   0  0  0  0  0  0  0  0  0  0  0  0
  144.0940   70.3370  219.2120 C   0  0  0  0  0  0  0  0  0  0  0  0
  142.9580   71.2610  219.3890 C   0  0  0  0  0  0  0  0  0  0  0  0
  141.2800   72.2700  221.7160 N   0  0  0  0  0  0  0  0  0  0  0  0
  140.5930   71.0800  224.9720 C   0  0  0  0  0  0  0  0  0  0  0  0
  139.9076   67.8813  229.2368 H   0  0  0  0  0  0  0  0  0  0  0  0
  141.5394   69.7491  229.2510 H   0  0  0  0  0  0  0  0  0  0  0  0
  141.8311   71.1914  227.2861 H   0  0  0  0  0  0  0  0  0  0  0  0
  138.5301   67.4755  227.1648 H   0  0  0  0  0  0  0  0  0  0  0  0
  139.2608   68.4102  224.0834 H   0  0  0  0  0  0  0  0  0  0  0  0
  137.7591   68.3350  224.9993 H   0  0  0  0  0  0  0  0  0  0  0  0
  137.5735   70.3436  223.5775 H   0  0  0  0  0  0  0  0  0  0  0  0
  137.9312   70.9817  225.1860 H   0  0  0  0  0  0  0  0  0  0  0  0
  140.1104   70.2428  223.1111 H   0  0  0  0  0  0  0  0  0  0  0  0
  138.3700   72.5280  223.2530 H   0  0  0  0  0  0  0  0  0  0  0  0
  140.9280   76.9530  222.3990 H   0  0  0  0  0  0  0  0  0  0  0  0
  141.9352   76.9842  219.7839 H   0  0  0  0  0  0  0  0  0  0  0  0
  140.1341   76.6820  219.6778 H   0  0  0  0  0  0  0  0  0  0  0  0
  140.4712   78.9757  219.4179 H   0  0  0  0  0  0  0  0  0  0  0  0
  139.8293   78.6587  221.1044 H   0  0  0  0  0  0  0  0  0  0  0  0
  142.5858   79.4027  220.2393 H   0  0  0  0  0  0  0  0  0  0  0  0
  142.3066   81.3254  221.7081 H   0  0  0  0  0  0  0  0  0  0  0  0
  140.8783   81.3004  220.7146 H   0  0  0  0  0  0  0  0  0  0  0  0
  140.5425   81.2666  223.3972 H   0  0  0  0  0  0  0  0  0  0  0  0
  139.5568   80.1317  222.5351 H   0  0  0  0  0  0  0  0  0  0  0  0
  142.1381   79.6971  224.0735 H   0  0  0  0  0  0  0  0  0  0  0  0
  140.8124   78.5375  223.8156 H   0  0  0  0  0  0  0  0  0  0  0  0
  143.2010   78.5800  222.3980 H   0  0  0  0  0  0  0  0  0  0  0  0
  144.5375   73.9245  220.3278 H   0  0  0  0  0  0  0  0  0  0  0  0
  144.8342   72.5356  221.4972 H   0  0  0  0  0  0  0  0  0  0  0  0
  145.5135   72.7953  218.6203 H   0  0  0  0  0  0  0  0  0  0  0  0
  146.5263   72.3623  220.0890 H   0  0  0  0  0  0  0  0  0  0  0  0
  147.5108   70.4141  219.2282 H   0  0  0  0  0  0  0  0  0  0  0  0
  147.1837   67.9763  218.7584 H   0  0  0  0  0  0  0  0  0  0  0  0
  144.8960   67.0771  218.5908 H   0  0  0  0  0  0  0  0  0  0  0  0
  142.9393   68.5618  218.8728 H   0  0  0  0  0  0  0  0  0  0  0  0
  142.7011   71.6795  218.4047 H   0  0  0  0  0  0  0  0  0  0  0  0
  142.1451   70.6695  219.8355 H   0  0  0  0  0  0  0  0  0  0  0  0
  141.6095   70.8994  224.5925 H   0  0  0  0  0  0  0  0  0  0  0  0
  140.4503   72.1002  225.3578 H   0  0  0  0  0  0  0  0  0  0  0  0
  1  2  2  0
  2  3  1  0
  3  4  2  0
  4  5  1  0
  5  6  2  0
  5  7  1  0
  7  8  1  0
  8  9  1  0
  9 10  1  0
 10 11  1  0
 11 12  2  0
 12 13  1  0
 13 14  1  0
 14 15  1  0
 15 16  1  0
 16 17  1  0
 17 18  1  0
 18 19  1  0
 19 20  1  0
 20 21  1  0
 13 22  2  0
 22 23  1  0
 23 24  1  0
 24 25  1  0
 25 26  1  0
 26 27  1  0
 27 28  2  0
 28 29  1  0
 29 30  2  0
 30 31  1  0
 31 32  2  0
 32 33  1  0
 23 34  2  0
  9 35  1  0
  6  1  1  0
 34 11  1  0
 35  4  1  0
 21 17  1  0
 33 24  1  0
 32 27  1  0
  1 36  1  0
  2 37  1  0
  3 38  1  0
  6 39  1  0
  7 40  1  0
  7 41  1  0
  8 42  1  0
  8 43  1  0
  9 44  1  6
 10 45  1  0
 14 46  1  0
 15 47  1  0
 15 48  1  0
 16 49  1  0
 16 50  1  0
 17 51  1  6
 18 52  1  0
 18 53  1  0
 19 54  1  0
 19 55  1  0
 20 56  1  0
 20 57  1  0
 21 58  1  0
 25 59  1  0
 25 60  1  0
 26 61  1  0
 26 62  1  0
 28 63  1  0
 29 64  1  0
 30 65  1  0
 31 66  1  0
 33 67  1  0
 33 68  1  0
 35 69  1  0
 35 70  1  0
M  END
>  <smiles>  (190) 
c1ccc2c(c1)CCC(Nc1nc(NCCC3CCCN3)nc(N3CCc4ccccc4C3)n1)C2

>  <score_type>  (190) 
oracle

>  <origin>  (190) 
autodockgpu

>  <m_score__min__energy>  (190) 
-11.550000000000001

>  <m_primary>  (190) 
energy

>  <rmsd>  (190) 
12.08622954905273

>  <m_score__min__rmsd>  (190) 
12.08622954905273

>  <meeko>  (190) 
{"free_energy": -10.32, "intermolecular_energy": -12.41, "internal_energy": -1.45, "cluster_size": 11, "cluster_id": 2, "rank_in_cluster": 9}

>  <energy>  (190) 
-10.32

>  <cluster_rmsd>  (190) 
0.63

>  <cluster>  (190) 
2

$$$$

     RDKit          3D

 70 75  0  0  1  0  0  0  0  0999 V2000
  140.5170   68.6990  228.1010 C   0  0  0  0  0  0  0  0  0  0  0  0
  141.0370   69.9750  228.2090 C   0  0  0  0  0  0  0  0  0  0  0  0
  140.9960   70.8560  227.1570 C   0  0  0  0  0  0  0  0  0  0  0  0
  140.4300   70.4930  225.9540 C   0  0  0  0  0  0  0  0  0  0  0  0
  139.9110   69.2270  225.8380 C   0  0  0  0  0  0  0  0  0  0  0  0
  139.9380   68.3090  226.8900 C   0  0  0  0  0  0  0  0  0  0  0  0
  139.3030   68.8670  224.5150 C   0  0  0  0  0  0  0  0  0  0  0  0
  138.5610   70.1370  224.0760 C   0  0  0  0  0  0  0  0  0  0  0  0
  139.6420   71.1110  223.6630 C   0  0  1  0  0  0  0  0  0  0  0  0
  139.0160   72.2290  223.0090 N   0  0  0  0  0  0  0  0  0  0  0  0
  139.6840   73.1350  222.1480 C   0  0  0  0  0  0  0  0  0  0  0  0
  140.3560   72.6740  221.0750 N   0  0  0  0  0  0  0  0  0  0  0  0
  141.0080   73.4790  220.2200 C   0  0  0  0  0  0  0  0  0  0  0  0
  141.7120   72.9850  219.0910 N   0  0  0  0  0  0  0  0  0  0  0  0
  142.5420   71.7980  219.1490 C   0  0  0  0  0  0  0  0  0  0  0  0
  143.9230   72.0530  219.6490 C   0  0  0  0  0  0  0  0  0  0  0  0
  144.4590   73.4100  219.3070 C   0  0  1  0  0  0  0  0  0  0  0  0
  144.5290   74.3420  220.4730 C   0  0  0  0  0  0  0  0  0  0  0  0
  145.7130   73.7640  221.2490 C   0  0  0  0  0  0  0  0  0  0  0  0
  146.6510   73.4300  220.1030 C   0  0  0  0  0  0  0  0  0  0  0  0
  145.8440   73.2540  218.9330 N   0  0  0  0  0  0  0  0  0  0  0  0
  140.9760   74.7910  220.4640 N   0  0  0  0  0  0  0  0  0  0  0  0
  140.3030   75.2770  221.5440 C   0  0  0  0  0  0  0  0  0  0  0  0
  140.3010   76.6860  221.7590 N   0  0  0  0  0  0  0  0  0  0  0  0
  139.1110   77.2890  222.3090 C   0  0  0  0  0  0  0  0  0  0  0  0
  139.1150   78.7620  222.3430 C   0  0  0  0  0  0  0  0  0  0  0  0
  140.4160   79.3680  222.6980 C   0  0  0  0  0  0  0  0  0  0  0  0
  140.4610   80.5310  223.4560 C   0  0  0  0  0  0  0  0  0  0  0  0
  141.6950   81.0870  223.7790 C   0  0  0  0  0  0  0  0  0  0  0  0
  142.8300   80.4760  223.3470 C   0  0  0  0  0  0  0  0  0  0  0  0
  142.7620   79.3110  222.5880 C   0  0  0  0  0  0  0  0  0  0  0  0
  141.5540   78.7310  222.2480 C   0  0  0  0  0  0  0  0  0  0  0  0
  141.4350   77.4970  221.4470 C   0  0  0  0  0  0  0  0  0  0  0  0
  139.6680   74.4550  222.3700 N   0  0  0  0  0  0  0  0  0  0  0  0
  140.4240   71.5000  224.8720 C   0  0  0  0  0  0  0  0  0  0  0  0
  140.5580   68.0034  228.9521 H   0  0  0  0  0  0  0  0  0  0  0  0
  141.4936   70.2914  229.1584 H   0  0  0  0  0  0  0  0  0  0  0  0
  141.4201   71.8640  227.2757 H   0  0  0  0  0  0  0  0  0  0  0  0
  139.5132   67.3016  226.7684 H   0  0  0  0  0  0  0  0  0  0  0  0
  140.0840   68.6016  223.7873 H   0  0  0  0  0  0  0  0  0  0  0  0
  138.6359   67.9951  224.5841 H   0  0  0  0  0  0  0  0  0  0  0  0
  137.8944   69.9197  223.2284 H   0  0  0  0  0  0  0  0  0  0  0  0
  137.9313   70.5422  224.8818 H   0  0  0  0  0  0  0  0  0  0  0  0
  140.3509   70.6645  222.9501 H   0  0  0  0  0  0  0  0  0  0  0  0
  137.9840   72.3620  223.2000 H   0  0  0  0  0  0  0  0  0  0  0  0
  141.6480   73.4730  218.1790 H   0  0  0  0  0  0  0  0  0  0  0  0
  142.0599   71.0701  219.8181 H   0  0  0  0  0  0  0  0  0  0  0  0
  142.6383   71.4239  218.1191 H   0  0  0  0  0  0  0  0  0  0  0  0
  143.9180   71.9500  220.7442 H   0  0  0  0  0  0  0  0  0  0  0  0
  144.5784   71.3205  219.1552 H   0  0  0  0  0  0  0  0  0  0  0  0
  143.7889   73.8127  218.5332 H   0  0  0  0  0  0  0  0  0  0  0  0
  144.7247   75.3755  220.1511 H   0  0  0  0  0  0  0  0  0  0  0  0
  143.5976   74.4060  221.0547 H   0  0  0  0  0  0  0  0  0  0  0  0
  146.1529   74.5055  221.9321 H   0  0  0  0  0  0  0  0  0  0  0  0
  145.4647   72.9152  221.9032 H   0  0  0  0  0  0  0  0  0  0  0  0
  147.3648   74.2525  219.9483 H   0  0  0  0  0  0  0  0  0  0  0  0
  147.2257   72.5180  220.3218 H   0  0  0  0  0  0  0  0  0  0  0  0
  146.1390   73.7680  218.0930 H   0  0  0  0  0  0  0  0  0  0  0  0
  138.2529   76.9645  221.7021 H   0  0  0  0  0  0  0  0  0  0  0  0
  139.0565   76.9586  223.3568 H   0  0  0  0  0  0  0  0  0  0  0  0
  138.8267   79.1286  221.3468 H   0  0  0  0  0  0  0  0  0  0  0  0
  138.4090   79.0565  223.1334 H   0  0  0  0  0  0  0  0  0  0  0  0
  139.5304   81.0078  223.7976 H   0  0  0  0  0  0  0  0  0  0  0  0
  141.7514   82.0090  224.3762 H   0  0  0  0  0  0  0  0  0  0  0  0
  143.8106   80.9059  223.5994 H   0  0  0  0  0  0  0  0  0  0  0  0
  143.6958   78.8386  222.2492 H   0  0  0  0  0  0  0  0  0  0  0  0
  141.3699   77.7825  220.3867 H   0  0  0  0  0  0  0  0  0  0  0  0
  142.3225   76.8903  221.6801 H   0  0  0  0  0  0  0  0  0  0  0  0
  141.4649   71.6783  224.5641 H   0  0  0  0  0  0  0  0  0  0  0  0
  139.9350   72.3953  225.2835 H   0  0  0  0  0  0  0  0  0  0  0  0
  1  2  2  0
  2  3  1  0
  3  4  2  0
  4  5  1  0
  5  6  2  0
  5  7  1  0
  7  8  1  0
  8  9  1  0
  9 10  1  0
 10 11  1  0
 11 12  2  0
 12 13  1  0
 13 14  1  0
 14 15  1  0
 15 16  1  0
 16 17  1  0
 17 18  1  0
 18 19  1  0
 19 20  1  0
 20 21  1  0
 13 22  2  0
 22 23  1  0
 23 24  1  0
 24 25  1  0
 25 26  1  0
 26 27  1  0
 27 28  2  0
 28 29  1  0
 29 30  2  0
 30 31  1  0
 31 32  2  0
 32 33  1  0
 23 34  2  0
  9 35  1  0
  6  1  1  0
 34 11  1  0
 35  4  1  0
 21 17  1  0
 33 24  1  0
 32 27  1  0
  1 36  1  0
  2 37  1  0
  3 38  1  0
  6 39  1  0
  7 40  1  0
  7 41  1  0
  8 42  1  0
  8 43  1  0
  9 44  1  6
 10 45  1  0
 14 46  1  0
 15 47  1  0
 15 48  1  0
 16 49  1  0
 16 50  1  0
 17 51  1  6
 18 52  1  0
 18 53  1  0
 19 54  1  0
 19 55  1  0
 20 56  1  0
 20 57  1  0
 21 58  1  0
 25 59  1  0
 25 60  1  0
 26 61  1  0
 26 62  1  0
 28 63  1  0
 29 64  1  0
 30 65  1  0
 31 66  1  0
 33 67  1  0
 33 68  1  0
 35 69  1  0
 35 70  1  0
M  END
>  <smiles>  (191) 
c1ccc2c(c1)CCC(Nc1nc(NCCC3CCCN3)nc(N3CCc4ccccc4C3)n1)C2

>  <score_type>  (191) 
oracle

>  <origin>  (191) 
autodockgpu

>  <m_score__min__energy>  (191) 
-11.550000000000001

>  <m_primary>  (191) 
energy

>  <rmsd>  (191) 
11.875986357048667

>  <m_score__min__rmsd>  (191) 
11.875986357048667

>  <meeko>  (191) 
{"free_energy": -11.55, "intermolecular_energy": -13.64, "internal_energy": -1.2, "cluster_size": 31, "cluster_id": 1, "rank_in_cluster": 1}

>  <energy>  (191) 
-10.15

>  <cluster_rmsd>  (191) 
1.34

>  <cluster>  (191) 
2

$$$$

     RDKit          3D

 70 75  0  0  1  0  0  0  0  0999 V2000
  140.6150   68.0890  227.7180 C   0  0  0  0  0  0  0  0  0  0  0  0
  139.8040   67.4400  226.8070 C   0  0  0  0  0  0  0  0  0  0  0  0
  139.2630   68.1010  225.7320 C   0  0  0  0  0  0  0  0  0  0  0  0
  139.5170   69.4400  225.5270 C   0  0  0  0  0  0  0  0  0  0  0  0
  140.3220   70.0920  226.4270 C   0  0  0  0  0  0  0  0  0  0  0  0
  140.8860   69.4470  227.5300 C   0  0  0  0  0  0  0  0  0  0  0  0
  140.5760   71.5480  226.1720 C   0  0  0  0  0  0  0  0  0  0  0  0
  140.7430   71.6480  224.6500 C   0  0  0  0  0  0  0  0  0  0  0  0
  139.3530   71.4730  224.0810 C   0  0  1  0  0  0  0  0  0  0  0  0
  139.3940   71.8000  222.6800 N   0  0  0  0  0  0  0  0  0  0  0  0
  139.0380   73.0600  222.1370 C   0  0  0  0  0  0  0  0  0  0  0  0
  137.8010   73.2520  221.6360 N   0  0  0  0  0  0  0  0  0  0  0  0
  137.4010   74.4210  221.1090 C   0  0  0  0  0  0  0  0  0  0  0  0
  136.0960   74.6140  220.5850 N   0  0  0  0  0  0  0  0  0  0  0  0
  135.0780   75.3700  221.2870 C   0  0  0  0  0  0  0  0  0  0  0  0
  134.5690   74.6970  222.5160 C   0  0  0  0  0  0  0  0  0  0  0  0
  135.5910   74.5470  223.6020 C   0  0  1  0  0  0  0  0  0  0  0  0
  135.0420   74.7410  224.9780 C   0  0  0  0  0  0  0  0  0  0  0  0
  134.2450   73.4490  225.1680 C   0  0  0  0  0  0  0  0  0  0  0  0
  135.1980   72.4490  224.5390 C   0  0  0  0  0  0  0  0  0  0  0  0
  136.0210   73.1700  223.6150 N   0  0  0  0  0  0  0  0  0  0  0  0
  138.2820   75.4230  221.0910 N   0  0  0  0  0  0  0  0  0  0  0  0
  139.5370   75.2480  221.5920 C   0  0  0  0  0  0  0  0  0  0  0  0
  140.4400   76.3500  221.5470 N   0  0  0  0  0  0  0  0  0  0  0  0
  140.7080   76.9590  220.2670 C   0  0  0  0  0  0  0  0  0  0  0  0
  141.7770   77.9740  220.2690 C   0  0  0  0  0  0  0  0  0  0  0  0
  141.7940   78.8500  221.4610 C   0  0  0  0  0  0  0  0  0  0  0  0
  142.1530   80.1850  221.3410 C   0  0  0  0  0  0  0  0  0  0  0  0
  142.1650   80.9940  222.4730 C   0  0  0  0  0  0  0  0  0  0  0  0
  141.8210   80.4550  223.6740 C   0  0  0  0  0  0  0  0  0  0  0  0
  141.4650   79.1130  223.7720 C   0  0  0  0  0  0  0  0  0  0  0  0
  141.4430   78.2810  222.6680 C   0  0  0  0  0  0  0  0  0  0  0  0
  141.0710   76.8540  222.7250 C   0  0  0  0  0  0  0  0  0  0  0  0
  139.9020   74.0810  222.1060 N   0  0  0  0  0  0  0  0  0  0  0  0
  138.8980   70.0770  224.3450 C   0  0  0  0  0  0  0  0  0  0  0  0
  141.0397   67.5467  228.5757 H   0  0  0  0  0  0  0  0  0  0  0  0
  139.5870   66.3706  226.9459 H   0  0  0  0  0  0  0  0  0  0  0  0
  138.6194   67.5555  225.0262 H   0  0  0  0  0  0  0  0  0  0  0  0
  141.5287   69.9953  228.2345 H   0  0  0  0  0  0  0  0  0  0  0  0
  139.7244   72.1564  226.5105 H   0  0  0  0  0  0  0  0  0  0  0  0
  141.4573   71.9202  226.7149 H   0  0  0  0  0  0  0  0  0  0  0  0
  141.1520   72.6304  224.3715 H   0  0  0  0  0  0  0  0  0  0  0  0
  141.4411   70.8904  224.2645 H   0  0  0  0  0  0  0  0  0  0  0  0
  138.6242   72.1452  224.5574 H   0  0  0  0  0  0  0  0  0  0  0  0
  139.7170   71.0300  222.0320 H   0  0  0  0  0  0  0  0  0  0  0  0
  135.8360   74.2110  219.6660 H   0  0  0  0  0  0  0  0  0  0  0  0
  135.5049   76.3419  221.5754 H   0  0  0  0  0  0  0  0  0  0  0  0
  134.2244   75.4720  220.6007 H   0  0  0  0  0  0  0  0  0  0  0  0
  133.7300   75.2887  222.9111 H   0  0  0  0  0  0  0  0  0  0  0  0
  134.2711   73.6805  222.2195 H   0  0  0  0  0  0  0  0  0  0  0  0
  136.3679   75.2963  223.3896 H   0  0  0  0  0  0  0  0  0  0  0  0
  135.8460   74.8314  225.7232 H   0  0  0  0  0  0  0  0  0  0  0  0
  134.4481   75.6587  225.1007 H   0  0  0  0  0  0  0  0  0  0  0  0
  134.0701   73.2312  226.2319 H   0  0  0  0  0  0  0  0  0  0  0  0
  133.2356   73.4616  224.7309 H   0  0  0  0  0  0  0  0  0  0  0  0
  135.8224   71.9837  225.3159 H   0  0  0  0  0  0  0  0  0  0  0  0
  134.6423   71.6505  224.0255 H   0  0  0  0  0  0  0  0  0  0  0  0
  137.0340   73.0200  223.6930 H   0  0  0  0  0  0  0  0  0  0  0  0
  140.9953   76.1629  219.5643 H   0  0  0  0  0  0  0  0  0  0  0  0
  139.7861   77.4856  219.9793 H   0  0  0  0  0  0  0  0  0  0  0  0
  142.7443   77.4533  220.2124 H   0  0  0  0  0  0  0  0  0  0  0  0
  141.5869   78.6278  219.4051 H   0  0  0  0  0  0  0  0  0  0  0  0
  142.4257   80.6001  220.3595 H   0  0  0  0  0  0  0  0  0  0  0  0
  142.4485   82.0542  222.3980 H   0  0  0  0  0  0  0  0  0  0  0  0
  141.8243   81.0854  224.5754 H   0  0  0  0  0  0  0  0  0  0  0  0
  141.1934   78.7027  224.7558 H   0  0  0  0  0  0  0  0  0  0  0  0
  141.9860   76.2690  222.8996 H   0  0  0  0  0  0  0  0  0  0  0  0
  140.3329   76.7595  223.5351 H   0  0  0  0  0  0  0  0  0  0  0  0
  137.8085   70.0942  224.4959 H   0  0  0  0  0  0  0  0  0  0  0  0
  139.2041   69.4798  223.4734 H   0  0  0  0  0  0  0  0  0  0  0  0
  1  2  2  0
  2  3  1  0
  3  4  2  0
  4  5  1  0
  5  6  2  0
  5  7  1  0
  7  8  1  0
  8  9  1  0
  9 10  1  0
 10 11  1  0
 11 12  2  0
 12 13  1  0
 13 14  1  0
 14 15  1  0
 15 16  1  0
 16 17  1  0
 17 18  1  0
 18 19  1  0
 19 20  1  0
 20 21  1  0
 13 22  2  0
 22 23  1  0
 23 24  1  0
 24 25  1  0
 25 26  1  0
 26 27  1  0
 27 28  2  0
 28 29  1  0
 29 30  2  0
 30 31  1  0
 31 32  2  0
 32 33  1  0
 23 34  2  0
  9 35  1  0
  6  1  1  0
 34 11  1  0
 35  4  1  0
 21 17  1  0
 33 24  1  0
 32 27  1  0
  1 36  1  0
  2 37  1  0
  3 38  1  0
  6 39  1  0
  7 40  1  0
  7 41  1  0
  8 42  1  0
  8 43  1  0
  9 44  1  1
 10 45  1  0
 14 46  1  0
 15 47  1  0
 15 48  1  0
 16 49  1  0
 16 50  1  0
 17 51  1  6
 18 52  1  0
 18 53  1  0
 19 54  1  0
 19 55  1  0
 20 56  1  0
 20 57  1  0
 21 58  1  0
 25 59  1  0
 25 60  1  0
 26 61  1  0
 26 62  1  0
 28 63  1  0
 29 64  1  0
 30 65  1  0
 31 66  1  0
 33 67  1  0
 33 68  1  0
 35 69  1  0
 35 70  1  0
M  END
>  <smiles>  (192) 
c1ccc2c(c1)CCC(Nc1nc(NCCC3CCCN3)nc(N3CCc4ccccc4C3)n1)C2

>  <score_type>  (192) 
oracle

>  <origin>  (192) 
autodockgpu

>  <m_score__min__energy>  (192) 
-11.550000000000001

>  <m_primary>  (192) 
energy

>  <rmsd>  (192) 
11.931081023570039

>  <m_score__min__rmsd>  (192) 
11.931081023570039

>  <meeko>  (192) 
{"free_energy": -9.8, "intermolecular_energy": -11.89, "internal_energy": -1.91, "cluster_size": 5, "cluster_id": 3, "rank_in_cluster": 5}

>  <energy>  (192) 
-10.06

>  <cluster_rmsd>  (192) 
1.04

>  <cluster>  (192) 
2

$$$$

     RDKit          3D

 70 75  0  0  1  0  0  0  0  0999 V2000
  141.0170   68.9410  228.6510 C   0  0  0  0  0  0  0  0  0  0  0  0
  140.1330   68.0800  228.0280 C   0  0  0  0  0  0  0  0  0  0  0  0
  139.4870   68.4320  226.8690 C   0  0  0  0  0  0  0  0  0  0  0  0
  139.7040   69.6630  226.2870 C   0  0  0  0  0  0  0  0  0  0  0  0
  140.5810   70.5240  226.8980 C   0  0  0  0  0  0  0  0  0  0  0  0
  141.2520   70.1940  228.0780 C   0  0  0  0  0  0  0  0  0  0  0  0
  140.7920   71.8530  226.2360 C   0  0  0  0  0  0  0  0  0  0  0  0
  140.8170   71.5340  224.7350 C   0  0  0  0  0  0  0  0  0  0  0  0
  139.3820   71.2310  224.3660 C   0  0  1  0  0  0  0  0  0  0  0  0
  139.2900   71.1660  222.9310 N   0  0  0  0  0  0  0  0  0  0  0  0
  139.7440   72.1780  222.0490 C   0  0  0  0  0  0  0  0  0  0  0  0
  140.3160   71.8410  220.8760 N   0  0  0  0  0  0  0  0  0  0  0  0
  140.7660   72.7510  219.9950 C   0  0  0  0  0  0  0  0  0  0  0  0
  141.3670   72.3880  218.7620 N   0  0  0  0  0  0  0  0  0  0  0  0
  142.4490   73.1490  218.1690 C   0  0  0  0  0  0  0  0  0  0  0  0
  143.8050   72.6800  218.5740 C   0  0  0  0  0  0  0  0  0  0  0  0
  144.7270   73.7760  219.0140 C   0  0  1  0  0  0  0  0  0  0  0  0
  144.5060   74.2210  220.4230 C   0  0  0  0  0  0  0  0  0  0  0  0
  145.0840   73.0410  221.2060 C   0  0  0  0  0  0  0  0  0  0  0  0
  146.3170   72.7420  220.3710 C   0  0  0  0  0  0  0  0  0  0  0  0
  146.0660   73.2380  219.0510 N   0  0  0  0  0  0  0  0  0  0  0  0
  140.6280   74.0400  220.3170 N   0  0  0  0  0  0  0  0  0  0  0  0
  140.0530   74.3990  221.4980 C   0  0  0  0  0  0  0  0  0  0  0  0
  139.9320   75.7880  221.7930 N   0  0  0  0  0  0  0  0  0  0  0  0
  138.8090   76.2190  222.5890 C   0  0  0  0  0  0  0  0  0  0  0  0
  138.6510   77.6800  222.7090 C   0  0  0  0  0  0  0  0  0  0  0  0
  139.9190   78.4280  222.8520 C   0  0  0  0  0  0  0  0  0  0  0  0
  139.9750   79.5590  223.6550 C   0  0  0  0  0  0  0  0  0  0  0  0
  141.1760   80.2510  223.7760 C   0  0  0  0  0  0  0  0  0  0  0  0
  142.2700   79.8000  223.1040 C   0  0  0  0  0  0  0  0  0  0  0  0
  142.1910   78.6640  222.3030 C   0  0  0  0  0  0  0  0  0  0  0  0
  141.0140   77.9530  222.1600 C   0  0  0  0  0  0  0  0  0  0  0  0
  140.8840   76.7440  221.3240 C   0  0  0  0  0  0  0  0  0  0  0  0
  139.6190   73.4760  222.3460 N   0  0  0  0  0  0  0  0  0  0  0  0
  138.9710   69.9640  225.0390 C   0  0  0  0  0  0  0  0  0  0  0  0
  141.5260   68.6455  229.5803 H   0  0  0  0  0  0  0  0  0  0  0  0
  139.9430   67.0911  228.4707 H   0  0  0  0  0  0  0  0  0  0  0  0
  138.7884   67.7240  226.3993 H   0  0  0  0  0  0  0  0  0  0  0  0
  141.9496   70.9043  228.5457 H   0  0  0  0  0  0  0  0  0  0  0  0
  139.9675   72.5412  226.4737 H   0  0  0  0  0  0  0  0  0  0  0  0
  141.7146   72.3474  226.5743 H   0  0  0  0  0  0  0  0  0  0  0  0
  141.1872   72.3981  224.1638 H   0  0  0  0  0  0  0  0  0  0  0  0
  141.4854   70.6907  224.5066 H   0  0  0  0  0  0  0  0  0  0  0  0
  138.6920   72.0165  224.7079 H   0  0  0  0  0  0  0  0  0  0  0  0
  138.8480   70.2920  222.5320 H   0  0  0  0  0  0  0  0  0  0  0  0
  141.0380   71.5520  218.2450 H   0  0  0  0  0  0  0  0  0  0  0  0
  142.3679   73.0728  217.0747 H   0  0  0  0  0  0  0  0  0  0  0  0
  142.3472   74.1842  218.5268 H   0  0  0  0  0  0  0  0  0  0  0  0
  143.6903   71.9704  219.4066 H   0  0  0  0  0  0  0  0  0  0  0  0
  144.2603   72.2217  217.6837 H   0  0  0  0  0  0  0  0  0  0  0  0
  144.5572   74.6093  218.3164 H   0  0  0  0  0  0  0  0  0  0  0  0
  145.0487   75.1528  220.6405 H   0  0  0  0  0  0  0  0  0  0  0  0
  143.4572   74.4497  220.6632 H   0  0  0  0  0  0  0  0  0  0  0  0
  145.3482   73.3254  222.2352 H   0  0  0  0  0  0  0  0  0  0  0  0
  144.3968   72.1917  221.3344 H   0  0  0  0  0  0  0  0  0  0  0  0
  147.1950   73.2454  220.8020 H   0  0  0  0  0  0  0  0  0  0  0  0
  146.5210   71.6613  220.3495 H   0  0  0  0  0  0  0  0  0  0  0  0
  146.7960   73.8310  218.6390 H   0  0  0  0  0  0  0  0  0  0  0  0
  137.8933   75.8135  222.1340 H   0  0  0  0  0  0  0  0  0  0  0  0
  138.9945   75.8465  223.6072 H   0  0  0  0  0  0  0  0  0  0  0  0
  138.1377   78.0446  221.8070 H   0  0  0  0  0  0  0  0  0  0  0  0
  138.0798   77.8564  223.6324 H   0  0  0  0  0  0  0  0  0  0  0  0
  139.0785   79.9048  224.1905 H   0  0  0  0  0  0  0  0  0  0  0  0
  141.2403   81.1503  224.4062 H   0  0  0  0  0  0  0  0  0  0  0  0
  143.2253   80.3378  223.1945 H   0  0  0  0  0  0  0  0  0  0  0  0
  143.0901   78.3227  221.7690 H   0  0  0  0  0  0  0  0  0  0  0  0
  140.5835   77.0580  220.3135 H   0  0  0  0  0  0  0  0  0  0  0  0
  141.8631   76.2433  221.3513 H   0  0  0  0  0  0  0  0  0  0  0  0
  137.8999   70.0351  225.2791 H   0  0  0  0  0  0  0  0  0  0  0  0
  139.2033   69.1493  224.3374 H   0  0  0  0  0  0  0  0  0  0  0  0
  1  2  2  0
  2  3  1  0
  3  4  2  0
  4  5  1  0
  5  6  2  0
  5  7  1  0
  7  8  1  0
  8  9  1  0
  9 10  1  0
 10 11  1  0
 11 12  2  0
 12 13  1  0
 13 14  1  0
 14 15  1  0
 15 16  1  0
 16 17  1  0
 17 18  1  0
 18 19  1  0
 19 20  1  0
 20 21  1  0
 13 22  2  0
 22 23  1  0
 23 24  1  0
 24 25  1  0
 25 26  1  0
 26 27  1  0
 27 28  2  0
 28 29  1  0
 29 30  2  0
 30 31  1  0
 31 32  2  0
 32 33  1  0
 23 34  2  0
  9 35  1  0
  6  1  1  0
 34 11  1  0
 35  4  1  0
 21 17  1  0
 33 24  1  0
 32 27  1  0
  1 36  1  0
  2 37  1  0
  3 38  1  0
  6 39  1  0
  7 40  1  0
  7 41  1  0
  8 42  1  0
  8 43  1  0
  9 44  1  1
 10 45  1  0
 14 46  1  0
 15 47  1  0
 15 48  1  0
 16 49  1  0
 16 50  1  0
 17 51  1  6
 18 52  1  0
 18 53  1  0
 19 54  1  0
 19 55  1  0
 20 56  1  0
 20 57  1  0
 21 58  1  0
 25 59  1  0
 25 60  1  0
 26 61  1  0
 26 62  1  0
 28 63  1  0
 29 64  1  0
 30 65  1  0
 31 66  1  0
 33 67  1  0
 33 68  1  0
 35 69  1  0
 35 70  1  0
M  END
>  <smiles>  (193) 
c1ccc2c(c1)CCC(Nc1nc(NCCC3CCCN3)nc(N3CCc4ccccc4C3)n1)C2

>  <score_type>  (193) 
oracle

>  <origin>  (193) 
autodockgpu

>  <m_score__min__energy>  (193) 
-11.550000000000001

>  <m_primary>  (193) 
energy

>  <rmsd>  (193) 
11.980420280760129

>  <m_score__min__rmsd>  (193) 
11.980420280760129

>  <meeko>  (193) 
{"free_energy": -10.72, "intermolecular_energy": -12.81, "internal_energy": -1.31, "cluster_size": 31, "cluster_id": 1, "rank_in_cluster": 8}

>  <energy>  (193) 
-10.38

>  <cluster_rmsd>  (193) 
0.0

>  <cluster>  (193) 
3

$$$$

     RDKit          3D

 70 75  0  0  1  0  0  0  0  0999 V2000
  140.4820   68.5130  228.2310 C   0  0  0  0  0  0  0  0  0  0  0  0
  141.0570   69.7680  228.3020 C   0  0  0  0  0  0  0  0  0  0  0  0
  141.0200   70.6330  227.2360 C   0  0  0  0  0  0  0  0  0  0  0  0
  140.4040   70.2730  226.0570 C   0  0  0  0  0  0  0  0  0  0  0  0
  139.8300   69.0280  225.9780 C   0  0  0  0  0  0  0  0  0  0  0  0
  139.8510   68.1280  227.0460 C   0  0  0  0  0  0  0  0  0  0  0  0
  139.1690   68.6720  224.6800 C   0  0  0  0  0  0  0  0  0  0  0  0
  138.4670   69.9640  224.2400 C   0  0  0  0  0  0  0  0  0  0  0  0
  139.5750   70.8840  223.7780 C   0  0  1  0  0  0  0  0  0  0  0  0
  138.9760   72.0170  223.1220 N   0  0  0  0  0  0  0  0  0  0  0  0
  139.6850   72.9580  222.3340 C   0  0  0  0  0  0  0  0  0  0  0  0
  140.4970   72.5320  221.3460 N   0  0  0  0  0  0  0  0  0  0  0  0
  141.1940   73.3710  220.5620 C   0  0  0  0  0  0  0  0  0  0  0  0
  142.0470   72.9150  219.5230 N   0  0  0  0  0  0  0  0  0  0  0  0
  143.4700   73.1920  219.5050 C   0  0  0  0  0  0  0  0  0  0  0  0
  143.8340   74.4200  218.7410 C   0  0  0  0  0  0  0  0  0  0  0  0
  142.8890   75.5660  218.9340 C   0  0  1  0  0  0  0  0  0  0  0  0
  143.3300   76.8310  218.2720 C   0  0  0  0  0  0  0  0  0  0  0  0
  143.0710   76.5040  216.8000 C   0  0  0  0  0  0  0  0  0  0  0  0
  141.7440   75.7760  216.9140 C   0  0  0  0  0  0  0  0  0  0  0  0
  141.6630   75.2480  218.2430 N   0  0  0  0  0  0  0  0  0  0  0  0
  141.0620   74.6800  220.7900 N   0  0  0  0  0  0  0  0  0  0  0  0
  140.2470   75.1290  221.7840 C   0  0  0  0  0  0  0  0  0  0  0  0
  140.1410   76.5370  221.9850 N   0  0  0  0  0  0  0  0  0  0  0  0
  138.9610   77.0440  222.6410 C   0  0  0  0  0  0  0  0  0  0  0  0
  138.8390   78.5130  222.6600 C   0  0  0  0  0  0  0  0  0  0  0  0
  140.1100   79.2350  222.8850 C   0  0  0  0  0  0  0  0  0  0  0  0
  140.1240   80.4100  223.6230 C   0  0  0  0  0  0  0  0  0  0  0  0
  141.3290   81.0760  223.8230 C   0  0  0  0  0  0  0  0  0  0  0  0
  142.4690   80.5570  223.2890 C   0  0  0  0  0  0  0  0  0  0  0  0
  142.4310   79.3780  222.5510 C   0  0  0  0  0  0  0  0  0  0  0  0
  141.2520   78.6900  222.3330 C   0  0  0  0  0  0  0  0  0  0  0  0
  141.1660   77.4360  221.5590 C   0  0  0  0  0  0  0  0  0  0  0  0
  139.5700   74.2750  222.5410 N   0  0  0  0  0  0  0  0  0  0  0  0
  140.4080   71.2610  224.9570 C   0  0  0  0  0  0  0  0  0  0  0  0
  140.5207   67.8298  229.0923 H   0  0  0  0  0  0  0  0  0  0  0  0
  141.5547   70.0804  229.2319 H   0  0  0  0  0  0  0  0  0  0  0  0
  141.4875   71.6248  227.3243 H   0  0  0  0  0  0  0  0  0  0  0  0
  139.3808   67.1376  226.9557 H   0  0  0  0  0  0  0  0  0  0  0  0
  139.9166   68.3624  223.9349 H   0  0  0  0  0  0  0  0  0  0  0  0
  138.4690   67.8298  224.7839 H   0  0  0  0  0  0  0  0  0  0  0  0
  137.7668   69.7606  223.4164 H   0  0  0  0  0  0  0  0  0  0  0  0
  137.8786   70.4089  225.0560 H   0  0  0  0  0  0  0  0  0  0  0  0
  140.2433   70.3957  223.0534 H   0  0  0  0  0  0  0  0  0  0  0  0
  137.9330   72.1340  223.2540 H   0  0  0  0  0  0  0  0  0  0  0  0
  141.6630   72.3600  218.7370 H   0  0  0  0  0  0  0  0  0  0  0  0
  143.8126   73.3149  220.5430 H   0  0  0  0  0  0  0  0  0  0  0  0
  143.9553   72.3442  218.9994 H   0  0  0  0  0  0  0  0  0  0  0  0
  144.8360   74.7414  219.0616 H   0  0  0  0  0  0  0  0  0  0  0  0
  143.7929   74.1526  217.6748 H   0  0  0  0  0  0  0  0  0  0  0  0
  142.8101   75.7098  220.0217 H   0  0  0  0  0  0  0  0  0  0  0  0
  142.7299   77.6905  218.6054 H   0  0  0  0  0  0  0  0  0  0  0  0
  144.3685   77.1178  218.4942 H   0  0  0  0  0  0  0  0  0  0  0  0
  142.9844   77.4151  216.1897 H   0  0  0  0  0  0  0  0  0  0  0  0
  143.8703   75.9304  216.3080 H   0  0  0  0  0  0  0  0  0  0  0  0
  140.9140   76.4753  216.7351 H   0  0  0  0  0  0  0  0  0  0  0  0
  141.6758   74.9697  216.1688 H   0  0  0  0  0  0  0  0  0  0  0  0
  140.7960   75.4430  218.7600 H   0  0  0  0  0  0  0  0  0  0  0  0
  138.0809   76.6356  222.1228 H   0  0  0  0  0  0  0  0  0  0  0  0
  139.0354   76.7290  223.6923 H   0  0  0  0  0  0  0  0  0  0  0  0
  138.4283   78.8354  221.6918 H   0  0  0  0  0  0  0  0  0  0  0  0
  138.1863   78.7599  223.5103 H   0  0  0  0  0  0  0  0  0  0  0  0
  139.1911   80.8111  224.0459 H   0  0  0  0  0  0  0  0  0  0  0  0
  141.3604   82.0091  224.4046 H   0  0  0  0  0  0  0  0  0  0  0  0
  143.4278   81.0740  223.4423 H   0  0  0  0  0  0  0  0  0  0  0  0
  143.3663   78.9819  222.1288 H   0  0  0  0  0  0  0  0  0  0  0  0
  140.9775   77.6958  220.5069 H   0  0  0  0  0  0  0  0  0  0  0  0
  142.1207   76.9116  221.7129 H   0  0  0  0  0  0  0  0  0  0  0  0
  141.4458   71.3902  224.6161 H   0  0  0  0  0  0  0  0  0  0  0  0
  139.9690   72.1831  225.3657 H   0  0  0  0  0  0  0  0  0  0  0  0
  1  2  2  0
  2  3  1  0
  3  4  2  0
  4  5  1  0
  5  6  2  0
  5  7  1  0
  7  8  1  0
  8  9  1  0
  9 10  1  0
 10 11  1  0
 11 12  2  0
 12 13  1  0
 13 14  1  0
 14 15  1  0
 15 16  1  0
 16 17  1  0
 17 18  1  0
 18 19  1  0
 19 20  1  0
 20 21  1  0
 13 22  2  0
 22 23  1  0
 23 24  1  0
 24 25  1  0
 25 26  1  0
 26 27  1  0
 27 28  2  0
 28 29  1  0
 29 30  2  0
 30 31  1  0
 31 32  2  0
 32 33  1  0
 23 34  2  0
  9 35  1  0
  6  1  1  0
 34 11  1  0
 35  4  1  0
 21 17  1  0
 33 24  1  0
 32 27  1  0
  1 36  1  0
  2 37  1  0
  3 38  1  0
  6 39  1  0
  7 40  1  0
  7 41  1  0
  8 42  1  0
  8 43  1  0
  9 44  1  6
 10 45  1  0
 14 46  1  0
 15 47  1  0
 15 48  1  0
 16 49  1  0
 16 50  1  0
 17 51  1  1
 18 52  1  0
 18 53  1  0
 19 54  1  0
 19 55  1  0
 20 56  1  0
 20 57  1  0
 21 58  1  0
 25 59  1  0
 25 60  1  0
 26 61  1  0
 26 62  1  0
 28 63  1  0
 29 64  1  0
 30 65  1  0
 31 66  1  0
 33 67  1  0
 33 68  1  0
 35 69  1  0
 35 70  1  0
M  END
>  <smiles>  (194) 
c1ccc2c(c1)CCC(Nc1nc(NCCC3CCCN3)nc(N3CCc4ccccc4C3)n1)C2

>  <score_type>  (194) 
oracle

>  <origin>  (194) 
autodockgpu

>  <m_score__min__energy>  (194) 
-11.550000000000001

>  <m_primary>  (194) 
energy

>  <rmsd>  (194) 
12.095359023159215

>  <m_score__min__rmsd>  (194) 
12.095359023159215

>  <meeko>  (194) 
{"free_energy": -9.77, "intermolecular_energy": -11.85, "internal_energy": -1.66, "cluster_size": 31, "cluster_id": 1, "rank_in_cluster": 23}

>  <energy>  (194) 
-10.28

>  <cluster_rmsd>  (194) 
0.7

>  <cluster>  (194) 
3

$$$$

     RDKit          3D

 70 75  0  0  1  0  0  0  0  0999 V2000
  140.1820   70.1230  228.3440 C   0  0  0  0  0  0  0  0  0  0  0  0
  140.9280   71.2580  228.0890 C   0  0  0  0  0  0  0  0  0  0  0  0
  141.0710   71.7480  226.8140 C   0  0  0  0  0  0  0  0  0  0  0  0
  140.4700   71.1190  225.7450 C   0  0  0  0  0  0  0  0  0  0  0  0
  139.7270   69.9920  225.9900 C   0  0  0  0  0  0  0  0  0  0  0  0
  139.5630   69.4690  227.2760 C   0  0  0  0  0  0  0  0  0  0  0  0
  139.0870   69.3350  224.8030 C   0  0  0  0  0  0  0  0  0  0  0  0
  138.6030   70.5030  223.9340 C   0  0  0  0  0  0  0  0  0  0  0  0
  139.8540   71.0930  223.3220 C   0  0  1  0  0  0  0  0  0  0  0  0
  139.4590   72.0320  222.3050 N   0  0  0  0  0  0  0  0  0  0  0  0
  140.2820   73.0720  221.8070 C   0  0  0  0  0  0  0  0  0  0  0  0
  141.3510   72.7770  221.0410 N   0  0  0  0  0  0  0  0  0  0  0  0
  142.1690   73.7160  220.5370 C   0  0  0  0  0  0  0  0  0  0  0  0
  143.2930   73.3970  219.7310 N   0  0  0  0  0  0  0  0  0  0  0  0
  144.3930   72.5860  220.2140 C   0  0  0  0  0  0  0  0  0  0  0  0
  144.0480   71.1460  220.3890 C   0  0  0  0  0  0  0  0  0  0  0  0
  143.9510   70.3780  219.1070 C   0  0  1  0  0  0  0  0  0  0  0  0
  145.1510   70.5180  218.2270 C   0  0  0  0  0  0  0  0  0  0  0  0
  146.1770   69.6700  218.9800 C   0  0  0  0  0  0  0  0  0  0  0  0
  145.3040   68.5020  219.4030 C   0  0  0  0  0  0  0  0  0  0  0  0
  143.9520   68.9730  219.4340 N   0  0  0  0  0  0  0  0  0  0  0  0
  141.8920   74.9910  220.8200 N   0  0  0  0  0  0  0  0  0  0  0  0
  140.8160   75.3090  221.5920 C   0  0  0  0  0  0  0  0  0  0  0  0
  140.5650   76.6860  221.8640 N   0  0  0  0  0  0  0  0  0  0  0  0
  139.3750   77.0270  222.6040 C   0  0  0  0  0  0  0  0  0  0  0  0
  139.0890   78.4700  222.6980 C   0  0  0  0  0  0  0  0  0  0  0  0
  140.2820   79.3240  222.8880 C   0  0  0  0  0  0  0  0  0  0  0  0
  140.2070   80.4630  223.6790 C   0  0  0  0  0  0  0  0  0  0  0  0
  141.3380   81.2550  223.8440 C   0  0  0  0  0  0  0  0  0  0  0  0
  142.4960   80.8920  223.2270 C   0  0  0  0  0  0  0  0  0  0  0  0
  142.5490   79.7460  222.4390 C   0  0  0  0  0  0  0  0  0  0  0  0
  141.4440   78.9370  222.2520 C   0  0  0  0  0  0  0  0  0  0  0  0
  141.4550   77.7140  221.4260 C   0  0  0  0  0  0  0  0  0  0  0  0
  140.0270   74.3580  222.0750 N   0  0  0  0  0  0  0  0  0  0  0  0
  140.6720   71.7110  224.4050 C   0  0  0  0  0  0  0  0  0  0  0  0
  140.0774   69.7411  229.3703 H   0  0  0  0  0  0  0  0  0  0  0  0
  141.4174   71.7798  228.9246 H   0  0  0  0  0  0  0  0  0  0  0  0
  141.6724   72.6532  226.6439 H   0  0  0  0  0  0  0  0  0  0  0  0
  138.9607   68.5638  227.4430 H   0  0  0  0  0  0  0  0  0  0  0  0
  139.8182   68.7208  224.2570 H   0  0  0  0  0  0  0  0  0  0  0  0
  138.2682   68.6586  225.0895 H   0  0  0  0  0  0  0  0  0  0  0  0
  137.9233   70.1422  223.1480 H   0  0  0  0  0  0  0  0  0  0  0  0
  138.0450   71.2467  224.5218 H   0  0  0  0  0  0  0  0  0  0  0  0
  140.4802   70.3268  222.8415 H   0  0  0  0  0  0  0  0  0  0  0  0
  138.4810   71.9160  221.9180 H   0  0  0  0  0  0  0  0  0  0  0  0
  143.3540   73.7440  218.7560 H   0  0  0  0  0  0  0  0  0  0  0  0
  145.2204   72.6591  219.4929 H   0  0  0  0  0  0  0  0  0  0  0  0
  144.6643   72.9732  221.2072 H   0  0  0  0  0  0  0  0  0  0  0  0
  144.8239   70.6787  221.0132 H   0  0  0  0  0  0  0  0  0  0  0  0
  143.0512   71.1138  220.8531 H   0  0  0  0  0  0  0  0  0  0  0  0
  143.0537   70.7578  218.5965 H   0  0  0  0  0  0  0  0  0  0  0  0
  144.9603   70.1188  217.2199 H   0  0  0  0  0  0  0  0  0  0  0  0
  145.4652   71.5583  218.0566 H   0  0  0  0  0  0  0  0  0  0  0  0
  146.9988   69.3474  218.3238 H   0  0  0  0  0  0  0  0  0  0  0  0
  146.6857   70.1881  219.8063 H   0  0  0  0  0  0  0  0  0  0  0  0
  145.3997   67.6787  218.6798 H   0  0  0  0  0  0  0  0  0  0  0  0
  145.6086   68.1244  220.3903 H   0  0  0  0  0  0  0  0  0  0  0  0
  143.2570   68.4000  218.9390 H   0  0  0  0  0  0  0  0  0  0  0  0
  138.5183   76.5410  222.1143 H   0  0  0  0  0  0  0  0  0  0  0  0
  139.5452   76.6807  223.6341 H   0  0  0  0  0  0  0  0  0  0  0  0
  138.5886   78.7816  221.7693 H   0  0  0  0  0  0  0  0  0  0  0  0
  138.4632   78.6058  223.5924 H   0  0  0  0  0  0  0  0  0  0  0  0
  139.2616   80.7362  224.1705 H   0  0  0  0  0  0  0  0  0  0  0  0
  141.2976   82.1624  224.4645 H   0  0  0  0  0  0  0  0  0  0  0  0
  143.3975   81.5097  223.3524 H   0  0  0  0  0  0  0  0  0  0  0  0
  143.4973   79.4764  221.9511 H   0  0  0  0  0  0  0  0  0  0  0  0
  141.1767   77.9925  220.3989 H   0  0  0  0  0  0  0  0  0  0  0  0
  142.4702   77.2977  221.5035 H   0  0  0  0  0  0  0  0  0  0  0  0
  141.7334   71.6010  224.1381 H   0  0  0  0  0  0  0  0  0  0  0  0
  140.3509   72.7606  224.4770 H   0  0  0  0  0  0  0  0  0  0  0  0
  1  2  2  0
  2  3  1  0
  3  4  2  0
  4  5  1  0
  5  6  2  0
  5  7  1  0
  7  8  1  0
  8  9  1  0
  9 10  1  0
 10 11  1  0
 11 12  2  0
 12 13  1  0
 13 14  1  0
 14 15  1  0
 15 16  1  0
 16 17  1  0
 17 18  1  0
 18 19  1  0
 19 20  1  0
 20 21  1  0
 13 22  2  0
 22 23  1  0
 23 24  1  0
 24 25  1  0
 25 26  1  0
 26 27  1  0
 27 28  2  0
 28 29  1  0
 29 30  2  0
 30 31  1  0
 31 32  2  0
 32 33  1  0
 23 34  2  0
  9 35  1  0
  6  1  1  0
 34 11  1  0
 35  4  1  0
 21 17  1  0
 33 24  1  0
 32 27  1  0
  1 36  1  0
  2 37  1  0
  3 38  1  0
  6 39  1  0
  7 40  1  0
  7 41  1  0
  8 42  1  0
  8 43  1  0
  9 44  1  6
 10 45  1  0
 14 46  1  0
 15 47  1  0
 15 48  1  0
 16 49  1  0
 16 50  1  0
 17 51  1  6
 18 52  1  0
 18 53  1  0
 19 54  1  0
 19 55  1  0
 20 56  1  0
 20 57  1  0
 21 58  1  0
 25 59  1  0
 25 60  1  0
 26 61  1  0
 26 62  1  0
 28 63  1  0
 29 64  1  0
 30 65  1  0
 31 66  1  0
 33 67  1  0
 33 68  1  0
 35 69  1  0
 35 70  1  0
M  END
>  <smiles>  (195) 
c1ccc2c(c1)CCC(Nc1nc(NCCC3CCCN3)nc(N3CCc4ccccc4C3)n1)C2

>  <score_type>  (195) 
oracle

>  <origin>  (195) 
autodockgpu

>  <m_score__min__energy>  (195) 
-11.550000000000001

>  <m_primary>  (195) 
energy

>  <rmsd>  (195) 
11.268743618109731

>  <m_score__min__rmsd>  (195) 
11.268743618109731

>  <meeko>  (195) 
{"free_energy": -10.31, "intermolecular_energy": -12.4, "internal_energy": -1.04, "cluster_size": 31, "cluster_id": 1, "rank_in_cluster": 14}

>  <energy>  (195) 
-10.1

>  <cluster_rmsd>  (195) 
0.53

>  <cluster>  (195) 
3

$$$$

     RDKit          3D

 70 75  0  0  1  0  0  0  0  0999 V2000
  140.5070   68.0860  227.7560 C   0  0  0  0  0  0  0  0  0  0  0  0
  139.6760   67.4610  226.8450 C   0  0  0  0  0  0  0  0  0  0  0  0
  139.1910   68.1250  225.7460 C   0  0  0  0  0  0  0  0  0  0  0  0
  139.5220   69.4430  225.5150 C   0  0  0  0  0  0  0  0  0  0  0  0
  140.3470   70.0710  226.4140 C   0  0  0  0  0  0  0  0  0  0  0  0
  140.8560   69.4220  227.5410 C   0  0  0  0  0  0  0  0  0  0  0  0
  140.6860   71.5040  226.1300 C   0  0  0  0  0  0  0  0  0  0  0  0
  140.8830   71.5580  224.6090 C   0  0  0  0  0  0  0  0  0  0  0  0
  139.4950   71.4470  224.0200 C   0  0  1  0  0  0  0  0  0  0  0  0
  139.5770   71.7380  222.6130 N   0  0  0  0  0  0  0  0  0  0  0  0
  140.3470   72.7870  222.0510 C   0  0  0  0  0  0  0  0  0  0  0  0
  141.4070   72.5010  221.2700 N   0  0  0  0  0  0  0  0  0  0  0  0
  142.1760   73.4480  220.7070 C   0  0  0  0  0  0  0  0  0  0  0  0
  143.2900   73.1380  219.8860 N   0  0  0  0  0  0  0  0  0  0  0  0
  143.4400   73.6660  218.5440 C   0  0  0  0  0  0  0  0  0  0  0  0
  143.7020   75.1320  218.5000 C   0  0  0  0  0  0  0  0  0  0  0  0
  143.0970   75.8290  217.3190 C   0  0  1  0  0  0  0  0  0  0  0  0
  141.6070   75.7330  217.2600 C   0  0  0  0  0  0  0  0  0  0  0  0
  141.1990   76.6870  218.3840 C   0  0  0  0  0  0  0  0  0  0  0  0
  142.1970   77.8090  218.1610 C   0  0  0  0  0  0  0  0  0  0  0  0
  143.3240   77.2450  217.4800 N   0  0  0  0  0  0  0  0  0  0  0  0
  141.8560   74.7220  220.9450 N   0  0  0  0  0  0  0  0  0  0  0  0
  140.7890   75.0310  221.7320 C   0  0  0  0  0  0  0  0  0  0  0  0
  140.4910   76.4070  221.9550 N   0  0  0  0  0  0  0  0  0  0  0  0
  139.2720   76.7360  222.6510 C   0  0  0  0  0  0  0  0  0  0  0  0
  138.9430   78.1720  222.6930 C   0  0  0  0  0  0  0  0  0  0  0  0
  140.1060   79.0660  222.8890 C   0  0  0  0  0  0  0  0  0  0  0  0
  139.9760   80.2250  223.6430 C   0  0  0  0  0  0  0  0  0  0  0  0
  141.0800   81.0540  223.8150 C   0  0  0  0  0  0  0  0  0  0  0  0
  142.2640   80.7070  223.2410 C   0  0  0  0  0  0  0  0  0  0  0  0
  142.3710   79.5400  222.4900 C   0  0  0  0  0  0  0  0  0  0  0  0
  141.2950   78.6940  222.2980 C   0  0  0  0  0  0  0  0  0  0  0  0
  141.3640   77.4470  221.5100 C   0  0  0  0  0  0  0  0  0  0  0  0
  140.0490   74.0720  222.2740 N   0  0  0  0  0  0  0  0  0  0  0  0
  138.9580   70.0850  224.3080 C   0  0  0  0  0  0  0  0  0  0  0  0
  140.8864   67.5420  228.6336 H   0  0  0  0  0  0  0  0  0  0  0  0
  139.3974   66.4088  227.0043 H   0  0  0  0  0  0  0  0  0  0  0  0
  138.5302   67.5991  225.0412 H   0  0  0  0  0  0  0  0  0  0  0  0
  141.5169   69.9506  228.2437 H   0  0  0  0  0  0  0  0  0  0  0  0
  139.8643   72.1666  226.4394 H   0  0  0  0  0  0  0  0  0  0  0  0
  141.5778   71.8397  226.6795 H   0  0  0  0  0  0  0  0  0  0  0  0
  141.3508   72.5092  224.3151 H   0  0  0  0  0  0  0  0  0  0  0  0
  141.5437   70.7537  224.2533 H   0  0  0  0  0  0  0  0  0  0  0  0
  138.7973   72.1697  224.4681 H   0  0  0  0  0  0  0  0  0  0  0  0
  139.0140   71.1100  221.9740 H   0  0  0  0  0  0  0  0  0  0  0  0
  144.0400   72.5130  220.2340 H   0  0  0  0  0  0  0  0  0  0  0  0
  144.2815   73.1487  218.0599 H   0  0  0  0  0  0  0  0  0  0  0  0
  142.4856   73.4956  218.0243 H   0  0  0  0  0  0  0  0  0  0  0  0
  143.2909   75.5835  219.4149 H   0  0  0  0  0  0  0  0  0  0  0  0
  144.7918   75.2560  218.4161 H   0  0  0  0  0  0  0  0  0  0  0  0
  143.5476   75.3622  216.4307 H   0  0  0  0  0  0  0  0  0  0  0  0
  141.2203   76.0692  216.2866 H   0  0  0  0  0  0  0  0  0  0  0  0
  141.2171   74.7107  217.3738 H   0  0  0  0  0  0  0  0  0  0  0  0
  140.1621   77.0349  218.2665 H   0  0  0  0  0  0  0  0  0  0  0  0
  141.2179   76.2468  219.3919 H   0  0  0  0  0  0  0  0  0  0  0  0
  141.7430   78.6005  217.5467 H   0  0  0  0  0  0  0  0  0  0  0  0
  142.5030   78.2552  219.1187 H   0  0  0  0  0  0  0  0  0  0  0  0
  143.6460   77.7430  216.6410 H   0  0  0  0  0  0  0  0  0  0  0  0
  138.4433   76.2112  222.1532 H   0  0  0  0  0  0  0  0  0  0  0  0
  139.4230   76.4261  223.6956 H   0  0  0  0  0  0  0  0  0  0  0  0
  138.4601   78.4411  221.7420 H   0  0  0  0  0  0  0  0  0  0  0  0
  138.2890   78.3161  223.5656 H   0  0  0  0  0  0  0  0  0  0  0  0
  139.0097   80.4850  224.0997 H   0  0  0  0  0  0  0  0  0  0  0  0
  140.9969   81.9774  224.4070 H   0  0  0  0  0  0  0  0  0  0  0  0
  143.1439   81.3542  223.3716 H   0  0  0  0  0  0  0  0  0  0  0  0
  143.3397   79.2837  222.0363 H   0  0  0  0  0  0  0  0  0  0  0  0
  141.1072   77.6865  220.4675 H   0  0  0  0  0  0  0  0  0  0  0  0
  142.3880   77.0629  221.6279 H   0  0  0  0  0  0  0  0  0  0  0  0
  137.8690   70.1665  224.4399 H   0  0  0  0  0  0  0  0  0  0  0  0
  139.2433   69.4509  223.4556 H   0  0  0  0  0  0  0  0  0  0  0  0
  1  2  2  0
  2  3  1  0
  3  4  2  0
  4  5  1  0
  5  6  2  0
  5  7  1  0
  7  8  1  0
  8  9  1  0
  9 10  1  0
 10 11  1  0
 11 12  2  0
 12 13  1  0
 13 14  1  0
 14 15  1  0
 15 16  1  0
 16 17  1  0
 17 18  1  0
 18 19  1  0
 19 20  1  0
 20 21  1  0
 13 22  2  0
 22 23  1  0
 23 24  1  0
 24 25  1  0
 25 26  1  0
 26 27  1  0
 27 28  2  0
 28 29  1  0
 29 30  2  0
 30 31  1  0
 31 32  2  0
 32 33  1  0
 23 34  2  0
  9 35  1  0
  6  1  1  0
 34 11  1  0
 35  4  1  0
 21 17  1  0
 33 24  1  0
 32 27  1  0
  1 36  1  0
  2 37  1  0
  3 38  1  0
  6 39  1  0
  7 40  1  0
  7 41  1  0
  8 42  1  0
  8 43  1  0
  9 44  1  1
 10 45  1  0
 14 46  1  0
 15 47  1  0
 15 48  1  0
 16 49  1  0
 16 50  1  0
 17 51  1  6
 18 52  1  0
 18 53  1  0
 19 54  1  0
 19 55  1  0
 20 56  1  0
 20 57  1  0
 21 58  1  0
 25 59  1  0
 25 60  1  0
 26 61  1  0
 26 62  1  0
 28 63  1  0
 29 64  1  0
 30 65  1  0
 31 66  1  0
 33 67  1  0
 33 68  1  0
 35 69  1  0
 35 70  1  0
M  END
>  <smiles>  (196) 
c1ccc2c(c1)CCC(Nc1nc(NCCC3CCCN3)nc(N3CCc4ccccc4C3)n1)C2

>  <score_type>  (196) 
oracle

>  <origin>  (196) 
autodockgpu

>  <m_score__min__energy>  (196) 
-11.550000000000001

>  <m_primary>  (196) 
energy

>  <rmsd>  (196) 
11.947488091432396

>  <m_score__min__rmsd>  (196) 
11.947488091432396

>  <meeko>  (196) 
{"free_energy": -9.63, "intermolecular_energy": -11.72, "internal_energy": -1.59, "cluster_size": 31, "cluster_id": 1, "rank_in_cluster": 30}

>  <energy>  (196) 
-9.9

>  <cluster_rmsd>  (196) 
0.99

>  <cluster>  (196) 
3

$$$$

     RDKit          3D

 70 75  0  0  1  0  0  0  0  0999 V2000
  139.9620   68.4170  228.2790 C   0  0  0  0  0  0  0  0  0  0  0  0
  140.8750   69.4530  228.3500 C   0  0  0  0  0  0  0  0  0  0  0  0
  141.0910   70.2910  227.2850 C   0  0  0  0  0  0  0  0  0  0  0  0
  140.3970   70.1260  226.1050 C   0  0  0  0  0  0  0  0  0  0  0  0
  139.4880   69.1000  226.0260 C   0  0  0  0  0  0  0  0  0  0  0  0
  139.2480   68.2310  227.0930 C   0  0  0  0  0  0  0  0  0  0  0  0
  138.7520   68.9510  224.7280 C   0  0  0  0  0  0  0  0  0  0  0  0
  138.4540   70.3900  224.2880 C   0  0  0  0  0  0  0  0  0  0  0  0
  139.7810   70.9520  223.8270 C   0  0  1  0  0  0  0  0  0  0  0  0
  139.5350   72.2090  223.1720 N   0  0  0  0  0  0  0  0  0  0  0  0
  140.4700   72.8840  222.3470 C   0  0  0  0  0  0  0  0  0  0  0  0
  140.4330   74.2270  222.2460 N   0  0  0  0  0  0  0  0  0  0  0  0
  141.2910   74.9260  221.4850 C   0  0  0  0  0  0  0  0  0  0  0  0
  141.2450   76.3410  221.3840 N   0  0  0  0  0  0  0  0  0  0  0  0
  140.0040   77.0870  221.4540 C   0  0  0  0  0  0  0  0  0  0  0  0
  140.0590   78.2610  222.3710 C   0  0  0  0  0  0  0  0  0  0  0  0
  140.8480   79.4190  221.8410 C   0  0  1  0  0  0  0  0  0  0  0  0
  140.8750   80.6000  222.7550 C   0  0  0  0  0  0  0  0  0  0  0  0
  141.8150   80.1060  223.8560 C   0  0  0  0  0  0  0  0  0  0  0  0
  142.8600   79.3910  223.0180 C   0  0  0  0  0  0  0  0  0  0  0  0
  142.2330   79.0190  221.7850 N   0  0  0  0  0  0  0  0  0  0  0  0
  142.2130   74.2380  220.8070 N   0  0  0  0  0  0  0  0  0  0  0  0
  142.2660   72.8810  220.8950 C   0  0  0  0  0  0  0  0  0  0  0  0
  143.2690   72.1950  220.1500 N   0  0  0  0  0  0  0  0  0  0  0  0
  144.6160   72.7090  220.1890 C   0  0  0  0  0  0  0  0  0  0  0  0
  145.5610   72.0580  219.2630 C   0  0  0  0  0  0  0  0  0  0  0  0
  145.3900   70.5950  219.1350 C   0  0  0  0  0  0  0  0  0  0  0  0
  146.4970   69.7750  218.9620 C   0  0  0  0  0  0  0  0  0  0  0  0
  146.3170   68.4010  218.8420 C   0  0  0  0  0  0  0  0  0  0  0  0
  145.0570   67.8910  218.8980 C   0  0  0  0  0  0  0  0  0  0  0  0
  143.9610   68.7320  219.0720 C   0  0  0  0  0  0  0  0  0  0  0  0
  144.1030   70.1020  219.1940 C   0  0  0  0  0  0  0  0  0  0  0  0
  142.9700   71.0290  219.3800 C   0  0  0  0  0  0  0  0  0  0  0  0
  141.4040   72.2190  221.6570 N   0  0  0  0  0  0  0  0  0  0  0  0
  140.6870   71.0710  225.0060 C   0  0  0  0  0  0  0  0  0  0  0  0
  139.8010   67.7519  229.1402 H   0  0  0  0  0  0  0  0  0  0  0  0
  141.4405   69.6089  229.2805 H   0  0  0  0  0  0  0  0  0  0  0  0
  141.8266   71.1041  227.3737 H   0  0  0  0  0  0  0  0  0  0  0  0
  138.5128   67.4180  227.0012 H   0  0  0  0  0  0  0  0  0  0  0  0
  139.3779   68.4383  223.9828 H   0  0  0  0  0  0  0  0  0  0  0  0
  137.8381   68.3477  224.8322 H   0  0  0  0  0  0  0  0  0  0  0  0
  137.7257   70.3974  223.4637 H   0  0  0  0  0  0  0  0  0  0  0  0
  138.0188   70.9855  225.1040 H   0  0  0  0  0  0  0  0  0  0  0  0
  140.2803   70.2924  223.1020 H   0  0  0  0  0  0  0  0  0  0  0  0
  138.5820   72.6400  223.3320 H   0  0  0  0  0  0  0  0  0  0  0  0
  142.1180   76.8850  221.2560 H   0  0  0  0  0  0  0  0  0  0  0  0
  139.7582   77.4470  220.4440 H   0  0  0  0  0  0  0  0  0  0  0  0
  139.2411   76.4031  221.8543 H   0  0  0  0  0  0  0  0  0  0  0  0
  139.0298   78.6015  222.5573 H   0  0  0  0  0  0  0  0  0  0  0  0
  140.5690   77.9237  223.2854 H   0  0  0  0  0  0  0  0  0  0  0  0
  140.3809   79.6875  220.8820 H   0  0  0  0  0  0  0  0  0  0  0  0
  141.2785   81.4903  222.2506 H   0  0  0  0  0  0  0  0  0  0  0  0
  139.8841   80.9130  223.1158 H   0  0  0  0  0  0  0  0  0  0  0  0
  142.2505   80.9409  224.4245 H   0  0  0  0  0  0  0  0  0  0  0  0
  141.3361   79.4829  224.6257 H   0  0  0  0  0  0  0  0  0  0  0  0
  143.7091   80.0622  222.8215 H   0  0  0  0  0  0  0  0  0  0  0  0
  143.2424   78.5041  223.5445 H   0  0  0  0  0  0  0  0  0  0  0  0
  142.7350   79.2690  220.9240 H   0  0  0  0  0  0  0  0  0  0  0  0
  144.5793   73.7801  219.9412 H   0  0  0  0  0  0  0  0  0  0  0  0
  144.9919   72.5065  221.2027 H   0  0  0  0  0  0  0  0  0  0  0  0
  145.4297   72.5069  218.2674 H   0  0  0  0  0  0  0  0  0  0  0  0
  146.5660   72.2185  219.6803 H   0  0  0  0  0  0  0  0  0  0  0  0
  147.5073   70.2081  218.9202 H   0  0  0  0  0  0  0  0  0  0  0  0
  147.1819   67.7356  218.7036 H   0  0  0  0  0  0  0  0  0  0  0  0
  144.9029   66.8058  218.8051 H   0  0  0  0  0  0  0  0  0  0  0  0
  142.9529   68.2938  219.1136 H   0  0  0  0  0  0  0  0  0  0  0  0
  142.6271   71.3538  218.3865 H   0  0  0  0  0  0  0  0  0  0  0  0
  142.2055   70.4739  219.9434 H   0  0  0  0  0  0  0  0  0  0  0  0
  141.7179   70.8945  224.6653 H   0  0  0  0  0  0  0  0  0  0  0  0
  140.5337   72.0804  225.4153 H   0  0  0  0  0  0  0  0  0  0  0  0
  1  2  2  0
  2  3  1  0
  3  4  2  0
  4  5  1  0
  5  6  2  0
  5  7  1  0
  7  8  1  0
  8  9  1  0
  9 10  1  0
 10 11  1  0
 11 12  2  0
 12 13  1  0
 13 14  1  0
 14 15  1  0
 15 16  1  0
 16 17  1  0
 17 18  1  0
 18 19  1  0
 19 20  1  0
 20 21  1  0
 13 22  2  0
 22 23  1  0
 23 24  1  0
 24 25  1  0
 25 26  1  0
 26 27  1  0
 27 28  2  0
 28 29  1  0
 29 30  2  0
 30 31  1  0
 31 32  2  0
 32 33  1  0
 23 34  2  0
  9 35  1  0
  6  1  1  0
 34 11  1  0
 35  4  1  0
 21 17  1  0
 33 24  1  0
 32 27  1  0
  1 36  1  0
  2 37  1  0
  3 38  1  0
  6 39  1  0
  7 40  1  0
  7 41  1  0
  8 42  1  0
  8 43  1  0
  9 44  1  6
 10 45  1  0
 14 46  1  0
 15 47  1  0
 15 48  1  0
 16 49  1  0
 16 50  1  0
 17 51  1  6
 18 52  1  0
 18 53  1  0
 19 54  1  0
 19 55  1  0
 20 56  1  0
 20 57  1  0
 21 58  1  0
 25 59  1  0
 25 60  1  0
 26 61  1  0
 26 62  1  0
 28 63  1  0
 29 64  1  0
 30 65  1  0
 31 66  1  0
 33 67  1  0
 33 68  1  0
 35 69  1  0
 35 70  1  0
M  END
>  <smiles>  (197) 
c1ccc2c(c1)CCC(Nc1nc(NCCC3CCCN3)nc(N3CCc4ccccc4C3)n1)C2

>  <score_type>  (197) 
oracle

>  <origin>  (197) 
autodockgpu

>  <m_score__min__energy>  (197) 
-11.550000000000001

>  <m_primary>  (197) 
energy

>  <rmsd>  (197) 
12.089349995450007

>  <m_score__min__rmsd>  (197) 
12.089349995450007

>  <meeko>  (197) 
{"free_energy": -11.02, "intermolecular_energy": -13.11, "internal_energy": -1.47, "cluster_size": 11, "cluster_id": 2, "rank_in_cluster": 2}

>  <energy>  (197) 
-9.8

>  <cluster_rmsd>  (197) 
1.75

>  <cluster>  (197) 
3

$$$$

     RDKit          3D

 70 75  0  0  1  0  0  0  0  0999 V2000
  140.4060   68.8820  228.3250 C   0  0  0  0  0  0  0  0  0  0  0  0
  141.0480   70.1060  228.3460 C   0  0  0  0  0  0  0  0  0  0  0  0
  141.0650   70.9240  227.2430 C   0  0  0  0  0  0  0  0  0  0  0  0
  140.4390   70.5470  226.0750 C   0  0  0  0  0  0  0  0  0  0  0  0
  139.7990   69.3330  226.0460 C   0  0  0  0  0  0  0  0  0  0  0  0
  139.7630   68.4800  227.1510 C   0  0  0  0  0  0  0  0  0  0  0  0
  139.1280   68.9570  224.7580 C   0  0  0  0  0  0  0  0  0  0  0  0
  138.5000   70.2640  224.2560 C   0  0  0  0  0  0  0  0  0  0  0  0
  139.6590   71.1020  223.7650 C   0  0  1  0  0  0  0  0  0  0  0  0
  139.1270   72.2360  223.0560 N   0  0  0  0  0  0  0  0  0  0  0  0
  139.8320   72.9720  222.0700 C   0  0  0  0  0  0  0  0  0  0  0  0
  140.2520   72.3600  220.9450 N   0  0  0  0  0  0  0  0  0  0  0  0
  140.9220   73.0010  219.9730 C   0  0  0  0  0  0  0  0  0  0  0  0
  141.3600   72.3490  218.7910 N   0  0  0  0  0  0  0  0  0  0  0  0
  142.4800   72.8300  218.0050 C   0  0  0  0  0  0  0  0  0  0  0  0
  143.8100   72.5300  218.6070 C   0  0  0  0  0  0  0  0  0  0  0  0
  144.6360   73.7430  218.9070 C   0  0  1  0  0  0  0  0  0  0  0  0
  144.3570   74.3470  220.2450 C   0  0  0  0  0  0  0  0  0  0  0  0
  145.0130   73.3280  221.1780 C   0  0  0  0  0  0  0  0  0  0  0  0
  146.2790   73.0230  220.3970 C   0  0  0  0  0  0  0  0  0  0  0  0
  146.0110   73.3220  219.0220 N   0  0  0  0  0  0  0  0  0  0  0  0
  141.1730   74.3000  220.1510 N   0  0  0  0  0  0  0  0  0  0  0  0
  140.7580   74.9350  221.2810 C   0  0  0  0  0  0  0  0  0  0  0  0
  141.0520   76.3230  221.4210 N   0  0  0  0  0  0  0  0  0  0  0  0
  141.3580   77.0770  220.2310 C   0  0  0  0  0  0  0  0  0  0  0  0
  141.8200   78.4570  220.4660 C   0  0  0  0  0  0  0  0  0  0  0  0
  141.1220   79.1630  221.5640 C   0  0  0  0  0  0  0  0  0  0  0  0
  140.8690   80.5240  221.4680 C   0  0  0  0  0  0  0  0  0  0  0  0
  140.2130   81.1710  222.5100 C   0  0  0  0  0  0  0  0  0  0  0  0
  139.8330   80.4520  223.6010 C   0  0  0  0  0  0  0  0  0  0  0  0
  140.0980   79.0870  223.6760 C   0  0  0  0  0  0  0  0  0  0  0  0
  140.7480   78.4120  222.6590 C   0  0  0  0  0  0  0  0  0  0  0  0
  141.0480   76.9680  222.6960 C   0  0  0  0  0  0  0  0  0  0  0  0
  140.0970   74.2750  222.2230 N   0  0  0  0  0  0  0  0  0  0  0  0
  140.5040   71.4850  224.9340 C   0  0  0  0  0  0  0  0  0  0  0  0
  140.4013   68.2364  229.2156 H   0  0  0  0  0  0  0  0  0  0  0  0
  141.5560   70.4317  229.2657 H   0  0  0  0  0  0  0  0  0  0  0  0
  141.5848   71.8922  227.2927 H   0  0  0  0  0  0  0  0  0  0  0  0
  139.2404   67.5135  227.0986 H   0  0  0  0  0  0  0  0  0  0  0  0
  139.8628   68.5754  224.0338 H   0  0  0  0  0  0  0  0  0  0  0  0
  138.3826   68.1593  224.8921 H   0  0  0  0  0  0  0  0  0  0  0  0
  137.7956   70.0625  223.4355 H   0  0  0  0  0  0  0  0  0  0  0  0
  137.9308   70.7751  225.0464 H   0  0  0  0  0  0  0  0  0  0  0  0
  140.3042   70.5468  223.0682 H   0  0  0  0  0  0  0  0  0  0  0  0
  138.1400   72.5200  223.3050 H   0  0  0  0  0  0  0  0  0  0  0  0
  140.8790   71.4950  218.4540 H   0  0  0  0  0  0  0  0  0  0  0  0
  142.4345   72.3590  217.0120 H   0  0  0  0  0  0  0  0  0  0  0  0
  142.3902   73.9252  217.9559 H   0  0  0  0  0  0  0  0  0  0  0  0
  143.6475   71.9822  219.5470 H   0  0  0  0  0  0  0  0  0  0  0  0
  144.3686   71.9434  217.8628 H   0  0  0  0  0  0  0  0  0  0  0  0
  144.4138   74.4637  218.1063 H   0  0  0  0  0  0  0  0  0  0  0  0
  144.8209   75.3396  220.3431 H   0  0  0  0  0  0  0  0  0  0  0  0
  143.2896   74.5200  220.4468 H   0  0  0  0  0  0  0  0  0  0  0  0
  145.2371   73.7631  222.1631 H   0  0  0  0  0  0  0  0  0  0  0  0
  144.3925   72.4502  221.4113 H   0  0  0  0  0  0  0  0  0  0  0  0
  147.1075   73.6468  220.7637 H   0  0  0  0  0  0  0  0  0  0  0  0
  146.5680   71.9686  220.5181 H   0  0  0  0  0  0  0  0  0  0  0  0
  146.7000   73.9140  218.5410 H   0  0  0  0  0  0  0  0  0  0  0  0
  142.1474   76.5422  219.6825 H   0  0  0  0  0  0  0  0  0  0  0  0
  140.4150   77.1611  219.6710 H   0  0  0  0  0  0  0  0  0  0  0  0
  142.8927   78.4231  220.7074 H   0  0  0  0  0  0  0  0  0  0  0  0
  141.6018   79.0192  219.5461 H   0  0  0  0  0  0  0  0  0  0  0  0
  141.1842   81.0858  220.5764 H   0  0  0  0  0  0  0  0  0  0  0  0
  140.0042   82.2495  222.4529 H   0  0  0  0  0  0  0  0  0  0  0  0
  139.3123   80.9531  224.4303 H   0  0  0  0  0  0  0  0  0  0  0  0
  139.7812   78.5296  224.5699 H   0  0  0  0  0  0  0  0  0  0  0  0
  142.0418   76.8367  223.1488 H   0  0  0  0  0  0  0  0  0  0  0  0
  140.2402   76.4992  223.2771 H   0  0  0  0  0  0  0  0  0  0  0  0
  141.5495   71.5432  224.5970 H   0  0  0  0  0  0  0  0  0  0  0  0
  140.1136   72.4465  225.2987 H   0  0  0  0  0  0  0  0  0  0  0  0
  1  2  2  0
  2  3  1  0
  3  4  2  0
  4  5  1  0
  5  6  2  0
  5  7  1  0
  7  8  1  0
  8  9  1  0
  9 10  1  0
 10 11  1  0
 11 12  2  0
 12 13  1  0
 13 14  1  0
 14 15  1  0
 15 16  1  0
 16 17  1  0
 17 18  1  0
 18 19  1  0
 19 20  1  0
 20 21  1  0
 13 22  2  0
 22 23  1  0
 23 24  1  0
 24 25  1  0
 25 26  1  0
 26 27  1  0
 27 28  2  0
 28 29  1  0
 29 30  2  0
 30 31  1  0
 31 32  2  0
 32 33  1  0
 23 34  2  0
  9 35  1  0
  6  1  1  0
 34 11  1  0
 35  4  1  0
 21 17  1  0
 33 24  1  0
 32 27  1  0
  1 36  1  0
  2 37  1  0
  3 38  1  0
  6 39  1  0
  7 40  1  0
  7 41  1  0
  8 42  1  0
  8 43  1  0
  9 44  1  6
 10 45  1  0
 14 46  1  0
 15 47  1  0
 15 48  1  0
 16 49  1  0
 16 50  1  0
 17 51  1  6
 18 52  1  0
 18 53  1  0
 19 54  1  0
 19 55  1  0
 20 56  1  0
 20 57  1  0
 21 58  1  0
 25 59  1  0
 25 60  1  0
 26 61  1  0
 26 62  1  0
 28 63  1  0
 29 64  1  0
 30 65  1  0
 31 66  1  0
 33 67  1  0
 33 68  1  0
 35 69  1  0
 35 70  1  0
M  END
>  <smiles>  (198) 
c1ccc2c(c1)CCC(Nc1nc(NCCC3CCCN3)nc(N3CCc4ccccc4C3)n1)C2

>  <score_type>  (198) 
oracle

>  <origin>  (198) 
autodockgpu

>  <m_score__min__energy>  (198) 
-11.550000000000001

>  <m_primary>  (198) 
energy

>  <rmsd>  (198) 
11.85018038875268

>  <m_score__min__rmsd>  (198) 
11.85018038875268

>  <meeko>  (198) 
{"free_energy": -11.01, "intermolecular_energy": -13.1, "internal_energy": -1.38, "cluster_size": 31, "cluster_id": 1, "rank_in_cluster": 3}

>  <energy>  (198) 
-10.32

>  <cluster_rmsd>  (198) 
0.0

>  <cluster>  (198) 
4

$$$$

     RDKit          3D

 70 75  0  0  1  0  0  0  0  0999 V2000
  140.4840   68.7740  228.2660 C   0  0  0  0  0  0  0  0  0  0  0  0
  141.0440   70.0340  228.3730 C   0  0  0  0  0  0  0  0  0  0  0  0
  141.0680   70.8990  227.3070 C   0  0  0  0  0  0  0  0  0  0  0  0
  140.5290   70.5350  226.0910 C   0  0  0  0  0  0  0  0  0  0  0  0
  139.9710   69.2860  225.9770 C   0  0  0  0  0  0  0  0  0  0  0  0
  139.9320   68.3850  227.0430 C   0  0  0  0  0  0  0  0  0  0  0  0
  139.3940   68.9260  224.6400 C   0  0  0  0  0  0  0  0  0  0  0  0
  138.7120   70.2130  224.1570 C   0  0  0  0  0  0  0  0  0  0  0  0
  139.8390   71.1420  223.7660 C   0  0  1  0  0  0  0  0  0  0  0  0
  139.2740   72.2710  223.0740 N   0  0  0  0  0  0  0  0  0  0  0  0
  139.9500   73.0310  222.0880 C   0  0  0  0  0  0  0  0  0  0  0  0
  140.3710   72.4390  220.9530 N   0  0  0  0  0  0  0  0  0  0  0  0
  141.0160   73.1030  219.9790 C   0  0  0  0  0  0  0  0  0  0  0  0
  141.4550   72.4720  218.7860 N   0  0  0  0  0  0  0  0  0  0  0  0
  142.6540   71.6580  218.7310 C   0  0  0  0  0  0  0  0  0  0  0  0
  143.7260   72.1020  219.6670 C   0  0  0  0  0  0  0  0  0  0  0  0
  144.3140   73.4400  219.3370 C   0  0  1  0  0  0  0  0  0  0  0  0
  144.3780   74.3740  220.5010 C   0  0  0  0  0  0  0  0  0  0  0  0
  145.5200   73.7640  221.3140 C   0  0  0  0  0  0  0  0  0  0  0  0
  146.4810   73.3950  220.1980 C   0  0  0  0  0  0  0  0  0  0  0  0
  145.7040   73.2400  219.0040 N   0  0  0  0  0  0  0  0  0  0  0  0
  141.2370   74.4060  220.1650 N   0  0  0  0  0  0  0  0  0  0  0  0
  140.8200   75.0220  221.3050 C   0  0  0  0  0  0  0  0  0  0  0  0
  141.0830   76.4150  221.4540 N   0  0  0  0  0  0  0  0  0  0  0  0
  141.4170   77.1750  220.2740 C   0  0  0  0  0  0  0  0  0  0  0  0
  141.8440   78.5630  220.5240 C   0  0  0  0  0  0  0  0  0  0  0  0
  141.0950   79.2560  221.5950 C   0  0  0  0  0  0  0  0  0  0  0  0
  140.8200   80.6120  221.4880 C   0  0  0  0  0  0  0  0  0  0  0  0
  140.1150   81.2480  222.5060 C   0  0  0  0  0  0  0  0  0  0  0  0
  139.7100   80.5220  223.5830 C   0  0  0  0  0  0  0  0  0  0  0  0
  139.9980   79.1620  223.6690 C   0  0  0  0  0  0  0  0  0  0  0  0
  140.6960   78.4990  222.6770 C   0  0  0  0  0  0  0  0  0  0  0  0
  141.0220   77.0610  222.7270 C   0  0  0  0  0  0  0  0  0  0  0  0
  140.1860   74.3380  222.2490 N   0  0  0  0  0  0  0  0  0  0  0  0
  140.5940   71.5250  224.9950 C   0  0  0  0  0  0  0  0  0  0  0  0
  140.4734   68.0907  229.1280 H   0  0  0  0  0  0  0  0  0  0  0  0
  141.4794   70.3499  229.3325 H   0  0  0  0  0  0  0  0  0  0  0  0
  141.5224   71.8939  227.4243 H   0  0  0  0  0  0  0  0  0  0  0  0
  139.4767   67.3909  226.9225 H   0  0  0  0  0  0  0  0  0  0  0  0
  140.1885   68.6217  223.9428 H   0  0  0  0  0  0  0  0  0  0  0  0
  138.6945   68.0792  224.7005 H   0  0  0  0  0  0  0  0  0  0  0  0
  138.0667   70.0049  223.2908 H   0  0  0  0  0  0  0  0  0  0  0  0
  138.0704   70.6528  224.9348 H   0  0  0  0  0  0  0  0  0  0  0  0
  140.5549   70.6590  223.0847 H   0  0  0  0  0  0  0  0  0  0  0  0
  138.2840   72.5310  223.3390 H   0  0  0  0  0  0  0  0  0  0  0  0
  140.9170   72.5810  217.9070 H   0  0  0  0  0  0  0  0  0  0  0  0
  142.3818   70.6221  218.9818 H   0  0  0  0  0  0  0  0  0  0  0  0
  143.0587   71.7521  217.7125 H   0  0  0  0  0  0  0  0  0  0  0  0
  143.3003   72.1526  220.6800 H   0  0  0  0  0  0  0  0  0  0  0  0
  144.5419   71.3689  219.5838 H   0  0  0  0  0  0  0  0  0  0  0  0
  143.6798   73.8600  218.5424 H   0  0  0  0  0  0  0  0  0  0  0  0
  144.6146   75.3996  220.1815 H   0  0  0  0  0  0  0  0  0  0  0  0
  143.4321   74.4685  221.0545 H   0  0  0  0  0  0  0  0  0  0  0  0
  145.9622   74.4952  222.0066 H   0  0  0  0  0  0  0  0  0  0  0  0
  145.2262   72.9267  221.9640 H   0  0  0  0  0  0  0  0  0  0  0  0
  147.2254   74.1934  220.0623 H   0  0  0  0  0  0  0  0  0  0  0  0
  147.0191   72.4659  220.4372 H   0  0  0  0  0  0  0  0  0  0  0  0
  146.0390   73.7410  218.1720 H   0  0  0  0  0  0  0  0  0  0  0  0
  142.2354   76.6552  219.7543 H   0  0  0  0  0  0  0  0  0  0  0  0
  140.4931   77.2411  219.6808 H   0  0  0  0  0  0  0  0  0  0  0  0
  142.9078   78.5493  220.8034 H   0  0  0  0  0  0  0  0  0  0  0  0
  141.6477   79.1206  219.5964 H   0  0  0  0  0  0  0  0  0  0  0  0
  141.1559   81.1789  220.6072 H   0  0  0  0  0  0  0  0  0  0  0  0
  139.8885   82.3224  222.4406 H   0  0  0  0  0  0  0  0  0  0  0  0
  139.1504   81.0132  224.3926 H   0  0  0  0  0  0  0  0  0  0  0  0
  139.6603   78.5993  224.5518 H   0  0  0  0  0  0  0  0  0  0  0  0
  142.0017   76.9491  223.2146 H   0  0  0  0  0  0  0  0  0  0  0  0
  140.2035   76.5774  223.2803 H   0  0  0  0  0  0  0  0  0  0  0  0
  141.6500   71.6633  224.7198 H   0  0  0  0  0  0  0  0  0  0  0  0
  140.1236   72.4433  225.3762 H   0  0  0  0  0  0  0  0  0  0  0  0
  1  2  2  0
  2  3  1  0
  3  4  2  0
  4  5  1  0
  5  6  2  0
  5  7  1  0
  7  8  1  0
  8  9  1  0
  9 10  1  0
 10 11  1  0
 11 12  2  0
 12 13  1  0
 13 14  1  0
 14 15  1  0
 15 16  1  0
 16 17  1  0
 17 18  1  0
 18 19  1  0
 19 20  1  0
 20 21  1  0
 13 22  2  0
 22 23  1  0
 23 24  1  0
 24 25  1  0
 25 26  1  0
 26 27  1  0
 27 28  2  0
 28 29  1  0
 29 30  2  0
 30 31  1  0
 31 32  2  0
 32 33  1  0
 23 34  2  0
  9 35  1  0
  6  1  1  0
 34 11  1  0
 35  4  1  0
 21 17  1  0
 33 24  1  0
 32 27  1  0
  1 36  1  0
  2 37  1  0
  3 38  1  0
  6 39  1  0
  7 40  1  0
  7 41  1  0
  8 42  1  0
  8 43  1  0
  9 44  1  6
 10 45  1  0
 14 46  1  0
 15 47  1  0
 15 48  1  0
 16 49  1  0
 16 50  1  0
 17 51  1  6
 18 52  1  0
 18 53  1  0
 19 54  1  0
 19 55  1  0
 20 56  1  0
 20 57  1  0
 21 58  1  0
 25 59  1  0
 25 60  1  0
 26 61  1  0
 26 62  1  0
 28 63  1  0
 29 64  1  0
 30 65  1  0
 31 66  1  0
 33 67  1  0
 33 68  1  0
 35 69  1  0
 35 70  1  0
M  END
>  <smiles>  (199) 
c1ccc2c(c1)CCC(Nc1nc(NCCC3CCCN3)nc(N3CCc4ccccc4C3)n1)C2

>  <score_type>  (199) 
oracle

>  <origin>  (199) 
autodockgpu

>  <m_score__min__energy>  (199) 
-11.550000000000001

>  <m_primary>  (199) 
energy

>  <rmsd>  (199) 
11.854792799353065

>  <m_score__min__rmsd>  (199) 
11.854792799353065

>  <meeko>  (199) 
{"free_energy": -10.77, "intermolecular_energy": -12.86, "internal_energy": -1.38, "cluster_size": 31, "cluster_id": 1, "rank_in_cluster": 7}

>  <energy>  (199) 
-10.13

>  <cluster_rmsd>  (199) 
0.0

>  <cluster>  (199) 
5

$$$$

     RDKit          3D

 70 75  0  0  1  0  0  0  0  0999 V2000
  141.8280   81.3020  223.1390 C   0  0  0  0  0  0  0  0  0  0  0  0
  142.8090   80.3520  222.9310 C   0  0  0  0  0  0  0  0  0  0  0  0
  142.5000   79.0200  222.8030 C   0  0  0  0  0  0  0  0  0  0  0  0
  141.1930   78.5890  222.8770 C   0  0  0  0  0  0  0  0  0  0  0  0
  140.2120   79.5270  223.0820 C   0  0  0  0  0  0  0  0  0  0  0  0
  140.4960   80.8880  223.2170 C   0  0  0  0  0  0  0  0  0  0  0  0
  138.8020   79.0220  223.1570 C   0  0  0  0  0  0  0  0  0  0  0  0
  138.7280   77.9320  222.0790 C   0  0  0  0  0  0  0  0  0  0  0  0
  139.5040   76.7610  222.6380 C   0  0  1  0  0  0  0  0  0  0  0  0
  139.2700   75.6200  221.7920 N   0  0  0  0  0  0  0  0  0  0  0  0
  139.9900   74.4010  221.8680 C   0  0  0  0  0  0  0  0  0  0  0  0
  141.0610   74.2000  221.0750 N   0  0  0  0  0  0  0  0  0  0  0  0
  141.7860   73.0700  221.0990 C   0  0  0  0  0  0  0  0  0  0  0  0
  142.9120   72.8670  220.2610 N   0  0  0  0  0  0  0  0  0  0  0  0
  142.8530   73.0320  218.8220 C   0  0  0  0  0  0  0  0  0  0  0  0
  142.4780   74.4080  218.3890 C   0  0  0  0  0  0  0  0  0  0  0  0
  143.2400   75.4980  219.0800 C   0  0  1  0  0  0  0  0  0  0  0  0
  143.6670   76.6050  218.1710 C   0  0  0  0  0  0  0  0  0  0  0  0
  142.3370   77.3160  217.9190 C   0  0  0  0  0  0  0  0  0  0  0  0
  141.7320   77.2610  219.3100 C   0  0  0  0  0  0  0  0  0  0  0  0
  142.3370   76.1570  219.9920 N   0  0  0  0  0  0  0  0  0  0  0  0
  141.4110   72.1160  221.9550 N   0  0  0  0  0  0  0  0  0  0  0  0
  140.3310   72.3000  222.7640 C   0  0  0  0  0  0  0  0  0  0  0  0
  139.9730   71.2500  223.6590 N   0  0  0  0  0  0  0  0  0  0  0  0
  139.5700   69.9840  223.0970 C   0  0  0  0  0  0  0  0  0  0  0  0
  139.0500   69.0050  224.0680 C   0  0  0  0  0  0  0  0  0  0  0  0
  139.7630   68.9830  225.3640 C   0  0  0  0  0  0  0  0  0  0  0  0
  139.9410   67.7840  226.0420 C   0  0  0  0  0  0  0  0  0  0  0  0
  140.6130   67.7830  227.2600 C   0  0  0  0  0  0  0  0  0  0  0  0
  141.0830   68.9590  227.7580 C   0  0  0  0  0  0  0  0  0  0  0  0
  140.8930   70.1490  227.0620 C   0  0  0  0  0  0  0  0  0  0  0  0
  140.2300   70.1870  225.8490 C   0  0  0  0  0  0  0  0  0  0  0  0
  140.0060   71.4250  225.0770 C   0  0  0  0  0  0  0  0  0  0  0  0
  139.6360   73.4290  222.7170 N   0  0  0  0  0  0  0  0  0  0  0  0
  140.9450   77.1390  222.7280 C   0  0  0  0  0  0  0  0  0  0  0  0
  142.0908   82.3652  223.2414 H   0  0  0  0  0  0  0  0  0  0  0  0
  143.8603   80.6692  222.8665 H   0  0  0  0  0  0  0  0  0  0  0  0
  143.3051   78.2885  222.6395 H   0  0  0  0  0  0  0  0  0  0  0  0
  139.6891   81.6173  223.3810 H   0  0  0  0  0  0  0  0  0  0  0  0
  138.5919   78.6008  224.1512 H   0  0  0  0  0  0  0  0  0  0  0  0
  138.0621   79.8202  222.9971 H   0  0  0  0  0  0  0  0  0  0  0  0
  137.6824   77.6465  221.8916 H   0  0  0  0  0  0  0  0  0  0  0  0
  139.1419   78.2765  221.1198 H   0  0  0  0  0  0  0  0  0  0  0  0
  139.1760   76.4947  223.6536 H   0  0  0  0  0  0  0  0  0  0  0  0
  138.5030   75.7230  221.0720 H   0  0  0  0  0  0  0  0  0  0  0  0
  143.8250   72.5900  220.6670 H   0  0  0  0  0  0  0  0  0  0  0  0
  143.8428   72.7949  218.4049 H   0  0  0  0  0  0  0  0  0  0  0  0
  142.0678   72.3552  218.4539 H   0  0  0  0  0  0  0  0  0  0  0  0
  142.6609   74.4913  217.3075 H   0  0  0  0  0  0  0  0  0  0  0  0
  141.4192   74.5454  218.6538 H   0  0  0  0  0  0  0  0  0  0  0  0
  144.1173   75.0120  219.5318 H   0  0  0  0  0  0  0  0  0  0  0  0
  144.3930   77.2707  218.6607 H   0  0  0  0  0  0  0  0  0  0  0  0
  144.1767   76.2660  217.2571 H   0  0  0  0  0  0  0  0  0  0  0  0
  142.4870   78.3520  217.5812 H   0  0  0  0  0  0  0  0  0  0  0  0
  141.7171   76.8665  217.1293 H   0  0  0  0  0  0  0  0  0  0  0  0
  141.9407   78.1970  219.8489 H   0  0  0  0  0  0  0  0  0  0  0  0
  140.6405   77.1357  219.2562 H   0  0  0  0  0  0  0  0  0  0  0  0
  142.7130   76.3490  220.9290 H   0  0  0  0  0  0  0  0  0  0  0  0
  138.7830   70.1767  222.3530 H   0  0  0  0  0  0  0  0  0  0  0  0
  140.4788   69.5365  222.6683 H   0  0  0  0  0  0  0  0  0  0  0  0
  137.9935   69.2423  224.2619 H   0  0  0  0  0  0  0  0  0  0  0  0
  139.1941   68.0123  223.6166 H   0  0  0  0  0  0  0  0  0  0  0  0
  139.5544   66.8446  225.6201 H   0  0  0  0  0  0  0  0  0  0  0  0
  140.7625   66.8441  227.8132 H   0  0  0  0  0  0  0  0  0  0  0  0
  141.6178   68.9691  228.7192 H   0  0  0  0  0  0  0  0  0  0  0  0
  141.2811   71.0857  227.4887 H   0  0  0  0  0  0  0  0  0  0  0  0
  139.0433   71.8546  225.3911 H   0  0  0  0  0  0  0  0  0  0  0  0
  140.8637   72.0806  225.2880 H   0  0  0  0  0  0  0  0  0  0  0  0
  141.3808   76.6253  223.5976 H   0  0  0  0  0  0  0  0  0  0  0  0
  141.4057   76.8403  221.7748 H   0  0  0  0  0  0  0  0  0  0  0  0
  1  2  2  0
  2  3  1  0
  3  4  2  0
  4  5  1  0
  5  6  2  0
  5  7  1  0
  7  8  1  0
  8  9  1  0
  9 10  1  0
 10 11  1  0
 11 12  2  0
 12 13  1  0
 13 14  1  0
 14 15  1  0
 15 16  1  0
 16 17  1  0
 17 18  1  0
 18 19  1  0
 19 20  1  0
 20 21  1  0
 13 22  2  0
 22 23  1  0
 23 24  1  0
 24 25  1  0
 25 26  1  0
 26 27  1  0
 27 28  2  0
 28 29  1  0
 29 30  2  0
 30 31  1  0
 31 32  2  0
 32 33  1  0
 23 34  2  0
  9 35  1  0
  6  1  1  0
 34 11  1  0
 35  4  1  0
 21 17  1  0
 33 24  1  0
 32 27  1  0
  1 36  1  0
  2 37  1  0
  3 38  1  0
  6 39  1  0
  7 40  1  0
  7 41  1  0
  8 42  1  0
  8 43  1  0
  9 44  1  1
 10 45  1  0
 14 46  1  0
 15 47  1  0
 15 48  1  0
 16 49  1  0
 16 50  1  0
 17 51  1  1
 18 52  1  0
 18 53  1  0
 19 54  1  0
 19 55  1  0
 20 56  1  0
 20 57  1  0
 21 58  1  0
 25 59  1  0
 25 60  1  0
 26 61  1  0
 26 62  1  0
 28 63  1  0
 29 64  1  0
 30 65  1  0
 31 66  1  0
 33 67  1  0
 33 68  1  0
 35 69  1  0
 35 70  1  0
M  END
>  <smiles>  (200) 
c1ccc2c(c1)CCC(Nc1nc(NCCC3CCCN3)nc(N3CCc4ccccc4C3)n1)C2

>  <score_type>  (200) 
oracle

>  <origin>  (200) 
autodockgpu

>  <m_score__min__energy>  (200) 
-11.550000000000001

>  <m_primary>  (200) 
energy

>  <rmsd>  (200) 
4.3552493772490415

>  <m_score__min__rmsd>  (200) 
4.3552493772490415

>  <meeko>  (200) 
{"free_energy": -9.68, "intermolecular_energy": -11.77, "internal_energy": -1.69, "cluster_size": 31, "cluster_id": 1, "rank_in_cluster": 28}

>  <energy>  (200) 
-9.61

>  <cluster_rmsd>  (200) 
0.0

>  <cluster>  (200) 
6

$$$$
