
     RDKit          3D

 58 62  0  0  0  0  0  0  0  0999 V2000
  138.3720   71.0420  221.2900 O   0  0  0  0  0  0  0  0  0  0  0  0
  138.7680   71.5900  222.3520 C   0  0  0  0  0  0  0  0  0  0  0  0
  138.9030   73.0010  222.4880 N   0  0  0  0  0  0  0  0  0  0  0  0
  138.5750   73.8400  221.3820 C   0  0  0  0  0  0  0  0  0  0  0  0
  139.2330   75.1460  221.3750 C   0  0  0  0  0  0  0  0  0  0  0  0
  138.6900   76.2120  221.7680 O   0  0  0  0  0  0  0  0  0  0  0  0
  140.5740   75.2570  220.9020 N   0  0  0  0  0  0  0  0  0  0  0  0
  141.4650   74.0820  220.8970 C   0  0  0  0  0  0  0  0  0  0  0  0
  142.4710   74.4170  219.8120 C   0  0  2  0  0  0  0  0  0  0  0  0
  143.7700   73.7480  219.9890 C   0  0  0  0  0  0  0  0  0  0  0  0
  144.0460   72.4620  219.5560 C   0  0  0  0  0  0  0  0  0  0  0  0
  145.3070   71.9370  219.7720 C   0  0  0  0  0  0  0  0  0  0  0  0
  146.3140   72.6540  220.4100 C   0  0  0  0  0  0  0  0  0  0  0  0
  146.0310   73.9400  220.8410 C   0  0  0  0  0  0  0  0  0  0  0  0
  144.7710   74.4830  220.6320 C   0  0  0  0  0  0  0  0  0  0  0  0
  142.6310   75.8970  220.0160 C   0  0  0  0  0  0  0  0  0  0  0  0
  141.2840   76.3860  220.3790 C   0  0  2  0  0  0  0  0  0  0  0  0
  141.3110   77.5370  221.3190 C   0  0  0  0  0  0  0  0  0  0  0  0
  141.5570   78.7890  220.7460 C   0  0  0  0  0  0  0  0  0  0  0  0
  141.5930   79.8790  221.5730 C   0  0  0  0  0  0  0  0  0  0  0  0
  141.3960   79.7950  222.9520 C   0  0  0  0  0  0  0  0  0  0  0  0
  141.1520   78.5180  223.4730 C   0  0  0  0  0  0  0  0  0  0  0  0
  141.1090   77.3970  222.6820 C   0  0  0  0  0  0  0  0  0  0  0  0
  139.1160   70.7550  223.5190 C   0  0  0  0  0  0  0  0  0  0  0  0
  138.8350   69.4000  223.5320 C   0  0  0  0  0  0  0  0  0  0  0  0
  139.1830   68.6520  224.6590 C   0  0  0  0  0  0  0  0  0  0  0  0
  139.7890   69.2180  225.7410 C   0  0  0  0  0  0  0  0  0  0  0  0
  140.1420   68.4930  226.8670 C   0  0  0  0  0  0  0  0  0  0  0  0
  140.7590   69.1480  227.9260 C   0  0  0  0  0  0  0  0  0  0  0  0
  141.1270   68.4950  229.0530 F   0  0  0  0  0  0  0  0  0  0  0  0
  141.0070   70.4930  227.8460 C   0  0  0  0  0  0  0  0  0  0  0  0
  140.6670   71.2440  226.7390 C   0  0  0  0  0  0  0  0  0  0  0  0
  140.0540   70.5710  225.6950 C   0  0  0  0  0  0  0  0  0  0  0  0
  139.7170   71.2840  224.6080 N   0  0  0  0  0  0  0  0  0  0  0  0
  139.2450   73.3850  223.4180 H   0  0  0  0  0  0  0  0  0  0  0  0
  138.8566   73.3120  220.4590 H   0  0  0  0  0  0  0  0  0  0  0  0
  137.4965   74.0418  221.4610 H   0  0  0  0  0  0  0  0  0  0  0  0
  141.9612   73.9586  221.8710 H   0  0  0  0  0  0  0  0  0  0  0  0
  140.9326   73.1367  220.7158 H   0  0  0  0  0  0  0  0  0  0  0  0
  142.1360   74.0987  218.8138 H   0  0  0  0  0  0  0  0  0  0  0  0
  143.2734   71.8666  219.0475 H   0  0  0  0  0  0  0  0  0  0  0  0
  145.5217   70.9149  219.4266 H   0  0  0  0  0  0  0  0  0  0  0  0
  147.3086   72.2117  220.5681 H   0  0  0  0  0  0  0  0  0  0  0  0
  146.8063   74.5317  221.3497 H   0  0  0  0  0  0  0  0  0  0  0  0
  144.5568   75.5054  220.9768 H   0  0  0  0  0  0  0  0  0  0  0  0
  143.3463   76.0995  220.8267 H   0  0  0  0  0  0  0  0  0  0  0  0
  143.0211   76.3962  219.1168 H   0  0  0  0  0  0  0  0  0  0  0  0
  140.7731   76.7917  219.4933 H   0  0  0  0  0  0  0  0  0  0  0  0
  141.7168   78.8945  219.6628 H   0  0  0  0  0  0  0  0  0  0  0  0
  141.7862   80.8672  221.1301 H   0  0  0  0  0  0  0  0  0  0  0  0
  141.4306   80.6857  223.5965 H   0  0  0  0  0  0  0  0  0  0  0  0
  140.9889   78.4095  224.5554 H   0  0  0  0  0  0  0  0  0  0  0  0
  140.9179   76.4071  223.1219 H   0  0  0  0  0  0  0  0  0  0  0  0
  138.3466   68.9209  222.6706 H   0  0  0  0  0  0  0  0  0  0  0  0
  138.9616   67.5746  224.6739 H   0  0  0  0  0  0  0  0  0  0  0  0
  139.9368   67.4137  226.9223 H   0  0  0  0  0  0  0  0  0  0  0  0
  141.4952   70.9929  228.6955 H   0  0  0  0  0  0  0  0  0  0  0  0
  140.8726   72.3234  226.6883 H   0  0  0  0  0  0  0  0  0  0  0  0
  1  2  2  0
  2  3  1  0
  3  4  1  0
  4  5  1  0
  5  6  2  0
  5  7  1  0
  7  8  1  0
  8  9  1  0
  9 10  1  0
 10 11  2  0
 11 12  1  0
 12 13  2  0
 13 14  1  0
 14 15  2  0
  9 16  1  0
 16 17  1  0
 17 18  1  0
 18 19  2  0
 19 20  1  0
 20 21  2  0
 21 22  1  0
 22 23  2  0
  2 24  1  0
 24 25  2  0
 25 26  1  0
 26 27  2  0
 27 28  1  0
 28 29  2  0
 29 30  1  0
 29 31  1  0
 31 32  2  0
 32 33  1  0
 33 34  2  0
 17  7  1  0
 23 18  1  0
 34 24  1  0
 15 10  1  0
 33 27  1  0
  3 35  1  0
  4 36  1  0
  4 37  1  0
  8 38  1  0
  8 39  1  0
  9 40  1  6
 11 41  1  0
 12 42  1  0
 13 43  1  0
 14 44  1  0
 15 45  1  0
 16 46  1  0
 16 47  1  0
 17 48  1  6
 19 49  1  0
 20 50  1  0
 21 51  1  0
 22 52  1  0
 23 53  1  0
 25 54  1  0
 26 55  1  0
 28 56  1  0
 31 57  1  0
 32 58  1  0
M  END
