@<TRIPOS>MOLECULE
*****
 79 85 0 0 0
SMALL
GASTEIGER

@<TRIPOS>ATOM
      1 N         135.7160   73.8090  223.3820 N.3     1  UNL1       -0.3249
      2 C         135.2060   75.0660  222.8870 C.3     1  UNL1        0.0334
      3 C         135.4460   75.0590  221.3940 C.3     1  UNL1        0.0282
      4 N         136.1730   73.8600  220.9650 N.pl3   1  UNL1       -0.3118
      5 C         137.5250   73.7710  221.4500 C.ar    1  UNL1        0.2211
      6 N         137.9900   72.6750  222.0760 N.ar    1  UNL1       -0.1809
      7 C         139.2740   72.6170  222.5330 C.ar    1  UNL1        0.2240
      8 N         139.7880   71.4670  223.1920 N.pl3   1  UNL1       -0.2948
      9 C         139.2080   70.1720  223.0140 C.3     1  UNL1        0.0192
     10 C         138.8080   69.5210  224.2920 C.3     1  UNL1       -0.0115
     11 C         139.5250   70.0810  225.4480 C.ar    1  UNL1       -0.0412
     12 C         139.1930   69.6010  226.7020 C.ar    1  UNL1       -0.0582
     13 C         139.8040   70.0550  227.8620 C.ar    1  UNL1       -0.0615
     14 C         140.7760   71.0170  227.7640 C.ar    1  UNL1       -0.0614
     15 C         141.1380   71.5240  226.5400 C.ar    1  UNL1       -0.0568
     16 C         140.5020   71.0430  225.3920 C.ar    1  UNL1       -0.0269
     17 C         140.9310   71.6330  224.0730 C.3     1  UNL1        0.0402
     18 N         140.0810   73.6660  222.3560 N.ar    1  UNL1       -0.1807
     19 C         139.6460   74.7770  221.7330 C.ar    1  UNL1        0.2240
     20 N         140.5530   75.8630  221.5740 N.pl3   1  UNL1       -0.2948
     21 C         140.9850   76.2090  220.2340 C.3     1  UNL1        0.0192
     22 C         140.4170   77.6070  219.9690 C.3     1  UNL1       -0.0115
     23 C         141.1390   78.4860  220.9580 C.ar    1  UNL1       -0.0412
     24 C         141.4930   79.7720  220.5570 C.ar    1  UNL1       -0.0582
     25 C         142.1610   80.5940  221.4660 C.ar    1  UNL1       -0.0615
     26 C         142.4570   80.1180  222.7340 C.ar    1  UNL1       -0.0614
     27 C         142.0970   78.8260  223.1270 C.ar    1  UNL1       -0.0568
     28 C         141.4350   78.0180  222.2230 C.ar    1  UNL1       -0.0269
     29 C         141.0620   76.6370  222.6680 C.3     1  UNL1        0.0402
     30 N         138.3800   74.8250  221.2860 N.ar    1  UNL1       -0.1809
     31 C         135.9450   76.2490  223.4600 C.3     1  UNL1        0.0159
     32 N         136.5870   77.0670  222.4810 N.3     1  UNL1       -0.2963
     33 C         135.7670   78.0230  221.8430 C.3     1  UNL1        0.0033
     34 C         136.6120   78.9600  221.0070 C.3     1  UNL1       -0.0146
     35 C         137.4800   79.6850  221.9750 C.ar    1  UNL1       -0.0418
     36 C         137.6190   81.0420  222.0140 C.ar    1  UNL1       -0.0582
     37 C         138.4610   81.6030  222.9620 C.ar    1  UNL1       -0.0615
     38 C         139.1560   80.7900  223.8630 C.ar    1  UNL1       -0.0614
     39 C         139.0210   79.4060  223.8330 C.ar    1  UNL1       -0.0571
     40 C         138.1770   78.8740  222.8790 C.ar    1  UNL1       -0.0302
     41 C         137.9410   77.4120  222.7380 C.3     1  UNL1        0.0244
     42 H         135.2970   72.9860  222.9450 H       1  UNL1        0.1186
     43 H         136.7490   73.8100  223.4950 H       1  UNL1        0.1186
     44 H         134.1465   75.1618  223.1667 H       1  UNL1        0.0486
     45 H         134.4755   75.0909  220.8772 H       1  UNL1        0.0478
     46 H         136.0573   75.9381  221.1418 H       1  UNL1        0.0478
     47 H         135.7450   73.1300  220.3580 H       1  UNL1        0.1490
     48 H         138.3145   70.2745  222.3806 H       1  UNL1        0.0468
     49 H         139.9754   69.5339  222.5515 H       1  UNL1        0.0468
     50 H         137.7278   69.6660  224.4407 H       1  UNL1        0.0328
     51 H         139.0621   68.4531  224.2215 H       1  UNL1        0.0328
     52 H         138.4138   68.8288  226.7828 H       1  UNL1        0.0620
     53 H         139.5138   69.6503  228.8428 H       1  UNL1        0.0618
     54 H         141.2707   71.3863  228.6745 H       1  UNL1        0.0618
     55 H         141.9168   72.2971  226.4642 H       1  UNL1        0.0621
     56 H         141.1771   72.6988  224.1890 H       1  UNL1        0.0514
     57 H         141.8312   71.1411  223.6758 H       1  UNL1        0.0514
     58 H         142.0834   76.2229  220.1758 H       1  UNL1        0.0468
     59 H         140.6339   75.4782  219.4906 H       1  UNL1        0.0468
     60 H         140.6264   77.9252  218.9371 H       1  UNL1        0.0328
     61 H         139.3238   77.6491  220.0836 H       1  UNL1        0.0328
     62 H         141.2514   80.1320  219.5460 H       1  UNL1        0.0620
     63 H         142.4513   81.6150  221.1776 H       1  UNL1        0.0618
     64 H         142.9857   80.7701  223.4448 H       1  UNL1        0.0618
     65 H         142.3361   78.4597  224.1363 H       1  UNL1        0.0621
     66 H         141.9530   76.1383  223.0772 H       1  UNL1        0.0514
     67 H         140.2775   76.7166  223.4350 H       1  UNL1        0.0514
     68 H         135.2252   76.8715  224.0117 H       1  UNL1        0.0442
     69 H         136.7392   75.8443  224.1045 H       1  UNL1        0.0442
     70 H         135.0450   77.5069  221.1931 H       1  UNL1        0.0430
     71 H         135.2330   78.6062  222.6077 H       1  UNL1        0.0430
     72 H         137.2250   78.3907  220.2928 H       1  UNL1        0.0326
     73 H         135.9921   79.6518  220.4178 H       1  UNL1        0.0326
     74 H         137.0719   81.6805  221.3048 H       1  UNL1        0.0620
     75 H         138.5832   82.6953  223.0057 H       1  UNL1        0.0618
     76 H         139.8204   81.2527  224.6077 H       1  UNL1        0.0618
     77 H         139.5643   78.7620  224.5402 H       1  UNL1        0.0621
     78 H         138.5564   77.0411  221.9051 H       1  UNL1        0.0476
     79 H         138.2092   76.9522  223.7007 H       1  UNL1        0.0476
@<TRIPOS>BOND
     1     1     2    1
     2     2     3    1
     3     3     4    1
     4     4     5    1
     5     5     6   ar
     6     6     7   ar
     7     7     8    1
     8     8     9    1
     9     9    10    1
    10    10    11    1
    11    11    12   ar
    12    12    13   ar
    13    13    14   ar
    14    14    15   ar
    15    15    16   ar
    16    16    17    1
    17     7    18   ar
    18    18    19   ar
    19    19    20    1
    20    20    21    1
    21    21    22    1
    22    22    23    1
    23    23    24   ar
    24    24    25   ar
    25    25    26   ar
    26    26    27   ar
    27    27    28   ar
    28    28    29    1
    29    19    30   ar
    30     2    31    1
    31    31    32    1
    32    32    33    1
    33    33    34    1
    34    34    35    1
    35    35    36   ar
    36    36    37   ar
    37    37    38   ar
    38    38    39   ar
    39    39    40   ar
    40    40    41    1
    41    30     5   ar
    42    41    32    1
    43    17     8    1
    44    29    20    1
    45    40    35   ar
    46    16    11   ar
    47    28    23   ar
    48     1    42    1
    49     1    43    1
    50     2    44    1
    51     3    45    1
    52     3    46    1
    53     4    47    1
    54     9    48    1
    55     9    49    1
    56    10    50    1
    57    10    51    1
    58    12    52    1
    59    13    53    1
    60    14    54    1
    61    15    55    1
    62    17    56    1
    63    17    57    1
    64    21    58    1
    65    21    59    1
    66    22    60    1
    67    22    61    1
    68    24    62    1
    69    25    63    1
    70    26    64    1
    71    27    65    1
    72    29    66    1
    73    29    67    1
    74    31    68    1
    75    31    69    1
    76    33    70    1
    77    33    71    1
    78    34    72    1
    79    34    73    1
    80    36    74    1
    81    37    75    1
    82    38    76    1
    83    39    77    1
    84    41    78    1
    85    41    79    1
