
     RDKit          3D

 69 74  0  0  0  0  0  0  0  0999 V2000
  146.2520   73.2210  217.6600 O   0  0  0  0  0  0  0  0  0  0  0  0
  145.3790   72.3980  218.3580 C   0  0  0  0  0  0  0  0  0  0  0  0
  145.5310   71.0230  218.1880 C   0  0  0  0  0  0  0  0  0  0  0  0
  144.6880   70.1650  218.8610 C   0  0  0  0  0  0  0  0  0  0  0  0
  143.6900   70.6200  219.7020 C   0  0  0  0  0  0  0  0  0  0  0  0
  143.5740   71.9880  219.8400 C   0  0  0  0  0  0  0  0  0  0  0  0
  142.5350   72.5160  220.7190 C   0  0  0  0  0  0  0  0  0  0  0  0
  142.0530   73.7630  220.5380 N   0  0  0  0  0  0  0  0  0  0  0  0
  141.0940   74.2770  221.3310 C   0  0  0  0  0  0  0  0  0  0  0  0
  140.5540   75.5660  221.1910 N   0  0  0  0  0  0  0  0  0  0  0  0
  140.6030   76.3140  219.9520 C   0  0  0  0  0  0  0  0  0  0  0  0
  140.5010   77.8060  220.1970 C   0  0  0  0  0  0  0  0  0  0  0  0
  141.1950   78.2100  221.4710 C   0  0  0  0  0  0  0  0  0  0  0  0
  141.0120   79.6240  221.6660 N   0  0  0  0  0  0  0  0  0  0  0  0
  141.3210   80.4090  220.4860 C   0  0  0  0  0  0  0  0  0  0  0  0
  140.7350   81.7970  220.7780 C   0  0  0  0  0  0  0  0  0  0  0  0
  141.4350   82.3790  221.9800 C   0  0  0  0  0  0  0  0  0  0  0  0
  141.4330   81.4410  223.1510 C   0  0  0  0  0  0  0  0  0  0  0  0
  141.9260   80.0900  222.6930 C   0  0  0  0  0  0  0  0  0  0  0  0
  140.7630   77.4220  222.6720 C   0  0  0  0  0  0  0  0  0  0  0  0
  139.9010   76.2270  222.3210 C   0  0  0  0  0  0  0  0  0  0  0  0
  140.6200   73.4990  222.3300 N   0  0  0  0  0  0  0  0  0  0  0  0
  141.0640   72.2520  222.5560 C   0  0  0  0  0  0  0  0  0  0  0  0
  140.5370   71.4690  223.6170 N   0  0  0  0  0  0  0  0  0  0  0  0
  139.1570   71.0390  223.5140 C   0  0  0  0  0  0  0  0  0  0  0  0
  139.0650   69.6690  224.1540 C   0  0  0  0  0  0  0  0  0  0  0  0
  139.4720   69.8230  225.5750 C   0  0  0  0  0  0  0  0  0  0  0  0
  138.7520   69.2660  226.6230 C   0  0  0  0  0  0  0  0  0  0  0  0
  139.1990   69.4580  227.9140 C   0  0  0  0  0  0  0  0  0  0  0  0
  140.3460   70.1890  228.1970 C   0  0  0  0  0  0  0  0  0  0  0  0
  141.0610   70.7410  227.1610 C   0  0  0  0  0  0  0  0  0  0  0  0
  140.6100   70.5490  225.8560 C   0  0  0  0  0  0  0  0  0  0  0  0
  141.3770   71.1420  224.7350 C   0  0  0  0  0  0  0  0  0  0  0  0
  142.0240   71.7900  221.7290 N   0  0  0  0  0  0  0  0  0  0  0  0
  144.3940   72.8870  219.1890 C   0  0  0  0  0  0  0  0  0  0  0  0
  146.0970   74.2160  217.5210 H   0  0  0  0  0  0  0  0  0  0  0  0
  146.3143   70.6274  217.5247 H   0  0  0  0  0  0  0  0  0  0  0  0
  144.8138   69.0808  218.7241 H   0  0  0  0  0  0  0  0  0  0  0  0
  143.0221   69.9268  220.2343 H   0  0  0  0  0  0  0  0  0  0  0  0
  141.5544   76.1000  219.4431 H   0  0  0  0  0  0  0  0  0  0  0  0
  139.7481   76.0079  219.3312 H   0  0  0  0  0  0  0  0  0  0  0  0
  140.9655   78.3383  219.3538 H   0  0  0  0  0  0  0  0  0  0  0  0
  139.4362   78.0664  220.2891 H   0  0  0  0  0  0  0  0  0  0  0  0
  142.2649   77.9792  221.3608 H   0  0  0  0  0  0  0  0  0  0  0  0
  142.4088   80.4710  220.3351 H   0  0  0  0  0  0  0  0  0  0  0  0
  140.9043   79.9653  219.5697 H   0  0  0  0  0  0  0  0  0  0  0  0
  140.8877   82.4528  219.9082 H   0  0  0  0  0  0  0  0  0  0  0  0
  139.6569   81.7119  220.9792 H   0  0  0  0  0  0  0  0  0  0  0  0
  142.4771   82.6029  221.7082 H   0  0  0  0  0  0  0  0  0  0  0  0
  140.8924   83.2886  222.2771 H   0  0  0  0  0  0  0  0  0  0  0  0
  142.0969   81.8297  223.9372 H   0  0  0  0  0  0  0  0  0  0  0  0
  140.4139   81.3497  223.5549 H   0  0  0  0  0  0  0  0  0  0  0  0
  142.9419   80.1796  222.2807 H   0  0  0  0  0  0  0  0  0  0  0  0
  141.9614   79.3820  223.5341 H   0  0  0  0  0  0  0  0  0  0  0  0
  141.6608   77.0637  223.1969 H   0  0  0  0  0  0  0  0  0  0  0  0
  140.1565   78.0899  223.3013 H   0  0  0  0  0  0  0  0  0  0  0  0
  139.8354   75.5402  223.1777 H   0  0  0  0  0  0  0  0  0  0  0  0
  138.8763   76.5350  222.0657 H   0  0  0  0  0  0  0  0  0  0  0  0
  138.5014   71.7466  224.0427 H   0  0  0  0  0  0  0  0  0  0  0  0
  138.8378   71.0005  222.4620 H   0  0  0  0  0  0  0  0  0  0  0  0
  138.0327   69.2937  224.0956 H   0  0  0  0  0  0  0  0  0  0  0  0
  139.7163   68.9499  223.6357 H   0  0  0  0  0  0  0  0  0  0  0  0
  137.8408   68.6816  226.4275 H   0  0  0  0  0  0  0  0  0  0  0  0
  138.6291   69.0183  228.7458 H   0  0  0  0  0  0  0  0  0  0  0  0
  140.6777   70.3243  229.2370 H   0  0  0  0  0  0  0  0  0  0  0  0
  141.9728   71.3238  227.3581 H   0  0  0  0  0  0  0  0  0  0  0  0
  141.8693   72.0599  225.0888 H   0  0  0  0  0  0  0  0  0  0  0  0
  142.1134   70.3976  224.3982 H   0  0  0  0  0  0  0  0  0  0  0  0
  144.2644   73.9702  219.3302 H   0  0  0  0  0  0  0  0  0  0  0  0
  1  2  1  0
  2  3  2  0
  3  4  1  0
  4  5  2  0
  5  6  1  0
  6  7  1  0
  7  8  2  0
  8  9  1  0
  9 10  1  0
 10 11  1  0
 11 12  1  0
 12 13  1  0
 13 14  1  0
 14 15  1  0
 15 16  1  0
 16 17  1  0
 17 18  1  0
 18 19  1  0
 13 20  1  0
 20 21  1  0
  9 22  2  0
 22 23  1  0
 23 24  1  0
 24 25  1  0
 25 26  1  0
 26 27  1  0
 27 28  2  0
 28 29  1  0
 29 30  2  0
 30 31  1  0
 31 32  2  0
 32 33  1  0
 23 34  2  0
  6 35  2  0
 35  2  1  0
 34  7  1  0
 21 10  1  0
 33 24  1  0
 19 14  1  0
 32 27  1  0
  1 36  1  0
  3 37  1  0
  4 38  1  0
  5 39  1  0
 11 40  1  0
 11 41  1  0
 12 42  1  0
 12 43  1  0
 13 44  1  0
 15 45  1  0
 15 46  1  0
 16 47  1  0
 16 48  1  0
 17 49  1  0
 17 50  1  0
 18 51  1  0
 18 52  1  0
 19 53  1  0
 19 54  1  0
 20 55  1  0
 20 56  1  0
 21 57  1  0
 21 58  1  0
 25 59  1  0
 25 60  1  0
 26 61  1  0
 26 62  1  0
 28 63  1  0
 29 64  1  0
 30 65  1  0
 31 66  1  0
 33 67  1  0
 33 68  1  0
 35 69  1  0
M  END
>  <smiles>  (1) 
Oc1cccc(-c2nc(N3CCC(N4CCCCC4)CC3)nc(N3CCc4ccccc4C3)n2)c1

>  <score_type>  (1) 
oracle

>  <origin>  (1) 
autodockgpu

>  <m_score__min__energy>  (1) 
-9.6799999999999997

>  <m_primary>  (1) 
energy

>  <rmsd>  (1) 
5.6496809194083175

>  <m_score__min__rmsd>  (1) 
5.6496809194083175

>  <meeko>  (1) 
{"free_energy": -9.58, "intermolecular_energy": -11.08, "internal_energy": -1.14, "cluster_size": 35, "cluster_id": 1, "rank_in_cluster": 4}

>  <energy>  (1) 
-9.68

>  <cluster_rmsd>  (1) 
0.0

>  <cluster>  (1) 
1

$$$$

     RDKit          3D

 69 74  0  0  0  0  0  0  0  0999 V2000
  143.6340   80.4920  222.8990 O   0  0  0  0  0  0  0  0  0  0  0  0
  142.2630   80.2760  222.9280 C   0  0  0  0  0  0  0  0  0  0  0  0
  141.4490   81.3890  223.1250 C   0  0  0  0  0  0  0  0  0  0  0  0
  140.0820   81.2250  223.1600 C   0  0  0  0  0  0  0  0  0  0  0  0
  139.4830   79.9890  223.0070 C   0  0  0  0  0  0  0  0  0  0  0  0
  140.3250   78.9130  222.8150 C   0  0  0  0  0  0  0  0  0  0  0  0
  139.7400   77.5870  222.6470 C   0  0  0  0  0  0  0  0  0  0  0  0
  138.4630   77.3510  223.0110 N   0  0  0  0  0  0  0  0  0  0  0  0
  137.8950   76.1380  222.8680 C   0  0  0  0  0  0  0  0  0  0  0  0
  136.5720   75.8330  223.2270 N   0  0  0  0  0  0  0  0  0  0  0  0
  135.6340   76.8260  223.7100 C   0  0  0  0  0  0  0  0  0  0  0  0
  134.5370   76.1960  224.5450 C   0  0  0  0  0  0  0  0  0  0  0  0
  135.0500   75.0340  225.3550 C   0  0  0  0  0  0  0  0  0  0  0  0
  133.9470   74.4550  226.0770 N   0  0  0  0  0  0  0  0  0  0  0  0
  133.6640   73.0870  225.6880 C   0  0  0  0  0  0  0  0  0  0  0  0
  132.7320   72.5560  226.7850 C   0  0  0  0  0  0  0  0  0  0  0  0
  131.4600   73.3650  226.7790 C   0  0  0  0  0  0  0  0  0  0  0  0
  131.7230   74.8420  226.8420 C   0  0  0  0  0  0  0  0  0  0  0  0
  132.7370   75.2010  225.7830 C   0  0  0  0  0  0  0  0  0  0  0  0
  135.7840   74.0080  224.5430 C   0  0  0  0  0  0  0  0  0  0  0  0
  136.0700   74.4630  223.1270 C   0  0  0  0  0  0  0  0  0  0  0  0
  138.6510   75.1470  222.3430 N   0  0  0  0  0  0  0  0  0  0  0  0
  139.9270   75.3270  221.9650 C   0  0  0  0  0  0  0  0  0  0  0  0
  140.6840   74.2580  221.4160 N   0  0  0  0  0  0  0  0  0  0  0  0
  140.1780   72.9120  221.6020 C   0  0  0  0  0  0  0  0  0  0  0  0
  140.5410   72.1220  220.3620 C   0  0  0  0  0  0  0  0  0  0  0  0
  142.0240   72.1270  220.2590 C   0  0  0  0  0  0  0  0  0  0  0  0
  142.7580   70.9780  219.9960 C   0  0  0  0  0  0  0  0  0  0  0  0
  144.1330   71.0700  219.9170 C   0  0  0  0  0  0  0  0  0  0  0  0
  144.8030   72.2750  220.0920 C   0  0  0  0  0  0  0  0  0  0  0  0
  144.0780   73.4130  220.3530 C   0  0  0  0  0  0  0  0  0  0  0  0
  142.6890   73.3220  220.4330 C   0  0  0  0  0  0  0  0  0  0  0  0
  141.9020   74.5460  220.7130 C   0  0  0  0  0  0  0  0  0  0  0  0
  140.4410   76.5620  222.1300 N   0  0  0  0  0  0  0  0  0  0  0  0
  141.7000   79.0270  222.7710 C   0  0  0  0  0  0  0  0  0  0  0  0
  144.2760   79.9560  222.3200 H   0  0  0  0  0  0  0  0  0  0  0  0
  141.8929   82.3875  223.2512 H   0  0  0  0  0  0  0  0  0  0  0  0
  139.4450   82.1083  223.3151 H   0  0  0  0  0  0  0  0  0  0  0  0
  138.3900   79.8691  223.0368 H   0  0  0  0  0  0  0  0  0  0  0  0
  136.1755   77.5590  224.3260 H   0  0  0  0  0  0  0  0  0  0  0  0
  135.1686   77.3123  222.8400 H   0  0  0  0  0  0  0  0  0  0  0  0
  134.1295   76.9549  225.2291 H   0  0  0  0  0  0  0  0  0  0  0  0
  133.7595   75.8215  223.8629 H   0  0  0  0  0  0  0  0  0  0  0  0
  135.8029   75.4178  226.0592 H   0  0  0  0  0  0  0  0  0  0  0  0
  133.1658   73.0574  224.7077 H   0  0  0  0  0  0  0  0  0  0  0  0
  134.5788   72.4839  225.5907 H   0  0  0  0  0  0  0  0  0  0  0  0
  132.4981   71.4988  226.5910 H   0  0  0  0  0  0  0  0  0  0  0  0
  133.2235   72.6418  227.7653 H   0  0  0  0  0  0  0  0  0  0  0  0
  130.9046   73.1438  225.8557 H   0  0  0  0  0  0  0  0  0  0  0  0
  130.8812   73.0881  227.6725 H   0  0  0  0  0  0  0  0  0  0  0  0
  130.7880   75.3921  226.6602 H   0  0  0  0  0  0  0  0  0  0  0  0
  132.1096   75.1108  227.8361 H   0  0  0  0  0  0  0  0  0  0  0  0
  132.3567   74.9255  224.7883 H   0  0  0  0  0  0  0  0  0  0  0  0
  132.9355   76.2829  225.7832 H   0  0  0  0  0  0  0  0  0  0  0  0
  136.7405   73.7876  225.0396 H   0  0  0  0  0  0  0  0  0  0  0  0
  135.1389   73.1194  224.4775 H   0  0  0  0  0  0  0  0  0  0  0  0
  136.8273   73.8131  222.6642 H   0  0  0  0  0  0  0  0  0  0  0  0
  135.1660   74.4141  222.5022 H   0  0  0  0  0  0  0  0  0  0  0  0
  140.6405   72.4547  222.4891 H   0  0  0  0  0  0  0  0  0  0  0  0
  139.0886   72.9218  221.7538 H   0  0  0  0  0  0  0  0  0  0  0  0
  140.1725   71.0894  220.4512 H   0  0  0  0  0  0  0  0  0  0  0  0
  140.0848   72.5683  219.4660 H   0  0  0  0  0  0  0  0  0  0  0  0
  142.2526   70.0115  219.8531 H   0  0  0  0  0  0  0  0  0  0  0  0
  144.7167   70.1611  219.7090 H   0  0  0  0  0  0  0  0  0  0  0  0
  145.9000   72.3174  220.0225 H   0  0  0  0  0  0  0  0  0  0  0  0
  144.5847   74.3788  220.4963 H   0  0  0  0  0  0  0  0  0  0  0  0
  142.5117   75.2271  221.3249 H   0  0  0  0  0  0  0  0  0  0  0  0
  141.6356   75.0043  219.7491 H   0  0  0  0  0  0  0  0  0  0  0  0
  142.3327   78.1410  222.6141 H   0  0  0  0  0  0  0  0  0  0  0  0
  1  2  1  0
  2  3  2  0
  3  4  1  0
  4  5  2  0
  5  6  1  0
  6  7  1  0
  7  8  2  0
  8  9  1  0
  9 10  1  0
 10 11  1  0
 11 12  1  0
 12 13  1  0
 13 14  1  0
 14 15  1  0
 15 16  1  0
 16 17  1  0
 17 18  1  0
 18 19  1  0
 13 20  1  0
 20 21  1  0
  9 22  2  0
 22 23  1  0
 23 24  1  0
 24 25  1  0
 25 26  1  0
 26 27  1  0
 27 28  2  0
 28 29  1  0
 29 30  2  0
 30 31  1  0
 31 32  2  0
 32 33  1  0
 23 34  2  0
  6 35  2  0
 35  2  1  0
 34  7  1  0
 21 10  1  0
 33 24  1  0
 19 14  1  0
 32 27  1  0
  1 36  1  0
  3 37  1  0
  4 38  1  0
  5 39  1  0
 11 40  1  0
 11 41  1  0
 12 42  1  0
 12 43  1  0
 13 44  1  0
 15 45  1  0
 15 46  1  0
 16 47  1  0
 16 48  1  0
 17 49  1  0
 17 50  1  0
 18 51  1  0
 18 52  1  0
 19 53  1  0
 19 54  1  0
 20 55  1  0
 20 56  1  0
 21 57  1  0
 21 58  1  0
 25 59  1  0
 25 60  1  0
 26 61  1  0
 26 62  1  0
 28 63  1  0
 29 64  1  0
 30 65  1  0
 31 66  1  0
 33 67  1  0
 33 68  1  0
 35 69  1  0
M  END
>  <smiles>  (2) 
Oc1cccc(-c2nc(N3CCC(N4CCCCC4)CC3)nc(N3CCc4ccccc4C3)n2)c1

>  <score_type>  (2) 
oracle

>  <origin>  (2) 
autodockgpu

>  <m_score__min__energy>  (2) 
-9.6799999999999997

>  <m_primary>  (2) 
energy

>  <rmsd>  (2) 
10.45394232429762

>  <m_score__min__rmsd>  (2) 
10.45394232429762

>  <meeko>  (2) 
{"free_energy": -8.58, "intermolecular_energy": -10.07, "internal_energy": -1.21, "cluster_size": 13, "cluster_id": 2, "rank_in_cluster": 11}

>  <energy>  (2) 
-9.65

>  <cluster_rmsd>  (2) 
0.16

>  <cluster>  (2) 
1

$$$$

     RDKit          3D

 69 74  0  0  0  0  0  0  0  0999 V2000
  146.2030   73.1240  218.1310 O   0  0  0  0  0  0  0  0  0  0  0  0
  145.2370   72.2970  218.6880 C   0  0  0  0  0  0  0  0  0  0  0  0
  145.3150   70.9390  218.3880 C   0  0  0  0  0  0  0  0  0  0  0  0
  144.3800   70.0780  218.9180 C   0  0  0  0  0  0  0  0  0  0  0  0
  143.3580   70.5140  219.7400 C   0  0  0  0  0  0  0  0  0  0  0  0
  143.3170   71.8660  220.0110 C   0  0  0  0  0  0  0  0  0  0  0  0
  142.2560   72.3740  220.8750 C   0  0  0  0  0  0  0  0  0  0  0  0
  141.6740   73.5640  220.6190 N   0  0  0  0  0  0  0  0  0  0  0  0
  140.6930   74.0580  221.3980 C   0  0  0  0  0  0  0  0  0  0  0  0
  140.0510   75.2880  221.1810 N   0  0  0  0  0  0  0  0  0  0  0  0
  140.7100   76.4310  220.5830 C   0  0  0  0  0  0  0  0  0  0  0  0
  140.0410   77.7310  220.9790 C   0  0  0  0  0  0  0  0  0  0  0  0
  139.5220   77.6830  222.3930 C   0  0  0  0  0  0  0  0  0  0  0  0
  138.8560   78.9260  222.6800 N   0  0  0  0  0  0  0  0  0  0  0  0
  139.3970   79.6110  223.8380 C   0  0  0  0  0  0  0  0  0  0  0  0
  138.8150   81.0280  223.7580 C   0  0  0  0  0  0  0  0  0  0  0  0
  137.3130   80.9460  223.8660 C   0  0  0  0  0  0  0  0  0  0  0  0
  136.7230   79.9710  222.8890 C   0  0  0  0  0  0  0  0  0  0  0  0
  137.4650   78.6610  223.0010 C   0  0  0  0  0  0  0  0  0  0  0  0
  138.6430   76.5010  222.6740 C   0  0  0  0  0  0  0  0  0  0  0  0
  138.6510   75.4740  221.5610 C   0  0  0  0  0  0  0  0  0  0  0  0
  140.3010   73.3200  222.4610 N   0  0  0  0  0  0  0  0  0  0  0  0
  140.8460   72.1300  222.7620 C   0  0  0  0  0  0  0  0  0  0  0  0
  140.4020   71.3870  223.8880 N   0  0  0  0  0  0  0  0  0  0  0  0
  139.2420   70.5340  223.7170 C   0  0  0  0  0  0  0  0  0  0  0  0
  139.4480   69.3160  224.5920 C   0  0  0  0  0  0  0  0  0  0  0  0
  139.5550   69.7980  225.9940 C   0  0  0  0  0  0  0  0  0  0  0  0
  138.8660   69.2040  227.0430 C   0  0  0  0  0  0  0  0  0  0  0  0
  139.0210   69.7150  228.3150 C   0  0  0  0  0  0  0  0  0  0  0  0
  139.8440   70.8030  228.5790 C   0  0  0  0  0  0  0  0  0  0  0  0
  140.5270   71.3930  227.5420 C   0  0  0  0  0  0  0  0  0  0  0  0
  140.3720   70.8790  226.2550 C   0  0  0  0  0  0  0  0  0  0  0  0
  141.1060   71.5090  225.1330 C   0  0  0  0  0  0  0  0  0  0  0  0
  141.8230   71.6850  221.9460 N   0  0  0  0  0  0  0  0  0  0  0  0
  144.2310   72.7680  219.5050 C   0  0  0  0  0  0  0  0  0  0  0  0
  146.1380   74.1390  218.1230 H   0  0  0  0  0  0  0  0  0  0  0  0
  146.1144   70.5586  217.7351 H   0  0  0  0  0  0  0  0  0  0  0  0
  144.4489   69.0065  218.6789 H   0  0  0  0  0  0  0  0  0  0  0  0
  142.6150   69.8182  220.1570 H   0  0  0  0  0  0  0  0  0  0  0  0
  141.7582   76.4531  220.9159 H   0  0  0  0  0  0  0  0  0  0  0  0
  140.6470   76.3310  219.4894 H   0  0  0  0  0  0  0  0  0  0  0  0
  140.7725   78.5482  220.8954 H   0  0  0  0  0  0  0  0  0  0  0  0
  139.1868   77.8959  220.3058 H   0  0  0  0  0  0  0  0  0  0  0  0
  140.3820   77.5519  223.0662 H   0  0  0  0  0  0  0  0  0  0  0  0
  139.0803   79.1132  224.7664 H   0  0  0  0  0  0  0  0  0  0  0  0
  140.4970   79.6122  223.8451 H   0  0  0  0  0  0  0  0  0  0  0  0
  139.2118   81.6373  224.5834 H   0  0  0  0  0  0  0  0  0  0  0  0
  139.0950   81.4924  222.8010 H   0  0  0  0  0  0  0  0  0  0  0  0
  137.0486   80.6287  224.8855 H   0  0  0  0  0  0  0  0  0  0  0  0
  136.9047   81.9411  223.6358 H   0  0  0  0  0  0  0  0  0  0  0  0
  135.6590   79.8142  223.1200 H   0  0  0  0  0  0  0  0  0  0  0  0
  136.8135   80.3656  221.8662 H   0  0  0  0  0  0  0  0  0  0  0  0
  137.3829   78.2679  224.0251 H   0  0  0  0  0  0  0  0  0  0  0  0
  137.0418   77.9129  222.3146 H   0  0  0  0  0  0  0  0  0  0  0  0
  138.9920   76.0176  223.5984 H   0  0  0  0  0  0  0  0  0  0  0  0
  137.6125   76.8745  222.7669 H   0  0  0  0  0  0  0  0  0  0  0  0
  138.2239   74.5246  221.9163 H   0  0  0  0  0  0  0  0  0  0  0  0
  138.0465   75.8087  220.7051 H   0  0  0  0  0  0  0  0  0  0  0  0
  138.3319   71.0695  224.0250 H   0  0  0  0  0  0  0  0  0  0  0  0
  139.1246   70.2418  222.6630 H   0  0  0  0  0  0  0  0  0  0  0  0
  138.5930   68.6311  224.4927 H   0  0  0  0  0  0  0  0  0  0  0  0
  140.3556   68.7699  224.2954 H   0  0  0  0  0  0  0  0  0  0  0  0
  138.2081   68.3410  226.8629 H   0  0  0  0  0  0  0  0  0  0  0  0
  138.4755   69.2460  229.1471 H   0  0  0  0  0  0  0  0  0  0  0  0
  139.9477   71.1873  229.6045 H   0  0  0  0  0  0  0  0  0  0  0  0
  141.1845   72.2558  227.7244 H   0  0  0  0  0  0  0  0  0  0  0  0
  141.2471   72.5767  225.3570 H   0  0  0  0  0  0  0  0  0  0  0  0
  142.0708   70.9912  225.0275 H   0  0  0  0  0  0  0  0  0  0  0  0
  144.1586   73.8384  219.7480 H   0  0  0  0  0  0  0  0  0  0  0  0
  1  2  1  0
  2  3  2  0
  3  4  1  0
  4  5  2  0
  5  6  1  0
  6  7  1  0
  7  8  2  0
  8  9  1  0
  9 10  1  0
 10 11  1  0
 11 12  1  0
 12 13  1  0
 13 14  1  0
 14 15  1  0
 15 16  1  0
 16 17  1  0
 17 18  1  0
 18 19  1  0
 13 20  1  0
 20 21  1  0
  9 22  2  0
 22 23  1  0
 23 24  1  0
 24 25  1  0
 25 26  1  0
 26 27  1  0
 27 28  2  0
 28 29  1  0
 29 30  2  0
 30 31  1  0
 31 32  2  0
 32 33  1  0
 23 34  2  0
  6 35  2  0
 35  2  1  0
 34  7  1  0
 21 10  1  0
 33 24  1  0
 19 14  1  0
 32 27  1  0
  1 36  1  0
  3 37  1  0
  4 38  1  0
  5 39  1  0
 11 40  1  0
 11 41  1  0
 12 42  1  0
 12 43  1  0
 13 44  1  0
 15 45  1  0
 15 46  1  0
 16 47  1  0
 16 48  1  0
 17 49  1  0
 17 50  1  0
 18 51  1  0
 18 52  1  0
 19 53  1  0
 19 54  1  0
 20 55  1  0
 20 56  1  0
 21 57  1  0
 21 58  1  0
 25 59  1  0
 25 60  1  0
 26 61  1  0
 26 62  1  0
 28 63  1  0
 29 64  1  0
 30 65  1  0
 31 66  1  0
 33 67  1  0
 33 68  1  0
 35 69  1  0
M  END
>  <smiles>  (3) 
Oc1cccc(-c2nc(N3CCC(N4CCCCC4)CC3)nc(N3CCc4ccccc4C3)n2)c1

>  <score_type>  (3) 
oracle

>  <origin>  (3) 
autodockgpu

>  <m_score__min__energy>  (3) 
-9.6799999999999997

>  <m_primary>  (3) 
energy

>  <rmsd>  (3) 
5.953134520248942

>  <m_score__min__rmsd>  (3) 
5.953134520248942

>  <meeko>  (3) 
{"free_energy": -9.27, "intermolecular_energy": -10.77, "internal_energy": -1.17, "cluster_size": 35, "cluster_id": 1, "rank_in_cluster": 25}

>  <energy>  (3) 
-9.61

>  <cluster_rmsd>  (3) 
0.15

>  <cluster>  (3) 
1

$$$$

     RDKit          3D

 69 74  0  0  0  0  0  0  0  0999 V2000
  146.3060   73.1260  218.4690 O   0  0  0  0  0  0  0  0  0  0  0  0
  145.1940   72.3680  218.8100 C   0  0  0  0  0  0  0  0  0  0  0  0
  145.0890   71.1030  218.2370 C   0  0  0  0  0  0  0  0  0  0  0  0
  144.0040   70.3120  218.5450 C   0  0  0  0  0  0  0  0  0  0  0  0
  143.0070   70.7310  219.4060 C   0  0  0  0  0  0  0  0  0  0  0  0
  143.1490   71.9920  219.9500 C   0  0  0  0  0  0  0  0  0  0  0  0
  142.1220   72.4780  220.8650 C   0  0  0  0  0  0  0  0  0  0  0  0
  141.5300   73.6730  220.6590 N   0  0  0  0  0  0  0  0  0  0  0  0
  140.5790   74.1480  221.4860 C   0  0  0  0  0  0  0  0  0  0  0  0
  139.9290   75.3820  221.3230 N   0  0  0  0  0  0  0  0  0  0  0  0
  140.6260   76.6030  220.9720 C   0  0  0  0  0  0  0  0  0  0  0  0
  139.8550   77.8310  221.4150 C   0  0  0  0  0  0  0  0  0  0  0  0
  139.1350   77.5970  222.7170 C   0  0  0  0  0  0  0  0  0  0  0  0
  138.3850   78.7810  223.0460 N   0  0  0  0  0  0  0  0  0  0  0  0
  137.7480   79.3930  221.8950 C   0  0  0  0  0  0  0  0  0  0  0  0
  136.7430   80.3870  222.4900 C   0  0  0  0  0  0  0  0  0  0  0  0
  137.4950   81.4310  223.2760 C   0  0  0  0  0  0  0  0  0  0  0  0
  138.4400   80.8240  224.2730 C   0  0  0  0  0  0  0  0  0  0  0  0
  139.2860   79.7890  223.5730 C   0  0  0  0  0  0  0  0  0  0  0  0
  138.2700   76.3720  222.7180 C   0  0  0  0  0  0  0  0  0  0  0  0
  138.4820   75.4910  221.5040 C   0  0  0  0  0  0  0  0  0  0  0  0
  140.2280   73.3850  222.5450 N   0  0  0  0  0  0  0  0  0  0  0  0
  140.7840   72.1880  222.7980 C   0  0  0  0  0  0  0  0  0  0  0  0
  140.3830   71.4190  223.9220 N   0  0  0  0  0  0  0  0  0  0  0  0
  139.2760   70.4990  223.7480 C   0  0  0  0  0  0  0  0  0  0  0  0
  139.5530   69.2940  224.6220 C   0  0  0  0  0  0  0  0  0  0  0  0
  139.6290   69.7800  226.0250 C   0  0  0  0  0  0  0  0  0  0  0  0
  138.9740   69.1450  227.0710 C   0  0  0  0  0  0  0  0  0  0  0  0
  139.0960   69.6620  228.3450 C   0  0  0  0  0  0  0  0  0  0  0  0
  139.8530   70.7960  228.6110 C   0  0  0  0  0  0  0  0  0  0  0  0
  140.5020   71.4270  227.5760 C   0  0  0  0  0  0  0  0  0  0  0  0
  140.3790   70.9060  226.2890 C   0  0  0  0  0  0  0  0  0  0  0  0
  141.0760   71.5810  225.1690 C   0  0  0  0  0  0  0  0  0  0  0  0
  141.7290   71.7640  221.9360 N   0  0  0  0  0  0  0  0  0  0  0  0
  144.2180   72.8190  219.6730 C   0  0  0  0  0  0  0  0  0  0  0  0
  146.3120   74.1430  218.4550 H   0  0  0  0  0  0  0  0  0  0  0  0
  145.8639   70.7395  217.5461 H   0  0  0  0  0  0  0  0  0  0  0  0
  143.9284   69.3132  218.0904 H   0  0  0  0  0  0  0  0  0  0  0  0
  142.1442   70.0921  219.6456 H   0  0  0  0  0  0  0  0  0  0  0  0
  141.6117   76.6047  221.4602 H   0  0  0  0  0  0  0  0  0  0  0  0
  140.7305   76.6378  219.8775 H   0  0  0  0  0  0  0  0  0  0  0  0
  140.5585   78.6670  221.5419 H   0  0  0  0  0  0  0  0  0  0  0  0
  139.1043   78.0610  220.6445 H   0  0  0  0  0  0  0  0  0  0  0  0
  139.8908   77.4008  223.4918 H   0  0  0  0  0  0  0  0  0  0  0  0
  138.4897   79.9162  221.2736 H   0  0  0  0  0  0  0  0  0  0  0  0
  137.2637   78.6508  221.2433 H   0  0  0  0  0  0  0  0  0  0  0  0
  136.1783   80.8709  221.6794 H   0  0  0  0  0  0  0  0  0  0  0  0
  136.0414   79.8568  223.1509 H   0  0  0  0  0  0  0  0  0  0  0  0
  138.0715   82.0535  222.5759 H   0  0  0  0  0  0  0  0  0  0  0  0
  136.7578   82.0287  223.8322 H   0  0  0  0  0  0  0  0  0  0  0  0
  139.0873   81.6077  224.6936 H   0  0  0  0  0  0  0  0  0  0  0  0
  137.8714   80.3529  225.0883 H   0  0  0  0  0  0  0  0  0  0  0  0
  139.8500   80.2561  222.7522 H   0  0  0  0  0  0  0  0  0  0  0  0
  140.0085   79.3398  224.2702 H   0  0  0  0  0  0  0  0  0  0  0  0
  138.4966   75.7847  223.6201 H   0  0  0  0  0  0  0  0  0  0  0  0
  137.2236   76.7106  222.6976 H   0  0  0  0  0  0  0  0  0  0  0  0
  138.0435   74.4966  221.6739 H   0  0  0  0  0  0  0  0  0  0  0  0
  137.9987   75.9165  220.6122 H   0  0  0  0  0  0  0  0  0  0  0  0
  138.3352   70.9791  224.0553 H   0  0  0  0  0  0  0  0  0  0  0  0
  139.1775   70.2019  222.6935 H   0  0  0  0  0  0  0  0  0  0  0  0
  138.7405   68.5595  224.5206 H   0  0  0  0  0  0  0  0  0  0  0  0
  140.4919   68.8032  224.3262 H   0  0  0  0  0  0  0  0  0  0  0  0
  138.3682   68.2453  226.8879 H   0  0  0  0  0  0  0  0  0  0  0  0
  138.5776   69.1604  229.1755 H   0  0  0  0  0  0  0  0  0  0  0  0
  139.9323   71.1844  229.6371 H   0  0  0  0  0  0  0  0  0  0  0  0
  141.1074   72.3268  227.7603 H   0  0  0  0  0  0  0  0  0  0  0  0
  141.1521   72.6548  225.3950 H   0  0  0  0  0  0  0  0  0  0  0  0
  142.0703   71.1222  225.0647 H   0  0  0  0  0  0  0  0  0  0  0  0
  144.2900   73.8166  220.1308 H   0  0  0  0  0  0  0  0  0  0  0  0
  1  2  1  0
  2  3  2  0
  3  4  1  0
  4  5  2  0
  5  6  1  0
  6  7  1  0
  7  8  2  0
  8  9  1  0
  9 10  1  0
 10 11  1  0
 11 12  1  0
 12 13  1  0
 13 14  1  0
 14 15  1  0
 15 16  1  0
 16 17  1  0
 17 18  1  0
 18 19  1  0
 13 20  1  0
 20 21  1  0
  9 22  2  0
 22 23  1  0
 23 24  1  0
 24 25  1  0
 25 26  1  0
 26 27  1  0
 27 28  2  0
 28 29  1  0
 29 30  2  0
 30 31  1  0
 31 32  2  0
 32 33  1  0
 23 34  2  0
  6 35  2  0
 35  2  1  0
 34  7  1  0
 21 10  1  0
 33 24  1  0
 19 14  1  0
 32 27  1  0
  1 36  1  0
  3 37  1  0
  4 38  1  0
  5 39  1  0
 11 40  1  0
 11 41  1  0
 12 42  1  0
 12 43  1  0
 13 44  1  0
 15 45  1  0
 15 46  1  0
 16 47  1  0
 16 48  1  0
 17 49  1  0
 17 50  1  0
 18 51  1  0
 18 52  1  0
 19 53  1  0
 19 54  1  0
 20 55  1  0
 20 56  1  0
 21 57  1  0
 21 58  1  0
 25 59  1  0
 25 60  1  0
 26 61  1  0
 26 62  1  0
 28 63  1  0
 29 64  1  0
 30 65  1  0
 31 66  1  0
 33 67  1  0
 33 68  1  0
 35 69  1  0
M  END
>  <smiles>  (4) 
Oc1cccc(-c2nc(N3CCC(N4CCCCC4)CC3)nc(N3CCc4ccccc4C3)n2)c1

>  <score_type>  (4) 
oracle

>  <origin>  (4) 
autodockgpu

>  <m_score__min__energy>  (4) 
-9.6799999999999997

>  <m_primary>  (4) 
energy

>  <rmsd>  (4) 
6.2745085064876

>  <m_score__min__rmsd>  (4) 
6.2745085064876

>  <meeko>  (4) 
{"free_energy": -9.44, "intermolecular_energy": -10.94, "internal_energy": -1.18, "cluster_size": 35, "cluster_id": 1, "rank_in_cluster": 12}

>  <energy>  (4) 
-9.58

>  <cluster_rmsd>  (4) 
0.21

>  <cluster>  (4) 
1

$$$$

     RDKit          3D

 69 74  0  0  0  0  0  0  0  0999 V2000
  146.3240   73.0770  218.6240 O   0  0  0  0  0  0  0  0  0  0  0  0
  145.1030   72.4270  218.7550 C   0  0  0  0  0  0  0  0  0  0  0  0
  144.8860   71.3170  217.9430 C   0  0  0  0  0  0  0  0  0  0  0  0
  143.6900   70.6380  218.0370 C   0  0  0  0  0  0  0  0  0  0  0  0
  142.6920   71.0220  218.9120 C   0  0  0  0  0  0  0  0  0  0  0  0
  142.9480   72.1270  219.6970 C   0  0  0  0  0  0  0  0  0  0  0  0
  141.9230   72.5700  220.6370 C   0  0  0  0  0  0  0  0  0  0  0  0
  141.2700   73.7340  220.4410 N   0  0  0  0  0  0  0  0  0  0  0  0
  140.3200   74.1680  221.2910 C   0  0  0  0  0  0  0  0  0  0  0  0
  139.6080   75.3690  221.1390 N   0  0  0  0  0  0  0  0  0  0  0  0
  140.1250   76.5100  220.4110 C   0  0  0  0  0  0  0  0  0  0  0  0
  139.4780   77.8020  220.8660 C   0  0  0  0  0  0  0  0  0  0  0  0
  139.1850   77.7880  222.3440 C   0  0  0  0  0  0  0  0  0  0  0  0
  138.5260   79.0190  222.6930 N   0  0  0  0  0  0  0  0  0  0  0  0
  139.1000   79.6650  223.8580 C   0  0  0  0  0  0  0  0  0  0  0  0
  138.5140   81.0830  223.8440 C   0  0  0  0  0  0  0  0  0  0  0  0
  137.0160   80.9930  223.9930 C   0  0  0  0  0  0  0  0  0  0  0  0
  136.3990   80.0520  222.9990 C   0  0  0  0  0  0  0  0  0  0  0  0
  137.1450   78.7400  223.0440 C   0  0  0  0  0  0  0  0  0  0  0  0
  138.4040   76.5900  222.7950 C   0  0  0  0  0  0  0  0  0  0  0  0
  138.2770   75.5250  221.7260 C   0  0  0  0  0  0  0  0  0  0  0  0
  140.0340   73.3960  222.3630 N   0  0  0  0  0  0  0  0  0  0  0  0
  140.6530   72.2290  222.6060 C   0  0  0  0  0  0  0  0  0  0  0  0
  140.3190   71.4480  223.7450 N   0  0  0  0  0  0  0  0  0  0  0  0
  139.2250   70.5060  223.6180 C   0  0  0  0  0  0  0  0  0  0  0  0
  139.5660   69.3040  224.4740 C   0  0  0  0  0  0  0  0  0  0  0  0
  139.6950   69.7880  225.8740 C   0  0  0  0  0  0  0  0  0  0  0  0
  139.1020   69.1370  226.9470 C   0  0  0  0  0  0  0  0  0  0  0  0
  139.2710   69.6530  228.2150 C   0  0  0  0  0  0  0  0  0  0  0  0
  140.0160   70.8020  228.4510 C   0  0  0  0  0  0  0  0  0  0  0  0
  140.6040   71.4490  227.3900 C   0  0  0  0  0  0  0  0  0  0  0  0
  140.4340   70.9290  226.1070 C   0  0  0  0  0  0  0  0  0  0  0  0
  141.0650   71.6210  224.9600 C   0  0  0  0  0  0  0  0  0  0  0  0
  141.5940   71.8450  221.7210 N   0  0  0  0  0  0  0  0  0  0  0  0
  144.1290   72.8390  219.6400 C   0  0  0  0  0  0  0  0  0  0  0  0
  146.4220   74.0880  218.5880 H   0  0  0  0  0  0  0  0  0  0  0  0
  145.6598   70.9858  217.2348 H   0  0  0  0  0  0  0  0  0  0  0  0
  143.5246   69.7611  217.3938 H   0  0  0  0  0  0  0  0  0  0  0  0
  141.7407   70.4738  218.9793 H   0  0  0  0  0  0  0  0  0  0  0  0
  141.2105   76.5769  220.5763 H   0  0  0  0  0  0  0  0  0  0  0  0
  139.8979   76.3688  219.3440 H   0  0  0  0  0  0  0  0  0  0  0  0
  140.1577   78.6382  220.6452 H   0  0  0  0  0  0  0  0  0  0  0  0
  138.5251   77.9163  220.3285 H   0  0  0  0  0  0  0  0  0  0  0  0
  140.1430   77.7078  222.8786 H   0  0  0  0  0  0  0  0  0  0  0  0
  138.8112   79.1348  224.7775 H   0  0  0  0  0  0  0  0  0  0  0  0
  140.1997   79.6684  223.8330 H   0  0  0  0  0  0  0  0  0  0  0  0
  138.9339   81.6645  224.6780 H   0  0  0  0  0  0  0  0  0  0  0  0
  138.7654   81.5812  222.8960 H   0  0  0  0  0  0  0  0  0  0  0  0
  136.7823   80.6384  225.0077 H   0  0  0  0  0  0  0  0  0  0  0  0
  136.5994   81.9946  223.8110 H   0  0  0  0  0  0  0  0  0  0  0  0
  135.3421   79.8854  223.2542 H   0  0  0  0  0  0  0  0  0  0  0  0
  136.4601   80.4825  221.9886 H   0  0  0  0  0  0  0  0  0  0  0  0
  137.0925   78.3112  224.0556 H   0  0  0  0  0  0  0  0  0  0  0  0
  136.7030   78.0153  222.3443 H   0  0  0  0  0  0  0  0  0  0  0  0
  138.9097   76.1511  223.6677 H   0  0  0  0  0  0  0  0  0  0  0  0
  137.3875   76.9339  223.0368 H   0  0  0  0  0  0  0  0  0  0  0  0
  137.9441   74.5761  222.1718 H   0  0  0  0  0  0  0  0  0  0  0  0
  137.5360   75.8102  220.9647 H   0  0  0  0  0  0  0  0  0  0  0  0
  138.2895   70.9656  223.9695 H   0  0  0  0  0  0  0  0  0  0  0  0
  139.0851   70.2099  222.5679 H   0  0  0  0  0  0  0  0  0  0  0  0
  138.7650   68.5530  224.4065 H   0  0  0  0  0  0  0  0  0  0  0  0
  140.5004   68.8333  224.1343 H   0  0  0  0  0  0  0  0  0  0  0  0
  138.5074   68.2252  226.7888 H   0  0  0  0  0  0  0  0  0  0  0  0
  138.8011   69.1387  229.0663 H   0  0  0  0  0  0  0  0  0  0  0  0
  140.1338   71.1890  229.4739 H   0  0  0  0  0  0  0  0  0  0  0  0
  141.1981   72.3608  227.5501 H   0  0  0  0  0  0  0  0  0  0  0  0
  141.1293   72.6956  225.1863 H   0  0  0  0  0  0  0  0  0  0  0  0
  142.0628   71.1834  224.8089 H   0  0  0  0  0  0  0  0  0  0  0  0
  144.2896   73.7150  220.2857 H   0  0  0  0  0  0  0  0  0  0  0  0
  1  2  1  0
  2  3  2  0
  3  4  1  0
  4  5  2  0
  5  6  1  0
  6  7  1  0
  7  8  2  0
  8  9  1  0
  9 10  1  0
 10 11  1  0
 11 12  1  0
 12 13  1  0
 13 14  1  0
 14 15  1  0
 15 16  1  0
 16 17  1  0
 17 18  1  0
 18 19  1  0
 13 20  1  0
 20 21  1  0
  9 22  2  0
 22 23  1  0
 23 24  1  0
 24 25  1  0
 25 26  1  0
 26 27  1  0
 27 28  2  0
 28 29  1  0
 29 30  2  0
 30 31  1  0
 31 32  2  0
 32 33  1  0
 23 34  2  0
  6 35  2  0
 35  2  1  0
 34  7  1  0
 21 10  1  0
 33 24  1  0
 19 14  1  0
 32 27  1  0
  1 36  1  0
  3 37  1  0
  4 38  1  0
  5 39  1  0
 11 40  1  0
 11 41  1  0
 12 42  1  0
 12 43  1  0
 13 44  1  0
 15 45  1  0
 15 46  1  0
 16 47  1  0
 16 48  1  0
 17 49  1  0
 17 50  1  0
 18 51  1  0
 18 52  1  0
 19 53  1  0
 19 54  1  0
 20 55  1  0
 20 56  1  0
 21 57  1  0
 21 58  1  0
 25 59  1  0
 25 60  1  0
 26 61  1  0
 26 62  1  0
 28 63  1  0
 29 64  1  0
 30 65  1  0
 31 66  1  0
 33 67  1  0
 33 68  1  0
 35 69  1  0
M  END
>  <smiles>  (5) 
Oc1cccc(-c2nc(N3CCC(N4CCCCC4)CC3)nc(N3CCc4ccccc4C3)n2)c1

>  <score_type>  (5) 
oracle

>  <origin>  (5) 
autodockgpu

>  <m_score__min__energy>  (5) 
-9.6799999999999997

>  <m_primary>  (5) 
energy

>  <rmsd>  (5) 
6.112639136586347

>  <m_score__min__rmsd>  (5) 
6.112639136586347

>  <meeko>  (5) 
{"free_energy": -9.35, "intermolecular_energy": -10.84, "internal_energy": -1.16, "cluster_size": 35, "cluster_id": 1, "rank_in_cluster": 21}

>  <energy>  (5) 
-9.56

>  <cluster_rmsd>  (5) 
0.2

>  <cluster>  (5) 
1

$$$$

     RDKit          3D

 69 74  0  0  0  0  0  0  0  0999 V2000
  146.6170   73.3790  219.3520 O   0  0  0  0  0  0  0  0  0  0  0  0
  145.3400   72.8490  219.2180 C   0  0  0  0  0  0  0  0  0  0  0  0
  145.1300   71.9590  218.1670 C   0  0  0  0  0  0  0  0  0  0  0  0
  143.8810   71.4060  217.9930 C   0  0  0  0  0  0  0  0  0  0  0  0
  142.8200   71.7030  218.8270 C   0  0  0  0  0  0  0  0  0  0  0  0
  143.0710   72.5890  219.8550 C   0  0  0  0  0  0  0  0  0  0  0  0
  141.9820   72.9340  220.7630 C   0  0  0  0  0  0  0  0  0  0  0  0
  141.2980   74.0860  220.6080 N   0  0  0  0  0  0  0  0  0  0  0  0
  140.2890   74.4300  221.4300 C   0  0  0  0  0  0  0  0  0  0  0  0
  139.5420   75.6150  221.3180 N   0  0  0  0  0  0  0  0  0  0  0  0
  140.0980   76.8570  220.8200 C   0  0  0  0  0  0  0  0  0  0  0  0
  139.3230   78.0560  221.3240 C   0  0  0  0  0  0  0  0  0  0  0  0
  138.8180   77.8440  222.7280 C   0  0  0  0  0  0  0  0  0  0  0  0
  138.0490   78.9960  223.1190 N   0  0  0  0  0  0  0  0  0  0  0  0
  137.5330   79.7490  221.9920 C   0  0  0  0  0  0  0  0  0  0  0  0
  136.4820   80.6870  222.5990 C   0  0  0  0  0  0  0  0  0  0  0  0
  137.1620   81.6180  223.5710 C   0  0  0  0  0  0  0  0  0  0  0  0
  137.9990   80.8820  224.5760 C   0  0  0  0  0  0  0  0  0  0  0  0
  138.9020   79.9180  223.8450 C   0  0  0  0  0  0  0  0  0  0  0  0
  138.0450   76.5720  222.9060 C   0  0  0  0  0  0  0  0  0  0  0  0
  138.1340   75.6470  221.7100 C   0  0  0  0  0  0  0  0  0  0  0  0
  139.9730   73.5780  222.4310 N   0  0  0  0  0  0  0  0  0  0  0  0
  140.6210   72.4180  222.6310 C   0  0  0  0  0  0  0  0  0  0  0  0
  140.2540   71.5520  223.6950 N   0  0  0  0  0  0  0  0  0  0  0  0
  139.0600   70.7470  223.5270 C   0  0  0  0  0  0  0  0  0  0  0  0
  139.3060   69.4270  224.2280 C   0  0  0  0  0  0  0  0  0  0  0  0
  139.5480   69.7330  225.6630 C   0  0  0  0  0  0  0  0  0  0  0  0
  138.9350   69.0280  226.6900 C   0  0  0  0  0  0  0  0  0  0  0  0
  139.2140   69.3770  227.9960 C   0  0  0  0  0  0  0  0  0  0  0  0
  140.0880   70.4100  228.3130 C   0  0  0  0  0  0  0  0  0  0  0  0
  140.6950   71.1090  227.2970 C   0  0  0  0  0  0  0  0  0  0  0  0
  140.4140   70.7590  225.9780 C   0  0  0  0  0  0  0  0  0  0  0  0
  141.0660   71.5080  224.8780 C   0  0  0  0  0  0  0  0  0  0  0  0
  141.6210   72.1260  221.7770 N   0  0  0  0  0  0  0  0  0  0  0  0
  144.3050   73.1680  220.0710 C   0  0  0  0  0  0  0  0  0  0  0  0
  146.8170   74.3760  219.3300 H   0  0  0  0  0  0  0  0  0  0  0  0
  145.9527   71.7009  217.4839 H   0  0  0  0  0  0  0  0  0  0  0  0
  143.7224   70.7036  217.1614 H   0  0  0  0  0  0  0  0  0  0  0  0
  141.8259   71.2560  218.6791 H   0  0  0  0  0  0  0  0  0  0  0  0
  141.1424   76.9404  221.1551 H   0  0  0  0  0  0  0  0  0  0  0  0
  140.0377   76.8451  219.7217 H   0  0  0  0  0  0  0  0  0  0  0  0
  139.9816   78.9370  221.3114 H   0  0  0  0  0  0  0  0  0  0  0  0
  138.4540   78.2036  220.6659 H   0  0  0  0  0  0  0  0  0  0  0  0
  139.6904   77.7310  223.3884 H   0  0  0  0  0  0  0  0  0  0  0  0
  138.3362   80.3261  221.5106 H   0  0  0  0  0  0  0  0  0  0  0  0
  137.1091   79.0965  221.2145 H   0  0  0  0  0  0  0  0  0  0  0  0
  136.0039   81.2724  221.7998 H   0  0  0  0  0  0  0  0  0  0  0  0
  135.7141   80.0980  223.1219 H   0  0  0  0  0  0  0  0  0  0  0  0
  137.8096   82.3058  223.0075 H   0  0  0  0  0  0  0  0  0  0  0  0
  136.3787   82.1614  224.1197 H   0  0  0  0  0  0  0  0  0  0  0  0
  138.6080   81.5991  225.1460 H   0  0  0  0  0  0  0  0  0  0  0  0
  137.3490   80.3308  225.2715 H   0  0  0  0  0  0  0  0  0  0  0  0
  139.5481   80.4656  223.1431 H   0  0  0  0  0  0  0  0  0  0  0  0
  139.5486   79.3771  224.5516 H   0  0  0  0  0  0  0  0  0  0  0  0
  138.4393   76.0437  223.7866 H   0  0  0  0  0  0  0  0  0  0  0  0
  136.9870   76.8470  223.0283 H   0  0  0  0  0  0  0  0  0  0  0  0
  137.7919   74.6378  221.9831 H   0  0  0  0  0  0  0  0  0  0  0  0
  137.4978   75.9993  220.8847 H   0  0  0  0  0  0  0  0  0  0  0  0
  138.1955   71.2570  223.9769 H   0  0  0  0  0  0  0  0  0  0  0  0
  138.8440   70.5877  222.4602 H   0  0  0  0  0  0  0  0  0  0  0  0
  138.4262   68.7749  224.1243 H   0  0  0  0  0  0  0  0  0  0  0  0
  140.1683   68.9045  223.7880 H   0  0  0  0  0  0  0  0  0  0  0  0
  138.2392   68.2058  226.4669 H   0  0  0  0  0  0  0  0  0  0  0  0
  138.7294   68.8200  228.8114 H   0  0  0  0  0  0  0  0  0  0  0  0
  140.2914   70.6650  229.3635 H   0  0  0  0  0  0  0  0  0  0  0  0
  141.3909   71.9308  227.5215 H   0  0  0  0  0  0  0  0  0  0  0  0
  141.2567   72.5376  225.2151 H   0  0  0  0  0  0  0  0  0  0  0  0
  142.0024   70.9891  224.6253 H   0  0  0  0  0  0  0  0  0  0  0  0
  144.4593   73.8683  220.9051 H   0  0  0  0  0  0  0  0  0  0  0  0
  1  2  1  0
  2  3  2  0
  3  4  1  0
  4  5  2  0
  5  6  1  0
  6  7  1  0
  7  8  2  0
  8  9  1  0
  9 10  1  0
 10 11  1  0
 11 12  1  0
 12 13  1  0
 13 14  1  0
 14 15  1  0
 15 16  1  0
 16 17  1  0
 17 18  1  0
 18 19  1  0
 13 20  1  0
 20 21  1  0
  9 22  2  0
 22 23  1  0
 23 24  1  0
 24 25  1  0
 25 26  1  0
 26 27  1  0
 27 28  2  0
 28 29  1  0
 29 30  2  0
 30 31  1  0
 31 32  2  0
 32 33  1  0
 23 34  2  0
  6 35  2  0
 35  2  1  0
 34  7  1  0
 21 10  1  0
 33 24  1  0
 19 14  1  0
 32 27  1  0
  1 36  1  0
  3 37  1  0
  4 38  1  0
  5 39  1  0
 11 40  1  0
 11 41  1  0
 12 42  1  0
 12 43  1  0
 13 44  1  0
 15 45  1  0
 15 46  1  0
 16 47  1  0
 16 48  1  0
 17 49  1  0
 17 50  1  0
 18 51  1  0
 18 52  1  0
 19 53  1  0
 19 54  1  0
 20 55  1  0
 20 56  1  0
 21 57  1  0
 21 58  1  0
 25 59  1  0
 25 60  1  0
 26 61  1  0
 26 62  1  0
 28 63  1  0
 29 64  1  0
 30 65  1  0
 31 66  1  0
 33 67  1  0
 33 68  1  0
 35 69  1  0
M  END
>  <smiles>  (6) 
Oc1cccc(-c2nc(N3CCC(N4CCCCC4)CC3)nc(N3CCc4ccccc4C3)n2)c1

>  <score_type>  (6) 
oracle

>  <origin>  (6) 
autodockgpu

>  <m_score__min__energy>  (6) 
-9.6799999999999997

>  <m_primary>  (6) 
energy

>  <rmsd>  (6) 
6.516656288644153

>  <m_score__min__rmsd>  (6) 
6.516656288644153

>  <meeko>  (6) 
{"free_energy": -9.39, "intermolecular_energy": -10.88, "internal_energy": -1.16, "cluster_size": 35, "cluster_id": 1, "rank_in_cluster": 17}

>  <energy>  (6) 
-9.48

>  <cluster_rmsd>  (6) 
1.67

>  <cluster>  (6) 
1

$$$$

     RDKit          3D

 69 74  0  0  0  0  0  0  0  0999 V2000
  146.3080   73.1080  218.4920 O   0  0  0  0  0  0  0  0  0  0  0  0
  145.1870   72.3560  218.8230 C   0  0  0  0  0  0  0  0  0  0  0  0
  145.0730   71.0970  218.2380 C   0  0  0  0  0  0  0  0  0  0  0  0
  143.9800   70.3140  218.5350 C   0  0  0  0  0  0  0  0  0  0  0  0
  142.9840   70.7340  219.3970 C   0  0  0  0  0  0  0  0  0  0  0  0
  143.1360   71.9870  219.9530 C   0  0  0  0  0  0  0  0  0  0  0  0
  142.1110   72.4740  220.8700 C   0  0  0  0  0  0  0  0  0  0  0  0
  141.5140   73.6660  220.6620 N   0  0  0  0  0  0  0  0  0  0  0  0
  140.5640   74.1410  221.4900 C   0  0  0  0  0  0  0  0  0  0  0  0
  139.9090   75.3720  221.3240 N   0  0  0  0  0  0  0  0  0  0  0  0
  140.5960   76.5900  220.9450 C   0  0  0  0  0  0  0  0  0  0  0  0
  139.8330   77.8210  221.3860 C   0  0  0  0  0  0  0  0  0  0  0  0
  139.1370   77.6030  222.7050 C   0  0  0  0  0  0  0  0  0  0  0  0
  138.3910   78.7900  223.0330 N   0  0  0  0  0  0  0  0  0  0  0  0
  137.7910   79.4260  221.8760 C   0  0  0  0  0  0  0  0  0  0  0  0
  136.7810   80.4220  222.4610 C   0  0  0  0  0  0  0  0  0  0  0  0
  137.5240   81.4450  223.2830 C   0  0  0  0  0  0  0  0  0  0  0  0
  138.4360   80.8120  224.2940 C   0  0  0  0  0  0  0  0  0  0  0  0
  139.2890   79.7790  223.5990 C   0  0  0  0  0  0  0  0  0  0  0  0
  138.2740   76.3770  222.7370 C   0  0  0  0  0  0  0  0  0  0  0  0
  138.4650   75.4810  221.5310 C   0  0  0  0  0  0  0  0  0  0  0  0
  140.2200   73.3810  222.5540 N   0  0  0  0  0  0  0  0  0  0  0  0
  140.7810   72.1880  222.8090 C   0  0  0  0  0  0  0  0  0  0  0  0
  140.3870   71.4220  223.9390 N   0  0  0  0  0  0  0  0  0  0  0  0
  139.2950   70.4850  223.7680 C   0  0  0  0  0  0  0  0  0  0  0  0
  139.5850   69.2910  224.6530 C   0  0  0  0  0  0  0  0  0  0  0  0
  139.6490   69.7900  226.0530 C   0  0  0  0  0  0  0  0  0  0  0  0
  139.0000   69.1540  227.1020 C   0  0  0  0  0  0  0  0  0  0  0  0
  139.1110   69.6840  228.3720 C   0  0  0  0  0  0  0  0  0  0  0  0
  139.8500   70.8310  228.6310 C   0  0  0  0  0  0  0  0  0  0  0  0
  140.4940   71.4620  227.5930 C   0  0  0  0  0  0  0  0  0  0  0  0
  140.3830   70.9290  226.3100 C   0  0  0  0  0  0  0  0  0  0  0  0
  141.0740   71.6050  225.1860 C   0  0  0  0  0  0  0  0  0  0  0  0
  141.7250   71.7630  221.9460 N   0  0  0  0  0  0  0  0  0  0  0  0
  144.2130   72.8080  219.6870 C   0  0  0  0  0  0  0  0  0  0  0  0
  146.3400   74.1230  218.5450 H   0  0  0  0  0  0  0  0  0  0  0  0
  145.8472   70.7325  217.5468 H   0  0  0  0  0  0  0  0  0  0  0  0
  143.8964   69.3204  218.0706 H   0  0  0  0  0  0  0  0  0  0  0  0
  142.1145   70.1010  219.6277 H   0  0  0  0  0  0  0  0  0  0  0  0
  141.5908   76.5995  221.4144 H   0  0  0  0  0  0  0  0  0  0  0  0
  140.6786   76.6112  219.8483 H   0  0  0  0  0  0  0  0  0  0  0  0
  140.5378   78.6592  221.4891 H   0  0  0  0  0  0  0  0  0  0  0  0
  139.0678   78.0403  220.6268 H   0  0  0  0  0  0  0  0  0  0  0  0
  139.9073   77.4183  223.4682 H   0  0  0  0  0  0  0  0  0  0  0  0
  138.5540   79.9505  221.2821 H   0  0  0  0  0  0  0  0  0  0  0  0
  137.3162   78.6993  221.2003 H   0  0  0  0  0  0  0  0  0  0  0  0
  136.2428   80.9249  221.6441 H   0  0  0  0  0  0  0  0  0  0  0  0
  136.0566   79.8894  223.0947 H   0  0  0  0  0  0  0  0  0  0  0  0
  138.1253   82.0718  222.6080 H   0  0  0  0  0  0  0  0  0  0  0  0
  136.7792   82.0420  223.8297 H   0  0  0  0  0  0  0  0  0  0  0  0
  139.0803   81.5817  224.7439 H   0  0  0  0  0  0  0  0  0  0  0  0
  137.8415   80.3343  225.0867 H   0  0  0  0  0  0  0  0  0  0  0  0
  139.8789   80.2529  222.8006 H   0  0  0  0  0  0  0  0  0  0  0  0
  139.9887   79.3107  224.3069 H   0  0  0  0  0  0  0  0  0  0  0  0
  138.5178   75.8015  223.6422 H   0  0  0  0  0  0  0  0  0  0  0  0
  137.2270   76.7142  222.7310 H   0  0  0  0  0  0  0  0  0  0  0  0
  138.0317   74.4881  221.7219 H   0  0  0  0  0  0  0  0  0  0  0  0
  137.9643   75.8943  220.6430 H   0  0  0  0  0  0  0  0  0  0  0  0
  138.3460   70.9539  224.0672 H   0  0  0  0  0  0  0  0  0  0  0  0
  139.2060   70.1778  222.7155 H   0  0  0  0  0  0  0  0  0  0  0  0
  138.7829   68.5447  224.5547 H   0  0  0  0  0  0  0  0  0  0  0  0
  140.5316   68.8105  224.3648 H   0  0  0  0  0  0  0  0  0  0  0  0
  138.4079   68.2441  226.9248 H   0  0  0  0  0  0  0  0  0  0  0  0
  138.5977   69.1818  229.2053 H   0  0  0  0  0  0  0  0  0  0  0  0
  139.9192   71.2297  229.6539 H   0  0  0  0  0  0  0  0  0  0  0  0
  141.0864   72.3714  227.7720 H   0  0  0  0  0  0  0  0  0  0  0  0
  141.1337   72.6817  225.4030 H   0  0  0  0  0  0  0  0  0  0  0  0
  142.0754   71.1603  225.0885 H   0  0  0  0  0  0  0  0  0  0  0  0
  144.2922   73.8008  220.1541 H   0  0  0  0  0  0  0  0  0  0  0  0
  1  2  1  0
  2  3  2  0
  3  4  1  0
  4  5  2  0
  5  6  1  0
  6  7  1  0
  7  8  2  0
  8  9  1  0
  9 10  1  0
 10 11  1  0
 11 12  1  0
 12 13  1  0
 13 14  1  0
 14 15  1  0
 15 16  1  0
 16 17  1  0
 17 18  1  0
 18 19  1  0
 13 20  1  0
 20 21  1  0
  9 22  2  0
 22 23  1  0
 23 24  1  0
 24 25  1  0
 25 26  1  0
 26 27  1  0
 27 28  2  0
 28 29  1  0
 29 30  2  0
 30 31  1  0
 31 32  2  0
 32 33  1  0
 23 34  2  0
  6 35  2  0
 35  2  1  0
 34  7  1  0
 21 10  1  0
 33 24  1  0
 19 14  1  0
 32 27  1  0
  1 36  1  0
  3 37  1  0
  4 38  1  0
  5 39  1  0
 11 40  1  0
 11 41  1  0
 12 42  1  0
 12 43  1  0
 13 44  1  0
 15 45  1  0
 15 46  1  0
 16 47  1  0
 16 48  1  0
 17 49  1  0
 17 50  1  0
 18 51  1  0
 18 52  1  0
 19 53  1  0
 19 54  1  0
 20 55  1  0
 20 56  1  0
 21 57  1  0
 21 58  1  0
 25 59  1  0
 25 60  1  0
 26 61  1  0
 26 62  1  0
 28 63  1  0
 29 64  1  0
 30 65  1  0
 31 66  1  0
 33 67  1  0
 33 68  1  0
 35 69  1  0
M  END
>  <smiles>  (7) 
Oc1cccc(-c2nc(N3CCC(N4CCCCC4)CC3)nc(N3CCc4ccccc4C3)n2)c1

>  <score_type>  (7) 
oracle

>  <origin>  (7) 
autodockgpu

>  <m_score__min__energy>  (7) 
-9.6799999999999997

>  <m_primary>  (7) 
energy

>  <rmsd>  (7) 
6.275550947585861

>  <m_score__min__rmsd>  (7) 
6.275550947585861

>  <meeko>  (7) 
{"free_energy": -9.44, "intermolecular_energy": -10.94, "internal_energy": -1.17, "cluster_size": 35, "cluster_id": 1, "rank_in_cluster": 11}

>  <energy>  (7) 
-9.48

>  <cluster_rmsd>  (7) 
1.58

>  <cluster>  (7) 
1

$$$$

     RDKit          3D

 69 74  0  0  0  0  0  0  0  0999 V2000
  146.1590   73.1510  217.9060 O   0  0  0  0  0  0  0  0  0  0  0  0
  145.2080   72.3330  218.5010 C   0  0  0  0  0  0  0  0  0  0  0  0
  145.2680   70.9730  218.2060 C   0  0  0  0  0  0  0  0  0  0  0  0
  144.3460   70.1200  218.7730 C   0  0  0  0  0  0  0  0  0  0  0  0
  143.3580   70.5660  219.6290 C   0  0  0  0  0  0  0  0  0  0  0  0
  143.3340   71.9200  219.8940 C   0  0  0  0  0  0  0  0  0  0  0  0
  142.3090   72.4390  220.7940 C   0  0  0  0  0  0  0  0  0  0  0  0
  141.7740   73.6610  220.5920 N   0  0  0  0  0  0  0  0  0  0  0  0
  140.8260   74.1660  221.4040 C   0  0  0  0  0  0  0  0  0  0  0  0
  140.2330   75.4290  221.2430 N   0  0  0  0  0  0  0  0  0  0  0  0
  140.9990   76.6510  221.1030 C   0  0  0  0  0  0  0  0  0  0  0  0
  140.1940   77.8640  221.5200 C   0  0  0  0  0  0  0  0  0  0  0  0
  139.2760   77.5550  222.6740 C   0  0  0  0  0  0  0  0  0  0  0  0
  138.5080   78.7330  222.9790 N   0  0  0  0  0  0  0  0  0  0  0  0
  137.7190   79.2070  221.8580 C   0  0  0  0  0  0  0  0  0  0  0  0
  136.7360   80.2120  222.4730 C   0  0  0  0  0  0  0  0  0  0  0  0
  137.5160   81.3550  223.0720 C   0  0  0  0  0  0  0  0  0  0  0  0
  138.5930   80.8830  224.0050 C   0  0  0  0  0  0  0  0  0  0  0  0
  139.4100   79.8210  223.3080 C   0  0  0  0  0  0  0  0  0  0  0  0
  138.3970   76.3610  222.4450 C   0  0  0  0  0  0  0  0  0  0  0  0
  138.7780   75.5700  221.2100 C   0  0  0  0  0  0  0  0  0  0  0  0
  140.4180   73.4050  222.4450 N   0  0  0  0  0  0  0  0  0  0  0  0
  140.9170   72.1830  222.6930 C   0  0  0  0  0  0  0  0  0  0  0  0
  140.4580   71.4170  223.7980 N   0  0  0  0  0  0  0  0  0  0  0  0
  139.2680   70.6110  223.6100 C   0  0  0  0  0  0  0  0  0  0  0  0
  139.4410   69.3570  224.4410 C   0  0  0  0  0  0  0  0  0  0  0  0
  139.5770   69.7870  225.8580 C   0  0  0  0  0  0  0  0  0  0  0  0
  138.8780   69.1810  226.8920 C   0  0  0  0  0  0  0  0  0  0  0  0
  139.0630   69.6420  228.1800 C   0  0  0  0  0  0  0  0  0  0  0  0
  139.9250   70.6910  228.4710 C   0  0  0  0  0  0  0  0  0  0  0  0
  140.6190   71.2930  227.4480 C   0  0  0  0  0  0  0  0  0  0  0  0
  140.4330   70.8290  226.1460 C   0  0  0  0  0  0  0  0  0  0  0  0
  141.1780   71.4720  225.0390 C   0  0  0  0  0  0  0  0  0  0  0  0
  141.8620   71.7290  221.8460 N   0  0  0  0  0  0  0  0  0  0  0  0
  144.2360   72.8140  219.3520 C   0  0  0  0  0  0  0  0  0  0  0  0
  146.3190   74.1180  218.1780 H   0  0  0  0  0  0  0  0  0  0  0  0
  146.0424   70.5843  217.5283 H   0  0  0  0  0  0  0  0  0  0  0  0
  144.3987   69.0472  218.5357 H   0  0  0  0  0  0  0  0  0  0  0  0
  142.6272   69.8766  220.0769 H   0  0  0  0  0  0  0  0  0  0  0  0
  141.8969   76.5839  221.7349 H   0  0  0  0  0  0  0  0  0  0  0  0
  141.2720   76.7666  220.0437 H   0  0  0  0  0  0  0  0  0  0  0  0
  140.8859   78.6649  221.8197 H   0  0  0  0  0  0  0  0  0  0  0  0
  139.5762   78.1755  220.6649 H   0  0  0  0  0  0  0  0  0  0  0  0
  139.8991   77.2768  223.5368 H   0  0  0  0  0  0  0  0  0  0  0  0
  138.3607   79.6985  221.1119 H   0  0  0  0  0  0  0  0  0  0  0  0
  137.2045   78.3878  221.3343 H   0  0  0  0  0  0  0  0  0  0  0  0
  136.0620   80.5942  221.6922 H   0  0  0  0  0  0  0  0  0  0  0  0
  136.1390   79.7187  223.2542 H   0  0  0  0  0  0  0  0  0  0  0  0
  137.9806   81.9311  222.2582 H   0  0  0  0  0  0  0  0  0  0  0  0
  136.8151   81.9729  223.6525 H   0  0  0  0  0  0  0  0  0  0  0  0
  139.2417   81.7282  224.2786 H   0  0  0  0  0  0  0  0  0  0  0  0
  138.1410   80.4676  224.9178 H   0  0  0  0  0  0  0  0  0  0  0  0
  139.8566   80.2310  222.3901 H   0  0  0  0  0  0  0  0  0  0  0  0
  140.2267   79.4690  223.9554 H   0  0  0  0  0  0  0  0  0  0  0  0
  138.4702   75.6994  223.3208 H   0  0  0  0  0  0  0  0  0  0  0  0
  137.3727   76.7322  222.2934 H   0  0  0  0  0  0  0  0  0  0  0  0
  138.2992   74.5798  221.2297 H   0  0  0  0  0  0  0  0  0  0  0  0
  138.4473   76.0789  220.2926 H   0  0  0  0  0  0  0  0  0  0  0  0
  138.3798   71.1662  223.9459 H   0  0  0  0  0  0  0  0  0  0  0  0
  139.1301   70.3599  222.5480 H   0  0  0  0  0  0  0  0  0  0  0  0
  138.5626   68.7048  224.3272 H   0  0  0  0  0  0  0  0  0  0  0  0
  140.3269   68.7914  224.1166 H   0  0  0  0  0  0  0  0  0  0  0  0
  138.1887   68.3481  226.6891 H   0  0  0  0  0  0  0  0  0  0  0  0
  138.5101   69.1633  229.0017 H   0  0  0  0  0  0  0  0  0  0  0  0
  140.0512   71.0363  229.5077 H   0  0  0  0  0  0  0  0  0  0  0  0
  141.3083   72.1254  227.6528 H   0  0  0  0  0  0  0  0  0  0  0  0
  141.3579   72.5258  225.2980 H   0  0  0  0  0  0  0  0  0  0  0  0
  142.1235   70.9259  224.9058 H   0  0  0  0  0  0  0  0  0  0  0  0
  144.1802   73.8857  219.5938 H   0  0  0  0  0  0  0  0  0  0  0  0
  1  2  1  0
  2  3  2  0
  3  4  1  0
  4  5  2  0
  5  6  1  0
  6  7  1  0
  7  8  2  0
  8  9  1  0
  9 10  1  0
 10 11  1  0
 11 12  1  0
 12 13  1  0
 13 14  1  0
 14 15  1  0
 15 16  1  0
 16 17  1  0
 17 18  1  0
 18 19  1  0
 13 20  1  0
 20 21  1  0
  9 22  2  0
 22 23  1  0
 23 24  1  0
 24 25  1  0
 25 26  1  0
 26 27  1  0
 27 28  2  0
 28 29  1  0
 29 30  2  0
 30 31  1  0
 31 32  2  0
 32 33  1  0
 23 34  2  0
  6 35  2  0
 35  2  1  0
 34  7  1  0
 21 10  1  0
 33 24  1  0
 19 14  1  0
 32 27  1  0
  1 36  1  0
  3 37  1  0
  4 38  1  0
  5 39  1  0
 11 40  1  0
 11 41  1  0
 12 42  1  0
 12 43  1  0
 13 44  1  0
 15 45  1  0
 15 46  1  0
 16 47  1  0
 16 48  1  0
 17 49  1  0
 17 50  1  0
 18 51  1  0
 18 52  1  0
 19 53  1  0
 19 54  1  0
 20 55  1  0
 20 56  1  0
 21 57  1  0
 21 58  1  0
 25 59  1  0
 25 60  1  0
 26 61  1  0
 26 62  1  0
 28 63  1  0
 29 64  1  0
 30 65  1  0
 31 66  1  0
 33 67  1  0
 33 68  1  0
 35 69  1  0
M  END
>  <smiles>  (8) 
Oc1cccc(-c2nc(N3CCC(N4CCCCC4)CC3)nc(N3CCc4ccccc4C3)n2)c1

>  <score_type>  (8) 
oracle

>  <origin>  (8) 
autodockgpu

>  <m_score__min__energy>  (8) 
-9.6799999999999997

>  <m_primary>  (8) 
energy

>  <rmsd>  (8) 
6.15484636956397

>  <m_score__min__rmsd>  (8) 
6.15484636956397

>  <meeko>  (8) 
{"free_energy": -9.1, "intermolecular_energy": -10.59, "internal_energy": -1.18, "cluster_size": 35, "cluster_id": 1, "rank_in_cluster": 30}

>  <energy>  (8) 
-9.48

>  <cluster_rmsd>  (8) 
1.7

>  <cluster>  (8) 
1

$$$$

     RDKit          3D

 69 74  0  0  0  0  0  0  0  0999 V2000
  146.3160   73.1100  218.5170 O   0  0  0  0  0  0  0  0  0  0  0  0
  145.1060   72.4510  218.6960 C   0  0  0  0  0  0  0  0  0  0  0  0
  144.8870   71.3080  217.9310 C   0  0  0  0  0  0  0  0  0  0  0  0
  143.7030   70.6190  218.0730 C   0  0  0  0  0  0  0  0  0  0  0  0
  142.7160   71.0230  218.9520 C   0  0  0  0  0  0  0  0  0  0  0  0
  142.9730   72.1600  219.6900 C   0  0  0  0  0  0  0  0  0  0  0  0
  141.9610   72.6260  220.6330 C   0  0  0  0  0  0  0  0  0  0  0  0
  141.3660   73.8240  220.4640 N   0  0  0  0  0  0  0  0  0  0  0  0
  140.4290   74.2800  221.3160 C   0  0  0  0  0  0  0  0  0  0  0  0
  139.7750   75.5180  221.1910 N   0  0  0  0  0  0  0  0  0  0  0  0
  140.4480   76.7290  220.7680 C   0  0  0  0  0  0  0  0  0  0  0  0
  139.7260   77.9680  221.2560 C   0  0  0  0  0  0  0  0  0  0  0  0
  139.1140   77.7560  222.6170 C   0  0  0  0  0  0  0  0  0  0  0  0
  138.4030   78.9500  222.9910 N   0  0  0  0  0  0  0  0  0  0  0  0
  138.0550   79.7870  221.8590 C   0  0  0  0  0  0  0  0  0  0  0  0
  137.0260   80.7820  222.4120 C   0  0  0  0  0  0  0  0  0  0  0  0
  137.6810   81.6150  223.4850 C   0  0  0  0  0  0  0  0  0  0  0  0
  138.3600   80.7730  224.5260 C   0  0  0  0  0  0  0  0  0  0  0  0
  139.2520   79.7700  223.8350 C   0  0  0  0  0  0  0  0  0  0  0  0
  138.2440   76.5380  222.7060 C   0  0  0  0  0  0  0  0  0  0  0  0
  138.3490   75.6400  221.4910 C   0  0  0  0  0  0  0  0  0  0  0  0
  140.0950   73.4940  222.3640 N   0  0  0  0  0  0  0  0  0  0  0  0
  140.6560   72.2930  222.5810 C   0  0  0  0  0  0  0  0  0  0  0  0
  140.2740   71.4990  223.6950 N   0  0  0  0  0  0  0  0  0  0  0  0
  139.0640   70.7090  223.5750 C   0  0  0  0  0  0  0  0  0  0  0  0
  139.2850   69.4290  224.3530 C   0  0  0  0  0  0  0  0  0  0  0  0
  139.5340   69.8150  225.7670 C   0  0  0  0  0  0  0  0  0  0  0  0
  138.9080   69.1850  226.8340 C   0  0  0  0  0  0  0  0  0  0  0  0
  139.1960   69.6050  228.1170 C   0  0  0  0  0  0  0  0  0  0  0  0
  140.0900   70.6370  228.3720 C   0  0  0  0  0  0  0  0  0  0  0  0
  140.7100   71.2620  227.3170 C   0  0  0  0  0  0  0  0  0  0  0  0
  140.4210   70.8400  226.0200 C   0  0  0  0  0  0  0  0  0  0  0  0
  141.0860   71.5100  224.8780 C   0  0  0  0  0  0  0  0  0  0  0  0
  141.5870   71.8880  221.6940 N   0  0  0  0  0  0  0  0  0  0  0  0
  144.1440   72.8830  219.5840 C   0  0  0  0  0  0  0  0  0  0  0  0
  146.4340   74.1120  218.6400 H   0  0  0  0  0  0  0  0  0  0  0  0
  145.6514   70.9593  217.2210 H   0  0  0  0  0  0  0  0  0  0  0  0
  143.5373   69.7166  217.4662 H   0  0  0  0  0  0  0  0  0  0  0  0
  141.7732   70.4662  219.0578 H   0  0  0  0  0  0  0  0  0  0  0  0
  141.4707   76.7291  221.1730 H   0  0  0  0  0  0  0  0  0  0  0  0
  140.4609   76.7491  219.6683 H   0  0  0  0  0  0  0  0  0  0  0  0
  140.4437   78.7996  221.3133 H   0  0  0  0  0  0  0  0  0  0  0  0
  138.9161   78.1949  220.5471 H   0  0  0  0  0  0  0  0  0  0  0  0
  139.9296   77.5631  223.3295 H   0  0  0  0  0  0  0  0  0  0  0  0
  138.9420   80.3163  221.4807 H   0  0  0  0  0  0  0  0  0  0  0  0
  137.6576   79.2027  221.0160 H   0  0  0  0  0  0  0  0  0  0  0  0
  136.6718   81.4358  221.6015 H   0  0  0  0  0  0  0  0  0  0  0  0
  136.1691   80.2365  222.8342 H   0  0  0  0  0  0  0  0  0  0  0  0
  138.4302   82.2700  223.0162 H   0  0  0  0  0  0  0  0  0  0  0  0
  136.8938   82.1981  223.9853 H   0  0  0  0  0  0  0  0  0  0  0  0
  138.9651   81.4147  225.1834 H   0  0  0  0  0  0  0  0  0  0  0  0
  137.6066   80.2481  225.1316 H   0  0  0  0  0  0  0  0  0  0  0  0
  140.0015   80.2918  223.2219 H   0  0  0  0  0  0  0  0  0  0  0  0
  139.7860   79.1506  224.5707 H   0  0  0  0  0  0  0  0  0  0  0  0
  138.5405   75.9607  223.5941 H   0  0  0  0  0  0  0  0  0  0  0  0
  137.2018   76.8844  222.7675 H   0  0  0  0  0  0  0  0  0  0  0  0
  137.9203   74.6511  221.7104 H   0  0  0  0  0  0  0  0  0  0  0  0
  137.7957   76.0576  220.6369 H   0  0  0  0  0  0  0  0  0  0  0  0
  138.2101   71.2617  223.9938 H   0  0  0  0  0  0  0  0  0  0  0  0
  138.8435   70.4909  222.5196 H   0  0  0  0  0  0  0  0  0  0  0  0
  138.3927   68.7890  224.2880 H   0  0  0  0  0  0  0  0  0  0  0  0
  140.1366   68.8648  223.9452 H   0  0  0  0  0  0  0  0  0  0  0  0
  138.1951   68.3656  226.6601 H   0  0  0  0  0  0  0  0  0  0  0  0
  138.7019   69.1067  228.9641 H   0  0  0  0  0  0  0  0  0  0  0  0
  140.2990   70.9500  229.4056 H   0  0  0  0  0  0  0  0  0  0  0  0
  141.4224   72.0815  227.4928 H   0  0  0  0  0  0  0  0  0  0  0  0
  141.2964   72.5540  225.1535 H   0  0  0  0  0  0  0  0  0  0  0  0
  142.0124   70.9597  224.6567 H   0  0  0  0  0  0  0  0  0  0  0  0
  144.3060   73.7837  220.1944 H   0  0  0  0  0  0  0  0  0  0  0  0
  1  2  1  0
  2  3  2  0
  3  4  1  0
  4  5  2  0
  5  6  1  0
  6  7  1  0
  7  8  2  0
  8  9  1  0
  9 10  1  0
 10 11  1  0
 11 12  1  0
 12 13  1  0
 13 14  1  0
 14 15  1  0
 15 16  1  0
 16 17  1  0
 17 18  1  0
 18 19  1  0
 13 20  1  0
 20 21  1  0
  9 22  2  0
 22 23  1  0
 23 24  1  0
 24 25  1  0
 25 26  1  0
 26 27  1  0
 27 28  2  0
 28 29  1  0
 29 30  2  0
 30 31  1  0
 31 32  2  0
 32 33  1  0
 23 34  2  0
  6 35  2  0
 35  2  1  0
 34  7  1  0
 21 10  1  0
 33 24  1  0
 19 14  1  0
 32 27  1  0
  1 36  1  0
  3 37  1  0
  4 38  1  0
  5 39  1  0
 11 40  1  0
 11 41  1  0
 12 42  1  0
 12 43  1  0
 13 44  1  0
 15 45  1  0
 15 46  1  0
 16 47  1  0
 16 48  1  0
 17 49  1  0
 17 50  1  0
 18 51  1  0
 18 52  1  0
 19 53  1  0
 19 54  1  0
 20 55  1  0
 20 56  1  0
 21 57  1  0
 21 58  1  0
 25 59  1  0
 25 60  1  0
 26 61  1  0
 26 62  1  0
 28 63  1  0
 29 64  1  0
 30 65  1  0
 31 66  1  0
 33 67  1  0
 33 68  1  0
 35 69  1  0
M  END
>  <smiles>  (9) 
Oc1cccc(-c2nc(N3CCC(N4CCCCC4)CC3)nc(N3CCc4ccccc4C3)n2)c1

>  <score_type>  (9) 
oracle

>  <origin>  (9) 
autodockgpu

>  <m_score__min__energy>  (9) 
-9.6799999999999997

>  <m_primary>  (9) 
energy

>  <rmsd>  (9) 
6.352119916115914

>  <m_score__min__rmsd>  (9) 
6.352119916115914

>  <meeko>  (9) 
{"free_energy": -9.48, "intermolecular_energy": -10.97, "internal_energy": -1.17, "cluster_size": 35, "cluster_id": 1, "rank_in_cluster": 7}

>  <energy>  (9) 
-9.48

>  <cluster_rmsd>  (9) 
1.64

>  <cluster>  (9) 
1

$$$$

     RDKit          3D

 69 74  0  0  0  0  0  0  0  0999 V2000
  146.2860   73.0890  217.7450 O   0  0  0  0  0  0  0  0  0  0  0  0
  145.3740   72.2760  218.4050 C   0  0  0  0  0  0  0  0  0  0  0  0
  145.4730   70.9040  218.1860 C   0  0  0  0  0  0  0  0  0  0  0  0
  144.5920   70.0560  218.8200 C   0  0  0  0  0  0  0  0  0  0  0  0
  143.6050   70.5180  219.6690 C   0  0  0  0  0  0  0  0  0  0  0  0
  143.5410   71.8840  219.8570 C   0  0  0  0  0  0  0  0  0  0  0  0
  142.5150   72.4200  220.7460 C   0  0  0  0  0  0  0  0  0  0  0  0
  142.0330   73.6670  220.5630 N   0  0  0  0  0  0  0  0  0  0  0  0
  141.0860   74.1880  221.3670 C   0  0  0  0  0  0  0  0  0  0  0  0
  140.5470   75.4780  221.2260 N   0  0  0  0  0  0  0  0  0  0  0  0
  140.5830   76.2190  219.9810 C   0  0  0  0  0  0  0  0  0  0  0  0
  140.4870   77.7120  220.2190 C   0  0  0  0  0  0  0  0  0  0  0  0
  141.1970   78.1220  221.4830 C   0  0  0  0  0  0  0  0  0  0  0  0
  141.0180   79.5380  221.6720 N   0  0  0  0  0  0  0  0  0  0  0  0
  141.3210   80.3150  220.4850 C   0  0  0  0  0  0  0  0  0  0  0  0
  140.7400   81.7060  220.7740 C   0  0  0  0  0  0  0  0  0  0  0  0
  141.4500   82.2930  221.9680 C   0  0  0  0  0  0  0  0  0  0  0  0
  141.4550   81.3610  223.1440 C   0  0  0  0  0  0  0  0  0  0  0  0
  141.9410   80.0060  222.6890 C   0  0  0  0  0  0  0  0  0  0  0  0
  140.7770   77.3420  222.6930 C   0  0  0  0  0  0  0  0  0  0  0  0
  139.9090   76.1460  222.3590 C   0  0  0  0  0  0  0  0  0  0  0  0
  140.6250   73.4180  222.3770 N   0  0  0  0  0  0  0  0  0  0  0  0
  141.0690   72.1710  222.6050 C   0  0  0  0  0  0  0  0  0  0  0  0
  140.5550   71.3970  223.6790 N   0  0  0  0  0  0  0  0  0  0  0  0
  139.2000   70.8950  223.5570 C   0  0  0  0  0  0  0  0  0  0  0  0
  139.1600   69.5430  224.2390 C   0  0  0  0  0  0  0  0  0  0  0  0
  139.5240   69.7620  225.6640 C   0  0  0  0  0  0  0  0  0  0  0  0
  138.8060   69.2030  226.7120 C   0  0  0  0  0  0  0  0  0  0  0  0
  139.2110   69.4570  228.0070 C   0  0  0  0  0  0  0  0  0  0  0  0
  140.3140   70.2530  228.2920 C   0  0  0  0  0  0  0  0  0  0  0  0
  141.0260   70.8080  227.2560 C   0  0  0  0  0  0  0  0  0  0  0  0
  140.6180   70.5530  225.9470 C   0  0  0  0  0  0  0  0  0  0  0  0
  141.3820   71.1480  224.8260 C   0  0  0  0  0  0  0  0  0  0  0  0
  142.0160   71.7020  221.7680 N   0  0  0  0  0  0  0  0  0  0  0  0
  144.4010   72.7730  219.2460 C   0  0  0  0  0  0  0  0  0  0  0  0
  146.2490   74.1050  217.7620 H   0  0  0  0  0  0  0  0  0  0  0  0
  146.2460   70.5023  217.5144 H   0  0  0  0  0  0  0  0  0  0  0  0
  144.6773   68.9735  218.6442 H   0  0  0  0  0  0  0  0  0  0  0  0
  142.9057   69.8322  220.1697 H   0  0  0  0  0  0  0  0  0  0  0  0
  141.5279   76.0000  219.4622 H   0  0  0  0  0  0  0  0  0  0  0  0
  139.7205   75.9111  219.3717 H   0  0  0  0  0  0  0  0  0  0  0  0
  140.9426   78.2387  219.3675 H   0  0  0  0  0  0  0  0  0  0  0  0
  139.4239   77.9749  220.3224 H   0  0  0  0  0  0  0  0  0  0  0  0
  142.2652   77.8887  221.3620 H   0  0  0  0  0  0  0  0  0  0  0  0
  142.4079   80.3735  220.3261 H   0  0  0  0  0  0  0  0  0  0  0  0
  140.8975   79.8671  219.5739 H   0  0  0  0  0  0  0  0  0  0  0  0
  140.8878   82.3569  219.8997 H   0  0  0  0  0  0  0  0  0  0  0  0
  139.6632   81.6242  220.9835 H   0  0  0  0  0  0  0  0  0  0  0  0
  142.4905   82.5136  221.6873 H   0  0  0  0  0  0  0  0  0  0  0  0
  140.9112   83.2050  222.2644 H   0  0  0  0  0  0  0  0  0  0  0  0
  142.1262   81.7521  223.9228 H   0  0  0  0  0  0  0  0  0  0  0  0
  140.4390   81.2744  223.5565 H   0  0  0  0  0  0  0  0  0  0  0  0
  142.9539   80.0907  222.2684 H   0  0  0  0  0  0  0  0  0  0  0  0
  141.9812   79.3020  223.5333 H   0  0  0  0  0  0  0  0  0  0  0  0
  141.6800   76.9854  223.2101 H   0  0  0  0  0  0  0  0  0  0  0  0
  140.1784   78.0148  223.3247 H   0  0  0  0  0  0  0  0  0  0  0  0
  139.8526   75.4642  223.2204 H   0  0  0  0  0  0  0  0  0  0  0  0
  138.8818   76.4541  222.1141 H   0  0  0  0  0  0  0  0  0  0  0  0
  138.4970   71.5850  224.0466 H   0  0  0  0  0  0  0  0  0  0  0  0
  138.9097   70.8076  222.4996 H   0  0  0  0  0  0  0  0  0  0  0  0
  138.1492   69.1148  224.1691 H   0  0  0  0  0  0  0  0  0  0  0  0
  139.8585   68.8415  223.7595 H   0  0  0  0  0  0  0  0  0  0  0  0
  137.9294   68.5686  226.5141 H   0  0  0  0  0  0  0  0  0  0  0  0
  138.6430   69.0156  228.8392 H   0  0  0  0  0  0  0  0  0  0  0  0
  140.6135   70.4366  229.3344 H   0  0  0  0  0  0  0  0  0  0  0  0
  141.9023   71.4422  227.4556 H   0  0  0  0  0  0  0  0  0  0  0  0
  141.8193   72.1001  225.1611 H   0  0  0  0  0  0  0  0  0  0  0  0
  142.1626   70.4314  224.5308 H   0  0  0  0  0  0  0  0  0  0  0  0
  144.3124   73.8546  219.4258 H   0  0  0  0  0  0  0  0  0  0  0  0
  1  2  1  0
  2  3  2  0
  3  4  1  0
  4  5  2  0
  5  6  1  0
  6  7  1  0
  7  8  2  0
  8  9  1  0
  9 10  1  0
 10 11  1  0
 11 12  1  0
 12 13  1  0
 13 14  1  0
 14 15  1  0
 15 16  1  0
 16 17  1  0
 17 18  1  0
 18 19  1  0
 13 20  1  0
 20 21  1  0
  9 22  2  0
 22 23  1  0
 23 24  1  0
 24 25  1  0
 25 26  1  0
 26 27  1  0
 27 28  2  0
 28 29  1  0
 29 30  2  0
 30 31  1  0
 31 32  2  0
 32 33  1  0
 23 34  2  0
  6 35  2  0
 35  2  1  0
 34  7  1  0
 21 10  1  0
 33 24  1  0
 19 14  1  0
 32 27  1  0
  1 36  1  0
  3 37  1  0
  4 38  1  0
  5 39  1  0
 11 40  1  0
 11 41  1  0
 12 42  1  0
 12 43  1  0
 13 44  1  0
 15 45  1  0
 15 46  1  0
 16 47  1  0
 16 48  1  0
 17 49  1  0
 17 50  1  0
 18 51  1  0
 18 52  1  0
 19 53  1  0
 19 54  1  0
 20 55  1  0
 20 56  1  0
 21 57  1  0
 21 58  1  0
 25 59  1  0
 25 60  1  0
 26 61  1  0
 26 62  1  0
 28 63  1  0
 29 64  1  0
 30 65  1  0
 31 66  1  0
 33 67  1  0
 33 68  1  0
 35 69  1  0
M  END
>  <smiles>  (10) 
Oc1cccc(-c2nc(N3CCC(N4CCCCC4)CC3)nc(N3CCc4ccccc4C3)n2)c1

>  <score_type>  (10) 
oracle

>  <origin>  (10) 
autodockgpu

>  <m_score__min__energy>  (10) 
-9.6799999999999997

>  <m_primary>  (10) 
energy

>  <rmsd>  (10) 
5.620555977788161

>  <m_score__min__rmsd>  (10) 
5.620555977788161

>  <meeko>  (10) 
{"free_energy": -9.65, "intermolecular_energy": -11.14, "internal_energy": -1.14, "cluster_size": 35, "cluster_id": 1, "rank_in_cluster": 2}

>  <energy>  (10) 
-9.48

>  <cluster_rmsd>  (10) 
0.31

>  <cluster>  (10) 
1

$$$$

     RDKit          3D

 69 74  0  0  0  0  0  0  0  0999 V2000
  146.3060   73.0570  218.5780 O   0  0  0  0  0  0  0  0  0  0  0  0
  145.1710   72.3150  218.8780 C   0  0  0  0  0  0  0  0  0  0  0  0
  145.0540   71.0650  218.2750 C   0  0  0  0  0  0  0  0  0  0  0  0
  143.9460   70.2910  218.5420 C   0  0  0  0  0  0  0  0  0  0  0  0
  142.9390   70.7120  219.3890 C   0  0  0  0  0  0  0  0  0  0  0  0
  143.0940   71.9570  219.9640 C   0  0  0  0  0  0  0  0  0  0  0  0
  142.0560   72.4450  220.8660 C   0  0  0  0  0  0  0  0  0  0  0  0
  141.4190   73.6060  220.6140 N   0  0  0  0  0  0  0  0  0  0  0  0
  140.4570   74.0820  221.4290 C   0  0  0  0  0  0  0  0  0  0  0  0
  139.7610   75.2830  221.2180 N   0  0  0  0  0  0  0  0  0  0  0  0
  140.3360   76.4220  220.5320 C   0  0  0  0  0  0  0  0  0  0  0  0
  139.6550   77.7150  220.9320 C   0  0  0  0  0  0  0  0  0  0  0  0
  139.2440   77.7040  222.3810 C   0  0  0  0  0  0  0  0  0  0  0  0
  138.5590   78.9360  222.6740 N   0  0  0  0  0  0  0  0  0  0  0  0
  139.1160   79.6430  223.8110 C   0  0  0  0  0  0  0  0  0  0  0  0
  138.5030   81.0470  223.7330 C   0  0  0  0  0  0  0  0  0  0  0  0
  137.0060   80.9350  223.8810 C   0  0  0  0  0  0  0  0  0  0  0  0
  136.4120   79.9390  222.9280 C   0  0  0  0  0  0  0  0  0  0  0  0
  137.1830   78.6460  223.0330 C   0  0  0  0  0  0  0  0  0  0  0  0
  138.4270   76.5070  222.7690 C   0  0  0  0  0  0  0  0  0  0  0  0
  138.3870   75.4400  221.6940 C   0  0  0  0  0  0  0  0  0  0  0  0
  140.1430   73.3530  222.5230 N   0  0  0  0  0  0  0  0  0  0  0  0
  140.7450   72.1900  222.8220 C   0  0  0  0  0  0  0  0  0  0  0  0
  140.3810   71.4570  223.9830 N   0  0  0  0  0  0  0  0  0  0  0  0
  139.3090   70.4890  223.8580 C   0  0  0  0  0  0  0  0  0  0  0  0
  139.6380   69.3340  224.7810 C   0  0  0  0  0  0  0  0  0  0  0  0
  139.7050   69.8840  226.1610 C   0  0  0  0  0  0  0  0  0  0  0  0
  139.0820   69.2720  227.2400 C   0  0  0  0  0  0  0  0  0  0  0  0
  139.1940   69.8490  228.4890 C   0  0  0  0  0  0  0  0  0  0  0  0
  139.9090   71.0210  228.6980 C   0  0  0  0  0  0  0  0  0  0  0  0
  140.5260   71.6300  227.6310 C   0  0  0  0  0  0  0  0  0  0  0  0
  140.4140   71.0490  226.3690 C   0  0  0  0  0  0  0  0  0  0  0  0
  141.0770   71.7000  225.2150 C   0  0  0  0  0  0  0  0  0  0  0  0
  141.6990   71.7640  221.9700 N   0  0  0  0  0  0  0  0  0  0  0  0
  144.1860   72.7680  219.7290 C   0  0  0  0  0  0  0  0  0  0  0  0
  146.3410   74.0730  218.6190 H   0  0  0  0  0  0  0  0  0  0  0  0
  145.8368   70.7002  217.5938 H   0  0  0  0  0  0  0  0  0  0  0  0
  143.8602   69.3038  218.0644 H   0  0  0  0  0  0  0  0  0  0  0  0
  142.0580   70.0863  219.5948 H   0  0  0  0  0  0  0  0  0  0  0  0
  141.4047   76.4884  220.7839 H   0  0  0  0  0  0  0  0  0  0  0  0
  140.1959   76.2793  219.4503 H   0  0  0  0  0  0  0  0  0  0  0  0
  140.3507   78.5505  220.7653 H   0  0  0  0  0  0  0  0  0  0  0  0
  138.7483   77.8283  220.3196 H   0  0  0  0  0  0  0  0  0  0  0  0
  140.1560   77.6245  222.9909 H   0  0  0  0  0  0  0  0  0  0  0  0
  138.8340   79.1480  224.7520 H   0  0  0  0  0  0  0  0  0  0  0  0
  140.2155   79.6665  223.7893 H   0  0  0  0  0  0  0  0  0  0  0  0
  138.9083   81.6724  224.5420 H   0  0  0  0  0  0  0  0  0  0  0  0
  138.7485   81.5078  222.7648 H   0  0  0  0  0  0  0  0  0  0  0  0
  136.7747   80.6216  224.9097 H   0  0  0  0  0  0  0  0  0  0  0  0
  136.5709   81.9193  223.6533 H   0  0  0  0  0  0  0  0  0  0  0  0
  135.3576   79.7628  223.1870 H   0  0  0  0  0  0  0  0  0  0  0  0
  136.4688   80.3256  221.8998 H   0  0  0  0  0  0  0  0  0  0  0  0
  137.1352   78.2614  224.0625 H   0  0  0  0  0  0  0  0  0  0  0  0
  136.7578   77.8827  222.3647 H   0  0  0  0  0  0  0  0  0  0  0  0
  138.8591   76.0690  223.6809 H   0  0  0  0  0  0  0  0  0  0  0  0
  137.3945   76.8521  222.9267 H   0  0  0  0  0  0  0  0  0  0  0  0
  138.0185   74.4918  222.1124 H   0  0  0  0  0  0  0  0  0  0  0  0
  137.7106   75.7243  220.8744 H   0  0  0  0  0  0  0  0  0  0  0  0
  138.3526   70.9458  224.1522 H   0  0  0  0  0  0  0  0  0  0  0  0
  139.2149   70.1430  222.8181 H   0  0  0  0  0  0  0  0  0  0  0  0
  138.8534   68.5655  224.7186 H   0  0  0  0  0  0  0  0  0  0  0  0
  140.5927   68.8662  224.4987 H   0  0  0  0  0  0  0  0  0  0  0  0
  138.5089   68.3432  227.1021 H   0  0  0  0  0  0  0  0  0  0  0  0
  138.7015   69.3654  229.3455 H   0  0  0  0  0  0  0  0  0  0  0  0
  139.9808   71.4569  229.7054 H   0  0  0  0  0  0  0  0  0  0  0  0
  141.0979   72.5592  227.7707 H   0  0  0  0  0  0  0  0  0  0  0  0
  141.1140   72.7848  225.3932 H   0  0  0  0  0  0  0  0  0  0  0  0
  142.0875   71.2754  225.1219 H   0  0  0  0  0  0  0  0  0  0  0  0
  144.2682   73.7538  220.2102 H   0  0  0  0  0  0  0  0  0  0  0  0
  1  2  1  0
  2  3  2  0
  3  4  1  0
  4  5  2  0
  5  6  1  0
  6  7  1  0
  7  8  2  0
  8  9  1  0
  9 10  1  0
 10 11  1  0
 11 12  1  0
 12 13  1  0
 13 14  1  0
 14 15  1  0
 15 16  1  0
 16 17  1  0
 17 18  1  0
 18 19  1  0
 13 20  1  0
 20 21  1  0
  9 22  2  0
 22 23  1  0
 23 24  1  0
 24 25  1  0
 25 26  1  0
 26 27  1  0
 27 28  2  0
 28 29  1  0
 29 30  2  0
 30 31  1  0
 31 32  2  0
 32 33  1  0
 23 34  2  0
  6 35  2  0
 35  2  1  0
 34  7  1  0
 21 10  1  0
 33 24  1  0
 19 14  1  0
 32 27  1  0
  1 36  1  0
  3 37  1  0
  4 38  1  0
  5 39  1  0
 11 40  1  0
 11 41  1  0
 12 42  1  0
 12 43  1  0
 13 44  1  0
 15 45  1  0
 15 46  1  0
 16 47  1  0
 16 48  1  0
 17 49  1  0
 17 50  1  0
 18 51  1  0
 18 52  1  0
 19 53  1  0
 19 54  1  0
 20 55  1  0
 20 56  1  0
 21 57  1  0
 21 58  1  0
 25 59  1  0
 25 60  1  0
 26 61  1  0
 26 62  1  0
 28 63  1  0
 29 64  1  0
 30 65  1  0
 31 66  1  0
 33 67  1  0
 33 68  1  0
 35 69  1  0
M  END
>  <smiles>  (11) 
Oc1cccc(-c2nc(N3CCC(N4CCCCC4)CC3)nc(N3CCc4ccccc4C3)n2)c1

>  <score_type>  (11) 
oracle

>  <origin>  (11) 
autodockgpu

>  <m_score__min__energy>  (11) 
-9.6799999999999997

>  <m_primary>  (11) 
energy

>  <rmsd>  (11) 
6.069662274721943

>  <m_score__min__rmsd>  (11) 
6.069662274721943

>  <meeko>  (11) 
{"free_energy": -9.42, "intermolecular_energy": -10.91, "internal_energy": -1.17, "cluster_size": 35, "cluster_id": 1, "rank_in_cluster": 15}

>  <energy>  (11) 
-9.44

>  <cluster_rmsd>  (11) 
1.61

>  <cluster>  (11) 
1

$$$$

     RDKit          3D

 69 74  0  0  0  0  0  0  0  0999 V2000
  145.9850   73.1130  217.4950 O   0  0  0  0  0  0  0  0  0  0  0  0
  145.2060   72.2930  218.3020 C   0  0  0  0  0  0  0  0  0  0  0  0
  145.4640   70.9250  218.2530 C   0  0  0  0  0  0  0  0  0  0  0  0
  144.7190   70.0720  219.0360 C   0  0  0  0  0  0  0  0  0  0  0  0
  143.7170   70.5240  219.8730 C   0  0  0  0  0  0  0  0  0  0  0  0
  143.4940   71.8860  219.8900 C   0  0  0  0  0  0  0  0  0  0  0  0
  142.4460   72.4120  220.7590 C   0  0  0  0  0  0  0  0  0  0  0  0
  141.9240   73.6370  220.5410 N   0  0  0  0  0  0  0  0  0  0  0  0
  140.9570   74.1490  221.3250 C   0  0  0  0  0  0  0  0  0  0  0  0
  140.3770   75.4150  221.1460 N   0  0  0  0  0  0  0  0  0  0  0  0
  140.2660   76.0600  219.8540 C   0  0  0  0  0  0  0  0  0  0  0  0
  140.1610   77.5660  219.9890 C   0  0  0  0  0  0  0  0  0  0  0  0
  140.9900   78.0810  221.1380 C   0  0  0  0  0  0  0  0  0  0  0  0
  140.8000   79.5040  221.2390 N   0  0  0  0  0  0  0  0  0  0  0  0
  141.8120   80.2680  220.5340 C   0  0  0  0  0  0  0  0  0  0  0  0
  141.2440   81.6910  220.4620 C   0  0  0  0  0  0  0  0  0  0  0  0
  141.0830   82.2240  221.8640 C   0  0  0  0  0  0  0  0  0  0  0  0
  140.3090   81.2860  222.7450 C   0  0  0  0  0  0  0  0  0  0  0  0
  140.9080   79.9050  222.6290 C   0  0  0  0  0  0  0  0  0  0  0  0
  140.7150   77.3890  222.4390 C   0  0  0  0  0  0  0  0  0  0  0  0
  139.8450   76.1580  222.2880 C   0  0  0  0  0  0  0  0  0  0  0  0
  140.5150   73.3920  222.3540 N   0  0  0  0  0  0  0  0  0  0  0  0
  140.9980   72.1660  222.6170 C   0  0  0  0  0  0  0  0  0  0  0  0
  140.5030   71.4050  223.7090 N   0  0  0  0  0  0  0  0  0  0  0  0
  139.2860   70.6440  223.5020 C   0  0  0  0  0  0  0  0  0  0  0  0
  139.4060   69.3740  224.3180 C   0  0  0  0  0  0  0  0  0  0  0  0
  139.5470   69.7820  225.7410 C   0  0  0  0  0  0  0  0  0  0  0  0
  138.8170   69.1900  226.7630 C   0  0  0  0  0  0  0  0  0  0  0  0
  139.0080   69.6280  228.0580 C   0  0  0  0  0  0  0  0  0  0  0  0
  139.9050   70.6420  228.3690 C   0  0  0  0  0  0  0  0  0  0  0  0
  140.6280   71.2300  227.3580 C   0  0  0  0  0  0  0  0  0  0  0  0
  140.4370   70.7890  226.0500 C   0  0  0  0  0  0  0  0  0  0  0  0
  141.2130   71.4190  224.9560 C   0  0  0  0  0  0  0  0  0  0  0  0
  141.9650   71.7060  221.7980 N   0  0  0  0  0  0  0  0  0  0  0  0
  144.2140   72.7810  219.1250 C   0  0  0  0  0  0  0  0  0  0  0  0
  145.9700   74.1280  217.5430 H   0  0  0  0  0  0  0  0  0  0  0  0
  146.2537   70.5308  217.5965 H   0  0  0  0  0  0  0  0  0  0  0  0
  144.9289   68.9930  218.9937 H   0  0  0  0  0  0  0  0  0  0  0  0
  143.1272   69.8338  220.4940 H   0  0  0  0  0  0  0  0  0  0  0  0
  141.1565   75.8165  219.2559 H   0  0  0  0  0  0  0  0  0  0  0  0
  139.3515   75.6940  219.3644 H   0  0  0  0  0  0  0  0  0  0  0  0
  140.5134   78.0330  219.0575 H   0  0  0  0  0  0  0  0  0  0  0  0
  139.1087   77.8207  220.1836 H   0  0  0  0  0  0  0  0  0  0  0  0
  142.0449   77.8549  220.9236 H   0  0  0  0  0  0  0  0  0  0  0  0
  142.7624   80.2570  221.0877 H   0  0  0  0  0  0  0  0  0  0  0  0
  142.0275   79.8545  219.5377 H   0  0  0  0  0  0  0  0  0  0  0  0
  141.9343   82.3361  219.8987 H   0  0  0  0  0  0  0  0  0  0  0  0
  140.2685   81.6778  219.9538 H   0  0  0  0  0  0  0  0  0  0  0  0
  142.0808   82.3773  222.3009 H   0  0  0  0  0  0  0  0  0  0  0  0
  140.5219   83.1681  221.8027 H   0  0  0  0  0  0  0  0  0  0  0  0
  140.3662   81.6274  223.7891 H   0  0  0  0  0  0  0  0  0  0  0  0
  139.2545   81.2638  222.4325 H   0  0  0  0  0  0  0  0  0  0  0  0
  141.9647   79.9261  222.9338 H   0  0  0  0  0  0  0  0  0  0  0  0
  140.3793   79.1948  223.2817 H   0  0  0  0  0  0  0  0  0  0  0  0
  141.6745   77.0865  222.8838 H   0  0  0  0  0  0  0  0  0  0  0  0
  140.1690   78.0988  223.0777 H   0  0  0  0  0  0  0  0  0  0  0  0
  139.8945   75.5430  223.1986 H   0  0  0  0  0  0  0  0  0  0  0  0
  138.7911   76.4309  222.1307 H   0  0  0  0  0  0  0  0  0  0  0  0
  138.4157   71.2267  223.8381 H   0  0  0  0  0  0  0  0  0  0  0  0
  139.1486   70.4108  222.4358 H   0  0  0  0  0  0  0  0  0  0  0  0
  138.5049   68.7563  224.1898 H   0  0  0  0  0  0  0  0  0  0  0  0
  140.2725   68.7794  223.9929 H   0  0  0  0  0  0  0  0  0  0  0  0
  138.0989   68.3859  226.5445 H   0  0  0  0  0  0  0  0  0  0  0  0
  138.4317   69.1593  228.8693 H   0  0  0  0  0  0  0  0  0  0  0  0
  140.0353   70.9704  229.4107 H   0  0  0  0  0  0  0  0  0  0  0  0
  141.3449   72.0348  227.5779 H   0  0  0  0  0  0  0  0  0  0  0  0
  141.4276   72.4626  225.2296 H   0  0  0  0  0  0  0  0  0  0  0  0
  142.1394   70.8409  224.8232 H   0  0  0  0  0  0  0  0  0  0  0  0
  144.0010   73.8592  219.1711 H   0  0  0  0  0  0  0  0  0  0  0  0
  1  2  1  0
  2  3  2  0
  3  4  1  0
  4  5  2  0
  5  6  1  0
  6  7  1  0
  7  8  2  0
  8  9  1  0
  9 10  1  0
 10 11  1  0
 11 12  1  0
 12 13  1  0
 13 14  1  0
 14 15  1  0
 15 16  1  0
 16 17  1  0
 17 18  1  0
 18 19  1  0
 13 20  1  0
 20 21  1  0
  9 22  2  0
 22 23  1  0
 23 24  1  0
 24 25  1  0
 25 26  1  0
 26 27  1  0
 27 28  2  0
 28 29  1  0
 29 30  2  0
 30 31  1  0
 31 32  2  0
 32 33  1  0
 23 34  2  0
  6 35  2  0
 35  2  1  0
 34  7  1  0
 21 10  1  0
 33 24  1  0
 19 14  1  0
 32 27  1  0
  1 36  1  0
  3 37  1  0
  4 38  1  0
  5 39  1  0
 11 40  1  0
 11 41  1  0
 12 42  1  0
 12 43  1  0
 13 44  1  0
 15 45  1  0
 15 46  1  0
 16 47  1  0
 16 48  1  0
 17 49  1  0
 17 50  1  0
 18 51  1  0
 18 52  1  0
 19 53  1  0
 19 54  1  0
 20 55  1  0
 20 56  1  0
 21 57  1  0
 21 58  1  0
 25 59  1  0
 25 60  1  0
 26 61  1  0
 26 62  1  0
 28 63  1  0
 29 64  1  0
 30 65  1  0
 31 66  1  0
 33 67  1  0
 33 68  1  0
 35 69  1  0
M  END
>  <smiles>  (12) 
Oc1cccc(-c2nc(N3CCC(N4CCCCC4)CC3)nc(N3CCc4ccccc4C3)n2)c1

>  <score_type>  (12) 
oracle

>  <origin>  (12) 
autodockgpu

>  <m_score__min__energy>  (12) 
-9.6799999999999997

>  <m_primary>  (12) 
energy

>  <rmsd>  (12) 
5.477197986418348

>  <m_score__min__rmsd>  (12) 
5.477197986418348

>  <meeko>  (12) 
{"free_energy": -9.25, "intermolecular_energy": -10.74, "internal_energy": -1.15, "cluster_size": 35, "cluster_id": 1, "rank_in_cluster": 27}

>  <energy>  (12) 
-9.44

>  <cluster_rmsd>  (12) 
1.61

>  <cluster>  (12) 
1

$$$$

     RDKit          3D

 69 74  0  0  0  0  0  0  0  0999 V2000
  145.9840   73.3560  217.8410 O   0  0  0  0  0  0  0  0  0  0  0  0
  145.1260   72.4990  218.5160 C   0  0  0  0  0  0  0  0  0  0  0  0
  145.3140   71.1320  218.3240 C   0  0  0  0  0  0  0  0  0  0  0  0
  144.4880   70.2410  218.9740 C   0  0  0  0  0  0  0  0  0  0  0  0
  143.4720   70.6550  219.8140 C   0  0  0  0  0  0  0  0  0  0  0  0
  143.3200   72.0170  219.9750 C   0  0  0  0  0  0  0  0  0  0  0  0
  142.2610   72.5030  220.8540 C   0  0  0  0  0  0  0  0  0  0  0  0
  141.6830   73.7020  220.6330 N   0  0  0  0  0  0  0  0  0  0  0  0
  140.7030   74.1760  221.4250 C   0  0  0  0  0  0  0  0  0  0  0  0
  140.0650   75.4150  221.2440 N   0  0  0  0  0  0  0  0  0  0  0  0
  140.7780   76.6320  220.9150 C   0  0  0  0  0  0  0  0  0  0  0  0
  140.0030   77.8630  221.3360 C   0  0  0  0  0  0  0  0  0  0  0  0
  139.2440   77.6330  222.6170 C   0  0  0  0  0  0  0  0  0  0  0  0
  138.4920   78.8210  222.9260 N   0  0  0  0  0  0  0  0  0  0  0  0
  137.9960   79.5060  221.7480 C   0  0  0  0  0  0  0  0  0  0  0  0
  136.9570   80.4990  222.2840 C   0  0  0  0  0  0  0  0  0  0  0  0
  137.6460   81.4820  223.1970 C   0  0  0  0  0  0  0  0  0  0  0  0
  138.4650   80.8000  224.2550 C   0  0  0  0  0  0  0  0  0  0  0  0
  139.3560   79.7750  223.5950 C   0  0  0  0  0  0  0  0  0  0  0  0
  138.3720   76.4130  222.5930 C   0  0  0  0  0  0  0  0  0  0  0  0
  138.6140   75.5320  221.3850 C   0  0  0  0  0  0  0  0  0  0  0  0
  140.3070   73.4090  222.4650 N   0  0  0  0  0  0  0  0  0  0  0  0
  140.8480   72.2080  222.7320 C   0  0  0  0  0  0  0  0  0  0  0  0
  140.4010   71.4340  223.8350 N   0  0  0  0  0  0  0  0  0  0  0  0
  139.2470   70.5800  223.6340 C   0  0  0  0  0  0  0  0  0  0  0  0
  139.4540   69.3400  224.4790 C   0  0  0  0  0  0  0  0  0  0  0  0
  139.5490   69.7870  225.8940 C   0  0  0  0  0  0  0  0  0  0  0  0
  138.8560   69.1620  226.9220 C   0  0  0  0  0  0  0  0  0  0  0  0
  139.0000   69.6410  228.2080 C   0  0  0  0  0  0  0  0  0  0  0  0
  139.8150   70.7260  228.5050 C   0  0  0  0  0  0  0  0  0  0  0  0
  140.5020   71.3450  227.4890 C   0  0  0  0  0  0  0  0  0  0  0  0
  140.3580   70.8640  226.1880 C   0  0  0  0  0  0  0  0  0  0  0  0
  141.0960   71.5280  225.0880 C   0  0  0  0  0  0  0  0  0  0  0  0
  141.8240   71.7850  221.9040 N   0  0  0  0  0  0  0  0  0  0  0  0
  144.1220   72.9490  219.3480 C   0  0  0  0  0  0  0  0  0  0  0  0
  145.8870   74.3690  217.8460 H   0  0  0  0  0  0  0  0  0  0  0  0
  146.1128   70.7681  217.6610 H   0  0  0  0  0  0  0  0  0  0  0  0
  144.6428   69.1630  218.8188 H   0  0  0  0  0  0  0  0  0  0  0  0
  142.8177   69.9355  220.3281 H   0  0  0  0  0  0  0  0  0  0  0  0
  141.7492   76.6276  221.4315 H   0  0  0  0  0  0  0  0  0  0  0  0
  140.9136   76.6672  219.8240 H   0  0  0  0  0  0  0  0  0  0  0  0
  140.7077   78.6946  221.4837 H   0  0  0  0  0  0  0  0  0  0  0  0
  139.2762   78.0978  220.5444 H   0  0  0  0  0  0  0  0  0  0  0  0
  139.9766   77.4322  223.4126 H   0  0  0  0  0  0  0  0  0  0  0  0
  138.8118   80.0369  221.2356 H   0  0  0  0  0  0  0  0  0  0  0  0
  137.5663   78.8105  221.0120 H   0  0  0  0  0  0  0  0  0  0  0  0
  136.4933   81.0374  221.4443 H   0  0  0  0  0  0  0  0  0  0  0  0
  136.1767   79.9582  222.8396 H   0  0  0  0  0  0  0  0  0  0  0  0
  138.3082   82.1206  222.5940 H   0  0  0  0  0  0  0  0  0  0  0  0
  136.8685   82.0735  223.7026 H   0  0  0  0  0  0  0  0  0  0  0  0
  139.0826   81.5431  224.7807 H   0  0  0  0  0  0  0  0  0  0  0  0
  137.8019   80.3068  224.9810 H   0  0  0  0  0  0  0  0  0  0  0  0
  140.0149   80.2645  222.8627 H   0  0  0  0  0  0  0  0  0  0  0  0
  139.9896   79.2716  224.3401 H   0  0  0  0  0  0  0  0  0  0  0  0
  138.5694   75.8240  223.5008 H   0  0  0  0  0  0  0  0  0  0  0  0
  137.3284   76.7573  222.5435 H   0  0  0  0  0  0  0  0  0  0  0  0
  138.1657   74.5398  221.5417 H   0  0  0  0  0  0  0  0  0  0  0  0
  138.1585   75.9613  220.4804 H   0  0  0  0  0  0  0  0  0  0  0  0
  138.3320   71.1026  223.9497 H   0  0  0  0  0  0  0  0  0  0  0  0
  139.1380   70.3148  222.5720 H   0  0  0  0  0  0  0  0  0  0  0  0
  138.6034   68.6533  224.3564 H   0  0  0  0  0  0  0  0  0  0  0  0
  140.3663   68.8062  224.1746 H   0  0  0  0  0  0  0  0  0  0  0  0
  138.2040   68.3006  226.7150 H   0  0  0  0  0  0  0  0  0  0  0  0
  138.4518   69.1478  229.0242 H   0  0  0  0  0  0  0  0  0  0  0  0
  139.9091   71.0850  229.5405 H   0  0  0  0  0  0  0  0  0  0  0  0
  141.1546   72.2055  227.6982 H   0  0  0  0  0  0  0  0  0  0  0  0
  141.2285   72.5903  225.3409 H   0  0  0  0  0  0  0  0  0  0  0  0
  142.0649   71.0195  224.9759 H   0  0  0  0  0  0  0  0  0  0  0  0
  143.9642   74.0258  219.5081 H   0  0  0  0  0  0  0  0  0  0  0  0
  1  2  1  0
  2  3  2  0
  3  4  1  0
  4  5  2  0
  5  6  1  0
  6  7  1  0
  7  8  2  0
  8  9  1  0
  9 10  1  0
 10 11  1  0
 11 12  1  0
 12 13  1  0
 13 14  1  0
 14 15  1  0
 15 16  1  0
 16 17  1  0
 17 18  1  0
 18 19  1  0
 13 20  1  0
 20 21  1  0
  9 22  2  0
 22 23  1  0
 23 24  1  0
 24 25  1  0
 25 26  1  0
 26 27  1  0
 27 28  2  0
 28 29  1  0
 29 30  2  0
 30 31  1  0
 31 32  2  0
 32 33  1  0
 23 34  2  0
  6 35  2  0
 35  2  1  0
 34  7  1  0
 21 10  1  0
 33 24  1  0
 19 14  1  0
 32 27  1  0
  1 36  1  0
  3 37  1  0
  4 38  1  0
  5 39  1  0
 11 40  1  0
 11 41  1  0
 12 42  1  0
 12 43  1  0
 13 44  1  0
 15 45  1  0
 15 46  1  0
 16 47  1  0
 16 48  1  0
 17 49  1  0
 17 50  1  0
 18 51  1  0
 18 52  1  0
 19 53  1  0
 19 54  1  0
 20 55  1  0
 20 56  1  0
 21 57  1  0
 21 58  1  0
 25 59  1  0
 25 60  1  0
 26 61  1  0
 26 62  1  0
 28 63  1  0
 29 64  1  0
 30 65  1  0
 31 66  1  0
 33 67  1  0
 33 68  1  0
 35 69  1  0
M  END
>  <smiles>  (13) 
Oc1cccc(-c2nc(N3CCC(N4CCCCC4)CC3)nc(N3CCc4ccccc4C3)n2)c1

>  <score_type>  (13) 
oracle

>  <origin>  (13) 
autodockgpu

>  <m_score__min__energy>  (13) 
-9.6799999999999997

>  <m_primary>  (13) 
energy

>  <rmsd>  (13) 
6.220466705001791

>  <m_score__min__rmsd>  (13) 
6.220466705001791

>  <meeko>  (13) 
{"free_energy": -9.17, "intermolecular_energy": -10.67, "internal_energy": -1.18, "cluster_size": 35, "cluster_id": 1, "rank_in_cluster": 28}

>  <energy>  (13) 
-9.44

>  <cluster_rmsd>  (13) 
1.59

>  <cluster>  (13) 
1

$$$$

     RDKit          3D

 69 74  0  0  0  0  0  0  0  0999 V2000
  146.1840   73.1280  217.7630 O   0  0  0  0  0  0  0  0  0  0  0  0
  145.2180   72.3290  218.3600 C   0  0  0  0  0  0  0  0  0  0  0  0
  145.2320   70.9730  218.0420 C   0  0  0  0  0  0  0  0  0  0  0  0
  144.2930   70.1400  218.6100 C   0  0  0  0  0  0  0  0  0  0  0  0
  143.3310   70.6010  219.4880 C   0  0  0  0  0  0  0  0  0  0  0  0
  143.3530   71.9510  219.7740 C   0  0  0  0  0  0  0  0  0  0  0  0
  142.3570   72.4860  220.6970 C   0  0  0  0  0  0  0  0  0  0  0  0
  141.8740   73.7350  220.5370 N   0  0  0  0  0  0  0  0  0  0  0  0
  140.9540   74.2560  221.3710 C   0  0  0  0  0  0  0  0  0  0  0  0
  140.4160   75.5480  221.2540 N   0  0  0  0  0  0  0  0  0  0  0  0
  140.4170   76.2960  220.0130 C   0  0  0  0  0  0  0  0  0  0  0  0
  140.3340   77.7880  220.2630 C   0  0  0  0  0  0  0  0  0  0  0  0
  141.0830   78.1880  221.5070 C   0  0  0  0  0  0  0  0  0  0  0  0
  140.9160   79.6030  221.7090 N   0  0  0  0  0  0  0  0  0  0  0  0
  141.1990   80.3880  220.5230 C   0  0  0  0  0  0  0  0  0  0  0  0
  140.6320   81.7790  220.8330 C   0  0  0  0  0  0  0  0  0  0  0  0
  141.3680   82.3540  222.0160 C   0  0  0  0  0  0  0  0  0  0  0  0
  141.3910   81.4140  223.1860 C   0  0  0  0  0  0  0  0  0  0  0  0
  141.8610   80.0600  222.7120 C   0  0  0  0  0  0  0  0  0  0  0  0
  140.6970   77.4020  222.7250 C   0  0  0  0  0  0  0  0  0  0  0  0
  139.8150   76.2120  222.4100 C   0  0  0  0  0  0  0  0  0  0  0  0
  140.5210   73.4820  222.3910 N   0  0  0  0  0  0  0  0  0  0  0  0
  140.9670   72.2320  222.5980 C   0  0  0  0  0  0  0  0  0  0  0  0
  140.4820   71.4530  223.6830 N   0  0  0  0  0  0  0  0  0  0  0  0
  139.2320   70.7430  223.4950 C   0  0  0  0  0  0  0  0  0  0  0  0
  139.3340   69.4440  224.2670 C   0  0  0  0  0  0  0  0  0  0  0  0
  139.5380   69.8000  225.6960 C   0  0  0  0  0  0  0  0  0  0  0  0
  138.8240   69.2010  226.7240 C   0  0  0  0  0  0  0  0  0  0  0  0
  139.0750   69.5910  228.0240 C   0  0  0  0  0  0  0  0  0  0  0  0
  140.0190   70.5610  228.3350 C   0  0  0  0  0  0  0  0  0  0  0  0
  140.7270   71.1560  227.3180 C   0  0  0  0  0  0  0  0  0  0  0  0
  140.4750   70.7650  226.0040 C   0  0  0  0  0  0  0  0  0  0  0  0
  141.2360   71.4020  224.9030 C   0  0  0  0  0  0  0  0  0  0  0  0
  141.8860   71.7640  221.7300 N   0  0  0  0  0  0  0  0  0  0  0  0
  144.2730   72.8260  219.2330 C   0  0  0  0  0  0  0  0  0  0  0  0
  146.1120   74.1400  217.6930 H   0  0  0  0  0  0  0  0  0  0  0  0
  145.9835   70.5721  217.3459 H   0  0  0  0  0  0  0  0  0  0  0  0
  144.3098   69.0700  218.3554 H   0  0  0  0  0  0  0  0  0  0  0  0
  142.5860   69.9269  219.9359 H   0  0  0  0  0  0  0  0  0  0  0  0
  141.3449   76.0767  219.4644 H   0  0  0  0  0  0  0  0  0  0  0  0
  139.5354   75.9948  219.4282 H   0  0  0  0  0  0  0  0  0  0  0  0
  140.7656   78.3182  219.4013 H   0  0  0  0  0  0  0  0  0  0  0  0
  139.2755   78.0538  220.4002 H   0  0  0  0  0  0  0  0  0  0  0  0
  142.1461   77.9514  221.3527 H   0  0  0  0  0  0  0  0  0  0  0  0
  142.2828   80.4421  220.3430 H   0  0  0  0  0  0  0  0  0  0  0  0
  140.7544   79.9494  219.6175 H   0  0  0  0  0  0  0  0  0  0  0  0
  140.7659   82.4352  219.9603 H   0  0  0  0  0  0  0  0  0  0  0  0
  139.5593   81.7012  221.0635 H   0  0  0  0  0  0  0  0  0  0  0  0
  142.4039   82.5710  221.7164 H   0  0  0  0  0  0  0  0  0  0  0  0
  140.8400   83.2669  222.3288 H   0  0  0  0  0  0  0  0  0  0  0  0
  142.0793   81.7964  223.9541 H   0  0  0  0  0  0  0  0  0  0  0  0
  140.3830   81.3299  223.6182 H   0  0  0  0  0  0  0  0  0  0  0  0
  142.8660   80.1428  222.2726 H   0  0  0  0  0  0  0  0  0  0  0  0
  141.9134   79.3499  223.5505 H   0  0  0  0  0  0  0  0  0  0  0  0
  141.6139   77.0388  223.2122 H   0  0  0  0  0  0  0  0  0  0  0  0
  140.1208   78.0730  223.3790 H   0  0  0  0  0  0  0  0  0  0  0  0
  139.7817   75.5252  223.2686 H   0  0  0  0  0  0  0  0  0  0  0  0
  138.7823   76.5258  222.1977 H   0  0  0  0  0  0  0  0  0  0  0  0
  138.3953   71.3449  223.8791 H   0  0  0  0  0  0  0  0  0  0  0  0
  139.0497   70.5495  222.4276 H   0  0  0  0  0  0  0  0  0  0  0  0
  138.4074   68.8626  224.1515 H   0  0  0  0  0  0  0  0  0  0  0  0
  140.1672   68.8307  223.8933 H   0  0  0  0  0  0  0  0  0  0  0  0
  138.0712   68.4289  226.5067 H   0  0  0  0  0  0  0  0  0  0  0  0
  138.5090   69.1182  228.8402 H   0  0  0  0  0  0  0  0  0  0  0  0
  140.1978   70.8494  229.3814 H   0  0  0  0  0  0  0  0  0  0  0  0
  141.4797   71.9276  227.5374 H   0  0  0  0  0  0  0  0  0  0  0  0
  141.4983   72.4279  225.2007 H   0  0  0  0  0  0  0  0  0  0  0  0
  142.1358   70.7966  224.7194 H   0  0  0  0  0  0  0  0  0  0  0  0
  144.2530   73.8949  219.4920 H   0  0  0  0  0  0  0  0  0  0  0  0
  1  2  1  0
  2  3  2  0
  3  4  1  0
  4  5  2  0
  5  6  1  0
  6  7  1  0
  7  8  2  0
  8  9  1  0
  9 10  1  0
 10 11  1  0
 11 12  1  0
 12 13  1  0
 13 14  1  0
 14 15  1  0
 15 16  1  0
 16 17  1  0
 17 18  1  0
 18 19  1  0
 13 20  1  0
 20 21  1  0
  9 22  2  0
 22 23  1  0
 23 24  1  0
 24 25  1  0
 25 26  1  0
 26 27  1  0
 27 28  2  0
 28 29  1  0
 29 30  2  0
 30 31  1  0
 31 32  2  0
 32 33  1  0
 23 34  2  0
  6 35  2  0
 35  2  1  0
 34  7  1  0
 21 10  1  0
 33 24  1  0
 19 14  1  0
 32 27  1  0
  1 36  1  0
  3 37  1  0
  4 38  1  0
  5 39  1  0
 11 40  1  0
 11 41  1  0
 12 42  1  0
 12 43  1  0
 13 44  1  0
 15 45  1  0
 15 46  1  0
 16 47  1  0
 16 48  1  0
 17 49  1  0
 17 50  1  0
 18 51  1  0
 18 52  1  0
 19 53  1  0
 19 54  1  0
 20 55  1  0
 20 56  1  0
 21 57  1  0
 21 58  1  0
 25 59  1  0
 25 60  1  0
 26 61  1  0
 26 62  1  0
 28 63  1  0
 29 64  1  0
 30 65  1  0
 31 66  1  0
 33 67  1  0
 33 68  1  0
 35 69  1  0
M  END
>  <smiles>  (14) 
Oc1cccc(-c2nc(N3CCC(N4CCCCC4)CC3)nc(N3CCc4ccccc4C3)n2)c1

>  <score_type>  (14) 
oracle

>  <origin>  (14) 
autodockgpu

>  <m_score__min__energy>  (14) 
-9.6799999999999997

>  <m_primary>  (14) 
energy

>  <rmsd>  (14) 
5.640803348787396

>  <m_score__min__rmsd>  (14) 
5.640803348787396

>  <meeko>  (14) 
{"free_energy": -9.56, "intermolecular_energy": -11.05, "internal_energy": -1.14, "cluster_size": 35, "cluster_id": 1, "rank_in_cluster": 5}

>  <energy>  (14) 
-9.43

>  <cluster_rmsd>  (14) 
1.71

>  <cluster>  (14) 
1

$$$$

     RDKit          3D

 69 74  0  0  0  0  0  0  0  0999 V2000
  146.3160   73.0880  218.6840 O   0  0  0  0  0  0  0  0  0  0  0  0
  145.1030   72.4310  218.8430 C   0  0  0  0  0  0  0  0  0  0  0  0
  144.8790   71.3110  218.0460 C   0  0  0  0  0  0  0  0  0  0  0  0
  143.6900   70.6260  218.1680 C   0  0  0  0  0  0  0  0  0  0  0  0
  142.7050   71.0100  219.0570 C   0  0  0  0  0  0  0  0  0  0  0  0
  142.9670   72.1250  219.8260 C   0  0  0  0  0  0  0  0  0  0  0  0
  141.9560   72.5700  220.7810 C   0  0  0  0  0  0  0  0  0  0  0  0
  141.3130   73.7410  220.6020 N   0  0  0  0  0  0  0  0  0  0  0  0
  140.3760   74.1780  221.4650 C   0  0  0  0  0  0  0  0  0  0  0  0
  139.6740   75.3870  221.3310 N   0  0  0  0  0  0  0  0  0  0  0  0
  140.2900   76.6120  220.8620 C   0  0  0  0  0  0  0  0  0  0  0  0
  139.5360   77.8350  221.3430 C   0  0  0  0  0  0  0  0  0  0  0  0
  138.9700   77.6320  222.7250 C   0  0  0  0  0  0  0  0  0  0  0  0
  138.2240   78.8080  223.0930 N   0  0  0  0  0  0  0  0  0  0  0  0
  137.7690   79.5760  221.9500 C   0  0  0  0  0  0  0  0  0  0  0  0
  136.7280   80.5460  222.5250 C   0  0  0  0  0  0  0  0  0  0  0  0
  137.4050   81.4560  223.5190 C   0  0  0  0  0  0  0  0  0  0  0  0
  138.1860   80.6940  224.5500 C   0  0  0  0  0  0  0  0  0  0  0  0
  139.0820   79.7030  223.8460 C   0  0  0  0  0  0  0  0  0  0  0  0
  138.1480   76.3860  222.8660 C   0  0  0  0  0  0  0  0  0  0  0  0
  138.2530   75.4650  221.6680 C   0  0  0  0  0  0  0  0  0  0  0  0
  140.0920   73.3990  222.5330 N   0  0  0  0  0  0  0  0  0  0  0  0
  140.7020   72.2240  222.7600 C   0  0  0  0  0  0  0  0  0  0  0  0
  140.3720   71.4360  223.8950 N   0  0  0  0  0  0  0  0  0  0  0  0
  139.3310   70.4390  223.7420 C   0  0  0  0  0  0  0  0  0  0  0  0
  139.7040   69.2630  224.6200 C   0  0  0  0  0  0  0  0  0  0  0  0
  139.7640   69.7640  226.0190 C   0  0  0  0  0  0  0  0  0  0  0  0
  139.1700   69.0920  227.0780 C   0  0  0  0  0  0  0  0  0  0  0  0
  139.2730   69.6260  228.3460 C   0  0  0  0  0  0  0  0  0  0  0  0
  139.9510   70.8130  228.5940 C   0  0  0  0  0  0  0  0  0  0  0  0
  140.5400   71.4800  227.5460 C   0  0  0  0  0  0  0  0  0  0  0  0
  140.4370   70.9420  226.2640 C   0  0  0  0  0  0  0  0  0  0  0  0
  141.0690   71.6560  225.1300 C   0  0  0  0  0  0  0  0  0  0  0  0
  141.6310   71.8380  221.8620 N   0  0  0  0  0  0  0  0  0  0  0  0
  144.1420   72.8440  219.7420 C   0  0  0  0  0  0  0  0  0  0  0  0
  146.4130   74.1000  218.6860 H   0  0  0  0  0  0  0  0  0  0  0  0
  145.6424   70.9774  217.3277 H   0  0  0  0  0  0  0  0  0  0  0  0
  143.5191   69.7425  217.5354 H   0  0  0  0  0  0  0  0  0  0  0  0
  141.7596   70.4549  219.1472 H   0  0  0  0  0  0  0  0  0  0  0  0
  141.3228   76.6588  221.2376 H   0  0  0  0  0  0  0  0  0  0  0  0
  140.2719   76.6071  219.7622 H   0  0  0  0  0  0  0  0  0  0  0  0
  140.2236   78.6934  221.3618 H   0  0  0  0  0  0  0  0  0  0  0  0
  138.6991   78.0159  220.6525 H   0  0  0  0  0  0  0  0  0  0  0  0
  139.8123   77.4855  223.4171 H   0  0  0  0  0  0  0  0  0  0  0  0
  138.6048   80.1281  221.4955 H   0  0  0  0  0  0  0  0  0  0  0  0
  137.3513   78.9373  221.1578 H   0  0  0  0  0  0  0  0  0  0  0  0
  136.2932   81.1457  221.7118 H   0  0  0  0  0  0  0  0  0  0  0  0
  135.9266   79.9805  223.0230 H   0  0  0  0  0  0  0  0  0  0  0  0
  138.0915   82.1232  222.9772 H   0  0  0  0  0  0  0  0  0  0  0  0
  136.6219   82.0241  224.0425 H   0  0  0  0  0  0  0  0  0  0  0  0
  138.7981   81.3916  225.1405 H   0  0  0  0  0  0  0  0  0  0  0  0
  137.4976   80.1630  225.2239 H   0  0  0  0  0  0  0  0  0  0  0  0
  139.7660   80.2309  223.1651 H   0  0  0  0  0  0  0  0  0  0  0  0
  139.6899   79.1425  224.5714 H   0  0  0  0  0  0  0  0  0  0  0  0
  138.4898   75.8404  223.7579 H   0  0  0  0  0  0  0  0  0  0  0  0
  137.0958   76.6955  222.9500 H   0  0  0  0  0  0  0  0  0  0  0  0
  137.8665   74.4666  221.9206 H   0  0  0  0  0  0  0  0  0  0  0  0
  137.6622   75.8435  220.8208 H   0  0  0  0  0  0  0  0  0  0  0  0
  138.3627   70.8536  224.0589 H   0  0  0  0  0  0  0  0  0  0  0  0
  139.2401   70.1279  222.6908 H   0  0  0  0  0  0  0  0  0  0  0  0
  138.9441   68.4723  224.5346 H   0  0  0  0  0  0  0  0  0  0  0  0
  140.6712   68.8374  224.3145 H   0  0  0  0  0  0  0  0  0  0  0  0
  138.6268   68.1505  226.9095 H   0  0  0  0  0  0  0  0  0  0  0  0
  138.8034   69.0951  229.1872 H   0  0  0  0  0  0  0  0  0  0  0  0
  140.0158   71.2142  229.6162 H   0  0  0  0  0  0  0  0  0  0  0  0
  141.0829   72.4215  227.7160 H   0  0  0  0  0  0  0  0  0  0  0  0
  141.0722   72.7342  225.3478 H   0  0  0  0  0  0  0  0  0  0  0  0
  142.0918   71.2680  225.0144 H   0  0  0  0  0  0  0  0  0  0  0  0
  144.3083   73.7263  220.3775 H   0  0  0  0  0  0  0  0  0  0  0  0
  1  2  1  0
  2  3  2  0
  3  4  1  0
  4  5  2  0
  5  6  1  0
  6  7  1  0
  7  8  2  0
  8  9  1  0
  9 10  1  0
 10 11  1  0
 11 12  1  0
 12 13  1  0
 13 14  1  0
 14 15  1  0
 15 16  1  0
 16 17  1  0
 17 18  1  0
 18 19  1  0
 13 20  1  0
 20 21  1  0
  9 22  2  0
 22 23  1  0
 23 24  1  0
 24 25  1  0
 25 26  1  0
 26 27  1  0
 27 28  2  0
 28 29  1  0
 29 30  2  0
 30 31  1  0
 31 32  2  0
 32 33  1  0
 23 34  2  0
  6 35  2  0
 35  2  1  0
 34  7  1  0
 21 10  1  0
 33 24  1  0
 19 14  1  0
 32 27  1  0
  1 36  1  0
  3 37  1  0
  4 38  1  0
  5 39  1  0
 11 40  1  0
 11 41  1  0
 12 42  1  0
 12 43  1  0
 13 44  1  0
 15 45  1  0
 15 46  1  0
 16 47  1  0
 16 48  1  0
 17 49  1  0
 17 50  1  0
 18 51  1  0
 18 52  1  0
 19 53  1  0
 19 54  1  0
 20 55  1  0
 20 56  1  0
 21 57  1  0
 21 58  1  0
 25 59  1  0
 25 60  1  0
 26 61  1  0
 26 62  1  0
 28 63  1  0
 29 64  1  0
 30 65  1  0
 31 66  1  0
 33 67  1  0
 33 68  1  0
 35 69  1  0
M  END
>  <smiles>  (15) 
Oc1cccc(-c2nc(N3CCC(N4CCCCC4)CC3)nc(N3CCc4ccccc4C3)n2)c1

>  <score_type>  (15) 
oracle

>  <origin>  (15) 
autodockgpu

>  <m_score__min__energy>  (15) 
-9.6799999999999997

>  <m_primary>  (15) 
energy

>  <rmsd>  (15) 
6.405786473355304

>  <m_score__min__rmsd>  (15) 
6.405786473355304

>  <meeko>  (15) 
{"free_energy": -9.43, "intermolecular_energy": -10.92, "internal_energy": -1.17, "cluster_size": 35, "cluster_id": 1, "rank_in_cluster": 14}

>  <energy>  (15) 
-9.42

>  <cluster_rmsd>  (15) 
1.7

>  <cluster>  (15) 
1

$$$$

     RDKit          3D

 69 74  0  0  0  0  0  0  0  0999 V2000
  140.2650   82.7200  221.9570 O   0  0  0  0  0  0  0  0  0  0  0  0
  140.7590   81.5400  222.5000 C   0  0  0  0  0  0  0  0  0  0  0  0
  141.9040   81.6360  223.2870 C   0  0  0  0  0  0  0  0  0  0  0  0
  142.4320   80.4940  223.8490 C   0  0  0  0  0  0  0  0  0  0  0  0
  141.8640   79.2480  223.6590 C   0  0  0  0  0  0  0  0  0  0  0  0
  140.7310   79.1990  222.8730 C   0  0  0  0  0  0  0  0  0  0  0  0
  140.0940   77.9060  222.6430 C   0  0  0  0  0  0  0  0  0  0  0  0
  138.7800   77.7340  222.8940 N   0  0  0  0  0  0  0  0  0  0  0  0
  138.1660   76.5530  222.6920 C   0  0  0  0  0  0  0  0  0  0  0  0
  136.8030   76.3160  222.9340 N   0  0  0  0  0  0  0  0  0  0  0  0
  135.8640   77.3660  223.2760 C   0  0  0  0  0  0  0  0  0  0  0  0
  134.6680   76.8210  224.0280 C   0  0  0  0  0  0  0  0  0  0  0  0
  135.0520   75.6830  224.9380 C   0  0  0  0  0  0  0  0  0  0  0  0
  133.8620   75.1830  225.5760 N   0  0  0  0  0  0  0  0  0  0  0  0
  133.5730   75.8330  226.8390 C   0  0  0  0  0  0  0  0  0  0  0  0
  132.1290   75.4290  227.1630 C   0  0  0  0  0  0  0  0  0  0  0  0
  132.0670   73.9320  227.3310 C   0  0  0  0  0  0  0  0  0  0  0  0
  132.6750   73.2020  226.1680 C   0  0  0  0  0  0  0  0  0  0  0  0
  134.0430   73.7780  225.8940 C   0  0  0  0  0  0  0  0  0  0  0  0
  135.8170   74.5910  224.2520 C   0  0  0  0  0  0  0  0  0  0  0  0
  136.2560   74.9620  222.8510 C   0  0  0  0  0  0  0  0  0  0  0  0
  138.9110   75.5280  222.2240 N   0  0  0  0  0  0  0  0  0  0  0  0
  140.2230   75.6430  221.9580 C   0  0  0  0  0  0  0  0  0  0  0  0
  140.9680   74.5380  221.4660 N   0  0  0  0  0  0  0  0  0  0  0  0
  140.4990   73.2080  221.8010 C   0  0  0  0  0  0  0  0  0  0  0  0
  140.8060   72.3130  220.6180 C   0  0  0  0  0  0  0  0  0  0  0  0
  142.2820   72.3290  220.4300 C   0  0  0  0  0  0  0  0  0  0  0  0
  143.0210   71.1710  220.2310 C   0  0  0  0  0  0  0  0  0  0  0  0
  144.3870   71.2750  220.0650 C   0  0  0  0  0  0  0  0  0  0  0  0
  145.0430   72.4990  220.0920 C   0  0  0  0  0  0  0  0  0  0  0  0
  144.3130   73.6460  220.2900 C   0  0  0  0  0  0  0  0  0  0  0  0
  142.9330   73.5440  220.4580 C   0  0  0  0  0  0  0  0  0  0  0  0
  142.1390   74.7770  220.6710 C   0  0  0  0  0  0  0  0  0  0  0  0
  140.7840   76.8480  222.1780 N   0  0  0  0  0  0  0  0  0  0  0  0
  140.1650   80.3150  222.2890 C   0  0  0  0  0  0  0  0  0  0  0  0
  140.6070   83.1260  221.0900 H   0  0  0  0  0  0  0  0  0  0  0  0
  142.3814   82.6122  223.4580 H   0  0  0  0  0  0  0  0  0  0  0  0
  143.3362   80.5766  224.4699 H   0  0  0  0  0  0  0  0  0  0  0  0
  142.2934   78.3419  224.1113 H   0  0  0  0  0  0  0  0  0  0  0  0
  136.3738   78.1093  223.9066 H   0  0  0  0  0  0  0  0  0  0  0  0
  135.5043   77.8233  222.3425 H   0  0  0  0  0  0  0  0  0  0  0  0
  134.2292   77.6283  224.6327 H   0  0  0  0  0  0  0  0  0  0  0  0
  133.9443   76.4415  223.2916 H   0  0  0  0  0  0  0  0  0  0  0  0
  135.7496   76.0742  225.6932 H   0  0  0  0  0  0  0  0  0  0  0  0
  134.2596   75.4806  227.6228 H   0  0  0  0  0  0  0  0  0  0  0  0
  133.6975   76.9245  226.7836 H   0  0  0  0  0  0  0  0  0  0  0  0
  131.8086   75.9187  228.0944 H   0  0  0  0  0  0  0  0  0  0  0  0
  131.4624   75.7403  226.3453 H   0  0  0  0  0  0  0  0  0  0  0  0
  132.6118   73.6559  228.2458 H   0  0  0  0  0  0  0  0  0  0  0  0
  131.0071   73.6440  227.3920 H   0  0  0  0  0  0  0  0  0  0  0  0
  132.7656   72.1326  226.4092 H   0  0  0  0  0  0  0  0  0  0  0  0
  132.0364   73.3163  225.2797 H   0  0  0  0  0  0  0  0  0  0  0  0
  134.6814   73.6722  226.7835 H   0  0  0  0  0  0  0  0  0  0  0  0
  134.5296   73.2490  225.0613 H   0  0  0  0  0  0  0  0  0  0  0  0
  136.7115   74.3616  224.8498 H   0  0  0  0  0  0  0  0  0  0  0  0
  135.1451   73.7243  224.1661 H   0  0  0  0  0  0  0  0  0  0  0  0
  137.0263   74.2617  222.4958 H   0  0  0  0  0  0  0  0  0  0  0  0
  135.4146   74.9147  222.1440 H   0  0  0  0  0  0  0  0  0  0  0  0
  141.0195   72.8396  222.6973 H   0  0  0  0  0  0  0  0  0  0  0  0
  139.4198   73.2169  222.0140 H   0  0  0  0  0  0  0  0  0  0  0  0
  140.4624   71.2879  220.8209 H   0  0  0  0  0  0  0  0  0  0  0  0
  140.2918   72.6692  219.7132 H   0  0  0  0  0  0  0  0  0  0  0  0
  142.5269   70.1885  220.2061 H   0  0  0  0  0  0  0  0  0  0  0  0
  144.9752   70.3592  219.9062 H   0  0  0  0  0  0  0  0  0  0  0  0
  146.1335   72.5494  219.9565 H   0  0  0  0  0  0  0  0  0  0  0  0
  144.8089   74.6276  220.3155 H   0  0  0  0  0  0  0  0  0  0  0  0
  142.7688   75.5198  221.1825 H   0  0  0  0  0  0  0  0  0  0  0  0
  141.8099   75.1407  219.6864 H   0  0  0  0  0  0  0  0  0  0  0  0
  139.2603   80.2279  221.6694 H   0  0  0  0  0  0  0  0  0  0  0  0
  1  2  1  0
  2  3  2  0
  3  4  1  0
  4  5  2  0
  5  6  1  0
  6  7  1  0
  7  8  2  0
  8  9  1  0
  9 10  1  0
 10 11  1  0
 11 12  1  0
 12 13  1  0
 13 14  1  0
 14 15  1  0
 15 16  1  0
 16 17  1  0
 17 18  1  0
 18 19  1  0
 13 20  1  0
 20 21  1  0
  9 22  2  0
 22 23  1  0
 23 24  1  0
 24 25  1  0
 25 26  1  0
 26 27  1  0
 27 28  2  0
 28 29  1  0
 29 30  2  0
 30 31  1  0
 31 32  2  0
 32 33  1  0
 23 34  2  0
  6 35  2  0
 35  2  1  0
 34  7  1  0
 21 10  1  0
 33 24  1  0
 19 14  1  0
 32 27  1  0
  1 36  1  0
  3 37  1  0
  4 38  1  0
  5 39  1  0
 11 40  1  0
 11 41  1  0
 12 42  1  0
 12 43  1  0
 13 44  1  0
 15 45  1  0
 15 46  1  0
 16 47  1  0
 16 48  1  0
 17 49  1  0
 17 50  1  0
 18 51  1  0
 18 52  1  0
 19 53  1  0
 19 54  1  0
 20 55  1  0
 20 56  1  0
 21 57  1  0
 21 58  1  0
 25 59  1  0
 25 60  1  0
 26 61  1  0
 26 62  1  0
 28 63  1  0
 29 64  1  0
 30 65  1  0
 31 66  1  0
 33 67  1  0
 33 68  1  0
 35 69  1  0
M  END
>  <smiles>  (16) 
Oc1cccc(-c2nc(N3CCC(N4CCCCC4)CC3)nc(N3CCc4ccccc4C3)n2)c1

>  <score_type>  (16) 
oracle

>  <origin>  (16) 
autodockgpu

>  <m_score__min__energy>  (16) 
-9.6799999999999997

>  <m_primary>  (16) 
energy

>  <rmsd>  (16) 
10.095712043250517

>  <m_score__min__rmsd>  (16) 
10.095712043250517

>  <meeko>  (16) 
{"free_energy": -8.48, "intermolecular_energy": -9.97, "internal_energy": -1.18, "cluster_size": 13, "cluster_id": 2, "rank_in_cluster": 12}

>  <energy>  (16) 
-9.39

>  <cluster_rmsd>  (16) 
1.75

>  <cluster>  (16) 
1

$$$$

     RDKit          3D

 69 74  0  0  0  0  0  0  0  0999 V2000
  143.9650   80.4780  223.0730 O   0  0  0  0  0  0  0  0  0  0  0  0
  142.5930   80.2760  223.1310 C   0  0  0  0  0  0  0  0  0  0  0  0
  141.8040   81.3770  223.4570 C   0  0  0  0  0  0  0  0  0  0  0  0
  140.4360   81.2270  223.5260 C   0  0  0  0  0  0  0  0  0  0  0  0
  139.8130   80.0170  223.2850 C   0  0  0  0  0  0  0  0  0  0  0  0
  140.6320   78.9530  222.9670 C   0  0  0  0  0  0  0  0  0  0  0  0
  140.0210   77.6540  222.7030 C   0  0  0  0  0  0  0  0  0  0  0  0
  138.7100   77.4520  222.9450 N   0  0  0  0  0  0  0  0  0  0  0  0
  138.1180   76.2650  222.7110 C   0  0  0  0  0  0  0  0  0  0  0  0
  136.7590   75.9960  222.9430 N   0  0  0  0  0  0  0  0  0  0  0  0
  135.8210   76.9980  223.4060 C   0  0  0  0  0  0  0  0  0  0  0  0
  134.6350   76.3700  224.1090 C   0  0  0  0  0  0  0  0  0  0  0  0
  135.0350   75.1430  224.8880 C   0  0  0  0  0  0  0  0  0  0  0  0
  133.8560   74.5710  225.4820 N   0  0  0  0  0  0  0  0  0  0  0  0
  133.3710   75.3200  226.6260 C   0  0  0  0  0  0  0  0  0  0  0  0
  131.9590   74.7750  226.8770 C   0  0  0  0  0  0  0  0  0  0  0  0
  132.0560   73.3100  227.2250 C   0  0  0  0  0  0  0  0  0  0  0  0
  132.8550   72.5360  226.2170 C   0  0  0  0  0  0  0  0  0  0  0  0
  134.1670   73.2470  225.9870 C   0  0  0  0  0  0  0  0  0  0  0  0
  135.7960   74.1350  224.0800 C   0  0  0  0  0  0  0  0  0  0  0  0
  136.2170   74.6550  222.7210 C   0  0  0  0  0  0  0  0  0  0  0  0
  138.8840   75.2660  222.2200 N   0  0  0  0  0  0  0  0  0  0  0  0
  140.1940   75.4120  221.9610 C   0  0  0  0  0  0  0  0  0  0  0  0
  140.9620   74.3350  221.4440 N   0  0  0  0  0  0  0  0  0  0  0  0
  140.4930   72.9880  221.7070 C   0  0  0  0  0  0  0  0  0  0  0  0
  140.8410   72.1470  220.4970 C   0  0  0  0  0  0  0  0  0  0  0  0
  142.3210   72.1810  220.3530 C   0  0  0  0  0  0  0  0  0  0  0  0
  143.0750   71.0380  220.1250 C   0  0  0  0  0  0  0  0  0  0  0  0
  144.4440   71.1570  220.0040 C   0  0  0  0  0  0  0  0  0  0  0  0
  145.0900   72.3830  220.1020 C   0  0  0  0  0  0  0  0  0  0  0  0
  144.3450   73.5160  220.3270 C   0  0  0  0  0  0  0  0  0  0  0  0
  142.9610   73.3980  220.4510 C   0  0  0  0  0  0  0  0  0  0  0  0
  142.1530   74.6150  220.6940 C   0  0  0  0  0  0  0  0  0  0  0  0
  140.7320   76.6220  222.2140 N   0  0  0  0  0  0  0  0  0  0  0  0
  142.0060   79.0540  222.8840 C   0  0  0  0  0  0  0  0  0  0  0  0
  144.5680   80.0490  222.3750 H   0  0  0  0  0  0  0  0  0  0  0  0
  142.2676   82.3543  223.6569 H   0  0  0  0  0  0  0  0  0  0  0  0
  139.8183   82.1005  223.7818 H   0  0  0  0  0  0  0  0  0  0  0  0
  138.7200   79.9078  223.3437 H   0  0  0  0  0  0  0  0  0  0  0  0
  136.3356   77.6717  224.1069 H   0  0  0  0  0  0  0  0  0  0  0  0
  135.4487   77.5509  222.5309 H   0  0  0  0  0  0  0  0  0  0  0  0
  134.2002   77.1059  224.8014 H   0  0  0  0  0  0  0  0  0  0  0  0
  133.9036   76.0680  223.3449 H   0  0  0  0  0  0  0  0  0  0  0  0
  135.7397   75.4554  225.6727 H   0  0  0  0  0  0  0  0  0  0  0  0
  134.0140   75.1499  227.5021 H   0  0  0  0  0  0  0  0  0  0  0  0
  133.3726   76.4049  226.4446 H   0  0  0  0  0  0  0  0  0  0  0  0
  131.4944   75.3226  227.7102 H   0  0  0  0  0  0  0  0  0  0  0  0
  131.3435   74.9040  225.9745 H   0  0  0  0  0  0  0  0  0  0  0  0
  132.5376   73.2114  228.2091 H   0  0  0  0  0  0  0  0  0  0  0  0
  131.0360   72.8982  227.2335 H   0  0  0  0  0  0  0  0  0  0  0  0
  133.0458   71.5214  226.5966 H   0  0  0  0  0  0  0  0  0  0  0  0
  132.2970   72.4659  225.2716 H   0  0  0  0  0  0  0  0  0  0  0  0
  134.7236   73.3257  226.9325 H   0  0  0  0  0  0  0  0  0  0  0  0
  134.7905   72.6927  225.2701 H   0  0  0  0  0  0  0  0  0  0  0  0
  136.6985   73.8478  224.6394 H   0  0  0  0  0  0  0  0  0  0  0  0
  135.1260   73.2794  223.9096 H   0  0  0  0  0  0  0  0  0  0  0  0
  136.9863   74.0009  222.2847 H   0  0  0  0  0  0  0  0  0  0  0  0
  135.3681   74.6781  222.0218 H   0  0  0  0  0  0  0  0  0  0  0  0
  140.9895   72.5843  222.6017 H   0  0  0  0  0  0  0  0  0  0  0  0
  139.4079   72.9812  221.8875 H   0  0  0  0  0  0  0  0  0  0  0  0
  140.4999   71.1119  220.6460 H   0  0  0  0  0  0  0  0  0  0  0  0
  140.3502   72.5381  219.5936 H   0  0  0  0  0  0  0  0  0  0  0  0
  142.5893   70.0545  220.0423 H   0  0  0  0  0  0  0  0  0  0  0  0
  145.0433   70.2523  219.8242 H   0  0  0  0  0  0  0  0  0  0  0  0
  146.1835   72.4462  220.0009 H   0  0  0  0  0  0  0  0  0  0  0  0
  144.8321   74.4989  220.4078 H   0  0  0  0  0  0  0  0  0  0  0  0
  142.7627   75.3387  221.2548 H   0  0  0  0  0  0  0  0  0  0  0  0
  141.8493   75.0189  219.7170 H   0  0  0  0  0  0  0  0  0  0  0  0
  142.6192   78.1779  222.6263 H   0  0  0  0  0  0  0  0  0  0  0  0
  1  2  1  0
  2  3  2  0
  3  4  1  0
  4  5  2  0
  5  6  1  0
  6  7  1  0
  7  8  2  0
  8  9  1  0
  9 10  1  0
 10 11  1  0
 11 12  1  0
 12 13  1  0
 13 14  1  0
 14 15  1  0
 15 16  1  0
 16 17  1  0
 17 18  1  0
 18 19  1  0
 13 20  1  0
 20 21  1  0
  9 22  2  0
 22 23  1  0
 23 24  1  0
 24 25  1  0
 25 26  1  0
 26 27  1  0
 27 28  2  0
 28 29  1  0
 29 30  2  0
 30 31  1  0
 31 32  2  0
 32 33  1  0
 23 34  2  0
  6 35  2  0
 35  2  1  0
 34  7  1  0
 21 10  1  0
 33 24  1  0
 19 14  1  0
 32 27  1  0
  1 36  1  0
  3 37  1  0
  4 38  1  0
  5 39  1  0
 11 40  1  0
 11 41  1  0
 12 42  1  0
 12 43  1  0
 13 44  1  0
 15 45  1  0
 15 46  1  0
 16 47  1  0
 16 48  1  0
 17 49  1  0
 17 50  1  0
 18 51  1  0
 18 52  1  0
 19 53  1  0
 19 54  1  0
 20 55  1  0
 20 56  1  0
 21 57  1  0
 21 58  1  0
 25 59  1  0
 25 60  1  0
 26 61  1  0
 26 62  1  0
 28 63  1  0
 29 64  1  0
 30 65  1  0
 31 66  1  0
 33 67  1  0
 33 68  1  0
 35 69  1  0
M  END
>  <smiles>  (17) 
Oc1cccc(-c2nc(N3CCC(N4CCCCC4)CC3)nc(N3CCc4ccccc4C3)n2)c1

>  <score_type>  (17) 
oracle

>  <origin>  (17) 
autodockgpu

>  <m_score__min__energy>  (17) 
-9.6799999999999997

>  <m_primary>  (17) 
energy

>  <rmsd>  (17) 
10.266307281401204

>  <m_score__min__rmsd>  (17) 
10.266307281401204

>  <meeko>  (17) 
{"free_energy": -8.84, "intermolecular_energy": -10.33, "internal_energy": -1.18, "cluster_size": 13, "cluster_id": 2, "rank_in_cluster": 4}

>  <energy>  (17) 
-9.39

>  <cluster_rmsd>  (17) 
1.83

>  <cluster>  (17) 
1

$$$$

     RDKit          3D

 69 74  0  0  0  0  0  0  0  0999 V2000
  146.6110   71.1570  219.5050 O   0  0  0  0  0  0  0  0  0  0  0  0
  145.2670   71.3060  219.1870 C   0  0  0  0  0  0  0  0  0  0  0  0
  144.8710   70.9170  217.9090 C   0  0  0  0  0  0  0  0  0  0  0  0
  143.5480   71.0440  217.5470 C   0  0  0  0  0  0  0  0  0  0  0  0
  142.5920   71.5480  218.4100 C   0  0  0  0  0  0  0  0  0  0  0  0
  143.0280   71.9220  219.6650 C   0  0  0  0  0  0  0  0  0  0  0  0
  142.0550   72.4590  220.6110 C   0  0  0  0  0  0  0  0  0  0  0  0
  141.5400   73.6930  220.4380 N   0  0  0  0  0  0  0  0  0  0  0  0
  140.6410   74.2150  221.2940 C   0  0  0  0  0  0  0  0  0  0  0  0
  140.0700   75.4920  221.1660 N   0  0  0  0  0  0  0  0  0  0  0  0
  139.8400   76.1310  219.8860 C   0  0  0  0  0  0  0  0  0  0  0  0
  139.7780   77.6390  220.0190 C   0  0  0  0  0  0  0  0  0  0  0  0
  140.7300   78.1450  221.0720 C   0  0  0  0  0  0  0  0  0  0  0  0
  140.5790   79.5720  221.1800 N   0  0  0  0  0  0  0  0  0  0  0  0
  141.7630   80.3050  220.7750 C   0  0  0  0  0  0  0  0  0  0  0  0
  141.2890   81.7560  220.6240 C   0  0  0  0  0  0  0  0  0  0  0  0
  140.8090   82.2550  221.9640 C   0  0  0  0  0  0  0  0  0  0  0  0
  139.8060   81.3320  222.5910 C   0  0  0  0  0  0  0  0  0  0  0  0
  140.3580   79.9270  222.5700 C   0  0  0  0  0  0  0  0  0  0  0  0
  140.5770   77.4670  222.4010 C   0  0  0  0  0  0  0  0  0  0  0  0
  139.6730   76.2530  222.3500 C   0  0  0  0  0  0  0  0  0  0  0  0
  140.2630   73.4590  222.3490 N   0  0  0  0  0  0  0  0  0  0  0  0
  140.7450   72.2240  222.5690 C   0  0  0  0  0  0  0  0  0  0  0  0
  140.3180   71.4630  223.6910 N   0  0  0  0  0  0  0  0  0  0  0  0
  139.1210   70.6600  223.5420 C   0  0  0  0  0  0  0  0  0  0  0  0
  139.3160   69.4080  224.3710 C   0  0  0  0  0  0  0  0  0  0  0  0
  139.4980   69.8420  225.7820 C   0  0  0  0  0  0  0  0  0  0  0  0
  138.8290   69.2410  226.8400 C   0  0  0  0  0  0  0  0  0  0  0  0
  139.0550   69.7060  228.1200 C   0  0  0  0  0  0  0  0  0  0  0  0
  139.9290   70.7540  228.3810 C   0  0  0  0  0  0  0  0  0  0  0  0
  140.5920   71.3500  227.3340 C   0  0  0  0  0  0  0  0  0  0  0  0
  140.3650   70.8820  226.0410 C   0  0  0  0  0  0  0  0  0  0  0  0
  141.0760   71.5200  224.9080 C   0  0  0  0  0  0  0  0  0  0  0  0
  141.6400   71.7540  221.6790 N   0  0  0  0  0  0  0  0  0  0  0  0
  144.3410   71.8120  220.0740 C   0  0  0  0  0  0  0  0  0  0  0  0
  146.9740   71.2140  220.4530 H   0  0  0  0  0  0  0  0  0  0  0  0
  145.6063   70.5132  217.1974 H   0  0  0  0  0  0  0  0  0  0  0  0
  143.2414   70.7340  216.5371 H   0  0  0  0  0  0  0  0  0  0  0  0
  141.5378   71.6458  218.1114 H   0  0  0  0  0  0  0  0  0  0  0  0
  140.6600   75.8663  219.2023 H   0  0  0  0  0  0  0  0  0  0  0  0
  138.8737   75.7799  219.4947 H   0  0  0  0  0  0  0  0  0  0  0  0
  140.0413   78.0933  219.0524 H   0  0  0  0  0  0  0  0  0  0  0  0
  138.7564   77.9152  220.3190 H   0  0  0  0  0  0  0  0  0  0  0  0
  141.7526   77.8965  220.7520 H   0  0  0  0  0  0  0  0  0  0  0  0
  142.5470   80.2308  221.5430 H   0  0  0  0  0  0  0  0  0  0  0  0
  142.1994   79.9105  219.8455 H   0  0  0  0  0  0  0  0  0  0  0  0
  142.1227   82.3823  220.2738 H   0  0  0  0  0  0  0  0  0  0  0  0
  140.4693   81.8061  219.8922 H   0  0  0  0  0  0  0  0  0  0  0  0
  141.6739   82.3471  222.6374 H   0  0  0  0  0  0  0  0  0  0  0  0
  140.3179   83.2263  221.8045 H   0  0  0  0  0  0  0  0  0  0  0  0
  139.6190   81.6402  223.6302 H   0  0  0  0  0  0  0  0  0  0  0  0
  138.8607   81.3706  222.0299 H   0  0  0  0  0  0  0  0  0  0  0  0
  141.3072   79.8869  223.1245 H   0  0  0  0  0  0  0  0  0  0  0  0
  139.6565   79.2253  223.0449 H   0  0  0  0  0  0  0  0  0  0  0  0
  141.5712   77.1485  222.7476 H   0  0  0  0  0  0  0  0  0  0  0  0
  140.1134   78.1916  223.0866 H   0  0  0  0  0  0  0  0  0  0  0  0
  139.8039   75.6429  223.2559 H   0  0  0  0  0  0  0  0  0  0  0  0
  138.6140   76.5462  222.2990 H   0  0  0  0  0  0  0  0  0  0  0  0
  138.2450   71.2186  223.9033 H   0  0  0  0  0  0  0  0  0  0  0  0
  138.9500   70.4062  222.4855 H   0  0  0  0  0  0  0  0  0  0  0  0
  138.4323   68.7584  224.2870 H   0  0  0  0  0  0  0  0  0  0  0  0
  140.1894   68.8384  224.0207 H   0  0  0  0  0  0  0  0  0  0  0  0
  138.1315   68.4094  226.6614 H   0  0  0  0  0  0  0  0  0  0  0  0
  138.5263   69.2317  228.9600 H   0  0  0  0  0  0  0  0  0  0  0  0
  140.0886   71.1025  229.4120 H   0  0  0  0  0  0  0  0  0  0  0  0
  141.2893   72.1815  227.5138 H   0  0  0  0  0  0  0  0  0  0  0  0
  141.2663   72.5742  225.1577 H   0  0  0  0  0  0  0  0  0  0  0  0
  142.0154   70.9708  224.7467 H   0  0  0  0  0  0  0  0  0  0  0  0
  144.6424   72.1213  221.0857 H   0  0  0  0  0  0  0  0  0  0  0  0
  1  2  1  0
  2  3  2  0
  3  4  1  0
  4  5  2  0
  5  6  1  0
  6  7  1  0
  7  8  2  0
  8  9  1  0
  9 10  1  0
 10 11  1  0
 11 12  1  0
 12 13  1  0
 13 14  1  0
 14 15  1  0
 15 16  1  0
 16 17  1  0
 17 18  1  0
 18 19  1  0
 13 20  1  0
 20 21  1  0
  9 22  2  0
 22 23  1  0
 23 24  1  0
 24 25  1  0
 25 26  1  0
 26 27  1  0
 27 28  2  0
 28 29  1  0
 29 30  2  0
 30 31  1  0
 31 32  2  0
 32 33  1  0
 23 34  2  0
  6 35  2  0
 35  2  1  0
 34  7  1  0
 21 10  1  0
 33 24  1  0
 19 14  1  0
 32 27  1  0
  1 36  1  0
  3 37  1  0
  4 38  1  0
  5 39  1  0
 11 40  1  0
 11 41  1  0
 12 42  1  0
 12 43  1  0
 13 44  1  0
 15 45  1  0
 15 46  1  0
 16 47  1  0
 16 48  1  0
 17 49  1  0
 17 50  1  0
 18 51  1  0
 18 52  1  0
 19 53  1  0
 19 54  1  0
 20 55  1  0
 20 56  1  0
 21 57  1  0
 21 58  1  0
 25 59  1  0
 25 60  1  0
 26 61  1  0
 26 62  1  0
 28 63  1  0
 29 64  1  0
 30 65  1  0
 31 66  1  0
 33 67  1  0
 33 68  1  0
 35 69  1  0
M  END
>  <smiles>  (18) 
Oc1cccc(-c2nc(N3CCC(N4CCCCC4)CC3)nc(N3CCc4ccccc4C3)n2)c1

>  <score_type>  (18) 
oracle

>  <origin>  (18) 
autodockgpu

>  <m_score__min__energy>  (18) 
-9.6799999999999997

>  <m_primary>  (18) 
energy

>  <rmsd>  (18) 
5.453940549139619

>  <m_score__min__rmsd>  (18) 
5.453940549139619

>  <meeko>  (18) 
{"free_energy": -8.69, "intermolecular_energy": -10.18, "internal_energy": -1.14, "cluster_size": 35, "cluster_id": 1, "rank_in_cluster": 35}

>  <energy>  (18) 
-9.38

>  <cluster_rmsd>  (18) 
1.81

>  <cluster>  (18) 
1

$$$$

     RDKit          3D

 69 74  0  0  0  0  0  0  0  0999 V2000
  146.5810   73.3880  219.3170 O   0  0  0  0  0  0  0  0  0  0  0  0
  145.3170   72.8240  219.2050 C   0  0  0  0  0  0  0  0  0  0  0  0
  145.1210   71.9080  218.1740 C   0  0  0  0  0  0  0  0  0  0  0  0
  143.8850   71.3200  218.0220 C   0  0  0  0  0  0  0  0  0  0  0  0
  142.8240   71.6080  218.8590 C   0  0  0  0  0  0  0  0  0  0  0  0
  143.0610   72.5210  219.8660 C   0  0  0  0  0  0  0  0  0  0  0  0
  141.9710   72.8570  220.7770 C   0  0  0  0  0  0  0  0  0  0  0  0
  141.2710   73.9980  220.6170 N   0  0  0  0  0  0  0  0  0  0  0  0
  140.2600   74.3350  221.4400 C   0  0  0  0  0  0  0  0  0  0  0  0
  139.4960   75.5080  221.3230 N   0  0  0  0  0  0  0  0  0  0  0  0
  140.0150   76.7360  220.7560 C   0  0  0  0  0  0  0  0  0  0  0  0
  139.2520   77.9460  221.2550 C   0  0  0  0  0  0  0  0  0  0  0  0
  138.8160   77.7790  222.6880 C   0  0  0  0  0  0  0  0  0  0  0  0
  138.0550   78.9370  223.0750 N   0  0  0  0  0  0  0  0  0  0  0  0
  137.5720   79.7080  221.9450 C   0  0  0  0  0  0  0  0  0  0  0  0
  136.5210   80.6540  222.5410 C   0  0  0  0  0  0  0  0  0  0  0  0
  137.1930   81.5660  223.5360 C   0  0  0  0  0  0  0  0  0  0  0  0
  138.0000   80.8080  224.5500 C   0  0  0  0  0  0  0  0  0  0  0  0
  138.9050   79.8400  223.8280 C   0  0  0  0  0  0  0  0  0  0  0  0
  138.0660   76.5060  222.9470 C   0  0  0  0  0  0  0  0  0  0  0  0
  138.1080   75.5420  221.7800 C   0  0  0  0  0  0  0  0  0  0  0  0
  139.9600   73.4850  222.4480 N   0  0  0  0  0  0  0  0  0  0  0  0
  140.6250   72.3360  222.6540 C   0  0  0  0  0  0  0  0  0  0  0  0
  140.2750   71.4720  223.7260 N   0  0  0  0  0  0  0  0  0  0  0  0
  139.1330   70.5990  223.5410 C   0  0  0  0  0  0  0  0  0  0  0  0
  139.4300   69.3090  224.2780 C   0  0  0  0  0  0  0  0  0  0  0  0
  139.6110   69.6570  225.7120 C   0  0  0  0  0  0  0  0  0  0  0  0
  139.0070   68.9400  226.7360 C   0  0  0  0  0  0  0  0  0  0  0  0
  139.2270   69.3310  228.0410 C   0  0  0  0  0  0  0  0  0  0  0  0
  140.0320   70.4170  228.3610 C   0  0  0  0  0  0  0  0  0  0  0  0
  140.6300   71.1280  227.3480 C   0  0  0  0  0  0  0  0  0  0  0  0
  140.4090   70.7360  226.0290 C   0  0  0  0  0  0  0  0  0  0  0  0
  141.0520   71.4990  224.9330 C   0  0  0  0  0  0  0  0  0  0  0  0
  141.6260   72.0510  221.7980 N   0  0  0  0  0  0  0  0  0  0  0  0
  144.2820   73.1350  220.0600 C   0  0  0  0  0  0  0  0  0  0  0  0
  146.7500   74.3910  219.3390 H   0  0  0  0  0  0  0  0  0  0  0  0
  145.9443   71.6571  217.4889 H   0  0  0  0  0  0  0  0  0  0  0  0
  143.7374   70.5965  217.2066 H   0  0  0  0  0  0  0  0  0  0  0  0
  141.8402   71.1334  218.7291 H   0  0  0  0  0  0  0  0  0  0  0  0
  141.0732   76.8401  221.0376 H   0  0  0  0  0  0  0  0  0  0  0  0
  139.9029   76.6849  219.6629 H   0  0  0  0  0  0  0  0  0  0  0  0
  139.9002   78.8316  221.1807 H   0  0  0  0  0  0  0  0  0  0  0  0
  138.3514   78.0630  220.6343 H   0  0  0  0  0  0  0  0  0  0  0  0
  139.7196   77.6971  223.3100 H   0  0  0  0  0  0  0  0  0  0  0  0
  138.3923   80.2791  221.4858 H   0  0  0  0  0  0  0  0  0  0  0  0
  137.1557   79.0692  221.1522 H   0  0  0  0  0  0  0  0  0  0  0  0
  136.0667   81.2538  221.7386 H   0  0  0  0  0  0  0  0  0  0  0  0
  135.7353   80.0698  223.0424 H   0  0  0  0  0  0  0  0  0  0  0  0
  137.8608   82.2510  222.9930 H   0  0  0  0  0  0  0  0  0  0  0  0
  136.4060   82.1144  224.0744 H   0  0  0  0  0  0  0  0  0  0  0  0
  138.6065   81.5110  225.1399 H   0  0  0  0  0  0  0  0  0  0  0  0
  137.3286   80.2580  225.2258 H   0  0  0  0  0  0  0  0  0  0  0  0
  139.5727   80.3861  223.1454 H   0  0  0  0  0  0  0  0  0  0  0  0
  139.5298   79.2833  224.5420 H   0  0  0  0  0  0  0  0  0  0  0  0
  138.5080   76.0120  223.8248 H   0  0  0  0  0  0  0  0  0  0  0  0
  137.0121   76.7747  223.1118 H   0  0  0  0  0  0  0  0  0  0  0  0
  137.7890   74.5399  222.1026 H   0  0  0  0  0  0  0  0  0  0  0  0
  137.4305   75.8612  220.9743 H   0  0  0  0  0  0  0  0  0  0  0  0
  138.2285   71.0693  223.9542 H   0  0  0  0  0  0  0  0  0  0  0  0
  138.9584   70.4063  222.4722 H   0  0  0  0  0  0  0  0  0  0  0  0
  138.5910   68.6069  224.1630 H   0  0  0  0  0  0  0  0  0  0  0  0
  140.3327   68.8266  223.8751 H   0  0  0  0  0  0  0  0  0  0  0  0
  138.3647   68.0758  226.5111 H   0  0  0  0  0  0  0  0  0  0  0  0
  138.7496   68.7645  228.8541 H   0  0  0  0  0  0  0  0  0  0  0  0
  140.1888   70.7041  229.4112 H   0  0  0  0  0  0  0  0  0  0  0  0
  141.2722   71.9919  227.5746 H   0  0  0  0  0  0  0  0  0  0  0  0
  141.1736   72.5444  225.2529 H   0  0  0  0  0  0  0  0  0  0  0  0
  142.0241   71.0303  224.7198 H   0  0  0  0  0  0  0  0  0  0  0  0
  144.4255   73.8560  220.8783 H   0  0  0  0  0  0  0  0  0  0  0  0
  1  2  1  0
  2  3  2  0
  3  4  1  0
  4  5  2  0
  5  6  1  0
  6  7  1  0
  7  8  2  0
  8  9  1  0
  9 10  1  0
 10 11  1  0
 11 12  1  0
 12 13  1  0
 13 14  1  0
 14 15  1  0
 15 16  1  0
 16 17  1  0
 17 18  1  0
 18 19  1  0
 13 20  1  0
 20 21  1  0
  9 22  2  0
 22 23  1  0
 23 24  1  0
 24 25  1  0
 25 26  1  0
 26 27  1  0
 27 28  2  0
 28 29  1  0
 29 30  2  0
 30 31  1  0
 31 32  2  0
 32 33  1  0
 23 34  2  0
  6 35  2  0
 35  2  1  0
 34  7  1  0
 21 10  1  0
 33 24  1  0
 19 14  1  0
 32 27  1  0
  1 36  1  0
  3 37  1  0
  4 38  1  0
  5 39  1  0
 11 40  1  0
 11 41  1  0
 12 42  1  0
 12 43  1  0
 13 44  1  0
 15 45  1  0
 15 46  1  0
 16 47  1  0
 16 48  1  0
 17 49  1  0
 17 50  1  0
 18 51  1  0
 18 52  1  0
 19 53  1  0
 19 54  1  0
 20 55  1  0
 20 56  1  0
 21 57  1  0
 21 58  1  0
 25 59  1  0
 25 60  1  0
 26 61  1  0
 26 62  1  0
 28 63  1  0
 29 64  1  0
 30 65  1  0
 31 66  1  0
 33 67  1  0
 33 68  1  0
 35 69  1  0
M  END
>  <smiles>  (19) 
Oc1cccc(-c2nc(N3CCC(N4CCCCC4)CC3)nc(N3CCc4ccccc4C3)n2)c1

>  <score_type>  (19) 
oracle

>  <origin>  (19) 
autodockgpu

>  <m_score__min__energy>  (19) 
-9.6799999999999997

>  <m_primary>  (19) 
energy

>  <rmsd>  (19) 
6.485014050332463

>  <m_score__min__rmsd>  (19) 
6.485014050332463

>  <meeko>  (19) 
{"free_energy": -9.37, "intermolecular_energy": -10.87, "internal_energy": -1.16, "cluster_size": 35, "cluster_id": 1, "rank_in_cluster": 19}

>  <energy>  (19) 
-9.37

>  <cluster_rmsd>  (19) 
1.81

>  <cluster>  (19) 
1

$$$$

     RDKit          3D

 69 74  0  0  0  0  0  0  0  0999 V2000
  146.5090   73.3930  219.0170 O   0  0  0  0  0  0  0  0  0  0  0  0
  145.2800   72.7460  219.0340 C   0  0  0  0  0  0  0  0  0  0  0  0
  145.1040   71.6950  218.1370 C   0  0  0  0  0  0  0  0  0  0  0  0
  143.9020   71.0220  218.1170 C   0  0  0  0  0  0  0  0  0  0  0  0
  142.8570   71.3540  218.9580 C   0  0  0  0  0  0  0  0  0  0  0  0
  143.0730   72.4010  219.8290 C   0  0  0  0  0  0  0  0  0  0  0  0
  141.9990   72.7880  220.7380 C   0  0  0  0  0  0  0  0  0  0  0  0
  141.3390   73.9520  220.5640 N   0  0  0  0  0  0  0  0  0  0  0  0
  140.3430   74.3350  221.3850 C   0  0  0  0  0  0  0  0  0  0  0  0
  139.6220   75.5330  221.2540 N   0  0  0  0  0  0  0  0  0  0  0  0
  140.2180   76.7690  220.7890 C   0  0  0  0  0  0  0  0  0  0  0  0
  139.4440   77.9780  221.2730 C   0  0  0  0  0  0  0  0  0  0  0  0
  138.8790   77.7630  222.6530 C   0  0  0  0  0  0  0  0  0  0  0  0
  138.1150   78.9250  223.0230 N   0  0  0  0  0  0  0  0  0  0  0  0
  137.6760   79.7070  221.8840 C   0  0  0  0  0  0  0  0  0  0  0  0
  136.6140   80.6580  222.4510 C   0  0  0  0  0  0  0  0  0  0  0  0
  137.2600   81.5580  223.4740 C   0  0  0  0  0  0  0  0  0  0  0  0
  138.0260   80.7870  224.5090 C   0  0  0  0  0  0  0  0  0  0  0  0
  138.9470   79.8160  223.8100 C   0  0  0  0  0  0  0  0  0  0  0  0
  138.0780   76.5030  222.7900 C   0  0  0  0  0  0  0  0  0  0  0  0
  138.2000   75.5870  221.5890 C   0  0  0  0  0  0  0  0  0  0  0  0
  140.0170   73.5110  222.4060 N   0  0  0  0  0  0  0  0  0  0  0  0
  140.6410   72.3410  222.6260 C   0  0  0  0  0  0  0  0  0  0  0  0
  140.2640   71.5050  223.7110 N   0  0  0  0  0  0  0  0  0  0  0  0
  139.0610   70.7100  223.5600 C   0  0  0  0  0  0  0  0  0  0  0  0
  139.2920   69.4050  224.2930 C   0  0  0  0  0  0  0  0  0  0  0  0
  139.5350   69.7430  225.7210 C   0  0  0  0  0  0  0  0  0  0  0  0
  138.9130   69.0710  226.7640 C   0  0  0  0  0  0  0  0  0  0  0  0
  139.1940   69.4480  228.0610 C   0  0  0  0  0  0  0  0  0  0  0  0
  140.0790   70.4790  228.3540 C   0  0  0  0  0  0  0  0  0  0  0  0
  140.6950   71.1460  227.3230 C   0  0  0  0  0  0  0  0  0  0  0  0
  140.4120   70.7670  226.0120 C   0  0  0  0  0  0  0  0  0  0  0  0
  141.0740   71.4820  224.8950 C   0  0  0  0  0  0  0  0  0  0  0  0
  141.6280   72.0100  221.7710 N   0  0  0  0  0  0  0  0  0  0  0  0
  144.2590   73.1050  219.8880 C   0  0  0  0  0  0  0  0  0  0  0  0
  146.6620   74.3200  219.4050 H   0  0  0  0  0  0  0  0  0  0  0  0
  145.9152   71.4057  217.4526 H   0  0  0  0  0  0  0  0  0  0  0  0
  143.7696   70.1920  217.4073 H   0  0  0  0  0  0  0  0  0  0  0  0
  141.9010   70.8104  218.9339 H   0  0  0  0  0  0  0  0  0  0  0  0
  141.2497   76.8315  221.1654 H   0  0  0  0  0  0  0  0  0  0  0  0
  140.2005   76.7670  219.6891 H   0  0  0  0  0  0  0  0  0  0  0  0
  140.1180   78.8471  221.2953 H   0  0  0  0  0  0  0  0  0  0  0  0
  138.6051   78.1469  220.5818 H   0  0  0  0  0  0  0  0  0  0  0  0
  139.7223   77.6288  223.3464 H   0  0  0  0  0  0  0  0  0  0  0  0
  138.5157   80.2741  221.4559 H   0  0  0  0  0  0  0  0  0  0  0  0
  137.2805   79.0767  221.0739 H   0  0  0  0  0  0  0  0  0  0  0  0
  136.1917   81.2667  221.6379 H   0  0  0  0  0  0  0  0  0  0  0  0
  135.8073   80.0772  222.9222 H   0  0  0  0  0  0  0  0  0  0  0  0
  137.9513   82.2407  222.9581 H   0  0  0  0  0  0  0  0  0  0  0  0
  136.4600   82.1097  223.9894 H   0  0  0  0  0  0  0  0  0  0  0  0
  138.6181   81.4809  225.1237 H   0  0  0  0  0  0  0  0  0  0  0  0
  137.3281   80.2384  225.1586 H   0  0  0  0  0  0  0  0  0  0  0  0
  139.6412   80.3612  223.1535 H   0  0  0  0  0  0  0  0  0  0  0  0
  139.5435   79.2494  224.5402 H   0  0  0  0  0  0  0  0  0  0  0  0
  138.4281   75.9608  223.6807 H   0  0  0  0  0  0  0  0  0  0  0  0
  137.0206   76.7943  222.8740 H   0  0  0  0  0  0  0  0  0  0  0  0
  137.8294   74.5817  221.8380 H   0  0  0  0  0  0  0  0  0  0  0  0
  137.6045   75.9585  220.7420 H   0  0  0  0  0  0  0  0  0  0  0  0
  138.2016   71.2403  223.9961 H   0  0  0  0  0  0  0  0  0  0  0  0
  138.8440   70.5279  222.4971 H   0  0  0  0  0  0  0  0  0  0  0  0
  138.4056   68.7598  224.2034 H   0  0  0  0  0  0  0  0  0  0  0  0
  140.1495   68.8631  223.8674 H   0  0  0  0  0  0  0  0  0  0  0  0
  138.2079   68.2517  226.5600 H   0  0  0  0  0  0  0  0  0  0  0  0
  138.7024   68.9162  228.8890 H   0  0  0  0  0  0  0  0  0  0  0  0
  140.2836   70.7574  229.3984 H   0  0  0  0  0  0  0  0  0  0  0  0
  141.3996   71.9653  227.5287 H   0  0  0  0  0  0  0  0  0  0  0  0
  141.2752   72.5175  225.2069 H   0  0  0  0  0  0  0  0  0  0  0  0
  142.0056   70.9478  224.6568 H   0  0  0  0  0  0  0  0  0  0  0  0
  144.3865   73.9336  220.6002 H   0  0  0  0  0  0  0  0  0  0  0  0
  1  2  1  0
  2  3  2  0
  3  4  1  0
  4  5  2  0
  5  6  1  0
  6  7  1  0
  7  8  2  0
  8  9  1  0
  9 10  1  0
 10 11  1  0
 11 12  1  0
 12 13  1  0
 13 14  1  0
 14 15  1  0
 15 16  1  0
 16 17  1  0
 17 18  1  0
 18 19  1  0
 13 20  1  0
 20 21  1  0
  9 22  2  0
 22 23  1  0
 23 24  1  0
 24 25  1  0
 25 26  1  0
 26 27  1  0
 27 28  2  0
 28 29  1  0
 29 30  2  0
 30 31  1  0
 31 32  2  0
 32 33  1  0
 23 34  2  0
  6 35  2  0
 35  2  1  0
 34  7  1  0
 21 10  1  0
 33 24  1  0
 19 14  1  0
 32 27  1  0
  1 36  1  0
  3 37  1  0
  4 38  1  0
  5 39  1  0
 11 40  1  0
 11 41  1  0
 12 42  1  0
 12 43  1  0
 13 44  1  0
 15 45  1  0
 15 46  1  0
 16 47  1  0
 16 48  1  0
 17 49  1  0
 17 50  1  0
 18 51  1  0
 18 52  1  0
 19 53  1  0
 19 54  1  0
 20 55  1  0
 20 56  1  0
 21 57  1  0
 21 58  1  0
 25 59  1  0
 25 60  1  0
 26 61  1  0
 26 62  1  0
 28 63  1  0
 29 64  1  0
 30 65  1  0
 31 66  1  0
 33 67  1  0
 33 68  1  0
 35 69  1  0
M  END
>  <smiles>  (20) 
Oc1cccc(-c2nc(N3CCC(N4CCCCC4)CC3)nc(N3CCc4ccccc4C3)n2)c1

>  <score_type>  (20) 
oracle

>  <origin>  (20) 
autodockgpu

>  <m_score__min__energy>  (20) 
-9.6799999999999997

>  <m_primary>  (20) 
energy

>  <rmsd>  (20) 
6.444898652117147

>  <m_score__min__rmsd>  (20) 
6.444898652117147

>  <meeko>  (20) 
{"free_energy": -9.39, "intermolecular_energy": -10.88, "internal_energy": -1.16, "cluster_size": 35, "cluster_id": 1, "rank_in_cluster": 16}

>  <energy>  (20) 
-9.36

>  <cluster_rmsd>  (20) 
1.7

>  <cluster>  (20) 
1

$$$$

     RDKit          3D

 69 74  0  0  0  0  0  0  0  0999 V2000
  145.9890   73.1160  217.4030 O   0  0  0  0  0  0  0  0  0  0  0  0
  145.2550   72.3020  218.2560 C   0  0  0  0  0  0  0  0  0  0  0  0
  145.5600   70.9430  218.2530 C   0  0  0  0  0  0  0  0  0  0  0  0
  144.8590   70.0950  219.0830 C   0  0  0  0  0  0  0  0  0  0  0  0
  143.8580   70.5450  219.9230 C   0  0  0  0  0  0  0  0  0  0  0  0
  143.5880   71.8980  219.8930 C   0  0  0  0  0  0  0  0  0  0  0  0
  142.5400   72.4210  220.7630 C   0  0  0  0  0  0  0  0  0  0  0  0
  142.0320   73.6540  220.5600 N   0  0  0  0  0  0  0  0  0  0  0  0
  141.0640   74.1640  221.3450 C   0  0  0  0  0  0  0  0  0  0  0  0
  140.4980   75.4390  221.1830 N   0  0  0  0  0  0  0  0  0  0  0  0
  140.4290   76.1170  219.9040 C   0  0  0  0  0  0  0  0  0  0  0  0
  140.3310   77.6190  220.0750 C   0  0  0  0  0  0  0  0  0  0  0  0
  141.1290   78.0990  221.2590 C   0  0  0  0  0  0  0  0  0  0  0  0
  140.9470   79.5210  221.3910 N   0  0  0  0  0  0  0  0  0  0  0  0
  141.8330   80.2930  220.5410 C   0  0  0  0  0  0  0  0  0  0  0  0
  141.2510   81.7120  220.5600 C   0  0  0  0  0  0  0  0  0  0  0  0
  141.3020   82.2420  221.9710 C   0  0  0  0  0  0  0  0  0  0  0  0
  140.6790   81.2970  222.9570 C   0  0  0  0  0  0  0  0  0  0  0  0
  141.2640   79.9210  222.7490 C   0  0  0  0  0  0  0  0  0  0  0  0
  140.8140   77.3770  222.5340 C   0  0  0  0  0  0  0  0  0  0  0  0
  139.9400   76.1570  222.3280 C   0  0  0  0  0  0  0  0  0  0  0  0
  140.6070   73.3950  222.3590 N   0  0  0  0  0  0  0  0  0  0  0  0
  141.0760   72.1610  222.6070 C   0  0  0  0  0  0  0  0  0  0  0  0
  140.5650   71.3870  223.6830 N   0  0  0  0  0  0  0  0  0  0  0  0
  139.2110   70.8840  223.5660 C   0  0  0  0  0  0  0  0  0  0  0  0
  139.1740   69.5330  224.2490 C   0  0  0  0  0  0  0  0  0  0  0  0
  139.5420   69.7540  225.6730 C   0  0  0  0  0  0  0  0  0  0  0  0
  138.8270   69.1950  226.7240 C   0  0  0  0  0  0  0  0  0  0  0  0
  139.2360   69.4510  228.0170 C   0  0  0  0  0  0  0  0  0  0  0  0
  140.3380   70.2480  228.2980 C   0  0  0  0  0  0  0  0  0  0  0  0
  141.0470   70.8020  227.2590 C   0  0  0  0  0  0  0  0  0  0  0  0
  140.6360   70.5460  225.9520 C   0  0  0  0  0  0  0  0  0  0  0  0
  141.3950   71.1400  224.8280 C   0  0  0  0  0  0  0  0  0  0  0  0
  142.0440   71.7040  221.7870 N   0  0  0  0  0  0  0  0  0  0  0  0
  144.2630   72.7870  219.0810 C   0  0  0  0  0  0  0  0  0  0  0  0
  146.0060   74.1300  217.4700 H   0  0  0  0  0  0  0  0  0  0  0  0
  146.3507   70.5513  217.5962 H   0  0  0  0  0  0  0  0  0  0  0  0
  145.1047   69.0228  219.0767 H   0  0  0  0  0  0  0  0  0  0  0  0
  143.3047   69.8596  220.5819 H   0  0  0  0  0  0  0  0  0  0  0  0
  141.3346   75.8817  219.3257 H   0  0  0  0  0  0  0  0  0  0  0  0
  139.5269   75.7704  219.3785 H   0  0  0  0  0  0  0  0  0  0  0  0
  140.7133   78.1068  219.1662 H   0  0  0  0  0  0  0  0  0  0  0  0
  139.2753   77.8761  220.2465 H   0  0  0  0  0  0  0  0  0  0  0  0
  142.1878   77.8701  221.0679 H   0  0  0  0  0  0  0  0  0  0  0  0
  142.8572   80.2883  220.9422 H   0  0  0  0  0  0  0  0  0  0  0  0
  141.8956   79.8822  219.5225 H   0  0  0  0  0  0  0  0  0  0  0  0
  141.8429   82.3627  219.8995 H   0  0  0  0  0  0  0  0  0  0  0  0
  140.2095   81.6924  220.2066 H   0  0  0  0  0  0  0  0  0  0  0  0
  142.3536   82.4027  222.2508 H   0  0  0  0  0  0  0  0  0  0  0  0
  140.7311   83.1818  221.9984 H   0  0  0  0  0  0  0  0  0  0  0  0
  140.8915   81.6381  223.9810 H   0  0  0  0  0  0  0  0  0  0  0  0
  139.5896   81.2662  222.8080 H   0  0  0  0  0  0  0  0  0  0  0  0
  142.3547   79.9502  222.8884 H   0  0  0  0  0  0  0  0  0  0  0  0
  140.8478   79.2060  223.4739 H   0  0  0  0  0  0  0  0  0  0  0  0
  141.7589   77.0562  222.9968 H   0  0  0  0  0  0  0  0  0  0  0  0
  140.2559   78.0747  223.1757 H   0  0  0  0  0  0  0  0  0  0  0  0
  139.9599   75.5189  223.2238 H   0  0  0  0  0  0  0  0  0  0  0  0
  138.8928   76.4419  222.1487 H   0  0  0  0  0  0  0  0  0  0  0  0
  138.5090   71.5739  224.0572 H   0  0  0  0  0  0  0  0  0  0  0  0
  138.9176   70.7954  222.5096 H   0  0  0  0  0  0  0  0  0  0  0  0
  138.1633   69.1039  224.1825 H   0  0  0  0  0  0  0  0  0  0  0  0
  139.8715   68.8314  223.7682 H   0  0  0  0  0  0  0  0  0  0  0  0
  137.9504   68.5596  226.5295 H   0  0  0  0  0  0  0  0  0  0  0  0
  138.6712   69.0098  228.8515 H   0  0  0  0  0  0  0  0  0  0  0  0
  140.6398   70.4337  229.3394 H   0  0  0  0  0  0  0  0  0  0  0  0
  141.9238   71.4365  227.4556 H   0  0  0  0  0  0  0  0  0  0  0  0
  141.8324   72.0929  225.1605 H   0  0  0  0  0  0  0  0  0  0  0  0
  142.1748   70.4231  224.5312 H   0  0  0  0  0  0  0  0  0  0  0  0
  144.0148   73.8586  219.0920 H   0  0  0  0  0  0  0  0  0  0  0  0
  1  2  1  0
  2  3  2  0
  3  4  1  0
  4  5  2  0
  5  6  1  0
  6  7  1  0
  7  8  2  0
  8  9  1  0
  9 10  1  0
 10 11  1  0
 11 12  1  0
 12 13  1  0
 13 14  1  0
 14 15  1  0
 15 16  1  0
 16 17  1  0
 17 18  1  0
 18 19  1  0
 13 20  1  0
 20 21  1  0
  9 22  2  0
 22 23  1  0
 23 24  1  0
 24 25  1  0
 25 26  1  0
 26 27  1  0
 27 28  2  0
 28 29  1  0
 29 30  2  0
 30 31  1  0
 31 32  2  0
 32 33  1  0
 23 34  2  0
  6 35  2  0
 35  2  1  0
 34  7  1  0
 21 10  1  0
 33 24  1  0
 19 14  1  0
 32 27  1  0
  1 36  1  0
  3 37  1  0
  4 38  1  0
  5 39  1  0
 11 40  1  0
 11 41  1  0
 12 42  1  0
 12 43  1  0
 13 44  1  0
 15 45  1  0
 15 46  1  0
 16 47  1  0
 16 48  1  0
 17 49  1  0
 17 50  1  0
 18 51  1  0
 18 52  1  0
 19 53  1  0
 19 54  1  0
 20 55  1  0
 20 56  1  0
 21 57  1  0
 21 58  1  0
 25 59  1  0
 25 60  1  0
 26 61  1  0
 26 62  1  0
 28 63  1  0
 29 64  1  0
 30 65  1  0
 31 66  1  0
 33 67  1  0
 33 68  1  0
 35 69  1  0
M  END
>  <smiles>  (21) 
Oc1cccc(-c2nc(N3CCC(N4CCCCC4)CC3)nc(N3CCc4ccccc4C3)n2)c1

>  <score_type>  (21) 
oracle

>  <origin>  (21) 
autodockgpu

>  <m_score__min__energy>  (21) 
-9.6799999999999997

>  <m_primary>  (21) 
energy

>  <rmsd>  (21) 
5.544467871531177

>  <m_score__min__rmsd>  (21) 
5.544467871531177

>  <meeko>  (21) 
{"free_energy": -9.34, "intermolecular_energy": -10.83, "internal_energy": -1.14, "cluster_size": 35, "cluster_id": 1, "rank_in_cluster": 23}

>  <energy>  (21) 
-9.35

>  <cluster_rmsd>  (21) 
1.71

>  <cluster>  (21) 
1

$$$$

     RDKit          3D

 69 74  0  0  0  0  0  0  0  0999 V2000
  144.0050   80.4680  222.9850 O   0  0  0  0  0  0  0  0  0  0  0  0
  142.6360   80.2600  223.1010 C   0  0  0  0  0  0  0  0  0  0  0  0
  141.8610   81.3480  223.4960 C   0  0  0  0  0  0  0  0  0  0  0  0
  140.4980   81.1920  223.6240 C   0  0  0  0  0  0  0  0  0  0  0  0
  139.8670   79.9880  223.3760 C   0  0  0  0  0  0  0  0  0  0  0  0
  140.6730   78.9360  222.9890 C   0  0  0  0  0  0  0  0  0  0  0  0
  140.0520   77.6440  222.7150 C   0  0  0  0  0  0  0  0  0  0  0  0
  138.7390   77.4490  222.9550 N   0  0  0  0  0  0  0  0  0  0  0  0
  138.1390   76.2680  222.7120 C   0  0  0  0  0  0  0  0  0  0  0  0
  136.7780   76.0070  222.9420 N   0  0  0  0  0  0  0  0  0  0  0  0
  135.8260   77.0350  223.3110 C   0  0  0  0  0  0  0  0  0  0  0  0
  134.6330   76.4530  224.0410 C   0  0  0  0  0  0  0  0  0  0  0  0
  135.0280   75.2940  224.9190 C   0  0  0  0  0  0  0  0  0  0  0  0
  133.8420   74.7600  225.5370 N   0  0  0  0  0  0  0  0  0  0  0  0
  133.4330   75.4940  226.7190 C   0  0  0  0  0  0  0  0  0  0  0  0
  132.0060   75.0090  227.0030 C   0  0  0  0  0  0  0  0  0  0  0  0
  132.0430   73.5320  227.3020 C   0  0  0  0  0  0  0  0  0  0  0  0
  132.7690   72.7530  226.2450 C   0  0  0  0  0  0  0  0  0  0  0  0
  134.1060   73.4070  225.9910 C   0  0  0  0  0  0  0  0  0  0  0  0
  135.8090   74.2320  224.2040 C   0  0  0  0  0  0  0  0  0  0  0  0
  136.2490   74.6490  222.8160 C   0  0  0  0  0  0  0  0  0  0  0  0
  138.8980   75.2670  222.2130 N   0  0  0  0  0  0  0  0  0  0  0  0
  140.2090   75.4070  221.9550 C   0  0  0  0  0  0  0  0  0  0  0  0
  140.9690   74.3270  221.4300 N   0  0  0  0  0  0  0  0  0  0  0  0
  140.4900   72.9830  221.6810 C   0  0  0  0  0  0  0  0  0  0  0  0
  140.8330   72.1490  220.4640 C   0  0  0  0  0  0  0  0  0  0  0  0
  142.3130   72.1720  220.3220 C   0  0  0  0  0  0  0  0  0  0  0  0
  143.0580   71.0260  220.0850 C   0  0  0  0  0  0  0  0  0  0  0  0
  144.4280   71.1350  219.9670 C   0  0  0  0  0  0  0  0  0  0  0  0
  145.0840   72.3550  220.0770 C   0  0  0  0  0  0  0  0  0  0  0  0
  144.3470   73.4920  220.3110 C   0  0  0  0  0  0  0  0  0  0  0  0
  142.9630   73.3840  220.4320 C   0  0  0  0  0  0  0  0  0  0  0  0
  142.1630   74.6050  220.6840 C   0  0  0  0  0  0  0  0  0  0  0  0
  140.7550   76.6110  222.2170 N   0  0  0  0  0  0  0  0  0  0  0  0
  142.0410   79.0430  222.8450 C   0  0  0  0  0  0  0  0  0  0  0  0
  144.6100   79.9100  222.3890 H   0  0  0  0  0  0  0  0  0  0  0  0
  142.3316   82.3204  223.7033 H   0  0  0  0  0  0  0  0  0  0  0  0
  139.8914   82.0556  223.9342 H   0  0  0  0  0  0  0  0  0  0  0  0
  138.7781   79.8735  223.4815 H   0  0  0  0  0  0  0  0  0  0  0  0
  136.3244   77.7647  223.9661 H   0  0  0  0  0  0  0  0  0  0  0  0
  135.4650   77.5166  222.3903 H   0  0  0  0  0  0  0  0  0  0  0  0
  134.1811   77.2366  224.6669 H   0  0  0  0  0  0  0  0  0  0  0  0
  133.9173   76.0863  223.2905 H   0  0  0  0  0  0  0  0  0  0  0  0
  135.7175   75.6720  225.6883 H   0  0  0  0  0  0  0  0  0  0  0  0
  134.0963   75.2658  227.5663 H   0  0  0  0  0  0  0  0  0  0  0  0
  133.4810   76.5829  226.5705 H   0  0  0  0  0  0  0  0  0  0  0  0
  131.5972   75.5509  227.8686 H   0  0  0  0  0  0  0  0  0  0  0  0
  131.3674   75.1962  226.1271 H   0  0  0  0  0  0  0  0  0  0  0  0
  132.5514   73.3791  228.2654 H   0  0  0  0  0  0  0  0  0  0  0  0
  131.0048   73.1696  227.3324 H   0  0  0  0  0  0  0  0  0  0  0  0
  132.9223   71.7190  226.5875 H   0  0  0  0  0  0  0  0  0  0  0  0
  132.1773   72.7395  225.3178 H   0  0  0  0  0  0  0  0  0  0  0  0
  134.6971   73.4292  226.9184 H   0  0  0  0  0  0  0  0  0  0  0  0
  134.6781   72.8465  225.2370 H   0  0  0  0  0  0  0  0  0  0  0  0
  136.7039   73.9959  224.7985 H   0  0  0  0  0  0  0  0  0  0  0  0
  135.1478   73.3604  224.0897 H   0  0  0  0  0  0  0  0  0  0  0  0
  137.0298   73.9694  222.4440 H   0  0  0  0  0  0  0  0  0  0  0  0
  135.4116   74.6113  222.1037 H   0  0  0  0  0  0  0  0  0  0  0  0
  140.9825   72.5681  222.5728 H   0  0  0  0  0  0  0  0  0  0  0  0
  139.4047   72.9831  221.8603 H   0  0  0  0  0  0  0  0  0  0  0  0
  140.4833   71.1155  220.6039 H   0  0  0  0  0  0  0  0  0  0  0  0
  140.3467   72.5518  219.5633 H   0  0  0  0  0  0  0  0  0  0  0  0
  142.5647   70.0472  219.9928 H   0  0  0  0  0  0  0  0  0  0  0  0
  145.0202   70.2271  219.7798 H   0  0  0  0  0  0  0  0  0  0  0  0
  146.1781   72.4105  219.9782 H   0  0  0  0  0  0  0  0  0  0  0  0
  144.8416   74.4704  220.4012 H   0  0  0  0  0  0  0  0  0  0  0  0
  142.7769   75.3197  221.2517 H   0  0  0  0  0  0  0  0  0  0  0  0
  141.8636   75.0193  219.7100 H   0  0  0  0  0  0  0  0  0  0  0  0
  142.6432   78.1770  222.5330 H   0  0  0  0  0  0  0  0  0  0  0  0
  1  2  1  0
  2  3  2  0
  3  4  1  0
  4  5  2  0
  5  6  1  0
  6  7  1  0
  7  8  2  0
  8  9  1  0
  9 10  1  0
 10 11  1  0
 11 12  1  0
 12 13  1  0
 13 14  1  0
 14 15  1  0
 15 16  1  0
 16 17  1  0
 17 18  1  0
 18 19  1  0
 13 20  1  0
 20 21  1  0
  9 22  2  0
 22 23  1  0
 23 24  1  0
 24 25  1  0
 25 26  1  0
 26 27  1  0
 27 28  2  0
 28 29  1  0
 29 30  2  0
 30 31  1  0
 31 32  2  0
 32 33  1  0
 23 34  2  0
  6 35  2  0
 35  2  1  0
 34  7  1  0
 21 10  1  0
 33 24  1  0
 19 14  1  0
 32 27  1  0
  1 36  1  0
  3 37  1  0
  4 38  1  0
  5 39  1  0
 11 40  1  0
 11 41  1  0
 12 42  1  0
 12 43  1  0
 13 44  1  0
 15 45  1  0
 15 46  1  0
 16 47  1  0
 16 48  1  0
 17 49  1  0
 17 50  1  0
 18 51  1  0
 18 52  1  0
 19 53  1  0
 19 54  1  0
 20 55  1  0
 20 56  1  0
 21 57  1  0
 21 58  1  0
 25 59  1  0
 25 60  1  0
 26 61  1  0
 26 62  1  0
 28 63  1  0
 29 64  1  0
 30 65  1  0
 31 66  1  0
 33 67  1  0
 33 68  1  0
 35 69  1  0
M  END
>  <smiles>  (22) 
Oc1cccc(-c2nc(N3CCC(N4CCCCC4)CC3)nc(N3CCc4ccccc4C3)n2)c1

>  <score_type>  (22) 
oracle

>  <origin>  (22) 
autodockgpu

>  <m_score__min__energy>  (22) 
-9.6799999999999997

>  <m_primary>  (22) 
energy

>  <rmsd>  (22) 
10.238798559789952

>  <m_score__min__rmsd>  (22) 
10.238798559789952

>  <meeko>  (22) 
{"free_energy": -8.82, "intermolecular_energy": -10.31, "internal_energy": -1.18, "cluster_size": 13, "cluster_id": 2, "rank_in_cluster": 10}

>  <energy>  (22) 
-9.34

>  <cluster_rmsd>  (22) 
1.81

>  <cluster>  (22) 
1

$$$$

     RDKit          3D

 69 74  0  0  0  0  0  0  0  0999 V2000
  144.0460   80.5030  222.9800 O   0  0  0  0  0  0  0  0  0  0  0  0
  142.6770   80.3020  223.0980 C   0  0  0  0  0  0  0  0  0  0  0  0
  141.9070   81.3950  223.4900 C   0  0  0  0  0  0  0  0  0  0  0  0
  140.5440   81.2460  223.6200 C   0  0  0  0  0  0  0  0  0  0  0  0
  139.9070   80.0440  223.3750 C   0  0  0  0  0  0  0  0  0  0  0  0
  140.7060   78.9880  222.9900 C   0  0  0  0  0  0  0  0  0  0  0  0
  140.0790   77.6980  222.7200 C   0  0  0  0  0  0  0  0  0  0  0  0
  138.7650   77.5110  222.9590 N   0  0  0  0  0  0  0  0  0  0  0  0
  138.1590   76.3330  222.7200 C   0  0  0  0  0  0  0  0  0  0  0  0
  136.7960   76.0800  222.9480 N   0  0  0  0  0  0  0  0  0  0  0  0
  135.8320   77.1260  223.2260 C   0  0  0  0  0  0  0  0  0  0  0  0
  134.6320   76.5910  223.9800 C   0  0  0  0  0  0  0  0  0  0  0  0
  135.0200   75.5020  224.9470 C   0  0  0  0  0  0  0  0  0  0  0  0
  133.8280   75.0080  225.5840 N   0  0  0  0  0  0  0  0  0  0  0  0
  133.5490   75.6520  226.8530 C   0  0  0  0  0  0  0  0  0  0  0  0
  132.1020   75.2580  227.1790 C   0  0  0  0  0  0  0  0  0  0  0  0
  132.0280   73.7600  227.3360 C   0  0  0  0  0  0  0  0  0  0  0  0
  132.6260   73.0330  226.1660 C   0  0  0  0  0  0  0  0  0  0  0  0
  133.9980   73.6000  225.8920 C   0  0  0  0  0  0  0  0  0  0  0  0
  135.8180   74.3960  224.3230 C   0  0  0  0  0  0  0  0  0  0  0  0
  136.2770   74.7130  222.9150 C   0  0  0  0  0  0  0  0  0  0  0  0
  138.9130   75.3260  222.2260 N   0  0  0  0  0  0  0  0  0  0  0  0
  140.2250   75.4570  221.9700 C   0  0  0  0  0  0  0  0  0  0  0  0
  140.9800   74.3710  221.4510 N   0  0  0  0  0  0  0  0  0  0  0  0
  140.5000   73.0300  221.7170 C   0  0  0  0  0  0  0  0  0  0  0  0
  140.8340   72.1850  220.5060 C   0  0  0  0  0  0  0  0  0  0  0  0
  142.3140   72.2030  220.3550 C   0  0  0  0  0  0  0  0  0  0  0  0
  143.0550   71.0530  220.1250 C   0  0  0  0  0  0  0  0  0  0  0  0
  144.4250   71.1590  219.9980 C   0  0  0  0  0  0  0  0  0  0  0  0
  145.0830   72.3790  220.0920 C   0  0  0  0  0  0  0  0  0  0  0  0
  144.3510   73.5190  220.3200 C   0  0  0  0  0  0  0  0  0  0  0  0
  142.9660   73.4140  220.4500 C   0  0  0  0  0  0  0  0  0  0  0  0
  142.1710   74.6400  220.6950 C   0  0  0  0  0  0  0  0  0  0  0  0
  140.7780   76.6590  222.2290 N   0  0  0  0  0  0  0  0  0  0  0  0
  142.0750   79.0880  222.8450 C   0  0  0  0  0  0  0  0  0  0  0  0
  144.6490   79.9330  222.3930 H   0  0  0  0  0  0  0  0  0  0  0  0
  142.3823   82.3659  223.6934 H   0  0  0  0  0  0  0  0  0  0  0  0
  139.9419   82.1130  223.9293 H   0  0  0  0  0  0  0  0  0  0  0  0
  138.8176   79.9352  223.4817 H   0  0  0  0  0  0  0  0  0  0  0  0
  136.3161   77.9059  223.8322 H   0  0  0  0  0  0  0  0  0  0  0  0
  135.4818   77.5354  222.2670 H   0  0  0  0  0  0  0  0  0  0  0  0
  134.1665   77.4155  224.5400 H   0  0  0  0  0  0  0  0  0  0  0  0
  133.9299   76.1649  223.2482 H   0  0  0  0  0  0  0  0  0  0  0  0
  135.6955   75.9389  225.6972 H   0  0  0  0  0  0  0  0  0  0  0  0
  134.2352   75.2881  227.6320 H   0  0  0  0  0  0  0  0  0  0  0  0
  133.6829   76.7428  226.8049 H   0  0  0  0  0  0  0  0  0  0  0  0
  131.7890   75.7434  228.1151 H   0  0  0  0  0  0  0  0  0  0  0  0
  131.4352   75.5813  226.3660 H   0  0  0  0  0  0  0  0  0  0  0  0
  132.5734   73.4726  228.2470 H   0  0  0  0  0  0  0  0  0  0  0  0
  130.9659   73.4807  227.3980 H   0  0  0  0  0  0  0  0  0  0  0  0
  132.7085   71.9612  226.3994 H   0  0  0  0  0  0  0  0  0  0  0  0
  131.9856   73.1583  225.2805 H   0  0  0  0  0  0  0  0  0  0  0  0
  134.6379   73.4830  226.7790 H   0  0  0  0  0  0  0  0  0  0  0  0
  134.4778   73.0727  225.0543 H   0  0  0  0  0  0  0  0  0  0  0  0
  136.7050   74.2101  224.9464 H   0  0  0  0  0  0  0  0  0  0  0  0
  135.1633   73.5141  224.2628 H   0  0  0  0  0  0  0  0  0  0  0  0
  137.0675   74.0133  222.6059 H   0  0  0  0  0  0  0  0  0  0  0  0
  135.4508   74.6173  222.1951 H   0  0  0  0  0  0  0  0  0  0  0  0
  140.9971   72.6222  222.6095 H   0  0  0  0  0  0  0  0  0  0  0  0
  139.4158   73.0337  221.9029 H   0  0  0  0  0  0  0  0  0  0  0  0
  140.4826   71.1536  220.6570 H   0  0  0  0  0  0  0  0  0  0  0  0
  140.3435   72.5813  219.6046 H   0  0  0  0  0  0  0  0  0  0  0  0
  142.5594   70.0742  220.0453 H   0  0  0  0  0  0  0  0  0  0  0  0
  145.0149   70.2485  219.8166 H   0  0  0  0  0  0  0  0  0  0  0  0
  146.1765   72.4315  219.9852 H   0  0  0  0  0  0  0  0  0  0  0  0
  144.8481   74.4971  220.3987 H   0  0  0  0  0  0  0  0  0  0  0  0
  142.7900   75.3583  221.2525 H   0  0  0  0  0  0  0  0  0  0  0  0
  141.8674   75.0468  219.7191 H   0  0  0  0  0  0  0  0  0  0  0  0
  142.6724   78.2182  222.5344 H   0  0  0  0  0  0  0  0  0  0  0  0
  1  2  1  0
  2  3  2  0
  3  4  1  0
  4  5  2  0
  5  6  1  0
  6  7  1  0
  7  8  2  0
  8  9  1  0
  9 10  1  0
 10 11  1  0
 11 12  1  0
 12 13  1  0
 13 14  1  0
 14 15  1  0
 15 16  1  0
 16 17  1  0
 17 18  1  0
 18 19  1  0
 13 20  1  0
 20 21  1  0
  9 22  2  0
 22 23  1  0
 23 24  1  0
 24 25  1  0
 25 26  1  0
 26 27  1  0
 27 28  2  0
 28 29  1  0
 29 30  2  0
 30 31  1  0
 31 32  2  0
 32 33  1  0
 23 34  2  0
  6 35  2  0
 35  2  1  0
 34  7  1  0
 21 10  1  0
 33 24  1  0
 19 14  1  0
 32 27  1  0
  1 36  1  0
  3 37  1  0
  4 38  1  0
  5 39  1  0
 11 40  1  0
 11 41  1  0
 12 42  1  0
 12 43  1  0
 13 44  1  0
 15 45  1  0
 15 46  1  0
 16 47  1  0
 16 48  1  0
 17 49  1  0
 17 50  1  0
 18 51  1  0
 18 52  1  0
 19 53  1  0
 19 54  1  0
 20 55  1  0
 20 56  1  0
 21 57  1  0
 21 58  1  0
 25 59  1  0
 25 60  1  0
 26 61  1  0
 26 62  1  0
 28 63  1  0
 29 64  1  0
 30 65  1  0
 31 66  1  0
 33 67  1  0
 33 68  1  0
 35 69  1  0
M  END
>  <smiles>  (23) 
Oc1cccc(-c2nc(N3CCC(N4CCCCC4)CC3)nc(N3CCc4ccccc4C3)n2)c1

>  <score_type>  (23) 
oracle

>  <origin>  (23) 
autodockgpu

>  <m_score__min__energy>  (23) 
-9.6799999999999997

>  <m_primary>  (23) 
energy

>  <rmsd>  (23) 
10.175346682431629

>  <m_score__min__rmsd>  (23) 
10.175346682431629

>  <meeko>  (23) 
{"free_energy": -8.83, "intermolecular_energy": -10.32, "internal_energy": -1.18, "cluster_size": 13, "cluster_id": 2, "rank_in_cluster": 9}

>  <energy>  (23) 
-9.34

>  <cluster_rmsd>  (23) 
0.35

>  <cluster>  (23) 
1

$$$$

     RDKit          3D

 69 74  0  0  0  0  0  0  0  0999 V2000
  144.0630   80.5150  223.0450 O   0  0  0  0  0  0  0  0  0  0  0  0
  142.6910   80.3170  223.1360 C   0  0  0  0  0  0  0  0  0  0  0  0
  141.9160   81.4130  223.5100 C   0  0  0  0  0  0  0  0  0  0  0  0
  140.5500   81.2670  223.6130 C   0  0  0  0  0  0  0  0  0  0  0  0
  139.9150   80.0660  223.3600 C   0  0  0  0  0  0  0  0  0  0  0  0
  140.7200   79.0070  222.9940 C   0  0  0  0  0  0  0  0  0  0  0  0
  140.0950   77.7170  222.7150 C   0  0  0  0  0  0  0  0  0  0  0  0
  138.7800   77.5290  222.9460 N   0  0  0  0  0  0  0  0  0  0  0  0
  138.1760   76.3510  222.6980 C   0  0  0  0  0  0  0  0  0  0  0  0
  136.8120   76.0960  222.9180 N   0  0  0  0  0  0  0  0  0  0  0  0
  135.8500   77.1380  223.2140 C   0  0  0  0  0  0  0  0  0  0  0  0
  134.6460   76.5910  223.9540 C   0  0  0  0  0  0  0  0  0  0  0  0
  135.0300   75.4830  224.9000 C   0  0  0  0  0  0  0  0  0  0  0  0
  133.8350   74.9780  225.5240 N   0  0  0  0  0  0  0  0  0  0  0  0
  133.5110   75.6510  226.7670 C   0  0  0  0  0  0  0  0  0  0  0  0
  132.0670   75.2320  227.0710 C   0  0  0  0  0  0  0  0  0  0  0  0
  132.0240   73.7380  227.2700 C   0  0  0  0  0  0  0  0  0  0  0  0
  132.6670   72.9920  226.1370 C   0  0  0  0  0  0  0  0  0  0  0  0
  134.0310   73.5840  225.8770 C   0  0  0  0  0  0  0  0  0  0  0  0
  135.8270   74.3870  224.2570 C   0  0  0  0  0  0  0  0  0  0  0  0
  136.2910   74.7310  222.8560 C   0  0  0  0  0  0  0  0  0  0  0  0
  138.9340   75.3460  222.2050 N   0  0  0  0  0  0  0  0  0  0  0  0
  140.2480   75.4790  221.9580 C   0  0  0  0  0  0  0  0  0  0  0  0
  141.0060   74.3960  221.4380 N   0  0  0  0  0  0  0  0  0  0  0  0
  140.5190   73.0540  221.6870 C   0  0  0  0  0  0  0  0  0  0  0  0
  140.8670   72.2180  220.4730 C   0  0  0  0  0  0  0  0  0  0  0  0
  142.3480   72.2340  220.3400 C   0  0  0  0  0  0  0  0  0  0  0  0
  143.0900   71.0840  220.1100 C   0  0  0  0  0  0  0  0  0  0  0  0
  144.4610   71.1870  220.0000 C   0  0  0  0  0  0  0  0  0  0  0  0
  145.1210   72.4050  220.1140 C   0  0  0  0  0  0  0  0  0  0  0  0
  144.3880   73.5450  220.3420 C   0  0  0  0  0  0  0  0  0  0  0  0
  143.0020   73.4430  220.4540 C   0  0  0  0  0  0  0  0  0  0  0  0
  142.2070   74.6680  220.7000 C   0  0  0  0  0  0  0  0  0  0  0  0
  140.7980   76.6800  222.2240 N   0  0  0  0  0  0  0  0  0  0  0  0
  142.0920   79.1030  222.8750 C   0  0  0  0  0  0  0  0  0  0  0  0
  144.6580   80.0280  222.3790 H   0  0  0  0  0  0  0  0  0  0  0  0
  142.3894   82.3834  223.7205 H   0  0  0  0  0  0  0  0  0  0  0  0
  139.9438   82.1366  223.9068 H   0  0  0  0  0  0  0  0  0  0  0  0
  138.8235   79.9598  223.4460 H   0  0  0  0  0  0  0  0  0  0  0  0
  136.3341   77.9044  223.8370 H   0  0  0  0  0  0  0  0  0  0  0  0
  135.5035   77.5671  222.2623 H   0  0  0  0  0  0  0  0  0  0  0  0
  134.1805   77.4053  224.5287 H   0  0  0  0  0  0  0  0  0  0  0  0
  133.9445   76.1813  223.2124 H   0  0  0  0  0  0  0  0  0  0  0  0
  135.7048   75.9048  225.6594 H   0  0  0  0  0  0  0  0  0  0  0  0
  134.1869   75.3261  227.5718 H   0  0  0  0  0  0  0  0  0  0  0  0
  133.6204   76.7428  226.6902 H   0  0  0  0  0  0  0  0  0  0  0  0
  131.7207   75.7365  227.9851 H   0  0  0  0  0  0  0  0  0  0  0  0
  131.4123   75.5156  226.2338 H   0  0  0  0  0  0  0  0  0  0  0  0
  132.5533   73.4902  228.2019 H   0  0  0  0  0  0  0  0  0  0  0  0
  130.9674   73.4354  227.3145 H   0  0  0  0  0  0  0  0  0  0  0  0
  132.7698   71.9300  226.4047 H   0  0  0  0  0  0  0  0  0  0  0  0
  132.0449   73.0755  225.2337 H   0  0  0  0  0  0  0  0  0  0  0  0
  134.6530   73.5083  226.7811 H   0  0  0  0  0  0  0  0  0  0  0  0
  134.5421   73.0445  225.0660 H   0  0  0  0  0  0  0  0  0  0  0  0
  136.7117   74.1866  224.8792 H   0  0  0  0  0  0  0  0  0  0  0  0
  135.1705   73.5079  224.1779 H   0  0  0  0  0  0  0  0  0  0  0  0
  137.0813   74.0362  222.5355 H   0  0  0  0  0  0  0  0  0  0  0  0
  135.4670   74.6508  222.1317 H   0  0  0  0  0  0  0  0  0  0  0  0
  141.0033   72.6376  222.5826 H   0  0  0  0  0  0  0  0  0  0  0  0
  139.4325   73.0589  221.8589 H   0  0  0  0  0  0  0  0  0  0  0  0
  140.5119   71.1861  220.6112 H   0  0  0  0  0  0  0  0  0  0  0  0
  140.3887   72.6230  219.5690 H   0  0  0  0  0  0  0  0  0  0  0  0
  142.5932   70.1070  220.0170 H   0  0  0  0  0  0  0  0  0  0  0  0
  145.0506   70.2767  219.8163 H   0  0  0  0  0  0  0  0  0  0  0  0
  146.2160   72.4558  220.0229 H   0  0  0  0  0  0  0  0  0  0  0  0
  144.8863   74.5213  220.4345 H   0  0  0  0  0  0  0  0  0  0  0  0
  142.8206   75.3797  221.2718 H   0  0  0  0  0  0  0  0  0  0  0  0
  141.9167   75.0838  219.7239 H   0  0  0  0  0  0  0  0  0  0  0  0
  142.6935   78.2309  222.5788 H   0  0  0  0  0  0  0  0  0  0  0  0
  1  2  1  0
  2  3  2  0
  3  4  1  0
  4  5  2  0
  5  6  1  0
  6  7  1  0
  7  8  2  0
  8  9  1  0
  9 10  1  0
 10 11  1  0
 11 12  1  0
 12 13  1  0
 13 14  1  0
 14 15  1  0
 15 16  1  0
 16 17  1  0
 17 18  1  0
 18 19  1  0
 13 20  1  0
 20 21  1  0
  9 22  2  0
 22 23  1  0
 23 24  1  0
 24 25  1  0
 25 26  1  0
 26 27  1  0
 27 28  2  0
 28 29  1  0
 29 30  2  0
 30 31  1  0
 31 32  2  0
 32 33  1  0
 23 34  2  0
  6 35  2  0
 35  2  1  0
 34  7  1  0
 21 10  1  0
 33 24  1  0
 19 14  1  0
 32 27  1  0
  1 36  1  0
  3 37  1  0
  4 38  1  0
  5 39  1  0
 11 40  1  0
 11 41  1  0
 12 42  1  0
 12 43  1  0
 13 44  1  0
 15 45  1  0
 15 46  1  0
 16 47  1  0
 16 48  1  0
 17 49  1  0
 17 50  1  0
 18 51  1  0
 18 52  1  0
 19 53  1  0
 19 54  1  0
 20 55  1  0
 20 56  1  0
 21 57  1  0
 21 58  1  0
 25 59  1  0
 25 60  1  0
 26 61  1  0
 26 62  1  0
 28 63  1  0
 29 64  1  0
 30 65  1  0
 31 66  1  0
 33 67  1  0
 33 68  1  0
 35 69  1  0
M  END
>  <smiles>  (24) 
Oc1cccc(-c2nc(N3CCC(N4CCCCC4)CC3)nc(N3CCc4ccccc4C3)n2)c1

>  <score_type>  (24) 
oracle

>  <origin>  (24) 
autodockgpu

>  <m_score__min__energy>  (24) 
-9.6799999999999997

>  <m_primary>  (24) 
energy

>  <rmsd>  (24) 
10.1530381633183

>  <m_score__min__rmsd>  (24) 
10.1530381633183

>  <meeko>  (24) 
{"free_energy": -8.84, "intermolecular_energy": -10.33, "internal_energy": -1.18, "cluster_size": 13, "cluster_id": 2, "rank_in_cluster": 7}

>  <energy>  (24) 
-9.3

>  <cluster_rmsd>  (24) 
1.72

>  <cluster>  (24) 
1

$$$$

     RDKit          3D

 69 74  0  0  0  0  0  0  0  0999 V2000
  146.2770   73.1470  217.8400 O   0  0  0  0  0  0  0  0  0  0  0  0
  145.2870   72.3560  218.4090 C   0  0  0  0  0  0  0  0  0  0  0  0
  145.2830   71.0050  218.0710 C   0  0  0  0  0  0  0  0  0  0  0  0
  144.3220   70.1790  218.6110 C   0  0  0  0  0  0  0  0  0  0  0  0
  143.3540   70.6440  219.4810 C   0  0  0  0  0  0  0  0  0  0  0  0
  143.3950   71.9890  219.7890 C   0  0  0  0  0  0  0  0  0  0  0  0
  142.3940   72.5270  220.7050 C   0  0  0  0  0  0  0  0  0  0  0  0
  141.9140   73.7760  220.5390 N   0  0  0  0  0  0  0  0  0  0  0  0
  140.9900   74.3000  221.3670 C   0  0  0  0  0  0  0  0  0  0  0  0
  140.4540   75.5920  221.2440 N   0  0  0  0  0  0  0  0  0  0  0  0
  140.2770   76.2580  219.9700 C   0  0  0  0  0  0  0  0  0  0  0  0
  140.2480   77.7640  220.1270 C   0  0  0  0  0  0  0  0  0  0  0  0
  141.1800   78.2290  221.2160 C   0  0  0  0  0  0  0  0  0  0  0  0
  141.0600   79.6580  221.3440 N   0  0  0  0  0  0  0  0  0  0  0  0
  141.2650   80.1290  222.7000 C   0  0  0  0  0  0  0  0  0  0  0  0
  141.4490   81.6460  222.5610 C   0  0  0  0  0  0  0  0  0  0  0  0
  140.1840   82.2410  221.9960 C   0  0  0  0  0  0  0  0  0  0  0  0
  139.7370   81.5470  220.7420 C   0  0  0  0  0  0  0  0  0  0  0  0
  139.7100   80.0590  220.9930 C   0  0  0  0  0  0  0  0  0  0  0  0
  140.9720   77.5330  222.5280 C   0  0  0  0  0  0  0  0  0  0  0  0
  140.0400   76.3430  222.4290 C   0  0  0  0  0  0  0  0  0  0  0  0
  140.5490   73.5280  222.3860 N   0  0  0  0  0  0  0  0  0  0  0  0
  140.9930   72.2780  222.5980 C   0  0  0  0  0  0  0  0  0  0  0  0
  140.5010   71.5020  223.6820 N   0  0  0  0  0  0  0  0  0  0  0  0
  139.2580   70.7840  223.4840 C   0  0  0  0  0  0  0  0  0  0  0  0
  139.3590   69.4900  224.2640 C   0  0  0  0  0  0  0  0  0  0  0  0
  139.5450   69.8550  225.6940 C   0  0  0  0  0  0  0  0  0  0  0  0
  138.8220   69.2570  226.7170 C   0  0  0  0  0  0  0  0  0  0  0  0
  139.0560   69.6550  228.0170 C   0  0  0  0  0  0  0  0  0  0  0  0
  139.9910   70.6330  228.3330 C   0  0  0  0  0  0  0  0  0  0  0  0
  140.7070   71.2260  227.3210 C   0  0  0  0  0  0  0  0  0  0  0  0
  140.4720   70.8260  226.0060 C   0  0  0  0  0  0  0  0  0  0  0  0
  141.2410   71.4620  224.9110 C   0  0  0  0  0  0  0  0  0  0  0  0
  141.9160   71.8070  221.7370 N   0  0  0  0  0  0  0  0  0  0  0  0
  144.3380   72.8560  219.2750 C   0  0  0  0  0  0  0  0  0  0  0  0
  146.2650   74.1640  217.8600 H   0  0  0  0  0  0  0  0  0  0  0  0
  146.0387   70.6021  217.3806 H   0  0  0  0  0  0  0  0  0  0  0  0
  144.3251   69.1128  218.3405 H   0  0  0  0  0  0  0  0  0  0  0  0
  142.5900   69.9765  219.9062 H   0  0  0  0  0  0  0  0  0  0  0  0
  141.1098   75.9844  219.3055 H   0  0  0  0  0  0  0  0  0  0  0  0
  139.3140   75.9379  219.5455 H   0  0  0  0  0  0  0  0  0  0  0  0
  140.5511   78.2274  219.1765 H   0  0  0  0  0  0  0  0  0  0  0  0
  139.2249   78.0605  220.4016 H   0  0  0  0  0  0  0  0  0  0  0  0
  142.2054   77.9608  220.9219 H   0  0  0  0  0  0  0  0  0  0  0  0
  140.3905   79.9000  223.3267 H   0  0  0  0  0  0  0  0  0  0  0  0
  142.1284   79.6472  223.1822 H   0  0  0  0  0  0  0  0  0  0  0  0
  141.6548   82.0851  223.5483 H   0  0  0  0  0  0  0  0  0  0  0  0
  142.2938   81.8593  221.8895 H   0  0  0  0  0  0  0  0  0  0  0  0
  139.3869   82.1577  222.7495 H   0  0  0  0  0  0  0  0  0  0  0  0
  140.3906   83.2914  221.7432 H   0  0  0  0  0  0  0  0  0  0  0  0
  138.7301   81.8938  220.4664 H   0  0  0  0  0  0  0  0  0  0  0  0
  140.4321   81.7750  219.9205 H   0  0  0  0  0  0  0  0  0  0  0  0
  139.0216   79.8287  221.8195 H   0  0  0  0  0  0  0  0  0  0  0  0
  139.3621   79.5188  220.1002 H   0  0  0  0  0  0  0  0  0  0  0  0
  141.9475   77.1837  222.8974 H   0  0  0  0  0  0  0  0  0  0  0  0
  140.5071   78.2573  223.2130 H   0  0  0  0  0  0  0  0  0  0  0  0
  140.1283   75.7148  223.3276 H   0  0  0  0  0  0  0  0  0  0  0  0
  138.9906   76.6636  222.3516 H   0  0  0  0  0  0  0  0  0  0  0  0
  138.4135   71.3830  223.8555 H   0  0  0  0  0  0  0  0  0  0  0  0
  139.0887   70.5837  222.4157 H   0  0  0  0  0  0  0  0  0  0  0  0
  138.4372   68.9025  224.1413 H   0  0  0  0  0  0  0  0  0  0  0  0
  140.2000   68.8797  223.9030 H   0  0  0  0  0  0  0  0  0  0  0  0
  138.0759   68.4798  226.4951 H   0  0  0  0  0  0  0  0  0  0  0  0
  138.4840   69.1830  228.8294 H   0  0  0  0  0  0  0  0  0  0  0  0
  140.1559   70.9287  229.3796 H   0  0  0  0  0  0  0  0  0  0  0  0
  141.4529   72.0030  227.5445 H   0  0  0  0  0  0  0  0  0  0  0  0
  141.4933   72.4911  225.2064 H   0  0  0  0  0  0  0  0  0  0  0  0
  142.1467   70.8613  224.7408 H   0  0  0  0  0  0  0  0  0  0  0  0
  144.3324   73.9211  219.5499 H   0  0  0  0  0  0  0  0  0  0  0  0
  1  2  1  0
  2  3  2  0
  3  4  1  0
  4  5  2  0
  5  6  1  0
  6  7  1  0
  7  8  2  0
  8  9  1  0
  9 10  1  0
 10 11  1  0
 11 12  1  0
 12 13  1  0
 13 14  1  0
 14 15  1  0
 15 16  1  0
 16 17  1  0
 17 18  1  0
 18 19  1  0
 13 20  1  0
 20 21  1  0
  9 22  2  0
 22 23  1  0
 23 24  1  0
 24 25  1  0
 25 26  1  0
 26 27  1  0
 27 28  2  0
 28 29  1  0
 29 30  2  0
 30 31  1  0
 31 32  2  0
 32 33  1  0
 23 34  2  0
  6 35  2  0
 35  2  1  0
 34  7  1  0
 21 10  1  0
 33 24  1  0
 19 14  1  0
 32 27  1  0
  1 36  1  0
  3 37  1  0
  4 38  1  0
  5 39  1  0
 11 40  1  0
 11 41  1  0
 12 42  1  0
 12 43  1  0
 13 44  1  0
 15 45  1  0
 15 46  1  0
 16 47  1  0
 16 48  1  0
 17 49  1  0
 17 50  1  0
 18 51  1  0
 18 52  1  0
 19 53  1  0
 19 54  1  0
 20 55  1  0
 20 56  1  0
 21 57  1  0
 21 58  1  0
 25 59  1  0
 25 60  1  0
 26 61  1  0
 26 62  1  0
 28 63  1  0
 29 64  1  0
 30 65  1  0
 31 66  1  0
 33 67  1  0
 33 68  1  0
 35 69  1  0
M  END
>  <smiles>  (25) 
Oc1cccc(-c2nc(N3CCC(N4CCCCC4)CC3)nc(N3CCc4ccccc4C3)n2)c1

>  <score_type>  (25) 
oracle

>  <origin>  (25) 
autodockgpu

>  <m_score__min__energy>  (25) 
-9.6799999999999997

>  <m_primary>  (25) 
energy

>  <rmsd>  (25) 
5.070657975482221

>  <m_score__min__rmsd>  (25) 
5.070657975482221

>  <meeko>  (25) 
{"free_energy": -9.12, "intermolecular_energy": -10.62, "internal_energy": -1.17, "cluster_size": 35, "cluster_id": 1, "rank_in_cluster": 29}

>  <energy>  (25) 
-9.27

>  <cluster_rmsd>  (25) 
1.55

>  <cluster>  (25) 
1

$$$$

     RDKit          3D

 69 74  0  0  0  0  0  0  0  0999 V2000
  146.3170   73.0440  218.5920 O   0  0  0  0  0  0  0  0  0  0  0  0
  145.0820   72.4240  218.7290 C   0  0  0  0  0  0  0  0  0  0  0  0
  144.8310   71.3240  217.9120 C   0  0  0  0  0  0  0  0  0  0  0  0
  143.6210   70.6740  218.0120 C   0  0  0  0  0  0  0  0  0  0  0  0
  142.6380   71.0770  218.8960 C   0  0  0  0  0  0  0  0  0  0  0  0
  142.9280   72.1710  219.6860 C   0  0  0  0  0  0  0  0  0  0  0  0
  141.9210   72.6330  220.6370 C   0  0  0  0  0  0  0  0  0  0  0  0
  141.3270   73.8330  220.4770 N   0  0  0  0  0  0  0  0  0  0  0  0
  140.3950   74.2860  221.3370 C   0  0  0  0  0  0  0  0  0  0  0  0
  139.7430   75.5250  221.2220 N   0  0  0  0  0  0  0  0  0  0  0  0
  140.4310   76.7530  220.8770 C   0  0  0  0  0  0  0  0  0  0  0  0
  139.6790   77.9710  221.3700 C   0  0  0  0  0  0  0  0  0  0  0  0
  138.9990   77.7100  222.6900 C   0  0  0  0  0  0  0  0  0  0  0  0
  138.2630   78.8870  223.0680 N   0  0  0  0  0  0  0  0  0  0  0  0
  137.7710   79.6440  221.9330 C   0  0  0  0  0  0  0  0  0  0  0  0
  136.7460   80.6180  222.5300 C   0  0  0  0  0  0  0  0  0  0  0  0
  137.4520   81.5380  223.4940 C   0  0  0  0  0  0  0  0  0  0  0  0
  138.2660   80.7880  224.5070 C   0  0  0  0  0  0  0  0  0  0  0  0
  139.1420   79.7910  223.7870 C   0  0  0  0  0  0  0  0  0  0  0  0
  138.1310   76.4860  222.6910 C   0  0  0  0  0  0  0  0  0  0  0  0
  138.3030   75.6330  221.4520 C   0  0  0  0  0  0  0  0  0  0  0  0
  140.0660   73.4950  222.3820 N   0  0  0  0  0  0  0  0  0  0  0  0
  140.6260   72.2910  222.5890 C   0  0  0  0  0  0  0  0  0  0  0  0
  140.2490   71.4920  223.7010 N   0  0  0  0  0  0  0  0  0  0  0  0
  139.0420   70.6980  223.5800 C   0  0  0  0  0  0  0  0  0  0  0  0
  139.2680   69.4160  224.3530 C   0  0  0  0  0  0  0  0  0  0  0  0
  139.5180   69.7980  225.7690 C   0  0  0  0  0  0  0  0  0  0  0  0
  138.8970   69.1610  226.8340 C   0  0  0  0  0  0  0  0  0  0  0  0
  139.1840   69.5780  228.1180 C   0  0  0  0  0  0  0  0  0  0  0  0
  140.0750   70.6130  228.3760 C   0  0  0  0  0  0  0  0  0  0  0  0
  140.6910   71.2440  227.3220 C   0  0  0  0  0  0  0  0  0  0  0  0
  140.4020   70.8250  226.0240 C   0  0  0  0  0  0  0  0  0  0  0  0
  141.0630   71.5020  224.8840 C   0  0  0  0  0  0  0  0  0  0  0  0
  141.5520   71.8900  221.6960 N   0  0  0  0  0  0  0  0  0  0  0  0
  144.1260   72.8540  219.6240 C   0  0  0  0  0  0  0  0  0  0  0  0
  146.4430   74.0530  218.5890 H   0  0  0  0  0  0  0  0  0  0  0  0
  145.5905   70.9785  217.1952 H   0  0  0  0  0  0  0  0  0  0  0  0
  143.4304   69.8042  217.3661 H   0  0  0  0  0  0  0  0  0  0  0  0
  141.6736   70.5526  218.9664 H   0  0  0  0  0  0  0  0  0  0  0  0
  141.4315   76.7421  221.3341 H   0  0  0  0  0  0  0  0  0  0  0  0
  140.5003   76.8120  219.7808 H   0  0  0  0  0  0  0  0  0  0  0  0
  140.3886   78.8025  221.4928 H   0  0  0  0  0  0  0  0  0  0  0  0
  138.9051   78.2194  220.6288 H   0  0  0  0  0  0  0  0  0  0  0  0
  139.7781   77.4960  223.4364 H   0  0  0  0  0  0  0  0  0  0  0  0
  138.5914   80.1932  221.4479 H   0  0  0  0  0  0  0  0  0  0  0  0
  137.3298   78.9970  221.1605 H   0  0  0  0  0  0  0  0  0  0  0  0
  136.2857   81.2094  221.7248 H   0  0  0  0  0  0  0  0  0  0  0  0
  135.9607   80.0565  223.0572 H   0  0  0  0  0  0  0  0  0  0  0  0
  138.1200   82.2012  222.9248 H   0  0  0  0  0  0  0  0  0  0  0  0
  136.6842   82.1092  224.0365 H   0  0  0  0  0  0  0  0  0  0  0  0
  138.8947   81.4928  225.0709 H   0  0  0  0  0  0  0  0  0  0  0  0
  137.5994   80.2625  225.2066 H   0  0  0  0  0  0  0  0  0  0  0  0
  139.8050   80.3127  223.0811 H   0  0  0  0  0  0  0  0  0  0  0  0
  139.7716   79.2384  224.4999 H   0  0  0  0  0  0  0  0  0  0  0  0
  138.3844   75.8782  223.5721 H   0  0  0  0  0  0  0  0  0  0  0  0
  137.0852   76.8264  222.7114 H   0  0  0  0  0  0  0  0  0  0  0  0
  137.8676   74.6358  221.6132 H   0  0  0  0  0  0  0  0  0  0  0  0
  137.7932   76.0802  220.5859 H   0  0  0  0  0  0  0  0  0  0  0  0
  138.1867   71.2463  224.0018 H   0  0  0  0  0  0  0  0  0  0  0  0
  138.8213   70.4827  222.5241 H   0  0  0  0  0  0  0  0  0  0  0  0
  138.3776   68.7735  224.2870 H   0  0  0  0  0  0  0  0  0  0  0  0
  140.1208   68.8558  223.9419 H   0  0  0  0  0  0  0  0  0  0  0  0
  138.1885   68.3382  226.6580 H   0  0  0  0  0  0  0  0  0  0  0  0
  138.6921   69.0754  228.9638 H   0  0  0  0  0  0  0  0  0  0  0  0
  140.2844   70.9230  229.4104 H   0  0  0  0  0  0  0  0  0  0  0  0
  141.4002   72.0659  227.4994 H   0  0  0  0  0  0  0  0  0  0  0  0
  141.2694   72.5458  225.1632 H   0  0  0  0  0  0  0  0  0  0  0  0
  141.9915   70.9565  224.6596 H   0  0  0  0  0  0  0  0  0  0  0  0
  144.3134   73.7215  220.2739 H   0  0  0  0  0  0  0  0  0  0  0  0
  1  2  1  0
  2  3  2  0
  3  4  1  0
  4  5  2  0
  5  6  1  0
  6  7  1  0
  7  8  2  0
  8  9  1  0
  9 10  1  0
 10 11  1  0
 11 12  1  0
 12 13  1  0
 13 14  1  0
 14 15  1  0
 15 16  1  0
 16 17  1  0
 17 18  1  0
 18 19  1  0
 13 20  1  0
 20 21  1  0
  9 22  2  0
 22 23  1  0
 23 24  1  0
 24 25  1  0
 25 26  1  0
 26 27  1  0
 27 28  2  0
 28 29  1  0
 29 30  2  0
 30 31  1  0
 31 32  2  0
 32 33  1  0
 23 34  2  0
  6 35  2  0
 35  2  1  0
 34  7  1  0
 21 10  1  0
 33 24  1  0
 19 14  1  0
 32 27  1  0
  1 36  1  0
  3 37  1  0
  4 38  1  0
  5 39  1  0
 11 40  1  0
 11 41  1  0
 12 42  1  0
 12 43  1  0
 13 44  1  0
 15 45  1  0
 15 46  1  0
 16 47  1  0
 16 48  1  0
 17 49  1  0
 17 50  1  0
 18 51  1  0
 18 52  1  0
 19 53  1  0
 19 54  1  0
 20 55  1  0
 20 56  1  0
 21 57  1  0
 21 58  1  0
 25 59  1  0
 25 60  1  0
 26 61  1  0
 26 62  1  0
 28 63  1  0
 29 64  1  0
 30 65  1  0
 31 66  1  0
 33 67  1  0
 33 68  1  0
 35 69  1  0
M  END
>  <smiles>  (26) 
Oc1cccc(-c2nc(N3CCC(N4CCCCC4)CC3)nc(N3CCc4ccccc4C3)n2)c1

>  <score_type>  (26) 
oracle

>  <origin>  (26) 
autodockgpu

>  <m_score__min__energy>  (26) 
-9.6799999999999997

>  <m_primary>  (26) 
energy

>  <rmsd>  (26) 
6.398882283328438

>  <m_score__min__rmsd>  (26) 
6.398882283328438

>  <meeko>  (26) 
{"free_energy": -9.48, "intermolecular_energy": -10.97, "internal_energy": -1.17, "cluster_size": 35, "cluster_id": 1, "rank_in_cluster": 6}

>  <energy>  (26) 
-9.26

>  <cluster_rmsd>  (26) 
1.84

>  <cluster>  (26) 
1

$$$$

     RDKit          3D

 69 74  0  0  0  0  0  0  0  0999 V2000
  146.5520   73.2050  219.4750 O   0  0  0  0  0  0  0  0  0  0  0  0
  145.2580   72.7380  219.2800 C   0  0  0  0  0  0  0  0  0  0  0  0
  145.0440   71.9040  218.1850 C   0  0  0  0  0  0  0  0  0  0  0  0
  143.7780   71.4140  217.9510 C   0  0  0  0  0  0  0  0  0  0  0  0
  142.7050   71.7210  218.7660 C   0  0  0  0  0  0  0  0  0  0  0  0
  142.9620   72.5510  219.8380 C   0  0  0  0  0  0  0  0  0  0  0  0
  141.8600   72.9040  220.7280 C   0  0  0  0  0  0  0  0  0  0  0  0
  141.1540   74.0360  220.5300 N   0  0  0  0  0  0  0  0  0  0  0  0
  140.1330   74.3880  221.3340 C   0  0  0  0  0  0  0  0  0  0  0  0
  139.3630   75.5530  221.1770 N   0  0  0  0  0  0  0  0  0  0  0  0
  139.8180   76.7080  220.4290 C   0  0  0  0  0  0  0  0  0  0  0  0
  139.1170   77.9730  220.8780 C   0  0  0  0  0  0  0  0  0  0  0  0
  138.8420   77.9630  222.3590 C   0  0  0  0  0  0  0  0  0  0  0  0
  138.1300   79.1660  222.7020 N   0  0  0  0  0  0  0  0  0  0  0  0
  138.6810   79.8480  223.8570 C   0  0  0  0  0  0  0  0  0  0  0  0
  138.0320   81.2380  223.8350 C   0  0  0  0  0  0  0  0  0  0  0  0
  136.5400   81.0820  223.9950 C   0  0  0  0  0  0  0  0  0  0  0  0
  135.9600   80.1050  223.0130 C   0  0  0  0  0  0  0  0  0  0  0  0
  136.7650   78.8290  223.0650 C   0  0  0  0  0  0  0  0  0  0  0  0
  138.1220   76.7360  222.8330 C   0  0  0  0  0  0  0  0  0  0  0  0
  138.0340   75.6530  221.7770 C   0  0  0  0  0  0  0  0  0  0  0  0
  139.8290   73.5650  222.3620 N   0  0  0  0  0  0  0  0  0  0  0  0
  140.4980   72.4260  222.6050 C   0  0  0  0  0  0  0  0  0  0  0  0
  140.1430   71.5890  223.6970 N   0  0  0  0  0  0  0  0  0  0  0  0
  138.8640   70.9100  223.6360 C   0  0  0  0  0  0  0  0  0  0  0  0
  139.0370   69.5650  224.3090 C   0  0  0  0  0  0  0  0  0  0  0  0
  139.4360   69.8300  225.7170 C   0  0  0  0  0  0  0  0  0  0  0  0
  138.8490   69.1790  226.7940 C   0  0  0  0  0  0  0  0  0  0  0  0
  139.2780   69.4840  228.0700 C   0  0  0  0  0  0  0  0  0  0  0  0
  140.2760   70.4210  228.3090 C   0  0  0  0  0  0  0  0  0  0  0  0
  140.8580   71.0660  227.2440 C   0  0  0  0  0  0  0  0  0  0  0  0
  140.4260   70.7600  225.9540 C   0  0  0  0  0  0  0  0  0  0  0  0
  141.0490   71.4520  224.8020 C   0  0  0  0  0  0  0  0  0  0  0  0
  141.5100   72.1250  221.7670 N   0  0  0  0  0  0  0  0  0  0  0  0
  144.2120   73.0660  220.1150 C   0  0  0  0  0  0  0  0  0  0  0  0
  146.8090   74.1870  219.4170 H   0  0  0  0  0  0  0  0  0  0  0  0
  145.8758   71.6399  217.5154 H   0  0  0  0  0  0  0  0  0  0  0  0
  143.6155   70.7553  217.0851 H   0  0  0  0  0  0  0  0  0  0  0  0
  141.6979   71.3242  218.5703 H   0  0  0  0  0  0  0  0  0  0  0  0
  140.9011   76.8271  220.5797 H   0  0  0  0  0  0  0  0  0  0  0  0
  139.5855   76.5438  219.3665 H   0  0  0  0  0  0  0  0  0  0  0  0
  139.7544   78.8373  220.6398 H   0  0  0  0  0  0  0  0  0  0  0  0
  138.1534   78.0361  220.3511 H   0  0  0  0  0  0  0  0  0  0  0  0
  139.8090   77.9335  222.8824 H   0  0  0  0  0  0  0  0  0  0  0  0
  138.4221   79.3137  224.7830 H   0  0  0  0  0  0  0  0  0  0  0  0
  139.7792   79.9010  223.8242 H   0  0  0  0  0  0  0  0  0  0  0  0
  138.4307   81.8450  224.6612 H   0  0  0  0  0  0  0  0  0  0  0  0
  138.2547   81.7388  222.8813 H   0  0  0  0  0  0  0  0  0  0  0  0
  136.3289   80.7264  225.0143 H   0  0  0  0  0  0  0  0  0  0  0  0
  136.0774   82.0622  223.8073 H   0  0  0  0  0  0  0  0  0  0  0  0
  134.9133   79.8930  223.2764 H   0  0  0  0  0  0  0  0  0  0  0  0
  135.9951   80.5286  221.9984 H   0  0  0  0  0  0  0  0  0  0  0  0
  136.7384   78.4080  224.0809 H   0  0  0  0  0  0  0  0  0  0  0  0
  136.3518   78.0788  222.3747 H   0  0  0  0  0  0  0  0  0  0  0  0
  138.6563   76.3317  223.7054 H   0  0  0  0  0  0  0  0  0  0  0  0
  137.0933   77.0353  223.0823 H   0  0  0  0  0  0  0  0  0  0  0  0
  137.7513   74.6948  222.2373 H   0  0  0  0  0  0  0  0  0  0  0  0
  137.2722   75.8940  221.0210 H   0  0  0  0  0  0  0  0  0  0  0  0
  138.0992   71.4993  224.1631 H   0  0  0  0  0  0  0  0  0  0  0  0
  138.5383   70.7850  222.5928 H   0  0  0  0  0  0  0  0  0  0  0  0
  138.0902   69.0057  224.2838 H   0  0  0  0  0  0  0  0  0  0  0  0
  139.7991   68.9632  223.7922 H   0  0  0  0  0  0  0  0  0  0  0  0
  138.0563   68.4336  226.6331 H   0  0  0  0  0  0  0  0  0  0  0  0
  138.8152   68.9690  228.9248 H   0  0  0  0  0  0  0  0  0  0  0  0
  140.5961   70.6437  229.3376 H   0  0  0  0  0  0  0  0  0  0  0  0
  141.6510   71.8108  227.4065 H   0  0  0  0  0  0  0  0  0  0  0  0
  141.3709   72.4538  225.1224 H   0  0  0  0  0  0  0  0  0  0  0  0
  141.9028   70.8457  224.4654 H   0  0  0  0  0  0  0  0  0  0  0  0
  144.3698   73.7234  220.9827 H   0  0  0  0  0  0  0  0  0  0  0  0
  1  2  1  0
  2  3  2  0
  3  4  1  0
  4  5  2  0
  5  6  1  0
  6  7  1  0
  7  8  2  0
  8  9  1  0
  9 10  1  0
 10 11  1  0
 11 12  1  0
 12 13  1  0
 13 14  1  0
 14 15  1  0
 15 16  1  0
 16 17  1  0
 17 18  1  0
 18 19  1  0
 13 20  1  0
 20 21  1  0
  9 22  2  0
 22 23  1  0
 23 24  1  0
 24 25  1  0
 25 26  1  0
 26 27  1  0
 27 28  2  0
 28 29  1  0
 29 30  2  0
 30 31  1  0
 31 32  2  0
 32 33  1  0
 23 34  2  0
  6 35  2  0
 35  2  1  0
 34  7  1  0
 21 10  1  0
 33 24  1  0
 19 14  1  0
 32 27  1  0
  1 36  1  0
  3 37  1  0
  4 38  1  0
  5 39  1  0
 11 40  1  0
 11 41  1  0
 12 42  1  0
 12 43  1  0
 13 44  1  0
 15 45  1  0
 15 46  1  0
 16 47  1  0
 16 48  1  0
 17 49  1  0
 17 50  1  0
 18 51  1  0
 18 52  1  0
 19 53  1  0
 19 54  1  0
 20 55  1  0
 20 56  1  0
 21 57  1  0
 21 58  1  0
 25 59  1  0
 25 60  1  0
 26 61  1  0
 26 62  1  0
 28 63  1  0
 29 64  1  0
 30 65  1  0
 31 66  1  0
 33 67  1  0
 33 68  1  0
 35 69  1  0
M  END
>  <smiles>  (27) 
Oc1cccc(-c2nc(N3CCC(N4CCCCC4)CC3)nc(N3CCc4ccccc4C3)n2)c1

>  <score_type>  (27) 
oracle

>  <origin>  (27) 
autodockgpu

>  <m_score__min__energy>  (27) 
-9.6799999999999997

>  <m_primary>  (27) 
energy

>  <rmsd>  (27) 
6.2996669190212575

>  <m_score__min__rmsd>  (27) 
6.2996669190212575

>  <meeko>  (27) 
{"free_energy": -9.05, "intermolecular_energy": -10.54, "internal_energy": -1.16, "cluster_size": 35, "cluster_id": 1, "rank_in_cluster": 31}

>  <energy>  (27) 
-9.25

>  <cluster_rmsd>  (27) 
0.45

>  <cluster>  (27) 
1

$$$$

     RDKit          3D

 69 74  0  0  0  0  0  0  0  0999 V2000
  145.6840   68.7980  219.5440 O   0  0  0  0  0  0  0  0  0  0  0  0
  144.9120   69.9020  219.2080 C   0  0  0  0  0  0  0  0  0  0  0  0
  145.0650   70.4150  217.9220 C   0  0  0  0  0  0  0  0  0  0  0  0
  144.3200   71.5090  217.5410 C   0  0  0  0  0  0  0  0  0  0  0  0
  143.4200   72.1220  218.3920 C   0  0  0  0  0  0  0  0  0  0  0  0
  143.3000   71.5830  219.6570 C   0  0  0  0  0  0  0  0  0  0  0  0
  142.3620   72.1950  220.5920 C   0  0  0  0  0  0  0  0  0  0  0  0
  141.9430   73.4640  220.4110 N   0  0  0  0  0  0  0  0  0  0  0  0
  141.0780   74.0550  221.2570 C   0  0  0  0  0  0  0  0  0  0  0  0
  140.6080   75.3720  221.1200 N   0  0  0  0  0  0  0  0  0  0  0  0
  140.8400   76.1770  219.9380 C   0  0  0  0  0  0  0  0  0  0  0  0
  140.7620   77.6570  220.2480 C   0  0  0  0  0  0  0  0  0  0  0  0
  141.3040   77.9690  221.6190 C   0  0  0  0  0  0  0  0  0  0  0  0
  141.1490   79.3790  221.8650 N   0  0  0  0  0  0  0  0  0  0  0  0
  141.5100   80.2010  220.7260 C   0  0  0  0  0  0  0  0  0  0  0  0
  140.9490   81.5900  221.0560 C   0  0  0  0  0  0  0  0  0  0  0  0
  141.6280   82.1080  222.2990 C   0  0  0  0  0  0  0  0  0  0  0  0
  141.5700   81.1250  223.4320 C   0  0  0  0  0  0  0  0  0  0  0  0
  142.0440   79.7810  222.9340 C   0  0  0  0  0  0  0  0  0  0  0  0
  140.6940   77.1430  222.7130 C   0  0  0  0  0  0  0  0  0  0  0  0
  139.8410   76.0040  222.1940 C   0  0  0  0  0  0  0  0  0  0  0  0
  140.6340   73.3330  222.3100 N   0  0  0  0  0  0  0  0  0  0  0  0
  141.0180   72.0660  222.5380 C   0  0  0  0  0  0  0  0  0  0  0  0
  140.5240   71.3430  223.6560 N   0  0  0  0  0  0  0  0  0  0  0  0
  139.1790   70.8090  223.5720 C   0  0  0  0  0  0  0  0  0  0  0  0
  139.1690   69.4970  224.3280 C   0  0  0  0  0  0  0  0  0  0  0  0
  139.5360   69.8020  225.7360 C   0  0  0  0  0  0  0  0  0  0  0  0
  138.8350   69.2880  226.8180 C   0  0  0  0  0  0  0  0  0  0  0  0
  139.2420   69.6210  228.0940 C   0  0  0  0  0  0  0  0  0  0  0  0
  140.3310   70.4530  228.3280 C   0  0  0  0  0  0  0  0  0  0  0  0
  141.0260   70.9620  227.2570 C   0  0  0  0  0  0  0  0  0  0  0  0
  140.6160   70.6270  225.9680 C   0  0  0  0  0  0  0  0  0  0  0  0
  141.3620   71.1730  224.8100 C   0  0  0  0  0  0  0  0  0  0  0  0
  141.8840   71.5260  221.6570 N   0  0  0  0  0  0  0  0  0  0  0  0
  144.0240   70.4880  220.0850 C   0  0  0  0  0  0  0  0  0  0  0  0
  145.3310   67.8450  219.5480 H   0  0  0  0  0  0  0  0  0  0  0  0
  145.7727   69.9517  217.2188 H   0  0  0  0  0  0  0  0  0  0  0  0
  144.4457   71.9087  216.5239 H   0  0  0  0  0  0  0  0  0  0  0  0
  142.8294   72.9950  218.0772 H   0  0  0  0  0  0  0  0  0  0  0  0
  141.8397   75.9477  219.5404 H   0  0  0  0  0  0  0  0  0  0  0  0
  140.0598   75.9382  219.2003 H   0  0  0  0  0  0  0  0  0  0  0  0
  141.3481   78.2094  219.4988 H   0  0  0  0  0  0  0  0  0  0  0  0
  139.7042   77.9575  220.2211 H   0  0  0  0  0  0  0  0  0  0  0  0
  142.3701   77.6984  221.6310 H   0  0  0  0  0  0  0  0  0  0  0  0
  142.6029   80.2419  220.6078 H   0  0  0  0  0  0  0  0  0  0  0  0
  141.1094   79.8035  219.7818 H   0  0  0  0  0  0  0  0  0  0  0  0
  141.1418   82.2750  220.2172 H   0  0  0  0  0  0  0  0  0  0  0  0
  139.8639   81.5236  221.2240 H   0  0  0  0  0  0  0  0  0  0  0  0
  142.6825   82.3164  222.0652 H   0  0  0  0  0  0  0  0  0  0  0  0
  141.0991   83.0187  222.6165 H   0  0  0  0  0  0  0  0  0  0  0  0
  142.2201   81.4661  224.2512 H   0  0  0  0  0  0  0  0  0  0  0  0
  140.5380   81.0433  223.8038 H   0  0  0  0  0  0  0  0  0  0  0  0
  143.0730   79.8616  222.5536 H   0  0  0  0  0  0  0  0  0  0  0  0
  142.0390   79.0397  223.7467 H   0  0  0  0  0  0  0  0  0  0  0  0
  141.5041   76.7220  223.3266 H   0  0  0  0  0  0  0  0  0  0  0  0
  140.0367   77.8052  223.2956 H   0  0  0  0  0  0  0  0  0  0  0  0
  139.6432   75.2796  222.9978 H   0  0  0  0  0  0  0  0  0  0  0  0
  138.8684   76.3668  221.8302 H   0  0  0  0  0  0  0  0  0  0  0  0
  138.4656   71.5116  224.0274 H   0  0  0  0  0  0  0  0  0  0  0  0
  138.8845   70.6570  222.5231 H   0  0  0  0  0  0  0  0  0  0  0  0
  138.1664   69.0462  224.2884 H   0  0  0  0  0  0  0  0  0  0  0  0
  139.8786   68.7834  223.8839 H   0  0  0  0  0  0  0  0  0  0  0  0
  137.9701   68.6267  226.6612 H   0  0  0  0  0  0  0  0  0  0  0  0
  138.6873   69.2154  228.9529 H   0  0  0  0  0  0  0  0  0  0  0  0
  140.6324   70.7006  229.3565 H   0  0  0  0  0  0  0  0  0  0  0  0
  141.8913   71.6226  227.4147 H   0  0  0  0  0  0  0  0  0  0  0  0
  141.7833   72.1501  225.0889 H   0  0  0  0  0  0  0  0  0  0  0  0
  142.1538   70.4552  224.5495 H   0  0  0  0  0  0  0  0  0  0  0  0
  143.8952   70.0919  221.1031 H   0  0  0  0  0  0  0  0  0  0  0  0
  1  2  1  0
  2  3  2  0
  3  4  1  0
  4  5  2  0
  5  6  1  0
  6  7  1  0
  7  8  2  0
  8  9  1  0
  9 10  1  0
 10 11  1  0
 11 12  1  0
 12 13  1  0
 13 14  1  0
 14 15  1  0
 15 16  1  0
 16 17  1  0
 17 18  1  0
 18 19  1  0
 13 20  1  0
 20 21  1  0
  9 22  2  0
 22 23  1  0
 23 24  1  0
 24 25  1  0
 25 26  1  0
 26 27  1  0
 27 28  2  0
 28 29  1  0
 29 30  2  0
 30 31  1  0
 31 32  2  0
 32 33  1  0
 23 34  2  0
  6 35  2  0
 35  2  1  0
 34  7  1  0
 21 10  1  0
 33 24  1  0
 19 14  1  0
 32 27  1  0
  1 36  1  0
  3 37  1  0
  4 38  1  0
  5 39  1  0
 11 40  1  0
 11 41  1  0
 12 42  1  0
 12 43  1  0
 13 44  1  0
 15 45  1  0
 15 46  1  0
 16 47  1  0
 16 48  1  0
 17 49  1  0
 17 50  1  0
 18 51  1  0
 18 52  1  0
 19 53  1  0
 19 54  1  0
 20 55  1  0
 20 56  1  0
 21 57  1  0
 21 58  1  0
 25 59  1  0
 25 60  1  0
 26 61  1  0
 26 62  1  0
 28 63  1  0
 29 64  1  0
 30 65  1  0
 31 66  1  0
 33 67  1  0
 33 68  1  0
 35 69  1  0
M  END
>  <smiles>  (28) 
Oc1cccc(-c2nc(N3CCC(N4CCCCC4)CC3)nc(N3CCc4ccccc4C3)n2)c1

>  <score_type>  (28) 
oracle

>  <origin>  (28) 
autodockgpu

>  <m_score__min__energy>  (28) 
-9.6799999999999997

>  <m_primary>  (28) 
energy

>  <rmsd>  (28) 
5.670743143079336

>  <m_score__min__rmsd>  (28) 
5.670743143079336

>  <meeko>  (28) 
{"free_energy": -8.88, "intermolecular_energy": -10.37, "internal_energy": -1.15, "cluster_size": 35, "cluster_id": 1, "rank_in_cluster": 33}

>  <energy>  (28) 
-9.17

>  <cluster_rmsd>  (28) 
1.53

>  <cluster>  (28) 
1

$$$$

     RDKit          3D

 69 74  0  0  0  0  0  0  0  0999 V2000
  146.3280   71.6280  219.7880 O   0  0  0  0  0  0  0  0  0  0  0  0
  145.2250   72.3910  219.4280 C   0  0  0  0  0  0  0  0  0  0  0  0
  145.2480   72.9820  218.1670 C   0  0  0  0  0  0  0  0  0  0  0  0
  144.1760   73.7480  217.7640 C   0  0  0  0  0  0  0  0  0  0  0  0
  143.0720   73.9550  218.5700 C   0  0  0  0  0  0  0  0  0  0  0  0
  143.0920   73.3520  219.8110 C   0  0  0  0  0  0  0  0  0  0  0  0
  141.9480   73.5410  220.6980 C   0  0  0  0  0  0  0  0  0  0  0  0
  141.2050   74.6650  220.6300 N   0  0  0  0  0  0  0  0  0  0  0  0
  140.1450   74.8670  221.4350 C   0  0  0  0  0  0  0  0  0  0  0  0
  139.3360   76.0150  221.4100 N   0  0  0  0  0  0  0  0  0  0  0  0
  139.8130   77.3100  220.9680 C   0  0  0  0  0  0  0  0  0  0  0  0
  138.9920   78.4370  221.5600 C   0  0  0  0  0  0  0  0  0  0  0  0
  138.5390   78.1210  222.9620 C   0  0  0  0  0  0  0  0  0  0  0  0
  137.7240   79.2070  223.4380 N   0  0  0  0  0  0  0  0  0  0  0  0
  136.9900   79.8770  222.3810 C   0  0  0  0  0  0  0  0  0  0  0  0
  135.9460   80.7310  223.1130 C   0  0  0  0  0  0  0  0  0  0  0  0
  136.6600   81.7480  223.9680 C   0  0  0  0  0  0  0  0  0  0  0  0
  137.6920   81.1210  224.8590 C   0  0  0  0  0  0  0  0  0  0  0  0
  138.5750   80.2250  224.0250 C   0  0  0  0  0  0  0  0  0  0  0  0
  137.8370   76.8020  223.0880 C   0  0  0  0  0  0  0  0  0  0  0  0
  137.9390   75.9510  221.8390 C   0  0  0  0  0  0  0  0  0  0  0  0
  139.8390   73.8990  222.3270 N   0  0  0  0  0  0  0  0  0  0  0  0
  140.5440   72.7610  222.4380 C   0  0  0  0  0  0  0  0  0  0  0  0
  140.1860   71.7690  223.3900 N   0  0  0  0  0  0  0  0  0  0  0  0
  138.9470   71.0480  223.1760 C   0  0  0  0  0  0  0  0  0  0  0  0
  139.1600   69.6330  223.6730 C   0  0  0  0  0  0  0  0  0  0  0  0
  139.4830   69.7230  225.1220 C   0  0  0  0  0  0  0  0  0  0  0  0
  138.8860   68.9080  226.0720 C   0  0  0  0  0  0  0  0  0  0  0  0
  139.2430   69.0570  227.3970 C   0  0  0  0  0  0  0  0  0  0  0  0
  140.1800   69.9960  227.8070 C   0  0  0  0  0  0  0  0  0  0  0  0
  140.7740   70.8050  226.8670 C   0  0  0  0  0  0  0  0  0  0  0  0
  140.4140   70.6560  225.5290 C   0  0  0  0  0  0  0  0  0  0  0  0
  141.0500   71.5250  224.5100 C   0  0  0  0  0  0  0  0  0  0  0  0
  141.5940   72.6140  221.6060 N   0  0  0  0  0  0  0  0  0  0  0  0
  144.1410   72.5750  220.2590 C   0  0  0  0  0  0  0  0  0  0  0  0
  146.5410   71.3650  220.7470 H   0  0  0  0  0  0  0  0  0  0  0  0
  146.1116   72.8389  217.5009 H   0  0  0  0  0  0  0  0  0  0  0  0
  144.1994   74.2109  216.7664 H   0  0  0  0  0  0  0  0  0  0  0  0
  142.2214   74.5689  218.2390 H   0  0  0  0  0  0  0  0  0  0  0  0
  140.8612   77.4299  221.2793 H   0  0  0  0  0  0  0  0  0  0  0  0
  139.7215   77.3555  219.8728 H   0  0  0  0  0  0  0  0  0  0  0  0
  139.6040   79.3508  221.5808 H   0  0  0  0  0  0  0  0  0  0  0  0
  138.0980   78.5748  220.9341 H   0  0  0  0  0  0  0  0  0  0  0  0
  139.4351   78.0174  223.5915 H   0  0  0  0  0  0  0  0  0  0  0  0
  137.6616   80.5120  221.7846 H   0  0  0  0  0  0  0  0  0  0  0  0
  136.5287   79.1663  221.6794 H   0  0  0  0  0  0  0  0  0  0  0  0
  135.3102   81.2471  222.3785 H   0  0  0  0  0  0  0  0  0  0  0  0
  135.3158   80.0885  223.7456 H   0  0  0  0  0  0  0  0  0  0  0  0
  137.1565   82.4766  223.3103 H   0  0  0  0  0  0  0  0  0  0  0  0
  135.9102   82.2319  224.6112 H   0  0  0  0  0  0  0  0  0  0  0  0
  138.3015   81.9070  225.3289 H   0  0  0  0  0  0  0  0  0  0  0  0
  137.1982   80.5317  225.6457 H   0  0  0  0  0  0  0  0  0  0  0  0
  139.0637   80.8103  223.2322 H   0  0  0  0  0  0  0  0  0  0  0  0
  139.3607   79.7669  224.6437 H   0  0  0  0  0  0  0  0  0  0  0  0
  138.2829   76.2472  223.9266 H   0  0  0  0  0  0  0  0  0  0  0  0
  136.7703   77.0135  223.2537 H   0  0  0  0  0  0  0  0  0  0  0  0
  137.6567   74.9116  222.0625 H   0  0  0  0  0  0  0  0  0  0  0  0
  137.2625   76.3148  221.0516 H   0  0  0  0  0  0  0  0  0  0  0  0
  138.1311   71.5259  223.7380 H   0  0  0  0  0  0  0  0  0  0  0  0
  138.6731   71.0504  222.1106 H   0  0  0  0  0  0  0  0  0  0  0  0
  138.2454   69.0398  223.5263 H   0  0  0  0  0  0  0  0  0  0  0  0
  139.9742   69.1419  223.1199 H   0  0  0  0  0  0  0  0  0  0  0  0
  138.1407   68.1556  225.7747 H   0  0  0  0  0  0  0  0  0  0  0  0
  138.7703   68.4115  228.1519 H   0  0  0  0  0  0  0  0  0  0  0  0
  140.4439   70.0916  228.8706 H   0  0  0  0  0  0  0  0  0  0  0  0
  141.5199   71.5562  227.1658 H   0  0  0  0  0  0  0  0  0  0  0  0
  141.3066   72.4879  224.9759 H   0  0  0  0  0  0  0  0  0  0  0  0
  141.9472   71.0085  224.1382 H   0  0  0  0  0  0  0  0  0  0  0  0
  144.1125   72.1130  221.2569 H   0  0  0  0  0  0  0  0  0  0  0  0
  1  2  1  0
  2  3  2  0
  3  4  1  0
  4  5  2  0
  5  6  1  0
  6  7  1  0
  7  8  2  0
  8  9  1  0
  9 10  1  0
 10 11  1  0
 11 12  1  0
 12 13  1  0
 13 14  1  0
 14 15  1  0
 15 16  1  0
 16 17  1  0
 17 18  1  0
 18 19  1  0
 13 20  1  0
 20 21  1  0
  9 22  2  0
 22 23  1  0
 23 24  1  0
 24 25  1  0
 25 26  1  0
 26 27  1  0
 27 28  2  0
 28 29  1  0
 29 30  2  0
 30 31  1  0
 31 32  2  0
 32 33  1  0
 23 34  2  0
  6 35  2  0
 35  2  1  0
 34  7  1  0
 21 10  1  0
 33 24  1  0
 19 14  1  0
 32 27  1  0
  1 36  1  0
  3 37  1  0
  4 38  1  0
  5 39  1  0
 11 40  1  0
 11 41  1  0
 12 42  1  0
 12 43  1  0
 13 44  1  0
 15 45  1  0
 15 46  1  0
 16 47  1  0
 16 48  1  0
 17 49  1  0
 17 50  1  0
 18 51  1  0
 18 52  1  0
 19 53  1  0
 19 54  1  0
 20 55  1  0
 20 56  1  0
 21 57  1  0
 21 58  1  0
 25 59  1  0
 25 60  1  0
 26 61  1  0
 26 62  1  0
 28 63  1  0
 29 64  1  0
 30 65  1  0
 31 66  1  0
 33 67  1  0
 33 68  1  0
 35 69  1  0
M  END
>  <smiles>  (29) 
Oc1cccc(-c2nc(N3CCC(N4CCCCC4)CC3)nc(N3CCc4ccccc4C3)n2)c1

>  <score_type>  (29) 
oracle

>  <origin>  (29) 
autodockgpu

>  <m_score__min__energy>  (29) 
-9.6799999999999997

>  <m_primary>  (29) 
energy

>  <rmsd>  (29) 
6.828249337108614

>  <m_score__min__rmsd>  (29) 
6.828249337108614

>  <meeko>  (29) 
{"free_energy": -8.83, "intermolecular_energy": -10.32, "internal_energy": -1.17, "cluster_size": 1, "cluster_id": 3, "rank_in_cluster": 1}

>  <energy>  (29) 
-9.12

>  <cluster_rmsd>  (29) 
0.48

>  <cluster>  (29) 
1

$$$$

     RDKit          3D

 69 74  0  0  0  0  0  0  0  0999 V2000
  146.3120   73.0190  219.0360 O   0  0  0  0  0  0  0  0  0  0  0  0
  145.0770   72.3890  219.1140 C   0  0  0  0  0  0  0  0  0  0  0  0
  144.8470   71.3330  218.2350 C   0  0  0  0  0  0  0  0  0  0  0  0
  143.6370   70.6750  218.2750 C   0  0  0  0  0  0  0  0  0  0  0  0
  142.6350   71.0270  219.1590 C   0  0  0  0  0  0  0  0  0  0  0  0
  142.9040   72.0790  220.0110 C   0  0  0  0  0  0  0  0  0  0  0  0
  141.8770   72.4870  220.9640 C   0  0  0  0  0  0  0  0  0  0  0  0
  141.1330   73.5900  220.7400 N   0  0  0  0  0  0  0  0  0  0  0  0
  140.1780   73.9910  221.6000 C   0  0  0  0  0  0  0  0  0  0  0  0
  139.3730   75.1280  221.4200 N   0  0  0  0  0  0  0  0  0  0  0  0
  139.7060   76.1960  220.4990 C   0  0  0  0  0  0  0  0  0  0  0  0
  139.0450   77.5000  220.8960 C   0  0  0  0  0  0  0  0  0  0  0  0
  138.9640   77.6510  222.3930 C   0  0  0  0  0  0  0  0  0  0  0  0
  138.2800   78.8810  222.6940 N   0  0  0  0  0  0  0  0  0  0  0  0
  138.8720   79.6090  223.8010 C   0  0  0  0  0  0  0  0  0  0  0  0
  138.2440   81.0070  223.7270 C   0  0  0  0  0  0  0  0  0  0  0  0
  136.7550   80.8850  223.9290 C   0  0  0  0  0  0  0  0  0  0  0  0
  136.1350   79.8710  223.0110 C   0  0  0  0  0  0  0  0  0  0  0  0
  136.9200   78.5860  223.1050 C   0  0  0  0  0  0  0  0  0  0  0  0
  138.3350   76.4800  223.0860 C   0  0  0  0  0  0  0  0  0  0  0  0
  138.1300   75.2880  222.1750 C   0  0  0  0  0  0  0  0  0  0  0  0
  139.9810   73.2490  222.7130 N   0  0  0  0  0  0  0  0  0  0  0  0
  140.6930   72.1430  222.9860 C   0  0  0  0  0  0  0  0  0  0  0  0
  140.4520   71.3920  224.1680 N   0  0  0  0  0  0  0  0  0  0  0  0
  141.1970   71.7530  225.3580 C   0  0  0  0  0  0  0  0  0  0  0  0
  140.2870   71.5170  226.5450 C   0  0  0  0  0  0  0  0  0  0  0  0
  139.9390   70.0720  226.5490 C   0  0  0  0  0  0  0  0  0  0  0  0
  139.9920   69.2940  227.6980 C   0  0  0  0  0  0  0  0  0  0  0  0
  139.6540   67.9590  227.6140 C   0  0  0  0  0  0  0  0  0  0  0  0
  139.2620   67.3700  226.4180 C   0  0  0  0  0  0  0  0  0  0  0  0
  139.2100   68.1380  225.2790 C   0  0  0  0  0  0  0  0  0  0  0  0
  139.5520   69.4870  225.3620 C   0  0  0  0  0  0  0  0  0  0  0  0
  139.4970   70.3210  224.1380 C   0  0  0  0  0  0  0  0  0  0  0  0
  141.6340   71.7890  222.0890 N   0  0  0  0  0  0  0  0  0  0  0  0
  144.1000   72.7680  220.0100 C   0  0  0  0  0  0  0  0  0  0  0  0
  146.4250   74.0240  218.9260 H   0  0  0  0  0  0  0  0  0  0  0  0
  145.6226   71.0279  217.5171 H   0  0  0  0  0  0  0  0  0  0  0  0
  143.4627   69.8409  217.5793 H   0  0  0  0  0  0  0  0  0  0  0  0
  141.6720   70.4959  219.1825 H   0  0  0  0  0  0  0  0  0  0  0  0
  140.7971   76.3358  220.4937 H   0  0  0  0  0  0  0  0  0  0  0  0
  139.3414   75.9153  219.4998 H   0  0  0  0  0  0  0  0  0  0  0  0
  139.6299   78.3358  220.4846 H   0  0  0  0  0  0  0  0  0  0  0  0
  138.0205   77.5008  220.4955 H   0  0  0  0  0  0  0  0  0  0  0  0
  139.9908   77.6837  222.7862 H   0  0  0  0  0  0  0  0  0  0  0  0
  138.6290   79.1246  224.7582 H   0  0  0  0  0  0  0  0  0  0  0  0
  139.9697   79.6417  223.7384 H   0  0  0  0  0  0  0  0  0  0  0  0
  138.6721   81.6462  224.5133 H   0  0  0  0  0  0  0  0  0  0  0  0
  138.4512   81.4570  222.7449 H   0  0  0  0  0  0  0  0  0  0  0  0
  136.5629   80.5840  224.9694 H   0  0  0  0  0  0  0  0  0  0  0  0
  136.3042   81.8626  223.7031 H   0  0  0  0  0  0  0  0  0  0  0  0
  135.0922   79.6899  223.3105 H   0  0  0  0  0  0  0  0  0  0  0  0
  136.1513   80.2441  221.9764 H   0  0  0  0  0  0  0  0  0  0  0  0
  136.9117   78.2145  224.1403 H   0  0  0  0  0  0  0  0  0  0  0  0
  136.4778   77.8112  222.4615 H   0  0  0  0  0  0  0  0  0  0  0  0
  138.9858   76.1757  223.9190 H   0  0  0  0  0  0  0  0  0  0  0  0
  137.3419   76.8005  223.4337 H   0  0  0  0  0  0  0  0  0  0  0  0
  137.9268   74.3851  222.7695 H   0  0  0  0  0  0  0  0  0  0  0  0
  137.2721   75.4413  221.5038 H   0  0  0  0  0  0  0  0  0  0  0  0
  142.0975   71.1270  225.4432 H   0  0  0  0  0  0  0  0  0  0  0  0
  141.5169   72.8046  225.3143 H   0  0  0  0  0  0  0  0  0  0  0  0
  140.8067   71.7824  227.4774 H   0  0  0  0  0  0  0  0  0  0  0  0
  139.3815   72.1374  226.4733 H   0  0  0  0  0  0  0  0  0  0  0  0
  140.2981   69.7344  228.6584 H   0  0  0  0  0  0  0  0  0  0  0  0
  139.6962   67.3410  228.5230 H   0  0  0  0  0  0  0  0  0  0  0  0
  138.9967   66.3030  226.3831 H   0  0  0  0  0  0  0  0  0  0  0  0
  138.9040   67.6960  224.3193 H   0  0  0  0  0  0  0  0  0  0  0  0
  139.7062   69.6842  223.2658 H   0  0  0  0  0  0  0  0  0  0  0  0
  138.4928   70.7658  224.0774 H   0  0  0  0  0  0  0  0  0  0  0  0
  144.2699   73.6007  220.7083 H   0  0  0  0  0  0  0  0  0  0  0  0
  1  2  1  0
  2  3  2  0
  3  4  1  0
  4  5  2  0
  5  6  1  0
  6  7  1  0
  7  8  2  0
  8  9  1  0
  9 10  1  0
 10 11  1  0
 11 12  1  0
 12 13  1  0
 13 14  1  0
 14 15  1  0
 15 16  1  0
 16 17  1  0
 17 18  1  0
 18 19  1  0
 13 20  1  0
 20 21  1  0
  9 22  2  0
 22 23  1  0
 23 24  1  0
 24 25  1  0
 25 26  1  0
 26 27  1  0
 27 28  2  0
 28 29  1  0
 29 30  2  0
 30 31  1  0
 31 32  2  0
 32 33  1  0
 23 34  2  0
  6 35  2  0
 35  2  1  0
 34  7  1  0
 21 10  1  0
 33 24  1  0
 19 14  1  0
 32 27  1  0
  1 36  1  0
  3 37  1  0
  4 38  1  0
  5 39  1  0
 11 40  1  0
 11 41  1  0
 12 42  1  0
 12 43  1  0
 13 44  1  0
 15 45  1  0
 15 46  1  0
 16 47  1  0
 16 48  1  0
 17 49  1  0
 17 50  1  0
 18 51  1  0
 18 52  1  0
 19 53  1  0
 19 54  1  0
 20 55  1  0
 20 56  1  0
 21 57  1  0
 21 58  1  0
 25 59  1  0
 25 60  1  0
 26 61  1  0
 26 62  1  0
 28 63  1  0
 29 64  1  0
 30 65  1  0
 31 66  1  0
 33 67  1  0
 33 68  1  0
 35 69  1  0
M  END
>  <smiles>  (30) 
Oc1cccc(-c2nc(N3CCC(N4CCCCC4)CC3)nc(N3CCc4ccccc4C3)n2)c1

>  <score_type>  (30) 
oracle

>  <origin>  (30) 
autodockgpu

>  <m_score__min__energy>  (30) 
-9.6799999999999997

>  <m_primary>  (30) 
energy

>  <rmsd>  (30) 
6.193314472700867

>  <m_score__min__rmsd>  (30) 
6.193314472700867

>  <meeko>  (30) 
{"free_energy": -8.9, "intermolecular_energy": -10.39, "internal_energy": -1.17, "cluster_size": 35, "cluster_id": 1, "rank_in_cluster": 32}

>  <energy>  (30) 
-9.1

>  <cluster_rmsd>  (30) 
1.54

>  <cluster>  (30) 
1

$$$$

     RDKit          3D

 69 74  0  0  0  0  0  0  0  0999 V2000
  146.3160   73.0970  218.5500 O   0  0  0  0  0  0  0  0  0  0  0  0
  145.1110   72.4340  218.7410 C   0  0  0  0  0  0  0  0  0  0  0  0
  144.8940   71.2830  217.9860 C   0  0  0  0  0  0  0  0  0  0  0  0
  143.7140   70.5890  218.1410 C   0  0  0  0  0  0  0  0  0  0  0  0
  142.7300   70.9960  219.0210 C   0  0  0  0  0  0  0  0  0  0  0  0
  142.9850   72.1410  219.7480 C   0  0  0  0  0  0  0  0  0  0  0  0
  141.9750   72.6100  220.6920 C   0  0  0  0  0  0  0  0  0  0  0  0
  141.3880   73.8120  220.5270 N   0  0  0  0  0  0  0  0  0  0  0  0
  140.4530   74.2710  221.3800 C   0  0  0  0  0  0  0  0  0  0  0  0
  139.8080   75.5130  221.2590 N   0  0  0  0  0  0  0  0  0  0  0  0
  140.5060   76.7390  220.9270 C   0  0  0  0  0  0  0  0  0  0  0  0
  139.7520   77.9590  221.4130 C   0  0  0  0  0  0  0  0  0  0  0  0
  139.0530   77.6980  222.7220 C   0  0  0  0  0  0  0  0  0  0  0  0
  138.3170   78.8780  223.0940 N   0  0  0  0  0  0  0  0  0  0  0  0
  137.7250   79.5630  221.9610 C   0  0  0  0  0  0  0  0  0  0  0  0
  136.7220   80.5450  222.5810 C   0  0  0  0  0  0  0  0  0  0  0  0
  137.4730   81.5290  223.4420 C   0  0  0  0  0  0  0  0  0  0  0  0
  138.3770   80.8510  224.4300 C   0  0  0  0  0  0  0  0  0  0  0  0
  139.2230   79.8370  223.6980 C   0  0  0  0  0  0  0  0  0  0  0  0
  138.1800   76.4790  222.7090 C   0  0  0  0  0  0  0  0  0  0  0  0
  138.3650   75.6270  221.4700 C   0  0  0  0  0  0  0  0  0  0  0  0
  140.1130   73.4830  222.4240 N   0  0  0  0  0  0  0  0  0  0  0  0
  140.6660   72.2770  222.6370 C   0  0  0  0  0  0  0  0  0  0  0  0
  140.2770   71.4810  223.7470 N   0  0  0  0  0  0  0  0  0  0  0  0
  139.0810   70.6740  223.6110 C   0  0  0  0  0  0  0  0  0  0  0  0
  139.3070   69.4000  224.3960 C   0  0  0  0  0  0  0  0  0  0  0  0
  139.5280   69.7940  225.8130 C   0  0  0  0  0  0  0  0  0  0  0  0
  138.8950   69.1580  226.8720 C   0  0  0  0  0  0  0  0  0  0  0  0
  139.1550   69.5870  228.1580 C   0  0  0  0  0  0  0  0  0  0  0  0
  140.0300   70.6320  228.4240 C   0  0  0  0  0  0  0  0  0  0  0  0
  140.6580   71.2630  227.3770 C   0  0  0  0  0  0  0  0  0  0  0  0
  140.3960   70.8320  226.0770 C   0  0  0  0  0  0  0  0  0  0  0  0
  141.0700   71.5080  224.9440 C   0  0  0  0  0  0  0  0  0  0  0  0
  141.5940   71.8700  221.7490 N   0  0  0  0  0  0  0  0  0  0  0  0
  144.1510   72.8690  219.6290 C   0  0  0  0  0  0  0  0  0  0  0  0
  146.4050   74.1100  218.5370 H   0  0  0  0  0  0  0  0  0  0  0  0
  145.6561   70.9326  217.2744 H   0  0  0  0  0  0  0  0  0  0  0  0
  143.5498   69.6799  217.5438 H   0  0  0  0  0  0  0  0  0  0  0  0
  141.7905   70.4357  219.1364 H   0  0  0  0  0  0  0  0  0  0  0  0
  141.4999   76.7226  221.3980 H   0  0  0  0  0  0  0  0  0  0  0  0
  140.5910   76.8007  219.8320 H   0  0  0  0  0  0  0  0  0  0  0  0
  140.4632   78.7872  221.5477 H   0  0  0  0  0  0  0  0  0  0  0  0
  138.9893   78.2122  220.6618 H   0  0  0  0  0  0  0  0  0  0  0  0
  139.8215   77.4784  223.4777 H   0  0  0  0  0  0  0  0  0  0  0  0
  138.4939   80.1031  221.3891 H   0  0  0  0  0  0  0  0  0  0  0  0
  137.2454   78.8666  221.2575 H   0  0  0  0  0  0  0  0  0  0  0  0
  136.1901   81.0832  221.7826 H   0  0  0  0  0  0  0  0  0  0  0  0
  135.9909   79.9958  223.1924 H   0  0  0  0  0  0  0  0  0  0  0  0
  138.0814   82.1749  222.7919 H   0  0  0  0  0  0  0  0  0  0  0  0
  136.7325   82.1116  224.0097 H   0  0  0  0  0  0  0  0  0  0  0  0
  139.0269   81.5977  224.9097 H   0  0  0  0  0  0  0  0  0  0  0  0
  137.7767   80.3491  225.2031 H   0  0  0  0  0  0  0  0  0  0  0  0
  139.8186   80.3352  222.9189 H   0  0  0  0  0  0  0  0  0  0  0  0
  139.9175   79.3365  224.3887 H   0  0  0  0  0  0  0  0  0  0  0  0
  138.4186   75.8684  223.5923 H   0  0  0  0  0  0  0  0  0  0  0  0
  137.1356   76.8242  222.7160 H   0  0  0  0  0  0  0  0  0  0  0  0
  137.9231   74.6314  221.6234 H   0  0  0  0  0  0  0  0  0  0  0  0
  137.8689   76.0781  220.5980 H   0  0  0  0  0  0  0  0  0  0  0  0
  138.2131   71.2160  224.0146 H   0  0  0  0  0  0  0  0  0  0  0  0
  138.8805   70.4495  222.5530 H   0  0  0  0  0  0  0  0  0  0  0  0
  138.4248   68.7475  224.3188 H   0  0  0  0  0  0  0  0  0  0  0  0
  140.1727   68.8462  224.0036 H   0  0  0  0  0  0  0  0  0  0  0  0
  138.1983   68.3265  226.6896 H   0  0  0  0  0  0  0  0  0  0  0  0
  138.6533   69.0853  228.9986 H   0  0  0  0  0  0  0  0  0  0  0  0
  140.2181   70.9508  229.4599 H   0  0  0  0  0  0  0  0  0  0  0  0
  141.3552   72.0936  227.5613 H   0  0  0  0  0  0  0  0  0  0  0  0
  141.2605   72.5558  225.2192 H   0  0  0  0  0  0  0  0  0  0  0  0
  142.0080   70.9709  224.7399 H   0  0  0  0  0  0  0  0  0  0  0  0
  144.3108   73.7766  220.2296 H   0  0  0  0  0  0  0  0  0  0  0  0
  1  2  1  0
  2  3  2  0
  3  4  1  0
  4  5  2  0
  5  6  1  0
  6  7  1  0
  7  8  2  0
  8  9  1  0
  9 10  1  0
 10 11  1  0
 11 12  1  0
 12 13  1  0
 13 14  1  0
 14 15  1  0
 15 16  1  0
 16 17  1  0
 17 18  1  0
 18 19  1  0
 13 20  1  0
 20 21  1  0
  9 22  2  0
 22 23  1  0
 23 24  1  0
 24 25  1  0
 25 26  1  0
 26 27  1  0
 27 28  2  0
 28 29  1  0
 29 30  2  0
 30 31  1  0
 31 32  2  0
 32 33  1  0
 23 34  2  0
  6 35  2  0
 35  2  1  0
 34  7  1  0
 21 10  1  0
 33 24  1  0
 19 14  1  0
 32 27  1  0
  1 36  1  0
  3 37  1  0
  4 38  1  0
  5 39  1  0
 11 40  1  0
 11 41  1  0
 12 42  1  0
 12 43  1  0
 13 44  1  0
 15 45  1  0
 15 46  1  0
 16 47  1  0
 16 48  1  0
 17 49  1  0
 17 50  1  0
 18 51  1  0
 18 52  1  0
 19 53  1  0
 19 54  1  0
 20 55  1  0
 20 56  1  0
 21 57  1  0
 21 58  1  0
 25 59  1  0
 25 60  1  0
 26 61  1  0
 26 62  1  0
 28 63  1  0
 29 64  1  0
 30 65  1  0
 31 66  1  0
 33 67  1  0
 33 68  1  0
 35 69  1  0
M  END
>  <smiles>  (31) 
Oc1cccc(-c2nc(N3CCC(N4CCCCC4)CC3)nc(N3CCc4ccccc4C3)n2)c1

>  <score_type>  (31) 
oracle

>  <origin>  (31) 
autodockgpu

>  <m_score__min__energy>  (31) 
-9.6799999999999997

>  <m_primary>  (31) 
energy

>  <rmsd>  (31) 
6.36532314474281

>  <m_score__min__rmsd>  (31) 
6.36532314474281

>  <meeko>  (31) 
{"free_energy": -9.48, "intermolecular_energy": -10.97, "internal_energy": -1.17, "cluster_size": 35, "cluster_id": 1, "rank_in_cluster": 9}

>  <energy>  (31) 
-9.05

>  <cluster_rmsd>  (31) 
1.94

>  <cluster>  (31) 
1

$$$$

     RDKit          3D

 69 74  0  0  0  0  0  0  0  0999 V2000
  146.3170   73.1070  218.1290 O   0  0  0  0  0  0  0  0  0  0  0  0
  145.1600   72.4120  218.4580 C   0  0  0  0  0  0  0  0  0  0  0  0
  144.9570   71.1860  217.8290 C   0  0  0  0  0  0  0  0  0  0  0  0
  143.8250   70.4590  218.1230 C   0  0  0  0  0  0  0  0  0  0  0  0
  142.8760   70.9040  219.0240 C   0  0  0  0  0  0  0  0  0  0  0  0
  143.1160   72.1230  219.6230 C   0  0  0  0  0  0  0  0  0  0  0  0
  142.1420   72.6350  220.5830 C   0  0  0  0  0  0  0  0  0  0  0  0
  141.6640   73.8910  220.4710 N   0  0  0  0  0  0  0  0  0  0  0  0
  140.7650   74.3900  221.3400 C   0  0  0  0  0  0  0  0  0  0  0  0
  140.2320   75.6880  221.2740 N   0  0  0  0  0  0  0  0  0  0  0  0
  140.0060   76.3880  220.0260 C   0  0  0  0  0  0  0  0  0  0  0  0
  139.9920   77.8900  220.2240 C   0  0  0  0  0  0  0  0  0  0  0  0
  140.9720   78.3210  221.2850 C   0  0  0  0  0  0  0  0  0  0  0  0
  140.8660   79.7460  221.4560 N   0  0  0  0  0  0  0  0  0  0  0  0
  141.2410   80.4940  220.2710 C   0  0  0  0  0  0  0  0  0  0  0  0
  140.7290   81.9170  220.5320 C   0  0  0  0  0  0  0  0  0  0  0  0
  141.4390   82.4770  221.7390 C   0  0  0  0  0  0  0  0  0  0  0  0
  141.3630   81.5580  222.9230 C   0  0  0  0  0  0  0  0  0  0  0  0
  141.7860   80.1750  222.4930 C   0  0  0  0  0  0  0  0  0  0  0  0
  140.8150   77.5910  222.5860 C   0  0  0  0  0  0  0  0  0  0  0  0
  139.8730   76.4080  222.4950 C   0  0  0  0  0  0  0  0  0  0  0  0
  140.3480   73.5870  222.3450 N   0  0  0  0  0  0  0  0  0  0  0  0
  140.7920   72.3290  222.5040 C   0  0  0  0  0  0  0  0  0  0  0  0
  140.3250   71.5200  223.5740 N   0  0  0  0  0  0  0  0  0  0  0  0
  138.9390   71.0960  223.5420 C   0  0  0  0  0  0  0  0  0  0  0  0
  138.8800   69.7100  224.1500 C   0  0  0  0  0  0  0  0  0  0  0  0
  139.3730   69.8250  225.5490 C   0  0  0  0  0  0  0  0  0  0  0  0
  138.7140   69.2430  226.6220 C   0  0  0  0  0  0  0  0  0  0  0  0
  139.2390   69.3980  227.8890 C   0  0  0  0  0  0  0  0  0  0  0  0
  140.4040   70.1180  228.1220 C   0  0  0  0  0  0  0  0  0  0  0  0
  141.0570   70.6960  227.0600 C   0  0  0  0  0  0  0  0  0  0  0  0
  140.5290   70.5410  225.7790 C   0  0  0  0  0  0  0  0  0  0  0  0
  141.2290   71.1610  224.6300 C   0  0  0  0  0  0  0  0  0  0  0  0
  141.6890   71.8830  221.6030 N   0  0  0  0  0  0  0  0  0  0  0  0
  144.2350   72.8880  219.3630 C   0  0  0  0  0  0  0  0  0  0  0  0
  146.3460   74.1130  217.9830 H   0  0  0  0  0  0  0  0  0  0  0  0
  145.6922   70.8030  217.1059 H   0  0  0  0  0  0  0  0  0  0  0  0
  143.6708   69.4910  217.6237 H   0  0  0  0  0  0  0  0  0  0  0  0
  141.9749   70.3157  219.2518 H   0  0  0  0  0  0  0  0  0  0  0  0
  140.8090   76.1283  219.3205 H   0  0  0  0  0  0  0  0  0  0  0  0
  139.0246   76.0834  219.6333 H   0  0  0  0  0  0  0  0  0  0  0  0
  140.2575   78.3774  219.2743 H   0  0  0  0  0  0  0  0  0  0  0  0
  138.9831   78.1839  220.5490 H   0  0  0  0  0  0  0  0  0  0  0  0
  141.9825   78.0556  220.9408 H   0  0  0  0  0  0  0  0  0  0  0  0
  142.3332   80.4923  220.1404 H   0  0  0  0  0  0  0  0  0  0  0  0
  140.8173   80.0605  219.3531 H   0  0  0  0  0  0  0  0  0  0  0  0
  140.9343   82.5499  219.6560 H   0  0  0  0  0  0  0  0  0  0  0  0
  139.6443   81.8957  220.7138 H   0  0  0  0  0  0  0  0  0  0  0  0
  142.4968   82.6381  221.4838 H   0  0  0  0  0  0  0  0  0  0  0  0
  140.9432   83.4199  222.0131 H   0  0  0  0  0  0  0  0  0  0  0  0
  142.0341   81.9201  223.7157 H   0  0  0  0  0  0  0  0  0  0  0  0
  140.3335   81.5307  223.3095 H   0  0  0  0  0  0  0  0  0  0  0  0
  142.8125   80.2008  222.0986 H   0  0  0  0  0  0  0  0  0  0  0  0
  141.7656   79.4789  223.3444 H   0  0  0  0  0  0  0  0  0  0  0  0
  141.8031   77.2277  222.9048 H   0  0  0  0  0  0  0  0  0  0  0  0
  140.3829   78.2989  223.3087 H   0  0  0  0  0  0  0  0  0  0  0  0
  139.9961   75.7552  223.3718 H   0  0  0  0  0  0  0  0  0  0  0  0
  138.8230   76.7350  222.4713 H   0  0  0  0  0  0  0  0  0  0  0  0
  138.3188   71.7909  224.1272 H   0  0  0  0  0  0  0  0  0  0  0  0
  138.5576   71.0862  222.5103 H   0  0  0  0  0  0  0  0  0  0  0  0
  137.8444   69.3391  224.1441 H   0  0  0  0  0  0  0  0  0  0  0  0
  139.4960   69.0033  223.5745 H   0  0  0  0  0  0  0  0  0  0  0  0
  137.7893   68.6681  226.4658 H   0  0  0  0  0  0  0  0  0  0  0  0
  138.7185   68.9368  228.7413 H   0  0  0  0  0  0  0  0  0  0  0  0
  140.7986   70.2240  229.1433 H   0  0  0  0  0  0  0  0  0  0  0  0
  141.9811   71.2715  227.2180 H   0  0  0  0  0  0  0  0  0  0  0  0
  141.7459   72.0677  224.9774 H   0  0  0  0  0  0  0  0  0  0  0  0
  141.9401   70.4234  224.2297 H   0  0  0  0  0  0  0  0  0  0  0  0
  144.3854   73.8547  219.8659 H   0  0  0  0  0  0  0  0  0  0  0  0
  1  2  1  0
  2  3  2  0
  3  4  1  0
  4  5  2  0
  5  6  1  0
  6  7  1  0
  7  8  2  0
  8  9  1  0
  9 10  1  0
 10 11  1  0
 11 12  1  0
 12 13  1  0
 13 14  1  0
 14 15  1  0
 15 16  1  0
 16 17  1  0
 17 18  1  0
 18 19  1  0
 13 20  1  0
 20 21  1  0
  9 22  2  0
 22 23  1  0
 23 24  1  0
 24 25  1  0
 25 26  1  0
 26 27  1  0
 27 28  2  0
 28 29  1  0
 29 30  2  0
 30 31  1  0
 31 32  2  0
 32 33  1  0
 23 34  2  0
  6 35  2  0
 35  2  1  0
 34  7  1  0
 21 10  1  0
 33 24  1  0
 19 14  1  0
 32 27  1  0
  1 36  1  0
  3 37  1  0
  4 38  1  0
  5 39  1  0
 11 40  1  0
 11 41  1  0
 12 42  1  0
 12 43  1  0
 13 44  1  0
 15 45  1  0
 15 46  1  0
 16 47  1  0
 16 48  1  0
 17 49  1  0
 17 50  1  0
 18 51  1  0
 18 52  1  0
 19 53  1  0
 19 54  1  0
 20 55  1  0
 20 56  1  0
 21 57  1  0
 21 58  1  0
 25 59  1  0
 25 60  1  0
 26 61  1  0
 26 62  1  0
 28 63  1  0
 29 64  1  0
 30 65  1  0
 31 66  1  0
 33 67  1  0
 33 68  1  0
 35 69  1  0
M  END
>  <smiles>  (32) 
Oc1cccc(-c2nc(N3CCC(N4CCCCC4)CC3)nc(N3CCc4ccccc4C3)n2)c1

>  <score_type>  (32) 
oracle

>  <origin>  (32) 
autodockgpu

>  <m_score__min__energy>  (32) 
-9.6799999999999997

>  <m_primary>  (32) 
energy

>  <rmsd>  (32) 
5.59949570368499

>  <m_score__min__rmsd>  (32) 
5.59949570368499

>  <meeko>  (32) 
{"free_energy": -9.48, "intermolecular_energy": -10.97, "internal_energy": -1.13, "cluster_size": 35, "cluster_id": 1, "rank_in_cluster": 10}

>  <energy>  (32) 
-8.9

>  <cluster_rmsd>  (32) 
1.94

>  <cluster>  (32) 
1

$$$$

     RDKit          3D

 69 74  0  0  0  0  0  0  0  0999 V2000
  146.3250   73.0390  217.8570 O   0  0  0  0  0  0  0  0  0  0  0  0
  145.3060   72.2600  218.3890 C   0  0  0  0  0  0  0  0  0  0  0  0
  145.2680   70.9200  218.0100 C   0  0  0  0  0  0  0  0  0  0  0  0
  144.2770   70.1070  218.5120 C   0  0  0  0  0  0  0  0  0  0  0  0
  143.3110   70.5730  219.3840 C   0  0  0  0  0  0  0  0  0  0  0  0
  143.3850   71.9060  219.7340 C   0  0  0  0  0  0  0  0  0  0  0  0
  142.3880   72.4450  220.6530 C   0  0  0  0  0  0  0  0  0  0  0  0
  141.9110   73.6960  220.4910 N   0  0  0  0  0  0  0  0  0  0  0  0
  140.9900   74.2200  221.3220 C   0  0  0  0  0  0  0  0  0  0  0  0
  140.4580   75.5140  221.2030 N   0  0  0  0  0  0  0  0  0  0  0  0
  140.4580   76.2590  219.9610 C   0  0  0  0  0  0  0  0  0  0  0  0
  140.3830   77.7520  220.2060 C   0  0  0  0  0  0  0  0  0  0  0  0
  141.1400   78.1520  221.4460 C   0  0  0  0  0  0  0  0  0  0  0  0
  140.9810   79.5690  221.6440 N   0  0  0  0  0  0  0  0  0  0  0  0
  141.2980   80.3510  220.4650 C   0  0  0  0  0  0  0  0  0  0  0  0
  140.7360   81.7470  220.7620 C   0  0  0  0  0  0  0  0  0  0  0  0
  141.4510   82.3150  221.9620 C   0  0  0  0  0  0  0  0  0  0  0  0
  141.4390   81.3750  223.1310 C   0  0  0  0  0  0  0  0  0  0  0  0
  141.9080   80.0160  222.6670 C   0  0  0  0  0  0  0  0  0  0  0  0
  140.7550   77.3720  222.6670 C   0  0  0  0  0  0  0  0  0  0  0  0
  139.8660   76.1850  222.3600 C   0  0  0  0  0  0  0  0  0  0  0  0
  140.5490   73.4470  222.3400 N   0  0  0  0  0  0  0  0  0  0  0  0
  140.9900   72.1950  222.5480 C   0  0  0  0  0  0  0  0  0  0  0  0
  140.4980   71.4180  223.6300 N   0  0  0  0  0  0  0  0  0  0  0  0
  139.1340   70.9340  223.5450 C   0  0  0  0  0  0  0  0  0  0  0  0
  139.0970   69.5770  224.2160 C   0  0  0  0  0  0  0  0  0  0  0  0
  139.5060   69.7790  225.6320 C   0  0  0  0  0  0  0  0  0  0  0  0
  138.8120   69.2190  226.6960 C   0  0  0  0  0  0  0  0  0  0  0  0
  139.2580   69.4570  227.9800 C   0  0  0  0  0  0  0  0  0  0  0  0
  140.3780   70.2370  228.2390 C   0  0  0  0  0  0  0  0  0  0  0  0
  141.0660   70.7920  227.1870 C   0  0  0  0  0  0  0  0  0  0  0  0
  140.6170   70.5530  225.8890 C   0  0  0  0  0  0  0  0  0  0  0  0
  141.3550   71.1490  224.7500 C   0  0  0  0  0  0  0  0  0  0  0  0
  141.9100   71.7240  221.6830 N   0  0  0  0  0  0  0  0  0  0  0  0
  144.3590   72.7600  219.2580 C   0  0  0  0  0  0  0  0  0  0  0  0
  146.4730   74.0150  218.1010 H   0  0  0  0  0  0  0  0  0  0  0  0
  146.0213   70.5162  217.3175 H   0  0  0  0  0  0  0  0  0  0  0  0
  144.2530   69.0499  218.2087 H   0  0  0  0  0  0  0  0  0  0  0  0
  142.5232   69.9147  219.7790 H   0  0  0  0  0  0  0  0  0  0  0  0
  141.3828   76.0338  219.4097 H   0  0  0  0  0  0  0  0  0  0  0  0
  139.5722   75.9607  219.3810 H   0  0  0  0  0  0  0  0  0  0  0  0
  140.8133   78.2773  219.3406 H   0  0  0  0  0  0  0  0  0  0  0  0
  139.3264   78.0238  220.3466 H   0  0  0  0  0  0  0  0  0  0  0  0
  142.2013   77.9096  221.2884 H   0  0  0  0  0  0  0  0  0  0  0  0
  142.3861   80.3956  220.3100 H   0  0  0  0  0  0  0  0  0  0  0  0
  140.8707   79.9161  219.5494 H   0  0  0  0  0  0  0  0  0  0  0  0
  140.8953   82.4020  219.8928 H   0  0  0  0  0  0  0  0  0  0  0  0
  139.6576   81.6791  220.9678 H   0  0  0  0  0  0  0  0  0  0  0  0
  142.4954   82.5223  221.6858 H   0  0  0  0  0  0  0  0  0  0  0  0
  140.9247   83.2327  222.2634 H   0  0  0  0  0  0  0  0  0  0  0  0
  142.1129   81.7510  223.9148 H   0  0  0  0  0  0  0  0  0  0  0  0
  140.4206   81.2997  223.5399 H   0  0  0  0  0  0  0  0  0  0  0  0
  142.9231   80.0897  222.2497 H   0  0  0  0  0  0  0  0  0  0  0  0
  141.9366   79.3051  223.5059 H   0  0  0  0  0  0  0  0  0  0  0  0
  141.6721   77.0060  223.1518 H   0  0  0  0  0  0  0  0  0  0  0  0
  140.1842   78.0480  223.3206 H   0  0  0  0  0  0  0  0  0  0  0  0
  139.8337   75.5011  223.2210 H   0  0  0  0  0  0  0  0  0  0  0  0
  138.8339   76.5032  222.1515 H   0  0  0  0  0  0  0  0  0  0  0  0
  138.4550   71.6283  224.0615 H   0  0  0  0  0  0  0  0  0  0  0  0
  138.8110   70.8596  222.4961 H   0  0  0  0  0  0  0  0  0  0  0  0
  138.0792   69.1620  224.1726 H   0  0  0  0  0  0  0  0  0  0  0  0
  139.7720   68.8710  223.7100 H   0  0  0  0  0  0  0  0  0  0  0  0
  137.9225   68.5967  226.5187 H   0  0  0  0  0  0  0  0  0  0  0  0
  138.7095   69.0152  228.8250 H   0  0  0  0  0  0  0  0  0  0  0  0
  140.7100   70.4082  229.2736 H   0  0  0  0  0  0  0  0  0  0  0  0
  141.9555   71.4140  227.3659 H   0  0  0  0  0  0  0  0  0  0  0  0
  141.8136   72.0928  225.0799 H   0  0  0  0  0  0  0  0  0  0  0  0
  142.1175   70.4254  224.4258 H   0  0  0  0  0  0  0  0  0  0  0  0
  144.3795   73.8161  219.5649 H   0  0  0  0  0  0  0  0  0  0  0  0
  1  2  1  0
  2  3  2  0
  3  4  1  0
  4  5  2  0
  5  6  1  0
  6  7  1  0
  7  8  2  0
  8  9  1  0
  9 10  1  0
 10 11  1  0
 11 12  1  0
 12 13  1  0
 13 14  1  0
 14 15  1  0
 15 16  1  0
 16 17  1  0
 17 18  1  0
 18 19  1  0
 13 20  1  0
 20 21  1  0
  9 22  2  0
 22 23  1  0
 23 24  1  0
 24 25  1  0
 25 26  1  0
 26 27  1  0
 27 28  2  0
 28 29  1  0
 29 30  2  0
 30 31  1  0
 31 32  2  0
 32 33  1  0
 23 34  2  0
  6 35  2  0
 35  2  1  0
 34  7  1  0
 21 10  1  0
 33 24  1  0
 19 14  1  0
 32 27  1  0
  1 36  1  0
  3 37  1  0
  4 38  1  0
  5 39  1  0
 11 40  1  0
 11 41  1  0
 12 42  1  0
 12 43  1  0
 13 44  1  0
 15 45  1  0
 15 46  1  0
 16 47  1  0
 16 48  1  0
 17 49  1  0
 17 50  1  0
 18 51  1  0
 18 52  1  0
 19 53  1  0
 19 54  1  0
 20 55  1  0
 20 56  1  0
 21 57  1  0
 21 58  1  0
 25 59  1  0
 25 60  1  0
 26 61  1  0
 26 62  1  0
 28 63  1  0
 29 64  1  0
 30 65  1  0
 31 66  1  0
 33 67  1  0
 33 68  1  0
 35 69  1  0
M  END
>  <smiles>  (33) 
Oc1cccc(-c2nc(N3CCC(N4CCCCC4)CC3)nc(N3CCc4ccccc4C3)n2)c1

>  <score_type>  (33) 
oracle

>  <origin>  (33) 
autodockgpu

>  <m_score__min__energy>  (33) 
-9.6799999999999997

>  <m_primary>  (33) 
energy

>  <rmsd>  (33) 
5.618159167315928

>  <m_score__min__rmsd>  (33) 
5.618159167315928

>  <meeko>  (33) 
{"free_energy": -9.68, "intermolecular_energy": -11.17, "internal_energy": -1.14, "cluster_size": 35, "cluster_id": 1, "rank_in_cluster": 1}

>  <energy>  (33) 
-8.88

>  <cluster_rmsd>  (33) 
1.4

>  <cluster>  (33) 
1

$$$$

     RDKit          3D

 69 74  0  0  0  0  0  0  0  0999 V2000
  146.3180   73.1280  218.0430 O   0  0  0  0  0  0  0  0  0  0  0  0
  145.3490   72.4970  218.8120 C   0  0  0  0  0  0  0  0  0  0  0  0
  145.4520   71.1150  218.9530 C   0  0  0  0  0  0  0  0  0  0  0  0
  144.5150   70.4440  219.7080 C   0  0  0  0  0  0  0  0  0  0  0  0
  143.4690   71.0950  220.3340 C   0  0  0  0  0  0  0  0  0  0  0  0
  143.4040   72.4630  220.1680 C   0  0  0  0  0  0  0  0  0  0  0  0
  142.3170   73.1950  220.8110 C   0  0  0  0  0  0  0  0  0  0  0  0
  141.2830   72.5350  221.3700 N   0  0  0  0  0  0  0  0  0  0  0  0
  140.2660   73.1830  221.9710 C   0  0  0  0  0  0  0  0  0  0  0  0
  139.1640   72.5500  222.5690 N   0  0  0  0  0  0  0  0  0  0  0  0
  139.2960   71.4950  223.5540 C   0  0  0  0  0  0  0  0  0  0  0  0
  138.0610   70.6190  223.6000 C   0  0  0  0  0  0  0  0  0  0  0  0
  137.4470   70.4480  222.2350 C   0  0  0  0  0  0  0  0  0  0  0  0
  136.2530   69.6540  222.3640 N   0  0  0  0  0  0  0  0  0  0  0  0
  135.6050   69.8020  223.6530 C   0  0  0  0  0  0  0  0  0  0  0  0
  134.2140   69.1820  223.4620 C   0  0  0  0  0  0  0  0  0  0  0  0
  134.3730   67.7190  223.1310 C   0  0  0  0  0  0  0  0  0  0  0  0
  135.3220   67.4910  221.9910 C   0  0  0  0  0  0  0  0  0  0  0  0
  136.6000   68.2480  222.2630 C   0  0  0  0  0  0  0  0  0  0  0  0
  137.1800   71.7410  221.5250 C   0  0  0  0  0  0  0  0  0  0  0  0
  137.8000   72.9390  222.2150 C   0  0  0  0  0  0  0  0  0  0  0  0
  140.3100   74.5340  221.9980 N   0  0  0  0  0  0  0  0  0  0  0  0
  141.3150   75.2410  221.4560 C   0  0  0  0  0  0  0  0  0  0  0  0
  141.3210   76.6610  221.5090 N   0  0  0  0  0  0  0  0  0  0  0  0
  141.5990   77.3780  220.2810 C   0  0  0  0  0  0  0  0  0  0  0  0
  140.7740   78.6480  220.3070 C   0  0  0  0  0  0  0  0  0  0  0  0
  141.2110   79.4290  221.4940 C   0  0  0  0  0  0  0  0  0  0  0  0
  141.4850   80.7890  221.4340 C   0  0  0  0  0  0  0  0  0  0  0  0
  141.8870   81.4380  222.5830 C   0  0  0  0  0  0  0  0  0  0  0  0
  142.0250   80.7750  223.7960 C   0  0  0  0  0  0  0  0  0  0  0  0
  141.7550   79.4280  223.8580 C   0  0  0  0  0  0  0  0  0  0  0  0
  141.3500   78.7700  222.6980 C   0  0  0  0  0  0  0  0  0  0  0  0
  141.0570   77.3190  222.7580 C   0  0  0  0  0  0  0  0  0  0  0  0
  142.3050   74.5390  220.8700 N   0  0  0  0  0  0  0  0  0  0  0  0
  144.3190   73.1800  219.4230 C   0  0  0  0  0  0  0  0  0  0  0  0
  146.3650   74.1360  217.9120 H   0  0  0  0  0  0  0  0  0  0  0  0
  146.2719   70.5658  218.4672 H   0  0  0  0  0  0  0  0  0  0  0  0
  144.6025   69.3528  219.8162 H   0  0  0  0  0  0  0  0  0  0  0  0
  142.7257   70.5499  220.9344 H   0  0  0  0  0  0  0  0  0  0  0  0
  140.1659   70.8728  223.2966 H   0  0  0  0  0  0  0  0  0  0  0  0
  139.4253   71.9605  224.5422 H   0  0  0  0  0  0  0  0  0  0  0  0
  138.3402   69.6297  223.9916 H   0  0  0  0  0  0  0  0  0  0  0  0
  137.3196   71.1060  224.2505 H   0  0  0  0  0  0  0  0  0  0  0  0
  138.1790   69.9300  221.5980 H   0  0  0  0  0  0  0  0  0  0  0  0
  136.1653   69.2655  224.4329 H   0  0  0  0  0  0  0  0  0  0  0  0
  135.5523   70.8526  223.9746 H   0  0  0  0  0  0  0  0  0  0  0  0
  133.6312   69.2898  224.3887 H   0  0  0  0  0  0  0  0  0  0  0  0
  133.6865   69.6943  222.6438 H   0  0  0  0  0  0  0  0  0  0  0  0
  134.7555   67.1952  224.0194 H   0  0  0  0  0  0  0  0  0  0  0  0
  133.3876   67.3340  222.8297 H   0  0  0  0  0  0  0  0  0  0  0  0
  135.5406   66.4167  221.9011 H   0  0  0  0  0  0  0  0  0  0  0  0
  134.8706   67.8448  221.0524 H   0  0  0  0  0  0  0  0  0  0  0  0
  137.0496   67.9021  223.2055 H   0  0  0  0  0  0  0  0  0  0  0  0
  137.3305   68.0830  221.4573 H   0  0  0  0  0  0  0  0  0  0  0  0
  137.5909   71.6723  220.5069 H   0  0  0  0  0  0  0  0  0  0  0  0
  136.0906   71.8932  221.5210 H   0  0  0  0  0  0  0  0  0  0  0  0
  137.8151   73.8039  221.5355 H   0  0  0  0  0  0  0  0  0  0  0  0
  137.2237   73.2290  223.1059 H   0  0  0  0  0  0  0  0  0  0  0  0
  142.6693   77.6250  220.2229 H   0  0  0  0  0  0  0  0  0  0  0  0
  141.3437   76.7645  219.4044 H   0  0  0  0  0  0  0  0  0  0  0  0
  140.9464   79.2288  219.3889 H   0  0  0  0  0  0  0  0  0  0  0  0
  139.7002   78.4162  220.3646 H   0  0  0  0  0  0  0  0  0  0  0  0
  141.3833   81.3392  220.4869 H   0  0  0  0  0  0  0  0  0  0  0  0
  142.1053   82.5152  222.5373 H   0  0  0  0  0  0  0  0  0  0  0  0
  142.3462   81.3206  224.6955 H   0  0  0  0  0  0  0  0  0  0  0  0
  141.8569   78.8797  224.8061 H   0  0  0  0  0  0  0  0  0  0  0  0
  141.6839   76.8628  223.5383 H   0  0  0  0  0  0  0  0  0  0  0  0
  139.9871   77.1992  222.9837 H   0  0  0  0  0  0  0  0  0  0  0  0
  144.2282   74.2713  219.3193 H   0  0  0  0  0  0  0  0  0  0  0  0
  1  2  1  0
  2  3  2  0
  3  4  1  0
  4  5  2  0
  5  6  1  0
  6  7  1  0
  7  8  2  0
  8  9  1  0
  9 10  1  0
 10 11  1  0
 11 12  1  0
 12 13  1  0
 13 14  1  0
 14 15  1  0
 15 16  1  0
 16 17  1  0
 17 18  1  0
 18 19  1  0
 13 20  1  0
 20 21  1  0
  9 22  2  0
 22 23  1  0
 23 24  1  0
 24 25  1  0
 25 26  1  0
 26 27  1  0
 27 28  2  0
 28 29  1  0
 29 30  2  0
 30 31  1  0
 31 32  2  0
 32 33  1  0
 23 34  2  0
  6 35  2  0
 35  2  1  0
 34  7  1  0
 21 10  1  0
 33 24  1  0
 19 14  1  0
 32 27  1  0
  1 36  1  0
  3 37  1  0
  4 38  1  0
  5 39  1  0
 11 40  1  0
 11 41  1  0
 12 42  1  0
 12 43  1  0
 13 44  1  0
 15 45  1  0
 15 46  1  0
 16 47  1  0
 16 48  1  0
 17 49  1  0
 17 50  1  0
 18 51  1  0
 18 52  1  0
 19 53  1  0
 19 54  1  0
 20 55  1  0
 20 56  1  0
 21 57  1  0
 21 58  1  0
 25 59  1  0
 25 60  1  0
 26 61  1  0
 26 62  1  0
 28 63  1  0
 29 64  1  0
 30 65  1  0
 31 66  1  0
 33 67  1  0
 33 68  1  0
 35 69  1  0
M  END
>  <smiles>  (34) 
Oc1cccc(-c2nc(N3CCC(N4CCCCC4)CC3)nc(N3CCc4ccccc4C3)n2)c1

>  <score_type>  (34) 
oracle

>  <origin>  (34) 
autodockgpu

>  <m_score__min__energy>  (34) 
-9.6799999999999997

>  <m_primary>  (34) 
energy

>  <rmsd>  (34) 
10.55291673430499

>  <m_score__min__rmsd>  (34) 
10.55291673430499

>  <meeko>  (34) 
{"free_energy": -8.49, "intermolecular_energy": -9.98, "internal_energy": -1.17, "cluster_size": 1, "cluster_id": 4, "rank_in_cluster": 1}

>  <energy>  (34) 
-8.82

>  <cluster_rmsd>  (34) 
1.33

>  <cluster>  (34) 
1

$$$$

     RDKit          3D

 69 74  0  0  0  0  0  0  0  0999 V2000
  144.0580   80.4850  223.0080 O   0  0  0  0  0  0  0  0  0  0  0  0
  142.6880   80.2880  223.1210 C   0  0  0  0  0  0  0  0  0  0  0  0
  141.9210   81.3810  223.5190 C   0  0  0  0  0  0  0  0  0  0  0  0
  140.5570   81.2360  223.6450 C   0  0  0  0  0  0  0  0  0  0  0  0
  139.9160   80.0380  223.3900 C   0  0  0  0  0  0  0  0  0  0  0  0
  140.7130   78.9820  222.9990 C   0  0  0  0  0  0  0  0  0  0  0  0
  140.0820   77.6960  222.7170 C   0  0  0  0  0  0  0  0  0  0  0  0
  138.7670   77.5120  222.9520 N   0  0  0  0  0  0  0  0  0  0  0  0
  138.1570   76.3370  222.7020 C   0  0  0  0  0  0  0  0  0  0  0  0
  136.7930   76.0870  222.9270 N   0  0  0  0  0  0  0  0  0  0  0  0
  135.8300   77.1350  223.1980 C   0  0  0  0  0  0  0  0  0  0  0  0
  134.6260   76.6040  223.9490 C   0  0  0  0  0  0  0  0  0  0  0  0
  135.0090   75.5180  224.9200 C   0  0  0  0  0  0  0  0  0  0  0  0
  133.8140   75.0260  225.5540 N   0  0  0  0  0  0  0  0  0  0  0  0
  133.5430   75.6580  226.8320 C   0  0  0  0  0  0  0  0  0  0  0  0
  132.0940   75.2730  227.1560 C   0  0  0  0  0  0  0  0  0  0  0  0
  132.0060   73.7740  227.2950 C   0  0  0  0  0  0  0  0  0  0  0  0
  132.5950   73.0560  226.1160 C   0  0  0  0  0  0  0  0  0  0  0  0
  133.9710   73.6130  225.8450 C   0  0  0  0  0  0  0  0  0  0  0  0
  135.8070   74.4090  224.3020 C   0  0  0  0  0  0  0  0  0  0  0  0
  136.2720   74.7210  222.8950 C   0  0  0  0  0  0  0  0  0  0  0  0
  138.9090   75.3320  222.2020 N   0  0  0  0  0  0  0  0  0  0  0  0
  140.2220   75.4600  221.9500 C   0  0  0  0  0  0  0  0  0  0  0  0
  140.9740   74.3770  221.4220 N   0  0  0  0  0  0  0  0  0  0  0  0
  140.4880   73.0350  221.6770 C   0  0  0  0  0  0  0  0  0  0  0  0
  140.8220   72.1980  220.4590 C   0  0  0  0  0  0  0  0  0  0  0  0
  142.3020   72.2130  220.3120 C   0  0  0  0  0  0  0  0  0  0  0  0
  143.0400   71.0620  220.0740 C   0  0  0  0  0  0  0  0  0  0  0  0
  144.4110   71.1640  219.9500 C   0  0  0  0  0  0  0  0  0  0  0  0
  145.0730   72.3810  220.0560 C   0  0  0  0  0  0  0  0  0  0  0  0
  144.3440   73.5220  220.2920 C   0  0  0  0  0  0  0  0  0  0  0  0
  142.9590   73.4210  220.4180 C   0  0  0  0  0  0  0  0  0  0  0  0
  142.1670   74.6470  220.6720 C   0  0  0  0  0  0  0  0  0  0  0  0
  140.7780   76.6580  222.2180 N   0  0  0  0  0  0  0  0  0  0  0  0
  142.0830   79.0780  222.8580 C   0  0  0  0  0  0  0  0  0  0  0  0
  144.6450   79.9870  222.3440 H   0  0  0  0  0  0  0  0  0  0  0  0
  142.3993   82.3488  223.7302 H   0  0  0  0  0  0  0  0  0  0  0  0
  139.9574   82.1030  223.9592 H   0  0  0  0  0  0  0  0  0  0  0  0
  138.8260   79.9321  223.4936 H   0  0  0  0  0  0  0  0  0  0  0  0
  136.3129   77.9159  223.8038 H   0  0  0  0  0  0  0  0  0  0  0  0
  135.4842   77.5422  222.2364 H   0  0  0  0  0  0  0  0  0  0  0  0
  134.1596   77.4308  224.5048 H   0  0  0  0  0  0  0  0  0  0  0  0
  133.9258   76.1770  223.2159 H   0  0  0  0  0  0  0  0  0  0  0  0
  135.6820   75.9572  225.6711 H   0  0  0  0  0  0  0  0  0  0  0  0
  134.2274   75.2790  227.6053 H   0  0  0  0  0  0  0  0  0  0  0  0
  133.6865   76.7480  226.7965 H   0  0  0  0  0  0  0  0  0  0  0  0
  131.7872   75.7498  228.0986 H   0  0  0  0  0  0  0  0  0  0  0  0
  131.4289   75.6119  226.3481 H   0  0  0  0  0  0  0  0  0  0  0  0
  132.5500   73.4705  228.2016 H   0  0  0  0  0  0  0  0  0  0  0  0
  130.9413   73.5040  227.3553 H   0  0  0  0  0  0  0  0  0  0  0  0
  132.6683   71.9809  226.3368 H   0  0  0  0  0  0  0  0  0  0  0  0
  131.9539   73.1981  225.2335 H   0  0  0  0  0  0  0  0  0  0  0  0
  134.6121   73.4795  226.7288 H   0  0  0  0  0  0  0  0  0  0  0  0
  134.4433   73.0911  224.9997 H   0  0  0  0  0  0  0  0  0  0  0  0
  136.6913   74.2230  224.9293 H   0  0  0  0  0  0  0  0  0  0  0  0
  135.1506   73.5284  224.2416 H   0  0  0  0  0  0  0  0  0  0  0  0
  137.0625   74.0191  222.5909 H   0  0  0  0  0  0  0  0  0  0  0  0
  135.4488   74.6245  222.1718 H   0  0  0  0  0  0  0  0  0  0  0  0
  140.9816   72.6184  222.5674 H   0  0  0  0  0  0  0  0  0  0  0  0
  139.4035   73.0411  221.8609 H   0  0  0  0  0  0  0  0  0  0  0  0
  140.4671   71.1665  220.6009 H   0  0  0  0  0  0  0  0  0  0  0  0
  140.3346   72.6026  219.5597 H   0  0  0  0  0  0  0  0  0  0  0  0
  142.5412   70.0856  219.9857 H   0  0  0  0  0  0  0  0  0  0  0  0
  144.9980   70.2530  219.7613 H   0  0  0  0  0  0  0  0  0  0  0  0
  146.1670   72.4307  219.9523 H   0  0  0  0  0  0  0  0  0  0  0  0
  144.8443   74.4977  220.3799 H   0  0  0  0  0  0  0  0  0  0  0  0
  142.7871   75.3584  221.2372 H   0  0  0  0  0  0  0  0  0  0  0  0
  141.8667   75.0622  219.6986 H   0  0  0  0  0  0  0  0  0  0  0  0
  142.6782   78.2083  222.5429 H   0  0  0  0  0  0  0  0  0  0  0  0
  1  2  1  0
  2  3  2  0
  3  4  1  0
  4  5  2  0
  5  6  1  0
  6  7  1  0
  7  8  2  0
  8  9  1  0
  9 10  1  0
 10 11  1  0
 11 12  1  0
 12 13  1  0
 13 14  1  0
 14 15  1  0
 15 16  1  0
 16 17  1  0
 17 18  1  0
 18 19  1  0
 13 20  1  0
 20 21  1  0
  9 22  2  0
 22 23  1  0
 23 24  1  0
 24 25  1  0
 25 26  1  0
 26 27  1  0
 27 28  2  0
 28 29  1  0
 29 30  2  0
 30 31  1  0
 31 32  2  0
 32 33  1  0
 23 34  2  0
  6 35  2  0
 35  2  1  0
 34  7  1  0
 21 10  1  0
 33 24  1  0
 19 14  1  0
 32 27  1  0
  1 36  1  0
  3 37  1  0
  4 38  1  0
  5 39  1  0
 11 40  1  0
 11 41  1  0
 12 42  1  0
 12 43  1  0
 13 44  1  0
 15 45  1  0
 15 46  1  0
 16 47  1  0
 16 48  1  0
 17 49  1  0
 17 50  1  0
 18 51  1  0
 18 52  1  0
 19 53  1  0
 19 54  1  0
 20 55  1  0
 20 56  1  0
 21 57  1  0
 21 58  1  0
 25 59  1  0
 25 60  1  0
 26 61  1  0
 26 62  1  0
 28 63  1  0
 29 64  1  0
 30 65  1  0
 31 66  1  0
 33 67  1  0
 33 68  1  0
 35 69  1  0
M  END
>  <smiles>  (35) 
Oc1cccc(-c2nc(N3CCC(N4CCCCC4)CC3)nc(N3CCc4ccccc4C3)n2)c1

>  <score_type>  (35) 
oracle

>  <origin>  (35) 
autodockgpu

>  <m_score__min__energy>  (35) 
-9.6799999999999997

>  <m_primary>  (35) 
energy

>  <rmsd>  (35) 
10.16048586072177

>  <m_score__min__rmsd>  (35) 
10.16048586072177

>  <meeko>  (35) 
{"free_energy": -8.84, "intermolecular_energy": -10.33, "internal_energy": -1.18, "cluster_size": 13, "cluster_id": 2, "rank_in_cluster": 5}

>  <energy>  (35) 
-8.69

>  <cluster_rmsd>  (35) 
1.03

>  <cluster>  (35) 
1

$$$$

     RDKit          3D

 69 74  0  0  0  0  0  0  0  0999 V2000
  146.3170   73.0680  218.5850 O   0  0  0  0  0  0  0  0  0  0  0  0
  145.0740   72.4590  218.6960 C   0  0  0  0  0  0  0  0  0  0  0  0
  144.8140   71.3890  217.8420 C   0  0  0  0  0  0  0  0  0  0  0  0
  143.5950   70.7510  217.9150 C   0  0  0  0  0  0  0  0  0  0  0  0
  142.6130   71.1370  218.8080 C   0  0  0  0  0  0  0  0  0  0  0  0
  142.9120   72.2010  219.6340 C   0  0  0  0  0  0  0  0  0  0  0  0
  141.9060   72.6440  220.5950 C   0  0  0  0  0  0  0  0  0  0  0  0
  141.2940   73.8360  220.4450 N   0  0  0  0  0  0  0  0  0  0  0  0
  140.3630   74.2720  221.3150 C   0  0  0  0  0  0  0  0  0  0  0  0
  139.6930   75.5020  221.2110 N   0  0  0  0  0  0  0  0  0  0  0  0
  140.3560   76.7360  220.8420 C   0  0  0  0  0  0  0  0  0  0  0  0
  139.6020   77.9480  221.3500 C   0  0  0  0  0  0  0  0  0  0  0  0
  138.9600   77.6850  222.6880 C   0  0  0  0  0  0  0  0  0  0  0  0
  138.2200   78.8550  223.0800 N   0  0  0  0  0  0  0  0  0  0  0  0
  137.7030   79.6090  221.9540 C   0  0  0  0  0  0  0  0  0  0  0  0
  136.6790   80.5730  222.5690 C   0  0  0  0  0  0  0  0  0  0  0  0
  137.3920   81.4980  223.5230 C   0  0  0  0  0  0  0  0  0  0  0  0
  138.2290   80.7530  224.5220 C   0  0  0  0  0  0  0  0  0  0  0  0
  139.1020   79.7660  223.7860 C   0  0  0  0  0  0  0  0  0  0  0  0
  138.1080   76.4510  222.7180 C   0  0  0  0  0  0  0  0  0  0  0  0
  138.2580   75.5930  221.4790 C   0  0  0  0  0  0  0  0  0  0  0  0
  140.0530   73.4700  222.3590 N   0  0  0  0  0  0  0  0  0  0  0  0
  140.6310   72.2740  222.5550 C   0  0  0  0  0  0  0  0  0  0  0  0
  140.2740   71.4630  223.6660 N   0  0  0  0  0  0  0  0  0  0  0  0
  139.0930   70.6320  223.5390 C   0  0  0  0  0  0  0  0  0  0  0  0
  139.3570   69.3580  224.3140 C   0  0  0  0  0  0  0  0  0  0  0  0
  139.5860   69.7480  225.7310 C   0  0  0  0  0  0  0  0  0  0  0  0
  138.9800   69.0930  226.7930 C   0  0  0  0  0  0  0  0  0  0  0  0
  139.2470   69.5200  228.0780 C   0  0  0  0  0  0  0  0  0  0  0  0
  140.1020   70.5830  228.3400 C   0  0  0  0  0  0  0  0  0  0  0  0
  140.7040   71.2330  227.2890 C   0  0  0  0  0  0  0  0  0  0  0  0
  140.4350   70.8040  225.9900 C   0  0  0  0  0  0  0  0  0  0  0  0
  141.0800   71.5000  224.8520 C   0  0  0  0  0  0  0  0  0  0  0  0
  141.5550   71.8900  221.6520 N   0  0  0  0  0  0  0  0  0  0  0  0
  144.1180   72.8700  219.6000 C   0  0  0  0  0  0  0  0  0  0  0  0
  146.4520   74.0760  218.5820 H   0  0  0  0  0  0  0  0  0  0  0  0
  145.5730   71.0576  217.1181 H   0  0  0  0  0  0  0  0  0  0  0  0
  143.3965   69.9057  217.2397 H   0  0  0  0  0  0  0  0  0  0  0  0
  141.6423   70.6220  218.8576 H   0  0  0  0  0  0  0  0  0  0  0  0
  141.3685   76.7395  221.2718 H   0  0  0  0  0  0  0  0  0  0  0  0
  140.3950   76.7905  219.7440 H   0  0  0  0  0  0  0  0  0  0  0  0
  140.3046   78.7884  221.4508 H   0  0  0  0  0  0  0  0  0  0  0  0
  138.8060   78.1838  220.6283 H   0  0  0  0  0  0  0  0  0  0  0  0
  139.7611   77.4837  223.4145 H   0  0  0  0  0  0  0  0  0  0  0  0
  138.5105   80.1662  221.4565 H   0  0  0  0  0  0  0  0  0  0  0  0
  137.2553   78.9590  221.1877 H   0  0  0  0  0  0  0  0  0  0  0  0
  136.2005   81.1613  221.7722 H   0  0  0  0  0  0  0  0  0  0  0  0
  135.9074   80.0036  223.1080 H   0  0  0  0  0  0  0  0  0  0  0  0
  138.0449   82.1679  222.9443 H   0  0  0  0  0  0  0  0  0  0  0  0
  136.6281   82.0618  224.0785 H   0  0  0  0  0  0  0  0  0  0  0  0
  138.8602   81.4622  225.0775 H   0  0  0  0  0  0  0  0  0  0  0  0
  137.5784   80.2201  225.2311 H   0  0  0  0  0  0  0  0  0  0  0  0
  139.7482   80.2952  223.0702 H   0  0  0  0  0  0  0  0  0  0  0  0
  139.7485   79.2181  224.4874 H   0  0  0  0  0  0  0  0  0  0  0  0
  138.3920   75.8512  223.5953 H   0  0  0  0  0  0  0  0  0  0  0  0
  137.0590   76.7787  222.7640 H   0  0  0  0  0  0  0  0  0  0  0  0
  137.8400   74.5912  221.6571 H   0  0  0  0  0  0  0  0  0  0  0  0
  137.7196   76.0289  220.6245 H   0  0  0  0  0  0  0  0  0  0  0  0
  138.2188   71.1530  223.9566 H   0  0  0  0  0  0  0  0  0  0  0  0
  138.8833   70.4101  222.4822 H   0  0  0  0  0  0  0  0  0  0  0  0
  138.4888   68.6863  224.2430 H   0  0  0  0  0  0  0  0  0  0  0  0
  140.2303   68.8264  223.9080 H   0  0  0  0  0  0  0  0  0  0  0  0
  138.2986   68.2482  226.6142 H   0  0  0  0  0  0  0  0  0  0  0  0
  138.7674   69.0020  228.9216 H   0  0  0  0  0  0  0  0  0  0  0  0
  140.2949   70.9006  229.3753 H   0  0  0  0  0  0  0  0  0  0  0  0
  141.3861   72.0769  227.4697 H   0  0  0  0  0  0  0  0  0  0  0  0
  141.2519   72.5501  225.1307 H   0  0  0  0  0  0  0  0  0  0  0  0
  142.0262   70.9834  224.6331 H   0  0  0  0  0  0  0  0  0  0  0  0
  144.3125   73.7130  220.2794 H   0  0  0  0  0  0  0  0  0  0  0  0
  1  2  1  0
  2  3  2  0
  3  4  1  0
  4  5  2  0
  5  6  1  0
  6  7  1  0
  7  8  2  0
  8  9  1  0
  9 10  1  0
 10 11  1  0
 11 12  1  0
 12 13  1  0
 13 14  1  0
 14 15  1  0
 15 16  1  0
 16 17  1  0
 17 18  1  0
 18 19  1  0
 13 20  1  0
 20 21  1  0
  9 22  2  0
 22 23  1  0
 23 24  1  0
 24 25  1  0
 25 26  1  0
 26 27  1  0
 27 28  2  0
 28 29  1  0
 29 30  2  0
 30 31  1  0
 31 32  2  0
 32 33  1  0
 23 34  2  0
  6 35  2  0
 35  2  1  0
 34  7  1  0
 21 10  1  0
 33 24  1  0
 19 14  1  0
 32 27  1  0
  1 36  1  0
  3 37  1  0
  4 38  1  0
  5 39  1  0
 11 40  1  0
 11 41  1  0
 12 42  1  0
 12 43  1  0
 13 44  1  0
 15 45  1  0
 15 46  1  0
 16 47  1  0
 16 48  1  0
 17 49  1  0
 17 50  1  0
 18 51  1  0
 18 52  1  0
 19 53  1  0
 19 54  1  0
 20 55  1  0
 20 56  1  0
 21 57  1  0
 21 58  1  0
 25 59  1  0
 25 60  1  0
 26 61  1  0
 26 62  1  0
 28 63  1  0
 29 64  1  0
 30 65  1  0
 31 66  1  0
 33 67  1  0
 33 68  1  0
 35 69  1  0
M  END
>  <smiles>  (36) 
Oc1cccc(-c2nc(N3CCC(N4CCCCC4)CC3)nc(N3CCc4ccccc4C3)n2)c1

>  <score_type>  (36) 
oracle

>  <origin>  (36) 
autodockgpu

>  <m_score__min__energy>  (36) 
-9.6799999999999997

>  <m_primary>  (36) 
energy

>  <rmsd>  (36) 
6.412086175001793

>  <m_score__min__rmsd>  (36) 
6.412086175001793

>  <meeko>  (36) 
{"free_energy": -9.48, "intermolecular_energy": -10.97, "internal_energy": -1.17, "cluster_size": 35, "cluster_id": 1, "rank_in_cluster": 8}

>  <energy>  (36) 
-8.85

>  <cluster_rmsd>  (36) 
0.0

>  <cluster>  (36) 
2

$$$$

     RDKit          3D

 69 74  0  0  0  0  0  0  0  0999 V2000
  146.6200   73.3420  219.3580 O   0  0  0  0  0  0  0  0  0  0  0  0
  145.3480   72.7980  219.2360 C   0  0  0  0  0  0  0  0  0  0  0  0
  145.1440   71.8910  218.1980 C   0  0  0  0  0  0  0  0  0  0  0  0
  143.8990   71.3240  218.0360 C   0  0  0  0  0  0  0  0  0  0  0  0
  142.8380   71.6230  218.8700 C   0  0  0  0  0  0  0  0  0  0  0  0
  143.0840   72.5260  219.8830 C   0  0  0  0  0  0  0  0  0  0  0  0
  141.9940   72.8740  220.7900 C   0  0  0  0  0  0  0  0  0  0  0  0
  141.3100   74.0250  220.6310 N   0  0  0  0  0  0  0  0  0  0  0  0
  140.3000   74.3730  221.4510 C   0  0  0  0  0  0  0  0  0  0  0  0
  139.5540   75.5570  221.3340 N   0  0  0  0  0  0  0  0  0  0  0  0
  140.1080   76.7950  220.8240 C   0  0  0  0  0  0  0  0  0  0  0  0
  139.3350   77.9980  221.3240 C   0  0  0  0  0  0  0  0  0  0  0  0
  138.8380   77.7960  222.7320 C   0  0  0  0  0  0  0  0  0  0  0  0
  138.0710   78.9510  223.1190 N   0  0  0  0  0  0  0  0  0  0  0  0
  137.5290   79.6820  221.9890 C   0  0  0  0  0  0  0  0  0  0  0  0
  136.4860   80.6260  222.6020 C   0  0  0  0  0  0  0  0  0  0  0  0
  137.1810   81.5770  223.5430 C   0  0  0  0  0  0  0  0  0  0  0  0
  138.0410   80.8620  224.5440 C   0  0  0  0  0  0  0  0  0  0  0  0
  138.9340   79.8900  223.8110 C   0  0  0  0  0  0  0  0  0  0  0  0
  138.0650   76.5250  222.9230 C   0  0  0  0  0  0  0  0  0  0  0  0
  138.1470   75.5920  221.7330 C   0  0  0  0  0  0  0  0  0  0  0  0
  139.9840   73.5240  222.4540 N   0  0  0  0  0  0  0  0  0  0  0  0
  140.6320   72.3650  222.6590 C   0  0  0  0  0  0  0  0  0  0  0  0
  140.2650   71.5020  223.7260 N   0  0  0  0  0  0  0  0  0  0  0  0
  139.0750   70.6920  223.5570 C   0  0  0  0  0  0  0  0  0  0  0  0
  139.3230   69.3770  224.2650 C   0  0  0  0  0  0  0  0  0  0  0  0
  139.5590   69.6900  225.7000 C   0  0  0  0  0  0  0  0  0  0  0  0
  138.9450   68.9880  226.7280 C   0  0  0  0  0  0  0  0  0  0  0  0
  139.2180   69.3440  228.0330 C   0  0  0  0  0  0  0  0  0  0  0  0
  140.0860   70.3820  228.3480 C   0  0  0  0  0  0  0  0  0  0  0  0
  140.6950   71.0780  227.3320 C   0  0  0  0  0  0  0  0  0  0  0  0
  140.4200   70.7210  226.0130 C   0  0  0  0  0  0  0  0  0  0  0  0
  141.0730   71.4680  224.9120 C   0  0  0  0  0  0  0  0  0  0  0  0
  141.6330   72.0700  221.8060 N   0  0  0  0  0  0  0  0  0  0  0  0
  144.3130   73.1200  220.0870 C   0  0  0  0  0  0  0  0  0  0  0  0
  146.8050   74.3410  219.3800 H   0  0  0  0  0  0  0  0  0  0  0  0
  145.9671   71.6309  217.5162 H   0  0  0  0  0  0  0  0  0  0  0  0
  143.7439   70.6088  217.2148 H   0  0  0  0  0  0  0  0  0  0  0  0
  141.8478   71.1641  218.7327 H   0  0  0  0  0  0  0  0  0  0  0  0
  141.1541   76.8806  221.1531 H   0  0  0  0  0  0  0  0  0  0  0  0
  140.0427   76.7753  219.7261 H   0  0  0  0  0  0  0  0  0  0  0  0
  139.9932   78.8791  221.3014 H   0  0  0  0  0  0  0  0  0  0  0  0
  138.4623   78.1406  220.6698 H   0  0  0  0  0  0  0  0  0  0  0  0
  139.7140   77.6875  223.3884 H   0  0  0  0  0  0  0  0  0  0  0  0
  138.3196   80.2541  221.4814 H   0  0  0  0  0  0  0  0  0  0  0  0
  137.0928   79.0145  221.2312 H   0  0  0  0  0  0  0  0  0  0  0  0
  135.9882   81.1951  221.8030 H   0  0  0  0  0  0  0  0  0  0  0  0
  135.7325   80.0425  223.1513 H   0  0  0  0  0  0  0  0  0  0  0  0
  137.8143   82.2571  222.9545 H   0  0  0  0  0  0  0  0  0  0  0  0
  136.4066   82.1275  224.0973 H   0  0  0  0  0  0  0  0  0  0  0  0
  138.6576   81.5914  225.0898 H   0  0  0  0  0  0  0  0  0  0  0  0
  137.4077   80.3199  225.2617 H   0  0  0  0  0  0  0  0  0  0  0  0
  139.5623   80.4286  223.0864 H   0  0  0  0  0  0  0  0  0  0  0  0
  139.5982   79.3648  224.5132 H   0  0  0  0  0  0  0  0  0  0  0  0
  138.4639   76.0025  223.8050 H   0  0  0  0  0  0  0  0  0  0  0  0
  137.0078   76.8014  223.0493 H   0  0  0  0  0  0  0  0  0  0  0  0
  137.8059   74.5848  222.0146 H   0  0  0  0  0  0  0  0  0  0  0  0
  137.5065   75.9387  220.9087 H   0  0  0  0  0  0  0  0  0  0  0  0
  138.2067   71.2009  224.0010 H   0  0  0  0  0  0  0  0  0  0  0  0
  138.8638   70.5268  222.4902 H   0  0  0  0  0  0  0  0  0  0  0  0
  138.4458   68.7214  224.1612 H   0  0  0  0  0  0  0  0  0  0  0  0
  140.1889   68.8559  223.8306 H   0  0  0  0  0  0  0  0  0  0  0  0
  138.2529   68.1623  226.5063 H   0  0  0  0  0  0  0  0  0  0  0  0
  138.7332   68.7885  228.8494 H   0  0  0  0  0  0  0  0  0  0  0  0
  140.2833   70.6434  229.3981 H   0  0  0  0  0  0  0  0  0  0  0  0
  141.3877   71.9028  227.5556 H   0  0  0  0  0  0  0  0  0  0  0  0
  141.2574   72.5001  225.2448 H   0  0  0  0  0  0  0  0  0  0  0  0
  142.0132   70.9529  224.6655 H   0  0  0  0  0  0  0  0  0  0  0  0
  144.4629   73.8342  220.9101 H   0  0  0  0  0  0  0  0  0  0  0  0
  1  2  1  0
  2  3  2  0
  3  4  1  0
  4  5  2  0
  5  6  1  0
  6  7  1  0
  7  8  2  0
  8  9  1  0
  9 10  1  0
 10 11  1  0
 11 12  1  0
 12 13  1  0
 13 14  1  0
 14 15  1  0
 15 16  1  0
 16 17  1  0
 17 18  1  0
 18 19  1  0
 13 20  1  0
 20 21  1  0
  9 22  2  0
 22 23  1  0
 23 24  1  0
 24 25  1  0
 25 26  1  0
 26 27  1  0
 27 28  2  0
 28 29  1  0
 29 30  2  0
 30 31  1  0
 31 32  2  0
 32 33  1  0
 23 34  2  0
  6 35  2  0
 35  2  1  0
 34  7  1  0
 21 10  1  0
 33 24  1  0
 19 14  1  0
 32 27  1  0
  1 36  1  0
  3 37  1  0
  4 38  1  0
  5 39  1  0
 11 40  1  0
 11 41  1  0
 12 42  1  0
 12 43  1  0
 13 44  1  0
 15 45  1  0
 15 46  1  0
 16 47  1  0
 16 48  1  0
 17 49  1  0
 17 50  1  0
 18 51  1  0
 18 52  1  0
 19 53  1  0
 19 54  1  0
 20 55  1  0
 20 56  1  0
 21 57  1  0
 21 58  1  0
 25 59  1  0
 25 60  1  0
 26 61  1  0
 26 62  1  0
 28 63  1  0
 29 64  1  0
 30 65  1  0
 31 66  1  0
 33 67  1  0
 33 68  1  0
 35 69  1  0
M  END
>  <smiles>  (37) 
Oc1cccc(-c2nc(N3CCC(N4CCCCC4)CC3)nc(N3CCc4ccccc4C3)n2)c1

>  <score_type>  (37) 
oracle

>  <origin>  (37) 
autodockgpu

>  <m_score__min__energy>  (37) 
-9.6799999999999997

>  <m_primary>  (37) 
energy

>  <rmsd>  (37) 
6.491158575165679

>  <m_score__min__rmsd>  (37) 
6.491158575165679

>  <meeko>  (37) 
{"free_energy": -9.38, "intermolecular_energy": -10.87, "internal_energy": -1.17, "cluster_size": 35, "cluster_id": 1, "rank_in_cluster": 18}

>  <energy>  (37) 
-8.85

>  <cluster_rmsd>  (37) 
0.03

>  <cluster>  (37) 
2

$$$$

     RDKit          3D

 69 74  0  0  0  0  0  0  0  0999 V2000
  146.3240   73.0650  218.6860 O   0  0  0  0  0  0  0  0  0  0  0  0
  145.0930   72.4320  218.7960 C   0  0  0  0  0  0  0  0  0  0  0  0
  144.8720   71.3290  217.9750 C   0  0  0  0  0  0  0  0  0  0  0  0
  143.6660   70.6670  218.0490 C   0  0  0  0  0  0  0  0  0  0  0  0
  142.6600   71.0590  218.9120 C   0  0  0  0  0  0  0  0  0  0  0  0
  142.9210   72.1570  219.7060 C   0  0  0  0  0  0  0  0  0  0  0  0
  141.8890   72.6100  220.6340 C   0  0  0  0  0  0  0  0  0  0  0  0
  141.2570   73.7850  220.4360 N   0  0  0  0  0  0  0  0  0  0  0  0
  140.3000   74.2280  221.2750 C   0  0  0  0  0  0  0  0  0  0  0  0
  139.6090   75.4410  221.1200 N   0  0  0  0  0  0  0  0  0  0  0  0
  140.1580   76.5820  220.4160 C   0  0  0  0  0  0  0  0  0  0  0  0
  139.5200   77.8780  220.8710 C   0  0  0  0  0  0  0  0  0  0  0  0
  139.1930   77.8520  222.3420 C   0  0  0  0  0  0  0  0  0  0  0  0
  138.5440   79.0890  222.6900 N   0  0  0  0  0  0  0  0  0  0  0  0
  139.1150   79.7250  223.8610 C   0  0  0  0  0  0  0  0  0  0  0  0
  138.5440   81.1490  223.8470 C   0  0  0  0  0  0  0  0  0  0  0  0
  137.0440   81.0740  223.9840 C   0  0  0  0  0  0  0  0  0  0  0  0
  136.4250   80.1420  222.9830 C   0  0  0  0  0  0  0  0  0  0  0  0
  137.1580   78.8230  223.0290 C   0  0  0  0  0  0  0  0  0  0  0  0
  138.3850   76.6610  222.7620 C   0  0  0  0  0  0  0  0  0  0  0  0
  138.2670   75.6090  221.6780 C   0  0  0  0  0  0  0  0  0  0  0  0
  139.9870   73.4530  222.3370 N   0  0  0  0  0  0  0  0  0  0  0  0
  140.5850   72.2760  222.5820 C   0  0  0  0  0  0  0  0  0  0  0  0
  140.2220   71.4930  223.7100 N   0  0  0  0  0  0  0  0  0  0  0  0
  139.0210   70.6880  223.6130 C   0  0  0  0  0  0  0  0  0  0  0  0
  139.2640   69.4220  224.4070 C   0  0  0  0  0  0  0  0  0  0  0  0
  139.5210   69.8310  225.8130 C   0  0  0  0  0  0  0  0  0  0  0  0
  138.9120   69.2080  226.8950 C   0  0  0  0  0  0  0  0  0  0  0  0
  139.2060   69.6510  228.1690 C   0  0  0  0  0  0  0  0  0  0  0  0
  140.0900   70.6970  228.4010 C   0  0  0  0  0  0  0  0  0  0  0  0
  140.6930   71.3140  227.3310 C   0  0  0  0  0  0  0  0  0  0  0  0
  140.3980   70.8700  226.0430 C   0  0  0  0  0  0  0  0  0  0  0  0
  141.0450   71.5310  224.8860 C   0  0  0  0  0  0  0  0  0  0  0  0
  141.5330   71.8830  221.7080 N   0  0  0  0  0  0  0  0  0  0  0  0
  144.1120   72.8530  219.6690 C   0  0  0  0  0  0  0  0  0  0  0  0
  146.4360   74.0750  218.6440 H   0  0  0  0  0  0  0  0  0  0  0  0
  145.6509   70.9904  217.2759 H   0  0  0  0  0  0  0  0  0  0  0  0
  143.4978   69.7960  217.3985 H   0  0  0  0  0  0  0  0  0  0  0  0
  141.7007   70.5232  218.9632 H   0  0  0  0  0  0  0  0  0  0  0  0
  141.2404   76.6313  220.6055 H   0  0  0  0  0  0  0  0  0  0  0  0
  139.9522   76.4556  219.3428 H   0  0  0  0  0  0  0  0  0  0  0  0
  140.2168   78.7063  220.6753 H   0  0  0  0  0  0  0  0  0  0  0  0
  138.5814   78.0124  220.3134 H   0  0  0  0  0  0  0  0  0  0  0  0
  140.1374   77.7516  222.8970 H   0  0  0  0  0  0  0  0  0  0  0  0
  138.8134   79.1949  224.7764 H   0  0  0  0  0  0  0  0  0  0  0  0
  140.2149   79.7170  223.8447 H   0  0  0  0  0  0  0  0  0  0  0  0
  138.9634   81.7235  224.6861 H   0  0  0  0  0  0  0  0  0  0  0  0
  138.8080   81.6476  222.9027 H   0  0  0  0  0  0  0  0  0  0  0  0
  136.7988   80.7194  224.9960 H   0  0  0  0  0  0  0  0  0  0  0  0
  136.6393   82.0803  223.8011 H   0  0  0  0  0  0  0  0  0  0  0  0
  135.3648   79.9847  223.2304 H   0  0  0  0  0  0  0  0  0  0  0  0
  136.4972   80.5750  221.9744 H   0  0  0  0  0  0  0  0  0  0  0  0
  137.0934   78.3911  224.0386 H   0  0  0  0  0  0  0  0  0  0  0  0
  136.7146   78.1055  222.3229 H   0  0  0  0  0  0  0  0  0  0  0  0
  138.8644   76.2054  223.6410 H   0  0  0  0  0  0  0  0  0  0  0  0
  137.3683   77.0171  222.9847 H   0  0  0  0  0  0  0  0  0  0  0  0
  137.9109   74.6601  222.1055 H   0  0  0  0  0  0  0  0  0  0  0  0
  137.5474   75.9125  220.9034 H   0  0  0  0  0  0  0  0  0  0  0  0
  138.1647   71.2369  224.0320 H   0  0  0  0  0  0  0  0  0  0  0  0
  138.7932   70.4522  222.5630 H   0  0  0  0  0  0  0  0  0  0  0  0
  138.3788   68.7707  224.3592 H   0  0  0  0  0  0  0  0  0  0  0  0
  140.1186   68.8620  223.9995 H   0  0  0  0  0  0  0  0  0  0  0  0
  138.2084   68.3769  226.7395 H   0  0  0  0  0  0  0  0  0  0  0  0
  138.7249   69.1600  229.0278 H   0  0  0  0  0  0  0  0  0  0  0  0
  140.3048   71.0274  229.4280 H   0  0  0  0  0  0  0  0  0  0  0  0
  141.3968   72.1446  227.4885 H   0  0  0  0  0  0  0  0  0  0  0  0
  141.2453   72.5813  225.1445 H   0  0  0  0  0  0  0  0  0  0  0  0
  141.9761   70.9888  224.6644 H   0  0  0  0  0  0  0  0  0  0  0  0
  144.2752   73.7238  220.3210 H   0  0  0  0  0  0  0  0  0  0  0  0
  1  2  1  0
  2  3  2  0
  3  4  1  0
  4  5  2  0
  5  6  1  0
  6  7  1  0
  7  8  2  0
  8  9  1  0
  9 10  1  0
 10 11  1  0
 11 12  1  0
 12 13  1  0
 13 14  1  0
 14 15  1  0
 15 16  1  0
 16 17  1  0
 17 18  1  0
 18 19  1  0
 13 20  1  0
 20 21  1  0
  9 22  2  0
 22 23  1  0
 23 24  1  0
 24 25  1  0
 25 26  1  0
 26 27  1  0
 27 28  2  0
 28 29  1  0
 29 30  2  0
 30 31  1  0
 31 32  2  0
 32 33  1  0
 23 34  2  0
  6 35  2  0
 35  2  1  0
 34  7  1  0
 21 10  1  0
 33 24  1  0
 19 14  1  0
 32 27  1  0
  1 36  1  0
  3 37  1  0
  4 38  1  0
  5 39  1  0
 11 40  1  0
 11 41  1  0
 12 42  1  0
 12 43  1  0
 13 44  1  0
 15 45  1  0
 15 46  1  0
 16 47  1  0
 16 48  1  0
 17 49  1  0
 17 50  1  0
 18 51  1  0
 18 52  1  0
 19 53  1  0
 19 54  1  0
 20 55  1  0
 20 56  1  0
 21 57  1  0
 21 58  1  0
 25 59  1  0
 25 60  1  0
 26 61  1  0
 26 62  1  0
 28 63  1  0
 29 64  1  0
 30 65  1  0
 31 66  1  0
 33 67  1  0
 33 68  1  0
 35 69  1  0
M  END
>  <smiles>  (38) 
Oc1cccc(-c2nc(N3CCC(N4CCCCC4)CC3)nc(N3CCc4ccccc4C3)n2)c1

>  <score_type>  (38) 
oracle

>  <origin>  (38) 
autodockgpu

>  <m_score__min__energy>  (38) 
-9.6799999999999997

>  <m_primary>  (38) 
energy

>  <rmsd>  (38) 
6.1181703099785825

>  <m_score__min__rmsd>  (38) 
6.1181703099785825

>  <meeko>  (38) 
{"free_energy": -9.36, "intermolecular_energy": -10.85, "internal_energy": -1.16, "cluster_size": 35, "cluster_id": 1, "rank_in_cluster": 20}

>  <energy>  (38) 
-8.85

>  <cluster_rmsd>  (38) 
0.17

>  <cluster>  (38) 
2

$$$$

     RDKit          3D

 69 74  0  0  0  0  0  0  0  0999 V2000
  146.5850   73.2110  219.3920 O   0  0  0  0  0  0  0  0  0  0  0  0
  145.2770   72.7900  219.1850 C   0  0  0  0  0  0  0  0  0  0  0  0
  145.0240   72.0540  218.0300 C   0  0  0  0  0  0  0  0  0  0  0  0
  143.7420   71.6130  217.7810 C   0  0  0  0  0  0  0  0  0  0  0  0
  142.6920   71.8770  218.6400 C   0  0  0  0  0  0  0  0  0  0  0  0
  142.9870   72.6100  219.7710 C   0  0  0  0  0  0  0  0  0  0  0  0
  141.9100   72.9140  220.7080 C   0  0  0  0  0  0  0  0  0  0  0  0
  141.1900   74.0470  220.5820 N   0  0  0  0  0  0  0  0  0  0  0  0
  140.1910   74.3540  221.4300 C   0  0  0  0  0  0  0  0  0  0  0  0
  139.4080   75.5170  221.3490 N   0  0  0  0  0  0  0  0  0  0  0  0
  139.8720   76.7410  220.7270 C   0  0  0  0  0  0  0  0  0  0  0  0
  139.1320   77.9510  221.2590 C   0  0  0  0  0  0  0  0  0  0  0  0
  138.8000   77.8030  222.7220 C   0  0  0  0  0  0  0  0  0  0  0  0
  138.0550   78.9600  223.1430 N   0  0  0  0  0  0  0  0  0  0  0  0
  137.5160   79.7280  222.0370 C   0  0  0  0  0  0  0  0  0  0  0  0
  136.4920   80.6720  222.6800 C   0  0  0  0  0  0  0  0  0  0  0  0
  137.2090   81.5880  223.6400 C   0  0  0  0  0  0  0  0  0  0  0  0
  138.0660   80.8350  224.6160 C   0  0  0  0  0  0  0  0  0  0  0  0
  138.9380   79.8680  223.8520 C   0  0  0  0  0  0  0  0  0  0  0  0
  138.0840   76.5280  223.0530 C   0  0  0  0  0  0  0  0  0  0  0  0
  138.0550   75.5450  221.9020 C   0  0  0  0  0  0  0  0  0  0  0  0
  139.9240   73.4830  222.4290 N   0  0  0  0  0  0  0  0  0  0  0  0
  140.6090   72.3400  222.6020 C   0  0  0  0  0  0  0  0  0  0  0  0
  140.2940   71.4530  223.6650 N   0  0  0  0  0  0  0  0  0  0  0  0
  139.1780   70.5470  223.4770 C   0  0  0  0  0  0  0  0  0  0  0  0
  139.5200   69.2590  224.1950 C   0  0  0  0  0  0  0  0  0  0  0  0
  139.7000   69.5940  225.6330 C   0  0  0  0  0  0  0  0  0  0  0  0
  139.1260   68.8470  226.6510 C   0  0  0  0  0  0  0  0  0  0  0  0
  139.3420   69.2280  227.9600 C   0  0  0  0  0  0  0  0  0  0  0  0
  140.1160   70.3340  228.2880 C   0  0  0  0  0  0  0  0  0  0  0  0
  140.6850   71.0760  227.2810 C   0  0  0  0  0  0  0  0  0  0  0  0
  140.4670   70.6930  225.9580 C   0  0  0  0  0  0  0  0  0  0  0  0
  141.0780   71.4890  224.8670 C   0  0  0  0  0  0  0  0  0  0  0  0
  141.5970   72.0860  221.7210 N   0  0  0  0  0  0  0  0  0  0  0  0
  144.2540   73.0720  220.0640 C   0  0  0  0  0  0  0  0  0  0  0  0
  146.8820   74.1810  219.3170 H   0  0  0  0  0  0  0  0  0  0  0  0
  145.8374   71.8274  217.3250 H   0  0  0  0  0  0  0  0  0  0  0  0
  143.5481   71.0313  216.8678 H   0  0  0  0  0  0  0  0  0  0  0  0
  141.6723   71.5206  218.4324 H   0  0  0  0  0  0  0  0  0  0  0  0
  140.9461   76.8607  220.9318 H   0  0  0  0  0  0  0  0  0  0  0  0
  139.6842   76.6704  219.6455 H   0  0  0  0  0  0  0  0  0  0  0  0
  139.7630   78.8420  221.1250 H   0  0  0  0  0  0  0  0  0  0  0  0
  138.1887   78.0484  220.7016 H   0  0  0  0  0  0  0  0  0  0  0  0
  139.7459   77.7398  223.2800 H   0  0  0  0  0  0  0  0  0  0  0  0
  138.3118   80.3007  221.5383 H   0  0  0  0  0  0  0  0  0  0  0  0
  137.0637   79.0864  221.2665 H   0  0  0  0  0  0  0  0  0  0  0  0
  135.9983   81.2688  221.8989 H   0  0  0  0  0  0  0  0  0  0  0  0
  135.7324   80.0870  223.2192 H   0  0  0  0  0  0  0  0  0  0  0  0
  137.8481   82.2734  223.0640 H   0  0  0  0  0  0  0  0  0  0  0  0
  136.4471   82.1352  224.2146 H   0  0  0  0  0  0  0  0  0  0  0  0
  138.6981   81.5411  225.1745 H   0  0  0  0  0  0  0  0  0  0  0  0
  137.4300   80.2849  225.3252 H   0  0  0  0  0  0  0  0  0  0  0  0
  139.5695   80.4148  223.1363 H   0  0  0  0  0  0  0  0  0  0  0  0
  139.5988   79.3149  224.5357 H   0  0  0  0  0  0  0  0  0  0  0  0
  138.5914   76.0532  223.9057 H   0  0  0  0  0  0  0  0  0  0  0  0
  137.0413   76.7894  223.2864 H   0  0  0  0  0  0  0  0  0  0  0  0
  137.7706   74.5454  222.2624 H   0  0  0  0  0  0  0  0  0  0  0  0
  137.3192   75.8437  221.1409 H   0  0  0  0  0  0  0  0  0  0  0  0
  138.2624   70.9838  223.9024 H   0  0  0  0  0  0  0  0  0  0  0  0
  139.0015   70.3622  222.4071 H   0  0  0  0  0  0  0  0  0  0  0  0
  138.7027   68.5324  224.0763 H   0  0  0  0  0  0  0  0  0  0  0  0
  140.4348   68.8107  223.7801 H   0  0  0  0  0  0  0  0  0  0  0  0
  138.5093   67.9661  226.4192 H   0  0  0  0  0  0  0  0  0  0  0  0
  138.8870   68.6374  228.7688 H   0  0  0  0  0  0  0  0  0  0  0  0
  140.2715   70.6124  229.3408 H   0  0  0  0  0  0  0  0  0  0  0  0
  141.3016   71.9565  227.5144 H   0  0  0  0  0  0  0  0  0  0  0  0
  141.1695   72.5337  225.1991 H   0  0  0  0  0  0  0  0  0  0  0  0
  142.0624   71.0530  224.6413 H   0  0  0  0  0  0  0  0  0  0  0  0
  144.4430   73.6525  220.9790 H   0  0  0  0  0  0  0  0  0  0  0  0
  1  2  1  0
  2  3  2  0
  3  4  1  0
  4  5  2  0
  5  6  1  0
  6  7  1  0
  7  8  2  0
  8  9  1  0
  9 10  1  0
 10 11  1  0
 11 12  1  0
 12 13  1  0
 13 14  1  0
 14 15  1  0
 15 16  1  0
 16 17  1  0
 17 18  1  0
 18 19  1  0
 13 20  1  0
 20 21  1  0
  9 22  2  0
 22 23  1  0
 23 24  1  0
 24 25  1  0
 25 26  1  0
 26 27  1  0
 27 28  2  0
 28 29  1  0
 29 30  2  0
 30 31  1  0
 31 32  2  0
 32 33  1  0
 23 34  2  0
  6 35  2  0
 35  2  1  0
 34  7  1  0
 21 10  1  0
 33 24  1  0
 19 14  1  0
 32 27  1  0
  1 36  1  0
  3 37  1  0
  4 38  1  0
  5 39  1  0
 11 40  1  0
 11 41  1  0
 12 42  1  0
 12 43  1  0
 13 44  1  0
 15 45  1  0
 15 46  1  0
 16 47  1  0
 16 48  1  0
 17 49  1  0
 17 50  1  0
 18 51  1  0
 18 52  1  0
 19 53  1  0
 19 54  1  0
 20 55  1  0
 20 56  1  0
 21 57  1  0
 21 58  1  0
 25 59  1  0
 25 60  1  0
 26 61  1  0
 26 62  1  0
 28 63  1  0
 29 64  1  0
 30 65  1  0
 31 66  1  0
 33 67  1  0
 33 68  1  0
 35 69  1  0
M  END
>  <smiles>  (39) 
Oc1cccc(-c2nc(N3CCC(N4CCCCC4)CC3)nc(N3CCc4ccccc4C3)n2)c1

>  <score_type>  (39) 
oracle

>  <origin>  (39) 
autodockgpu

>  <m_score__min__energy>  (39) 
-9.6799999999999997

>  <m_primary>  (39) 
energy

>  <rmsd>  (39) 
6.516685774281113

>  <m_score__min__rmsd>  (39) 
6.516685774281113

>  <meeko>  (39) 
{"free_energy": -9.26, "intermolecular_energy": -10.75, "internal_energy": -1.16, "cluster_size": 35, "cluster_id": 1, "rank_in_cluster": 26}

>  <energy>  (39) 
-8.84

>  <cluster_rmsd>  (39) 
0.19

>  <cluster>  (39) 
2

$$$$

     RDKit          3D

 69 74  0  0  0  0  0  0  0  0999 V2000
  143.9490   80.4650  223.1140 O   0  0  0  0  0  0  0  0  0  0  0  0
  142.5730   80.2800  223.1460 C   0  0  0  0  0  0  0  0  0  0  0  0
  141.7900   81.3930  223.4420 C   0  0  0  0  0  0  0  0  0  0  0  0
  140.4190   81.2590  223.4830 C   0  0  0  0  0  0  0  0  0  0  0  0
  139.7880   80.0530  223.2430 C   0  0  0  0  0  0  0  0  0  0  0  0
  140.6020   78.9770  222.9540 C   0  0  0  0  0  0  0  0  0  0  0  0
  139.9810   77.6820  222.6920 C   0  0  0  0  0  0  0  0  0  0  0  0
  138.6700   77.4870  222.9400 N   0  0  0  0  0  0  0  0  0  0  0  0
  138.0700   76.3040  222.7080 C   0  0  0  0  0  0  0  0  0  0  0  0
  136.7110   76.0420  222.9460 N   0  0  0  0  0  0  0  0  0  0  0  0
  135.7420   77.0820  223.2310 C   0  0  0  0  0  0  0  0  0  0  0  0
  134.5510   76.5400  223.9940 C   0  0  0  0  0  0  0  0  0  0  0  0
  134.9530   75.4540  224.9580 C   0  0  0  0  0  0  0  0  0  0  0  0
  133.7690   74.9520  225.6040 N   0  0  0  0  0  0  0  0  0  0  0  0
  133.4510   75.6490  226.8360 C   0  0  0  0  0  0  0  0  0  0  0  0
  132.0130   75.2240  227.1630 C   0  0  0  0  0  0  0  0  0  0  0  0
  131.9860   73.7340  227.3940 C   0  0  0  0  0  0  0  0  0  0  0  0
  132.6250   72.9700  226.2700 C   0  0  0  0  0  0  0  0  0  0  0  0
  133.9810   73.5680  225.9850 C   0  0  0  0  0  0  0  0  0  0  0  0
  135.7540   74.3530  224.3290 C   0  0  0  0  0  0  0  0  0  0  0  0
  136.2000   74.6720  222.9170 C   0  0  0  0  0  0  0  0  0  0  0  0
  138.8280   75.3010  222.2120 N   0  0  0  0  0  0  0  0  0  0  0  0
  140.1370   75.4400  221.9460 C   0  0  0  0  0  0  0  0  0  0  0  0
  140.8960   74.3580  221.4240 N   0  0  0  0  0  0  0  0  0  0  0  0
  140.4260   73.0140  221.6960 C   0  0  0  0  0  0  0  0  0  0  0  0
  140.7580   72.1690  220.4840 C   0  0  0  0  0  0  0  0  0  0  0  0
  142.2360   72.1970  220.3240 C   0  0  0  0  0  0  0  0  0  0  0  0
  142.9840   71.0510  220.0920 C   0  0  0  0  0  0  0  0  0  0  0  0
  144.3520   71.1650  219.9560 C   0  0  0  0  0  0  0  0  0  0  0  0
  145.0030   72.3890  220.0430 C   0  0  0  0  0  0  0  0  0  0  0  0
  144.2640   73.5250  220.2740 C   0  0  0  0  0  0  0  0  0  0  0  0
  142.8820   73.4120  220.4120 C   0  0  0  0  0  0  0  0  0  0  0  0
  142.0800   74.6330  220.6610 C   0  0  0  0  0  0  0  0  0  0  0  0
  140.6830   76.6460  222.1980 N   0  0  0  0  0  0  0  0  0  0  0  0
  141.9780   79.0610  222.9000 C   0  0  0  0  0  0  0  0  0  0  0  0
  144.5490   80.1010  222.3790 H   0  0  0  0  0  0  0  0  0  0  0  0
  142.2602   82.3674  223.6407 H   0  0  0  0  0  0  0  0  0  0  0  0
  139.8058   82.1423  223.7147 H   0  0  0  0  0  0  0  0  0  0  0  0
  138.6929   79.9559  223.2805 H   0  0  0  0  0  0  0  0  0  0  0  0
  136.2256   77.8652  223.8333 H   0  0  0  0  0  0  0  0  0  0  0  0
  135.3819   77.4885  222.2744 H   0  0  0  0  0  0  0  0  0  0  0  0
  134.0847   77.3618  224.5573 H   0  0  0  0  0  0  0  0  0  0  0  0
  133.8459   76.1095  223.2677 H   0  0  0  0  0  0  0  0  0  0  0  0
  135.6310   75.8960  225.7029 H   0  0  0  0  0  0  0  0  0  0  0  0
  134.1374   75.3472  227.6409 H   0  0  0  0  0  0  0  0  0  0  0  0
  133.5502   76.7399  226.7350 H   0  0  0  0  0  0  0  0  0  0  0  0
  131.6709   75.7447  228.0695 H   0  0  0  0  0  0  0  0  0  0  0  0
  131.3476   75.4842  226.3266 H   0  0  0  0  0  0  0  0  0  0  0  0
  132.5268   73.5108  228.3255 H   0  0  0  0  0  0  0  0  0  0  0  0
  130.9328   73.4226  227.4557 H   0  0  0  0  0  0  0  0  0  0  0  0
  132.7395   71.9147  226.5584 H   0  0  0  0  0  0  0  0  0  0  0  0
  131.9937   73.0295  225.3711 H   0  0  0  0  0  0  0  0  0  0  0  0
  134.6117   73.5173  226.8848 H   0  0  0  0  0  0  0  0  0  0  0  0
  134.4899   73.0157  225.1813 H   0  0  0  0  0  0  0  0  0  0  0  0
  136.6470   74.1740  224.9458 H   0  0  0  0  0  0  0  0  0  0  0  0
  135.1052   73.4664  224.2747 H   0  0  0  0  0  0  0  0  0  0  0  0
  136.9922   73.9769  222.6019 H   0  0  0  0  0  0  0  0  0  0  0  0
  135.3690   74.5709  222.2035 H   0  0  0  0  0  0  0  0  0  0  0  0
  140.9313   72.6111  222.5861 H   0  0  0  0  0  0  0  0  0  0  0  0
  139.3431   73.0109  221.8891 H   0  0  0  0  0  0  0  0  0  0  0  0
  140.4146   71.1355  220.6389 H   0  0  0  0  0  0  0  0  0  0  0  0
  140.2591   72.5602  219.5851 H   0  0  0  0  0  0  0  0  0  0  0  0
  142.4943   70.0688  220.0179 H   0  0  0  0  0  0  0  0  0  0  0  0
  144.9463   70.2577  219.7728 H   0  0  0  0  0  0  0  0  0  0  0  0
  146.0954   72.4485  219.9286 H   0  0  0  0  0  0  0  0  0  0  0  0
  144.7553   74.5064  220.3486 H   0  0  0  0  0  0  0  0  0  0  0  0
  142.6978   75.3559  221.2140 H   0  0  0  0  0  0  0  0  0  0  0  0
  141.7675   75.0362  219.6864 H   0  0  0  0  0  0  0  0  0  0  0  0
  142.5867   78.1752  222.6659 H   0  0  0  0  0  0  0  0  0  0  0  0
  1  2  1  0
  2  3  2  0
  3  4  1  0
  4  5  2  0
  5  6  1  0
  6  7  1  0
  7  8  2  0
  8  9  1  0
  9 10  1  0
 10 11  1  0
 11 12  1  0
 12 13  1  0
 13 14  1  0
 14 15  1  0
 15 16  1  0
 16 17  1  0
 17 18  1  0
 18 19  1  0
 13 20  1  0
 20 21  1  0
  9 22  2  0
 22 23  1  0
 23 24  1  0
 24 25  1  0
 25 26  1  0
 26 27  1  0
 27 28  2  0
 28 29  1  0
 29 30  2  0
 30 31  1  0
 31 32  2  0
 32 33  1  0
 23 34  2  0
  6 35  2  0
 35  2  1  0
 34  7  1  0
 21 10  1  0
 33 24  1  0
 19 14  1  0
 32 27  1  0
  1 36  1  0
  3 37  1  0
  4 38  1  0
  5 39  1  0
 11 40  1  0
 11 41  1  0
 12 42  1  0
 12 43  1  0
 13 44  1  0
 15 45  1  0
 15 46  1  0
 16 47  1  0
 16 48  1  0
 17 49  1  0
 17 50  1  0
 18 51  1  0
 18 52  1  0
 19 53  1  0
 19 54  1  0
 20 55  1  0
 20 56  1  0
 21 57  1  0
 21 58  1  0
 25 59  1  0
 25 60  1  0
 26 61  1  0
 26 62  1  0
 28 63  1  0
 29 64  1  0
 30 65  1  0
 31 66  1  0
 33 67  1  0
 33 68  1  0
 35 69  1  0
M  END
>  <smiles>  (40) 
Oc1cccc(-c2nc(N3CCC(N4CCCCC4)CC3)nc(N3CCc4ccccc4C3)n2)c1

>  <score_type>  (40) 
oracle

>  <origin>  (40) 
autodockgpu

>  <m_score__min__energy>  (40) 
-9.6799999999999997

>  <m_primary>  (40) 
energy

>  <rmsd>  (40) 
10.255180507191042

>  <m_score__min__rmsd>  (40) 
10.255180507191042

>  <meeko>  (40) 
{"free_energy": -8.84, "intermolecular_energy": -10.33, "internal_energy": -1.18, "cluster_size": 13, "cluster_id": 2, "rank_in_cluster": 6}

>  <energy>  (40) 
-8.84

>  <cluster_rmsd>  (40) 
0.08

>  <cluster>  (40) 
2

$$$$

     RDKit          3D

 69 74  0  0  0  0  0  0  0  0999 V2000
  146.6110   73.3260  219.3650 O   0  0  0  0  0  0  0  0  0  0  0  0
  145.3260   72.8220  219.2090 C   0  0  0  0  0  0  0  0  0  0  0  0
  145.1020   71.9840  218.1190 C   0  0  0  0  0  0  0  0  0  0  0  0
  143.8440   71.4590  217.9220 C   0  0  0  0  0  0  0  0  0  0  0  0
  142.7880   71.7350  218.7700 C   0  0  0  0  0  0  0  0  0  0  0  0
  143.0540   72.5700  219.8360 C   0  0  0  0  0  0  0  0  0  0  0  0
  141.9700   72.8900  220.7600 C   0  0  0  0  0  0  0  0  0  0  0  0
  141.2590   74.0270  220.6150 N   0  0  0  0  0  0  0  0  0  0  0  0
  140.2540   74.3490  221.4510 C   0  0  0  0  0  0  0  0  0  0  0  0
  139.4790   75.5160  221.3490 N   0  0  0  0  0  0  0  0  0  0  0  0
  139.9650   76.7380  220.7420 C   0  0  0  0  0  0  0  0  0  0  0  0
  139.2180   77.9520  221.2550 C   0  0  0  0  0  0  0  0  0  0  0  0
  138.8470   77.8040  222.7080 C   0  0  0  0  0  0  0  0  0  0  0  0
  138.0960   78.9640  223.1110 N   0  0  0  0  0  0  0  0  0  0  0  0
  137.5840   79.7310  221.9910 C   0  0  0  0  0  0  0  0  0  0  0  0
  136.5500   80.6800  222.6110 C   0  0  0  0  0  0  0  0  0  0  0  0
  137.2490   81.5960  223.5840 C   0  0  0  0  0  0  0  0  0  0  0  0
  138.0810   80.8420  224.5800 C   0  0  0  0  0  0  0  0  0  0  0  0
  138.9670   79.8700  223.8370 C   0  0  0  0  0  0  0  0  0  0  0  0
  138.1150   76.5330  223.0190 C   0  0  0  0  0  0  0  0  0  0  0  0
  138.1120   75.5500  221.8670 C   0  0  0  0  0  0  0  0  0  0  0  0
  139.9720   73.4900  222.4560 N   0  0  0  0  0  0  0  0  0  0  0  0
  140.6480   72.3450  222.6470 C   0  0  0  0  0  0  0  0  0  0  0  0
  140.3170   71.4710  223.7170 N   0  0  0  0  0  0  0  0  0  0  0  0
  139.1860   70.5820  223.5340 C   0  0  0  0  0  0  0  0  0  0  0  0
  139.5060   69.2940  224.2620 C   0  0  0  0  0  0  0  0  0  0  0  0
  139.6900   69.6370  225.6970 C   0  0  0  0  0  0  0  0  0  0  0  0
  139.1030   68.9070  226.7210 C   0  0  0  0  0  0  0  0  0  0  0  0
  139.3240   69.2940  228.0270 C   0  0  0  0  0  0  0  0  0  0  0  0
  140.1150   70.3900  228.3470 C   0  0  0  0  0  0  0  0  0  0  0  0
  140.6980   71.1150  227.3350 C   0  0  0  0  0  0  0  0  0  0  0  0
  140.4750   70.7260  226.0150 C   0  0  0  0  0  0  0  0  0  0  0  0
  141.1000   71.5030  224.9190 C   0  0  0  0  0  0  0  0  0  0  0  0
  141.6420   72.0750  221.7790 N   0  0  0  0  0  0  0  0  0  0  0  0
  144.2970   73.1200  220.0760 C   0  0  0  0  0  0  0  0  0  0  0  0
  146.8460   74.3100  219.2640 H   0  0  0  0  0  0  0  0  0  0  0  0
  145.9201   71.7444  217.4239 H   0  0  0  0  0  0  0  0  0  0  0  0
  143.6738   70.7972  217.0600 H   0  0  0  0  0  0  0  0  0  0  0  0
  141.7868   71.3108  218.6037 H   0  0  0  0  0  0  0  0  0  0  0  0
  141.0339   76.8518  220.9755 H   0  0  0  0  0  0  0  0  0  0  0  0
  139.8048   76.6695  219.6559 H   0  0  0  0  0  0  0  0  0  0  0  0
  139.8573   78.8396  221.1388 H   0  0  0  0  0  0  0  0  0  0  0  0
  138.2906   78.0558  220.6727 H   0  0  0  0  0  0  0  0  0  0  0  0
  139.7783   77.7353  223.2894 H   0  0  0  0  0  0  0  0  0  0  0  0
  138.3923   80.2997  221.5081 H   0  0  0  0  0  0  0  0  0  0  0  0
  137.1465   79.0895  221.2118 H   0  0  0  0  0  0  0  0  0  0  0  0
  136.0746   81.2767  221.8185 H   0  0  0  0  0  0  0  0  0  0  0  0
  135.7779   80.0983  223.1358 H   0  0  0  0  0  0  0  0  0  0  0  0
  137.9032   82.2775  223.0205 H   0  0  0  0  0  0  0  0  0  0  0  0
  136.4770   82.1480  224.1401 H   0  0  0  0  0  0  0  0  0  0  0  0
  138.7029   81.5469  225.1513 H   0  0  0  0  0  0  0  0  0  0  0  0
  137.4274   80.2955  225.2757 H   0  0  0  0  0  0  0  0  0  0  0  0
  139.6159   80.4131  223.1342 H   0  0  0  0  0  0  0  0  0  0  0  0
  139.6112   79.3162  224.5358 H   0  0  0  0  0  0  0  0  0  0  0  0
  138.5962   76.0553  223.8852 H   0  0  0  0  0  0  0  0  0  0  0  0
  137.0678   76.8002  223.2239 H   0  0  0  0  0  0  0  0  0  0  0  0
  137.8140   74.5516  222.2197 H   0  0  0  0  0  0  0  0  0  0  0  0
  137.3977   75.8523  221.0870 H   0  0  0  0  0  0  0  0  0  0  0  0
  138.2772   71.0369  223.9549 H   0  0  0  0  0  0  0  0  0  0  0  0
  139.0077   70.3923  222.4653 H   0  0  0  0  0  0  0  0  0  0  0  0
  138.6769   68.5801  224.1480 H   0  0  0  0  0  0  0  0  0  0  0  0
  140.4136   68.8273  223.8515 H   0  0  0  0  0  0  0  0  0  0  0  0
  138.4722   68.0346  226.4954 H   0  0  0  0  0  0  0  0  0  0  0  0
  138.8593   68.7166  228.8398 H   0  0  0  0  0  0  0  0  0  0  0  0
  140.2730   70.6744  229.3978 H   0  0  0  0  0  0  0  0  0  0  0  0
  141.3292   71.9866  227.5627 H   0  0  0  0  0  0  0  0  0  0  0  0
  141.2087   72.5485  225.2433 H   0  0  0  0  0  0  0  0  0  0  0  0
  142.0771   71.0488  224.6977 H   0  0  0  0  0  0  0  0  0  0  0  0
  144.4625   73.7810  220.9395 H   0  0  0  0  0  0  0  0  0  0  0  0
  1  2  1  0
  2  3  2  0
  3  4  1  0
  4  5  2  0
  5  6  1  0
  6  7  1  0
  7  8  2  0
  8  9  1  0
  9 10  1  0
 10 11  1  0
 11 12  1  0
 12 13  1  0
 13 14  1  0
 14 15  1  0
 15 16  1  0
 16 17  1  0
 17 18  1  0
 18 19  1  0
 13 20  1  0
 20 21  1  0
  9 22  2  0
 22 23  1  0
 23 24  1  0
 24 25  1  0
 25 26  1  0
 26 27  1  0
 27 28  2  0
 28 29  1  0
 29 30  2  0
 30 31  1  0
 31 32  2  0
 32 33  1  0
 23 34  2  0
  6 35  2  0
 35  2  1  0
 34  7  1  0
 21 10  1  0
 33 24  1  0
 19 14  1  0
 32 27  1  0
  1 36  1  0
  3 37  1  0
  4 38  1  0
  5 39  1  0
 11 40  1  0
 11 41  1  0
 12 42  1  0
 12 43  1  0
 13 44  1  0
 15 45  1  0
 15 46  1  0
 16 47  1  0
 16 48  1  0
 17 49  1  0
 17 50  1  0
 18 51  1  0
 18 52  1  0
 19 53  1  0
 19 54  1  0
 20 55  1  0
 20 56  1  0
 21 57  1  0
 21 58  1  0
 25 59  1  0
 25 60  1  0
 26 61  1  0
 26 62  1  0
 28 63  1  0
 29 64  1  0
 30 65  1  0
 31 66  1  0
 33 67  1  0
 33 68  1  0
 35 69  1  0
M  END
>  <smiles>  (41) 
Oc1cccc(-c2nc(N3CCC(N4CCCCC4)CC3)nc(N3CCc4ccccc4C3)n2)c1

>  <score_type>  (41) 
oracle

>  <origin>  (41) 
autodockgpu

>  <m_score__min__energy>  (41) 
-9.6799999999999997

>  <m_primary>  (41) 
energy

>  <rmsd>  (41) 
6.4873890721429

>  <m_score__min__rmsd>  (41) 
6.4873890721429

>  <meeko>  (41) 
{"free_energy": -9.34, "intermolecular_energy": -10.83, "internal_energy": -1.16, "cluster_size": 35, "cluster_id": 1, "rank_in_cluster": 22}

>  <energy>  (41) 
-8.84

>  <cluster_rmsd>  (41) 
0.07

>  <cluster>  (41) 
2

$$$$

     RDKit          3D

 69 74  0  0  0  0  0  0  0  0999 V2000
  146.3140   73.0790  218.5920 O   0  0  0  0  0  0  0  0  0  0  0  0
  145.1030   72.4210  218.7560 C   0  0  0  0  0  0  0  0  0  0  0  0
  144.8900   71.2820  217.9820 C   0  0  0  0  0  0  0  0  0  0  0  0
  143.7030   70.5940  218.1100 C   0  0  0  0  0  0  0  0  0  0  0  0
  142.7090   70.9940  218.9820 C   0  0  0  0  0  0  0  0  0  0  0  0
  142.9610   72.1270  219.7290 C   0  0  0  0  0  0  0  0  0  0  0  0
  141.9400   72.5880  220.6650 C   0  0  0  0  0  0  0  0  0  0  0  0
  141.3300   73.7770  220.4830 N   0  0  0  0  0  0  0  0  0  0  0  0
  140.3850   74.2290  221.3290 C   0  0  0  0  0  0  0  0  0  0  0  0
  139.7170   75.4570  221.1910 N   0  0  0  0  0  0  0  0  0  0  0  0
  140.3650   76.6620  220.7140 C   0  0  0  0  0  0  0  0  0  0  0  0
  139.6460   77.9070  221.1910 C   0  0  0  0  0  0  0  0  0  0  0  0
  139.0800   77.7280  222.5760 C   0  0  0  0  0  0  0  0  0  0  0  0
  138.3690   78.9260  222.9400 N   0  0  0  0  0  0  0  0  0  0  0  0
  138.0800   79.7860  221.8080 C   0  0  0  0  0  0  0  0  0  0  0  0
  137.0420   80.7850  222.3350 C   0  0  0  0  0  0  0  0  0  0  0  0
  137.6630   81.5920  223.4480 C   0  0  0  0  0  0  0  0  0  0  0  0
  138.2860   80.7240  224.5020 C   0  0  0  0  0  0  0  0  0  0  0  0
  139.1930   79.7200  223.8320 C   0  0  0  0  0  0  0  0  0  0  0  0
  138.2240   76.5060  222.7260 C   0  0  0  0  0  0  0  0  0  0  0  0
  138.3000   75.5760  221.5320 C   0  0  0  0  0  0  0  0  0  0  0  0
  140.0590   73.4480  222.3830 N   0  0  0  0  0  0  0  0  0  0  0  0
  140.6350   72.2560  222.6120 C   0  0  0  0  0  0  0  0  0  0  0  0
  140.2600   71.4670  223.7330 N   0  0  0  0  0  0  0  0  0  0  0  0
  139.0550   70.6690  223.6200 C   0  0  0  0  0  0  0  0  0  0  0  0
  139.2860   69.3960  224.4070 C   0  0  0  0  0  0  0  0  0  0  0  0
  139.5340   69.7930  225.8180 C   0  0  0  0  0  0  0  0  0  0  0  0
  138.9150   69.1670  226.8900 C   0  0  0  0  0  0  0  0  0  0  0  0
  139.2010   69.5980  228.1700 C   0  0  0  0  0  0  0  0  0  0  0  0
  140.0880   70.6380  228.4160 C   0  0  0  0  0  0  0  0  0  0  0  0
  140.7030   71.2610  227.3560 C   0  0  0  0  0  0  0  0  0  0  0  0
  140.4140   70.8270  226.0630 C   0  0  0  0  0  0  0  0  0  0  0  0
  141.0730   71.4930  224.9150 C   0  0  0  0  0  0  0  0  0  0  0  0
  141.5730   71.8550  221.7320 N   0  0  0  0  0  0  0  0  0  0  0  0
  144.1330   72.8490  219.6370 C   0  0  0  0  0  0  0  0  0  0  0  0
  146.3920   74.0720  218.3840 H   0  0  0  0  0  0  0  0  0  0  0  0
  145.6604   70.9362  217.2771 H   0  0  0  0  0  0  0  0  0  0  0  0
  143.5413   69.6953  217.4967 H   0  0  0  0  0  0  0  0  0  0  0  0
  141.7646   70.4378  219.0762 H   0  0  0  0  0  0  0  0  0  0  0  0
  141.3998   76.6824  221.0865 H   0  0  0  0  0  0  0  0  0  0  0  0
  140.3439   76.6521  219.6143 H   0  0  0  0  0  0  0  0  0  0  0  0
  140.3565   78.7467  221.2021 H   0  0  0  0  0  0  0  0  0  0  0  0
  138.8113   78.1057  220.5027 H   0  0  0  0  0  0  0  0  0  0  0  0
  139.9201   77.5623  223.2665 H   0  0  0  0  0  0  0  0  0  0  0  0
  138.9888   80.3093  221.4761 H   0  0  0  0  0  0  0  0  0  0  0  0
  137.7113   79.2213  220.9390 H   0  0  0  0  0  0  0  0  0  0  0  0
  136.7295   81.4565  221.5218 H   0  0  0  0  0  0  0  0  0  0  0  0
  136.1618   80.2441  222.7127 H   0  0  0  0  0  0  0  0  0  0  0  0
  138.4400   82.2434  223.0215 H   0  0  0  0  0  0  0  0  0  0  0  0
  136.8638   82.1787  223.9245 H   0  0  0  0  0  0  0  0  0  0  0  0
  138.8713   81.3463  225.1949 H   0  0  0  0  0  0  0  0  0  0  0  0
  137.5008   80.1999  225.0666 H   0  0  0  0  0  0  0  0  0  0  0  0
  139.9743   80.2412  223.2594 H   0  0  0  0  0  0  0  0  0  0  0  0
  139.6878   79.0814  224.5786 H   0  0  0  0  0  0  0  0  0  0  0  0
  138.5532   75.9557  223.6197 H   0  0  0  0  0  0  0  0  0  0  0  0
  137.1810   76.8450  222.8115 H   0  0  0  0  0  0  0  0  0  0  0  0
  137.8869   74.5899  221.7909 H   0  0  0  0  0  0  0  0  0  0  0  0
  137.7173   75.9665  220.6846 H   0  0  0  0  0  0  0  0  0  0  0  0
  138.1981   71.2192  224.0361 H   0  0  0  0  0  0  0  0  0  0  0  0
  138.8339   70.4423  222.5665 H   0  0  0  0  0  0  0  0  0  0  0  0
  138.3982   68.7493  224.3475 H   0  0  0  0  0  0  0  0  0  0  0  0
  140.1413   68.8353  224.0021 H   0  0  0  0  0  0  0  0  0  0  0  0
  138.2080   68.3410  226.7230 H   0  0  0  0  0  0  0  0  0  0  0  0
  138.7113   69.1024  229.0212 H   0  0  0  0  0  0  0  0  0  0  0  0
  140.2960   70.9595  229.4472 H   0  0  0  0  0  0  0  0  0  0  0  0
  141.4100   72.0866  227.5249 H   0  0  0  0  0  0  0  0  0  0  0  0
  141.2761   72.5406  225.1822 H   0  0  0  0  0  0  0  0  0  0  0  0
  142.0031   70.9476  224.6969 H   0  0  0  0  0  0  0  0  0  0  0  0
  144.2900   73.7466  220.2532 H   0  0  0  0  0  0  0  0  0  0  0  0
  1  2  1  0
  2  3  2  0
  3  4  1  0
  4  5  2  0
  5  6  1  0
  6  7  1  0
  7  8  2  0
  8  9  1  0
  9 10  1  0
 10 11  1  0
 11 12  1  0
 12 13  1  0
 13 14  1  0
 14 15  1  0
 15 16  1  0
 16 17  1  0
 17 18  1  0
 18 19  1  0
 13 20  1  0
 20 21  1  0
  9 22  2  0
 22 23  1  0
 23 24  1  0
 24 25  1  0
 25 26  1  0
 26 27  1  0
 27 28  2  0
 28 29  1  0
 29 30  2  0
 30 31  1  0
 31 32  2  0
 32 33  1  0
 23 34  2  0
  6 35  2  0
 35  2  1  0
 34  7  1  0
 21 10  1  0
 33 24  1  0
 19 14  1  0
 32 27  1  0
  1 36  1  0
  3 37  1  0
  4 38  1  0
  5 39  1  0
 11 40  1  0
 11 41  1  0
 12 42  1  0
 12 43  1  0
 13 44  1  0
 15 45  1  0
 15 46  1  0
 16 47  1  0
 16 48  1  0
 17 49  1  0
 17 50  1  0
 18 51  1  0
 18 52  1  0
 19 53  1  0
 19 54  1  0
 20 55  1  0
 20 56  1  0
 21 57  1  0
 21 58  1  0
 25 59  1  0
 25 60  1  0
 26 61  1  0
 26 62  1  0
 28 63  1  0
 29 64  1  0
 30 65  1  0
 31 66  1  0
 33 67  1  0
 33 68  1  0
 35 69  1  0
M  END
>  <smiles>  (42) 
Oc1cccc(-c2nc(N3CCC(N4CCCCC4)CC3)nc(N3CCc4ccccc4C3)n2)c1

>  <score_type>  (42) 
oracle

>  <origin>  (42) 
autodockgpu

>  <m_score__min__energy>  (42) 
-9.6799999999999997

>  <m_primary>  (42) 
energy

>  <rmsd>  (42) 
6.341578691816075

>  <m_score__min__rmsd>  (42) 
6.341578691816075

>  <meeko>  (42) 
{"free_energy": -9.44, "intermolecular_energy": -10.93, "internal_energy": -1.16, "cluster_size": 35, "cluster_id": 1, "rank_in_cluster": 13}

>  <energy>  (42) 
-8.84

>  <cluster_rmsd>  (42) 
0.07

>  <cluster>  (42) 
2

$$$$

     RDKit          3D

 69 74  0  0  0  0  0  0  0  0999 V2000
  143.9910   80.4970  223.0840 O   0  0  0  0  0  0  0  0  0  0  0  0
  142.6170   80.3030  223.1470 C   0  0  0  0  0  0  0  0  0  0  0  0
  141.8350   81.4060  223.4800 C   0  0  0  0  0  0  0  0  0  0  0  0
  140.4670   81.2640  223.5540 C   0  0  0  0  0  0  0  0  0  0  0  0
  139.8370   80.0580  223.3090 C   0  0  0  0  0  0  0  0  0  0  0  0
  140.6490   78.9910  222.9830 C   0  0  0  0  0  0  0  0  0  0  0  0
  140.0290   77.6970  222.7150 C   0  0  0  0  0  0  0  0  0  0  0  0
  138.7160   77.5040  222.9520 N   0  0  0  0  0  0  0  0  0  0  0  0
  138.1160   76.3210  222.7140 C   0  0  0  0  0  0  0  0  0  0  0  0
  136.7550   76.0610  222.9410 N   0  0  0  0  0  0  0  0  0  0  0  0
  135.7900   77.0990  223.2430 C   0  0  0  0  0  0  0  0  0  0  0  0
  134.5920   76.5470  223.9890 C   0  0  0  0  0  0  0  0  0  0  0  0
  134.9850   75.4390  224.9320 C   0  0  0  0  0  0  0  0  0  0  0  0
  133.7960   74.9290  225.5620 N   0  0  0  0  0  0  0  0  0  0  0  0
  133.4480   75.6320  226.7820 C   0  0  0  0  0  0  0  0  0  0  0  0
  132.0100   75.1930  227.0870 C   0  0  0  0  0  0  0  0  0  0  0  0
  131.9950   73.7050  227.3300 C   0  0  0  0  0  0  0  0  0  0  0  0
  132.6620   72.9390  226.2240 C   0  0  0  0  0  0  0  0  0  0  0  0
  134.0160   73.5500  225.9570 C   0  0  0  0  0  0  0  0  0  0  0  0
  135.7830   74.3480  224.2830 C   0  0  0  0  0  0  0  0  0  0  0  0
  136.2380   74.6950  222.8810 C   0  0  0  0  0  0  0  0  0  0  0  0
  138.8770   75.3170  222.2250 N   0  0  0  0  0  0  0  0  0  0  0  0
  140.1890   75.4550  221.9710 C   0  0  0  0  0  0  0  0  0  0  0  0
  140.9510   74.3720  221.4550 N   0  0  0  0  0  0  0  0  0  0  0  0
  140.4750   73.0290  221.7200 C   0  0  0  0  0  0  0  0  0  0  0  0
  140.8190   72.1850  220.5110 C   0  0  0  0  0  0  0  0  0  0  0  0
  142.2990   72.2100  220.3670 C   0  0  0  0  0  0  0  0  0  0  0  0
  143.0460   71.0620  220.1410 C   0  0  0  0  0  0  0  0  0  0  0  0
  144.4170   71.1740  220.0200 C   0  0  0  0  0  0  0  0  0  0  0  0
  145.0690   72.3960  220.1180 C   0  0  0  0  0  0  0  0  0  0  0  0
  144.3300   73.5340  220.3420 C   0  0  0  0  0  0  0  0  0  0  0  0
  142.9460   73.4240  220.4650 C   0  0  0  0  0  0  0  0  0  0  0  0
  142.1440   74.6460  220.7060 C   0  0  0  0  0  0  0  0  0  0  0  0
  140.7340   76.6610  222.2270 N   0  0  0  0  0  0  0  0  0  0  0  0
  142.0230   79.0840  222.8960 C   0  0  0  0  0  0  0  0  0  0  0  0
  144.5930   80.0400  222.4050 H   0  0  0  0  0  0  0  0  0  0  0  0
  142.3046   82.3800  223.6817 H   0  0  0  0  0  0  0  0  0  0  0  0
  139.8552   82.1395  223.8169 H   0  0  0  0  0  0  0  0  0  0  0  0
  138.7437   79.9543  223.3708 H   0  0  0  0  0  0  0  0  0  0  0  0
  136.2744   77.8670  223.8640 H   0  0  0  0  0  0  0  0  0  0  0  0
  135.4366   77.5271  222.2933 H   0  0  0  0  0  0  0  0  0  0  0  0
  134.1269   77.3590  224.5671 H   0  0  0  0  0  0  0  0  0  0  0  0
  133.8880   76.1355  223.2507 H   0  0  0  0  0  0  0  0  0  0  0  0
  135.6617   75.8620  225.6891 H   0  0  0  0  0  0  0  0  0  0  0  0
  134.1234   75.3449  227.6014 H   0  0  0  0  0  0  0  0  0  0  0  0
  133.5362   76.7231  226.6735 H   0  0  0  0  0  0  0  0  0  0  0  0
  131.6460   75.7172  227.9830 H   0  0  0  0  0  0  0  0  0  0  0  0
  131.3570   75.4384  226.2365 H   0  0  0  0  0  0  0  0  0  0  0  0
  132.5216   73.4954  228.2727 H   0  0  0  0  0  0  0  0  0  0  0  0
  130.9443   73.3826  227.3758 H   0  0  0  0  0  0  0  0  0  0  0  0
  132.7834   71.8876  226.5235 H   0  0  0  0  0  0  0  0  0  0  0  0
  132.0458   72.9838  225.3139 H   0  0  0  0  0  0  0  0  0  0  0  0
  134.6321   73.5128  226.8675 H   0  0  0  0  0  0  0  0  0  0  0  0
  134.5438   72.9974  225.1658 H   0  0  0  0  0  0  0  0  0  0  0  0
  136.6719   74.1505  224.9002 H   0  0  0  0  0  0  0  0  0  0  0  0
  135.1294   73.4666  224.2058 H   0  0  0  0  0  0  0  0  0  0  0  0
  137.0286   74.0030  222.5554 H   0  0  0  0  0  0  0  0  0  0  0  0
  135.4101   74.6133  222.1614 H   0  0  0  0  0  0  0  0  0  0  0  0
  140.9692   72.6239  222.6153 H   0  0  0  0  0  0  0  0  0  0  0  0
  139.3900   73.0280  221.9008 H   0  0  0  0  0  0  0  0  0  0  0  0
  140.4719   71.1520  220.6608 H   0  0  0  0  0  0  0  0  0  0  0  0
  140.3310   72.5785  219.6071 H   0  0  0  0  0  0  0  0  0  0  0  0
  142.5548   70.0811  220.0598 H   0  0  0  0  0  0  0  0  0  0  0  0
  145.0116   70.2662  219.8402 H   0  0  0  0  0  0  0  0  0  0  0  0
  146.1629   72.4531  220.0177 H   0  0  0  0  0  0  0  0  0  0  0  0
  144.8227   74.5142  220.4227 H   0  0  0  0  0  0  0  0  0  0  0  0
  142.7567   75.3671  221.2669 H   0  0  0  0  0  0  0  0  0  0  0  0
  141.8436   75.0512  219.7285 H   0  0  0  0  0  0  0  0  0  0  0  0
  142.6307   78.2058  222.6324 H   0  0  0  0  0  0  0  0  0  0  0  0
  1  2  1  0
  2  3  2  0
  3  4  1  0
  4  5  2  0
  5  6  1  0
  6  7  1  0
  7  8  2  0
  8  9  1  0
  9 10  1  0
 10 11  1  0
 11 12  1  0
 12 13  1  0
 13 14  1  0
 14 15  1  0
 15 16  1  0
 16 17  1  0
 17 18  1  0
 18 19  1  0
 13 20  1  0
 20 21  1  0
  9 22  2  0
 22 23  1  0
 23 24  1  0
 24 25  1  0
 25 26  1  0
 26 27  1  0
 27 28  2  0
 28 29  1  0
 29 30  2  0
 30 31  1  0
 31 32  2  0
 32 33  1  0
 23 34  2  0
  6 35  2  0
 35  2  1  0
 34  7  1  0
 21 10  1  0
 33 24  1  0
 19 14  1  0
 32 27  1  0
  1 36  1  0
  3 37  1  0
  4 38  1  0
  5 39  1  0
 11 40  1  0
 11 41  1  0
 12 42  1  0
 12 43  1  0
 13 44  1  0
 15 45  1  0
 15 46  1  0
 16 47  1  0
 16 48  1  0
 17 49  1  0
 17 50  1  0
 18 51  1  0
 18 52  1  0
 19 53  1  0
 19 54  1  0
 20 55  1  0
 20 56  1  0
 21 57  1  0
 21 58  1  0
 25 59  1  0
 25 60  1  0
 26 61  1  0
 26 62  1  0
 28 63  1  0
 29 64  1  0
 30 65  1  0
 31 66  1  0
 33 67  1  0
 33 68  1  0
 35 69  1  0
M  END
>  <smiles>  (43) 
Oc1cccc(-c2nc(N3CCC(N4CCCCC4)CC3)nc(N3CCc4ccccc4C3)n2)c1

>  <score_type>  (43) 
oracle

>  <origin>  (43) 
autodockgpu

>  <m_score__min__energy>  (43) 
-9.6799999999999997

>  <m_primary>  (43) 
energy

>  <rmsd>  (43) 
10.222409622363884

>  <m_score__min__rmsd>  (43) 
10.222409622363884

>  <meeko>  (43) 
{"free_energy": -8.85, "intermolecular_energy": -10.34, "internal_energy": -1.18, "cluster_size": 13, "cluster_id": 2, "rank_in_cluster": 1}

>  <energy>  (43) 
-8.83

>  <cluster_rmsd>  (43) 
0.13

>  <cluster>  (43) 
2

$$$$

     RDKit          3D

 69 74  0  0  0  0  0  0  0  0999 V2000
  144.0090   80.4860  223.0800 O   0  0  0  0  0  0  0  0  0  0  0  0
  142.6350   80.2930  223.1390 C   0  0  0  0  0  0  0  0  0  0  0  0
  141.8540   81.3970  223.4720 C   0  0  0  0  0  0  0  0  0  0  0  0
  140.4850   81.2550  223.5430 C   0  0  0  0  0  0  0  0  0  0  0  0
  139.8550   80.0500  223.2960 C   0  0  0  0  0  0  0  0  0  0  0  0
  140.6660   78.9830  222.9720 C   0  0  0  0  0  0  0  0  0  0  0  0
  140.0460   77.6890  222.7020 C   0  0  0  0  0  0  0  0  0  0  0  0
  138.7330   77.4950  222.9400 N   0  0  0  0  0  0  0  0  0  0  0  0
  138.1340   76.3130  222.7000 C   0  0  0  0  0  0  0  0  0  0  0  0
  136.7720   76.0530  222.9280 N   0  0  0  0  0  0  0  0  0  0  0  0
  135.8020   77.0940  223.2030 C   0  0  0  0  0  0  0  0  0  0  0  0
  134.6040   76.5540  223.9560 C   0  0  0  0  0  0  0  0  0  0  0  0
  134.9970   75.4690  224.9250 C   0  0  0  0  0  0  0  0  0  0  0  0
  133.8070   74.9680  225.5620 N   0  0  0  0  0  0  0  0  0  0  0  0
  133.4970   75.6460  226.8060 C   0  0  0  0  0  0  0  0  0  0  0  0
  132.0550   75.2310  227.1250 C   0  0  0  0  0  0  0  0  0  0  0  0
  132.0100   73.7370  227.3290 C   0  0  0  0  0  0  0  0  0  0  0  0
  132.6400   72.9870  226.1910 C   0  0  0  0  0  0  0  0  0  0  0  0
  134.0030   73.5750  225.9170 C   0  0  0  0  0  0  0  0  0  0  0  0
  135.8020   74.3660  224.3050 C   0  0  0  0  0  0  0  0  0  0  0  0
  136.2610   74.6830  222.8960 C   0  0  0  0  0  0  0  0  0  0  0  0
  138.8940   75.3100  222.2080 N   0  0  0  0  0  0  0  0  0  0  0  0
  140.2060   75.4480  221.9540 C   0  0  0  0  0  0  0  0  0  0  0  0
  140.9670   74.3660  221.4350 N   0  0  0  0  0  0  0  0  0  0  0  0
  140.4930   73.0220  221.7000 C   0  0  0  0  0  0  0  0  0  0  0  0
  140.8340   72.1790  220.4890 C   0  0  0  0  0  0  0  0  0  0  0  0
  142.3140   72.2050  220.3420 C   0  0  0  0  0  0  0  0  0  0  0  0
  143.0610   71.0590  220.1130 C   0  0  0  0  0  0  0  0  0  0  0  0
  144.4310   71.1710  219.9900 C   0  0  0  0  0  0  0  0  0  0  0  0
  145.0830   72.3940  220.0860 C   0  0  0  0  0  0  0  0  0  0  0  0
  144.3440   73.5310  220.3130 C   0  0  0  0  0  0  0  0  0  0  0  0
  142.9600   73.4200  220.4390 C   0  0  0  0  0  0  0  0  0  0  0  0
  142.1580   74.6410  220.6830 C   0  0  0  0  0  0  0  0  0  0  0  0
  140.7510   76.6530  222.2120 N   0  0  0  0  0  0  0  0  0  0  0  0
  142.0410   79.0750  222.8870 C   0  0  0  0  0  0  0  0  0  0  0  0
  144.6100   80.0480  222.3860 H   0  0  0  0  0  0  0  0  0  0  0  0
  142.3241   82.3704  223.6758 H   0  0  0  0  0  0  0  0  0  0  0  0
  139.8729   82.1306  223.8052 H   0  0  0  0  0  0  0  0  0  0  0  0
  138.7614   79.9473  223.3549 H   0  0  0  0  0  0  0  0  0  0  0  0
  136.2810   77.8774  223.8086 H   0  0  0  0  0  0  0  0  0  0  0  0
  135.4509   77.4999  222.2428 H   0  0  0  0  0  0  0  0  0  0  0  0
  134.1333   77.3768  224.5140 H   0  0  0  0  0  0  0  0  0  0  0  0
  133.9049   76.1231  223.2241 H   0  0  0  0  0  0  0  0  0  0  0  0
  135.6690   75.9126  225.6745 H   0  0  0  0  0  0  0  0  0  0  0  0
  134.1799   75.3222  227.6052 H   0  0  0  0  0  0  0  0  0  0  0  0
  133.6084   76.7373  226.7249 H   0  0  0  0  0  0  0  0  0  0  0  0
  131.7186   75.7390  228.0409 H   0  0  0  0  0  0  0  0  0  0  0  0
  131.3932   75.5135  226.2930 H   0  0  0  0  0  0  0  0  0  0  0  0
  132.5481   73.4903  228.2561 H   0  0  0  0  0  0  0  0  0  0  0  0
  130.9532   73.4369  227.3856 H   0  0  0  0  0  0  0  0  0  0  0  0
  132.7425   71.9252  226.4596 H   0  0  0  0  0  0  0  0  0  0  0  0
  132.0094   73.0704  225.2935 H   0  0  0  0  0  0  0  0  0  0  0  0
  134.6330   73.5003  226.8156 H   0  0  0  0  0  0  0  0  0  0  0  0
  134.5055   73.0320  225.1030 H   0  0  0  0  0  0  0  0  0  0  0  0
  136.6893   74.1866  224.9299 H   0  0  0  0  0  0  0  0  0  0  0  0
  135.1528   73.4800  224.2463 H   0  0  0  0  0  0  0  0  0  0  0  0
  137.0558   73.9873  222.5890 H   0  0  0  0  0  0  0  0  0  0  0  0
  135.4365   74.5811  222.1750 H   0  0  0  0  0  0  0  0  0  0  0  0
  140.9903   72.6165  222.5934 H   0  0  0  0  0  0  0  0  0  0  0  0
  139.4085   73.0200  221.8838 H   0  0  0  0  0  0  0  0  0  0  0  0
  140.4876   71.1457  220.6386 H   0  0  0  0  0  0  0  0  0  0  0  0
  140.3435   72.5728  219.5866 H   0  0  0  0  0  0  0  0  0  0  0  0
  142.5701   70.0781  220.0309 H   0  0  0  0  0  0  0  0  0  0  0  0
  145.0256   70.2632  219.8103 H   0  0  0  0  0  0  0  0  0  0  0  0
  146.1765   72.4520  219.9817 H   0  0  0  0  0  0  0  0  0  0  0  0
  144.8363   74.5114  220.3938 H   0  0  0  0  0  0  0  0  0  0  0  0
  142.7718   75.3620  221.2428 H   0  0  0  0  0  0  0  0  0  0  0  0
  141.8547   75.0466  219.7065 H   0  0  0  0  0  0  0  0  0  0  0  0
  142.6485   78.1964  222.6242 H   0  0  0  0  0  0  0  0  0  0  0  0
  1  2  1  0
  2  3  2  0
  3  4  1  0
  4  5  2  0
  5  6  1  0
  6  7  1  0
  7  8  2  0
  8  9  1  0
  9 10  1  0
 10 11  1  0
 11 12  1  0
 12 13  1  0
 13 14  1  0
 14 15  1  0
 15 16  1  0
 16 17  1  0
 17 18  1  0
 18 19  1  0
 13 20  1  0
 20 21  1  0
  9 22  2  0
 22 23  1  0
 23 24  1  0
 24 25  1  0
 25 26  1  0
 26 27  1  0
 27 28  2  0
 28 29  1  0
 29 30  2  0
 30 31  1  0
 31 32  2  0
 32 33  1  0
 23 34  2  0
  6 35  2  0
 35  2  1  0
 34  7  1  0
 21 10  1  0
 33 24  1  0
 19 14  1  0
 32 27  1  0
  1 36  1  0
  3 37  1  0
  4 38  1  0
  5 39  1  0
 11 40  1  0
 11 41  1  0
 12 42  1  0
 12 43  1  0
 13 44  1  0
 15 45  1  0
 15 46  1  0
 16 47  1  0
 16 48  1  0
 17 49  1  0
 17 50  1  0
 18 51  1  0
 18 52  1  0
 19 53  1  0
 19 54  1  0
 20 55  1  0
 20 56  1  0
 21 57  1  0
 21 58  1  0
 25 59  1  0
 25 60  1  0
 26 61  1  0
 26 62  1  0
 28 63  1  0
 29 64  1  0
 30 65  1  0
 31 66  1  0
 33 67  1  0
 33 68  1  0
 35 69  1  0
M  END
>  <smiles>  (44) 
Oc1cccc(-c2nc(N3CCC(N4CCCCC4)CC3)nc(N3CCc4ccccc4C3)n2)c1

>  <score_type>  (44) 
oracle

>  <origin>  (44) 
autodockgpu

>  <m_score__min__energy>  (44) 
-9.6799999999999997

>  <m_primary>  (44) 
energy

>  <rmsd>  (44) 
10.196653701590161

>  <m_score__min__rmsd>  (44) 
10.196653701590161

>  <meeko>  (44) 
{"free_energy": -8.85, "intermolecular_energy": -10.34, "internal_energy": -1.18, "cluster_size": 13, "cluster_id": 2, "rank_in_cluster": 2}

>  <energy>  (44) 
-8.83

>  <cluster_rmsd>  (44) 
0.07

>  <cluster>  (44) 
2

$$$$

     RDKit          3D

 69 74  0  0  0  0  0  0  0  0999 V2000
  146.3190   73.0260  218.6720 O   0  0  0  0  0  0  0  0  0  0  0  0
  145.0710   72.4210  218.7420 C   0  0  0  0  0  0  0  0  0  0  0  0
  144.8260   71.3690  217.8630 C   0  0  0  0  0  0  0  0  0  0  0  0
  143.6030   70.7360  217.8950 C   0  0  0  0  0  0  0  0  0  0  0  0
  142.6030   71.1080  218.7720 C   0  0  0  0  0  0  0  0  0  0  0  0
  142.8870   72.1550  219.6250 C   0  0  0  0  0  0  0  0  0  0  0  0
  141.8620   72.5850  220.5710 C   0  0  0  0  0  0  0  0  0  0  0  0
  141.2050   73.7490  220.3890 N   0  0  0  0  0  0  0  0  0  0  0  0
  140.2540   74.1710  221.2440 C   0  0  0  0  0  0  0  0  0  0  0  0
  139.5380   75.3710  221.1060 N   0  0  0  0  0  0  0  0  0  0  0  0
  140.0300   76.5040  220.3490 C   0  0  0  0  0  0  0  0  0  0  0  0
  139.4010   77.8010  220.8140 C   0  0  0  0  0  0  0  0  0  0  0  0
  139.1600   77.8020  222.3010 C   0  0  0  0  0  0  0  0  0  0  0  0
  138.5140   79.0370  222.6620 N   0  0  0  0  0  0  0  0  0  0  0  0
  139.0930   79.6640  223.8340 C   0  0  0  0  0  0  0  0  0  0  0  0
  138.5240   81.0890  223.8340 C   0  0  0  0  0  0  0  0  0  0  0  0
  137.0250   81.0160  223.9780 C   0  0  0  0  0  0  0  0  0  0  0  0
  136.3990   80.0920  222.9740 C   0  0  0  0  0  0  0  0  0  0  0  0
  137.1300   78.7710  223.0070 C   0  0  0  0  0  0  0  0  0  0  0  0
  138.3930   76.6090  222.7900 C   0  0  0  0  0  0  0  0  0  0  0  0
  138.2290   75.5340  221.7360 C   0  0  0  0  0  0  0  0  0  0  0  0
  139.9710   73.3860  222.3070 N   0  0  0  0  0  0  0  0  0  0  0  0
  140.5940   72.2180  222.5370 C   0  0  0  0  0  0  0  0  0  0  0  0
  140.2630   71.4240  223.6680 N   0  0  0  0  0  0  0  0  0  0  0  0
  139.1120   70.5500  223.5620 C   0  0  0  0  0  0  0  0  0  0  0  0
  139.4180   69.3060  224.3690 C   0  0  0  0  0  0  0  0  0  0  0  0
  139.6330   69.7390  225.7750 C   0  0  0  0  0  0  0  0  0  0  0  0
  139.0480   69.0910  226.8540 C   0  0  0  0  0  0  0  0  0  0  0  0
  139.3000   69.5590  228.1280 C   0  0  0  0  0  0  0  0  0  0  0  0
  140.1180   70.6570  228.3630 C   0  0  0  0  0  0  0  0  0  0  0  0
  140.6980   71.3000  227.2950 C   0  0  0  0  0  0  0  0  0  0  0  0
  140.4450   70.8290  226.0080 C   0  0  0  0  0  0  0  0  0  0  0  0
  141.0670   71.5190  224.8530 C   0  0  0  0  0  0  0  0  0  0  0  0
  141.5350   71.8470  221.6470 N   0  0  0  0  0  0  0  0  0  0  0  0
  144.0970   72.8200  219.6320 C   0  0  0  0  0  0  0  0  0  0  0  0
  146.4550   74.0340  218.6460 H   0  0  0  0  0  0  0  0  0  0  0  0
  145.6004   71.0472  217.1512 H   0  0  0  0  0  0  0  0  0  0  0  0
  143.4164   69.9057  217.1981 H   0  0  0  0  0  0  0  0  0  0  0  0
  141.6297   70.5958  218.7897 H   0  0  0  0  0  0  0  0  0  0  0  0
  141.1207   76.5709  220.4750 H   0  0  0  0  0  0  0  0  0  0  0  0
  139.7651   76.3527  219.2921 H   0  0  0  0  0  0  0  0  0  0  0  0
  140.0736   78.6340  220.5614 H   0  0  0  0  0  0  0  0  0  0  0  0
  138.4299   77.9113  220.3093 H   0  0  0  0  0  0  0  0  0  0  0  0
  140.1364   77.7264  222.8019 H   0  0  0  0  0  0  0  0  0  0  0  0
  138.7963   79.1277  224.7474 H   0  0  0  0  0  0  0  0  0  0  0  0
  140.1927   79.6548  223.8107 H   0  0  0  0  0  0  0  0  0  0  0  0
  138.9486   81.6562  224.6754 H   0  0  0  0  0  0  0  0  0  0  0  0
  138.7839   81.5942  222.8921 H   0  0  0  0  0  0  0  0  0  0  0  0
  136.7842   80.6551  224.9888 H   0  0  0  0  0  0  0  0  0  0  0  0
  136.6214   82.0243  223.8038 H   0  0  0  0  0  0  0  0  0  0  0  0
  135.3398   79.9349  223.2260 H   0  0  0  0  0  0  0  0  0  0  0  0
  136.4666   80.5318  221.9680 H   0  0  0  0  0  0  0  0  0  0  0  0
  137.0703   78.3325  224.0140 H   0  0  0  0  0  0  0  0  0  0  0  0
  136.6813   78.0589  222.2988 H   0  0  0  0  0  0  0  0  0  0  0  0
  138.9273   76.1778  223.6494 H   0  0  0  0  0  0  0  0  0  0  0  0
  137.3857   76.9566  223.0628 H   0  0  0  0  0  0  0  0  0  0  0  0
  137.9107   74.5897  222.2019 H   0  0  0  0  0  0  0  0  0  0  0  0
  137.4629   75.8129  220.9976 H   0  0  0  0  0  0  0  0  0  0  0  0
  138.2199   71.0511  223.9658 H   0  0  0  0  0  0  0  0  0  0  0  0
  138.9118   70.2940  222.5111 H   0  0  0  0  0  0  0  0  0  0  0  0
  138.5728   68.6041  224.3154 H   0  0  0  0  0  0  0  0  0  0  0  0
  140.3089   68.7939  223.9764 H   0  0  0  0  0  0  0  0  0  0  0  0
  138.3951   68.2198  226.6967 H   0  0  0  0  0  0  0  0  0  0  0  0
  138.8383   69.0461  228.9846 H   0  0  0  0  0  0  0  0  0  0  0  0
  140.2993   71.0073  229.3899 H   0  0  0  0  0  0  0  0  0  0  0  0
  141.3505   72.1712  227.4537 H   0  0  0  0  0  0  0  0  0  0  0  0
  141.2019   72.5811  225.1054 H   0  0  0  0  0  0  0  0  0  0  0  0
  142.0311   71.0311  224.6471 H   0  0  0  0  0  0  0  0  0  0  0  0
  144.2795   73.6490  220.3316 H   0  0  0  0  0  0  0  0  0  0  0  0
  1  2  1  0
  2  3  2  0
  3  4  1  0
  4  5  2  0
  5  6  1  0
  6  7  1  0
  7  8  2  0
  8  9  1  0
  9 10  1  0
 10 11  1  0
 11 12  1  0
 12 13  1  0
 13 14  1  0
 14 15  1  0
 15 16  1  0
 16 17  1  0
 17 18  1  0
 18 19  1  0
 13 20  1  0
 20 21  1  0
  9 22  2  0
 22 23  1  0
 23 24  1  0
 24 25  1  0
 25 26  1  0
 26 27  1  0
 27 28  2  0
 28 29  1  0
 29 30  2  0
 30 31  1  0
 31 32  2  0
 32 33  1  0
 23 34  2  0
  6 35  2  0
 35  2  1  0
 34  7  1  0
 21 10  1  0
 33 24  1  0
 19 14  1  0
 32 27  1  0
  1 36  1  0
  3 37  1  0
  4 38  1  0
  5 39  1  0
 11 40  1  0
 11 41  1  0
 12 42  1  0
 12 43  1  0
 13 44  1  0
 15 45  1  0
 15 46  1  0
 16 47  1  0
 16 48  1  0
 17 49  1  0
 17 50  1  0
 18 51  1  0
 18 52  1  0
 19 53  1  0
 19 54  1  0
 20 55  1  0
 20 56  1  0
 21 57  1  0
 21 58  1  0
 25 59  1  0
 25 60  1  0
 26 61  1  0
 26 62  1  0
 28 63  1  0
 29 64  1  0
 30 65  1  0
 31 66  1  0
 33 67  1  0
 33 68  1  0
 35 69  1  0
M  END
>  <smiles>  (45) 
Oc1cccc(-c2nc(N3CCC(N4CCCCC4)CC3)nc(N3CCc4ccccc4C3)n2)c1

>  <score_type>  (45) 
oracle

>  <origin>  (45) 
autodockgpu

>  <m_score__min__energy>  (45) 
-9.6799999999999997

>  <m_primary>  (45) 
energy

>  <rmsd>  (45) 
6.109909806288599

>  <m_score__min__rmsd>  (45) 
6.109909806288599

>  <meeko>  (45) 
{"free_energy": -9.3, "intermolecular_energy": -10.79, "internal_energy": -1.16, "cluster_size": 35, "cluster_id": 1, "rank_in_cluster": 24}

>  <energy>  (45) 
-8.82

>  <cluster_rmsd>  (45) 
0.11

>  <cluster>  (45) 
2

$$$$

     RDKit          3D

 69 74  0  0  0  0  0  0  0  0999 V2000
  143.9490   80.4280  222.9740 O   0  0  0  0  0  0  0  0  0  0  0  0
  142.5760   80.2450  223.0730 C   0  0  0  0  0  0  0  0  0  0  0  0
  141.8120   81.3540  223.4280 C   0  0  0  0  0  0  0  0  0  0  0  0
  140.4450   81.2230  223.5380 C   0  0  0  0  0  0  0  0  0  0  0  0
  139.7990   80.0230  223.3090 C   0  0  0  0  0  0  0  0  0  0  0  0
  140.5930   78.9500  222.9610 C   0  0  0  0  0  0  0  0  0  0  0  0
  139.9550   77.6610  222.7090 C   0  0  0  0  0  0  0  0  0  0  0  0
  138.6430   77.4840  222.9640 N   0  0  0  0  0  0  0  0  0  0  0  0
  138.0280   76.3070  222.7410 C   0  0  0  0  0  0  0  0  0  0  0  0
  136.6660   76.0630  222.9870 N   0  0  0  0  0  0  0  0  0  0  0  0
  135.7240   77.1090  223.3270 C   0  0  0  0  0  0  0  0  0  0  0  0
  134.5310   76.5610  224.0830 C   0  0  0  0  0  0  0  0  0  0  0  0
  134.9230   75.4280  224.9960 C   0  0  0  0  0  0  0  0  0  0  0  0
  133.7370   74.9230  225.6370 N   0  0  0  0  0  0  0  0  0  0  0  0
  133.3860   75.6490  226.8420 C   0  0  0  0  0  0  0  0  0  0  0  0
  131.9500   75.2070  227.1580 C   0  0  0  0  0  0  0  0  0  0  0  0
  131.9450   73.7240  227.4310 C   0  0  0  0  0  0  0  0  0  0  0  0
  132.6150   72.9410  226.3400 C   0  0  0  0  0  0  0  0  0  0  0  0
  133.9660   73.5540  226.0600 C   0  0  0  0  0  0  0  0  0  0  0  0
  135.6920   74.3380  224.3110 C   0  0  0  0  0  0  0  0  0  0  0  0
  136.1270   74.7060  222.9080 C   0  0  0  0  0  0  0  0  0  0  0  0
  138.7710   75.2910  222.2470 N   0  0  0  0  0  0  0  0  0  0  0  0
  140.0810   75.4130  221.9750 C   0  0  0  0  0  0  0  0  0  0  0  0
  140.8240   74.3200  221.4560 N   0  0  0  0  0  0  0  0  0  0  0  0
  140.3090   72.9850  221.6900 C   0  0  0  0  0  0  0  0  0  0  0  0
  140.6530   72.1510  220.4740 C   0  0  0  0  0  0  0  0  0  0  0  0
  142.1350   72.1400  220.3570 C   0  0  0  0  0  0  0  0  0  0  0  0
  142.8570   70.9770  220.1260 C   0  0  0  0  0  0  0  0  0  0  0  0
  144.2320   71.0550  220.0310 C   0  0  0  0  0  0  0  0  0  0  0  0
  144.9140   72.2580  220.1600 C   0  0  0  0  0  0  0  0  0  0  0  0
  144.2010   73.4110  220.3890 C   0  0  0  0  0  0  0  0  0  0  0  0
  142.8120   73.3350  220.4850 C   0  0  0  0  0  0  0  0  0  0  0  0
  142.0370   74.5740  220.7320 C   0  0  0  0  0  0  0  0  0  0  0  0
  140.6430   76.6140  222.2180 N   0  0  0  0  0  0  0  0  0  0  0  0
  141.9650   79.0320  222.8370 C   0  0  0  0  0  0  0  0  0  0  0  0
  144.5480   79.8750  222.3660 H   0  0  0  0  0  0  0  0  0  0  0  0
  142.2947   82.3239  223.6185 H   0  0  0  0  0  0  0  0  0  0  0  0
  139.8476   82.1033  223.8175 H   0  0  0  0  0  0  0  0  0  0  0  0
  138.7068   79.9282  223.3997 H   0  0  0  0  0  0  0  0  0  0  0  0
  136.2316   77.8564  223.9545 H   0  0  0  0  0  0  0  0  0  0  0  0
  135.3608   77.5619  222.3927 H   0  0  0  0  0  0  0  0  0  0  0  0
  134.0894   77.3682  224.6858 H   0  0  0  0  0  0  0  0  0  0  0  0
  133.8073   76.1760  223.3495 H   0  0  0  0  0  0  0  0  0  0  0  0
  135.6195   75.8254  225.7490 H   0  0  0  0  0  0  0  0  0  0  0  0
  134.0641   75.3834  227.6664 H   0  0  0  0  0  0  0  0  0  0  0  0
  133.4672   76.7381  226.7106 H   0  0  0  0  0  0  0  0  0  0  0  0
  131.5838   75.7469  228.0437 H   0  0  0  0  0  0  0  0  0  0  0  0
  131.2942   75.4312  226.3038 H   0  0  0  0  0  0  0  0  0  0  0  0
  132.4744   73.5368  228.3769 H   0  0  0  0  0  0  0  0  0  0  0  0
  130.8965   73.3957  227.4852 H   0  0  0  0  0  0  0  0  0  0  0  0
  132.7422   71.8962  226.6595 H   0  0  0  0  0  0  0  0  0  0  0  0
  131.9979   72.9652  225.4297 H   0  0  0  0  0  0  0  0  0  0  0  0
  134.5826   73.5392  226.9708 H   0  0  0  0  0  0  0  0  0  0  0  0
  134.4974   72.9883  225.2805 H   0  0  0  0  0  0  0  0  0  0  0  0
  136.5886   74.1146  224.9078 H   0  0  0  0  0  0  0  0  0  0  0  0
  135.0234   73.4684  224.2285 H   0  0  0  0  0  0  0  0  0  0  0  0
  136.9009   74.0090  222.5542 H   0  0  0  0  0  0  0  0  0  0  0  0
  135.2856   74.6510  222.2016 H   0  0  0  0  0  0  0  0  0  0  0  0
  140.7762   72.5531  222.5873 H   0  0  0  0  0  0  0  0  0  0  0  0
  139.2211   73.0095  221.8507 H   0  0  0  0  0  0  0  0  0  0  0  0
  140.2769   71.1252  220.6012 H   0  0  0  0  0  0  0  0  0  0  0  0
  140.1917   72.5707  219.5679 H   0  0  0  0  0  0  0  0  0  0  0  0
  142.3426   70.0104  220.0205 H   0  0  0  0  0  0  0  0  0  0  0  0
  144.8059   70.1348  219.8472 H   0  0  0  0  0  0  0  0  0  0  0  0
  146.0107   72.2879  220.0800 H   0  0  0  0  0  0  0  0  0  0  0  0
  144.7173   74.3766  220.4947 H   0  0  0  0  0  0  0  0  0  0  0  0
  142.6582   75.2700  221.3148 H   0  0  0  0  0  0  0  0  0  0  0  0
  141.7642   75.0017  219.7559 H   0  0  0  0  0  0  0  0  0  0  0  0
  142.5579   78.1491  222.5561 H   0  0  0  0  0  0  0  0  0  0  0  0
  1  2  1  0
  2  3  2  0
  3  4  1  0
  4  5  2  0
  5  6  1  0
  6  7  1  0
  7  8  2  0
  8  9  1  0
  9 10  1  0
 10 11  1  0
 11 12  1  0
 12 13  1  0
 13 14  1  0
 14 15  1  0
 15 16  1  0
 16 17  1  0
 17 18  1  0
 18 19  1  0
 13 20  1  0
 20 21  1  0
  9 22  2  0
 22 23  1  0
 23 24  1  0
 24 25  1  0
 25 26  1  0
 26 27  1  0
 27 28  2  0
 28 29  1  0
 29 30  2  0
 30 31  1  0
 31 32  2  0
 32 33  1  0
 23 34  2  0
  6 35  2  0
 35  2  1  0
 34  7  1  0
 21 10  1  0
 33 24  1  0
 19 14  1  0
 32 27  1  0
  1 36  1  0
  3 37  1  0
  4 38  1  0
  5 39  1  0
 11 40  1  0
 11 41  1  0
 12 42  1  0
 12 43  1  0
 13 44  1  0
 15 45  1  0
 15 46  1  0
 16 47  1  0
 16 48  1  0
 17 49  1  0
 17 50  1  0
 18 51  1  0
 18 52  1  0
 19 53  1  0
 19 54  1  0
 20 55  1  0
 20 56  1  0
 21 57  1  0
 21 58  1  0
 25 59  1  0
 25 60  1  0
 26 61  1  0
 26 62  1  0
 28 63  1  0
 29 64  1  0
 30 65  1  0
 31 66  1  0
 33 67  1  0
 33 68  1  0
 35 69  1  0
M  END
>  <smiles>  (46) 
Oc1cccc(-c2nc(N3CCC(N4CCCCC4)CC3)nc(N3CCc4ccccc4C3)n2)c1

>  <score_type>  (46) 
oracle

>  <origin>  (46) 
autodockgpu

>  <m_score__min__energy>  (46) 
-9.6799999999999997

>  <m_primary>  (46) 
energy

>  <rmsd>  (46) 
10.313677242103449

>  <m_score__min__rmsd>  (46) 
10.313677242103449

>  <meeko>  (46) 
{"free_energy": -8.83, "intermolecular_energy": -10.32, "internal_energy": -1.18, "cluster_size": 13, "cluster_id": 2, "rank_in_cluster": 8}

>  <energy>  (46) 
-8.58

>  <cluster_rmsd>  (46) 
0.49

>  <cluster>  (46) 
2

$$$$

     RDKit          3D

 69 74  0  0  0  0  0  0  0  0999 V2000
  145.7300   68.8480  219.5670 O   0  0  0  0  0  0  0  0  0  0  0  0
  144.8930   69.8970  219.2080 C   0  0  0  0  0  0  0  0  0  0  0  0
  144.9620   70.3410  217.8900 C   0  0  0  0  0  0  0  0  0  0  0  0
  144.1510   71.3780  217.4860 C   0  0  0  0  0  0  0  0  0  0  0  0
  143.2650   72.0000  218.3460 C   0  0  0  0  0  0  0  0  0  0  0  0
  143.2300   71.5300  219.6430 C   0  0  0  0  0  0  0  0  0  0  0  0
  142.3100   72.1540  220.5880 C   0  0  0  0  0  0  0  0  0  0  0  0
  141.9080   73.4300  220.4130 N   0  0  0  0  0  0  0  0  0  0  0  0
  141.0600   74.0320  221.2680 C   0  0  0  0  0  0  0  0  0  0  0  0
  140.6070   75.3560  221.1380 N   0  0  0  0  0  0  0  0  0  0  0  0
  140.8450   76.1610  219.9570 C   0  0  0  0  0  0  0  0  0  0  0  0
  140.7900   77.6420  220.2720 C   0  0  0  0  0  0  0  0  0  0  0  0
  141.3430   77.9410  221.6410 C   0  0  0  0  0  0  0  0  0  0  0  0
  141.2090   79.3520  221.8920 N   0  0  0  0  0  0  0  0  0  0  0  0
  141.6360   80.1750  220.7770 C   0  0  0  0  0  0  0  0  0  0  0  0
  141.0930   81.5740  221.0950 C   0  0  0  0  0  0  0  0  0  0  0  0
  141.7300   82.0670  222.3690 C   0  0  0  0  0  0  0  0  0  0  0  0
  141.6040   81.0770  223.4910 C   0  0  0  0  0  0  0  0  0  0  0  0
  142.0670   79.7260  223.0010 C   0  0  0  0  0  0  0  0  0  0  0  0
  140.7270   77.1210  222.7350 C   0  0  0  0  0  0  0  0  0  0  0  0
  139.8560   75.9950  222.2170 C   0  0  0  0  0  0  0  0  0  0  0  0
  140.6150   73.3150  222.3240 N   0  0  0  0  0  0  0  0  0  0  0  0
  140.9830   72.0420  222.5460 C   0  0  0  0  0  0  0  0  0  0  0  0
  140.4890   71.3250  223.6690 N   0  0  0  0  0  0  0  0  0  0  0  0
  139.1420   70.7940  223.5890 C   0  0  0  0  0  0  0  0  0  0  0  0
  139.1300   69.4850  224.3490 C   0  0  0  0  0  0  0  0  0  0  0  0
  139.5010   69.7940  225.7560 C   0  0  0  0  0  0  0  0  0  0  0  0
  138.8010   69.2860  226.8410 C   0  0  0  0  0  0  0  0  0  0  0  0
  139.2110   69.6230  228.1150 C   0  0  0  0  0  0  0  0  0  0  0  0
  140.3020   70.4520  228.3440 C   0  0  0  0  0  0  0  0  0  0  0  0
  140.9970   70.9560  227.2700 C   0  0  0  0  0  0  0  0  0  0  0  0
  140.5840   70.6170  225.9820 C   0  0  0  0  0  0  0  0  0  0  0  0
  141.3290   71.1570  224.8210 C   0  0  0  0  0  0  0  0  0  0  0  0
  141.8320   71.4910  221.6570 N   0  0  0  0  0  0  0  0  0  0  0  0
  144.0210   70.4930  220.0940 C   0  0  0  0  0  0  0  0  0  0  0  0
  146.2030   68.2510  218.8930 H   0  0  0  0  0  0  0  0  0  0  0  0
  145.6565   69.8687  217.1796 H   0  0  0  0  0  0  0  0  0  0  0  0
  144.2101   71.7233  216.4433 H   0  0  0  0  0  0  0  0  0  0  0  0
  142.6209   72.8273  218.0133 H   0  0  0  0  0  0  0  0  0  0  0  0
  141.8393   75.9183  219.5538 H   0  0  0  0  0  0  0  0  0  0  0  0
  140.0579   75.9357  219.2223 H   0  0  0  0  0  0  0  0  0  0  0  0
  141.3806   78.1883  219.5218 H   0  0  0  0  0  0  0  0  0  0  0  0
  139.7367   77.9583  220.2509 H   0  0  0  0  0  0  0  0  0  0  0  0
  142.4050   77.6545  221.6469 H   0  0  0  0  0  0  0  0  0  0  0  0
  142.7335   80.1920  220.7054 H   0  0  0  0  0  0  0  0  0  0  0  0
  141.2665   79.7944  219.8134 H   0  0  0  0  0  0  0  0  0  0  0  0
  141.3363   82.2607  220.2708 H   0  0  0  0  0  0  0  0  0  0  0  0
  140.0006   81.5309  221.2169 H   0  0  0  0  0  0  0  0  0  0  0  0
  142.7975   82.2542  222.1810 H   0  0  0  0  0  0  0  0  0  0  0  0
  141.2074   82.9863  222.6719 H   0  0  0  0  0  0  0  0  0  0  0  0
  142.2282   81.3969  224.3384 H   0  0  0  0  0  0  0  0  0  0  0  0
  140.5563   81.0165  223.8206 H   0  0  0  0  0  0  0  0  0  0  0  0
  143.1126   79.7856  222.6646 H   0  0  0  0  0  0  0  0  0  0  0  0
  142.0101   78.9791  223.8065 H   0  0  0  0  0  0  0  0  0  0  0  0
  141.5340   76.6873  223.3438 H   0  0  0  0  0  0  0  0  0  0  0  0
  140.0815   77.7907  223.3222 H   0  0  0  0  0  0  0  0  0  0  0  0
  139.6527   75.2710  223.0198 H   0  0  0  0  0  0  0  0  0  0  0  0
  138.8867   76.3725  221.8593 H   0  0  0  0  0  0  0  0  0  0  0  0
  138.4312   71.4999  224.0434 H   0  0  0  0  0  0  0  0  0  0  0  0
  138.8452   70.6394  222.5411 H   0  0  0  0  0  0  0  0  0  0  0  0
  138.1261   69.0368  224.3130 H   0  0  0  0  0  0  0  0  0  0  0  0
  139.8366   68.7679  223.9057 H   0  0  0  0  0  0  0  0  0  0  0  0
  137.9343   68.6261  226.6884 H   0  0  0  0  0  0  0  0  0  0  0  0
  138.6564   69.2225  228.9764 H   0  0  0  0  0  0  0  0  0  0  0  0
  140.6059   70.7020  229.3712 H   0  0  0  0  0  0  0  0  0  0  0  0
  141.8639   71.6153  227.4242 H   0  0  0  0  0  0  0  0  0  0  0  0
  141.7534   72.1340  225.0956 H   0  0  0  0  0  0  0  0  0  0  0  0
  142.1186   70.4365  224.5613 H   0  0  0  0  0  0  0  0  0  0  0  0
  143.9572   70.1496  221.1371 H   0  0  0  0  0  0  0  0  0  0  0  0
  1  2  1  0
  2  3  2  0
  3  4  1  0
  4  5  2  0
  5  6  1  0
  6  7  1  0
  7  8  2  0
  8  9  1  0
  9 10  1  0
 10 11  1  0
 11 12  1  0
 12 13  1  0
 13 14  1  0
 14 15  1  0
 15 16  1  0
 16 17  1  0
 17 18  1  0
 18 19  1  0
 13 20  1  0
 20 21  1  0
  9 22  2  0
 22 23  1  0
 23 24  1  0
 24 25  1  0
 25 26  1  0
 26 27  1  0
 27 28  2  0
 28 29  1  0
 29 30  2  0
 30 31  1  0
 31 32  2  0
 32 33  1  0
 23 34  2  0
  6 35  2  0
 35  2  1  0
 34  7  1  0
 21 10  1  0
 33 24  1  0
 19 14  1  0
 32 27  1  0
  1 36  1  0
  3 37  1  0
  4 38  1  0
  5 39  1  0
 11 40  1  0
 11 41  1  0
 12 42  1  0
 12 43  1  0
 13 44  1  0
 15 45  1  0
 15 46  1  0
 16 47  1  0
 16 48  1  0
 17 49  1  0
 17 50  1  0
 18 51  1  0
 18 52  1  0
 19 53  1  0
 19 54  1  0
 20 55  1  0
 20 56  1  0
 21 57  1  0
 21 58  1  0
 25 59  1  0
 25 60  1  0
 26 61  1  0
 26 62  1  0
 28 63  1  0
 29 64  1  0
 30 65  1  0
 31 66  1  0
 33 67  1  0
 33 68  1  0
 35 69  1  0
M  END
>  <smiles>  (47) 
Oc1cccc(-c2nc(N3CCC(N4CCCCC4)CC3)nc(N3CCc4ccccc4C3)n2)c1

>  <score_type>  (47) 
oracle

>  <origin>  (47) 
autodockgpu

>  <m_score__min__energy>  (47) 
-9.6799999999999997

>  <m_primary>  (47) 
energy

>  <rmsd>  (47) 
5.684150794848463

>  <m_score__min__rmsd>  (47) 
5.684150794848463

>  <meeko>  (47) 
{"free_energy": -8.82, "intermolecular_energy": -10.31, "internal_energy": -1.16, "cluster_size": 35, "cluster_id": 1, "rank_in_cluster": 34}

>  <energy>  (47) 
-8.48

>  <cluster_rmsd>  (47) 
1.21

>  <cluster>  (47) 
2

$$$$

     RDKit          3D

 69 74  0  0  0  0  0  0  0  0999 V2000
  146.3170   73.0160  218.0220 O   0  0  0  0  0  0  0  0  0  0  0  0
  145.2090   72.2880  218.4360 C   0  0  0  0  0  0  0  0  0  0  0  0
  145.0560   71.0100  217.9040 C   0  0  0  0  0  0  0  0  0  0  0  0
  143.9730   70.2480  218.2840 C   0  0  0  0  0  0  0  0  0  0  0  0
  143.0260   70.7080  219.1790 C   0  0  0  0  0  0  0  0  0  0  0  0
  143.2160   71.9790  219.6810 C   0  0  0  0  0  0  0  0  0  0  0  0
  142.2420   72.5090  220.6310 C   0  0  0  0  0  0  0  0  0  0  0  0
  141.7650   73.7630  220.4960 N   0  0  0  0  0  0  0  0  0  0  0  0
  140.8660   74.2790  221.3550 C   0  0  0  0  0  0  0  0  0  0  0  0
  140.3340   75.5760  221.2650 N   0  0  0  0  0  0  0  0  0  0  0  0
  140.2550   76.3150  220.0210 C   0  0  0  0  0  0  0  0  0  0  0  0
  140.2050   77.8090  220.2630 C   0  0  0  0  0  0  0  0  0  0  0  0
  141.0450   78.2110  221.4480 C   0  0  0  0  0  0  0  0  0  0  0  0
  140.9070   79.6290  221.6500 N   0  0  0  0  0  0  0  0  0  0  0  0
  141.1490   80.4040  220.4480 C   0  0  0  0  0  0  0  0  0  0  0  0
  140.6160   81.8050  220.7740 C   0  0  0  0  0  0  0  0  0  0  0  0
  141.4110   82.3750  221.9210 C   0  0  0  0  0  0  0  0  0  0  0  0
  141.4720   81.4390  223.0940 C   0  0  0  0  0  0  0  0  0  0  0  0
  141.9010   80.0760  222.6070 C   0  0  0  0  0  0  0  0  0  0  0  0
  140.7370   77.4390  222.6960 C   0  0  0  0  0  0  0  0  0  0  0  0
  139.8230   76.2550  222.4550 C   0  0  0  0  0  0  0  0  0  0  0  0
  140.4470   73.4950  222.3740 N   0  0  0  0  0  0  0  0  0  0  0  0
  140.8900   72.2390  222.5560 C   0  0  0  0  0  0  0  0  0  0  0  0
  140.4220   71.4500  223.6400 N   0  0  0  0  0  0  0  0  0  0  0  0
  139.0570   70.9640  223.5780 C   0  0  0  0  0  0  0  0  0  0  0  0
  139.0370   69.6000  224.2360 C   0  0  0  0  0  0  0  0  0  0  0  0
  139.4750   69.7880  225.6450 C   0  0  0  0  0  0  0  0  0  0  0  0
  138.8050   69.2160  226.7180 C   0  0  0  0  0  0  0  0  0  0  0  0
  139.2780   69.4420  227.9950 C   0  0  0  0  0  0  0  0  0  0  0  0
  140.4020   70.2220  228.2380 C   0  0  0  0  0  0  0  0  0  0  0  0
  141.0670   70.7890  227.1770 C   0  0  0  0  0  0  0  0  0  0  0  0
  140.5900   70.5630  225.8870 C   0  0  0  0  0  0  0  0  0  0  0  0
  141.3030   71.1710  224.7390 C   0  0  0  0  0  0  0  0  0  0  0  0
  141.7880   71.7770  221.6640 N   0  0  0  0  0  0  0  0  0  0  0  0
  144.2840   72.7800  219.3310 C   0  0  0  0  0  0  0  0  0  0  0  0
  146.3580   74.0320  218.0300 H   0  0  0  0  0  0  0  0  0  0  0  0
  145.7915   70.6136  217.1886 H   0  0  0  0  0  0  0  0  0  0  0  0
  143.8583   69.2393  217.8606 H   0  0  0  0  0  0  0  0  0  0  0  0
  142.1644   70.0921  219.4761 H   0  0  0  0  0  0  0  0  0  0  0  0
  141.1396   76.0816  219.4102 H   0  0  0  0  0  0  0  0  0  0  0  0
  139.3310   76.0190  219.5028 H   0  0  0  0  0  0  0  0  0  0  0  0
  140.5797   78.3276  219.3682 H   0  0  0  0  0  0  0  0  0  0  0  0
  139.1616   78.0873  220.4725 H   0  0  0  0  0  0  0  0  0  0  0  0
  142.0921   77.9624  221.2207 H   0  0  0  0  0  0  0  0  0  0  0  0
  142.2246   80.4414  220.2206 H   0  0  0  0  0  0  0  0  0  0  0  0
  140.6588   79.9672  219.5655 H   0  0  0  0  0  0  0  0  0  0  0  0
  140.7216   82.4546  219.8926 H   0  0  0  0  0  0  0  0  0  0  0  0
  139.5531   81.7444  221.0509 H   0  0  0  0  0  0  0  0  0  0  0  0
  142.4358   82.5762  221.5755 H   0  0  0  0  0  0  0  0  0  0  0  0
  140.9100   83.2967  222.2521 H   0  0  0  0  0  0  0  0  0  0  0  0
  142.1989   81.8146  223.8292 H   0  0  0  0  0  0  0  0  0  0  0  0
  140.4827   81.3715  223.5701 H   0  0  0  0  0  0  0  0  0  0  0  0
  142.8867   80.1419  222.1233 H   0  0  0  0  0  0  0  0  0  0  0  0
  141.9802   79.3691  223.4461 H   0  0  0  0  0  0  0  0  0  0  0  0
  141.6821   77.0702  223.1212 H   0  0  0  0  0  0  0  0  0  0  0  0
  140.2139   78.1216  223.3819 H   0  0  0  0  0  0  0  0  0  0  0  0
  139.8444   75.5754  223.3197 H   0  0  0  0  0  0  0  0  0  0  0  0
  138.7808   76.5773  222.3142 H   0  0  0  0  0  0  0  0  0  0  0  0
  138.3874   71.6516  224.1154 H   0  0  0  0  0  0  0  0  0  0  0  0
  138.7124   70.8997  222.5354 H   0  0  0  0  0  0  0  0  0  0  0  0
  138.0194   69.1831  224.2096 H   0  0  0  0  0  0  0  0  0  0  0  0
  139.7030   68.9010  223.7088 H   0  0  0  0  0  0  0  0  0  0  0  0
  137.9130   68.5937  226.5535 H   0  0  0  0  0  0  0  0  0  0  0  0
  138.7485   68.9905  228.8469 H   0  0  0  0  0  0  0  0  0  0  0  0
  140.7554   70.3838  229.2671 H   0  0  0  0  0  0  0  0  0  0  0  0
  141.9596   71.4100  227.3430 H   0  0  0  0  0  0  0  0  0  0  0  0
  141.7675   72.1121  225.0685 H   0  0  0  0  0  0  0  0  0  0  0  0
  142.0593   70.4517  224.3916 H   0  0  0  0  0  0  0  0  0  0  0  0
  144.3943   73.7882  219.7568 H   0  0  0  0  0  0  0  0  0  0  0  0
  1  2  1  0
  2  3  2  0
  3  4  1  0
  4  5  2  0
  5  6  1  0
  6  7  1  0
  7  8  2  0
  8  9  1  0
  9 10  1  0
 10 11  1  0
 11 12  1  0
 12 13  1  0
 13 14  1  0
 14 15  1  0
 15 16  1  0
 16 17  1  0
 17 18  1  0
 18 19  1  0
 13 20  1  0
 20 21  1  0
  9 22  2  0
 22 23  1  0
 23 24  1  0
 24 25  1  0
 25 26  1  0
 26 27  1  0
 27 28  2  0
 28 29  1  0
 29 30  2  0
 30 31  1  0
 31 32  2  0
 32 33  1  0
 23 34  2  0
  6 35  2  0
 35  2  1  0
 34  7  1  0
 21 10  1  0
 33 24  1  0
 19 14  1  0
 32 27  1  0
  1 36  1  0
  3 37  1  0
  4 38  1  0
  5 39  1  0
 11 40  1  0
 11 41  1  0
 12 42  1  0
 12 43  1  0
 13 44  1  0
 15 45  1  0
 15 46  1  0
 16 47  1  0
 16 48  1  0
 17 49  1  0
 17 50  1  0
 18 51  1  0
 18 52  1  0
 19 53  1  0
 19 54  1  0
 20 55  1  0
 20 56  1  0
 21 57  1  0
 21 58  1  0
 25 59  1  0
 25 60  1  0
 26 61  1  0
 26 62  1  0
 28 63  1  0
 29 64  1  0
 30 65  1  0
 31 66  1  0
 33 67  1  0
 33 68  1  0
 35 69  1  0
M  END
>  <smiles>  (48) 
Oc1cccc(-c2nc(N3CCC(N4CCCCC4)CC3)nc(N3CCc4ccccc4C3)n2)c1

>  <score_type>  (48) 
oracle

>  <origin>  (48) 
autodockgpu

>  <m_score__min__energy>  (48) 
-9.6799999999999997

>  <m_primary>  (48) 
energy

>  <rmsd>  (48) 
5.618209356228626

>  <m_score__min__rmsd>  (48) 
5.618209356228626

>  <meeko>  (48) 
{"free_energy": -9.61, "intermolecular_energy": -11.1, "internal_energy": -1.13, "cluster_size": 35, "cluster_id": 1, "rank_in_cluster": 3}

>  <energy>  (48) 
-8.36

>  <cluster_rmsd>  (48) 
1.25

>  <cluster>  (48) 
2

$$$$

     RDKit          3D

 69 74  0  0  0  0  0  0  0  0999 V2000
  143.9770   80.5040  223.0770 O   0  0  0  0  0  0  0  0  0  0  0  0
  142.6030   80.3050  223.1280 C   0  0  0  0  0  0  0  0  0  0  0  0
  141.8150   81.4090  223.4430 C   0  0  0  0  0  0  0  0  0  0  0  0
  140.4460   81.2630  223.5050 C   0  0  0  0  0  0  0  0  0  0  0  0
  139.8220   80.0530  223.2660 C   0  0  0  0  0  0  0  0  0  0  0  0
  140.6410   78.9860  222.9580 C   0  0  0  0  0  0  0  0  0  0  0  0
  140.0280   77.6870  222.6960 C   0  0  0  0  0  0  0  0  0  0  0  0
  138.7160   77.4870  222.9360 N   0  0  0  0  0  0  0  0  0  0  0  0
  138.1230   76.3000  222.7040 C   0  0  0  0  0  0  0  0  0  0  0  0
  136.7640   76.0330  222.9340 N   0  0  0  0  0  0  0  0  0  0  0  0
  135.8260   77.0380  223.3930 C   0  0  0  0  0  0  0  0  0  0  0  0
  134.6390   76.4130  224.0950 C   0  0  0  0  0  0  0  0  0  0  0  0
  135.0350   75.1880  224.8780 C   0  0  0  0  0  0  0  0  0  0  0  0
  133.8540   74.6190  225.4710 N   0  0  0  0  0  0  0  0  0  0  0  0
  133.3710   75.3670  226.6160 C   0  0  0  0  0  0  0  0  0  0  0  0
  131.9580   74.8260  226.8660 C   0  0  0  0  0  0  0  0  0  0  0  0
  132.0490   73.3610  227.2110 C   0  0  0  0  0  0  0  0  0  0  0  0
  132.8460   72.5860  226.2030 C   0  0  0  0  0  0  0  0  0  0  0  0
  134.1610   73.2930  225.9740 C   0  0  0  0  0  0  0  0  0  0  0  0
  135.7960   74.1760  224.0730 C   0  0  0  0  0  0  0  0  0  0  0  0
  136.2200   74.6930  222.7140 C   0  0  0  0  0  0  0  0  0  0  0  0
  138.8900   75.2980  222.2170 N   0  0  0  0  0  0  0  0  0  0  0  0
  140.2000   75.4430  221.9610 C   0  0  0  0  0  0  0  0  0  0  0  0
  140.9670   74.3620  221.4480 N   0  0  0  0  0  0  0  0  0  0  0  0
  140.4990   73.0170  221.7190 C   0  0  0  0  0  0  0  0  0  0  0  0
  140.8460   72.1700  220.5130 C   0  0  0  0  0  0  0  0  0  0  0  0
  142.3260   72.2030  220.3670 C   0  0  0  0  0  0  0  0  0  0  0  0
  143.0790   71.0590  220.1440 C   0  0  0  0  0  0  0  0  0  0  0  0
  144.4490   71.1770  220.0210 C   0  0  0  0  0  0  0  0  0  0  0  0
  145.0950   72.4040  220.1130 C   0  0  0  0  0  0  0  0  0  0  0  0
  144.3500   73.5380  220.3330 C   0  0  0  0  0  0  0  0  0  0  0  0
  142.9660   73.4210  220.4580 C   0  0  0  0  0  0  0  0  0  0  0  0
  142.1580   74.6400  220.6960 C   0  0  0  0  0  0  0  0  0  0  0  0
  140.7390   76.6520  222.2110 N   0  0  0  0  0  0  0  0  0  0  0  0
  142.0160   79.0830  222.8830 C   0  0  0  0  0  0  0  0  0  0  0  0
  144.5780   80.0960  222.3660 H   0  0  0  0  0  0  0  0  0  0  0  0
  142.2798   82.3863  223.6400 H   0  0  0  0  0  0  0  0  0  0  0  0
  139.8289   82.1392  223.7531 H   0  0  0  0  0  0  0  0  0  0  0  0
  138.7285   79.9461  223.3187 H   0  0  0  0  0  0  0  0  0  0  0  0
  136.3401   77.7129  224.0932 H   0  0  0  0  0  0  0  0  0  0  0  0
  135.4560   77.5895  222.5161 H   0  0  0  0  0  0  0  0  0  0  0  0
  134.2036   77.1512  224.7845 H   0  0  0  0  0  0  0  0  0  0  0  0
  133.9095   76.1093  223.3298 H   0  0  0  0  0  0  0  0  0  0  0  0
  135.7382   75.5015  225.6636 H   0  0  0  0  0  0  0  0  0  0  0  0
  134.0135   75.1935  227.4918 H   0  0  0  0  0  0  0  0  0  0  0  0
  133.3756   76.4522  226.4364 H   0  0  0  0  0  0  0  0  0  0  0  0
  131.4953   75.3736  227.7003 H   0  0  0  0  0  0  0  0  0  0  0  0
  131.3434   74.9585  225.9633 H   0  0  0  0  0  0  0  0  0  0  0  0
  132.5290   73.2588  228.1955 H   0  0  0  0  0  0  0  0  0  0  0  0
  131.0274   72.9531  227.2173 H   0  0  0  0  0  0  0  0  0  0  0  0
  133.0334   71.5704  226.5817 H   0  0  0  0  0  0  0  0  0  0  0  0
  132.2882   72.5190  225.2573 H   0  0  0  0  0  0  0  0  0  0  0  0
  134.7179   73.3683  226.9196 H   0  0  0  0  0  0  0  0  0  0  0  0
  134.7828   72.7377  225.2564 H   0  0  0  0  0  0  0  0  0  0  0  0
  136.6971   73.8882  224.6345 H   0  0  0  0  0  0  0  0  0  0  0  0
  135.1250   73.3210  223.9033 H   0  0  0  0  0  0  0  0  0  0  0  0
  136.9887   74.0367  222.2800 H   0  0  0  0  0  0  0  0  0  0  0  0
  135.3721   74.7166  222.0137 H   0  0  0  0  0  0  0  0  0  0  0  0
  140.9968   72.6183  222.6152 H   0  0  0  0  0  0  0  0  0  0  0  0
  139.4142   73.0106  221.9012 H   0  0  0  0  0  0  0  0  0  0  0  0
  140.5050   71.1357  220.6675 H   0  0  0  0  0  0  0  0  0  0  0  0
  140.3544   72.5569  219.6082 H   0  0  0  0  0  0  0  0  0  0  0  0
  142.5928   70.0753  220.0666 H   0  0  0  0  0  0  0  0  0  0  0  0
  145.0480   70.2714  219.8446 H   0  0  0  0  0  0  0  0  0  0  0  0
  146.1885   72.4669  220.0111 H   0  0  0  0  0  0  0  0  0  0  0  0
  144.8373   74.5212  220.4092 H   0  0  0  0  0  0  0  0  0  0  0  0
  142.7678   75.3661  221.2536 H   0  0  0  0  0  0  0  0  0  0  0  0
  141.8543   75.0406  219.7176 H   0  0  0  0  0  0  0  0  0  0  0  0
  142.6291   78.2045  222.6333 H   0  0  0  0  0  0  0  0  0  0  0  0
  1  2  1  0
  2  3  2  0
  3  4  1  0
  4  5  2  0
  5  6  1  0
  6  7  1  0
  7  8  2  0
  8  9  1  0
  9 10  1  0
 10 11  1  0
 11 12  1  0
 12 13  1  0
 13 14  1  0
 14 15  1  0
 15 16  1  0
 16 17  1  0
 17 18  1  0
 18 19  1  0
 13 20  1  0
 20 21  1  0
  9 22  2  0
 22 23  1  0
 23 24  1  0
 24 25  1  0
 25 26  1  0
 26 27  1  0
 27 28  2  0
 28 29  1  0
 29 30  2  0
 30 31  1  0
 31 32  2  0
 32 33  1  0
 23 34  2  0
  6 35  2  0
 35  2  1  0
 34  7  1  0
 21 10  1  0
 33 24  1  0
 19 14  1  0
 32 27  1  0
  1 36  1  0
  3 37  1  0
  4 38  1  0
  5 39  1  0
 11 40  1  0
 11 41  1  0
 12 42  1  0
 12 43  1  0
 13 44  1  0
 15 45  1  0
 15 46  1  0
 16 47  1  0
 16 48  1  0
 17 49  1  0
 17 50  1  0
 18 51  1  0
 18 52  1  0
 19 53  1  0
 19 54  1  0
 20 55  1  0
 20 56  1  0
 21 57  1  0
 21 58  1  0
 25 59  1  0
 25 60  1  0
 26 61  1  0
 26 62  1  0
 28 63  1  0
 29 64  1  0
 30 65  1  0
 31 66  1  0
 33 67  1  0
 33 68  1  0
 35 69  1  0
M  END
>  <smiles>  (49) 
Oc1cccc(-c2nc(N3CCC(N4CCCCC4)CC3)nc(N3CCc4ccccc4C3)n2)c1

>  <score_type>  (49) 
oracle

>  <origin>  (49) 
autodockgpu

>  <m_score__min__energy>  (49) 
-9.6799999999999997

>  <m_primary>  (49) 
energy

>  <rmsd>  (49) 
10.245537241052938

>  <m_score__min__rmsd>  (49) 
10.245537241052938

>  <meeko>  (49) 
{"free_energy": -8.85, "intermolecular_energy": -10.34, "internal_energy": -1.18, "cluster_size": 13, "cluster_id": 2, "rank_in_cluster": 3}

>  <energy>  (49) 
-8.83

>  <cluster_rmsd>  (49) 
0.0

>  <cluster>  (49) 
3

$$$$

     RDKit          3D

 69 74  0  0  0  0  0  0  0  0999 V2000
  140.9550   82.5850  221.4980 O   0  0  0  0  0  0  0  0  0  0  0  0
  141.1760   81.4680  222.2920 C   0  0  0  0  0  0  0  0  0  0  0  0
  142.0720   81.6090  223.3500 C   0  0  0  0  0  0  0  0  0  0  0  0
  142.3230   80.5280  224.1670 C   0  0  0  0  0  0  0  0  0  0  0  0
  141.7170   79.3010  223.9750 C   0  0  0  0  0  0  0  0  0  0  0  0
  140.8380   79.2050  222.9160 C   0  0  0  0  0  0  0  0  0  0  0  0
  140.1730   77.9290  222.6720 C   0  0  0  0  0  0  0  0  0  0  0  0
  138.8530   77.7870  222.9130 N   0  0  0  0  0  0  0  0  0  0  0  0
  138.2120   76.6230  222.6980 C   0  0  0  0  0  0  0  0  0  0  0  0
  136.8420   76.4160  222.9300 N   0  0  0  0  0  0  0  0  0  0  0  0
  135.9160   77.4920  223.2180 C   0  0  0  0  0  0  0  0  0  0  0  0
  134.7010   76.9950  223.9730 C   0  0  0  0  0  0  0  0  0  0  0  0
  135.0540   75.8870  224.9310 C   0  0  0  0  0  0  0  0  0  0  0  0
  133.8480   75.4290  225.5690 N   0  0  0  0  0  0  0  0  0  0  0  0
  133.5880   76.0850  226.8370 C   0  0  0  0  0  0  0  0  0  0  0  0
  132.1300   75.7350  227.1630 C   0  0  0  0  0  0  0  0  0  0  0  0
  132.0110   74.2400  227.3240 C   0  0  0  0  0  0  0  0  0  0  0  0
  132.5870   73.4930  226.1560 C   0  0  0  0  0  0  0  0  0  0  0  0
  133.9760   74.0180  225.8800 C   0  0  0  0  0  0  0  0  0  0  0  0
  135.8110   74.7580  224.2970 C   0  0  0  0  0  0  0  0  0  0  0  0
  136.2750   75.0680  222.8890 C   0  0  0  0  0  0  0  0  0  0  0  0
  138.9360   75.5830  222.2280 N   0  0  0  0  0  0  0  0  0  0  0  0
  140.2520   75.6690  221.9710 C   0  0  0  0  0  0  0  0  0  0  0  0
  140.9740   74.5500  221.4760 N   0  0  0  0  0  0  0  0  0  0  0  0
  140.4620   73.2290  221.7840 C   0  0  0  0  0  0  0  0  0  0  0  0
  140.7650   72.3430  220.5940 C   0  0  0  0  0  0  0  0  0  0  0  0
  142.2430   72.3190  220.4310 C   0  0  0  0  0  0  0  0  0  0  0  0
  142.9530   71.1440  220.2270 C   0  0  0  0  0  0  0  0  0  0  0  0
  144.3240   71.2110  220.0870 C   0  0  0  0  0  0  0  0  0  0  0  0
  145.0140   72.4150  220.1420 C   0  0  0  0  0  0  0  0  0  0  0  0
  144.3120   73.5800  220.3440 C   0  0  0  0  0  0  0  0  0  0  0  0
  142.9270   73.5150  220.4870 C   0  0  0  0  0  0  0  0  0  0  0  0
  142.1650   74.7670  220.7040 C   0  0  0  0  0  0  0  0  0  0  0  0
  140.8400   76.8590  222.2040 N   0  0  0  0  0  0  0  0  0  0  0  0
  140.5530   80.2590  222.0700 C   0  0  0  0  0  0  0  0  0  0  0  0
  140.0350   82.9850  221.3330 H   0  0  0  0  0  0  0  0  0  0  0  0
  142.5729   82.5715  223.5308 H   0  0  0  0  0  0  0  0  0  0  0  0
  143.0304   80.6459  225.0011 H   0  0  0  0  0  0  0  0  0  0  0  0
  141.9249   78.4444  224.6331 H   0  0  0  0  0  0  0  0  0  0  0  0
  136.4289   78.2509  223.8271 H   0  0  0  0  0  0  0  0  0  0  0  0
  135.5765   77.9186  222.2626 H   0  0  0  0  0  0  0  0  0  0  0  0
  134.2671   77.8317  224.5402 H   0  0  0  0  0  0  0  0  0  0  0  0
  133.9814   76.5990  223.2414 H   0  0  0  0  0  0  0  0  0  0  0  0
  135.7463   76.2963  225.6815 H   0  0  0  0  0  0  0  0  0  0  0  0
  134.2627   75.7029  227.6173 H   0  0  0  0  0  0  0  0  0  0  0  0
  133.7546   77.1711  226.7863 H   0  0  0  0  0  0  0  0  0  0  0  0
  131.8310   76.2321  228.0976 H   0  0  0  0  0  0  0  0  0  0  0  0
  131.4738   76.0757  226.3486 H   0  0  0  0  0  0  0  0  0  0  0  0
  132.5475   73.9387  228.2358 H   0  0  0  0  0  0  0  0  0  0  0  0
  130.9410   73.9926  227.3868 H   0  0  0  0  0  0  0  0  0  0  0  0
  132.6375   72.4198  226.3920 H   0  0  0  0  0  0  0  0  0  0  0  0
  131.9505   73.6357  225.2703 H   0  0  0  0  0  0  0  0  0  0  0  0
  134.6126   73.8839  226.7670 H   0  0  0  0  0  0  0  0  0  0  0  0
  134.4395   73.4745  225.0434 H   0  0  0  0  0  0  0  0  0  0  0  0
  136.6936   74.5378  224.9155 H   0  0  0  0  0  0  0  0  0  0  0  0
  135.1262   73.8995  224.2342 H   0  0  0  0  0  0  0  0  0  0  0  0
  137.0391   74.3431  222.5717 H   0  0  0  0  0  0  0  0  0  0  0  0
  135.4434   75.0061  222.1717 H   0  0  0  0  0  0  0  0  0  0  0  0
  140.9560   72.8336  222.6838 H   0  0  0  0  0  0  0  0  0  0  0  0
  139.3800   73.2651  221.9787 H   0  0  0  0  0  0  0  0  0  0  0  0
  140.3890   71.3254  220.7759 H   0  0  0  0  0  0  0  0  0  0  0  0
  140.2774   72.7272  219.6859 H   0  0  0  0  0  0  0  0  0  0  0  0
  142.4319   70.1765  220.1778 H   0  0  0  0  0  0  0  0  0  0  0  0
  144.8887   70.2807  219.9267 H   0  0  0  0  0  0  0  0  0  0  0  0
  146.1076   72.4364  220.0255 H   0  0  0  0  0  0  0  0  0  0  0  0
  144.8345   74.5468  220.3919 H   0  0  0  0  0  0  0  0  0  0  0  0
  142.8066   75.4844  221.2366 H   0  0  0  0  0  0  0  0  0  0  0  0
  141.8635   75.1538  219.7194 H   0  0  0  0  0  0  0  0  0  0  0  0
  139.8445   80.1361  221.2376 H   0  0  0  0  0  0  0  0  0  0  0  0
  1  2  1  0
  2  3  2  0
  3  4  1  0
  4  5  2  0
  5  6  1  0
  6  7  1  0
  7  8  2  0
  8  9  1  0
  9 10  1  0
 10 11  1  0
 11 12  1  0
 12 13  1  0
 13 14  1  0
 14 15  1  0
 15 16  1  0
 16 17  1  0
 17 18  1  0
 18 19  1  0
 13 20  1  0
 20 21  1  0
  9 22  2  0
 22 23  1  0
 23 24  1  0
 24 25  1  0
 25 26  1  0
 26 27  1  0
 27 28  2  0
 28 29  1  0
 29 30  2  0
 30 31  1  0
 31 32  2  0
 32 33  1  0
 23 34  2  0
  6 35  2  0
 35  2  1  0
 34  7  1  0
 21 10  1  0
 33 24  1  0
 19 14  1  0
 32 27  1  0
  1 36  1  0
  3 37  1  0
  4 38  1  0
  5 39  1  0
 11 40  1  0
 11 41  1  0
 12 42  1  0
 12 43  1  0
 13 44  1  0
 15 45  1  0
 15 46  1  0
 16 47  1  0
 16 48  1  0
 17 49  1  0
 17 50  1  0
 18 51  1  0
 18 52  1  0
 19 53  1  0
 19 54  1  0
 20 55  1  0
 20 56  1  0
 21 57  1  0
 21 58  1  0
 25 59  1  0
 25 60  1  0
 26 61  1  0
 26 62  1  0
 28 63  1  0
 29 64  1  0
 30 65  1  0
 31 66  1  0
 33 67  1  0
 33 68  1  0
 35 69  1  0
M  END
>  <smiles>  (50) 
Oc1cccc(-c2nc(N3CCC(N4CCCCC4)CC3)nc(N3CCc4ccccc4C3)n2)c1

>  <score_type>  (50) 
oracle

>  <origin>  (50) 
autodockgpu

>  <m_score__min__energy>  (50) 
-9.6799999999999997

>  <m_primary>  (50) 
energy

>  <rmsd>  (50) 
10.042304535865291

>  <m_score__min__rmsd>  (50) 
10.042304535865291

>  <meeko>  (50) 
{"free_energy": -8.36, "intermolecular_energy": -9.85, "internal_energy": -1.17, "cluster_size": 13, "cluster_id": 2, "rank_in_cluster": 13}

>  <energy>  (50) 
-8.49

>  <cluster_rmsd>  (50) 
0.0

>  <cluster>  (50) 
4

$$$$
