
     RDKit          3D

 61 66  0  0  0  0  0  0  0  0999 V2000
  141.1540   81.4740  219.0020 C   0  0  0  0  0  0  0  0  0  0  0  0
  142.1050   80.5110  219.6390 C   0  0  1  0  0  0  0  0  0  0  0  0
  141.8960   80.3060  221.0970 C   0  0  0  0  0  0  0  0  0  0  0  0
  141.0420   79.1450  221.4830 C   0  0  0  0  0  0  0  0  0  0  0  0
  140.0970   78.6790  220.4240 C   0  0  2  0  0  0  0  0  0  0  0  0
  139.4910   77.4230  220.6770 N   0  0  0  0  0  0  0  0  0  0  0  0
  139.2860   77.1190  222.0690 C   0  0  0  0  0  0  0  0  0  0  0  0
  140.2110   75.9660  222.3390 C   0  0  0  0  0  0  0  0  0  0  0  0
  140.2740   75.2280  221.0470 C   0  0  2  0  0  0  0  0  0  0  0  0
  139.4010   74.0160  221.0270 C   0  0  0  0  0  0  0  0  0  0  0  0
  140.2880   72.9600  221.4640 N   0  0  0  0  0  0  0  0  0  0  0  0
  140.0280   71.7580  222.1510 C   0  0  0  0  0  0  0  0  0  0  0  0
  139.5270   70.7610  221.4910 O   0  0  0  0  0  0  0  0  0  0  0  0
  140.2500   71.4870  223.5550 C   0  0  0  0  0  0  0  0  0  0  0  0
  140.7000   72.2380  224.5650 N   0  0  0  0  0  0  0  0  0  0  0  0
  140.7290   71.4940  225.7160 C   0  0  0  0  0  0  0  0  0  0  0  0
  141.0850   71.6990  227.0130 C   0  0  0  0  0  0  0  0  0  0  0  0
  141.0080   70.7100  227.9710 C   0  0  0  0  0  0  0  0  0  0  0  0
  140.5520   69.4220  227.6530 C   0  0  0  0  0  0  0  0  0  0  0  0
  140.1860   69.2190  226.3140 C   0  0  0  0  0  0  0  0  0  0  0  0
  140.2710   70.2210  225.3800 C   0  0  0  0  0  0  0  0  0  0  0  0
  139.9890   70.2400  224.0730 N   0  0  0  0  0  0  0  0  0  0  0  0
  141.6360   73.3340  221.0750 C   0  0  0  0  0  0  0  0  0  0  0  0
  142.7960   72.5930  220.9310 C   0  0  0  0  0  0  0  0  0  0  0  0
  143.9930   73.1510  220.5050 C   0  0  0  0  0  0  0  0  0  0  0  0
  143.9920   74.5000  220.2220 C   0  0  0  0  0  0  0  0  0  0  0  0
  142.8390   75.2620  220.3600 C   0  0  0  0  0  0  0  0  0  0  0  0
  141.6480   74.6930  220.7870 C   0  0  0  0  0  0  0  0  0  0  0  0
  139.9040   76.2710  220.0080 C   0  0  0  0  0  0  0  0  0  0  0  0
  140.7370   78.5540  219.0600 C   0  0  0  0  0  0  0  0  0  0  0  0
  142.1090   79.1530  218.9860 C   0  0  0  0  0  0  0  0  0  0  0  0
  140.6106   82.0243  219.7842 H   0  0  0  0  0  0  0  0  0  0  0  0
  141.7151   82.1840  218.3767 H   0  0  0  0  0  0  0  0  0  0  0  0
  140.4370   80.9218  218.3767 H   0  0  0  0  0  0  0  0  0  0  0  0
  143.0751   81.0067  219.4870 H   0  0  0  0  0  0  0  0  0  0  0  0
  141.4276   81.2160  221.5001 H   0  0  0  0  0  0  0  0  0  0  0  0
  142.8923   80.0888  221.5096 H   0  0  0  0  0  0  0  0  0  0  0  0
  140.4513   79.4337  222.3649 H   0  0  0  0  0  0  0  0  0  0  0  0
  141.7287   78.3071  221.6737 H   0  0  0  0  0  0  0  0  0  0  0  0
  139.3368   79.4738  220.4419 H   0  0  0  0  0  0  0  0  0  0  0  0
  139.5462   77.9827  222.6986 H   0  0  0  0  0  0  0  0  0  0  0  0
  138.2371   76.8775  222.2957 H   0  0  0  0  0  0  0  0  0  0  0  0
  141.2085   76.3275  222.6293 H   0  0  0  0  0  0  0  0  0  0  0  0
  139.8588   75.3320  223.1661 H   0  0  0  0  0  0  0  0  0  0  0  0
  138.5530   74.1297  221.7183 H   0  0  0  0  0  0  0  0  0  0  0  0
  138.9550   73.8229  220.0402 H   0  0  0  0  0  0  0  0  0  0  0  0
  141.4490   72.6938  227.3095 H   0  0  0  0  0  0  0  0  0  0  0  0
  141.3100   70.9354  229.0044 H   0  0  0  0  0  0  0  0  0  0  0  0
  140.4857   68.6224  228.4054 H   0  0  0  0  0  0  0  0  0  0  0  0
  139.8206   68.2289  226.0040 H   0  0  0  0  0  0  0  0  0  0  0  0
  139.6180   69.4080  223.5490 H   0  0  0  0  0  0  0  0  0  0  0  0
  142.7680   71.5183  221.1636 H   0  0  0  0  0  0  0  0  0  0  0  0
  144.9034   72.5430  220.3978 H   0  0  0  0  0  0  0  0  0  0  0  0
  144.9204   74.9814  219.8810 H   0  0  0  0  0  0  0  0  0  0  0  0
  142.8708   76.3364  220.1264 H   0  0  0  0  0  0  0  0  0  0  0  0
  140.7782   76.4979  219.3800 H   0  0  0  0  0  0  0  0  0  0  0  0
  139.0963   75.8955  219.3625 H   0  0  0  0  0  0  0  0  0  0  0  0
  140.0948   79.0630  218.3262 H   0  0  0  0  0  0  0  0  0  0  0  0
  140.8413   77.4795  218.8489 H   0  0  0  0  0  0  0  0  0  0  0  0
  142.4074   79.2547  217.9321 H   0  0  0  0  0  0  0  0  0  0  0  0
  142.8214   78.4986  219.5096 H   0  0  0  0  0  0  0  0  0  0  0  0
  1  2  1  0
  2  3  1  0
  3  4  1  0
  4  5  1  0
  5  6  1  0
  6  7  1  0
  7  8  1  0
  9  8  1  1
  9 10  1  0
 10 11  1  0
 11 12  1  0
 12 13  2  0
 12 14  1  0
 14 15  2  0
 15 16  1  0
 16 17  2  0
 17 18  1  0
 18 19  2  0
 19 20  1  0
 20 21  2  0
 21 22  1  0
 11 23  1  0
 23 24  2  0
 24 25  1  0
 25 26  2  0
 26 27  1  0
 27 28  2  0
  9 29  1  0
  5 30  1  0
 30 31  1  0
 31  2  1  0
 29  6  1  0
 28  9  1  0
 22 14  1  0
 28 23  1  0
 21 16  1  0
  1 32  1  0
  1 33  1  0
  1 34  1  0
  2 35  1  1
  3 36  1  0
  3 37  1  0
  4 38  1  0
  4 39  1  0
  5 40  1  6
  7 41  1  0
  7 42  1  0
  8 43  1  0
  8 44  1  0
 10 45  1  0
 10 46  1  0
 17 47  1  0
 18 48  1  0
 19 49  1  0
 20 50  1  0
 22 51  1  0
 24 52  1  0
 25 53  1  0
 26 54  1  0
 27 55  1  0
 29 56  1  0
 29 57  1  0
 30 58  1  0
 30 59  1  0
 31 60  1  0
 31 61  1  0
M  END
