
     RDKit          3D

 52 56  0  0  1  0  0  0  0  0999 V2000
  139.3950   71.0840  221.3990 O   0  0  0  0  0  0  0  0  0  0  0  0
  139.5370   71.8290  222.4200 C   0  0  0  0  0  0  0  0  0  0  0  0
  139.4410   73.2360  222.3620 N   0  0  0  0  0  0  0  0  0  0  0  0
  139.1650   73.8750  221.0920 C   0  0  0  0  0  0  0  0  0  0  0  0
  140.4340   74.2960  220.4470 C   0  0  0  0  0  0  0  0  0  0  0  0
  141.2070   73.3750  220.0690 O   0  0  0  0  0  0  0  0  0  0  0  0
  140.7330   75.6810  220.2810 N   0  0  0  0  0  0  0  0  0  0  0  0
  142.1150   76.1030  220.2000 C   0  0  0  0  0  0  0  0  0  0  0  0
  142.1820   77.5900  220.4980 C   0  0  1  0  0  0  0  0  0  0  0  0
  141.2520   78.2770  219.5260 C   0  0  0  0  0  0  0  0  0  0  0  0
  140.1320   77.9870  220.5030 C   0  0  1  0  0  0  0  0  0  0  0  0
  139.6030   76.5840  220.2030 C   0  0  0  0  0  0  0  0  0  0  0  0
  141.1370   77.9100  221.5870 C   0  0  2  0  0  0  0  0  0  0  0  0
  141.4280   79.0750  222.4090 C   0  0  0  0  0  0  0  0  0  0  0  0
  142.7700   79.3990  222.6180 C   0  0  0  0  0  0  0  0  0  0  0  0
  143.1530   80.4750  223.3910 C   0  0  0  0  0  0  0  0  0  0  0  0
  142.2070   81.2870  223.9990 C   0  0  0  0  0  0  0  0  0  0  0  0
  140.8750   80.9850  223.8040 C   0  0  0  0  0  0  0  0  0  0  0  0
  140.5130   79.8950  223.0210 C   0  0  0  0  0  0  0  0  0  0  0  0
  139.8160   71.1770  223.7130 C   0  0  0  0  0  0  0  0  0  0  0  0
  139.5740   69.8310  223.8930 C   0  0  0  0  0  0  0  0  0  0  0  0
  139.8130   69.1660  225.0760 C   0  0  0  0  0  0  0  0  0  0  0  0
  140.3240   69.8990  226.1290 C   0  0  0  0  0  0  0  0  0  0  0  0
  140.5620   69.2400  227.3020 C   0  0  0  0  0  0  0  0  0  0  0  0
  141.0710   69.9260  228.3870 C   0  0  0  0  0  0  0  0  0  0  0  0
  141.3250   71.2790  228.2340 C   0  0  0  0  0  0  0  0  0  0  0  0
  141.0770   71.9340  227.0350 C   0  0  0  0  0  0  0  0  0  0  0  0
  140.5630   71.2450  225.9370 C   0  0  0  0  0  0  0  0  0  0  0  0
  140.3130   71.8540  224.7630 N   0  0  0  0  0  0  0  0  0  0  0  0
  139.5700   73.7770  223.2400 H   0  0  0  0  0  0  0  0  0  0  0  0
  138.6402   73.1663  220.4345 H   0  0  0  0  0  0  0  0  0  0  0  0
  138.5367   74.7614  221.2637 H   0  0  0  0  0  0  0  0  0  0  0  0
  142.7159   75.5494  220.9365 H   0  0  0  0  0  0  0  0  0  0  0  0
  142.5126   75.9015  219.1944 H   0  0  0  0  0  0  0  0  0  0  0  0
  143.2472   77.8428  220.6047 H   0  0  0  0  0  0  0  0  0  0  0  0
  141.4594   79.3458  219.3689 H   0  0  0  0  0  0  0  0  0  0  0  0
  141.1924   77.9770  218.4694 H   0  0  0  0  0  0  0  0  0  0  0  0
  139.2446   78.6307  220.5932 H   0  0  0  0  0  0  0  0  0  0  0  0
  138.8410   76.3009  220.9441 H   0  0  0  0  0  0  0  0  0  0  0  0
  139.1362   76.5444  219.2078 H   0  0  0  0  0  0  0  0  0  0  0  0
  140.9393   77.2670  222.4573 H   0  0  0  0  0  0  0  0  0  0  0  0
  143.5469   78.7759  222.1510 H   0  0  0  0  0  0  0  0  0  0  0  0
  144.2227   80.6921  223.5272 H   0  0  0  0  0  0  0  0  0  0  0  0
  142.5094   82.1450  224.6174 H   0  0  0  0  0  0  0  0  0  0  0  0
  140.0974   81.6085  224.2694 H   0  0  0  0  0  0  0  0  0  0  0  0
  139.4429   79.6794  222.8854 H   0  0  0  0  0  0  0  0  0  0  0  0
  139.1683   69.2575  223.0465 H   0  0  0  0  0  0  0  0  0  0  0  0
  139.6044   68.0908  225.1779 H   0  0  0  0  0  0  0  0  0  0  0  0
  140.3483   68.1639  227.3820 H   0  0  0  0  0  0  0  0  0  0  0  0
  141.2682   69.4150  229.3409 H   0  0  0  0  0  0  0  0  0  0  0  0
  141.7328   71.8481  229.0824 H   0  0  0  0  0  0  0  0  0  0  0  0
  141.2887   73.0101  226.9502 H   0  0  0  0  0  0  0  0  0  0  0  0
  1  2  2  0
  2  3  1  0
  3  4  1  0
  4  5  1  0
  5  6  2  0
  5  7  1  0
  7  8  1  0
  8  9  1  0
  9 10  1  0
 10 11  1  0
 11 12  1  0
 11 13  1  0
 13 14  1  0
 14 15  2  0
 15 16  1  0
 16 17  2  0
 17 18  1  0
 18 19  2  0
  2 20  1  0
 20 21  2  0
 21 22  1  0
 22 23  2  0
 23 24  1  0
 24 25  2  0
 25 26  1  0
 26 27  2  0
 27 28  1  0
 28 29  2  0
 12  7  1  0
 19 14  1  0
 29 20  1  0
 13  9  1  0
 28 23  1  0
  3 30  1  0
  4 31  1  0
  4 32  1  0
  8 33  1  0
  8 34  1  0
  9 35  1  1
 10 36  1  0
 10 37  1  0
 11 38  1  1
 12 39  1  0
 12 40  1  0
 13 41  1  1
 15 42  1  0
 16 43  1  0
 17 44  1  0
 18 45  1  0
 19 46  1  0
 21 47  1  0
 22 48  1  0
 24 49  1  0
 25 50  1  0
 26 51  1  0
 27 52  1  0
M  END
