@<TRIPOS>MOLECULE
*****
 76 81 0 0 0
SMALL
GASTEIGER

@<TRIPOS>ATOM
      1 O         139.9780   71.0350  221.5270 O.2     1  UNL1       -0.2685
      2 C         139.4220   71.3850  222.6170 C.2     1  UNL1        0.2628
      3 N         138.6380   72.5580  222.5750 N.am    1  UNL1       -0.3015
      4 C         138.5390   73.2520  221.3040 C.3     1  UNL1        0.0887
      5 C         139.7560   74.0710  221.0350 C.2     1  UNL1        0.2334
      6 O         140.3610   74.5130  222.0430 O.2     1  UNL1       -0.2739
      7 N         140.1610   74.3040  219.6960 N.am    1  UNL1       -0.2885
      8 C         139.9680   73.3570  218.5810 C.3     1  UNL1        0.0156
      9 C         141.2780   73.5070  217.8570 C.3     1  UNL1       -0.0350
     10 C         141.9710   74.7360  218.4100 C.3     1  UNL1       -0.0242
     11 C         140.8190   75.4380  219.0900 C.3     1  UNL1        0.1022
     12 C         141.1980   76.5340  219.9510 C.ar    1  UNL1        0.2163
     13 N         142.2300   77.3800  219.8780 N.ar    1  UNL1       -0.2199
     14 C         142.2000   78.2550  220.9000 C.ar    1  UNL1        0.0695
     15 C         141.0830   77.9150  221.6340 C.ar    1  UNL1        0.1286
     16 C         140.5670   78.5670  222.8900 C.3     1  UNL1        0.0218
     17 C         141.7520   78.8080  223.7470 C.3     1  UNL1       -0.0430
     18 C         142.3080   80.1640  223.8530 C.3     1  UNL1       -0.0524
     19 C         141.5350   81.2760  223.2550 C.3     1  UNL1       -0.0528
     20 C         140.5680   80.9070  222.1940 C.3     1  UNL1       -0.0493
     21 C         139.7280   79.7130  222.4980 C.3     1  UNL1       -0.0285
     22 C         138.5270   80.0000  223.3570 C.3     1  UNL1       -0.0376
     23 C         138.1460   81.4630  223.2320 C.3     1  UNL1       -0.0499
     24 C         137.3340   81.8900  224.4240 C.3     1  UNL1       -0.0528
     25 C         136.4050   80.7560  224.7750 C.3     1  UNL1       -0.0530
     26 C         136.0890   80.0090  223.4840 C.3     1  UNL1       -0.0528
     27 C         137.3240   79.1790  223.1090 C.3     1  UNL1       -0.0499
     28 O         140.5140   76.8910  221.0410 O.2     1  UNL1       -0.4424
     29 C         139.6020   70.5970  223.8330 C.ar    1  UNL1        0.1260
     30 C         139.1570   69.2910  223.8480 C.ar    1  UNL1       -0.0306
     31 C         139.2820   68.4650  224.9470 C.ar    1  UNL1       -0.0503
     32 C         139.8860   68.9920  226.0840 C.ar    1  UNL1        0.0031
     33 C         140.0260   68.1950  227.1990 C.ar    1  UNL1       -0.0173
     34 C         140.6290   68.7070  228.3450 C.ar    1  UNL1        0.1241
     35 F         140.7910   67.9640  229.4700 F       1  UNL1       -0.2055
     36 C         141.0600   70.0110  228.2970 C.ar    1  UNL1       -0.0244
     37 C         140.9270   70.8200  227.1870 C.ar    1  UNL1       -0.0330
     38 C         140.3330   70.3160  226.0580 C.ar    1  UNL1        0.0720
     39 N         140.1840   71.0840  224.9450 N.ar    1  UNL1       -0.2421
     40 H         138.1500   72.9010  223.4450 H       1  UNL1        0.1496
     41 H         138.4214   72.5108  220.4997 H       1  UNL1        0.0558
     42 H         137.6703   73.9256  221.3441 H       1  UNL1        0.0558
     43 H         139.8207   72.3289  218.9434 H       1  UNL1        0.0465
     44 H         139.0798   73.5547  217.9629 H       1  UNL1        0.0465
     45 H         141.9028   72.6173  218.0244 H       1  UNL1        0.0281
     46 H         141.1107   73.6128  216.7750 H       1  UNL1        0.0281
     47 H         142.7595   74.4660  219.1279 H       1  UNL1        0.0288
     48 H         142.4875   75.3436  217.6524 H       1  UNL1        0.0288
     49 H         140.1533   76.0121  218.4287 H       1  UNL1        0.0598
     50 H         142.9131   79.0669  221.1057 H       1  UNL1        0.0865
     51 H         139.8868   77.9642  223.5096 H       1  UNL1        0.0382
     52 H         141.4788   78.4944  224.7653 H       1  UNL1        0.0272
     53 H         142.5508   78.2412  223.2463 H       1  UNL1        0.0272
     54 H         142.4281   80.3865  224.9235 H       1  UNL1        0.0265
     55 H         143.2389   80.1280  223.2681 H       1  UNL1        0.0265
     56 H         140.9740   81.7672  224.0637 H       1  UNL1        0.0265
     57 H         142.2792   81.9194  222.7629 H       1  UNL1        0.0265
     58 H         139.8977   81.7635  222.0296 H       1  UNL1        0.0268
     59 H         141.1661   80.6461  221.3085 H       1  UNL1        0.0268
     60 H         139.2359   79.3984  221.5659 H       1  UNL1        0.0310
     61 H         138.8567   79.7309  224.3713 H       1  UNL1        0.0304
     62 H         139.0595   82.0733  223.1767 H       1  UNL1        0.0268
     63 H         137.5468   81.6021  222.3200 H       1  UNL1        0.0268
     64 H         137.9994   82.1057  225.2729 H       1  UNL1        0.0265
     65 H         136.7612   82.8005  224.1941 H       1  UNL1        0.0265
     66 H         136.8926   80.0786  225.4916 H       1  UNL1        0.0265
     67 H         135.4833   81.1382  225.2380 H       1  UNL1        0.0265
     68 H         135.2248   79.3460  223.6371 H       1  UNL1        0.0265
     69 H         135.8435   80.7180  222.6797 H       1  UNL1        0.0265
     70 H         137.3615   78.2685  223.7252 H       1  UNL1        0.0268
     71 H         137.2766   78.8861  222.0498 H       1  UNL1        0.0268
     72 H         138.6803   68.8892  222.9418 H       1  UNL1        0.0641
     73 H         138.9172   67.4275  224.9245 H       1  UNL1        0.0625
     74 H         139.6624   67.1569  227.1840 H       1  UNL1        0.0653
     75 H         141.5376   70.4335  229.1933 H       1  UNL1        0.0647
     76 H         141.2931   71.8571  227.2073 H       1  UNL1        0.0640
@<TRIPOS>BOND
     1     1     2    2
     2     2     3   am
     3     3     4    1
     4     4     5    1
     5     5     6    2
     6     5     7   am
     7     7     8    1
     8     8     9    1
     9     9    10    1
    10    10    11    1
    11    11    12    1
    12    12    13   ar
    13    13    14   ar
    14    14    15   ar
    15    15    16    1
    16    16    17    1
    17    17    18    1
    18    18    19    1
    19    19    20    1
    20    20    21    1
    21    21    22    1
    22    22    23    1
    23    23    24    1
    24    24    25    1
    25    25    26    1
    26    26    27    1
    27    15    28   ar
    28     2    29    1
    29    29    30   ar
    30    30    31   ar
    31    31    32   ar
    32    32    33   ar
    33    33    34   ar
    34    34    35    1
    35    34    36   ar
    36    36    37   ar
    37    37    38   ar
    38    38    39   ar
    39    11     7    1
    40    28    12   ar
    41    39    29   ar
    42    21    16    1
    43    27    22    1
    44    38    32   ar
    45     3    40    1
    46     4    41    1
    47     4    42    1
    48     8    43    1
    49     8    44    1
    50     9    45    1
    51     9    46    1
    52    10    47    1
    53    10    48    1
    54    11    49    1
    55    14    50    1
    56    16    51    1
    57    17    52    1
    58    17    53    1
    59    18    54    1
    60    18    55    1
    61    19    56    1
    62    19    57    1
    63    20    58    1
    64    20    59    1
    65    21    60    1
    66    22    61    1
    67    23    62    1
    68    23    63    1
    69    24    64    1
    70    24    65    1
    71    25    66    1
    72    25    67    1
    73    26    68    1
    74    26    69    1
    75    27    70    1
    76    27    71    1
    77    30    72    1
    78    31    73    1
    79    33    74    1
    80    36    75    1
    81    37    76    1
