
     RDKit          3D

 67 71  0  0  0  0  0  0  0  0999 V2000
  140.0910   73.4030  222.3190 O   0  0  0  0  0  0  0  0  0  0  0  0
  140.0140   72.1280  222.2750 C   0  0  0  0  0  0  0  0  0  0  0  0
  139.9140   71.4760  220.9960 N   0  0  0  0  0  0  0  0  0  0  0  0
  139.9090   72.3230  219.8320 C   0  0  0  0  0  0  0  0  0  0  0  0
  141.2210   72.2460  219.1330 C   0  0  0  0  0  0  0  0  0  0  0  0
  141.7470   71.1620  218.7720 O   0  0  0  0  0  0  0  0  0  0  0  0
  141.9390   73.4400  218.8440 N   0  0  0  0  0  0  0  0  0  0  0  0
  141.6480   74.3210  217.7270 C   0  0  0  0  0  0  0  0  0  0  0  0
  142.9740   75.0350  217.4450 C   0  0  0  0  0  0  0  0  0  0  0  0
  143.9810   74.3080  218.3470 C   0  0  0  0  0  0  0  0  0  0  0  0
  143.0630   74.0320  219.5460 C   0  0  1  0  0  0  0  0  0  0  0  0
  142.7050   75.3560  220.1130 C   0  0  0  0  0  0  0  0  0  0  0  0
  143.4360   76.3670  220.0240 O   0  0  0  0  0  0  0  0  0  0  0  0
  141.4730   75.4850  220.7910 N   0  0  0  0  0  0  0  0  0  0  0  0
  141.0770   76.7630  221.3650 C   0  0  1  0  0  0  0  0  0  0  0  0
  140.6500   77.6450  220.2220 C   0  0  0  0  0  0  0  0  0  0  0  0
  139.7840   78.7990  220.6130 C   0  0  0  0  0  0  0  0  0  0  0  0
  138.7310   78.5180  221.6230 C   0  0  2  0  0  0  0  0  0  0  0  0
  138.9170   79.2190  222.8460 O   0  0  0  0  0  0  0  0  0  0  0  0
  140.1770   79.8110  223.0400 C   0  0  0  0  0  0  0  0  0  0  0  0
  140.3470   81.0890  222.6460 N   0  0  0  0  0  0  0  0  0  0  0  0
  141.5680   81.6580  222.8350 C   0  0  0  0  0  0  0  0  0  0  0  0
  142.5810   80.9070  223.4200 C   0  0  0  0  0  0  0  0  0  0  0  0
  142.3710   79.5870  223.8160 C   0  0  0  0  0  0  0  0  0  0  0  0
  141.1470   79.0810  223.6040 N   0  0  0  0  0  0  0  0  0  0  0  0
  138.6360   77.0290  221.8450 C   0  0  0  0  0  0  0  0  0  0  0  0
  139.9770   76.5810  222.3870 C   0  0  0  0  0  0  0  0  0  0  0  0
  140.0250   71.3260  223.4930 C   0  0  0  0  0  0  0  0  0  0  0  0
  139.4610   70.0660  223.4510 C   0  0  0  0  0  0  0  0  0  0  0  0
  139.4200   69.2280  224.5500 C   0  0  0  0  0  0  0  0  0  0  0  0
  139.9780   69.7070  225.7280 C   0  0  0  0  0  0  0  0  0  0  0  0
  139.9350   68.8630  226.8260 C   0  0  0  0  0  0  0  0  0  0  0  0
  140.4900   69.3270  228.0180 C   0  0  0  0  0  0  0  0  0  0  0  0
  140.4700   68.5380  229.1130 F   0  0  0  0  0  0  0  0  0  0  0  0
  141.0570   70.5960  228.0590 C   0  0  0  0  0  0  0  0  0  0  0  0
  141.0790   71.4050  226.9360 C   0  0  0  0  0  0  0  0  0  0  0  0
  140.5390   70.9630  225.7670 C   0  0  0  0  0  0  0  0  0  0  0  0
  140.5550   71.7530  224.6540 N   0  0  0  0  0  0  0  0  0  0  0  0
  139.8510   70.4250  220.9470 H   0  0  0  0  0  0  0  0  0  0  0  0
  139.1130   71.9947  219.1474 H   0  0  0  0  0  0  0  0  0  0  0  0
  139.7305   73.3621  220.1457 H   0  0  0  0  0  0  0  0  0  0  0  0
  141.3240   73.7421  216.8496 H   0  0  0  0  0  0  0  0  0  0  0  0
  140.8335   75.0254  217.9514 H   0  0  0  0  0  0  0  0  0  0  0  0
  143.2544   74.9366  216.3859 H   0  0  0  0  0  0  0  0  0  0  0  0
  142.9262   76.1155  217.6457 H   0  0  0  0  0  0  0  0  0  0  0  0
  144.3523   73.3798  217.8881 H   0  0  0  0  0  0  0  0  0  0  0  0
  144.9042   74.8620  218.5724 H   0  0  0  0  0  0  0  0  0  0  0  0
  143.4520   73.4134  220.3682 H   0  0  0  0  0  0  0  0  0  0  0  0
  140.8090   74.6720  220.9030 H   0  0  0  0  0  0  0  0  0  0  0  0
  141.9134   77.2298  221.9058 H   0  0  0  0  0  0  0  0  0  0  0  0
  140.0931   77.0272  219.5021 H   0  0  0  0  0  0  0  0  0  0  0  0
  141.5706   78.0760  219.8015 H   0  0  0  0  0  0  0  0  0  0  0  0
  139.2867   79.1683  219.7039 H   0  0  0  0  0  0  0  0  0  0  0  0
  140.4597   79.5259  221.0875 H   0  0  0  0  0  0  0  0  0  0  0  0
  137.7780   78.8923  221.2210 H   0  0  0  0  0  0  0  0  0  0  0  0
  141.7513   82.6986  222.5290 H   0  0  0  0  0  0  0  0  0  0  0  0
  143.5696   81.3642  223.5737 H   0  0  0  0  0  0  0  0  0  0  0  0
  143.1699   78.9897  224.2796 H   0  0  0  0  0  0  0  0  0  0  0  0
  138.4214   76.5174  220.8951 H   0  0  0  0  0  0  0  0  0  0  0  0
  137.8252   76.7856  222.5474 H   0  0  0  0  0  0  0  0  0  0  0  0
  139.9149   75.5171  222.6597 H   0  0  0  0  0  0  0  0  0  0  0  0
  140.2172   77.1973  223.2659 H   0  0  0  0  0  0  0  0  0  0  0  0
  139.0263   69.7145  222.5037 H   0  0  0  0  0  0  0  0  0  0  0  0
  138.9661   68.2276  224.4938 H   0  0  0  0  0  0  0  0  0  0  0  0
  139.4798   67.8638  226.7598 H   0  0  0  0  0  0  0  0  0  0  0  0
  141.4951   70.9629  228.9989 H   0  0  0  0  0  0  0  0  0  0  0  0
  141.5330   72.4056  226.9881 H   0  0  0  0  0  0  0  0  0  0  0  0
  1  2  2  0
  2  3  1  0
  3  4  1  0
  4  5  1  0
  5  6  2  0
  5  7  1  0
  7  8  1  0
  8  9  1  0
  9 10  1  0
 10 11  1  0
 11 12  1  0
 12 13  2  0
 12 14  1  0
 14 15  1  0
 15 16  1  0
 16 17  1  0
 17 18  1  0
 18 19  1  0
 19 20  1  0
 20 21  2  0
 21 22  1  0
 22 23  2  0
 23 24  1  0
 24 25  2  0
 18 26  1  0
 26 27  1  0
  2 28  1  0
 28 29  2  0
 29 30  1  0
 30 31  2  0
 31 32  1  0
 32 33  2  0
 33 34  1  0
 33 35  1  0
 35 36  2  0
 36 37  1  0
 37 38  2  0
 11  7  1  0
 27 15  1  0
 38 28  1  0
 25 20  1  0
 37 31  1  0
  3 39  1  0
  4 40  1  0
  4 41  1  0
  8 42  1  0
  8 43  1  0
  9 44  1  0
  9 45  1  0
 10 46  1  0
 10 47  1  0
 11 48  1  1
 14 49  1  0
 15 50  1  1
 16 51  1  0
 16 52  1  0
 17 53  1  0
 17 54  1  0
 18 55  1  6
 22 56  1  0
 23 57  1  0
 24 58  1  0
 26 59  1  0
 26 60  1  0
 27 61  1  0
 27 62  1  0
 29 63  1  0
 30 64  1  0
 32 65  1  0
 35 66  1  0
 36 67  1  0
M  END
>  <smiles>  (1) 
O=C(NCC(=O)N1CCC[C@H]1C(=O)N[C@H]1CC[C@H](Oc2ncccn2)CC1)c1ccc2cc(F)ccc2n1

>  <score_type>  (1) 
oracle

>  <origin>  (1) 
autodockgpu

>  <m_score__min__energy>  (1) 
-9.4299999999999997

>  <m_primary>  (1) 
energy

>  <rmsd>  (1) 
3.1574850955122877

>  <m_score__min__rmsd>  (1) 
3.1574850955122877

>  <meeko>  (1) 
{"free_energy": -8.24, "intermolecular_energy": -10.63, "internal_energy": -3.19, "cluster_size": 17, "cluster_id": 2, "rank_in_cluster": 11}

>  <energy>  (1) 
-9.43

>  <cluster_rmsd>  (1) 
0.0

>  <cluster>  (1) 
1

$$$$

     RDKit          3D

 67 71  0  0  0  0  0  0  0  0999 V2000
  139.7440   71.6520  221.0590 O   0  0  0  0  0  0  0  0  0  0  0  0
  139.1710   71.8910  222.1760 C   0  0  0  0  0  0  0  0  0  0  0  0
  138.0520   72.7960  222.2100 N   0  0  0  0  0  0  0  0  0  0  0  0
  137.6480   73.3790  220.9570 C   0  0  0  0  0  0  0  0  0  0  0  0
  137.7670   74.8610  221.0170 C   0  0  0  0  0  0  0  0  0  0  0  0
  136.7750   75.6340  220.9700 O   0  0  0  0  0  0  0  0  0  0  0  0
  139.0510   75.4640  221.1330 N   0  0  0  0  0  0  0  0  0  0  0  0
  139.8870   75.3910  222.3180 C   0  0  0  0  0  0  0  0  0  0  0  0
  140.7800   76.6320  222.2350 C   0  0  0  0  0  0  0  0  0  0  0  0
  140.1980   77.4260  221.0580 C   0  0  0  0  0  0  0  0  0  0  0  0
  139.7920   76.2480  220.1610 C   0  0  1  0  0  0  0  0  0  0  0  0
  141.0510   75.5660  219.7690 C   0  0  0  0  0  0  0  0  0  0  0  0
  142.0640   76.1710  219.3550 O   0  0  0  0  0  0  0  0  0  0  0  0
  141.1110   74.1590  219.8680 N   0  0  0  0  0  0  0  0  0  0  0  0
  142.3240   73.4440  219.4950 C   0  0  1  0  0  0  0  0  0  0  0  0
  143.3390   73.7070  220.5760 C   0  0  0  0  0  0  0  0  0  0  0  0
  144.4590   72.7190  220.6350 C   0  0  0  0  0  0  0  0  0  0  0  0
  144.0870   71.2930  220.4490 C   0  0  2  0  0  0  0  0  0  0  0  0
  144.6400   70.7100  219.2760 O   0  0  0  0  0  0  0  0  0  0  0  0
  144.7950   69.3120  219.2890 C   0  0  0  0  0  0  0  0  0  0  0  0
  145.9710   68.8060  219.7110 N   0  0  0  0  0  0  0  0  0  0  0  0
  146.1170   67.4540  219.7210 C   0  0  0  0  0  0  0  0  0  0  0  0
  145.0590   66.6560  219.3020 C   0  0  0  0  0  0  0  0  0  0  0  0
  143.8550   67.2130  218.8720 C   0  0  0  0  0  0  0  0  0  0  0  0
  143.7710   68.5510  218.8830 N   0  0  0  0  0  0  0  0  0  0  0  0
  142.5840   71.1600  220.4800 C   0  0  0  0  0  0  0  0  0  0  0  0
  142.0490   71.9670  219.3170 C   0  0  0  0  0  0  0  0  0  0  0  0
  139.6300   71.2670  223.4120 C   0  0  0  0  0  0  0  0  0  0  0  0
  140.5770   71.9310  224.1660 C   0  0  0  0  0  0  0  0  0  0  0  0
  141.0770   71.4250  225.3530 C   0  0  0  0  0  0  0  0  0  0  0  0
  140.5830   70.1950  225.7700 C   0  0  0  0  0  0  0  0  0  0  0  0
  141.0880   69.6940  226.9590 C   0  0  0  0  0  0  0  0  0  0  0  0
  140.6040   68.4600  227.3950 C   0  0  0  0  0  0  0  0  0  0  0  0
  141.0670   67.9330  228.5470 F   0  0  0  0  0  0  0  0  0  0  0  0
  139.6510   67.7930  226.6330 C   0  0  0  0  0  0  0  0  0  0  0  0
  139.1750   68.3330  225.4510 C   0  0  0  0  0  0  0  0  0  0  0  0
  139.6400   69.5360  225.0150 C   0  0  0  0  0  0  0  0  0  0  0  0
  139.1770   70.0780  223.8510 N   0  0  0  0  0  0  0  0  0  0  0  0
  137.5720   73.0010  223.1250 H   0  0  0  0  0  0  0  0  0  0  0  0
  138.2931   72.9950  220.1530 H   0  0  0  0  0  0  0  0  0  0  0  0
  136.5998   73.1111  220.7582 H   0  0  0  0  0  0  0  0  0  0  0  0
  139.2720   75.4150  223.2297 H   0  0  0  0  0  0  0  0  0  0  0  0
  140.4696   74.4590  222.3618 H   0  0  0  0  0  0  0  0  0  0  0  0
  140.7265   77.2158  223.1657 H   0  0  0  0  0  0  0  0  0  0  0  0
  141.8421   76.3823  222.0950 H   0  0  0  0  0  0  0  0  0  0  0  0
  139.3325   78.0353  221.3576 H   0  0  0  0  0  0  0  0  0  0  0  0
  140.8747   78.1621  220.5995 H   0  0  0  0  0  0  0  0  0  0  0  0
  139.2313   76.4640  219.2396 H   0  0  0  0  0  0  0  0  0  0  0  0
  140.2920   73.5860  220.2100 H   0  0  0  0  0  0  0  0  0  0  0  0
  142.7092   73.7955  218.5265 H   0  0  0  0  0  0  0  0  0  0  0  0
  142.8187   73.6934  221.5451 H   0  0  0  0  0  0  0  0  0  0  0  0
  143.7954   74.6804  220.3434 H   0  0  0  0  0  0  0  0  0  0  0  0
  144.9392   72.8147  221.6200 H   0  0  0  0  0  0  0  0  0  0  0  0
  145.1134   72.9653  219.7858 H   0  0  0  0  0  0  0  0  0  0  0  0
  144.5250   70.7256  221.2834 H   0  0  0  0  0  0  0  0  0  0  0  0
  147.0602   66.9979  220.0563 H   0  0  0  0  0  0  0  0  0  0  0  0
  145.1738   65.5620  219.3097 H   0  0  0  0  0  0  0  0  0  0  0  0
  143.0151   66.5851  218.5399 H   0  0  0  0  0  0  0  0  0  0  0  0
  142.1885   71.5539  221.4279 H   0  0  0  0  0  0  0  0  0  0  0  0
  142.2796   70.1059  220.4018 H   0  0  0  0  0  0  0  0  0  0  0  0
  140.9625   71.8118  219.2439 H   0  0  0  0  0  0  0  0  0  0  0  0
  142.5549   71.6294  218.4005 H   0  0  0  0  0  0  0  0  0  0  0  0
  140.9494   72.9023  223.8084 H   0  0  0  0  0  0  0  0  0  0  0  0
  141.8306   71.9712  225.9393 H   0  0  0  0  0  0  0  0  0  0  0  0
  141.8420   70.2481  227.5374 H   0  0  0  0  0  0  0  0  0  0  0  0
  139.2691   66.8199  226.9754 H   0  0  0  0  0  0  0  0  0  0  0  0
  138.4203   67.7898  224.8633 H   0  0  0  0  0  0  0  0  0  0  0  0
  1  2  2  0
  2  3  1  0
  3  4  1  0
  4  5  1  0
  5  6  2  0
  5  7  1  0
  7  8  1  0
  8  9  1  0
  9 10  1  0
 10 11  1  0
 11 12  1  0
 12 13  2  0
 12 14  1  0
 14 15  1  0
 15 16  1  0
 16 17  1  0
 17 18  1  0
 18 19  1  0
 19 20  1  0
 20 21  2  0
 21 22  1  0
 22 23  2  0
 23 24  1  0
 24 25  2  0
 18 26  1  0
 26 27  1  0
  2 28  1  0
 28 29  2  0
 29 30  1  0
 30 31  2  0
 31 32  1  0
 32 33  2  0
 33 34  1  0
 33 35  1  0
 35 36  2  0
 36 37  1  0
 37 38  2  0
 11  7  1  0
 27 15  1  0
 38 28  1  0
 25 20  1  0
 37 31  1  0
  3 39  1  0
  4 40  1  0
  4 41  1  0
  8 42  1  0
  8 43  1  0
  9 44  1  0
  9 45  1  0
 10 46  1  0
 10 47  1  0
 11 48  1  6
 14 49  1  0
 15 50  1  6
 16 51  1  0
 16 52  1  0
 17 53  1  0
 17 54  1  0
 18 55  1  1
 22 56  1  0
 23 57  1  0
 24 58  1  0
 26 59  1  0
 26 60  1  0
 27 61  1  0
 27 62  1  0
 29 63  1  0
 30 64  1  0
 32 65  1  0
 35 66  1  0
 36 67  1  0
M  END
>  <smiles>  (2) 
O=C(NCC(=O)N1CCC[C@H]1C(=O)N[C@H]1CC[C@H](Oc2ncccn2)CC1)c1ccc2cc(F)ccc2n1

>  <score_type>  (2) 
oracle

>  <origin>  (2) 
autodockgpu

>  <m_score__min__energy>  (2) 
-9.4299999999999997

>  <m_primary>  (2) 
energy

>  <rmsd>  (2) 
5.171388135033945

>  <m_score__min__rmsd>  (2) 
5.171388135033945

>  <meeko>  (2) 
{"free_energy": -7.69, "intermolecular_energy": -10.08, "internal_energy": -3.39, "cluster_size": 15, "cluster_id": 1, "rank_in_cluster": 13}

>  <energy>  (2) 
-9.32

>  <cluster_rmsd>  (2) 
0.21

>  <cluster>  (2) 
1

$$$$

     RDKit          3D

 67 71  0  0  0  0  0  0  0  0999 V2000
  140.3830   72.9730  222.5640 O   0  0  0  0  0  0  0  0  0  0  0  0
  140.1880   71.7230  222.7370 C   0  0  0  0  0  0  0  0  0  0  0  0
  139.8640   70.9010  221.6010 N   0  0  0  0  0  0  0  0  0  0  0  0
  139.7820   71.5590  220.3240 C   0  0  0  0  0  0  0  0  0  0  0  0
  141.1040   71.5270  219.6420 C   0  0  0  0  0  0  0  0  0  0  0  0
  141.7610   70.4690  219.4610 O   0  0  0  0  0  0  0  0  0  0  0  0
  141.6810   72.7340  219.1580 N   0  0  0  0  0  0  0  0  0  0  0  0
  141.0930   73.5650  218.1220 C   0  0  0  0  0  0  0  0  0  0  0  0
  142.2800   74.3160  217.5110 C   0  0  0  0  0  0  0  0  0  0  0  0
  143.5040   73.6570  218.1620 C   0  0  0  0  0  0  0  0  0  0  0  0
  142.9140   73.3900  219.5530 C   0  0  1  0  0  0  0  0  0  0  0  0
  142.6450   74.7200  220.1560 C   0  0  0  0  0  0  0  0  0  0  0  0
  143.4470   75.6780  220.1010 O   0  0  0  0  0  0  0  0  0  0  0  0
  141.4200   74.9170  220.8290 N   0  0  0  0  0  0  0  0  0  0  0  0
  141.1100   76.2030  221.4370 C   0  0  1  0  0  0  0  0  0  0  0  0
  140.8860   77.1790  220.3130 C   0  0  0  0  0  0  0  0  0  0  0  0
  140.1150   78.4020  220.6910 C   0  0  0  0  0  0  0  0  0  0  0  0
  138.9500   78.1920  221.5900 C   0  0  2  0  0  0  0  0  0  0  0  0
  139.0960   78.8110  222.8610 O   0  0  0  0  0  0  0  0  0  0  0  0
  140.2840   79.5330  223.0710 C   0  0  0  0  0  0  0  0  0  0  0  0
  140.2920   80.8470  222.7730 N   0  0  0  0  0  0  0  0  0  0  0  0
  141.4440   81.5410  222.9760 C   0  0  0  0  0  0  0  0  0  0  0  0
  142.5550   80.8750  223.4790 C   0  0  0  0  0  0  0  0  0  0  0  0
  142.5130   79.5140  223.7770 C   0  0  0  0  0  0  0  0  0  0  0  0
  141.3500   78.8830  223.5550 N   0  0  0  0  0  0  0  0  0  0  0  0
  138.6780   76.7140  221.7190 C   0  0  0  0  0  0  0  0  0  0  0  0
  139.9080   76.0960  222.3490 C   0  0  0  0  0  0  0  0  0  0  0  0
  140.2870   71.1160  224.0600 C   0  0  0  0  0  0  0  0  0  0  0  0
  140.7490   71.8940  225.1030 C   0  0  0  0  0  0  0  0  0  0  0  0
  140.8780   71.4130  226.3940 C   0  0  0  0  0  0  0  0  0  0  0  0
  140.5210   70.0880  226.6110 C   0  0  0  0  0  0  0  0  0  0  0  0
  140.6540   69.6130  227.9060 C   0  0  0  0  0  0  0  0  0  0  0  0
  140.3000   68.2850  228.1430 C   0  0  0  0  0  0  0  0  0  0  0  0
  140.4130   67.7790  229.3890 F   0  0  0  0  0  0  0  0  0  0  0  0
  139.8360   67.5030  227.0910 C   0  0  0  0  0  0  0  0  0  0  0  0
  139.7190   68.0210  225.8130 C   0  0  0  0  0  0  0  0  0  0  0  0
  140.0620   69.3160  225.5690 C   0  0  0  0  0  0  0  0  0  0  0  0
  139.9510   69.8370  224.3120 N   0  0  0  0  0  0  0  0  0  0  0  0
  139.7010   69.8670  221.7310 H   0  0  0  0  0  0  0  0  0  0  0  0
  139.0379   71.0450  219.6978 H   0  0  0  0  0  0  0  0  0  0  0  0
  139.4841   72.6065  220.4792 H   0  0  0  0  0  0  0  0  0  0  0  0
  140.5934   72.9447  217.3632 H   0  0  0  0  0  0  0  0  0  0  0  0
  140.3265   74.2471  218.5185 H   0  0  0  0  0  0  0  0  0  0  0  0
  142.3024   74.1911  216.4183 H   0  0  0  0  0  0  0  0  0  0  0  0
  142.2351   75.4004  217.6898 H   0  0  0  0  0  0  0  0  0  0  0  0
  143.7939   72.7273  217.6505 H   0  0  0  0  0  0  0  0  0  0  0  0
  144.4294   74.2514  218.1444 H   0  0  0  0  0  0  0  0  0  0  0  0
  143.5156   72.8149  220.2723 H   0  0  0  0  0  0  0  0  0  0  0  0
  140.6980   74.1510  220.9130 H   0  0  0  0  0  0  0  0  0  0  0  0
  141.9378   76.5494  222.0731 H   0  0  0  0  0  0  0  0  0  0  0  0
  140.3357   76.6606  219.5139 H   0  0  0  0  0  0  0  0  0  0  0  0
  141.8820   77.5248  219.9993 H   0  0  0  0  0  0  0  0  0  0  0  0
  139.7447   78.8649  219.7644 H   0  0  0  0  0  0  0  0  0  0  0  0
  140.8173   79.0281  221.2609 H   0  0  0  0  0  0  0  0  0  0  0  0
  138.0825   78.6872  221.1293 H   0  0  0  0  0  0  0  0  0  0  0  0
  141.4955   82.6152  222.7451 H   0  0  0  0  0  0  0  0  0  0  0  0
  143.4877   81.4339  223.6456 H   0  0  0  0  0  0  0  0  0  0  0  0
  143.3905   78.9832  224.1747 H   0  0  0  0  0  0  0  0  0  0  0  0
  138.4990   76.2739  220.7269 H   0  0  0  0  0  0  0  0  0  0  0  0
  137.7847   76.5294  222.3338 H   0  0  0  0  0  0  0  0  0  0  0  0
  139.7090   75.0340  222.5552 H   0  0  0  0  0  0  0  0  0  0  0  0
  140.1303   76.6400  223.2789 H   0  0  0  0  0  0  0  0  0  0  0  0
  141.0258   72.9389  224.8993 H   0  0  0  0  0  0  0  0  0  0  0  0
  141.2464   72.0506  227.2112 H   0  0  0  0  0  0  0  0  0  0  0  0
  141.0246   70.2586  228.7159 H   0  0  0  0  0  0  0  0  0  0  0  0
  139.5573   66.4554  227.2777 H   0  0  0  0  0  0  0  0  0  0  0  0
  139.3489   67.3865  224.9942 H   0  0  0  0  0  0  0  0  0  0  0  0
  1  2  2  0
  2  3  1  0
  3  4  1  0
  4  5  1  0
  5  6  2  0
  5  7  1  0
  7  8  1  0
  8  9  1  0
  9 10  1  0
 10 11  1  0
 11 12  1  0
 12 13  2  0
 12 14  1  0
 14 15  1  0
 15 16  1  0
 16 17  1  0
 17 18  1  0
 18 19  1  0
 19 20  1  0
 20 21  2  0
 21 22  1  0
 22 23  2  0
 23 24  1  0
 24 25  2  0
 18 26  1  0
 26 27  1  0
  2 28  1  0
 28 29  2  0
 29 30  1  0
 30 31  2  0
 31 32  1  0
 32 33  2  0
 33 34  1  0
 33 35  1  0
 35 36  2  0
 36 37  1  0
 37 38  2  0
 11  7  1  0
 27 15  1  0
 38 28  1  0
 25 20  1  0
 37 31  1  0
  3 39  1  0
  4 40  1  0
  4 41  1  0
  8 42  1  0
  8 43  1  0
  9 44  1  0
  9 45  1  0
 10 46  1  0
 10 47  1  0
 11 48  1  1
 14 49  1  0
 15 50  1  1
 16 51  1  0
 16 52  1  0
 17 53  1  0
 17 54  1  0
 18 55  1  6
 22 56  1  0
 23 57  1  0
 24 58  1  0
 26 59  1  0
 26 60  1  0
 27 61  1  0
 27 62  1  0
 29 63  1  0
 30 64  1  0
 32 65  1  0
 35 66  1  0
 36 67  1  0
M  END
>  <smiles>  (3) 
O=C(NCC(=O)N1CCC[C@H]1C(=O)N[C@H]1CC[C@H](Oc2ncccn2)CC1)c1ccc2cc(F)ccc2n1

>  <score_type>  (3) 
oracle

>  <origin>  (3) 
autodockgpu

>  <m_score__min__energy>  (3) 
-9.4299999999999997

>  <m_primary>  (3) 
energy

>  <rmsd>  (3) 
3.8067949287569034

>  <m_score__min__rmsd>  (3) 
3.8067949287569034

>  <meeko>  (3) 
{"free_energy": -8.05, "intermolecular_energy": -10.43, "internal_energy": -3.47, "cluster_size": 17, "cluster_id": 2, "rank_in_cluster": 16}

>  <energy>  (3) 
-9.25

>  <cluster_rmsd>  (3) 
0.84

>  <cluster>  (3) 
1

$$$$

     RDKit          3D

 67 71  0  0  0  0  0  0  0  0999 V2000
  137.6640   70.1860  221.8800 O   0  0  0  0  0  0  0  0  0  0  0  0
  138.2200   70.8650  222.8090 C   0  0  0  0  0  0  0  0  0  0  0  0
  138.2780   72.2980  222.6900 N   0  0  0  0  0  0  0  0  0  0  0  0
  137.6930   72.8780  221.5100 C   0  0  0  0  0  0  0  0  0  0  0  0
  138.7210   73.0270  220.4450 C   0  0  0  0  0  0  0  0  0  0  0  0
  138.8060   72.2530  219.4560 O   0  0  0  0  0  0  0  0  0  0  0  0
  139.6680   74.0860  220.5180 N   0  0  0  0  0  0  0  0  0  0  0  0
  140.0780   74.8990  219.3870 C   0  0  0  0  0  0  0  0  0  0  0  0
  141.4730   75.4060  219.7620 C   0  0  0  0  0  0  0  0  0  0  0  0
  141.8110   74.6320  221.0450 C   0  0  0  0  0  0  0  0  0  0  0  0
  140.4070   74.5830  221.6640 C   0  0  1  0  0  0  0  0  0  0  0  0
  140.0370   75.9870  221.9740 C   0  0  0  0  0  0  0  0  0  0  0  0
  138.8630   76.4160  221.9390 O   0  0  0  0  0  0  0  0  0  0  0  0
  141.0640   76.8900  222.3280 N   0  0  0  0  0  0  0  0  0  0  0  0
  140.7510   78.2770  222.6400 C   0  0  1  0  0  0  0  0  0  0  0  0
  141.8570   78.7880  223.5250 C   0  0  0  0  0  0  0  0  0  0  0  0
  141.9800   80.2770  223.5740 C   0  0  0  0  0  0  0  0  0  0  0  0
  141.8220   80.9920  222.2810 C   0  0  2  0  0  0  0  0  0  0  0  0
  140.6850   81.8440  222.2390 O   0  0  0  0  0  0  0  0  0  0  0  0
  140.6850   82.8350  221.2410 C   0  0  0  0  0  0  0  0  0  0  0  0
  141.0250   82.4750  219.9870 N   0  0  0  0  0  0  0  0  0  0  0  0
  141.0250   83.4360  219.0250 C   0  0  0  0  0  0  0  0  0  0  0  0
  140.6770   84.7370  219.3690 C   0  0  0  0  0  0  0  0  0  0  0  0
  140.3300   85.0750  220.6760 C   0  0  0  0  0  0  0  0  0  0  0  0
  140.3490   84.0850  221.5810 N   0  0  0  0  0  0  0  0  0  0  0  0
  141.8070   79.9900  221.1540 C   0  0  0  0  0  0  0  0  0  0  0  0
  140.6050   79.0970  221.3770 C   0  0  0  0  0  0  0  0  0  0  0  0
  138.7960   70.2150  223.9810 C   0  0  0  0  0  0  0  0  0  0  0  0
  138.7110   68.8400  224.0740 C   0  0  0  0  0  0  0  0  0  0  0  0
  139.2260   68.1310  225.1440 C   0  0  0  0  0  0  0  0  0  0  0  0
  139.8440   68.8650  226.1480 C   0  0  0  0  0  0  0  0  0  0  0  0
  140.3570   68.1480  227.2180 C   0  0  0  0  0  0  0  0  0  0  0  0
  140.9820   68.8690  228.2360 C   0  0  0  0  0  0  0  0  0  0  0  0
  141.4950   68.2120  229.2960 F   0  0  0  0  0  0  0  0  0  0  0  0
  141.0650   70.2540  228.1400 C   0  0  0  0  0  0  0  0  0  0  0  0
  140.5390   70.9280  227.0520 C   0  0  0  0  0  0  0  0  0  0  0  0
  139.9260   70.2350  226.0520 C   0  0  0  0  0  0  0  0  0  0  0  0
  139.4030   70.8910  224.9740 N   0  0  0  0  0  0  0  0  0  0  0  0
  138.7340   72.8680  223.4500 H   0  0  0  0  0  0  0  0  0  0  0  0
  136.8857   72.2251  221.1466 H   0  0  0  0  0  0  0  0  0  0  0  0
  137.2904   73.8705  221.7606 H   0  0  0  0  0  0  0  0  0  0  0  0
  140.1182   74.2948  218.4686 H   0  0  0  0  0  0  0  0  0  0  0  0
  139.3749   75.7211  219.1873 H   0  0  0  0  0  0  0  0  0  0  0  0
  142.1986   75.1816  218.9663 H   0  0  0  0  0  0  0  0  0  0  0  0
  141.5061   76.4966  219.9017 H   0  0  0  0  0  0  0  0  0  0  0  0
  142.2038   73.6272  220.8305 H   0  0  0  0  0  0  0  0  0  0  0  0
  142.5942   75.0767  221.6766 H   0  0  0  0  0  0  0  0  0  0  0  0
  140.2616   73.9917  222.5801 H   0  0  0  0  0  0  0  0  0  0  0  0
  142.0760   76.5940  222.3760 H   0  0  0  0  0  0  0  0  0  0  0  0
  139.7861   78.3578  223.1620 H   0  0  0  0  0  0  0  0  0  0  0  0
  142.8085   78.3775  223.1560 H   0  0  0  0  0  0  0  0  0  0  0  0
  141.6127   78.4625  224.5470 H   0  0  0  0  0  0  0  0  0  0  0  0
  142.9770   80.5183  223.9712 H   0  0  0  0  0  0  0  0  0  0  0  0
  141.1460   80.6204  224.2037 H   0  0  0  0  0  0  0  0  0  0  0  0
  142.6862   81.6629  222.1664 H   0  0  0  0  0  0  0  0  0  0  0  0
  141.2967   83.1872  217.9885 H   0  0  0  0  0  0  0  0  0  0  0  0
  140.6754   85.5167  218.5931 H   0  0  0  0  0  0  0  0  0  0  0  0
  140.0540   86.1035  220.9519 H   0  0  0  0  0  0  0  0  0  0  0  0
  142.7302   79.3921  221.1668 H   0  0  0  0  0  0  0  0  0  0  0  0
  141.7475   80.4948  220.1785 H   0  0  0  0  0  0  0  0  0  0  0  0
  140.5010   78.4166  220.5190 H   0  0  0  0  0  0  0  0  0  0  0  0
  139.7150   79.7352  221.4804 H   0  0  0  0  0  0  0  0  0  0  0  0
  138.2135   68.2861  223.2643 H   0  0  0  0  0  0  0  0  0  0  0  0
  139.1495   67.0350  225.1974 H   0  0  0  0  0  0  0  0  0  0  0  0
  140.2744   67.0520  227.2627 H   0  0  0  0  0  0  0  0  0  0  0  0
  141.5571   70.8232  228.9425 H   0  0  0  0  0  0  0  0  0  0  0  0
  140.6158   72.0238  226.9945 H   0  0  0  0  0  0  0  0  0  0  0  0
  1  2  2  0
  2  3  1  0
  3  4  1  0
  4  5  1  0
  5  6  2  0
  5  7  1  0
  7  8  1  0
  8  9  1  0
  9 10  1  0
 10 11  1  0
 11 12  1  0
 12 13  2  0
 12 14  1  0
 14 15  1  0
 15 16  1  0
 16 17  1  0
 17 18  1  0
 18 19  1  0
 19 20  1  0
 20 21  2  0
 21 22  1  0
 22 23  2  0
 23 24  1  0
 24 25  2  0
 18 26  1  0
 26 27  1  0
  2 28  1  0
 28 29  2  0
 29 30  1  0
 30 31  2  0
 31 32  1  0
 32 33  2  0
 33 34  1  0
 33 35  1  0
 35 36  2  0
 36 37  1  0
 37 38  2  0
 11  7  1  0
 27 15  1  0
 38 28  1  0
 25 20  1  0
 37 31  1  0
  3 39  1  0
  4 40  1  0
  4 41  1  0
  8 42  1  0
  8 43  1  0
  9 44  1  0
  9 45  1  0
 10 46  1  0
 10 47  1  0
 11 48  1  1
 14 49  1  0
 15 50  1  1
 16 51  1  0
 16 52  1  0
 17 53  1  0
 17 54  1  0
 18 55  1  6
 22 56  1  0
 23 57  1  0
 24 58  1  0
 26 59  1  0
 26 60  1  0
 27 61  1  0
 27 62  1  0
 29 63  1  0
 30 64  1  0
 32 65  1  0
 35 66  1  0
 36 67  1  0
M  END
>  <smiles>  (4) 
O=C(NCC(=O)N1CCC[C@H]1C(=O)N[C@H]1CC[C@H](Oc2ncccn2)CC1)c1ccc2cc(F)ccc2n1

>  <score_type>  (4) 
oracle

>  <origin>  (4) 
autodockgpu

>  <m_score__min__energy>  (4) 
-9.4299999999999997

>  <m_primary>  (4) 
energy

>  <rmsd>  (4) 
2.1474576185940593

>  <m_score__min__rmsd>  (4) 
2.1474576185940593

>  <meeko>  (4) 
{"free_energy": -8.84, "intermolecular_energy": -11.23, "internal_energy": -2.06, "cluster_size": 2, "cluster_id": 3, "rank_in_cluster": 1}

>  <energy>  (4) 
-9.01

>  <cluster_rmsd>  (4) 
1.24

>  <cluster>  (4) 
1

$$$$

     RDKit          3D

 67 71  0  0  0  0  0  0  0  0999 V2000
  137.0620   69.5660  222.3050 O   0  0  0  0  0  0  0  0  0  0  0  0
  137.4960   70.3620  223.2050 C   0  0  0  0  0  0  0  0  0  0  0  0
  137.1810   71.7640  223.1110 N   0  0  0  0  0  0  0  0  0  0  0  0
  136.3830   72.1780  221.9880 C   0  0  0  0  0  0  0  0  0  0  0  0
  137.0930   71.8790  220.7140 C   0  0  0  0  0  0  0  0  0  0  0  0
  136.6130   71.1420  219.8140 O   0  0  0  0  0  0  0  0  0  0  0  0
  138.3780   72.4410  220.4710 N   0  0  0  0  0  0  0  0  0  0  0  0
  138.7410   73.1670  219.2670 C   0  0  0  0  0  0  0  0  0  0  0  0
  140.2600   73.0050  219.1640 C   0  0  0  0  0  0  0  0  0  0  0  0
  140.5960   71.9890  220.2640 C   0  0  0  0  0  0  0  0  0  0  0  0
  139.5620   72.4280  221.3100 C   0  0  1  0  0  0  0  0  0  0  0  0
  139.9420   73.8020  221.7240 C   0  0  0  0  0  0  0  0  0  0  0  0
  141.1180   74.1480  221.9740 O   0  0  0  0  0  0  0  0  0  0  0  0
  138.9240   74.7730  221.8430 N   0  0  0  0  0  0  0  0  0  0  0  0
  139.2470   76.1340  222.2460 C   0  0  1  0  0  0  0  0  0  0  0  0
  139.5020   76.9170  220.9860 C   0  0  0  0  0  0  0  0  0  0  0  0
  139.3860   78.4000  221.1380 C   0  0  0  0  0  0  0  0  0  0  0  0
  138.2560   78.8890  221.9690 C   0  0  2  0  0  0  0  0  0  0  0  0
  138.6710   79.5600  223.1520 O   0  0  0  0  0  0  0  0  0  0  0  0
  140.0420   79.8600  223.2500 C   0  0  0  0  0  0  0  0  0  0  0  0
  140.8720   78.9030  223.7090 N   0  0  0  0  0  0  0  0  0  0  0  0
  142.1960   79.1970  223.8030 C   0  0  0  0  0  0  0  0  0  0  0  0
  142.6370   80.4590  223.4240 C   0  0  0  0  0  0  0  0  0  0  0  0
  141.7510   81.4270  222.9530 C   0  0  0  0  0  0  0  0  0  0  0  0
  140.4570   81.0790  222.8830 N   0  0  0  0  0  0  0  0  0  0  0  0
  137.3290   77.7400  222.2790 C   0  0  0  0  0  0  0  0  0  0  0  0
  138.1310   76.7330  223.0750 C   0  0  0  0  0  0  0  0  0  0  0  0
  138.3010   69.8790  224.3210 C   0  0  0  0  0  0  0  0  0  0  0  0
  138.4100   68.5150  224.5050 C   0  0  0  0  0  0  0  0  0  0  0  0
  139.1500   67.9560  225.5320 C   0  0  0  0  0  0  0  0  0  0  0  0
  139.7940   68.8340  226.3940 C   0  0  0  0  0  0  0  0  0  0  0  0
  140.5330   68.2680  227.4210 C   0  0  0  0  0  0  0  0  0  0  0  0
  141.1880   69.1340  228.2960 C   0  0  0  0  0  0  0  0  0  0  0  0
  141.9180   68.6270  229.3110 F   0  0  0  0  0  0  0  0  0  0  0  0
  141.0760   70.5070  228.1090 C   0  0  0  0  0  0  0  0  0  0  0  0
  140.3270   71.0290  227.0680 C   0  0  0  0  0  0  0  0  0  0  0  0
  139.6830   70.1930  226.2070 C   0  0  0  0  0  0  0  0  0  0  0  0
  138.9410   70.6960  225.1770 N   0  0  0  0  0  0  0  0  0  0  0  0
  137.5330   72.4300  223.8480 H   0  0  0  0  0  0  0  0  0  0  0  0
  135.4245   71.6386  222.0049 H   0  0  0  0  0  0  0  0  0  0  0  0
  136.2056   73.2616  222.0540 H   0  0  0  0  0  0  0  0  0  0  0  0
  138.2433   72.7337  218.3869 H   0  0  0  0  0  0  0  0  0  0  0  0
  138.4350   74.2228  219.3073 H   0  0  0  0  0  0  0  0  0  0  0  0
  140.5467   72.6200  218.1743 H   0  0  0  0  0  0  0  0  0  0  0  0
  140.7982   73.9566  219.2855 H   0  0  0  0  0  0  0  0  0  0  0  0
  140.4350   70.9525  219.9329 H   0  0  0  0  0  0  0  0  0  0  0  0
  141.6425   71.9832  220.6028 H   0  0  0  0  0  0  0  0  0  0  0  0
  139.4561   71.8241  222.2233 H   0  0  0  0  0  0  0  0  0  0  0  0
  137.9110   74.5480  221.6480 H   0  0  0  0  0  0  0  0  0  0  0  0
  140.1407   76.1556  222.8869 H   0  0  0  0  0  0  0  0  0  0  0  0
  138.7744   76.5923  220.2276 H   0  0  0  0  0  0  0  0  0  0  0  0
  140.5447   76.7145  220.6999 H   0  0  0  0  0  0  0  0  0  0  0  0
  139.2747   78.8325  220.1327 H   0  0  0  0  0  0  0  0  0  0  0  0
  140.2975   78.7132  221.6681 H   0  0  0  0  0  0  0  0  0  0  0  0
  137.7184   79.6486  221.3824 H   0  0  0  0  0  0  0  0  0  0  0  0
  142.9087   78.4458  224.1741 H   0  0  0  0  0  0  0  0  0  0  0  0
  143.7079   80.6994  223.4971 H   0  0  0  0  0  0  0  0  0  0  0  0
  142.0961   82.4276  222.6533 H   0  0  0  0  0  0  0  0  0  0  0  0
  136.9670   77.2833  221.3461 H   0  0  0  0  0  0  0  0  0  0  0  0
  136.4516   78.0831  222.8469 H   0  0  0  0  0  0  0  0  0  0  0  0
  137.4616   75.9267  223.4094 H   0  0  0  0  0  0  0  0  0  0  0  0
  138.5796   77.2511  223.9354 H   0  0  0  0  0  0  0  0  0  0  0  0
  137.8871   67.8451  223.8065 H   0  0  0  0  0  0  0  0  0  0  0  0
  139.2247   66.8660  225.6598 H   0  0  0  0  0  0  0  0  0  0  0  0
  140.6003   67.1767  227.5413 H   0  0  0  0  0  0  0  0  0  0  0  0
  141.5913   71.1905  228.7999 H   0  0  0  0  0  0  0  0  0  0  0  0
  140.2521   72.1185  226.9364 H   0  0  0  0  0  0  0  0  0  0  0  0
  1  2  2  0
  2  3  1  0
  3  4  1  0
  4  5  1  0
  5  6  2  0
  5  7  1  0
  7  8  1  0
  8  9  1  0
  9 10  1  0
 10 11  1  0
 11 12  1  0
 12 13  2  0
 12 14  1  0
 14 15  1  0
 15 16  1  0
 16 17  1  0
 17 18  1  0
 18 19  1  0
 19 20  1  0
 20 21  2  0
 21 22  1  0
 22 23  2  0
 23 24  1  0
 24 25  2  0
 18 26  1  0
 26 27  1  0
  2 28  1  0
 28 29  2  0
 29 30  1  0
 30 31  2  0
 31 32  1  0
 32 33  2  0
 33 34  1  0
 33 35  1  0
 35 36  2  0
 36 37  1  0
 37 38  2  0
 11  7  1  0
 27 15  1  0
 38 28  1  0
 25 20  1  0
 37 31  1  0
  3 39  1  0
  4 40  1  0
  4 41  1  0
  8 42  1  0
  8 43  1  0
  9 44  1  0
  9 45  1  0
 10 46  1  0
 10 47  1  0
 11 48  1  1
 14 49  1  0
 15 50  1  1
 16 51  1  0
 16 52  1  0
 17 53  1  0
 17 54  1  0
 18 55  1  6
 22 56  1  0
 23 57  1  0
 24 58  1  0
 26 59  1  0
 26 60  1  0
 27 61  1  0
 27 62  1  0
 29 63  1  0
 30 64  1  0
 32 65  1  0
 35 66  1  0
 36 67  1  0
M  END
>  <smiles>  (5) 
O=C(NCC(=O)N1CCC[C@H]1C(=O)N[C@H]1CC[C@H](Oc2ncccn2)CC1)c1ccc2cc(F)ccc2n1

>  <score_type>  (5) 
oracle

>  <origin>  (5) 
autodockgpu

>  <m_score__min__energy>  (5) 
-9.4299999999999997

>  <m_primary>  (5) 
energy

>  <rmsd>  (5) 
3.603603619721069

>  <m_score__min__rmsd>  (5) 
3.603603619721069

>  <meeko>  (5) 
{"free_energy": -7.82, "intermolecular_energy": -10.21, "internal_energy": -2.66, "cluster_size": 1, "cluster_id": 5, "rank_in_cluster": 1}

>  <energy>  (5) 
-8.94

>  <cluster_rmsd>  (5) 
0.81

>  <cluster>  (5) 
1

$$$$

     RDKit          3D

 67 71  0  0  0  0  0  0  0  0999 V2000
  139.9420   72.9870  222.7370 O   0  0  0  0  0  0  0  0  0  0  0  0
  140.0790   71.7240  222.8680 C   0  0  0  0  0  0  0  0  0  0  0  0
  140.0240   70.8890  221.6970 N   0  0  0  0  0  0  0  0  0  0  0  0
  139.8140   71.5500  220.4350 C   0  0  0  0  0  0  0  0  0  0  0  0
  140.9920   71.3490  219.5470 C   0  0  0  0  0  0  0  0  0  0  0  0
  141.1590   70.3160  218.8480 O   0  0  0  0  0  0  0  0  0  0  0  0
  141.9930   72.3560  219.4610 N   0  0  0  0  0  0  0  0  0  0  0  0
  142.3230   73.0830  218.2480 C   0  0  0  0  0  0  0  0  0  0  0  0
  143.7740   73.5300  218.4500 C   0  0  0  0  0  0  0  0  0  0  0  0
  144.2040   72.8090  219.7350 C   0  0  0  0  0  0  0  0  0  0  0  0
  142.8720   72.8720  220.4950 C   0  0  1  0  0  0  0  0  0  0  0  0
  142.6070   74.3090  220.7570 C   0  0  0  0  0  0  0  0  0  0  0  0
  143.4250   75.2200  220.5010 O   0  0  0  0  0  0  0  0  0  0  0  0
  141.3670   74.6700  221.3270 N   0  0  0  0  0  0  0  0  0  0  0  0
  141.0600   76.0660  221.6030 C   0  0  1  0  0  0  0  0  0  0  0  0
  141.0210   76.7790  220.2770 C   0  0  0  0  0  0  0  0  0  0  0  0
  140.2800   78.0770  220.2870 C   0  0  0  0  0  0  0  0  0  0  0  0
  139.0090   78.1010  221.0560 C   0  0  2  0  0  0  0  0  0  0  0  0
  139.0400   78.9790  222.1750 O   0  0  0  0  0  0  0  0  0  0  0  0
  140.3040   79.4720  222.5450 C   0  0  0  0  0  0  0  0  0  0  0  0
  141.0040   78.7940  223.4770 N   0  0  0  0  0  0  0  0  0  0  0  0
  142.2250   79.2760  223.8320 C   0  0  0  0  0  0  0  0  0  0  0  0
  142.6980   80.4340  223.2270 C   0  0  0  0  0  0  0  0  0  0  0  0
  141.9480   81.1100  222.2660 C   0  0  0  0  0  0  0  0  0  0  0  0
  140.7510   80.5890  221.9570 N   0  0  0  0  0  0  0  0  0  0  0  0
  138.6430   76.6960  221.4630 C   0  0  0  0  0  0  0  0  0  0  0  0
  139.7560   76.1950  222.3590 C   0  0  0  0  0  0  0  0  0  0  0  0
  140.2890   71.1150  224.1760 C   0  0  0  0  0  0  0  0  0  0  0  0
  140.7900   71.9050  225.1920 C   0  0  0  0  0  0  0  0  0  0  0  0
  141.0250   71.4240  226.4670 C   0  0  0  0  0  0  0  0  0  0  0  0
  140.7340   70.0850  226.6980 C   0  0  0  0  0  0  0  0  0  0  0  0
  140.9710   69.6090  227.9780 C   0  0  0  0  0  0  0  0  0  0  0  0
  140.6850   68.2670  228.2290 C   0  0  0  0  0  0  0  0  0  0  0  0
  140.9010   67.7610  229.4600 F   0  0  0  0  0  0  0  0  0  0  0  0
  140.1810   67.4730  227.2040 C   0  0  0  0  0  0  0  0  0  0  0  0
  139.9590   67.9920  225.9410 C   0  0  0  0  0  0  0  0  0  0  0  0
  140.2350   69.3010  225.6840 C   0  0  0  0  0  0  0  0  0  0  0  0
  140.0200   69.8230  224.4410 N   0  0  0  0  0  0  0  0  0  0  0  0
  140.1360   69.8450  221.7920 H   0  0  0  0  0  0  0  0  0  0  0  0
  138.9187   71.1328  219.9509 H   0  0  0  0  0  0  0  0  0  0  0  0
  139.6777   72.6270  220.6122 H   0  0  0  0  0  0  0  0  0  0  0  0
  142.2368   72.4293  217.3675 H   0  0  0  0  0  0  0  0  0  0  0  0
  141.6452   73.9313  218.0719 H   0  0  0  0  0  0  0  0  0  0  0  0
  144.4007   73.2226  217.5998 H   0  0  0  0  0  0  0  0  0  0  0  0
  143.8764   74.6229  218.5210 H   0  0  0  0  0  0  0  0  0  0  0  0
  144.5213   71.7736  219.5418 H   0  0  0  0  0  0  0  0  0  0  0  0
  145.0700   73.2427  220.2565 H   0  0  0  0  0  0  0  0  0  0  0  0
  142.7939   72.3400  221.4546 H   0  0  0  0  0  0  0  0  0  0  0  0
  140.6310   73.9510  221.5680 H   0  0  0  0  0  0  0  0  0  0  0  0
  141.8265   76.5192  222.2488 H   0  0  0  0  0  0  0  0  0  0  0  0
  140.5385   76.1147  219.5449 H   0  0  0  0  0  0  0  0  0  0  0  0
  142.0640   77.0188  220.0226 H   0  0  0  0  0  0  0  0  0  0  0  0
  140.0463   78.3381  219.2443 H   0  0  0  0  0  0  0  0  0  0  0  0
  140.9447   78.7914  220.7947 H   0  0  0  0  0  0  0  0  0  0  0  0
  138.2298   78.5072  220.3943 H   0  0  0  0  0  0  0  0  0  0  0  0
  142.8306   78.7557  224.5886 H   0  0  0  0  0  0  0  0  0  0  0  0
  143.6855   80.8257  223.5125 H   0  0  0  0  0  0  0  0  0  0  0  0
  142.3197   82.0264  221.7843 H   0  0  0  0  0  0  0  0  0  0  0  0
  138.5556   76.0549  220.5734 H   0  0  0  0  0  0  0  0  0  0  0  0
  137.6760   76.6766  221.9870 H   0  0  0  0  0  0  0  0  0  0  0  0
  139.4761   75.2096  222.7599 H   0  0  0  0  0  0  0  0  0  0  0  0
  139.8986   76.9221  223.1720 H   0  0  0  0  0  0  0  0  0  0  0  0
  141.0114   72.9610  224.9781 H   0  0  0  0  0  0  0  0  0  0  0  0
  141.4239   72.0715  227.2617 H   0  0  0  0  0  0  0  0  0  0  0  0
  141.3696   70.2647  228.7661 H   0  0  0  0  0  0  0  0  0  0  0  0
  139.9552   66.4146  227.4010 H   0  0  0  0  0  0  0  0  0  0  0  0
  139.5595   67.3475  225.1441 H   0  0  0  0  0  0  0  0  0  0  0  0
  1  2  2  0
  2  3  1  0
  3  4  1  0
  4  5  1  0
  5  6  2  0
  5  7  1  0
  7  8  1  0
  8  9  1  0
  9 10  1  0
 10 11  1  0
 11 12  1  0
 12 13  2  0
 12 14  1  0
 14 15  1  0
 15 16  1  0
 16 17  1  0
 17 18  1  0
 18 19  1  0
 19 20  1  0
 20 21  2  0
 21 22  1  0
 22 23  2  0
 23 24  1  0
 24 25  2  0
 18 26  1  0
 26 27  1  0
  2 28  1  0
 28 29  2  0
 29 30  1  0
 30 31  2  0
 31 32  1  0
 32 33  2  0
 33 34  1  0
 33 35  1  0
 35 36  2  0
 36 37  1  0
 37 38  2  0
 11  7  1  0
 27 15  1  0
 38 28  1  0
 25 20  1  0
 37 31  1  0
  3 39  1  0
  4 40  1  0
  4 41  1  0
  8 42  1  0
  8 43  1  0
  9 44  1  0
  9 45  1  0
 10 46  1  0
 10 47  1  0
 11 48  1  1
 14 49  1  0
 15 50  1  1
 16 51  1  0
 16 52  1  0
 17 53  1  0
 17 54  1  0
 18 55  1  6
 22 56  1  0
 23 57  1  0
 24 58  1  0
 26 59  1  0
 26 60  1  0
 27 61  1  0
 27 62  1  0
 29 63  1  0
 30 64  1  0
 32 65  1  0
 35 66  1  0
 36 67  1  0
M  END
>  <smiles>  (6) 
O=C(NCC(=O)N1CCC[C@H]1C(=O)N[C@H]1CC[C@H](Oc2ncccn2)CC1)c1ccc2cc(F)ccc2n1

>  <score_type>  (6) 
oracle

>  <origin>  (6) 
autodockgpu

>  <m_score__min__energy>  (6) 
-9.4299999999999997

>  <m_primary>  (6) 
energy

>  <rmsd>  (6) 
4.141440343563117

>  <m_score__min__rmsd>  (6) 
4.141440343563117

>  <meeko>  (6) 
{"free_energy": -8.22, "intermolecular_energy": -10.61, "internal_energy": -3.24, "cluster_size": 4, "cluster_id": 4, "rank_in_cluster": 1}

>  <energy>  (6) 
-8.92

>  <cluster_rmsd>  (6) 
0.97

>  <cluster>  (6) 
1

$$$$

     RDKit          3D

 67 71  0  0  0  0  0  0  0  0999 V2000
  140.9350   72.3670  221.3030 O   0  0  0  0  0  0  0  0  0  0  0  0
  139.9100   72.0900  222.0130 C   0  0  0  0  0  0  0  0  0  0  0  0
  138.6040   72.4640  221.5340 N   0  0  0  0  0  0  0  0  0  0  0  0
  138.5460   73.1360  220.2620 C   0  0  0  0  0  0  0  0  0  0  0  0
  138.4290   74.6060  220.4620 C   0  0  0  0  0  0  0  0  0  0  0  0
  137.3320   75.2230  220.4180 O   0  0  0  0  0  0  0  0  0  0  0  0
  139.5950   75.3810  220.7170 N   0  0  0  0  0  0  0  0  0  0  0  0
  140.3540   75.3360  221.9540 C   0  0  0  0  0  0  0  0  0  0  0  0
  141.0510   76.6980  222.0280 C   0  0  0  0  0  0  0  0  0  0  0  0
  140.4310   77.4900  220.8680 C   0  0  0  0  0  0  0  0  0  0  0  0
  140.2680   76.3420  219.8620 C   0  0  1  0  0  0  0  0  0  0  0  0
  141.6400   75.8870  219.5200 C   0  0  0  0  0  0  0  0  0  0  0  0
  142.5360   76.6510  219.0990 O   0  0  0  0  0  0  0  0  0  0  0  0
  141.9520   74.5190  219.6770 N   0  0  0  0  0  0  0  0  0  0  0  0
  143.2830   74.0250  219.3550 C   0  0  1  0  0  0  0  0  0  0  0  0
  144.1910   74.4370  220.4840 C   0  0  0  0  0  0  0  0  0  0  0  0
  145.4570   73.6500  220.5860 C   0  0  0  0  0  0  0  0  0  0  0  0
  145.3390   72.1840  220.3700 C   0  0  2  0  0  0  0  0  0  0  0  0
  146.0340   71.7220  219.2190 O   0  0  0  0  0  0  0  0  0  0  0  0
  145.7990   70.3870  218.8440 C   0  0  0  0  0  0  0  0  0  0  0  0
  145.1420   70.1570  217.6890 N   0  0  0  0  0  0  0  0  0  0  0  0
  144.9160   68.8650  217.3310 C   0  0  0  0  0  0  0  0  0  0  0  0
  145.3680   67.8440  218.1580 C   0  0  0  0  0  0  0  0  0  0  0  0
  146.0450   68.1180  219.3450 C   0  0  0  0  0  0  0  0  0  0  0  0
  146.2380   69.4110  219.6470 N   0  0  0  0  0  0  0  0  0  0  0  0
  143.8810   71.8000  220.3300 C   0  0  0  0  0  0  0  0  0  0  0  0
  143.2700   72.5260  219.1510 C   0  0  0  0  0  0  0  0  0  0  0  0
  140.0370   71.4060  223.2940 C   0  0  0  0  0  0  0  0  0  0  0  0
  140.7140   72.0480  224.3130 C   0  0  0  0  0  0  0  0  0  0  0  0
  140.8890   71.4850  225.5640 C   0  0  0  0  0  0  0  0  0  0  0  0
  140.3500   70.2210  225.7680 C   0  0  0  0  0  0  0  0  0  0  0  0
  140.5290   69.6630  227.0240 C   0  0  0  0  0  0  0  0  0  0  0  0
  139.9940   68.3950  227.2470 C   0  0  0  0  0  0  0  0  0  0  0  0
  140.1440   67.8130  228.4540 F   0  0  0  0  0  0  0  0  0  0  0  0
  139.3130   67.7500  226.2190 C   0  0  0  0  0  0  0  0  0  0  0  0
  139.1580   68.3470  224.9800 C   0  0  0  0  0  0  0  0  0  0  0  0
  139.6760   69.5850  224.7510 C   0  0  0  0  0  0  0  0  0  0  0  0
  139.5290   70.1830  223.5320 N   0  0  0  0  0  0  0  0  0  0  0  0
  137.7510   72.2410  222.1100 H   0  0  0  0  0  0  0  0  0  0  0  0
  139.4626   72.9184  219.6940 H   0  0  0  0  0  0  0  0  0  0  0  0
  137.6663   72.7782  219.7069 H   0  0  0  0  0  0  0  0  0  0  0  0
  139.6848   75.1947  222.8155 H   0  0  0  0  0  0  0  0  0  0  0  0
  141.0682   74.4997  221.9756 H   0  0  0  0  0  0  0  0  0  0  0  0
  140.8486   77.1900  222.9908 H   0  0  0  0  0  0  0  0  0  0  0  0
  142.1457   76.6204  221.9530 H   0  0  0  0  0  0  0  0  0  0  0  0
  139.4652   77.9388  221.1433 H   0  0  0  0  0  0  0  0  0  0  0  0
  141.0158   78.3522  220.5149 H   0  0  0  0  0  0  0  0  0  0  0  0
  139.7411   76.5471  218.9184 H   0  0  0  0  0  0  0  0  0  0  0  0
  141.2430   73.8200  220.0280 H   0  0  0  0  0  0  0  0  0  0  0  0
  143.6454   74.4529  218.4086 H   0  0  0  0  0  0  0  0  0  0  0  0
  143.6383   74.3208  221.4280 H   0  0  0  0  0  0  0  0  0  0  0  0
  144.4871   75.4768  220.2809 H   0  0  0  0  0  0  0  0  0  0  0  0
  145.8702   73.8084  221.5931 H   0  0  0  0  0  0  0  0  0  0  0  0
  146.0974   74.0166  219.7702 H   0  0  0  0  0  0  0  0  0  0  0  0
  145.8286   71.6843  221.2189 H   0  0  0  0  0  0  0  0  0  0  0  0
  144.3820   68.6309  216.3983 H   0  0  0  0  0  0  0  0  0  0  0  0
  145.1878   66.7978  217.8699 H   0  0  0  0  0  0  0  0  0  0  0  0
  146.4039   67.3127  220.0028 H   0  0  0  0  0  0  0  0  0  0  0  0
  143.3832   72.1054  221.2622 H   0  0  0  0  0  0  0  0  0  0  0  0
  143.7622   70.7112  220.2279 H   0  0  0  0  0  0  0  0  0  0  0  0
  142.2297   72.1915  219.0254 H   0  0  0  0  0  0  0  0  0  0  0  0
  143.8667   72.2945  218.2564 H   0  0  0  0  0  0  0  0  0  0  0  0
  141.1308   73.0478  224.1214 H   0  0  0  0  0  0  0  0  0  0  0  0
  141.4307   72.0143  226.3617 H   0  0  0  0  0  0  0  0  0  0  0  0
  141.0727   70.2003  227.8150 H   0  0  0  0  0  0  0  0  0  0  0  0
  138.8910   66.7494  226.3940 H   0  0  0  0  0  0  0  0  0  0  0  0
  138.6162   67.8211  224.1801 H   0  0  0  0  0  0  0  0  0  0  0  0
  1  2  2  0
  2  3  1  0
  3  4  1  0
  4  5  1  0
  5  6  2  0
  5  7  1  0
  7  8  1  0
  8  9  1  0
  9 10  1  0
 10 11  1  0
 11 12  1  0
 12 13  2  0
 12 14  1  0
 14 15  1  0
 15 16  1  0
 16 17  1  0
 17 18  1  0
 18 19  1  0
 19 20  1  0
 20 21  2  0
 21 22  1  0
 22 23  2  0
 23 24  1  0
 24 25  2  0
 18 26  1  0
 26 27  1  0
  2 28  1  0
 28 29  2  0
 29 30  1  0
 30 31  2  0
 31 32  1  0
 32 33  2  0
 33 34  1  0
 33 35  1  0
 35 36  2  0
 36 37  1  0
 37 38  2  0
 11  7  1  0
 27 15  1  0
 38 28  1  0
 25 20  1  0
 37 31  1  0
  3 39  1  0
  4 40  1  0
  4 41  1  0
  8 42  1  0
  8 43  1  0
  9 44  1  0
  9 45  1  0
 10 46  1  0
 10 47  1  0
 11 48  1  6
 14 49  1  0
 15 50  1  6
 16 51  1  0
 16 52  1  0
 17 53  1  0
 17 54  1  0
 18 55  1  1
 22 56  1  0
 23 57  1  0
 24 58  1  0
 26 59  1  0
 26 60  1  0
 27 61  1  0
 27 62  1  0
 29 63  1  0
 30 64  1  0
 32 65  1  0
 35 66  1  0
 36 67  1  0
M  END
>  <smiles>  (7) 
O=C(NCC(=O)N1CCC[C@H]1C(=O)N[C@H]1CC[C@H](Oc2ncccn2)CC1)c1ccc2cc(F)ccc2n1

>  <score_type>  (7) 
oracle

>  <origin>  (7) 
autodockgpu

>  <m_score__min__energy>  (7) 
-9.4299999999999997

>  <m_primary>  (7) 
energy

>  <rmsd>  (7) 
5.048796865588851

>  <m_score__min__rmsd>  (7) 
5.048796865588851

>  <meeko>  (7) 
{"free_energy": -7.52, "intermolecular_energy": -9.9, "internal_energy": -3.33, "cluster_size": 15, "cluster_id": 1, "rank_in_cluster": 14}

>  <energy>  (7) 
-8.66

>  <cluster_rmsd>  (7) 
1.27

>  <cluster>  (7) 
1

$$$$

     RDKit          3D

 67 71  0  0  0  0  0  0  0  0999 V2000
  140.2770   73.4280  222.3150 O   0  0  0  0  0  0  0  0  0  0  0  0
  140.0700   72.1680  222.2730 C   0  0  0  0  0  0  0  0  0  0  0  0
  139.8240   71.5410  221.0010 N   0  0  0  0  0  0  0  0  0  0  0  0
  139.8300   72.3950  219.8420 C   0  0  0  0  0  0  0  0  0  0  0  0
  141.1810   72.4050  219.2170 C   0  0  0  0  0  0  0  0  0  0  0  0
  141.8310   71.3580  218.9640 O   0  0  0  0  0  0  0  0  0  0  0  0
  141.7940   73.6430  218.8760 N   0  0  0  0  0  0  0  0  0  0  0  0
  141.3150   74.5360  217.8370 C   0  0  0  0  0  0  0  0  0  0  0  0
  142.5540   75.3290  217.4090 C   0  0  0  0  0  0  0  0  0  0  0  0
  143.7070   74.6340  218.1470 C   0  0  0  0  0  0  0  0  0  0  0  0
  142.9700   74.2770  219.4460 C   0  0  1  0  0  0  0  0  0  0  0  0
  142.6230   75.5640  220.0980 C   0  0  0  0  0  0  0  0  0  0  0  0
  143.3700   76.5670  220.0890 O   0  0  0  0  0  0  0  0  0  0  0  0
  141.3840   75.6660  220.7670 N   0  0  0  0  0  0  0  0  0  0  0  0
  140.9980   76.9080  221.4220 C   0  0  1  0  0  0  0  0  0  0  0  0
  140.3070   77.7550  220.3870 C   0  0  0  0  0  0  0  0  0  0  0  0
  139.4370   78.8360  220.9440 C   0  0  0  0  0  0  0  0  0  0  0  0
  138.6070   78.4700  222.1210 C   0  0  2  0  0  0  0  0  0  0  0  0
  138.9530   79.1810  223.3030 O   0  0  0  0  0  0  0  0  0  0  0  0
  140.2200   79.7920  223.3140 C   0  0  0  0  0  0  0  0  0  0  0  0
  140.3290   81.0400  222.8150 N   0  0  0  0  0  0  0  0  0  0  0  0
  141.5560   81.6270  222.8270 C   0  0  0  0  0  0  0  0  0  0  0  0
  142.6360   80.9250  223.3490 C   0  0  0  0  0  0  0  0  0  0  0  0
  142.4870   79.6360  223.8580 C   0  0  0  0  0  0  0  0  0  0  0  0
  141.2540   79.1090  223.8180 N   0  0  0  0  0  0  0  0  0  0  0  0
  138.6700   76.9780  222.3330 C   0  0  0  0  0  0  0  0  0  0  0  0
  140.1160   76.6370  222.6210 C   0  0  0  0  0  0  0  0  0  0  0  0
  140.0760   71.3580  223.4850 C   0  0  0  0  0  0  0  0  0  0  0  0
  139.5500   70.0830  223.4220 C   0  0  0  0  0  0  0  0  0  0  0  0
  139.5090   69.2360  224.5150 C   0  0  0  0  0  0  0  0  0  0  0  0
  140.0270   69.7220  225.7080 C   0  0  0  0  0  0  0  0  0  0  0  0
  139.9830   68.8690  226.7990 C   0  0  0  0  0  0  0  0  0  0  0  0
  140.4980   69.3400  228.0070 C   0  0  0  0  0  0  0  0  0  0  0  0
  140.4760   68.5430  229.0950 F   0  0  0  0  0  0  0  0  0  0  0  0
  141.0270   70.6240  228.0680 C   0  0  0  0  0  0  0  0  0  0  0  0
  141.0510   71.4420  226.9520 C   0  0  0  0  0  0  0  0  0  0  0  0
  140.5500   70.9930  225.7680 C   0  0  0  0  0  0  0  0  0  0  0  0
  140.5680   71.7920  224.6610 N   0  0  0  0  0  0  0  0  0  0  0  0
  139.6520   70.5020  220.9530 H   0  0  0  0  0  0  0  0  0  0  0  0
  139.0952   72.0229  219.1129 H   0  0  0  0  0  0  0  0  0  0  0  0
  139.5694   73.4185  220.1493 H   0  0  0  0  0  0  0  0  0  0  0  0
  140.9082   73.9639  216.9901 H   0  0  0  0  0  0  0  0  0  0  0  0
  140.5026   75.1887  218.1892 H   0  0  0  0  0  0  0  0  0  0  0  0
  142.6969   75.2748  216.3197 H   0  0  0  0  0  0  0  0  0  0  0  0
  142.4782   76.3994  217.6507 H   0  0  0  0  0  0  0  0  0  0  0  0
  144.0607   73.7398  217.6129 H   0  0  0  0  0  0  0  0  0  0  0  0
  144.6229   75.2310  218.2682 H   0  0  0  0  0  0  0  0  0  0  0  0
  143.4947   73.6594  220.1899 H   0  0  0  0  0  0  0  0  0  0  0  0
  140.7060   74.8580  220.8140 H   0  0  0  0  0  0  0  0  0  0  0  0
  141.8782   77.4397  221.8127 H   0  0  0  0  0  0  0  0  0  0  0  0
  139.6807   77.0962  219.7675 H   0  0  0  0  0  0  0  0  0  0  0  0
  141.1015   78.2585  219.8166 H   0  0  0  0  0  0  0  0  0  0  0  0
  138.7578   79.1656  220.1440 H   0  0  0  0  0  0  0  0  0  0  0  0
  140.1274   79.6141  221.3016 H   0  0  0  0  0  0  0  0  0  0  0  0
  137.5714   78.7682  221.9005 H   0  0  0  0  0  0  0  0  0  0  0  0
  141.6916   82.6435  222.4290 H   0  0  0  0  0  0  0  0  0  0  0  0
  143.6296   81.3968  223.3607 H   0  0  0  0  0  0  0  0  0  0  0  0
  143.3394   79.0778  224.2725 H   0  0  0  0  0  0  0  0  0  0  0  0
  138.3301   76.4525  221.4284 H   0  0  0  0  0  0  0  0  0  0  0  0
  138.0191   76.6701  223.1646 H   0  0  0  0  0  0  0  0  0  0  0  0
  140.1866   75.5711  222.8833 H   0  0  0  0  0  0  0  0  0  0  0  0
  140.4607   77.2683  223.4533 H   0  0  0  0  0  0  0  0  0  0  0  0
  139.1468   69.7259  222.4629 H   0  0  0  0  0  0  0  0  0  0  0  0
  139.0853   68.2235  224.4422 H   0  0  0  0  0  0  0  0  0  0  0  0
  139.5578   67.8579  226.7157 H   0  0  0  0  0  0  0  0  0  0  0  0
  141.4336   70.9964  229.0198 H   0  0  0  0  0  0  0  0  0  0  0  0
  141.4747   72.4548  227.0213 H   0  0  0  0  0  0  0  0  0  0  0  0
  1  2  2  0
  2  3  1  0
  3  4  1  0
  4  5  1  0
  5  6  2  0
  5  7  1  0
  7  8  1  0
  8  9  1  0
  9 10  1  0
 10 11  1  0
 11 12  1  0
 12 13  2  0
 12 14  1  0
 14 15  1  0
 15 16  1  0
 16 17  1  0
 17 18  1  0
 18 19  1  0
 19 20  1  0
 20 21  2  0
 21 22  1  0
 22 23  2  0
 23 24  1  0
 24 25  2  0
 18 26  1  0
 26 27  1  0
  2 28  1  0
 28 29  2  0
 29 30  1  0
 30 31  2  0
 31 32  1  0
 32 33  2  0
 33 34  1  0
 33 35  1  0
 35 36  2  0
 36 37  1  0
 37 38  2  0
 11  7  1  0
 27 15  1  0
 38 28  1  0
 25 20  1  0
 37 31  1  0
  3 39  1  0
  4 40  1  0
  4 41  1  0
  8 42  1  0
  8 43  1  0
  9 44  1  0
  9 45  1  0
 10 46  1  0
 10 47  1  0
 11 48  1  1
 14 49  1  0
 15 50  1  1
 16 51  1  0
 16 52  1  0
 17 53  1  0
 17 54  1  0
 18 55  1  6
 22 56  1  0
 23 57  1  0
 24 58  1  0
 26 59  1  0
 26 60  1  0
 27 61  1  0
 27 62  1  0
 29 63  1  0
 30 64  1  0
 32 65  1  0
 35 66  1  0
 36 67  1  0
M  END
>  <smiles>  (8) 
O=C(NCC(=O)N1CCC[C@H]1C(=O)N[C@H]1CC[C@H](Oc2ncccn2)CC1)c1ccc2cc(F)ccc2n1

>  <score_type>  (8) 
oracle

>  <origin>  (8) 
autodockgpu

>  <m_score__min__energy>  (8) 
-9.4299999999999997

>  <m_primary>  (8) 
energy

>  <rmsd>  (8) 
3.0734186132939763

>  <m_score__min__rmsd>  (8) 
3.0734186132939763

>  <meeko>  (8) 
{"free_energy": -8.21, "intermolecular_energy": -10.59, "internal_energy": -3.19, "cluster_size": 17, "cluster_id": 2, "rank_in_cluster": 15}

>  <energy>  (8) 
-8.44

>  <cluster_rmsd>  (8) 
1.35

>  <cluster>  (8) 
1

$$$$

     RDKit          3D

 67 71  0  0  0  0  0  0  0  0999 V2000
  139.9800   73.4290  222.3440 O   0  0  0  0  0  0  0  0  0  0  0  0
  139.9740   72.1530  222.2870 C   0  0  0  0  0  0  0  0  0  0  0  0
  139.9290   71.5100  220.9990 N   0  0  0  0  0  0  0  0  0  0  0  0
  139.8960   72.3680  219.8450 C   0  0  0  0  0  0  0  0  0  0  0  0
  141.1650   72.2470  219.0760 C   0  0  0  0  0  0  0  0  0  0  0  0
  141.5730   71.1620  218.5860 O   0  0  0  0  0  0  0  0  0  0  0  0
  141.9780   73.3960  218.8660 N   0  0  0  0  0  0  0  0  0  0  0  0
  141.8610   74.2850  217.7250 C   0  0  0  0  0  0  0  0  0  0  0  0
  143.2470   74.9210  217.5890 C   0  0  0  0  0  0  0  0  0  0  0  0
  144.1080   74.1440  218.5950 C   0  0  0  0  0  0  0  0  0  0  0  0
  143.0500   73.9280  219.6870 C   0  0  1  0  0  0  0  0  0  0  0  0
  142.7090   75.2740  220.2120 C   0  0  0  0  0  0  0  0  0  0  0  0
  143.4510   76.2730  220.0870 O   0  0  0  0  0  0  0  0  0  0  0  0
  141.4810   75.4390  220.8880 N   0  0  0  0  0  0  0  0  0  0  0  0
  141.1010   76.7400  221.4210 C   0  0  1  0  0  0  0  0  0  0  0  0
  140.7470   77.6100  220.2450 C   0  0  0  0  0  0  0  0  0  0  0  0
  139.9010   78.7970  220.5790 C   0  0  0  0  0  0  0  0  0  0  0  0
  138.8010   78.5670  221.5500 C   0  0  2  0  0  0  0  0  0  0  0  0
  138.9590   79.2870  222.7660 O   0  0  0  0  0  0  0  0  0  0  0  0
  140.2300   79.8390  223.0040 C   0  0  0  0  0  0  0  0  0  0  0  0
  140.4610   81.1040  222.6000 N   0  0  0  0  0  0  0  0  0  0  0  0
  141.6920   81.6330  222.8300 C   0  0  0  0  0  0  0  0  0  0  0  0
  142.6530   80.8580  223.4680 C   0  0  0  0  0  0  0  0  0  0  0  0
  142.3810   79.5520  223.8730 C   0  0  0  0  0  0  0  0  0  0  0  0
  141.1500   79.0840  223.6180 N   0  0  0  0  0  0  0  0  0  0  0  0
  138.6520   77.0870  221.7970 C   0  0  0  0  0  0  0  0  0  0  0  0
  139.9560   76.6100  222.4020 C   0  0  0  0  0  0  0  0  0  0  0  0
  140.0100   71.3390  223.4970 C   0  0  0  0  0  0  0  0  0  0  0  0
  139.5170   70.0510  223.4320 C   0  0  0  0  0  0  0  0  0  0  0  0
  139.5060   69.1990  224.5230 C   0  0  0  0  0  0  0  0  0  0  0  0
  140.0170   69.6960  225.7150 C   0  0  0  0  0  0  0  0  0  0  0  0
  140.0030   68.8380  226.8030 C   0  0  0  0  0  0  0  0  0  0  0  0
  140.5120   69.3200  228.0090 C   0  0  0  0  0  0  0  0  0  0  0  0
  140.5180   68.5190  229.0950 F   0  0  0  0  0  0  0  0  0  0  0  0
  141.0070   70.6180  228.0720 C   0  0  0  0  0  0  0  0  0  0  0  0
  141.0020   71.4390  226.9580 C   0  0  0  0  0  0  0  0  0  0  0  0
  140.5070   70.9810  225.7750 C   0  0  0  0  0  0  0  0  0  0  0  0
  140.4970   71.7830  224.6700 N   0  0  0  0  0  0  0  0  0  0  0  0
  139.9240   70.4580  220.9400 H   0  0  0  0  0  0  0  0  0  0  0  0
  139.0524   72.0784  219.2013 H   0  0  0  0  0  0  0  0  0  0  0  0
  139.7760   73.4099  220.1766 H   0  0  0  0  0  0  0  0  0  0  0  0
  141.6019   73.7202  216.8173 H   0  0  0  0  0  0  0  0  0  0  0  0
  141.0684   75.0357  217.8599 H   0  0  0  0  0  0  0  0  0  0  0  0
  143.6346   74.8007  216.5666 H   0  0  0  0  0  0  0  0  0  0  0  0
  143.2387   76.0036  217.7837 H   0  0  0  0  0  0  0  0  0  0  0  0
  144.4738   73.1935  218.1794 H   0  0  0  0  0  0  0  0  0  0  0  0
  145.0315   74.6461  218.9192 H   0  0  0  0  0  0  0  0  0  0  0  0
  143.3104   73.2936  220.5471 H   0  0  0  0  0  0  0  0  0  0  0  0
  140.8080   74.6380  221.0300 H   0  0  0  0  0  0  0  0  0  0  0  0
  141.9284   77.1941  221.9860 H   0  0  0  0  0  0  0  0  0  0  0  0
  140.2009   76.9943  219.5152 H   0  0  0  0  0  0  0  0  0  0  0  0
  141.6961   78.0048  219.8534 H   0  0  0  0  0  0  0  0  0  0  0  0
  139.4519   79.1626  219.6438 H   0  0  0  0  0  0  0  0  0  0  0  0
  140.5787   79.5131  221.0668 H   0  0  0  0  0  0  0  0  0  0  0  0
  137.8767   78.9603  221.1017 H   0  0  0  0  0  0  0  0  0  0  0  0
  141.9243   82.6611  222.5152 H   0  0  0  0  0  0  0  0  0  0  0  0
  143.6493   81.2840  223.6575 H   0  0  0  0  0  0  0  0  0  0  0  0
  143.1393   78.9351  224.3774 H   0  0  0  0  0  0  0  0  0  0  0  0
  138.4601   76.5625  220.8493 H   0  0  0  0  0  0  0  0  0  0  0  0
  137.8067   76.8827  222.4706 H   0  0  0  0  0  0  0  0  0  0  0  0
  139.8510   75.5539  222.6913 H   0  0  0  0  0  0  0  0  0  0  0  0
  140.1794   77.2351  223.2791 H   0  0  0  0  0  0  0  0  0  0  0  0
  139.1166   69.6870  222.4743 H   0  0  0  0  0  0  0  0  0  0  0  0
  139.1106   68.1752  224.4492 H   0  0  0  0  0  0  0  0  0  0  0  0
  139.6057   67.8157  226.7189 H   0  0  0  0  0  0  0  0  0  0  0  0
  141.4090   70.9983  229.0227 H   0  0  0  0  0  0  0  0  0  0  0  0
  141.3983   72.4627  227.0282 H   0  0  0  0  0  0  0  0  0  0  0  0
  1  2  2  0
  2  3  1  0
  3  4  1  0
  4  5  1  0
  5  6  2  0
  5  7  1  0
  7  8  1  0
  8  9  1  0
  9 10  1  0
 10 11  1  0
 11 12  1  0
 12 13  2  0
 12 14  1  0
 14 15  1  0
 15 16  1  0
 16 17  1  0
 17 18  1  0
 18 19  1  0
 19 20  1  0
 20 21  2  0
 21 22  1  0
 22 23  2  0
 23 24  1  0
 24 25  2  0
 18 26  1  0
 26 27  1  0
  2 28  1  0
 28 29  2  0
 29 30  1  0
 30 31  2  0
 31 32  1  0
 32 33  2  0
 33 34  1  0
 33 35  1  0
 35 36  2  0
 36 37  1  0
 37 38  2  0
 11  7  1  0
 27 15  1  0
 38 28  1  0
 25 20  1  0
 37 31  1  0
  3 39  1  0
  4 40  1  0
  4 41  1  0
  8 42  1  0
  8 43  1  0
  9 44  1  0
  9 45  1  0
 10 46  1  0
 10 47  1  0
 11 48  1  1
 14 49  1  0
 15 50  1  1
 16 51  1  0
 16 52  1  0
 17 53  1  0
 17 54  1  0
 18 55  1  6
 22 56  1  0
 23 57  1  0
 24 58  1  0
 26 59  1  0
 26 60  1  0
 27 61  1  0
 27 62  1  0
 29 63  1  0
 30 64  1  0
 32 65  1  0
 35 66  1  0
 36 67  1  0
M  END
>  <smiles>  (9) 
O=C(NCC(=O)N1CCC[C@H]1C(=O)N[C@H]1CC[C@H](Oc2ncccn2)CC1)c1ccc2cc(F)ccc2n1

>  <score_type>  (9) 
oracle

>  <origin>  (9) 
autodockgpu

>  <m_score__min__energy>  (9) 
-9.4299999999999997

>  <m_primary>  (9) 
energy

>  <rmsd>  (9) 
3.194808171111186

>  <m_score__min__rmsd>  (9) 
3.194808171111186

>  <meeko>  (9) 
{"free_energy": -8.25, "intermolecular_energy": -10.64, "internal_energy": -3.15, "cluster_size": 17, "cluster_id": 2, "rank_in_cluster": 10}

>  <energy>  (9) 
-8.42

>  <cluster_rmsd>  (9) 
1.69

>  <cluster>  (9) 
1

$$$$

     RDKit          3D

 67 71  0  0  0  0  0  0  0  0999 V2000
  139.9660   73.0830  222.9340 O   0  0  0  0  0  0  0  0  0  0  0  0
  140.1060   71.8150  223.0090 C   0  0  0  0  0  0  0  0  0  0  0  0
  140.0450   71.0300  221.8040 N   0  0  0  0  0  0  0  0  0  0  0  0
  139.8270   71.7440  220.5740 C   0  0  0  0  0  0  0  0  0  0  0  0
  141.1280   72.1720  219.9900 C   0  0  0  0  0  0  0  0  0  0  0  0
  142.0170   71.3630  219.6200 O   0  0  0  0  0  0  0  0  0  0  0  0
  141.4090   73.5580  219.8280 N   0  0  0  0  0  0  0  0  0  0  0  0
  140.9370   74.3660  218.7170 C   0  0  0  0  0  0  0  0  0  0  0  0
  141.9500   75.5100  218.6170 C   0  0  0  0  0  0  0  0  0  0  0  0
  143.0570   75.1080  219.6020 C   0  0  0  0  0  0  0  0  0  0  0  0
  142.1820   74.4460  220.6770 C   0  0  1  0  0  0  0  0  0  0  0  0
  141.3310   75.5220  221.2450 C   0  0  0  0  0  0  0  0  0  0  0  0
  140.2080   75.3170  221.7560 O   0  0  0  0  0  0  0  0  0  0  0  0
  141.8130   76.8480  221.2090 N   0  0  0  0  0  0  0  0  0  0  0  0
  141.0150   77.9380  221.7530 C   0  0  1  0  0  0  0  0  0  0  0  0
  141.3440   78.0340  223.2200 C   0  0  0  0  0  0  0  0  0  0  0  0
  141.0080   79.3460  223.8510 C   0  0  0  0  0  0  0  0  0  0  0  0
  141.3200   80.5590  223.0520 C   0  0  2  0  0  0  0  0  0  0  0  0
  140.1690   81.3030  222.6760 O   0  0  0  0  0  0  0  0  0  0  0  0
  138.9280   80.7790  223.0810 C   0  0  0  0  0  0  0  0  0  0  0  0
  138.4240   81.1800  224.2650 N   0  0  0  0  0  0  0  0  0  0  0  0
  137.2250   80.6700  224.6530 C   0  0  0  0  0  0  0  0  0  0  0  0
  136.5730   79.7660  223.8230 C   0  0  0  0  0  0  0  0  0  0  0  0
  137.1220   79.3730  222.6030 C   0  0  0  0  0  0  0  0  0  0  0  0
  138.3080   79.9090  222.2750 N   0  0  0  0  0  0  0  0  0  0  0  0
  142.1450   80.1680  221.8510 C   0  0  0  0  0  0  0  0  0  0  0  0
  141.2930   79.2320  221.0200 C   0  0  0  0  0  0  0  0  0  0  0  0
  140.3240   71.1520  224.2900 C   0  0  0  0  0  0  0  0  0  0  0  0
  140.8500   71.8940  225.3290 C   0  0  0  0  0  0  0  0  0  0  0  0
  141.0940   71.3580  226.5810 C   0  0  0  0  0  0  0  0  0  0  0  0
  140.7870   70.0160  226.7620 C   0  0  0  0  0  0  0  0  0  0  0  0
  141.0340   69.4850  228.0190 C   0  0  0  0  0  0  0  0  0  0  0  0
  140.7320   68.1380  228.2200 C   0  0  0  0  0  0  0  0  0  0  0  0
  140.9560   67.5800  229.4270 F   0  0  0  0  0  0  0  0  0  0  0  0
  140.2030   67.3930  227.1720 C   0  0  0  0  0  0  0  0  0  0  0  0
  139.9720   67.9660  225.9330 C   0  0  0  0  0  0  0  0  0  0  0  0
  140.2640   69.2790  225.7250 C   0  0  0  0  0  0  0  0  0  0  0  0
  140.0400   69.8540  224.5060 N   0  0  0  0  0  0  0  0  0  0  0  0
  140.1590   69.9840  221.8540 H   0  0  0  0  0  0  0  0  0  0  0  0
  139.3067   71.0881  219.8605 H   0  0  0  0  0  0  0  0  0  0  0  0
  139.2157   72.6350  220.7799 H   0  0  0  0  0  0  0  0  0  0  0  0
  140.9217   73.7779  217.7875 H   0  0  0  0  0  0  0  0  0  0  0  0
  139.9100   74.7290  218.8706 H   0  0  0  0  0  0  0  0  0  0  0  0
  142.3469   75.5934  217.5945 H   0  0  0  0  0  0  0  0  0  0  0  0
  141.5085   76.4900  218.8509 H   0  0  0  0  0  0  0  0  0  0  0  0
  143.7708   74.3999  219.1558 H   0  0  0  0  0  0  0  0  0  0  0  0
  143.7032   75.9265  219.9518 H   0  0  0  0  0  0  0  0  0  0  0  0
  142.6809   73.9399  221.5166 H   0  0  0  0  0  0  0  0  0  0  0  0
  142.7520   77.0920  220.7920 H   0  0  0  0  0  0  0  0  0  0  0  0
  139.9400   77.7450  221.6220 H   0  0  0  0  0  0  0  0  0  0  0  0
  142.4238   77.8623  223.3409 H   0  0  0  0  0  0  0  0  0  0  0  0
  140.7260   77.2783  223.7269 H   0  0  0  0  0  0  0  0  0  0  0  0
  141.5648   79.4154  224.7971 H   0  0  0  0  0  0  0  0  0  0  0  0
  139.9142   79.3443  223.9672 H   0  0  0  0  0  0  0  0  0  0  0  0
  141.9011   81.2372  223.6942 H   0  0  0  0  0  0  0  0  0  0  0  0
  136.7766   80.9691  225.6119 H   0  0  0  0  0  0  0  0  0  0  0  0
  135.6030   79.3516  224.1351 H   0  0  0  0  0  0  0  0  0  0  0  0
  136.6086   78.6591  221.9421 H   0  0  0  0  0  0  0  0  0  0  0  0
  143.0644   79.6573  222.1733 H   0  0  0  0  0  0  0  0  0  0  0  0
  142.4396   81.0540  221.2695 H   0  0  0  0  0  0  0  0  0  0  0  0
  141.8214   79.0053  220.0822 H   0  0  0  0  0  0  0  0  0  0  0  0
  140.3320   79.7277  220.8178 H   0  0  0  0  0  0  0  0  0  0  0  0
  141.0846   72.9544  225.1542 H   0  0  0  0  0  0  0  0  0  0  0  0
  141.5121   71.9673  227.3958 H   0  0  0  0  0  0  0  0  0  0  0  0
  141.4524   70.1028  228.8273 H   0  0  0  0  0  0  0  0  0  0  0  0
  139.9641   66.3309  227.3299 H   0  0  0  0  0  0  0  0  0  0  0  0
  139.5524   67.3600  225.1165 H   0  0  0  0  0  0  0  0  0  0  0  0
  1  2  2  0
  2  3  1  0
  3  4  1  0
  4  5  1  0
  5  6  2  0
  5  7  1  0
  7  8  1  0
  8  9  1  0
  9 10  1  0
 10 11  1  0
 11 12  1  0
 12 13  2  0
 12 14  1  0
 14 15  1  0
 15 16  1  0
 16 17  1  0
 17 18  1  0
 18 19  1  0
 19 20  1  0
 20 21  2  0
 21 22  1  0
 22 23  2  0
 23 24  1  0
 24 25  2  0
 18 26  1  0
 26 27  1  0
  2 28  1  0
 28 29  2  0
 29 30  1  0
 30 31  2  0
 31 32  1  0
 32 33  2  0
 33 34  1  0
 33 35  1  0
 35 36  2  0
 36 37  1  0
 37 38  2  0
 11  7  1  0
 27 15  1  0
 38 28  1  0
 25 20  1  0
 37 31  1  0
  3 39  1  0
  4 40  1  0
  4 41  1  0
  8 42  1  0
  8 43  1  0
  9 44  1  0
  9 45  1  0
 10 46  1  0
 10 47  1  0
 11 48  1  1
 14 49  1  0
 15 50  1  1
 16 51  1  0
 16 52  1  0
 17 53  1  0
 17 54  1  0
 18 55  1  1
 22 56  1  0
 23 57  1  0
 24 58  1  0
 26 59  1  0
 26 60  1  0
 27 61  1  0
 27 62  1  0
 29 63  1  0
 30 64  1  0
 32 65  1  0
 35 66  1  0
 36 67  1  0
M  END
>  <smiles>  (10) 
O=C(NCC(=O)N1CCC[C@H]1C(=O)N[C@H]1CC[C@H](Oc2ncccn2)CC1)c1ccc2cc(F)ccc2n1

>  <score_type>  (10) 
oracle

>  <origin>  (10) 
autodockgpu

>  <m_score__min__energy>  (10) 
-9.4299999999999997

>  <m_primary>  (10) 
energy

>  <rmsd>  (10) 
3.1190568489349073

>  <m_score__min__rmsd>  (10) 
3.1190568489349073

>  <meeko>  (10) 
{"free_energy": -8.91, "intermolecular_energy": -11.3, "internal_energy": -2.39, "cluster_size": 17, "cluster_id": 2, "rank_in_cluster": 2}

>  <energy>  (10) 
-8.28

>  <cluster_rmsd>  (10) 
1.33

>  <cluster>  (10) 
1

$$$$

     RDKit          3D

 67 71  0  0  0  0  0  0  0  0999 V2000
  140.0180   73.0010  222.6730 O   0  0  0  0  0  0  0  0  0  0  0  0
  140.1180   71.7340  222.8050 C   0  0  0  0  0  0  0  0  0  0  0  0
  140.0530   70.9000  221.6330 N   0  0  0  0  0  0  0  0  0  0  0  0
  139.8780   71.5660  220.3700 C   0  0  0  0  0  0  0  0  0  0  0  0
  141.1150   71.4470  219.5490 C   0  0  0  0  0  0  0  0  0  0  0  0
  141.5910   70.3440  219.1760 O   0  0  0  0  0  0  0  0  0  0  0  0
  141.8160   72.6200  219.1510 N   0  0  0  0  0  0  0  0  0  0  0  0
  141.4250   73.4710  218.0410 C   0  0  0  0  0  0  0  0  0  0  0  0
  142.7240   74.1550  217.6050 C   0  0  0  0  0  0  0  0  0  0  0  0
  143.8080   73.4400  218.4240 C   0  0  0  0  0  0  0  0  0  0  0  0
  143.0120   73.2160  219.7180 C   0  0  1  0  0  0  0  0  0  0  0  0
  142.7290   74.5630  220.2750 C   0  0  0  0  0  0  0  0  0  0  0  0
  143.5420   75.5120  220.2330 O   0  0  0  0  0  0  0  0  0  0  0  0
  141.4760   74.7870  220.8850 N   0  0  0  0  0  0  0  0  0  0  0  0
  141.1510   76.0910  221.4460 C   0  0  1  0  0  0  0  0  0  0  0  0
  140.9260   77.0250  220.2870 C   0  0  0  0  0  0  0  0  0  0  0  0
  140.1410   78.2540  220.6180 C   0  0  0  0  0  0  0  0  0  0  0  0
  138.9730   78.0650  221.5150 C   0  0  2  0  0  0  0  0  0  0  0  0
  139.1040   78.7290  222.7660 O   0  0  0  0  0  0  0  0  0  0  0  0
  140.2950   79.4510  222.9660 C   0  0  0  0  0  0  0  0  0  0  0  0
  140.2660   80.7870  222.7890 N   0  0  0  0  0  0  0  0  0  0  0  0
  141.4200   81.4810  222.9830 C   0  0  0  0  0  0  0  0  0  0  0  0
  142.5690   80.7930  223.3520 C   0  0  0  0  0  0  0  0  0  0  0  0
  142.5640   79.4100  223.5260 C   0  0  0  0  0  0  0  0  0  0  0  0
  141.3970   78.7800  223.3210 N   0  0  0  0  0  0  0  0  0  0  0  0
  138.7130   76.5900  221.6950 C   0  0  0  0  0  0  0  0  0  0  0  0
  139.9440   76.0050  222.3530 C   0  0  0  0  0  0  0  0  0  0  0  0
  140.2940   71.1210  224.1160 C   0  0  0  0  0  0  0  0  0  0  0  0
  140.8150   71.8930  225.1350 C   0  0  0  0  0  0  0  0  0  0  0  0
  141.0200   71.4060  226.4130 C   0  0  0  0  0  0  0  0  0  0  0  0
  140.6790   70.0790  226.6430 C   0  0  0  0  0  0  0  0  0  0  0  0
  140.8870   69.5970  227.9260 C   0  0  0  0  0  0  0  0  0  0  0  0
  140.5500   68.2670  228.1760 C   0  0  0  0  0  0  0  0  0  0  0  0
  140.7360   67.7550  229.4100 F   0  0  0  0  0  0  0  0  0  0  0  0
  140.0260   67.4900  227.1480 C   0  0  0  0  0  0  0  0  0  0  0  0
  139.8350   68.0150  225.8820 C   0  0  0  0  0  0  0  0  0  0  0  0
  140.1610   69.3120  225.6260 C   0  0  0  0  0  0  0  0  0  0  0  0
  139.9760   69.8400  224.3800 N   0  0  0  0  0  0  0  0  0  0  0  0
  140.1340   69.8540  221.7300 H   0  0  0  0  0  0  0  0  0  0  0  0
  139.0378   71.1052  219.8298 H   0  0  0  0  0  0  0  0  0  0  0  0
  139.6695   72.6306  220.5519 H   0  0  0  0  0  0  0  0  0  0  0  0
  141.0071   72.8707  217.2194 H   0  0  0  0  0  0  0  0  0  0  0  0
  140.6460   74.1946  218.3233 H   0  0  0  0  0  0  0  0  0  0  0  0
  142.8949   74.0202  216.5267 H   0  0  0  0  0  0  0  0  0  0  0  0
  142.7101   75.2417  217.7752 H   0  0  0  0  0  0  0  0  0  0  0  0
  144.1190   72.4922  217.9603 H   0  0  0  0  0  0  0  0  0  0  0  0
  144.7564   73.9857  218.5371 H   0  0  0  0  0  0  0  0  0  0  0  0
  143.4740   72.6177  220.5171 H   0  0  0  0  0  0  0  0  0  0  0  0
  140.7430   74.0290  220.9540 H   0  0  0  0  0  0  0  0  0  0  0  0
  141.9715   76.4669  222.0750 H   0  0  0  0  0  0  0  0  0  0  0  0
  140.3857   76.4742  219.5030 H   0  0  0  0  0  0  0  0  0  0  0  0
  141.9208   77.3686  219.9673 H   0  0  0  0  0  0  0  0  0  0  0  0
  139.7730   78.6814  219.6736 H   0  0  0  0  0  0  0  0  0  0  0  0
  140.8339   78.9054  221.1708 H   0  0  0  0  0  0  0  0  0  0  0  0
  138.1053   78.5363  221.0301 H   0  0  0  0  0  0  0  0  0  0  0  0
  141.4429   82.5726  222.8494 H   0  0  0  0  0  0  0  0  0  0  0  0
  143.5032   81.3518  223.5103 H   0  0  0  0  0  0  0  0  0  0  0  0
  143.4722   78.8619  223.8171 H   0  0  0  0  0  0  0  0  0  0  0  0
  138.5434   76.1136  220.7181 H   0  0  0  0  0  0  0  0  0  0  0  0
  137.8179   76.4198  222.3114 H   0  0  0  0  0  0  0  0  0  0  0  0
  139.7527   74.9490  222.5942 H   0  0  0  0  0  0  0  0  0  0  0  0
  140.1556   76.5828  223.2648 H   0  0  0  0  0  0  0  0  0  0  0  0
  141.0781   72.9395  224.9214 H   0  0  0  0  0  0  0  0  0  0  0  0
  141.4340   72.0402  227.2107 H   0  0  0  0  0  0  0  0  0  0  0  0
  141.3021   70.2391  228.7168 H   0  0  0  0  0  0  0  0  0  0  0  0
  139.7591   66.4411  227.3447 H   0  0  0  0  0  0  0  0  0  0  0  0
  139.4197   67.3843  225.0822 H   0  0  0  0  0  0  0  0  0  0  0  0
  1  2  2  0
  2  3  1  0
  3  4  1  0
  4  5  1  0
  5  6  2  0
  5  7  1  0
  7  8  1  0
  8  9  1  0
  9 10  1  0
 10 11  1  0
 11 12  1  0
 12 13  2  0
 12 14  1  0
 14 15  1  0
 15 16  1  0
 16 17  1  0
 17 18  1  0
 18 19  1  0
 19 20  1  0
 20 21  2  0
 21 22  1  0
 22 23  2  0
 23 24  1  0
 24 25  2  0
 18 26  1  0
 26 27  1  0
  2 28  1  0
 28 29  2  0
 29 30  1  0
 30 31  2  0
 31 32  1  0
 32 33  2  0
 33 34  1  0
 33 35  1  0
 35 36  2  0
 36 37  1  0
 37 38  2  0
 11  7  1  0
 27 15  1  0
 38 28  1  0
 25 20  1  0
 37 31  1  0
  3 39  1  0
  4 40  1  0
  4 41  1  0
  8 42  1  0
  8 43  1  0
  9 44  1  0
  9 45  1  0
 10 46  1  0
 10 47  1  0
 11 48  1  1
 14 49  1  0
 15 50  1  1
 16 51  1  0
 16 52  1  0
 17 53  1  0
 17 54  1  0
 18 55  1  6
 22 56  1  0
 23 57  1  0
 24 58  1  0
 26 59  1  0
 26 60  1  0
 27 61  1  0
 27 62  1  0
 29 63  1  0
 30 64  1  0
 32 65  1  0
 35 66  1  0
 36 67  1  0
M  END
>  <smiles>  (11) 
O=C(NCC(=O)N1CCC[C@H]1C(=O)N[C@H]1CC[C@H](Oc2ncccn2)CC1)c1ccc2cc(F)ccc2n1

>  <score_type>  (11) 
oracle

>  <origin>  (11) 
autodockgpu

>  <m_score__min__energy>  (11) 
-9.4299999999999997

>  <m_primary>  (11) 
energy

>  <rmsd>  (11) 
3.9275779121924117

>  <m_score__min__rmsd>  (11) 
3.9275779121924117

>  <meeko>  (11) 
{"free_energy": -8.11, "intermolecular_energy": -10.5, "internal_energy": -3.43, "cluster_size": 4, "cluster_id": 4, "rank_in_cluster": 2}

>  <energy>  (11) 
-8.07

>  <cluster_rmsd>  (11) 
1.33

>  <cluster>  (11) 
1

$$$$

     RDKit          3D

 67 71  0  0  0  0  0  0  0  0999 V2000
  142.7580   75.7680  215.0670 O   0  0  0  0  0  0  0  0  0  0  0  0
  143.0670   76.3060  216.1840 C   0  0  0  0  0  0  0  0  0  0  0  0
  144.2020   75.8040  216.9130 N   0  0  0  0  0  0  0  0  0  0  0  0
  144.9250   74.7110  216.3190 C   0  0  0  0  0  0  0  0  0  0  0  0
  145.1990   73.6600  217.3380 C   0  0  0  0  0  0  0  0  0  0  0  0
  146.0080   72.7150  217.1530 O   0  0  0  0  0  0  0  0  0  0  0  0
  144.5280   73.7000  218.5930 N   0  0  0  0  0  0  0  0  0  0  0  0
  145.1950   73.6280  219.8810 C   0  0  0  0  0  0  0  0  0  0  0  0
  144.1320   73.0730  220.8340 C   0  0  0  0  0  0  0  0  0  0  0  0
  142.9740   72.6830  219.9040 C   0  0  0  0  0  0  0  0  0  0  0  0
  143.1100   73.8150  218.8760 C   0  0  1  0  0  0  0  0  0  0  0  0
  142.8070   75.0760  219.5990 C   0  0  0  0  0  0  0  0  0  0  0  0
  143.5610   76.0730  219.5950 O   0  0  0  0  0  0  0  0  0  0  0  0
  141.6030   75.1570  220.3320 N   0  0  0  0  0  0  0  0  0  0  0  0
  141.2610   76.3720  221.0580 C   0  0  1  0  0  0  0  0  0  0  0  0
  140.5340   77.2700  220.0940 C   0  0  0  0  0  0  0  0  0  0  0  0
  139.7020   78.3340  220.7360 C   0  0  0  0  0  0  0  0  0  0  0  0
  138.9220   77.9240  221.9320 C   0  0  2  0  0  0  0  0  0  0  0  0
  139.3280   78.5790  223.1270 O   0  0  0  0  0  0  0  0  0  0  0  0
  140.4970   79.3570  223.0440 C   0  0  0  0  0  0  0  0  0  0  0  0
  141.6860   78.7300  223.1390 N   0  0  0  0  0  0  0  0  0  0  0  0
  142.8140   79.4860  223.0600 C   0  0  0  0  0  0  0  0  0  0  0  0
  142.6960   80.8600  222.8850 C   0  0  0  0  0  0  0  0  0  0  0  0
  141.4500   81.4760  222.7900 C   0  0  0  0  0  0  0  0  0  0  0  0
  140.3740   80.6790  222.8760 N   0  0  0  0  0  0  0  0  0  0  0  0
  138.9760   76.4230  222.0750 C   0  0  0  0  0  0  0  0  0  0  0  0
  140.4300   76.0560  222.2820 C   0  0  0  0  0  0  0  0  0  0  0  0
  142.2920   77.4130  216.7320 C   0  0  0  0  0  0  0  0  0  0  0  0
  140.9770   77.5520  216.3330 C   0  0  0  0  0  0  0  0  0  0  0  0
  140.1590   78.5670  216.7940 C   0  0  0  0  0  0  0  0  0  0  0  0
  140.7170   79.4660  217.6940 C   0  0  0  0  0  0  0  0  0  0  0  0
  139.8920   80.4810  218.1520 C   0  0  0  0  0  0  0  0  0  0  0  0
  140.4350   81.3940  219.0570 C   0  0  0  0  0  0  0  0  0  0  0  0
  139.6680   82.3980  219.5290 F   0  0  0  0  0  0  0  0  0  0  0  0
  141.7590   81.2520  219.4570 C   0  0  0  0  0  0  0  0  0  0  0  0
  142.5470   80.2220  218.9730 C   0  0  0  0  0  0  0  0  0  0  0  0
  142.0270   79.3250  218.0900 C   0  0  0  0  0  0  0  0  0  0  0  0
  142.7950   78.3050  217.6060 N   0  0  0  0  0  0  0  0  0  0  0  0
  144.4660   76.2400  217.8360 H   0  0  0  0  0  0  0  0  0  0  0  0
  144.3254   74.2792  215.5041 H   0  0  0  0  0  0  0  0  0  0  0  0
  145.8810   75.0858  215.9246 H   0  0  0  0  0  0  0  0  0  0  0  0
  146.0630   72.9541  219.8320 H   0  0  0  0  0  0  0  0  0  0  0  0
  145.5797   74.6054  220.2076 H   0  0  0  0  0  0  0  0  0  0  0  0
  144.5120   72.1946  221.3762 H   0  0  0  0  0  0  0  0  0  0  0  0
  143.8324   73.7976  221.6055 H   0  0  0  0  0  0  0  0  0  0  0  0
  143.1235   71.6921  219.4504 H   0  0  0  0  0  0  0  0  0  0  0  0
  141.9884   72.5918  220.3838 H   0  0  0  0  0  0  0  0  0  0  0  0
  142.4720   73.7846  217.9804 H   0  0  0  0  0  0  0  0  0  0  0  0
  140.9210   74.3520  220.3780 H   0  0  0  0  0  0  0  0  0  0  0  0
  142.1637   76.8774  221.4317 H   0  0  0  0  0  0  0  0  0  0  0  0
  139.8730   76.6449  219.4756 H   0  0  0  0  0  0  0  0  0  0  0  0
  141.3079   77.7907  219.5110 H   0  0  0  0  0  0  0  0  0  0  0  0
  138.9913   78.7046  219.9826 H   0  0  0  0  0  0  0  0  0  0  0  0
  140.4162   79.0897  221.0950 H   0  0  0  0  0  0  0  0  0  0  0  0
  137.8811   78.2416  221.7720 H   0  0  0  0  0  0  0  0  0  0  0  0
  143.8061   79.0165  223.1336 H   0  0  0  0  0  0  0  0  0  0  0  0
  143.6062   81.4742  222.8201 H   0  0  0  0  0  0  0  0  0  0  0  0
  141.3530   82.5629  222.6512 H   0  0  0  0  0  0  0  0  0  0  0  0
  138.5897   75.9416  221.1645 H   0  0  0  0  0  0  0  0  0  0  0  0
  138.3590   76.0843  222.9203 H   0  0  0  0  0  0  0  0  0  0  0  0
  140.5002   74.9788  222.4934 H   0  0  0  0  0  0  0  0  0  0  0  0
  140.8185   76.6465  223.1249 H   0  0  0  0  0  0  0  0  0  0  0  0
  140.5633   76.8249  215.6187 H   0  0  0  0  0  0  0  0  0  0  0  0
  139.1139   78.6584  216.4631 H   0  0  0  0  0  0  0  0  0  0  0  0
  138.8482   80.5639  217.8148 H   0  0  0  0  0  0  0  0  0  0  0  0
  142.1879   81.9709  220.1707 H   0  0  0  0  0  0  0  0  0  0  0  0
  143.5926   80.1281  219.3014 H   0  0  0  0  0  0  0  0  0  0  0  0
  1  2  2  0
  2  3  1  0
  3  4  1  0
  4  5  1  0
  5  6  2  0
  5  7  1  0
  7  8  1  0
  8  9  1  0
  9 10  1  0
 10 11  1  0
 11 12  1  0
 12 13  2  0
 12 14  1  0
 14 15  1  0
 15 16  1  0
 16 17  1  0
 17 18  1  0
 18 19  1  0
 19 20  1  0
 20 21  2  0
 21 22  1  0
 22 23  2  0
 23 24  1  0
 24 25  2  0
 18 26  1  0
 26 27  1  0
  2 28  1  0
 28 29  2  0
 29 30  1  0
 30 31  2  0
 31 32  1  0
 32 33  2  0
 33 34  1  0
 33 35  1  0
 35 36  2  0
 36 37  1  0
 37 38  2  0
 11  7  1  0
 27 15  1  0
 38 28  1  0
 25 20  1  0
 37 31  1  0
  3 39  1  0
  4 40  1  0
  4 41  1  0
  8 42  1  0
  8 43  1  0
  9 44  1  0
  9 45  1  0
 10 46  1  0
 10 47  1  0
 11 48  1  6
 14 49  1  0
 15 50  1  1
 16 51  1  0
 16 52  1  0
 17 53  1  0
 17 54  1  0
 18 55  1  6
 22 56  1  0
 23 57  1  0
 24 58  1  0
 26 59  1  0
 26 60  1  0
 27 61  1  0
 27 62  1  0
 29 63  1  0
 30 64  1  0
 32 65  1  0
 35 66  1  0
 36 67  1  0
M  END
>  <smiles>  (12) 
O=C(NCC(=O)N1CCC[C@H]1C(=O)N[C@H]1CC[C@H](Oc2ncccn2)CC1)c1ccc2cc(F)ccc2n1

>  <score_type>  (12) 
oracle

>  <origin>  (12) 
autodockgpu

>  <m_score__min__energy>  (12) 
-9.4299999999999997

>  <m_primary>  (12) 
energy

>  <rmsd>  (12) 
8.897689205441159

>  <m_score__min__rmsd>  (12) 
8.897689205441159

>  <meeko>  (12) 
{"free_energy": -5.99, "intermolecular_energy": -8.38, "internal_energy": -4.79, "cluster_size": 3, "cluster_id": 8, "rank_in_cluster": 3}

>  <energy>  (12) 
-7.95

>  <cluster_rmsd>  (12) 
1.33

>  <cluster>  (12) 
1

$$$$

     RDKit          3D

 67 71  0  0  0  0  0  0  0  0999 V2000
  138.6910   70.7040  221.4720 O   0  0  0  0  0  0  0  0  0  0  0  0
  138.8630   71.5050  222.4530 C   0  0  0  0  0  0  0  0  0  0  0  0
  138.5200   72.8930  222.2910 N   0  0  0  0  0  0  0  0  0  0  0  0
  137.9930   73.2890  221.0120 C   0  0  0  0  0  0  0  0  0  0  0  0
  139.0840   73.3440  220.0010 C   0  0  0  0  0  0  0  0  0  0  0  0
  139.1210   72.6010  218.9850 O   0  0  0  0  0  0  0  0  0  0  0  0
  140.1520   74.2710  220.1610 N   0  0  0  0  0  0  0  0  0  0  0  0
  140.9660   74.7790  219.0710 C   0  0  0  0  0  0  0  0  0  0  0  0
  142.2890   75.1760  219.7330 C   0  0  0  0  0  0  0  0  0  0  0  0
  142.1560   74.6450  221.1670 C   0  0  0  0  0  0  0  0  0  0  0  0
  140.6550   74.8970  221.3700 C   0  0  1  0  0  0  0  0  0  0  0  0
  140.4680   76.3690  221.3310 C   0  0  0  0  0  0  0  0  0  0  0  0
  139.5460   76.9320  220.7010 O   0  0  0  0  0  0  0  0  0  0  0  0
  141.3790   77.1800  222.0410 N   0  0  0  0  0  0  0  0  0  0  0  0
  141.2380   78.6300  222.0330 C   0  0  1  0  0  0  0  0  0  0  0  0
  140.1190   78.9680  222.9820 C   0  0  0  0  0  0  0  0  0  0  0  0
  140.1210   80.3800  223.4720 C   0  0  0  0  0  0  0  0  0  0  0  0
  141.4460   80.9500  223.8270 C   0  0  2  0  0  0  0  0  0  0  0  0
  141.8380   82.0360  222.9960 O   0  0  0  0  0  0  0  0  0  0  0  0
  141.1940   82.1300  221.7490 C   0  0  0  0  0  0  0  0  0  0  0  0
  141.7830   81.5490  220.6840 N   0  0  0  0  0  0  0  0  0  0  0  0
  141.1580   81.6430  219.4800 C   0  0  0  0  0  0  0  0  0  0  0  0
  139.9500   82.3250  219.3960 C   0  0  0  0  0  0  0  0  0  0  0  0
  139.3680   82.9130  220.5180 C   0  0  0  0  0  0  0  0  0  0  0  0
  140.0310   82.7890  221.6780 N   0  0  0  0  0  0  0  0  0  0  0  0
  142.4800   79.8520  223.8280 C   0  0  0  0  0  0  0  0  0  0  0  0
  142.5370   79.3030  222.4190 C   0  0  0  0  0  0  0  0  0  0  0  0
  139.4020   71.0400  223.7260 C   0  0  0  0  0  0  0  0  0  0  0  0
  140.2860   71.8590  224.3990 C   0  0  0  0  0  0  0  0  0  0  0  0
  140.8520   71.5110  225.6130 C   0  0  0  0  0  0  0  0  0  0  0  0
  140.4950   70.2780  226.1430 C   0  0  0  0  0  0  0  0  0  0  0  0
  141.0660   69.9350  227.3590 C   0  0  0  0  0  0  0  0  0  0  0  0
  140.7180   68.7000  227.9070 C   0  0  0  0  0  0  0  0  0  0  0  0
  141.2500   68.3250  229.0890 F   0  0  0  0  0  0  0  0  0  0  0  0
  139.8290   67.8760  227.2270 C   0  0  0  0  0  0  0  0  0  0  0  0
  139.2820   68.2610  226.0150 C   0  0  0  0  0  0  0  0  0  0  0  0
  139.6140   69.4640  225.4690 C   0  0  0  0  0  0  0  0  0  0  0  0
  139.0810   69.8530  224.2740 N   0  0  0  0  0  0  0  0  0  0  0  0
  138.6580   73.5640  223.0930 H   0  0  0  0  0  0  0  0  0  0  0  0
  137.2354   72.5596  220.6896 H   0  0  0  0  0  0  0  0  0  0  0  0
  137.5387   74.2865  221.1043 H   0  0  0  0  0  0  0  0  0  0  0  0
  141.1295   73.9998  218.3120 H   0  0  0  0  0  0  0  0  0  0  0  0
  140.4890   75.6226  218.5507 H   0  0  0  0  0  0  0  0  0  0  0  0
  143.1406   74.7065  219.2189 H   0  0  0  0  0  0  0  0  0  0  0  0
  142.4740   76.2597  219.6966 H   0  0  0  0  0  0  0  0  0  0  0  0
  142.4094   73.5769  221.2378 H   0  0  0  0  0  0  0  0  0  0  0  0
  142.8212   75.1092  221.9100 H   0  0  0  0  0  0  0  0  0  0  0  0
  140.1847   74.5280  222.2934 H   0  0  0  0  0  0  0  0  0  0  0  0
  142.1810   76.7710  222.5930 H   0  0  0  0  0  0  0  0  0  0  0  0
  140.9980   78.9989  221.0249 H   0  0  0  0  0  0  0  0  0  0  0  0
  140.1967   78.3024  223.8543 H   0  0  0  0  0  0  0  0  0  0  0  0
  139.1834   78.8358  222.4189 H   0  0  0  0  0  0  0  0  0  0  0  0
  139.4854   80.4248  224.3687 H   0  0  0  0  0  0  0  0  0  0  0  0
  139.7574   80.9846  222.6280 H   0  0  0  0  0  0  0  0  0  0  0  0
  141.3611   81.3777  224.8369 H   0  0  0  0  0  0  0  0  0  0  0  0
  141.6028   81.1852  218.5841 H   0  0  0  0  0  0  0  0  0  0  0  0
  139.4422   82.4025  218.4233 H   0  0  0  0  0  0  0  0  0  0  0  0
  138.4115   83.4526  220.4554 H   0  0  0  0  0  0  0  0  0  0  0  0
  142.1889   79.0585  224.5320 H   0  0  0  0  0  0  0  0  0  0  0  0
  143.4621   80.2353  224.1420 H   0  0  0  0  0  0  0  0  0  0  0  0
  143.3531   78.5683  222.3544 H   0  0  0  0  0  0  0  0  0  0  0  0
  142.7095   80.1418  221.7286 H   0  0  0  0  0  0  0  0  0  0  0  0
  140.5516   72.8283  223.9520 H   0  0  0  0  0  0  0  0  0  0  0  0
  141.5524   72.1802  226.1341 H   0  0  0  0  0  0  0  0  0  0  0  0
  141.7664   70.6105  227.8719 H   0  0  0  0  0  0  0  0  0  0  0  0
  139.5556   66.9020  227.6589 H   0  0  0  0  0  0  0  0  0  0  0  0
  138.5791   67.5953  225.4927 H   0  0  0  0  0  0  0  0  0  0  0  0
  1  2  2  0
  2  3  1  0
  3  4  1  0
  4  5  1  0
  5  6  2  0
  5  7  1  0
  7  8  1  0
  8  9  1  0
  9 10  1  0
 10 11  1  0
 11 12  1  0
 12 13  2  0
 12 14  1  0
 14 15  1  0
 15 16  1  0
 16 17  1  0
 17 18  1  0
 18 19  1  0
 19 20  1  0
 20 21  2  0
 21 22  1  0
 22 23  2  0
 23 24  1  0
 24 25  2  0
 18 26  1  0
 26 27  1  0
  2 28  1  0
 28 29  2  0
 29 30  1  0
 30 31  2  0
 31 32  1  0
 32 33  2  0
 33 34  1  0
 33 35  1  0
 35 36  2  0
 36 37  1  0
 37 38  2  0
 11  7  1  0
 27 15  1  0
 38 28  1  0
 25 20  1  0
 37 31  1  0
  3 39  1  0
  4 40  1  0
  4 41  1  0
  8 42  1  0
  8 43  1  0
  9 44  1  0
  9 45  1  0
 10 46  1  0
 10 47  1  0
 11 48  1  1
 14 49  1  0
 15 50  1  6
 16 51  1  0
 16 52  1  0
 17 53  1  0
 17 54  1  0
 18 55  1  1
 22 56  1  0
 23 57  1  0
 24 58  1  0
 26 59  1  0
 26 60  1  0
 27 61  1  0
 27 62  1  0
 29 63  1  0
 30 64  1  0
 32 65  1  0
 35 66  1  0
 36 67  1  0
M  END
>  <smiles>  (13) 
O=C(NCC(=O)N1CCC[C@H]1C(=O)N[C@H]1CC[C@H](Oc2ncccn2)CC1)c1ccc2cc(F)ccc2n1

>  <score_type>  (13) 
oracle

>  <origin>  (13) 
autodockgpu

>  <m_score__min__energy>  (13) 
-9.4299999999999997

>  <m_primary>  (13) 
energy

>  <rmsd>  (13) 
3.0712830029454397

>  <m_score__min__rmsd>  (13) 
3.0712830029454397

>  <meeko>  (13) 
{"free_energy": -8.71, "intermolecular_energy": -11.1, "internal_energy": -2.18, "cluster_size": 17, "cluster_id": 2, "rank_in_cluster": 7}

>  <energy>  (13) 
-7.69

>  <cluster_rmsd>  (13) 
1.25

>  <cluster>  (13) 
1

$$$$

     RDKit          3D

 67 71  0  0  0  0  0  0  0  0999 V2000
  139.1000   70.6540  221.2800 O   0  0  0  0  0  0  0  0  0  0  0  0
  138.9370   71.3640  222.3290 C   0  0  0  0  0  0  0  0  0  0  0  0
  138.2250   72.6110  222.2270 N   0  0  0  0  0  0  0  0  0  0  0  0
  137.7360   72.9760  220.9240 C   0  0  0  0  0  0  0  0  0  0  0  0
  138.8730   73.1830  219.9860 C   0  0  0  0  0  0  0  0  0  0  0  0
  139.0620   72.4710  218.9660 O   0  0  0  0  0  0  0  0  0  0  0  0
  139.8080   74.2280  220.2270 N   0  0  0  0  0  0  0  0  0  0  0  0
  140.2800   75.1550  219.2140 C   0  0  0  0  0  0  0  0  0  0  0  0
  141.6480   75.6180  219.7230 C   0  0  0  0  0  0  0  0  0  0  0  0
  141.9140   74.7130  220.9340 C   0  0  0  0  0  0  0  0  0  0  0  0
  140.4760   74.6000  221.4610 C   0  0  1  0  0  0  0  0  0  0  0  0
  140.0810   75.9640  221.8950 C   0  0  0  0  0  0  0  0  0  0  0  0
  138.9010   76.3770  221.8850 O   0  0  0  0  0  0  0  0  0  0  0  0
  141.0890   76.8440  222.3440 N   0  0  0  0  0  0  0  0  0  0  0  0
  140.7520   78.1910  222.7800 C   0  0  1  0  0  0  0  0  0  0  0  0
  141.8640   78.6530  223.6840 C   0  0  0  0  0  0  0  0  0  0  0  0
  141.9540   80.1350  223.8570 C   0  0  0  0  0  0  0  0  0  0  0  0
  141.7530   80.9520  222.6340 C   0  0  2  0  0  0  0  0  0  0  0  0
  140.5950   81.7770  222.6870 O   0  0  0  0  0  0  0  0  0  0  0  0
  140.2240   82.4070  221.4860 C   0  0  0  0  0  0  0  0  0  0  0  0
  141.0620   83.3240  220.9620 N   0  0  0  0  0  0  0  0  0  0  0  0
  140.6980   83.9310  219.8010 C   0  0  0  0  0  0  0  0  0  0  0  0
  139.4910   83.5860  219.2060 C   0  0  0  0  0  0  0  0  0  0  0  0
  138.6470   82.6330  219.7750 C   0  0  0  0  0  0  0  0  0  0  0  0
  139.0590   82.0690  220.9200 N   0  0  0  0  0  0  0  0  0  0  0  0
  141.7360   80.0500  221.4260 C   0  0  0  0  0  0  0  0  0  0  0  0
  140.5600   79.1120  221.5950 C   0  0  0  0  0  0  0  0  0  0  0  0
  139.4590   70.9370  223.6220 C   0  0  0  0  0  0  0  0  0  0  0  0
  140.2950   71.7960  224.3060 C   0  0  0  0  0  0  0  0  0  0  0  0
  140.8410   71.4850  225.5390 C   0  0  0  0  0  0  0  0  0  0  0  0
  140.5150   70.2480  226.0780 C   0  0  0  0  0  0  0  0  0  0  0  0
  141.0650   69.9420  227.3120 C   0  0  0  0  0  0  0  0  0  0  0  0
  140.7490   68.7040  227.8700 C   0  0  0  0  0  0  0  0  0  0  0  0
  141.2630   68.3640  229.0700 F   0  0  0  0  0  0  0  0  0  0  0  0
  139.9070   67.8390  227.1790 C   0  0  0  0  0  0  0  0  0  0  0  0
  139.3790   68.1870  225.9480 C   0  0  0  0  0  0  0  0  0  0  0  0
  139.6810   69.3930  225.3940 C   0  0  0  0  0  0  0  0  0  0  0  0
  139.1660   69.7470  224.1790 N   0  0  0  0  0  0  0  0  0  0  0  0
  138.0850   73.2050  223.0870 H   0  0  0  0  0  0  0  0  0  0  0  0
  137.0904   72.1723  220.5402 H   0  0  0  0  0  0  0  0  0  0  0  0
  137.1637   73.9119  221.0053 H   0  0  0  0  0  0  0  0  0  0  0  0
  140.3777   74.6508  218.2413 H   0  0  0  0  0  0  0  0  0  0  0  0
  139.5858   75.9943  219.0600 H   0  0  0  0  0  0  0  0  0  0  0  0
  142.4205   75.4785  218.9524 H   0  0  0  0  0  0  0  0  0  0  0  0
  141.6667   76.6876  219.9792 H   0  0  0  0  0  0  0  0  0  0  0  0
  142.3240   73.7361  220.6381 H   0  0  0  0  0  0  0  0  0  0  0  0
  142.6564   75.0878  221.6540 H   0  0  0  0  0  0  0  0  0  0  0  0
  140.2804   73.9152  222.2993 H   0  0  0  0  0  0  0  0  0  0  0  0
  142.1060   76.5600  222.3780 H   0  0  0  0  0  0  0  0  0  0  0  0
  139.7973   78.2023  223.3262 H   0  0  0  0  0  0  0  0  0  0  0  0
  142.8168   78.2987  223.2636 H   0  0  0  0  0  0  0  0  0  0  0  0
  141.6483   78.2368  224.6791 H   0  0  0  0  0  0  0  0  0  0  0  0
  142.9533   80.3662  224.2543 H   0  0  0  0  0  0  0  0  0  0  0  0
  141.1256   80.4033  224.5291 H   0  0  0  0  0  0  0  0  0  0  0  0
  142.5998   81.6503  222.5605 H   0  0  0  0  0  0  0  0  0  0  0  0
  141.3511   84.6858  219.3387 H   0  0  0  0  0  0  0  0  0  0  0  0
  139.1948   84.0749  218.2662 H   0  0  0  0  0  0  0  0  0  0  0  0
  137.6901   82.3573  219.3077 H   0  0  0  0  0  0  0  0  0  0  0  0
  142.6727   79.4761  221.3691 H   0  0  0  0  0  0  0  0  0  0  0  0
  141.6435   80.6348  220.4989 H   0  0  0  0  0  0  0  0  0  0  0  0
  140.4530   78.5049  220.6840 H   0  0  0  0  0  0  0  0  0  0  0  0
  139.6581   79.7169  221.7702 H   0  0  0  0  0  0  0  0  0  0  0  0
  140.5374   72.7683  223.8523 H   0  0  0  0  0  0  0  0  0  0  0  0
  141.5033   72.1862  226.0679 H   0  0  0  0  0  0  0  0  0  0  0  0
  141.7268   70.6498  227.8326 H   0  0  0  0  0  0  0  0  0  0  0  0
  139.6566   66.8621  227.6183 H   0  0  0  0  0  0  0  0  0  0  0  0
  138.7151   67.4888  225.4172 H   0  0  0  0  0  0  0  0  0  0  0  0
  1  2  2  0
  2  3  1  0
  3  4  1  0
  4  5  1  0
  5  6  2  0
  5  7  1  0
  7  8  1  0
  8  9  1  0
  9 10  1  0
 10 11  1  0
 11 12  1  0
 12 13  2  0
 12 14  1  0
 14 15  1  0
 15 16  1  0
 16 17  1  0
 17 18  1  0
 18 19  1  0
 19 20  1  0
 20 21  2  0
 21 22  1  0
 22 23  2  0
 23 24  1  0
 24 25  2  0
 18 26  1  0
 26 27  1  0
  2 28  1  0
 28 29  2  0
 29 30  1  0
 30 31  2  0
 31 32  1  0
 32 33  2  0
 33 34  1  0
 33 35  1  0
 35 36  2  0
 36 37  1  0
 37 38  2  0
 11  7  1  0
 27 15  1  0
 38 28  1  0
 25 20  1  0
 37 31  1  0
  3 39  1  0
  4 40  1  0
  4 41  1  0
  8 42  1  0
  8 43  1  0
  9 44  1  0
  9 45  1  0
 10 46  1  0
 10 47  1  0
 11 48  1  1
 14 49  1  0
 15 50  1  1
 16 51  1  0
 16 52  1  0
 17 53  1  0
 17 54  1  0
 18 55  1  6
 22 56  1  0
 23 57  1  0
 24 58  1  0
 26 59  1  0
 26 60  1  0
 27 61  1  0
 27 62  1  0
 29 63  1  0
 30 64  1  0
 32 65  1  0
 35 66  1  0
 36 67  1  0
M  END
>  <smiles>  (14) 
O=C(NCC(=O)N1CCC[C@H]1C(=O)N[C@H]1CC[C@H](Oc2ncccn2)CC1)c1ccc2cc(F)ccc2n1

>  <score_type>  (14) 
oracle

>  <origin>  (14) 
autodockgpu

>  <m_score__min__energy>  (14) 
-9.4299999999999997

>  <m_primary>  (14) 
energy

>  <rmsd>  (14) 
2.7874876322693343

>  <m_score__min__rmsd>  (14) 
2.7874876322693343

>  <meeko>  (14) 
{"free_energy": -8.79, "intermolecular_energy": -11.18, "internal_energy": -2.17, "cluster_size": 17, "cluster_id": 2, "rank_in_cluster": 5}

>  <energy>  (14) 
-7.52

>  <cluster_rmsd>  (14) 
0.93

>  <cluster>  (14) 
1

$$$$

     RDKit          3D

 67 71  0  0  0  0  0  0  0  0999 V2000
  137.7100   70.2560  221.6970 O   0  0  0  0  0  0  0  0  0  0  0  0
  137.8120   70.8920  222.8000 C   0  0  0  0  0  0  0  0  0  0  0  0
  137.2200   72.1990  222.9130 N   0  0  0  0  0  0  0  0  0  0  0  0
  136.5390   72.7080  221.7520 C   0  0  0  0  0  0  0  0  0  0  0  0
  137.1080   74.0250  221.3570 C   0  0  0  0  0  0  0  0  0  0  0  0
  136.4060   75.0550  221.1850 O   0  0  0  0  0  0  0  0  0  0  0  0
  138.5110   74.1590  221.1570 N   0  0  0  0  0  0  0  0  0  0  0  0
  139.1600   74.1290  219.8590 C   0  0  0  0  0  0  0  0  0  0  0  0
  140.5910   73.6710  220.1560 C   0  0  0  0  0  0  0  0  0  0  0  0
  140.5510   73.2790  221.6400 C   0  0  0  0  0  0  0  0  0  0  0  0
  139.5660   74.3480  222.1360 C   0  0  1  0  0  0  0  0  0  0  0  0
  140.2410   75.6570  221.9520 C   0  0  0  0  0  0  0  0  0  0  0  0
  141.4280   75.7760  221.5760 O   0  0  0  0  0  0  0  0  0  0  0  0
  139.5070   76.8340  222.2140 N   0  0  0  0  0  0  0  0  0  0  0  0
  140.1250   78.1420  222.0480 C   0  0  1  0  0  0  0  0  0  0  0  0
  139.1360   79.1620  222.5460 C   0  0  0  0  0  0  0  0  0  0  0  0
  139.7290   80.4880  222.8990 C   0  0  0  0  0  0  0  0  0  0  0  0
  141.0250   80.4540  223.6260 C   0  0  2  0  0  0  0  0  0  0  0  0
  142.1030   81.0180  222.8900 O   0  0  0  0  0  0  0  0  0  0  0  0
  141.8540   81.2960  221.5340 C   0  0  0  0  0  0  0  0  0  0  0  0
  141.3340   82.4990  221.2170 N   0  0  0  0  0  0  0  0  0  0  0  0
  141.0940   82.7640  219.9040 C   0  0  0  0  0  0  0  0  0  0  0  0
  141.3910   81.7950  218.9530 C   0  0  0  0  0  0  0  0  0  0  0  0
  141.9290   80.5610  219.3160 C   0  0  0  0  0  0  0  0  0  0  0  0
  142.1430   80.3570  220.6250 N   0  0  0  0  0  0  0  0  0  0  0  0
  141.3230   79.0390  224.0530 C   0  0  0  0  0  0  0  0  0  0  0  0
  141.4430   78.2160  222.7880 C   0  0  0  0  0  0  0  0  0  0  0  0
  138.5160   70.3200  223.9420 C   0  0  0  0  0  0  0  0  0  0  0  0
  138.5510   68.9460  224.0670 C   0  0  0  0  0  0  0  0  0  0  0  0
  139.1920   68.3060  225.1130 C   0  0  0  0  0  0  0  0  0  0  0  0
  139.8140   69.1120  226.0580 C   0  0  0  0  0  0  0  0  0  0  0  0
  140.4550   68.4650  227.1030 C   0  0  0  0  0  0  0  0  0  0  0  0
  141.0850   69.2580  228.0610 C   0  0  0  0  0  0  0  0  0  0  0  0
  141.7210   68.6710  229.0960 F   0  0  0  0  0  0  0  0  0  0  0  0
  141.0480   70.6420  227.9340 C   0  0  0  0  0  0  0  0  0  0  0  0
  140.3970   71.2450  226.8720 C   0  0  0  0  0  0  0  0  0  0  0  0
  139.7770   70.4810  225.9300 C   0  0  0  0  0  0  0  0  0  0  0  0
  139.1310   71.0660  224.8790 N   0  0  0  0  0  0  0  0  0  0  0  0
  137.2970   72.7330  223.8190 H   0  0  0  0  0  0  0  0  0  0  0  0
  136.6575   71.9973  220.9208 H   0  0  0  0  0  0  0  0  0  0  0  0
  135.4724   72.8351  221.9892 H   0  0  0  0  0  0  0  0  0  0  0  0
  138.6555   73.4178  219.1884 H   0  0  0  0  0  0  0  0  0  0  0  0
  139.1299   75.1056  219.3537 H   0  0  0  0  0  0  0  0  0  0  0  0
  140.8640   72.8084  219.5303 H   0  0  0  0  0  0  0  0  0  0  0  0
  141.3390   74.4486  219.9420 H   0  0  0  0  0  0  0  0  0  0  0  0
  140.1648   72.2598  221.7884 H   0  0  0  0  0  0  0  0  0  0  0  0
  141.5242   73.2541  222.1522 H   0  0  0  0  0  0  0  0  0  0  0  0
  139.2223   74.2961  223.1796 H   0  0  0  0  0  0  0  0  0  0  0  0
  138.5010   76.8060  222.5340 H   0  0  0  0  0  0  0  0  0  0  0  0
  140.3630   78.3364  220.9918 H   0  0  0  0  0  0  0  0  0  0  0  0
  138.6475   78.7554  223.4438 H   0  0  0  0  0  0  0  0  0  0  0  0
  138.4361   79.3458  221.7175 H   0  0  0  0  0  0  0  0  0  0  0  0
  139.0039   81.0227  223.5302 H   0  0  0  0  0  0  0  0  0  0  0  0
  139.9426   80.9803  221.9388 H   0  0  0  0  0  0  0  0  0  0  0  0
  140.9219   81.0923  224.5159 H   0  0  0  0  0  0  0  0  0  0  0  0
  140.6705   83.7324  219.5994 H   0  0  0  0  0  0  0  0  0  0  0  0
  141.1974   82.0062  217.8910 H   0  0  0  0  0  0  0  0  0  0  0  0
  142.1665   79.7922  218.5660 H   0  0  0  0  0  0  0  0  0  0  0  0
  140.5059   78.6527  224.6799 H   0  0  0  0  0  0  0  0  0  0  0  0
  142.2498   78.9920  224.6436 H   0  0  0  0  0  0  0  0  0  0  0  0
  141.7618   77.1972  223.0532 H   0  0  0  0  0  0  0  0  0  0  0  0
  142.1814   78.6985  222.1308 H   0  0  0  0  0  0  0  0  0  0  0  0
  138.0484   68.3342  223.3034 H   0  0  0  0  0  0  0  0  0  0  0  0
  139.2083   67.2090  225.1926 H   0  0  0  0  0  0  0  0  0  0  0  0
  140.4662   67.3673  227.1737 H   0  0  0  0  0  0  0  0  0  0  0  0
  141.5444   71.2680  228.6901 H   0  0  0  0  0  0  0  0  0  0  0  0
  140.3802   72.3417  226.7885 H   0  0  0  0  0  0  0  0  0  0  0  0
  1  2  2  0
  2  3  1  0
  3  4  1  0
  4  5  1  0
  5  6  2  0
  5  7  1  0
  7  8  1  0
  8  9  1  0
  9 10  1  0
 10 11  1  0
 11 12  1  0
 12 13  2  0
 12 14  1  0
 14 15  1  0
 15 16  1  0
 16 17  1  0
 17 18  1  0
 18 19  1  0
 19 20  1  0
 20 21  2  0
 21 22  1  0
 22 23  2  0
 23 24  1  0
 24 25  2  0
 18 26  1  0
 26 27  1  0
  2 28  1  0
 28 29  2  0
 29 30  1  0
 30 31  2  0
 31 32  1  0
 32 33  2  0
 33 34  1  0
 33 35  1  0
 35 36  2  0
 36 37  1  0
 37 38  2  0
 11  7  1  0
 27 15  1  0
 38 28  1  0
 25 20  1  0
 37 31  1  0
  3 39  1  0
  4 40  1  0
  4 41  1  0
  8 42  1  0
  8 43  1  0
  9 44  1  0
  9 45  1  0
 10 46  1  0
 10 47  1  0
 11 48  1  1
 14 49  1  0
 15 50  1  6
 16 51  1  0
 16 52  1  0
 17 53  1  0
 17 54  1  0
 18 55  1  1
 22 56  1  0
 23 57  1  0
 24 58  1  0
 26 59  1  0
 26 60  1  0
 27 61  1  0
 27 62  1  0
 29 63  1  0
 30 64  1  0
 32 65  1  0
 35 66  1  0
 36 67  1  0
M  END
>  <smiles>  (15) 
O=C(NCC(=O)N1CCC[C@H]1C(=O)N[C@H]1CC[C@H](Oc2ncccn2)CC1)c1ccc2cc(F)ccc2n1

>  <score_type>  (15) 
oracle

>  <origin>  (15) 
autodockgpu

>  <m_score__min__energy>  (15) 
-9.4299999999999997

>  <m_primary>  (15) 
energy

>  <rmsd>  (15) 
2.9656723298871546

>  <m_score__min__rmsd>  (15) 
2.9656723298871546

>  <meeko>  (15) 
{"free_energy": -8.17, "intermolecular_energy": -10.56, "internal_energy": -2.35, "cluster_size": 2, "cluster_id": 3, "rank_in_cluster": 2}

>  <energy>  (15) 
-7.23

>  <cluster_rmsd>  (15) 
1.79

>  <cluster>  (15) 
1

$$$$

     RDKit          3D

 67 71  0  0  0  0  0  0  0  0999 V2000
  140.2890   73.2070  222.7150 O   0  0  0  0  0  0  0  0  0  0  0  0
  140.0960   74.0330  221.7600 C   0  0  0  0  0  0  0  0  0  0  0  0
  140.1080   73.5500  220.4030 N   0  0  0  0  0  0  0  0  0  0  0  0
  140.3410   72.1430  220.2160 C   0  0  0  0  0  0  0  0  0  0  0  0
  141.8010   71.8720  220.1040 C   0  0  0  0  0  0  0  0  0  0  0  0
  142.3210   70.7640  220.3970 O   0  0  0  0  0  0  0  0  0  0  0  0
  142.6770   72.8960  219.6470 N   0  0  0  0  0  0  0  0  0  0  0  0
  143.3630   72.8760  218.3670 C   0  0  0  0  0  0  0  0  0  0  0  0
  144.5990   73.7550  218.5790 C   0  0  0  0  0  0  0  0  0  0  0  0
  144.5920   74.0390  220.0870 C   0  0  0  0  0  0  0  0  0  0  0  0
  143.0750   74.1290  220.3010 C   0  0  1  0  0  0  0  0  0  0  0  0
  142.6140   75.3150  219.5370 C   0  0  0  0  0  0  0  0  0  0  0  0
  141.6460   75.2930  218.7450 O   0  0  0  0  0  0  0  0  0  0  0  0
  143.3020   76.5350  219.7110 N   0  0  0  0  0  0  0  0  0  0  0  0
  142.8880   77.7270  218.9840 C   0  0  1  0  0  0  0  0  0  0  0  0
  142.9390   77.3870  217.5180 C   0  0  0  0  0  0  0  0  0  0  0  0
  142.1250   78.2820  216.6400 C   0  0  0  0  0  0  0  0  0  0  0  0
  140.7860   78.6660  217.1550 C   0  0  2  0  0  0  0  0  0  0  0  0
  140.6540   80.0580  217.4140 O   0  0  0  0  0  0  0  0  0  0  0  0
  141.7030   80.8780  216.9600 C   0  0  0  0  0  0  0  0  0  0  0  0
  141.7300   81.2100  215.6540 N   0  0  0  0  0  0  0  0  0  0  0  0
  142.7470   82.0020  215.2180 C   0  0  0  0  0  0  0  0  0  0  0  0
  143.7040   82.4350  216.1280 C   0  0  0  0  0  0  0  0  0  0  0  0
  143.6450   82.0720  217.4730 C   0  0  0  0  0  0  0  0  0  0  0  0
  142.6210   81.2890  217.8430 N   0  0  0  0  0  0  0  0  0  0  0  0
  140.4640   77.8410  218.3770 C   0  0  0  0  0  0  0  0  0  0  0  0
  141.5100   78.1760  219.4180 C   0  0  0  0  0  0  0  0  0  0  0  0
  139.8650   75.4500  222.0170 C   0  0  0  0  0  0  0  0  0  0  0  0
  138.5770   75.9340  221.8990 C   0  0  0  0  0  0  0  0  0  0  0  0
  138.2550   77.2610  222.1220 C   0  0  0  0  0  0  0  0  0  0  0  0
  139.2940   78.1110  222.4750 C   0  0  0  0  0  0  0  0  0  0  0  0
  138.9650   79.4390  222.6970 C   0  0  0  0  0  0  0  0  0  0  0  0
  139.9960   80.3080  223.0530 C   0  0  0  0  0  0  0  0  0  0  0  0
  139.7200   81.6090  223.2780 F   0  0  0  0  0  0  0  0  0  0  0  0
  141.2920   79.8180  223.1700 C   0  0  0  0  0  0  0  0  0  0  0  0
  141.5750   78.4830  222.9400 C   0  0  0  0  0  0  0  0  0  0  0  0
  140.5760   77.6250  222.5910 C   0  0  0  0  0  0  0  0  0  0  0  0
  140.8450   76.3060  222.3610 N   0  0  0  0  0  0  0  0  0  0  0  0
  139.9500   74.2220  219.6070 H   0  0  0  0  0  0  0  0  0  0  0  0
  139.9341   71.5903  221.0756 H   0  0  0  0  0  0  0  0  0  0  0  0
  139.8443   71.8177  219.2900 H   0  0  0  0  0  0  0  0  0  0  0  0
  143.6569   71.8503  218.0996 H   0  0  0  0  0  0  0  0  0  0  0  0
  142.7272   73.2402  217.5466 H   0  0  0  0  0  0  0  0  0  0  0  0
  145.5147   73.2210  218.2851 H   0  0  0  0  0  0  0  0  0  0  0  0
  144.5772   74.6729  217.9732 H   0  0  0  0  0  0  0  0  0  0  0  0
  145.0430   73.2185  220.6643 H   0  0  0  0  0  0  0  0  0  0  0  0
  145.1703   74.9180  220.4079 H   0  0  0  0  0  0  0  0  0  0  0  0
  142.6991   74.2306  221.3298 H   0  0  0  0  0  0  0  0  0  0  0  0
  144.1280   76.6230  220.3640 H   0  0  0  0  0  0  0  0  0  0  0  0
  143.5586   78.5728  219.1961 H   0  0  0  0  0  0  0  0  0  0  0  0
  142.5720   76.3577  217.3921 H   0  0  0  0  0  0  0  0  0  0  0  0
  143.9861   77.5147  217.2060 H   0  0  0  0  0  0  0  0  0  0  0  0
  141.9797   77.7672  215.6788 H   0  0  0  0  0  0  0  0  0  0  0  0
  142.6934   79.2211  216.5699 H   0  0  0  0  0  0  0  0  0  0  0  0
  140.0541   78.4525  216.3621 H   0  0  0  0  0  0  0  0  0  0  0  0
  142.8108   82.2955  214.1598 H   0  0  0  0  0  0  0  0  0  0  0  0
  144.5257   83.0780  215.7797 H   0  0  0  0  0  0  0  0  0  0  0  0
  144.4017   82.4114  218.1956 H   0  0  0  0  0  0  0  0  0  0  0  0
  140.5033   76.7694  218.1317 H   0  0  0  0  0  0  0  0  0  0  0  0
  139.4525   78.0628  218.7479 H   0  0  0  0  0  0  0  0  0  0  0  0
  141.2503   77.6721  220.3607 H   0  0  0  0  0  0  0  0  0  0  0  0
  141.5284   79.2679  219.5498 H   0  0  0  0  0  0  0  0  0  0  0  0
  137.7748   75.2365  221.6164 H   0  0  0  0  0  0  0  0  0  0  0  0
  137.2220   77.6260  222.0239 H   0  0  0  0  0  0  0  0  0  0  0  0
  137.9289   79.7944  222.5961 H   0  0  0  0  0  0  0  0  0  0  0  0
  142.1059   80.5029  223.4500 H   0  0  0  0  0  0  0  0  0  0  0  0
  142.6067   78.1146  223.0390 H   0  0  0  0  0  0  0  0  0  0  0  0
  1  2  2  0
  2  3  1  0
  3  4  1  0
  4  5  1  0
  5  6  2  0
  5  7  1  0
  7  8  1  0
  8  9  1  0
  9 10  1  0
 10 11  1  0
 11 12  1  0
 12 13  2  0
 12 14  1  0
 14 15  1  0
 15 16  1  0
 16 17  1  0
 17 18  1  0
 18 19  1  0
 19 20  1  0
 20 21  2  0
 21 22  1  0
 22 23  2  0
 23 24  1  0
 24 25  2  0
 18 26  1  0
 26 27  1  0
  2 28  1  0
 28 29  2  0
 29 30  1  0
 30 31  2  0
 31 32  1  0
 32 33  2  0
 33 34  1  0
 33 35  1  0
 35 36  2  0
 36 37  1  0
 37 38  2  0
 11  7  1  0
 27 15  1  0
 38 28  1  0
 25 20  1  0
 37 31  1  0
  3 39  1  0
  4 40  1  0
  4 41  1  0
  8 42  1  0
  8 43  1  0
  9 44  1  0
  9 45  1  0
 10 46  1  0
 10 47  1  0
 11 48  1  1
 14 49  1  0
 15 50  1  6
 16 51  1  0
 16 52  1  0
 17 53  1  0
 17 54  1  0
 18 55  1  6
 22 56  1  0
 23 57  1  0
 24 58  1  0
 26 59  1  0
 26 60  1  0
 27 61  1  0
 27 62  1  0
 29 63  1  0
 30 64  1  0
 32 65  1  0
 35 66  1  0
 36 67  1  0
M  END
>  <smiles>  (16) 
O=C(NCC(=O)N1CCC[C@H]1C(=O)N[C@H]1CC[C@H](Oc2ncccn2)CC1)c1ccc2cc(F)ccc2n1

>  <score_type>  (16) 
oracle

>  <origin>  (16) 
autodockgpu

>  <m_score__min__energy>  (16) 
-9.4299999999999997

>  <m_primary>  (16) 
energy

>  <rmsd>  (16) 
6.611775796193605

>  <m_score__min__rmsd>  (16) 
6.611775796193605

>  <meeko>  (16) 
{"free_energy": -6.08, "intermolecular_energy": -8.47, "internal_energy": -4.11, "cluster_size": 1, "cluster_id": 10, "rank_in_cluster": 1}

>  <energy>  (16) 
-8.99

>  <cluster_rmsd>  (16) 
0.0

>  <cluster>  (16) 
2

$$$$

     RDKit          3D

 67 71  0  0  0  0  0  0  0  0999 V2000
  140.3370   73.3590  222.2770 O   0  0  0  0  0  0  0  0  0  0  0  0
  140.1440   72.0960  222.2500 C   0  0  0  0  0  0  0  0  0  0  0  0
  139.9660   71.4420  220.9800 N   0  0  0  0  0  0  0  0  0  0  0  0
  140.0210   72.2730  219.8060 C   0  0  0  0  0  0  0  0  0  0  0  0
  141.4240   72.3950  219.3260 C   0  0  0  0  0  0  0  0  0  0  0  0
  142.2180   71.4200  219.2640 O   0  0  0  0  0  0  0  0  0  0  0  0
  141.9230   73.6610  218.9090 N   0  0  0  0  0  0  0  0  0  0  0  0
  141.3090   74.4860  217.8840 C   0  0  0  0  0  0  0  0  0  0  0  0
  142.4550   75.3470  217.3460 C   0  0  0  0  0  0  0  0  0  0  0  0
  143.7040   74.7560  218.0160 C   0  0  0  0  0  0  0  0  0  0  0  0
  143.0880   74.3900  219.3740 C   0  0  1  0  0  0  0  0  0  0  0  0
  142.6990   75.6710  220.0150 C   0  0  0  0  0  0  0  0  0  0  0  0
  143.3820   76.7160  219.9440 O   0  0  0  0  0  0  0  0  0  0  0  0
  141.4920   75.7160  220.7470 N   0  0  0  0  0  0  0  0  0  0  0  0
  141.0670   76.9490  221.3950 C   0  0  1  0  0  0  0  0  0  0  0  0
  140.3600   77.7730  220.3520 C   0  0  0  0  0  0  0  0  0  0  0  0
  139.4560   78.8300  220.8980 C   0  0  0  0  0  0  0  0  0  0  0  0
  138.6280   78.4460  222.0700 C   0  0  2  0  0  0  0  0  0  0  0  0
  138.9450   79.1710  223.2520 O   0  0  0  0  0  0  0  0  0  0  0  0
  140.2030   79.7990  223.2790 C   0  0  0  0  0  0  0  0  0  0  0  0
  141.2360   79.1310  223.8310 N   0  0  0  0  0  0  0  0  0  0  0  0
  142.4500   79.7430  223.8560 C   0  0  0  0  0  0  0  0  0  0  0  0
  142.5780   81.0170  223.3160 C   0  0  0  0  0  0  0  0  0  0  0  0
  141.4880   81.6790  222.7520 C   0  0  0  0  0  0  0  0  0  0  0  0
  140.3160   81.0260  222.7570 N   0  0  0  0  0  0  0  0  0  0  0  0
  138.7310   76.9570  222.2880 C   0  0  0  0  0  0  0  0  0  0  0  0
  140.1840   76.6570  222.5880 C   0  0  0  0  0  0  0  0  0  0  0  0
  140.0990   71.3090  223.4770 C   0  0  0  0  0  0  0  0  0  0  0  0
  139.5050   70.0640  223.4330 C   0  0  0  0  0  0  0  0  0  0  0  0
  139.4120   69.2400  224.5410 C   0  0  0  0  0  0  0  0  0  0  0  0
  139.9470   69.7210  225.7290 C   0  0  0  0  0  0  0  0  0  0  0  0
  139.8510   68.8920  226.8350 C   0  0  0  0  0  0  0  0  0  0  0  0
  140.3820   69.3570  228.0380 C   0  0  0  0  0  0  0  0  0  0  0  0
  140.3100   68.5830  229.1400 F   0  0  0  0  0  0  0  0  0  0  0  0
  140.9790   70.6130  228.0800 C   0  0  0  0  0  0  0  0  0  0  0  0
  141.0540   71.4070  226.9490 C   0  0  0  0  0  0  0  0  0  0  0  0
  140.5380   70.9630  225.7690 C   0  0  0  0  0  0  0  0  0  0  0  0
  140.6060   71.7390  224.6470 N   0  0  0  0  0  0  0  0  0  0  0  0
  139.8050   70.4010  220.9450 H   0  0  0  0  0  0  0  0  0  0  0  0
  139.4041   71.8236  219.0139 H   0  0  0  0  0  0  0  0  0  0  0  0
  139.6402   73.2739  220.0575 H   0  0  0  0  0  0  0  0  0  0  0  0
  140.8842   73.8609  217.0848 H   0  0  0  0  0  0  0  0  0  0  0  0
  140.4796   75.0924  218.2770 H   0  0  0  0  0  0  0  0  0  0  0  0
  142.5235   75.2682  216.2510 H   0  0  0  0  0  0  0  0  0  0  0  0
  142.3216   76.4169  217.5642 H   0  0  0  0  0  0  0  0  0  0  0  0
  144.0813   73.8719  217.4811 H   0  0  0  0  0  0  0  0  0  0  0  0
  144.5817   75.4179  218.0544 H   0  0  0  0  0  0  0  0  0  0  0  0
  143.7058   73.8326  220.0935 H   0  0  0  0  0  0  0  0  0  0  0  0
  140.8670   74.8710  220.8480 H   0  0  0  0  0  0  0  0  0  0  0  0
  141.9291   77.5064  221.7902 H   0  0  0  0  0  0  0  0  0  0  0  0
  139.7574   77.0947  219.7301 H   0  0  0  0  0  0  0  0  0  0  0  0
  141.1443   78.2972  219.7863 H   0  0  0  0  0  0  0  0  0  0  0  0
  138.7737   79.1369  220.0916 H   0  0  0  0  0  0  0  0  0  0  0  0
  140.1216   79.6284  221.2578 H   0  0  0  0  0  0  0  0  0  0  0  0
  137.5862   78.7148  221.8410 H   0  0  0  0  0  0  0  0  0  0  0  0
  143.3201   79.2358  224.2983 H   0  0  0  0  0  0  0  0  0  0  0  0
  143.5594   81.5135  223.3338 H   0  0  0  0  0  0  0  0  0  0  0  0
  141.5844   82.6876  222.3238 H   0  0  0  0  0  0  0  0  0  0  0  0
  138.4126   76.4191  221.3829 H   0  0  0  0  0  0  0  0  0  0  0  0
  138.0828   76.6341  223.1160 H   0  0  0  0  0  0  0  0  0  0  0  0
  140.2822   75.5942  222.8540 H   0  0  0  0  0  0  0  0  0  0  0  0
  140.5048   77.2998  223.4210 H   0  0  0  0  0  0  0  0  0  0  0  0
  139.0883   69.7121  222.4778 H   0  0  0  0  0  0  0  0  0  0  0  0
  138.9363   68.2498  224.4834 H   0  0  0  0  0  0  0  0  0  0  0  0
  139.3735   67.9034  226.7668 H   0  0  0  0  0  0  0  0  0  0  0  0
  141.3984   70.9811  229.0280 H   0  0  0  0  0  0  0  0  0  0  0  0
  141.5304   72.3970  227.0029 H   0  0  0  0  0  0  0  0  0  0  0  0
  1  2  2  0
  2  3  1  0
  3  4  1  0
  4  5  1  0
  5  6  2  0
  5  7  1  0
  7  8  1  0
  8  9  1  0
  9 10  1  0
 10 11  1  0
 11 12  1  0
 12 13  2  0
 12 14  1  0
 14 15  1  0
 15 16  1  0
 16 17  1  0
 17 18  1  0
 18 19  1  0
 19 20  1  0
 20 21  2  0
 21 22  1  0
 22 23  2  0
 23 24  1  0
 24 25  2  0
 18 26  1  0
 26 27  1  0
  2 28  1  0
 28 29  2  0
 29 30  1  0
 30 31  2  0
 31 32  1  0
 32 33  2  0
 33 34  1  0
 33 35  1  0
 35 36  2  0
 36 37  1  0
 37 38  2  0
 11  7  1  0
 27 15  1  0
 38 28  1  0
 25 20  1  0
 37 31  1  0
  3 39  1  0
  4 40  1  0
  4 41  1  0
  8 42  1  0
  8 43  1  0
  9 44  1  0
  9 45  1  0
 10 46  1  0
 10 47  1  0
 11 48  1  1
 14 49  1  0
 15 50  1  1
 16 51  1  0
 16 52  1  0
 17 53  1  0
 17 54  1  0
 18 55  1  6
 22 56  1  0
 23 57  1  0
 24 58  1  0
 26 59  1  0
 26 60  1  0
 27 61  1  0
 27 62  1  0
 29 63  1  0
 30 64  1  0
 32 65  1  0
 35 66  1  0
 36 67  1  0
M  END
>  <smiles>  (17) 
O=C(NCC(=O)N1CCC[C@H]1C(=O)N[C@H]1CC[C@H](Oc2ncccn2)CC1)c1ccc2cc(F)ccc2n1

>  <score_type>  (17) 
oracle

>  <origin>  (17) 
autodockgpu

>  <m_score__min__energy>  (17) 
-9.4299999999999997

>  <m_primary>  (17) 
energy

>  <rmsd>  (17) 
3.067491903813146

>  <m_score__min__rmsd>  (17) 
3.067491903813146

>  <meeko>  (17) 
{"free_energy": -8.21, "intermolecular_energy": -10.6, "internal_energy": -3.16, "cluster_size": 17, "cluster_id": 2, "rank_in_cluster": 14}

>  <energy>  (17) 
-8.91

>  <cluster_rmsd>  (17) 
0.82

>  <cluster>  (17) 
2

$$$$

     RDKit          3D

 67 71  0  0  0  0  0  0  0  0999 V2000
  139.9950   72.9830  222.7470 O   0  0  0  0  0  0  0  0  0  0  0  0
  140.0410   71.7140  222.8880 C   0  0  0  0  0  0  0  0  0  0  0  0
  139.8680   70.8740  221.7320 N   0  0  0  0  0  0  0  0  0  0  0  0
  139.6540   71.5360  220.4720 C   0  0  0  0  0  0  0  0  0  0  0  0
  138.2050   71.5390  220.1320 C   0  0  0  0  0  0  0  0  0  0  0  0
  137.6820   70.7130  219.3390 O   0  0  0  0  0  0  0  0  0  0  0  0
  137.3420   72.5080  220.7160 N   0  0  0  0  0  0  0  0  0  0  0  0
  136.9350   72.5090  222.1100 C   0  0  0  0  0  0  0  0  0  0  0  0
  135.6010   73.2610  222.1210 C   0  0  0  0  0  0  0  0  0  0  0  0
  135.2730   73.4480  220.6320 C   0  0  0  0  0  0  0  0  0  0  0  0
  136.7000   73.6570  220.1050 C   0  0  1  0  0  0  0  0  0  0  0  0
  137.1860   74.9250  220.7040 C   0  0  0  0  0  0  0  0  0  0  0  0
  136.5340   75.9920  220.6870 O   0  0  0  0  0  0  0  0  0  0  0  0
  138.4530   74.9310  221.3280 N   0  0  0  0  0  0  0  0  0  0  0  0
  138.9740   76.1500  221.9290 C   0  0  1  0  0  0  0  0  0  0  0  0
  139.0480   77.1830  220.8370 C   0  0  0  0  0  0  0  0  0  0  0  0
  139.1030   78.5980  221.3170 C   0  0  0  0  0  0  0  0  0  0  0  0
  138.2100   78.9410  222.4530 C   0  0  2  0  0  0  0  0  0  0  0  0
  138.9100   79.3090  223.6350 O   0  0  0  0  0  0  0  0  0  0  0  0
  140.2620   79.6630  223.4730 C   0  0  0  0  0  0  0  0  0  0  0  0
  141.1820   78.6780  223.4700 N   0  0  0  0  0  0  0  0  0  0  0  0
  142.4880   79.0240  223.3150 C   0  0  0  0  0  0  0  0  0  0  0  0
  142.8180   80.3660  223.1650 C   0  0  0  0  0  0  0  0  0  0  0  0
  141.8410   81.3600  223.1720 C   0  0  0  0  0  0  0  0  0  0  0  0
  140.5710   80.9570  223.3300 N   0  0  0  0  0  0  0  0  0  0  0  0
  137.2590   77.7980  222.7050 C   0  0  0  0  0  0  0  0  0  0  0  0
  138.1040   76.6000  223.0820 C   0  0  0  0  0  0  0  0  0  0  0  0
  140.2620   71.1040  224.1940 C   0  0  0  0  0  0  0  0  0  0  0  0
  140.7490   71.8990  225.2130 C   0  0  0  0  0  0  0  0  0  0  0  0
  140.9920   71.4170  226.4860 C   0  0  0  0  0  0  0  0  0  0  0  0
  140.7260   70.0730  226.7120 C   0  0  0  0  0  0  0  0  0  0  0  0
  140.9720   69.5960  227.9900 C   0  0  0  0  0  0  0  0  0  0  0  0
  140.7100   68.2480  228.2360 C   0  0  0  0  0  0  0  0  0  0  0  0
  140.9350   67.7410  229.4650 F   0  0  0  0  0  0  0  0  0  0  0  0
  140.2210   67.4490  227.2080 C   0  0  0  0  0  0  0  0  0  0  0  0
  139.9890   67.9690  225.9470 C   0  0  0  0  0  0  0  0  0  0  0  0
  140.2410   69.2830  225.6950 C   0  0  0  0  0  0  0  0  0  0  0  0
  140.0170   69.8070  224.4540 N   0  0  0  0  0  0  0  0  0  0  0  0
  139.9040   69.8260  221.8360 H   0  0  0  0  0  0  0  0  0  0  0  0
  140.0131   72.5735  220.5411 H   0  0  0  0  0  0  0  0  0  0  0  0
  140.2057   70.9990  219.6864 H   0  0  0  0  0  0  0  0  0  0  0  0
  136.8043   71.4804  222.4773 H   0  0  0  0  0  0  0  0  0  0  0  0
  137.6847   72.9788  222.7637 H   0  0  0  0  0  0  0  0  0  0  0  0
  134.8215   72.6687  222.6225 H   0  0  0  0  0  0  0  0  0  0  0  0
  135.6546   74.2141  222.6676 H   0  0  0  0  0  0  0  0  0  0  0  0
  134.7980   72.5560  220.1977 H   0  0  0  0  0  0  0  0  0  0  0  0
  134.5571   74.2500  220.3991 H   0  0  0  0  0  0  0  0  0  0  0  0
  136.8485   73.7255  219.0172 H   0  0  0  0  0  0  0  0  0  0  0  0
  139.0560   74.0650  221.3770 H   0  0  0  0  0  0  0  0  0  0  0  0
  139.9745   75.9843  222.3551 H   0  0  0  0  0  0  0  0  0  0  0  0
  138.1584   77.0719  220.1996 H   0  0  0  0  0  0  0  0  0  0  0  0
  139.9908   77.0005  220.3006 H   0  0  0  0  0  0  0  0  0  0  0  0
  138.8360   79.2495  220.4719 H   0  0  0  0  0  0  0  0  0  0  0  0
  140.1264   78.7410  221.6939 H   0  0  0  0  0  0  0  0  0  0  0  0
  137.6413   79.8379  222.1664 H   0  0  0  0  0  0  0  0  0  0  0  0
  143.2723   78.2527  223.3084 H   0  0  0  0  0  0  0  0  0  0  0  0
  143.8732   80.6496  223.0380 H   0  0  0  0  0  0  0  0  0  0  0  0
  142.0985   82.4229  223.0538 H   0  0  0  0  0  0  0  0  0  0  0  0
  136.6787   77.5810  221.7961 H   0  0  0  0  0  0  0  0  0  0  0  0
  136.5473   78.0464  223.5061 H   0  0  0  0  0  0  0  0  0  0  0  0
  137.4407   75.7723  223.3735 H   0  0  0  0  0  0  0  0  0  0  0  0
  138.7596   76.8891  223.9166 H   0  0  0  0  0  0  0  0  0  0  0  0
  140.9519   72.9596  225.0032 H   0  0  0  0  0  0  0  0  0  0  0  0
  141.3785   72.0686  227.2835 H   0  0  0  0  0  0  0  0  0  0  0  0
  141.3593   70.2556  228.7806 H   0  0  0  0  0  0  0  0  0  0  0  0
  140.0152   66.3857  227.4007 H   0  0  0  0  0  0  0  0  0  0  0  0
  139.6008   67.3205  225.1478 H   0  0  0  0  0  0  0  0  0  0  0  0
  1  2  2  0
  2  3  1  0
  3  4  1  0
  4  5  1  0
  5  6  2  0
  5  7  1  0
  7  8  1  0
  8  9  1  0
  9 10  1  0
 10 11  1  0
 11 12  1  0
 12 13  2  0
 12 14  1  0
 14 15  1  0
 15 16  1  0
 16 17  1  0
 17 18  1  0
 18 19  1  0
 19 20  1  0
 20 21  2  0
 21 22  1  0
 22 23  2  0
 23 24  1  0
 24 25  2  0
 18 26  1  0
 26 27  1  0
  2 28  1  0
 28 29  2  0
 29 30  1  0
 30 31  2  0
 31 32  1  0
 32 33  2  0
 33 34  1  0
 33 35  1  0
 35 36  2  0
 36 37  1  0
 37 38  2  0
 11  7  1  0
 27 15  1  0
 38 28  1  0
 25 20  1  0
 37 31  1  0
  3 39  1  0
  4 40  1  0
  4 41  1  0
  8 42  1  0
  8 43  1  0
  9 44  1  0
  9 45  1  0
 10 46  1  0
 10 47  1  0
 11 48  1  6
 14 49  1  0
 15 50  1  1
 16 51  1  0
 16 52  1  0
 17 53  1  0
 17 54  1  0
 18 55  1  6
 22 56  1  0
 23 57  1  0
 24 58  1  0
 26 59  1  0
 26 60  1  0
 27 61  1  0
 27 62  1  0
 29 63  1  0
 30 64  1  0
 32 65  1  0
 35 66  1  0
 36 67  1  0
M  END
>  <smiles>  (18) 
O=C(NCC(=O)N1CCC[C@H]1C(=O)N[C@H]1CC[C@H](Oc2ncccn2)CC1)c1ccc2cc(F)ccc2n1

>  <score_type>  (18) 
oracle

>  <origin>  (18) 
autodockgpu

>  <m_score__min__energy>  (18) 
-9.4299999999999997

>  <m_primary>  (18) 
energy

>  <rmsd>  (18) 
4.636429568334604

>  <m_score__min__rmsd>  (18) 
4.636429568334604

>  <meeko>  (18) 
{"free_energy": -7.44, "intermolecular_energy": -9.83, "internal_energy": -3.26, "cluster_size": 4, "cluster_id": 4, "rank_in_cluster": 3}

>  <energy>  (18) 
-8.9

>  <cluster_rmsd>  (18) 
0.23

>  <cluster>  (18) 
2

$$$$

     RDKit          3D

 67 71  0  0  0  0  0  0  0  0999 V2000
  141.0380   72.7870  221.9820 O   0  0  0  0  0  0  0  0  0  0  0  0
  140.0020   72.5210  222.6790 C   0  0  0  0  0  0  0  0  0  0  0  0
  138.7560   73.1680  222.3590 N   0  0  0  0  0  0  0  0  0  0  0  0
  138.7670   74.0880  221.2520 C   0  0  0  0  0  0  0  0  0  0  0  0
  138.9030   75.4860  221.7450 C   0  0  0  0  0  0  0  0  0  0  0  0
  138.0690   76.0290  222.5150 O   0  0  0  0  0  0  0  0  0  0  0  0
  140.0190   76.2730  221.3440 N   0  0  0  0  0  0  0  0  0  0  0  0
  141.0750   76.7120  222.2390 C   0  0  0  0  0  0  0  0  0  0  0  0
  141.6390   77.9730  221.5780 C   0  0  0  0  0  0  0  0  0  0  0  0
  140.6680   78.2460  220.4200 C   0  0  0  0  0  0  0  0  0  0  0  0
  140.3550   76.7940  220.0320 C   0  0  1  0  0  0  0  0  0  0  0  0
  141.6260   76.2110  219.5320 C   0  0  0  0  0  0  0  0  0  0  0  0
  142.4100   76.8150  218.7680 O   0  0  0  0  0  0  0  0  0  0  0  0
  141.9710   74.9040  219.9400 N   0  0  0  0  0  0  0  0  0  0  0  0
  143.2060   74.2880  219.4760 C   0  0  1  0  0  0  0  0  0  0  0  0
  144.2750   74.6380  220.4780 C   0  0  0  0  0  0  0  0  0  0  0  0
  145.4720   73.7440  220.4520 C   0  0  0  0  0  0  0  0  0  0  0  0
  145.2050   72.2920  220.2930 C   0  0  2  0  0  0  0  0  0  0  0  0
  145.7140   71.7490  219.0820 O   0  0  0  0  0  0  0  0  0  0  0  0
  145.5840   70.3590  218.9180 C   0  0  0  0  0  0  0  0  0  0  0  0
  146.4290   69.5560  219.5950 N   0  0  0  0  0  0  0  0  0  0  0  0
  146.3000   68.2120  219.4330 C   0  0  0  0  0  0  0  0  0  0  0  0
  145.3110   67.7250  218.5870 C   0  0  0  0  0  0  0  0  0  0  0  0
  144.4530   68.5830  217.9020 C   0  0  0  0  0  0  0  0  0  0  0  0
  144.6290   69.8980  218.1010 N   0  0  0  0  0  0  0  0  0  0  0  0
  143.7250   72.0370  220.4370 C   0  0  0  0  0  0  0  0  0  0  0  0
  143.0400   72.7920  219.3180 C   0  0  0  0  0  0  0  0  0  0  0  0
  140.0570   71.5780  223.7900 C   0  0  0  0  0  0  0  0  0  0  0  0
  139.5990   70.2920  223.5800 C   0  0  0  0  0  0  0  0  0  0  0  0
  139.6090   69.3240  224.5680 C   0  0  0  0  0  0  0  0  0  0  0  0
  140.1050   69.6970  225.8100 C   0  0  0  0  0  0  0  0  0  0  0  0
  140.1120   68.7230  226.7960 C   0  0  0  0  0  0  0  0  0  0  0  0
  140.6070   69.0790  228.0500 C   0  0  0  0  0  0  0  0  0  0  0  0
  140.6320   68.1620  229.0400 F   0  0  0  0  0  0  0  0  0  0  0  0
  141.0660   70.3750  228.2600 C   0  0  0  0  0  0  0  0  0  0  0  0
  141.0410   71.3150  227.2450 C   0  0  0  0  0  0  0  0  0  0  0  0
  140.5600   70.9790  226.0170 C   0  0  0  0  0  0  0  0  0  0  0  0
  140.5300   71.9000  225.0080 N   0  0  0  0  0  0  0  0  0  0  0  0
  137.8940   72.9560  222.9270 H   0  0  0  0  0  0  0  0  0  0  0  0
  139.6146   73.8517  220.5919 H   0  0  0  0  0  0  0  0  0  0  0  0
  137.8212   73.9937  220.6983 H   0  0  0  0  0  0  0  0  0  0  0  0
  140.6693   76.9434  223.2349 H   0  0  0  0  0  0  0  0  0  0  0  0
  141.8435   75.9395  222.3896 H   0  0  0  0  0  0  0  0  0  0  0  0
  141.6507   78.8147  222.2861 H   0  0  0  0  0  0  0  0  0  0  0  0
  142.6784   77.8475  221.2406 H   0  0  0  0  0  0  0  0  0  0  0  0
  139.7703   78.7882  220.7519 H   0  0  0  0  0  0  0  0  0  0  0  0
  141.0584   78.8812  219.6112 H   0  0  0  0  0  0  0  0  0  0  0  0
  139.5840   76.6132  219.2685 H   0  0  0  0  0  0  0  0  0  0  0  0
  141.3540   74.3370  220.5830 H   0  0  0  0  0  0  0  0  0  0  0  0
  143.4868   74.6647  218.4814 H   0  0  0  0  0  0  0  0  0  0  0  0
  143.8317   74.5879  221.4835 H   0  0  0  0  0  0  0  0  0  0  0  0
  144.6326   75.6437  220.2122 H   0  0  0  0  0  0  0  0  0  0  0  0
  146.0150   73.8833  221.3984 H   0  0  0  0  0  0  0  0  0  0  0  0
  146.0384   74.0380  219.5560 H   0  0  0  0  0  0  0  0  0  0  0  0
  145.7498   71.7672  221.0916 H   0  0  0  0  0  0  0  0  0  0  0  0
  146.9695   67.5197  219.9645 H   0  0  0  0  0  0  0  0  0  0  0  0
  145.2031   66.6383  218.4552 H   0  0  0  0  0  0  0  0  0  0  0  0
  143.6697   68.2008  217.2309 H   0  0  0  0  0  0  0  0  0  0  0  0
  143.3710   72.4022  221.4123 H   0  0  0  0  0  0  0  0  0  0  0  0
  143.5027   70.9612  220.3810 H   0  0  0  0  0  0  0  0  0  0  0  0
  141.9673   72.5484  219.3267 H   0  0  0  0  0  0  0  0  0  0  0  0
  143.5018   72.4920  218.3658 H   0  0  0  0  0  0  0  0  0  0  0  0
  139.2102   70.0266  222.5858 H   0  0  0  0  0  0  0  0  0  0  0  0
  139.2407   68.3050  224.3783 H   0  0  0  0  0  0  0  0  0  0  0  0
  139.7408   67.7069  226.5967 H   0  0  0  0  0  0  0  0  0  0  0  0
  141.4553   70.6573  229.2493 H   0  0  0  0  0  0  0  0  0  0  0  0
  141.4101   72.3345  227.4307 H   0  0  0  0  0  0  0  0  0  0  0  0
  1  2  2  0
  2  3  1  0
  3  4  1  0
  4  5  1  0
  5  6  2  0
  5  7  1  0
  7  8  1  0
  8  9  1  0
  9 10  1  0
 10 11  1  0
 11 12  1  0
 12 13  2  0
 12 14  1  0
 14 15  1  0
 15 16  1  0
 16 17  1  0
 17 18  1  0
 18 19  1  0
 19 20  1  0
 20 21  2  0
 21 22  1  0
 22 23  2  0
 23 24  1  0
 24 25  2  0
 18 26  1  0
 26 27  1  0
  2 28  1  0
 28 29  2  0
 29 30  1  0
 30 31  2  0
 31 32  1  0
 32 33  2  0
 33 34  1  0
 33 35  1  0
 35 36  2  0
 36 37  1  0
 37 38  2  0
 11  7  1  0
 27 15  1  0
 38 28  1  0
 25 20  1  0
 37 31  1  0
  3 39  1  0
  4 40  1  0
  4 41  1  0
  8 42  1  0
  8 43  1  0
  9 44  1  0
  9 45  1  0
 10 46  1  0
 10 47  1  0
 11 48  1  6
 14 49  1  0
 15 50  1  6
 16 51  1  0
 16 52  1  0
 17 53  1  0
 17 54  1  0
 18 55  1  1
 22 56  1  0
 23 57  1  0
 24 58  1  0
 26 59  1  0
 26 60  1  0
 27 61  1  0
 27 62  1  0
 29 63  1  0
 30 64  1  0
 32 65  1  0
 35 66  1  0
 36 67  1  0
M  END
>  <smiles>  (19) 
O=C(NCC(=O)N1CCC[C@H]1C(=O)N[C@H]1CC[C@H](Oc2ncccn2)CC1)c1ccc2cc(F)ccc2n1

>  <score_type>  (19) 
oracle

>  <origin>  (19) 
autodockgpu

>  <m_score__min__energy>  (19) 
-9.4299999999999997

>  <m_primary>  (19) 
energy

>  <rmsd>  (19) 
4.640418102814013

>  <m_score__min__rmsd>  (19) 
4.640418102814013

>  <meeko>  (19) 
{"free_energy": -9.32, "intermolecular_energy": -11.71, "internal_energy": -3.15, "cluster_size": 15, "cluster_id": 1, "rank_in_cluster": 2}

>  <energy>  (19) 
-8.84

>  <cluster_rmsd>  (19) 
0.85

>  <cluster>  (19) 
2

$$$$

     RDKit          3D

 67 71  0  0  0  0  0  0  0  0999 V2000
  140.0540   71.2230  221.4200 O   0  0  0  0  0  0  0  0  0  0  0  0
  139.4370   71.5740  222.4820 C   0  0  0  0  0  0  0  0  0  0  0  0
  138.3370   72.4970  222.3800 N   0  0  0  0  0  0  0  0  0  0  0  0
  138.0020   72.9670  221.0610 C   0  0  0  0  0  0  0  0  0  0  0  0
  138.2400   74.4330  220.9600 C   0  0  0  0  0  0  0  0  0  0  0  0
  137.3210   75.2880  221.0490 O   0  0  0  0  0  0  0  0  0  0  0  0
  139.5600   74.9230  220.7540 N   0  0  0  0  0  0  0  0  0  0  0  0
  140.5010   75.2160  221.8210 C   0  0  0  0  0  0  0  0  0  0  0  0
  141.4490   76.2580  221.2210 C   0  0  0  0  0  0  0  0  0  0  0  0
  140.8000   76.6130  219.8750 C   0  0  0  0  0  0  0  0  0  0  0  0
  140.2450   75.2280  219.5120 C   0  0  1  0  0  0  0  0  0  0  0  0
  141.4220   74.3440  219.3160 C   0  0  0  0  0  0  0  0  0  0  0  0
  142.4390   74.6800  218.6710 O   0  0  0  0  0  0  0  0  0  0  0  0
  141.3940   73.0530  219.8870 N   0  0  0  0  0  0  0  0  0  0  0  0
  142.5230   72.1490  219.7230 C   0  0  1  0  0  0  0  0  0  0  0  0
  142.7020   71.9340  218.2440 C   0  0  0  0  0  0  0  0  0  0  0  0
  144.0540   71.4360  217.8440 C   0  0  0  0  0  0  0  0  0  0  0  0
  145.2130   72.0520  218.5400 C   0  0  2  0  0  0  0  0  0  0  0  0
  145.9460   71.1360  219.3420 O   0  0  0  0  0  0  0  0  0  0  0  0
  145.8890   69.7850  218.9560 C   0  0  0  0  0  0  0  0  0  0  0  0
  146.3750   69.4480  217.7440 N   0  0  0  0  0  0  0  0  0  0  0  0
  146.3160   68.1410  217.3740 C   0  0  0  0  0  0  0  0  0  0  0  0
  145.7660   67.2140  218.2500 C   0  0  0  0  0  0  0  0  0  0  0  0
  145.2720   67.5960  219.4960 C   0  0  0  0  0  0  0  0  0  0  0  0
  145.3560   68.8980  219.8060 N   0  0  0  0  0  0  0  0  0  0  0  0
  144.7420   73.2390  219.3420 C   0  0  0  0  0  0  0  0  0  0  0  0
  143.7670   72.7120  220.3730 C   0  0  0  0  0  0  0  0  0  0  0  0
  139.8270   71.0620  223.7900 C   0  0  0  0  0  0  0  0  0  0  0  0
  140.6160   71.8580  224.5960 C   0  0  0  0  0  0  0  0  0  0  0  0
  141.0390   71.4640  225.8530 C   0  0  0  0  0  0  0  0  0  0  0  0
  140.6350   70.2090  226.2880 C   0  0  0  0  0  0  0  0  0  0  0  0
  141.0620   69.8200  227.5480 C   0  0  0  0  0  0  0  0  0  0  0  0
  140.6660   68.5620  228.0020 C   0  0  0  0  0  0  0  0  0  0  0  0
  141.0590   68.1420  229.2230 F   0  0  0  0  0  0  0  0  0  0  0  0
  139.8720   67.7610  227.1890 C   0  0  0  0  0  0  0  0  0  0  0  0
  139.4680   68.1910  225.9370 C   0  0  0  0  0  0  0  0  0  0  0  0
  139.8490   69.4170  225.4830 C   0  0  0  0  0  0  0  0  0  0  0  0
  139.4560   69.8520  224.2490 N   0  0  0  0  0  0  0  0  0  0  0  0
  137.8200   72.7950  223.2490 H   0  0  0  0  0  0  0  0  0  0  0  0
  138.6265   72.4459  220.3204 H   0  0  0  0  0  0  0  0  0  0  0  0
  136.9387   72.7625  220.8672 H   0  0  0  0  0  0  0  0  0  0  0  0
  139.9788   75.6251  222.6985 H   0  0  0  0  0  0  0  0  0  0  0  0
  141.0326   74.3177  222.1681 H   0  0  0  0  0  0  0  0  0  0  0  0
  141.5174   77.1444  221.8688 H   0  0  0  0  0  0  0  0  0  0  0  0
  142.4776   75.8837  221.1114 H   0  0  0  0  0  0  0  0  0  0  0  0
  140.0024   77.3624  219.9852 H   0  0  0  0  0  0  0  0  0  0  0  0
  141.4688   77.0680  219.1295 H   0  0  0  0  0  0  0  0  0  0  0  0
  139.6103   75.1383  218.6180 H   0  0  0  0  0  0  0  0  0  0  0  0
  140.5660   72.7050  220.4440 H   0  0  0  0  0  0  0  0  0  0  0  0
  142.3352   71.1864  220.2211 H   0  0  0  0  0  0  0  0  0  0  0  0
  142.5255   72.8928  217.7346 H   0  0  0  0  0  0  0  0  0  0  0  0
  141.9848   71.1517  217.9548 H   0  0  0  0  0  0  0  0  0  0  0  0
  144.1737   71.6196  216.7661 H   0  0  0  0  0  0  0  0  0  0  0  0
  144.0717   70.3733  218.1275 H   0  0  0  0  0  0  0  0  0  0  0  0
  145.9219   72.3865  217.7683 H   0  0  0  0  0  0  0  0  0  0  0  0
  146.6989   67.8218  216.3934 H   0  0  0  0  0  0  0  0  0  0  0  0
  145.7193   66.1556  217.9540 H   0  0  0  0  0  0  0  0  0  0  0  0
  144.8343   66.8648  220.1916 H   0  0  0  0  0  0  0  0  0  0  0  0
  144.2420   73.9656  218.6847 H   0  0  0  0  0  0  0  0  0  0  0  0
  145.5883   73.7499  219.8244 H   0  0  0  0  0  0  0  0  0  0  0  0
  143.4785   73.5338  221.0449 H   0  0  0  0  0  0  0  0  0  0  0  0
  144.2601   71.9033  220.9324 H   0  0  0  0  0  0  0  0  0  0  0  0
  140.9211   72.8469  224.2232 H   0  0  0  0  0  0  0  0  0  0  0  0
  141.6666   72.1153  226.4790 H   0  0  0  0  0  0  0  0  0  0  0  0
  141.6895   70.4785  228.1666 H   0  0  0  0  0  0  0  0  0  0  0  0
  139.5596   66.7688  227.5468 H   0  0  0  0  0  0  0  0  0  0  0  0
  138.8394   67.5426  225.3089 H   0  0  0  0  0  0  0  0  0  0  0  0
  1  2  2  0
  2  3  1  0
  3  4  1  0
  4  5  1  0
  5  6  2  0
  5  7  1  0
  7  8  1  0
  8  9  1  0
  9 10  1  0
 10 11  1  0
 11 12  1  0
 12 13  2  0
 12 14  1  0
 14 15  1  0
 15 16  1  0
 16 17  1  0
 17 18  1  0
 18 19  1  0
 19 20  1  0
 20 21  2  0
 21 22  1  0
 22 23  2  0
 23 24  1  0
 24 25  2  0
 18 26  1  0
 26 27  1  0
  2 28  1  0
 28 29  2  0
 29 30  1  0
 30 31  2  0
 31 32  1  0
 32 33  2  0
 33 34  1  0
 33 35  1  0
 35 36  2  0
 36 37  1  0
 37 38  2  0
 11  7  1  0
 27 15  1  0
 38 28  1  0
 25 20  1  0
 37 31  1  0
  3 39  1  0
  4 40  1  0
  4 41  1  0
  8 42  1  0
  8 43  1  0
  9 44  1  0
  9 45  1  0
 10 46  1  0
 10 47  1  0
 11 48  1  6
 14 49  1  0
 15 50  1  1
 16 51  1  0
 16 52  1  0
 17 53  1  0
 17 54  1  0
 18 55  1  6
 22 56  1  0
 23 57  1  0
 24 58  1  0
 26 59  1  0
 26 60  1  0
 27 61  1  0
 27 62  1  0
 29 63  1  0
 30 64  1  0
 32 65  1  0
 35 66  1  0
 36 67  1  0
M  END
>  <smiles>  (20) 
O=C(NCC(=O)N1CCC[C@H]1C(=O)N[C@H]1CC[C@H](Oc2ncccn2)CC1)c1ccc2cc(F)ccc2n1

>  <score_type>  (20) 
oracle

>  <origin>  (20) 
autodockgpu

>  <m_score__min__energy>  (20) 
-9.4299999999999997

>  <m_primary>  (20) 
energy

>  <rmsd>  (20) 
5.378903830870296

>  <m_score__min__rmsd>  (20) 
5.378903830870296

>  <meeko>  (20) 
{"free_energy": -8.07, "intermolecular_energy": -10.45, "internal_energy": -3.12, "cluster_size": 15, "cluster_id": 1, "rank_in_cluster": 11}

>  <energy>  (20) 
-8.79

>  <cluster_rmsd>  (20) 
1.99

>  <cluster>  (20) 
2

$$$$

     RDKit          3D

 67 71  0  0  0  0  0  0  0  0999 V2000
  140.3180   73.0670  222.7550 O   0  0  0  0  0  0  0  0  0  0  0  0
  140.3160   71.7970  222.8860 C   0  0  0  0  0  0  0  0  0  0  0  0
  140.2270   70.9710  221.7100 N   0  0  0  0  0  0  0  0  0  0  0  0
  140.1470   71.6500  220.4430 C   0  0  0  0  0  0  0  0  0  0  0  0
  141.4760   72.2090  220.0730 C   0  0  0  0  0  0  0  0  0  0  0  0
  142.5100   71.5030  219.9510 O   0  0  0  0  0  0  0  0  0  0  0  0
  141.6160   73.6060  219.8380 N   0  0  0  0  0  0  0  0  0  0  0  0
  141.0590   74.3040  218.6940 C   0  0  0  0  0  0  0  0  0  0  0  0
  141.9520   75.5360  218.5230 C   0  0  0  0  0  0  0  0  0  0  0  0
  143.1000   75.2980  219.5150 C   0  0  0  0  0  0  0  0  0  0  0  0
  142.3030   74.6090  220.6310 C   0  0  1  0  0  0  0  0  0  0  0  0
  141.3520   75.6220  221.1550 C   0  0  0  0  0  0  0  0  0  0  0  0
  140.2000   75.3470  221.5540 O   0  0  0  0  0  0  0  0  0  0  0  0
  141.7690   76.9700  221.2050 N   0  0  0  0  0  0  0  0  0  0  0  0
  140.8740   78.0010  221.7090 C   0  0  1  0  0  0  0  0  0  0  0  0
  141.0690   78.0630  223.2010 C   0  0  0  0  0  0  0  0  0  0  0  0
  140.6140   79.3350  223.8390 C   0  0  0  0  0  0  0  0  0  0  0  0
  140.9320   80.5880  223.1070 C   0  0  2  0  0  0  0  0  0  0  0  0
  139.7810   81.2880  222.6530 O   0  0  0  0  0  0  0  0  0  0  0  0
  138.5670   80.9680  223.2870 C   0  0  0  0  0  0  0  0  0  0  0  0
  137.5940   80.3980  222.5470 N   0  0  0  0  0  0  0  0  0  0  0  0
  136.4220   80.0910  223.1630 C   0  0  0  0  0  0  0  0  0  0  0  0
  136.2750   80.3720  224.5160 C   0  0  0  0  0  0  0  0  0  0  0  0
  137.3010   80.9620  225.2520 C   0  0  0  0  0  0  0  0  0  0  0  0
  138.4340   81.2430  224.5900 N   0  0  0  0  0  0  0  0  0  0  0  0
  141.8760   80.2780  221.9720 C   0  0  0  0  0  0  0  0  0  0  0  0
  141.1480   79.3310  221.0420 C   0  0  0  0  0  0  0  0  0  0  0  0
  140.4010   71.1700  224.2000 C   0  0  0  0  0  0  0  0  0  0  0  0
  140.9450   71.8990  225.2390 C   0  0  0  0  0  0  0  0  0  0  0  0
  141.0690   71.3960  226.5210 C   0  0  0  0  0  0  0  0  0  0  0  0
  140.6190   70.0990  226.7350 C   0  0  0  0  0  0  0  0  0  0  0  0
  140.7460   69.6000  228.0220 C   0  0  0  0  0  0  0  0  0  0  0  0
  140.3000   68.3000  228.2560 C   0  0  0  0  0  0  0  0  0  0  0  0
  140.4050   67.7740  229.4930 F   0  0  0  0  0  0  0  0  0  0  0  0
  139.7530   67.5670  227.2080 C   0  0  0  0  0  0  0  0  0  0  0  0
  139.6450   68.1060  225.9380 C   0  0  0  0  0  0  0  0  0  0  0  0
  140.0780   69.3750  225.6980 C   0  0  0  0  0  0  0  0  0  0  0  0
  139.9760   69.9170  224.4480 N   0  0  0  0  0  0  0  0  0  0  0  0
  140.2250   69.9220  221.8050 H   0  0  0  0  0  0  0  0  0  0  0  0
  139.8244   70.9379  219.6691 H   0  0  0  0  0  0  0  0  0  0  0  0
  139.4217   72.4731  220.5227 H   0  0  0  0  0  0  0  0  0  0  0  0
  141.0959   73.6697  217.7961 H   0  0  0  0  0  0  0  0  0  0  0  0
  140.0022   74.5712  218.8416 H   0  0  0  0  0  0  0  0  0  0  0  0
  142.3321   75.6044  217.4930 H   0  0  0  0  0  0  0  0  0  0  0  0
  141.4166   76.4784  218.7107 H   0  0  0  0  0  0  0  0  0  0  0  0
  143.8785   74.6426  219.0974 H   0  0  0  0  0  0  0  0  0  0  0  0
  143.6630   76.1940  219.8155 H   0  0  0  0  0  0  0  0  0  0  0  0
  142.8567   74.1991  221.4885 H   0  0  0  0  0  0  0  0  0  0  0  0
  142.7290   77.2720  220.8830 H   0  0  0  0  0  0  0  0  0  0  0  0
  139.8255   77.7610  221.4784 H   0  0  0  0  0  0  0  0  0  0  0  0
  142.1415   77.9389  223.4116 H   0  0  0  0  0  0  0  0  0  0  0  0
  140.4478   77.2622  223.6285 H   0  0  0  0  0  0  0  0  0  0  0  0
  141.0830   79.3985  224.8320 H   0  0  0  0  0  0  0  0  0  0  0  0
  139.5157   79.2771  223.8588 H   0  0  0  0  0  0  0  0  0  0  0  0
  141.4204   81.2710  223.8176 H   0  0  0  0  0  0  0  0  0  0  0  0
  135.6006   79.6262  222.5980 H   0  0  0  0  0  0  0  0  0  0  0  0
  135.3279   80.1233  225.0172 H   0  0  0  0  0  0  0  0  0  0  0  0
  137.1876   81.1863  226.3229 H   0  0  0  0  0  0  0  0  0  0  0  0
  142.7890   79.8015  222.3585 H   0  0  0  0  0  0  0  0  0  0  0  0
  142.1739   81.1965  221.4451 H   0  0  0  0  0  0  0  0  0  0  0  0
  141.7663   79.1620  220.1481 H   0  0  0  0  0  0  0  0  0  0  0  0
  140.1841   79.7864  220.7708 H   0  0  0  0  0  0  0  0  0  0  0  0
  141.2943   72.9226  225.0384 H   0  0  0  0  0  0  0  0  0  0  0  0
  141.5041   71.9953  227.3343 H   0  0  0  0  0  0  0  0  0  0  0  0
  141.1825   70.2072  228.8287 H   0  0  0  0  0  0  0  0  0  0  0  0
  139.4003   66.5414  227.3918 H   0  0  0  0  0  0  0  0  0  0  0  0
  139.2096   67.5098  225.1225 H   0  0  0  0  0  0  0  0  0  0  0  0
  1  2  2  0
  2  3  1  0
  3  4  1  0
  4  5  1  0
  5  6  2  0
  5  7  1  0
  7  8  1  0
  8  9  1  0
  9 10  1  0
 10 11  1  0
 11 12  1  0
 12 13  2  0
 12 14  1  0
 14 15  1  0
 15 16  1  0
 16 17  1  0
 17 18  1  0
 18 19  1  0
 19 20  1  0
 20 21  2  0
 21 22  1  0
 22 23  2  0
 23 24  1  0
 24 25  2  0
 18 26  1  0
 26 27  1  0
  2 28  1  0
 28 29  2  0
 29 30  1  0
 30 31  2  0
 31 32  1  0
 32 33  2  0
 33 34  1  0
 33 35  1  0
 35 36  2  0
 36 37  1  0
 37 38  2  0
 11  7  1  0
 27 15  1  0
 38 28  1  0
 25 20  1  0
 37 31  1  0
  3 39  1  0
  4 40  1  0
  4 41  1  0
  8 42  1  0
  8 43  1  0
  9 44  1  0
  9 45  1  0
 10 46  1  0
 10 47  1  0
 11 48  1  1
 14 49  1  0
 15 50  1  1
 16 51  1  0
 16 52  1  0
 17 53  1  0
 17 54  1  0
 18 55  1  1
 22 56  1  0
 23 57  1  0
 24 58  1  0
 26 59  1  0
 26 60  1  0
 27 61  1  0
 27 62  1  0
 29 63  1  0
 30 64  1  0
 32 65  1  0
 35 66  1  0
 36 67  1  0
M  END
>  <smiles>  (21) 
O=C(NCC(=O)N1CCC[C@H]1C(=O)N[C@H]1CC[C@H](Oc2ncccn2)CC1)c1ccc2cc(F)ccc2n1

>  <score_type>  (21) 
oracle

>  <origin>  (21) 
autodockgpu

>  <m_score__min__energy>  (21) 
-9.4299999999999997

>  <m_primary>  (21) 
energy

>  <rmsd>  (21) 
3.1153232469233876

>  <m_score__min__rmsd>  (21) 
3.1153232469233876

>  <meeko>  (21) 
{"free_energy": -8.84, "intermolecular_energy": -11.23, "internal_energy": -2.33, "cluster_size": 17, "cluster_id": 2, "rank_in_cluster": 4}

>  <energy>  (21) 
-8.78

>  <cluster_rmsd>  (21) 
1.93

>  <cluster>  (21) 
2

$$$$

     RDKit          3D

 67 71  0  0  0  0  0  0  0  0999 V2000
  139.2410   70.9550  221.1080 O   0  0  0  0  0  0  0  0  0  0  0  0
  139.0300   71.5940  222.1940 C   0  0  0  0  0  0  0  0  0  0  0  0
  138.2960   72.8320  222.1470 N   0  0  0  0  0  0  0  0  0  0  0  0
  137.8420   73.2700  220.8530 C   0  0  0  0  0  0  0  0  0  0  0  0
  138.0930   74.7280  220.6860 C   0  0  0  0  0  0  0  0  0  0  0  0
  137.1960   75.5480  220.3590 O   0  0  0  0  0  0  0  0  0  0  0  0
  139.3990   75.2500  220.9000 N   0  0  0  0  0  0  0  0  0  0  0  0
  140.0190   75.3970  222.2040 C   0  0  0  0  0  0  0  0  0  0  0  0
  141.0450   76.5190  222.0190 C   0  0  0  0  0  0  0  0  0  0  0  0
  140.7500   77.0560  220.6110 C   0  0  0  0  0  0  0  0  0  0  0  0
  140.3680   75.7320  219.9330 C   0  0  1  0  0  0  0  0  0  0  0  0
  141.5920   74.8920  219.9340 C   0  0  0  0  0  0  0  0  0  0  0  0
  141.7250   73.8670  220.6370 O   0  0  0  0  0  0  0  0  0  0  0  0
  142.6650   75.2680  219.0980 N   0  0  0  0  0  0  0  0  0  0  0  0
  143.8870   74.4760  219.0640 C   0  0  1  0  0  0  0  0  0  0  0  0
  144.4360   74.4560  220.4660 C   0  0  0  0  0  0  0  0  0  0  0  0
  145.3950   73.3440  220.7450 C   0  0  0  0  0  0  0  0  0  0  0  0
  145.0390   72.0140  220.1850 C   0  0  2  0  0  0  0  0  0  0  0  0
  145.9580   71.5470  219.2050 O   0  0  0  0  0  0  0  0  0  0  0  0
  145.8310   70.2000  218.8240 C   0  0  0  0  0  0  0  0  0  0  0  0
  146.1620   69.2500  219.7210 N   0  0  0  0  0  0  0  0  0  0  0  0
  146.0390   67.9480  219.3480 C   0  0  0  0  0  0  0  0  0  0  0  0
  145.5790   67.6510  218.0710 C   0  0  0  0  0  0  0  0  0  0  0  0
  145.2440   68.6580  217.1670 C   0  0  0  0  0  0  0  0  0  0  0  0
  145.3880   69.9230  217.5910 N   0  0  0  0  0  0  0  0  0  0  0  0
  143.6300   72.0580  219.6490 C   0  0  0  0  0  0  0  0  0  0  0  0
  143.6160   73.0850  218.5370 C   0  0  0  0  0  0  0  0  0  0  0  0
  139.5180   71.0950  223.4740 C   0  0  0  0  0  0  0  0  0  0  0  0
  140.3790   71.8940  224.2010 C   0  0  0  0  0  0  0  0  0  0  0  0
  140.8970   71.5120  225.4260 C   0  0  0  0  0  0  0  0  0  0  0  0
  140.5150   70.2690  225.9120 C   0  0  0  0  0  0  0  0  0  0  0  0
  141.0380   69.8930  227.1390 C   0  0  0  0  0  0  0  0  0  0  0  0
  140.6660   68.6470  227.6440 C   0  0  0  0  0  0  0  0  0  0  0  0
  141.1510   68.2400  228.8340 F   0  0  0  0  0  0  0  0  0  0  0  0
  139.7990   67.8440  226.9090 C   0  0  0  0  0  0  0  0  0  0  0  0
  139.3000   68.2620  225.6870 C   0  0  0  0  0  0  0  0  0  0  0  0
  139.6570   69.4760  225.1850 C   0  0  0  0  0  0  0  0  0  0  0  0
  139.1720   69.8970  223.9800 N   0  0  0  0  0  0  0  0  0  0  0  0
  138.1160   73.3680  223.0360 H   0  0  0  0  0  0  0  0  0  0  0  0
  138.3832   72.7164  220.0716 H   0  0  0  0  0  0  0  0  0  0  0  0
  136.7618   73.0799  220.7685 H   0  0  0  0  0  0  0  0  0  0  0  0
  139.2708   75.6757  222.9606 H   0  0  0  0  0  0  0  0  0  0  0  0
  140.4812   74.4623  222.5542 H   0  0  0  0  0  0  0  0  0  0  0  0
  140.9064   77.3055  222.7754 H   0  0  0  0  0  0  0  0  0  0  0  0
  142.0821   76.1704  222.1329 H   0  0  0  0  0  0  0  0  0  0  0  0
  139.9191   77.7768  220.6088 H   0  0  0  0  0  0  0  0  0  0  0  0
  141.5677   77.6164  220.1342 H   0  0  0  0  0  0  0  0  0  0  0  0
  139.9902   75.7654  218.9005 H   0  0  0  0  0  0  0  0  0  0  0  0
  142.6200   76.1220  218.4790 H   0  0  0  0  0  0  0  0  0  0  0  0
  144.6262   74.9166  218.3788 H   0  0  0  0  0  0  0  0  0  0  0  0
  143.5908   74.3628  221.1637 H   0  0  0  0  0  0  0  0  0  0  0  0
  145.0000   75.3919  220.5924 H   0  0  0  0  0  0  0  0  0  0  0  0
  145.4768   73.2374  221.8368 H   0  0  0  0  0  0  0  0  0  0  0  0
  146.3324   73.6318  220.2465 H   0  0  0  0  0  0  0  0  0  0  0  0
  145.0987   71.2828  221.0046 H   0  0  0  0  0  0  0  0  0  0  0  0
  146.3002   67.1407  220.0480 H   0  0  0  0  0  0  0  0  0  0  0  0
  145.4770   66.5988  217.7668 H   0  0  0  0  0  0  0  0  0  0  0  0
  144.8793   68.4268  216.1553 H   0  0  0  0  0  0  0  0  0  0  0  0
  142.9310   72.3530  220.4455 H   0  0  0  0  0  0  0  0  0  0  0  0
  143.3183   71.0706  219.2778 H   0  0  0  0  0  0  0  0  0  0  0  0
  142.6290   73.0727  218.0515 H   0  0  0  0  0  0  0  0  0  0  0  0
  144.4087   72.8273  217.8192 H   0  0  0  0  0  0  0  0  0  0  0  0
  140.6643   72.8734  223.7895 H   0  0  0  0  0  0  0  0  0  0  0  0
  141.5808   72.1640  225.9894 H   0  0  0  0  0  0  0  0  0  0  0  0
  141.7211   70.5526  227.6942 H   0  0  0  0  0  0  0  0  0  0  0  0
  139.5053   66.8609  227.3055 H   0  0  0  0  0  0  0  0  0  0  0  0
  138.6150   67.6130  225.1217 H   0  0  0  0  0  0  0  0  0  0  0  0
  1  2  2  0
  2  3  1  0
  3  4  1  0
  4  5  1  0
  5  6  2  0
  5  7  1  0
  7  8  1  0
  8  9  1  0
  9 10  1  0
 10 11  1  0
 11 12  1  0
 12 13  2  0
 12 14  1  0
 14 15  1  0
 15 16  1  0
 16 17  1  0
 17 18  1  0
 18 19  1  0
 19 20  1  0
 20 21  2  0
 21 22  1  0
 22 23  2  0
 23 24  1  0
 24 25  2  0
 18 26  1  0
 26 27  1  0
  2 28  1  0
 28 29  2  0
 29 30  1  0
 30 31  2  0
 31 32  1  0
 32 33  2  0
 33 34  1  0
 33 35  1  0
 35 36  2  0
 36 37  1  0
 37 38  2  0
 11  7  1  0
 27 15  1  0
 38 28  1  0
 25 20  1  0
 37 31  1  0
  3 39  1  0
  4 40  1  0
  4 41  1  0
  8 42  1  0
  8 43  1  0
  9 44  1  0
  9 45  1  0
 10 46  1  0
 10 47  1  0
 11 48  1  6
 14 49  1  0
 15 50  1  6
 16 51  1  0
 16 52  1  0
 17 53  1  0
 17 54  1  0
 18 55  1  1
 22 56  1  0
 23 57  1  0
 24 58  1  0
 26 59  1  0
 26 60  1  0
 27 61  1  0
 27 62  1  0
 29 63  1  0
 30 64  1  0
 32 65  1  0
 35 66  1  0
 36 67  1  0
M  END
>  <smiles>  (22) 
O=C(NCC(=O)N1CCC[C@H]1C(=O)N[C@H]1CC[C@H](Oc2ncccn2)CC1)c1ccc2cc(F)ccc2n1

>  <score_type>  (22) 
oracle

>  <origin>  (22) 
autodockgpu

>  <m_score__min__energy>  (22) 
-9.4299999999999997

>  <m_primary>  (22) 
energy

>  <rmsd>  (22) 
4.977479143236089

>  <m_score__min__rmsd>  (22) 
4.977479143236089

>  <meeko>  (22) 
{"free_energy": -8.66, "intermolecular_energy": -11.05, "internal_energy": -2.15, "cluster_size": 15, "cluster_id": 1, "rank_in_cluster": 7}

>  <energy>  (22) 
-8.71

>  <cluster_rmsd>  (22) 
1.96

>  <cluster>  (22) 
2

$$$$

     RDKit          3D

 67 71  0  0  0  0  0  0  0  0999 V2000
  138.1280   71.0240  221.0830 O   0  0  0  0  0  0  0  0  0  0  0  0
  138.0970   71.5630  222.2400 C   0  0  0  0  0  0  0  0  0  0  0  0
  137.5030   72.8660  222.3910 N   0  0  0  0  0  0  0  0  0  0  0  0
  136.9740   73.4810  221.2020 C   0  0  0  0  0  0  0  0  0  0  0  0
  137.5460   74.8450  221.0300 C   0  0  0  0  0  0  0  0  0  0  0  0
  136.8440   75.8890  221.0080 O   0  0  0  0  0  0  0  0  0  0  0  0
  138.9520   75.0090  220.8800 N   0  0  0  0  0  0  0  0  0  0  0  0
  139.8740   75.2160  221.9820 C   0  0  0  0  0  0  0  0  0  0  0  0
  141.0640   75.9490  221.3560 C   0  0  0  0  0  0  0  0  0  0  0  0
  140.5870   76.2730  219.9330 C   0  0  0  0  0  0  0  0  0  0  0  0
  139.7560   75.0090  219.6720 C   0  0  1  0  0  0  0  0  0  0  0  0
  140.7130   73.8730  219.6640 C   0  0  0  0  0  0  0  0  0  0  0  0
  141.8830   73.9590  219.2310 O   0  0  0  0  0  0  0  0  0  0  0  0
  140.2810   72.6290  220.1720 N   0  0  0  0  0  0  0  0  0  0  0  0
  141.1830   71.4850  220.1850 C   0  0  1  0  0  0  0  0  0  0  0  0
  141.5730   71.2160  218.7560 C   0  0  0  0  0  0  0  0  0  0  0  0
  142.8230   70.4130  218.5900 C   0  0  0  0  0  0  0  0  0  0  0  0
  143.9470   70.7520  219.5000 C   0  0  2  0  0  0  0  0  0  0  0  0
  144.2910   69.7010  220.3930 O   0  0  0  0  0  0  0  0  0  0  0  0
  144.6600   68.4780  219.8040 C   0  0  0  0  0  0  0  0  0  0  0  0
  145.9730   68.1860  219.7120 N   0  0  0  0  0  0  0  0  0  0  0  0
  146.3250   67.0040  219.1410 C   0  0  0  0  0  0  0  0  0  0  0  0
  145.3280   66.1520  218.6800 C   0  0  0  0  0  0  0  0  0  0  0  0
  143.9790   66.4850  218.7910 C   0  0  0  0  0  0  0  0  0  0  0  0
  143.6930   67.6640  219.3630 N   0  0  0  0  0  0  0  0  0  0  0  0
  143.6240   72.0260  220.2400 C   0  0  0  0  0  0  0  0  0  0  0  0
  142.3840   71.7520  221.0640 C   0  0  0  0  0  0  0  0  0  0  0  0
  138.6510   70.8860  223.4070 C   0  0  0  0  0  0  0  0  0  0  0  0
  138.4430   69.5270  223.5340 C   0  0  0  0  0  0  0  0  0  0  0  0
  138.9270   68.7940  224.6030 C   0  0  0  0  0  0  0  0  0  0  0  0
  139.6460   69.4870  225.5680 C   0  0  0  0  0  0  0  0  0  0  0  0
  140.1280   68.7460  226.6360 C   0  0  0  0  0  0  0  0  0  0  0  0
  140.8530   69.4250  227.6160 C   0  0  0  0  0  0  0  0  0  0  0  0
  141.3400   68.7440  228.6730 F   0  0  0  0  0  0  0  0  0  0  0  0
  141.0600   70.7930  227.4860 C   0  0  0  0  0  0  0  0  0  0  0  0
  140.5600   71.4930  226.4010 C   0  0  0  0  0  0  0  0  0  0  0  0
  139.8510   70.8410  225.4380 C   0  0  0  0  0  0  0  0  0  0  0  0
  139.3530   71.5210  224.3640 N   0  0  0  0  0  0  0  0  0  0  0  0
  137.4720   73.3210  223.3410 H   0  0  0  0  0  0  0  0  0  0  0  0
  137.2337   72.8653  220.3282 H   0  0  0  0  0  0  0  0  0  0  0  0
  135.8807   73.5595  221.2947 H   0  0  0  0  0  0  0  0  0  0  0  0
  139.4091   75.8299  222.7675 H   0  0  0  0  0  0  0  0  0  0  0  0
  140.1706   74.2714  222.4614 H   0  0  0  0  0  0  0  0  0  0  0  0
  141.2933   76.8702  221.9117 H   0  0  0  0  0  0  0  0  0  0  0  0
  141.9870   75.3508  221.3695 H   0  0  0  0  0  0  0  0  0  0  0  0
  139.9734   77.1854  219.9002 H   0  0  0  0  0  0  0  0  0  0  0  0
  141.3814   76.4795  219.2006 H   0  0  0  0  0  0  0  0  0  0  0  0
  139.1681   74.9544  218.7439 H   0  0  0  0  0  0  0  0  0  0  0  0
  139.3070   72.4870  220.5520 H   0  0  0  0  0  0  0  0  0  0  0  0
  140.6914   70.5983  220.6116 H   0  0  0  0  0  0  0  0  0  0  0  0
  141.7177   72.1832  218.2525 H   0  0  0  0  0  0  0  0  0  0  0  0
  140.7595   70.6181  218.3193 H   0  0  0  0  0  0  0  0  0  0  0  0
  143.1749   70.5499  217.5568 H   0  0  0  0  0  0  0  0  0  0  0  0
  142.5436   69.3790  218.8405 H   0  0  0  0  0  0  0  0  0  0  0  0
  144.8419   70.9030  218.8784 H   0  0  0  0  0  0  0  0  0  0  0  0
  147.3847   66.7252  219.0449 H   0  0  0  0  0  0  0  0  0  0  0  0
  145.6097   65.1945  218.2177 H   0  0  0  0  0  0  0  0  0  0  0  0
  143.1874   65.8134  218.4271 H   0  0  0  0  0  0  0  0  0  0  0  0
  143.4316   72.8402  219.5258 H   0  0  0  0  0  0  0  0  0  0  0  0
  144.4634   72.3333  220.8810 H   0  0  0  0  0  0  0  0  0  0  0  0
  142.1757   72.6264  221.6981 H   0  0  0  0  0  0  0  0  0  0  0  0
  142.5680   70.8582  221.6781 H   0  0  0  0  0  0  0  0  0  0  0  0
  137.8691   69.0058  222.7536 H   0  0  0  0  0  0  0  0  0  0  0  0
  138.7503   67.7114  224.6848 H   0  0  0  0  0  0  0  0  0  0  0  0
  139.9458   67.6636  226.7081 H   0  0  0  0  0  0  0  0  0  0  0  0
  141.6310   71.3290  228.2584 H   0  0  0  0  0  0  0  0  0  0  0  0
  140.7354   72.5757  226.3168 H   0  0  0  0  0  0  0  0  0  0  0  0
  1  2  2  0
  2  3  1  0
  3  4  1  0
  4  5  1  0
  5  6  2  0
  5  7  1  0
  7  8  1  0
  8  9  1  0
  9 10  1  0
 10 11  1  0
 11 12  1  0
 12 13  2  0
 12 14  1  0
 14 15  1  0
 15 16  1  0
 16 17  1  0
 17 18  1  0
 18 19  1  0
 19 20  1  0
 20 21  2  0
 21 22  1  0
 22 23  2  0
 23 24  1  0
 24 25  2  0
 18 26  1  0
 26 27  1  0
  2 28  1  0
 28 29  2  0
 29 30  1  0
 30 31  2  0
 31 32  1  0
 32 33  2  0
 33 34  1  0
 33 35  1  0
 35 36  2  0
 36 37  1  0
 37 38  2  0
 11  7  1  0
 27 15  1  0
 38 28  1  0
 25 20  1  0
 37 31  1  0
  3 39  1  0
  4 40  1  0
  4 41  1  0
  8 42  1  0
  8 43  1  0
  9 44  1  0
  9 45  1  0
 10 46  1  0
 10 47  1  0
 11 48  1  6
 14 49  1  0
 15 50  1  1
 16 51  1  0
 16 52  1  0
 17 53  1  0
 17 54  1  0
 18 55  1  6
 22 56  1  0
 23 57  1  0
 24 58  1  0
 26 59  1  0
 26 60  1  0
 27 61  1  0
 27 62  1  0
 29 63  1  0
 30 64  1  0
 32 65  1  0
 35 66  1  0
 36 67  1  0
M  END
>  <smiles>  (23) 
O=C(NCC(=O)N1CCC[C@H]1C(=O)N[C@H]1CC[C@H](Oc2ncccn2)CC1)c1ccc2cc(F)ccc2n1

>  <score_type>  (23) 
oracle

>  <origin>  (23) 
autodockgpu

>  <m_score__min__energy>  (23) 
-9.4299999999999997

>  <m_primary>  (23) 
energy

>  <rmsd>  (23) 
5.314681431836338

>  <m_score__min__rmsd>  (23) 
5.314681431836338

>  <meeko>  (23) 
{"free_energy": -7.23, "intermolecular_energy": -9.62, "internal_energy": -3.33, "cluster_size": 15, "cluster_id": 1, "rank_in_cluster": 15}

>  <energy>  (23) 
-8.69

>  <cluster_rmsd>  (23) 
0.42

>  <cluster>  (23) 
2

$$$$

     RDKit          3D

 67 71  0  0  0  0  0  0  0  0999 V2000
  140.1930   71.3820  221.4210 O   0  0  0  0  0  0  0  0  0  0  0  0
  139.5610   71.6950  222.4870 C   0  0  0  0  0  0  0  0  0  0  0  0
  138.4740   72.6350  222.4070 N   0  0  0  0  0  0  0  0  0  0  0  0
  138.1680   73.1670  221.1050 C   0  0  0  0  0  0  0  0  0  0  0  0
  138.3490   74.6440  221.0970 C   0  0  0  0  0  0  0  0  0  0  0  0
  137.4000   75.4560  221.2530 O   0  0  0  0  0  0  0  0  0  0  0  0
  139.6460   75.1970  220.9060 N   0  0  0  0  0  0  0  0  0  0  0  0
  140.4860   75.7060  221.9760 C   0  0  0  0  0  0  0  0  0  0  0  0
  141.4070   76.7210  221.2920 C   0  0  0  0  0  0  0  0  0  0  0  0
  140.8360   76.8350  219.8720 C   0  0  0  0  0  0  0  0  0  0  0  0
  140.4000   75.3760  219.6780 C   0  0  1  0  0  0  0  0  0  0  0  0
  141.6420   74.5630  219.6870 C   0  0  0  0  0  0  0  0  0  0  0  0
  141.8040   73.5570  220.4130 O   0  0  0  0  0  0  0  0  0  0  0  0
  142.6990   74.9420  218.8310 N   0  0  0  0  0  0  0  0  0  0  0  0
  143.9370   74.1760  218.8040 C   0  0  1  0  0  0  0  0  0  0  0  0
  144.4880   74.1800  220.2050 C   0  0  0  0  0  0  0  0  0  0  0  0
  145.4700   73.0910  220.4930 C   0  0  0  0  0  0  0  0  0  0  0  0
  145.1430   71.7500  219.9460 C   0  0  2  0  0  0  0  0  0  0  0  0
  146.0710   71.2940  218.9690 O   0  0  0  0  0  0  0  0  0  0  0  0
  146.0270   69.9220  218.6610 C   0  0  0  0  0  0  0  0  0  0  0  0
  145.9600   69.0430  219.6800 N   0  0  0  0  0  0  0  0  0  0  0  0
  145.9190   67.7170  219.3770 C   0  0  0  0  0  0  0  0  0  0  0  0
  145.9450   67.3270  218.0440 C   0  0  0  0  0  0  0  0  0  0  0  0
  146.0130   68.2640  217.0140 C   0  0  0  0  0  0  0  0  0  0  0  0
  146.0530   69.5560  217.3740 N   0  0  0  0  0  0  0  0  0  0  0  0
  143.7330   71.7580  219.4100 C   0  0  0  0  0  0  0  0  0  0  0  0
  143.6960   72.7740  218.2890 C   0  0  0  0  0  0  0  0  0  0  0  0
  139.9210   71.1190  223.7780 C   0  0  0  0  0  0  0  0  0  0  0  0
  140.6890   71.8770  224.6390 C   0  0  0  0  0  0  0  0  0  0  0  0
  141.0830   71.4230  225.8850 C   0  0  0  0  0  0  0  0  0  0  0  0
  140.6730   70.1470  226.2500 C   0  0  0  0  0  0  0  0  0  0  0  0
  141.0710   69.6980  227.4990 C   0  0  0  0  0  0  0  0  0  0  0  0
  140.6680   68.4190  227.8820 C   0  0  0  0  0  0  0  0  0  0  0  0
  141.0330   67.9410  229.0890 F   0  0  0  0  0  0  0  0  0  0  0  0
  139.8950   67.6570  227.0120 C   0  0  0  0  0  0  0  0  0  0  0  0
  139.5190   68.1480  225.7730 C   0  0  0  0  0  0  0  0  0  0  0  0
  139.9080   69.3950  225.3880 C   0  0  0  0  0  0  0  0  0  0  0  0
  139.5430   69.8880  224.1680 N   0  0  0  0  0  0  0  0  0  0  0  0
  137.9460   72.9000  223.2800 H   0  0  0  0  0  0  0  0  0  0  0  0
  138.8399   72.7147  220.3607 H   0  0  0  0  0  0  0  0  0  0  0  0
  137.1219   72.9326  220.8586 H   0  0  0  0  0  0  0  0  0  0  0  0
  139.8760   76.1946  222.7500 H   0  0  0  0  0  0  0  0  0  0  0  0
  141.0475   74.9071  222.4825 H   0  0  0  0  0  0  0  0  0  0  0  0
  141.3716   77.6920  221.8077 H   0  0  0  0  0  0  0  0  0  0  0  0
  142.4626   76.4120  221.3024 H   0  0  0  0  0  0  0  0  0  0  0  0
  139.9854   77.5308  219.8229 H   0  0  0  0  0  0  0  0  0  0  0  0
  141.5263   77.2301  219.1121 H   0  0  0  0  0  0  0  0  0  0  0  0
  139.8402   75.1158  218.7676 H   0  0  0  0  0  0  0  0  0  0  0  0
  142.6280   75.7800  218.1930 H   0  0  0  0  0  0  0  0  0  0  0  0
  144.6659   74.6268  218.1145 H   0  0  0  0  0  0  0  0  0  0  0  0
  143.6457   74.0757  220.9047 H   0  0  0  0  0  0  0  0  0  0  0  0
  145.0328   75.1284  220.3218 H   0  0  0  0  0  0  0  0  0  0  0  0
  145.5545   72.9960  221.5856 H   0  0  0  0  0  0  0  0  0  0  0  0
  146.4005   73.3942  219.9907 H   0  0  0  0  0  0  0  0  0  0  0  0
  145.2193   71.0285  220.7728 H   0  0  0  0  0  0  0  0  0  0  0  0
  145.8660   66.9639  220.1770 H   0  0  0  0  0  0  0  0  0  0  0  0
  145.9112   66.2559  217.7958 H   0  0  0  0  0  0  0  0  0  0  0  0
  146.0329   67.9589  215.9573 H   0  0  0  0  0  0  0  0  0  0  0  0
  143.0278   72.0447  220.2041 H   0  0  0  0  0  0  0  0  0  0  0  0
  143.4432   70.7606  219.0478 H   0  0  0  0  0  0  0  0  0  0  0  0
  142.7093   72.7358  217.8043 H   0  0  0  0  0  0  0  0  0  0  0  0
  144.4936   72.5273  217.5728 H   0  0  0  0  0  0  0  0  0  0  0  0
  141.0004   72.8831  224.3214 H   0  0  0  0  0  0  0  0  0  0  0  0
  141.6935   72.0445  226.5565 H   0  0  0  0  0  0  0  0  0  0  0  0
  141.6819   70.3267  228.1635 H   0  0  0  0  0  0  0  0  0  0  0  0
  139.5772   66.6479  227.3132 H   0  0  0  0  0  0  0  0  0  0  0  0
  138.9061   67.5307  225.0997 H   0  0  0  0  0  0  0  0  0  0  0  0
  1  2  2  0
  2  3  1  0
  3  4  1  0
  4  5  1  0
  5  6  2  0
  5  7  1  0
  7  8  1  0
  8  9  1  0
  9 10  1  0
 10 11  1  0
 11 12  1  0
 12 13  2  0
 12 14  1  0
 14 15  1  0
 15 16  1  0
 16 17  1  0
 17 18  1  0
 18 19  1  0
 19 20  1  0
 20 21  2  0
 21 22  1  0
 22 23  2  0
 23 24  1  0
 24 25  2  0
 18 26  1  0
 26 27  1  0
  2 28  1  0
 28 29  2  0
 29 30  1  0
 30 31  2  0
 31 32  1  0
 32 33  2  0
 33 34  1  0
 33 35  1  0
 35 36  2  0
 36 37  1  0
 37 38  2  0
 11  7  1  0
 27 15  1  0
 38 28  1  0
 25 20  1  0
 37 31  1  0
  3 39  1  0
  4 40  1  0
  4 41  1  0
  8 42  1  0
  8 43  1  0
  9 44  1  0
  9 45  1  0
 10 46  1  0
 10 47  1  0
 11 48  1  6
 14 49  1  0
 15 50  1  6
 16 51  1  0
 16 52  1  0
 17 53  1  0
 17 54  1  0
 18 55  1  1
 22 56  1  0
 23 57  1  0
 24 58  1  0
 26 59  1  0
 26 60  1  0
 27 61  1  0
 27 62  1  0
 29 63  1  0
 30 64  1  0
 32 65  1  0
 35 66  1  0
 36 67  1  0
M  END
>  <smiles>  (24) 
O=C(NCC(=O)N1CCC[C@H]1C(=O)N[C@H]1CC[C@H](Oc2ncccn2)CC1)c1ccc2cc(F)ccc2n1

>  <score_type>  (24) 
oracle

>  <origin>  (24) 
autodockgpu

>  <m_score__min__energy>  (24) 
-9.4299999999999997

>  <m_primary>  (24) 
energy

>  <rmsd>  (24) 
5.102790555427909

>  <m_score__min__rmsd>  (24) 
5.102790555427909

>  <meeko>  (24) 
{"free_energy": -9.01, "intermolecular_energy": -11.4, "internal_energy": -2.23, "cluster_size": 15, "cluster_id": 1, "rank_in_cluster": 4}

>  <energy>  (24) 
-8.67

>  <cluster_rmsd>  (24) 
0.64

>  <cluster>  (24) 
2

$$$$

     RDKit          3D

 67 71  0  0  0  0  0  0  0  0999 V2000
  139.8720   73.3610  222.7250 O   0  0  0  0  0  0  0  0  0  0  0  0
  139.5970   72.1160  222.6520 C   0  0  0  0  0  0  0  0  0  0  0  0
  139.1170   71.5770  221.4060 N   0  0  0  0  0  0  0  0  0  0  0  0
  138.9800   72.4970  220.3080 C   0  0  0  0  0  0  0  0  0  0  0  0
  140.2930   72.6960  219.6370 C   0  0  0  0  0  0  0  0  0  0  0  0
  140.8700   71.7980  218.9700 O   0  0  0  0  0  0  0  0  0  0  0  0
  140.9540   73.9530  219.7330 N   0  0  0  0  0  0  0  0  0  0  0  0
  141.2240   74.8260  218.6050 C   0  0  0  0  0  0  0  0  0  0  0  0
  142.4330   75.6580  219.0420 C   0  0  0  0  0  0  0  0  0  0  0  0
  142.8710   75.0030  220.3610 C   0  0  0  0  0  0  0  0  0  0  0  0
  141.4850   74.6270  220.9040 C   0  0  1  0  0  0  0  0  0  0  0  0
  140.7730   75.9050  221.1580 C   0  0  0  0  0  0  0  0  0  0  0  0
  139.7190   76.2360  220.5720 O   0  0  0  0  0  0  0  0  0  0  0  0
  141.3120   76.7960  222.1110 N   0  0  0  0  0  0  0  0  0  0  0  0
  140.6500   78.0620  222.3940 C   0  0  1  0  0  0  0  0  0  0  0  0
  141.3190   78.6450  223.6110 C   0  0  0  0  0  0  0  0  0  0  0  0
  141.1220   80.1160  223.7870 C   0  0  0  0  0  0  0  0  0  0  0  0
  141.2150   80.9430  222.5560 C   0  0  2  0  0  0  0  0  0  0  0  0
  139.9950   81.5870  222.2120 O   0  0  0  0  0  0  0  0  0  0  0  0
  138.8250   81.0490  222.7780 C   0  0  0  0  0  0  0  0  0  0  0  0
  138.0700   80.2300  222.0190 N   0  0  0  0  0  0  0  0  0  0  0  0
  136.9390   79.7130  222.5700 C   0  0  0  0  0  0  0  0  0  0  0  0
  136.6120   80.0440  223.8790 C   0  0  0  0  0  0  0  0  0  0  0  0
  137.4160   80.8940  224.6360 C   0  0  0  0  0  0  0  0  0  0  0  0
  138.5170   81.3740  224.0390 N   0  0  0  0  0  0  0  0  0  0  0  0
  141.7350   80.0960  221.4220 C   0  0  0  0  0  0  0  0  0  0  0  0
  140.7240   78.9900  221.2020 C   0  0  0  0  0  0  0  0  0  0  0  0
  139.7570   71.2350  223.8030 C   0  0  0  0  0  0  0  0  0  0  0  0
  139.3440   69.9230  223.6840 C   0  0  0  0  0  0  0  0  0  0  0  0
  139.4530   69.0090  224.7170 C   0  0  0  0  0  0  0  0  0  0  0  0
  140.0030   69.4660  225.9070 C   0  0  0  0  0  0  0  0  0  0  0  0
  140.1090   68.5460  226.9380 C   0  0  0  0  0  0  0  0  0  0  0  0
  140.6600   68.9860  228.1410 C   0  0  0  0  0  0  0  0  0  0  0  0
  140.7820   68.1240  229.1720 F   0  0  0  0  0  0  0  0  0  0  0  0
  141.0740   70.3090  228.2590 C   0  0  0  0  0  0  0  0  0  0  0  0
  140.9490   71.1940  227.2020 C   0  0  0  0  0  0  0  0  0  0  0  0
  140.4130   70.7750  226.0220 C   0  0  0  0  0  0  0  0  0  0  0  0
  140.2850   71.6390  224.9730 N   0  0  0  0  0  0  0  0  0  0  0  0
  138.8860   70.5510  221.3340 H   0  0  0  0  0  0  0  0  0  0  0  0
  138.2590   72.0921  219.5826 H   0  0  0  0  0  0  0  0  0  0  0  0
  138.6234   73.4640  220.6925 H   0  0  0  0  0  0  0  0  0  0  0  0
  141.4617   74.2375  217.7066 H   0  0  0  0  0  0  0  0  0  0  0  0
  140.3580   75.4526  218.3454 H   0  0  0  0  0  0  0  0  0  0  0  0
  143.2365   75.6054  218.2926 H   0  0  0  0  0  0  0  0  0  0  0  0
  142.1958   76.7261  219.1556 H   0  0  0  0  0  0  0  0  0  0  0  0
  143.5038   74.1189  220.1939 H   0  0  0  0  0  0  0  0  0  0  0  0
  143.4877   75.6295  221.0222 H   0  0  0  0  0  0  0  0  0  0  0  0
  141.4315   74.0293  221.8259 H   0  0  0  0  0  0  0  0  0  0  0  0
  142.1990   76.5790  222.6410 H   0  0  0  0  0  0  0  0  0  0  0  0
  139.5781   77.9134  222.5913 H   0  0  0  0  0  0  0  0  0  0  0  0
  142.3990   78.4506  223.5346 H   0  0  0  0  0  0  0  0  0  0  0  0
  140.8533   78.1625  224.4829 H   0  0  0  0  0  0  0  0  0  0  0  0
  141.8872   80.4751  224.4910 H   0  0  0  0  0  0  0  0  0  0  0  0
  140.0878   80.2337  224.1428 H   0  0  0  0  0  0  0  0  0  0  0  0
  141.9224   81.7604  222.7594 H   0  0  0  0  0  0  0  0  0  0  0  0
  136.2917   79.0416  221.9868 H   0  0  0  0  0  0  0  0  0  0  0  0
  135.6987   79.6261  224.3276 H   0  0  0  0  0  0  0  0  0  0  0  0
  137.1602   81.1584  225.6726 H   0  0  0  0  0  0  0  0  0  0  0  0
  142.7130   79.6678  221.6869 H   0  0  0  0  0  0  0  0  0  0  0  0
  141.8677   80.6963  220.5099 H   0  0  0  0  0  0  0  0  0  0  0  0
  141.0166   78.4095  220.3146 H   0  0  0  0  0  0  0  0  0  0  0  0
  139.7347   79.4497  221.0603 H   0  0  0  0  0  0  0  0  0  0  0  0
  138.9106   69.5908  222.7291 H   0  0  0  0  0  0  0  0  0  0  0  0
  139.1190   67.9674  224.6007 H   0  0  0  0  0  0  0  0  0  0  0  0
  139.7709   67.5069  226.8120 H   0  0  0  0  0  0  0  0  0  0  0  0
  141.5078   70.6575  229.2079 H   0  0  0  0  0  0  0  0  0  0  0  0
  141.2827   72.2361  227.3150 H   0  0  0  0  0  0  0  0  0  0  0  0
  1  2  2  0
  2  3  1  0
  3  4  1  0
  4  5  1  0
  5  6  2  0
  5  7  1  0
  7  8  1  0
  8  9  1  0
  9 10  1  0
 10 11  1  0
 11 12  1  0
 12 13  2  0
 12 14  1  0
 14 15  1  0
 15 16  1  0
 16 17  1  0
 17 18  1  0
 18 19  1  0
 19 20  1  0
 20 21  2  0
 21 22  1  0
 22 23  2  0
 23 24  1  0
 24 25  2  0
 18 26  1  0
 26 27  1  0
  2 28  1  0
 28 29  2  0
 29 30  1  0
 30 31  2  0
 31 32  1  0
 32 33  2  0
 33 34  1  0
 33 35  1  0
 35 36  2  0
 36 37  1  0
 37 38  2  0
 11  7  1  0
 27 15  1  0
 38 28  1  0
 25 20  1  0
 37 31  1  0
  3 39  1  0
  4 40  1  0
  4 41  1  0
  8 42  1  0
  8 43  1  0
  9 44  1  0
  9 45  1  0
 10 46  1  0
 10 47  1  0
 11 48  1  1
 14 49  1  0
 15 50  1  1
 16 51  1  0
 16 52  1  0
 17 53  1  0
 17 54  1  0
 18 55  1  1
 22 56  1  0
 23 57  1  0
 24 58  1  0
 26 59  1  0
 26 60  1  0
 27 61  1  0
 27 62  1  0
 29 63  1  0
 30 64  1  0
 32 65  1  0
 35 66  1  0
 36 67  1  0
M  END
>  <smiles>  (25) 
O=C(NCC(=O)N1CCC[C@H]1C(=O)N[C@H]1CC[C@H](Oc2ncccn2)CC1)c1ccc2cc(F)ccc2n1

>  <score_type>  (25) 
oracle

>  <origin>  (25) 
autodockgpu

>  <m_score__min__energy>  (25) 
-9.4299999999999997

>  <m_primary>  (25) 
energy

>  <rmsd>  (25) 
2.2663088680384664

>  <m_score__min__rmsd>  (25) 
2.2663088680384664

>  <meeko>  (25) 
{"free_energy": -8.67, "intermolecular_energy": -11.06, "internal_energy": -2.15, "cluster_size": 17, "cluster_id": 2, "rank_in_cluster": 9}

>  <energy>  (25) 
-8.25

>  <cluster_rmsd>  (25) 
1.83

>  <cluster>  (25) 
2

$$$$

     RDKit          3D

 67 71  0  0  0  0  0  0  0  0999 V2000
  139.6840   73.0310  222.7070 O   0  0  0  0  0  0  0  0  0  0  0  0
  139.8480   71.7660  222.7870 C   0  0  0  0  0  0  0  0  0  0  0  0
  139.7380   70.9680  221.5930 N   0  0  0  0  0  0  0  0  0  0  0  0
  139.4450   71.6660  220.3690 C   0  0  0  0  0  0  0  0  0  0  0  0
  140.7050   71.9800  219.6420 C   0  0  0  0  0  0  0  0  0  0  0  0
  141.2910   71.1580  218.8910 O   0  0  0  0  0  0  0  0  0  0  0  0
  141.3020   73.2650  219.7810 N   0  0  0  0  0  0  0  0  0  0  0  0
  141.7350   74.0920  218.6690 C   0  0  0  0  0  0  0  0  0  0  0  0
  142.8260   74.9900  219.2600 C   0  0  0  0  0  0  0  0  0  0  0  0
  143.0480   74.4190  220.6680 C   0  0  0  0  0  0  0  0  0  0  0  0
  141.6020   74.0150  220.9870 C   0  0  1  0  0  0  0  0  0  0  0  0
  140.8180   75.2750  221.0440 C   0  0  0  0  0  0  0  0  0  0  0  0
  139.7590   75.4600  220.4050 O   0  0  0  0  0  0  0  0  0  0  0  0
  141.2920   76.3230  221.8630 N   0  0  0  0  0  0  0  0  0  0  0  0
  140.5590   77.5780  221.9520 C   0  0  1  0  0  0  0  0  0  0  0  0
  141.1160   78.3300  223.1320 C   0  0  0  0  0  0  0  0  0  0  0  0
  140.8450   79.8000  223.1210 C   0  0  0  0  0  0  0  0  0  0  0  0
  140.9880   80.4840  221.8100 C   0  0  2  0  0  0  0  0  0  0  0  0
  139.7690   81.0220  221.3140 O   0  0  0  0  0  0  0  0  0  0  0  0
  139.6660   82.4250  221.3040 C   0  0  0  0  0  0  0  0  0  0  0  0
  140.7920   83.1440  221.1240 N   0  0  0  0  0  0  0  0  0  0  0  0
  140.6880   84.5000  221.1150 C   0  0  0  0  0  0  0  0  0  0  0  0
  139.4390   85.0840  221.2880 C   0  0  0  0  0  0  0  0  0  0  0  0
  138.2940   84.3100  221.4710 C   0  0  0  0  0  0  0  0  0  0  0  0
  138.4590   82.9780  221.4720 N   0  0  0  0  0  0  0  0  0  0  0  0
  141.6210   79.5390  220.8190 C   0  0  0  0  0  0  0  0  0  0  0  0
  140.6760   78.3670  220.6660 C   0  0  0  0  0  0  0  0  0  0  0  0
  140.1430   71.1190  224.0600 C   0  0  0  0  0  0  0  0  0  0  0  0
  140.7320   71.8740  225.0560 C   0  0  0  0  0  0  0  0  0  0  0  0
  141.0500   71.3540  226.2980 C   0  0  0  0  0  0  0  0  0  0  0  0
  140.7530   70.0150  226.5150 C   0  0  0  0  0  0  0  0  0  0  0  0
  141.0750   69.5000  227.7610 C   0  0  0  0  0  0  0  0  0  0  0  0
  140.7840   68.1570  227.9980 C   0  0  0  0  0  0  0  0  0  0  0  0
  141.0810   67.6140  229.1970 F   0  0  0  0  0  0  0  0  0  0  0  0
  140.1920   67.3990  226.9940 C   0  0  0  0  0  0  0  0  0  0  0  0
  139.8870   67.9560  225.7640 C   0  0  0  0  0  0  0  0  0  0  0  0
  140.1670   69.2660  225.5210 C   0  0  0  0  0  0  0  0  0  0  0  0
  139.8710   69.8250  224.3110 N   0  0  0  0  0  0  0  0  0  0  0  0
  139.8710   69.9240  221.6470 H   0  0  0  0  0  0  0  0  0  0  0  0
  138.8070   71.0338  219.7340 H   0  0  0  0  0  0  0  0  0  0  0  0
  138.9246   72.6053  220.6073 H   0  0  0  0  0  0  0  0  0  0  0  0
  142.1407   73.4704  217.8572 H   0  0  0  0  0  0  0  0  0  0  0  0
  140.9082   74.6712  218.2320 H   0  0  0  0  0  0  0  0  0  0  0  0
  143.7482   74.9307  218.6632 H   0  0  0  0  0  0  0  0  0  0  0  0
  142.5419   76.0526  219.2720 H   0  0  0  0  0  0  0  0  0  0  0  0
  143.7271   73.5537  220.6609 H   0  0  0  0  0  0  0  0  0  0  0  0
  143.5208   75.1021  221.3890 H   0  0  0  0  0  0  0  0  0  0  0  0
  141.4089   73.4614  221.9177 H   0  0  0  0  0  0  0  0  0  0  0  0
  142.1790   76.2340  222.4280 H   0  0  0  0  0  0  0  0  0  0  0  0
  139.4834   77.3983  222.0962 H   0  0  0  0  0  0  0  0  0  0  0  0
  142.2060   78.1828  223.1485 H   0  0  0  0  0  0  0  0  0  0  0  0
  140.6111   77.9279  224.0228 H   0  0  0  0  0  0  0  0  0  0  0  0
  141.5436   80.2752  223.8253 H   0  0  0  0  0  0  0  0  0  0  0  0
  139.7846   79.9057  223.3938 H   0  0  0  0  0  0  0  0  0  0  0  0
  141.6439   81.3540  221.9614 H   0  0  0  0  0  0  0  0  0  0  0  0
  141.5810   85.1263  220.9726 H   0  0  0  0  0  0  0  0  0  0  0  0
  139.3519   86.1805  221.2804 H   0  0  0  0  0  0  0  0  0  0  0  0
  137.3036   84.7686  221.6079 H   0  0  0  0  0  0  0  0  0  0  0  0
  142.5952   79.1931  221.1949 H   0  0  0  0  0  0  0  0  0  0  0  0
  141.7915   80.0368  219.8530 H   0  0  0  0  0  0  0  0  0  0  0  0
  141.0535   77.7045  219.8732 H   0  0  0  0  0  0  0  0  0  0  0  0
  139.6804   78.7575  220.4086 H   0  0  0  0  0  0  0  0  0  0  0  0
  140.9572   72.9314  224.8533 H   0  0  0  0  0  0  0  0  0  0  0  0
  141.5169   71.9731  227.0782 H   0  0  0  0  0  0  0  0  0  0  0  0
  141.5427   70.1274  228.5341 H   0  0  0  0  0  0  0  0  0  0  0  0
  139.9623   66.3395  227.1801 H   0  0  0  0  0  0  0  0  0  0  0  0
  139.4182   67.3399  224.9826 H   0  0  0  0  0  0  0  0  0  0  0  0
  1  2  2  0
  2  3  1  0
  3  4  1  0
  4  5  1  0
  5  6  2  0
  5  7  1  0
  7  8  1  0
  8  9  1  0
  9 10  1  0
 10 11  1  0
 11 12  1  0
 12 13  2  0
 12 14  1  0
 14 15  1  0
 15 16  1  0
 16 17  1  0
 17 18  1  0
 18 19  1  0
 19 20  1  0
 20 21  2  0
 21 22  1  0
 22 23  2  0
 23 24  1  0
 24 25  2  0
 18 26  1  0
 26 27  1  0
  2 28  1  0
 28 29  2  0
 29 30  1  0
 30 31  2  0
 31 32  1  0
 32 33  2  0
 33 34  1  0
 33 35  1  0
 35 36  2  0
 36 37  1  0
 37 38  2  0
 11  7  1  0
 27 15  1  0
 38 28  1  0
 25 20  1  0
 37 31  1  0
  3 39  1  0
  4 40  1  0
  4 41  1  0
  8 42  1  0
  8 43  1  0
  9 44  1  0
  9 45  1  0
 10 46  1  0
 10 47  1  0
 11 48  1  1
 14 49  1  0
 15 50  1  1
 16 51  1  0
 16 52  1  0
 17 53  1  0
 17 54  1  0
 18 55  1  1
 22 56  1  0
 23 57  1  0
 24 58  1  0
 26 59  1  0
 26 60  1  0
 27 61  1  0
 27 62  1  0
 29 63  1  0
 30 64  1  0
 32 65  1  0
 35 66  1  0
 36 67  1  0
M  END
>  <smiles>  (26) 
O=C(NCC(=O)N1CCC[C@H]1C(=O)N[C@H]1CC[C@H](Oc2ncccn2)CC1)c1ccc2cc(F)ccc2n1

>  <score_type>  (26) 
oracle

>  <origin>  (26) 
autodockgpu

>  <m_score__min__energy>  (26) 
-9.4299999999999997

>  <m_primary>  (26) 
energy

>  <rmsd>  (26) 
3.2152789211582

>  <m_score__min__rmsd>  (26) 
3.2152789211582

>  <meeko>  (26) 
{"free_energy": -8.21, "intermolecular_energy": -10.6, "internal_energy": -2.23, "cluster_size": 17, "cluster_id": 2, "rank_in_cluster": 13}

>  <energy>  (26) 
-8.24

>  <cluster_rmsd>  (26) 
1.82

>  <cluster>  (26) 
2

$$$$

     RDKit          3D

 67 71  0  0  0  0  0  0  0  0999 V2000
  140.8070   77.5490  217.7990 O   0  0  0  0  0  0  0  0  0  0  0  0
  141.8890   77.8250  218.4180 C   0  0  0  0  0  0  0  0  0  0  0  0
  143.1160   77.2010  217.9970 N   0  0  0  0  0  0  0  0  0  0  0  0
  143.0360   76.2930  216.8840 C   0  0  0  0  0  0  0  0  0  0  0  0
  142.7130   74.9200  217.3610 C   0  0  0  0  0  0  0  0  0  0  0  0
  142.4390   73.9680  216.5860 O   0  0  0  0  0  0  0  0  0  0  0  0
  142.7070   74.6390  218.7560 N   0  0  0  0  0  0  0  0  0  0  0  0
  143.7090   75.1160  219.6930 C   0  0  0  0  0  0  0  0  0  0  0  0
  143.6770   74.1020  220.8400 C   0  0  0  0  0  0  0  0  0  0  0  0
  142.7540   72.9910  220.3220 C   0  0  0  0  0  0  0  0  0  0  0  0
  141.7620   73.8590  219.5350 C   0  0  1  0  0  0  0  0  0  0  0  0
  141.0630   74.7060  220.5340 C   0  0  0  0  0  0  0  0  0  0  0  0
  141.1090   74.5010  221.7670 O   0  0  0  0  0  0  0  0  0  0  0  0
  140.3030   75.8020  220.0710 N   0  0  0  0  0  0  0  0  0  0  0  0
  139.5980   76.6610  221.0120 C   0  0  1  0  0  0  0  0  0  0  0  0
  138.9080   77.7270  220.2020 C   0  0  0  0  0  0  0  0  0  0  0  0
  137.7780   78.4100  220.9020 C   0  0  0  0  0  0  0  0  0  0  0  0
  136.8780   77.5390  221.7010 C   0  0  2  0  0  0  0  0  0  0  0  0
  136.9110   77.8140  223.0950 O   0  0  0  0  0  0  0  0  0  0  0  0
  137.1990   79.1410  223.4610 C   0  0  0  0  0  0  0  0  0  0  0  0
  138.4920   79.4960  223.6020 N   0  0  0  0  0  0  0  0  0  0  0  0
  138.7660   80.7800  223.9570 C   0  0  0  0  0  0  0  0  0  0  0  0
  137.7140   81.6660  224.1570 C   0  0  0  0  0  0  0  0  0  0  0  0
  136.3880   81.2650  224.0030 C   0  0  0  0  0  0  0  0  0  0  0  0
  136.1800   79.9870  223.6530 N   0  0  0  0  0  0  0  0  0  0  0  0
  137.1960   76.0930  221.4120 C   0  0  0  0  0  0  0  0  0  0  0  0
  138.6260   75.8630  221.8520 C   0  0  0  0  0  0  0  0  0  0  0  0
  141.9040   78.7560  219.5410 C   0  0  0  0  0  0  0  0  0  0  0  0
  141.7860   80.1050  219.2730 C   0  0  0  0  0  0  0  0  0  0  0  0
  141.7880   81.0680  220.2670 C   0  0  0  0  0  0  0  0  0  0  0  0
  141.9180   80.6210  221.5760 C   0  0  0  0  0  0  0  0  0  0  0  0
  141.9200   81.5900  222.5660 C   0  0  0  0  0  0  0  0  0  0  0  0
  142.0500   81.1610  223.8870 C   0  0  0  0  0  0  0  0  0  0  0  0
  142.0570   82.0700  224.8840 F   0  0  0  0  0  0  0  0  0  0  0  0
  142.1700   79.8020  224.1540 C   0  0  0  0  0  0  0  0  0  0  0  0
  142.1620   78.8690  223.1320 C   0  0  0  0  0  0  0  0  0  0  0  0
  142.0360   79.2760  221.8390 C   0  0  0  0  0  0  0  0  0  0  0  0
  142.0280   78.3640  220.8230 N   0  0  0  0  0  0  0  0  0  0  0  0
  144.0150   77.4210  218.5010 H   0  0  0  0  0  0  0  0  0  0  0  0
  142.2490   76.6323  216.1944 H   0  0  0  0  0  0  0  0  0  0  0  0
  144.0067   76.2736  216.3669 H   0  0  0  0  0  0  0  0  0  0  0  0
  144.7026   75.1381  219.2215 H   0  0  0  0  0  0  0  0  0  0  0  0
  143.5057   76.1412  220.0360 H   0  0  0  0  0  0  0  0  0  0  0  0
  144.6843   73.7105  221.0450 H   0  0  0  0  0  0  0  0  0  0  0  0
  143.3251   74.5406  221.7854 H   0  0  0  0  0  0  0  0  0  0  0  0
  143.2865   72.2801  219.6732 H   0  0  0  0  0  0  0  0  0  0  0  0
  142.3112   72.3430  221.0927 H   0  0  0  0  0  0  0  0  0  0  0  0
  140.9934   73.3544  218.9312 H   0  0  0  0  0  0  0  0  0  0  0  0
  140.2210   76.0320  219.0430 H   0  0  0  0  0  0  0  0  0  0  0  0
  140.2964   77.1251  221.7239 H   0  0  0  0  0  0  0  0  0  0  0  0
  138.5127   77.2604  219.2876 H   0  0  0  0  0  0  0  0  0  0  0  0
  139.6626   78.5017  220.0012 H   0  0  0  0  0  0  0  0  0  0  0  0
  137.1665   78.9142  220.1391 H   0  0  0  0  0  0  0  0  0  0  0  0
  138.2492   79.0898  221.6272 H   0  0  0  0  0  0  0  0  0  0  0  0
  135.8455   77.7588  221.3919 H   0  0  0  0  0  0  0  0  0  0  0  0
  139.8067   81.1129  224.0842 H   0  0  0  0  0  0  0  0  0  0  0  0
  137.9324   82.7055  224.4428 H   0  0  0  0  0  0  0  0  0  0  0  0
  135.5525   81.9629  224.1609 H   0  0  0  0  0  0  0  0  0  0  0  0
  137.0938   75.8907  220.3356 H   0  0  0  0  0  0  0  0  0  0  0  0
  136.5062   75.4229  221.9461 H   0  0  0  0  0  0  0  0  0  0  0  0
  138.8628   74.7933  221.7538 H   0  0  0  0  0  0  0  0  0  0  0  0
  138.7229   76.1904  222.8977 H   0  0  0  0  0  0  0  0  0  0  0  0
  141.6863   80.4279  218.2262 H   0  0  0  0  0  0  0  0  0  0  0  0
  141.6911   82.1381  220.0315 H   0  0  0  0  0  0  0  0  0  0  0  0
  141.8227   82.6576  222.3197 H   0  0  0  0  0  0  0  0  0  0  0  0
  142.2730   79.4626  225.1952 H   0  0  0  0  0  0  0  0  0  0  0  0
  142.2575   77.7981  223.3645 H   0  0  0  0  0  0  0  0  0  0  0  0
  1  2  2  0
  2  3  1  0
  3  4  1  0
  4  5  1  0
  5  6  2  0
  5  7  1  0
  7  8  1  0
  8  9  1  0
  9 10  1  0
 10 11  1  0
 11 12  1  0
 12 13  2  0
 12 14  1  0
 14 15  1  0
 15 16  1  0
 16 17  1  0
 17 18  1  0
 18 19  1  0
 19 20  1  0
 20 21  2  0
 21 22  1  0
 22 23  2  0
 23 24  1  0
 24 25  2  0
 18 26  1  0
 26 27  1  0
  2 28  1  0
 28 29  2  0
 29 30  1  0
 30 31  2  0
 31 32  1  0
 32 33  2  0
 33 34  1  0
 33 35  1  0
 35 36  2  0
 36 37  1  0
 37 38  2  0
 11  7  1  0
 27 15  1  0
 38 28  1  0
 25 20  1  0
 37 31  1  0
  3 39  1  0
  4 40  1  0
  4 41  1  0
  8 42  1  0
  8 43  1  0
  9 44  1  0
  9 45  1  0
 10 46  1  0
 10 47  1  0
 11 48  1  6
 14 49  1  0
 15 50  1  1
 16 51  1  0
 16 52  1  0
 17 53  1  0
 17 54  1  0
 18 55  1  6
 22 56  1  0
 23 57  1  0
 24 58  1  0
 26 59  1  0
 26 60  1  0
 27 61  1  0
 27 62  1  0
 29 63  1  0
 30 64  1  0
 32 65  1  0
 35 66  1  0
 36 67  1  0
M  END
>  <smiles>  (27) 
O=C(NCC(=O)N1CCC[C@H]1C(=O)N[C@H]1CC[C@H](Oc2ncccn2)CC1)c1ccc2cc(F)ccc2n1

>  <score_type>  (27) 
oracle

>  <origin>  (27) 
autodockgpu

>  <m_score__min__energy>  (27) 
-9.4299999999999997

>  <m_primary>  (27) 
energy

>  <rmsd>  (27) 
8.127603389984102

>  <m_score__min__rmsd>  (27) 
8.127603389984102

>  <meeko>  (27) 
{"free_energy": -5.84, "intermolecular_energy": -8.23, "internal_energy": -4.37, "cluster_size": 1, "cluster_id": 11, "rank_in_cluster": 1}

>  <energy>  (27) 
-8.24

>  <cluster_rmsd>  (27) 
1.82

>  <cluster>  (27) 
2

$$$$

     RDKit          3D

 67 71  0  0  0  0  0  0  0  0999 V2000
  139.4380   71.4700  221.1560 O   0  0  0  0  0  0  0  0  0  0  0  0
  139.5370   72.0150  222.3070 C   0  0  0  0  0  0  0  0  0  0  0  0
  139.4600   73.4490  222.4120 N   0  0  0  0  0  0  0  0  0  0  0  0
  139.2720   74.1820  221.1870 C   0  0  0  0  0  0  0  0  0  0  0  0
  139.6410   75.6110  221.3810 C   0  0  0  0  0  0  0  0  0  0  0  0
  139.1940   76.3160  222.3220 O   0  0  0  0  0  0  0  0  0  0  0  0
  140.5400   76.2390  220.4750 N   0  0  0  0  0  0  0  0  0  0  0  0
  141.5830   77.1700  220.8680 C   0  0  0  0  0  0  0  0  0  0  0  0
  141.8260   78.0240  219.6200 C   0  0  0  0  0  0  0  0  0  0  0  0
  140.7060   77.5990  218.6600 C   0  0  0  0  0  0  0  0  0  0  0  0
  140.6330   76.1110  219.0320 C   0  0  1  0  0  0  0  0  0  0  0  0
  141.9310   75.5150  218.6270 C   0  0  0  0  0  0  0  0  0  0  0  0
  142.5340   75.8200  217.5750 O   0  0  0  0  0  0  0  0  0  0  0  0
  142.5190   74.5500  219.4730 N   0  0  0  0  0  0  0  0  0  0  0  0
  143.7910   73.9350  219.1200 C   0  0  1  0  0  0  0  0  0  0  0  0
  144.7560   74.2540  220.2300 C   0  0  0  0  0  0  0  0  0  0  0  0
  145.9460   73.3520  220.3020 C   0  0  0  0  0  0  0  0  0  0  0  0
  145.6880   71.9060  220.0840 C   0  0  2  0  0  0  0  0  0  0  0  0
  146.3120   71.3870  218.9160 O   0  0  0  0  0  0  0  0  0  0  0  0
  146.1100   70.0200  218.6570 C   0  0  0  0  0  0  0  0  0  0  0  0
  145.8790   69.6410  217.3840 N   0  0  0  0  0  0  0  0  0  0  0  0
  145.6830   68.3180  217.1370 C   0  0  0  0  0  0  0  0  0  0  0  0
  145.7290   67.4190  218.1960 C   0  0  0  0  0  0  0  0  0  0  0  0
  145.9700   67.8450  219.5010 C   0  0  0  0  0  0  0  0  0  0  0  0
  146.1550   69.1610  219.6830 N   0  0  0  0  0  0  0  0  0  0  0  0
  144.2000   71.6590  220.0750 C   0  0  0  0  0  0  0  0  0  0  0  0
  143.6330   72.4450  218.9110 C   0  0  0  0  0  0  0  0  0  0  0  0
  139.7270   71.2150  223.5110 C   0  0  0  0  0  0  0  0  0  0  0  0
  139.3780   69.8790  223.4700 C   0  0  0  0  0  0  0  0  0  0  0  0
  139.5200   69.0360  224.5580 C   0  0  0  0  0  0  0  0  0  0  0  0
  140.0350   69.5910  225.7220 C   0  0  0  0  0  0  0  0  0  0  0  0
  140.1740   68.7410  226.8080 C   0  0  0  0  0  0  0  0  0  0  0  0
  140.6900   69.2800  227.9860 C   0  0  0  0  0  0  0  0  0  0  0  0
  140.8420   68.4900  229.0680 F   0  0  0  0  0  0  0  0  0  0  0  0
  141.0400   70.6260  228.0250 C   0  0  0  0  0  0  0  0  0  0  0  0
  140.8840   71.4380  226.9150 C   0  0  0  0  0  0  0  0  0  0  0  0
  140.3810   70.9220  225.7590 C   0  0  0  0  0  0  0  0  0  0  0  0
  140.2230   71.7140  224.6580 N   0  0  0  0  0  0  0  0  0  0  0  0
  139.5410   73.9100  223.3560 H   0  0  0  0  0  0  0  0  0  0  0  0
  139.9071   73.7462  220.4017 H   0  0  0  0  0  0  0  0  0  0  0  0
  138.2142   74.1215  220.8913 H   0  0  0  0  0  0  0  0  0  0  0  0
  141.2487   77.7961  221.7084 H   0  0  0  0  0  0  0  0  0  0  0  0
  142.4949   76.6570  221.2075 H   0  0  0  0  0  0  0  0  0  0  0  0
  141.7522   79.0954  219.8581 H   0  0  0  0  0  0  0  0  0  0  0  0
  142.8294   77.8774  219.1937 H   0  0  0  0  0  0  0  0  0  0  0  0
  139.7619   78.1241  218.8675 H   0  0  0  0  0  0  0  0  0  0  0  0
  140.8835   77.8154  217.5962 H   0  0  0  0  0  0  0  0  0  0  0  0
  139.8342   75.5003  218.5859 H   0  0  0  0  0  0  0  0  0  0  0  0
  142.0630   74.2450  220.3760 H   0  0  0  0  0  0  0  0  0  0  0  0
  144.1720   74.3318  218.1674 H   0  0  0  0  0  0  0  0  0  0  0  0
  144.2148   74.1840  221.1851 H   0  0  0  0  0  0  0  0  0  0  0  0
  145.1431   75.2630  220.0246 H   0  0  0  0  0  0  0  0  0  0  0  0
  146.3934   73.4661  221.3004 H   0  0  0  0  0  0  0  0  0  0  0  0
  146.6003   73.6619  219.4738 H   0  0  0  0  0  0  0  0  0  0  0  0
  146.1477   71.3589  220.9202 H   0  0  0  0  0  0  0  0  0  0  0  0
  145.4907   67.9644  216.1133 H   0  0  0  0  0  0  0  0  0  0  0  0
  145.5718   66.3481  217.9999 H   0  0  0  0  0  0  0  0  0  0  0  0
  146.0067   67.1361  220.3413 H   0  0  0  0  0  0  0  0  0  0  0  0
  143.7530   72.0046  221.0188 H   0  0  0  0  0  0  0  0  0  0  0  0
  143.9785   70.5864  219.9722 H   0  0  0  0  0  0  0  0  0  0  0  0
  142.5634   72.2098  218.8078 H   0  0  0  0  0  0  0  0  0  0  0  0
  144.1849   72.1631  218.0022 H   0  0  0  0  0  0  0  0  0  0  0  0
  138.9706   69.4686  222.5343 H   0  0  0  0  0  0  0  0  0  0  0  0
  139.2377   67.9743  224.5033 H   0  0  0  0  0  0  0  0  0  0  0  0
  139.8879   67.6808  226.7430 H   0  0  0  0  0  0  0  0  0  0  0  0
  141.4475   71.0520  228.9536 H   0  0  0  0  0  0  0  0  0  0  0  0
  141.1662   72.4999  226.9663 H   0  0  0  0  0  0  0  0  0  0  0  0
  1  2  2  0
  2  3  1  0
  3  4  1  0
  4  5  1  0
  5  6  2  0
  5  7  1  0
  7  8  1  0
  8  9  1  0
  9 10  1  0
 10 11  1  0
 11 12  1  0
 12 13  2  0
 12 14  1  0
 14 15  1  0
 15 16  1  0
 16 17  1  0
 17 18  1  0
 18 19  1  0
 19 20  1  0
 20 21  2  0
 21 22  1  0
 22 23  2  0
 23 24  1  0
 24 25  2  0
 18 26  1  0
 26 27  1  0
  2 28  1  0
 28 29  2  0
 29 30  1  0
 30 31  2  0
 31 32  1  0
 32 33  2  0
 33 34  1  0
 33 35  1  0
 35 36  2  0
 36 37  1  0
 37 38  2  0
 11  7  1  0
 27 15  1  0
 38 28  1  0
 25 20  1  0
 37 31  1  0
  3 39  1  0
  4 40  1  0
  4 41  1  0
  8 42  1  0
  8 43  1  0
  9 44  1  0
  9 45  1  0
 10 46  1  0
 10 47  1  0
 11 48  1  6
 14 49  1  0
 15 50  1  6
 16 51  1  0
 16 52  1  0
 17 53  1  0
 17 54  1  0
 18 55  1  1
 22 56  1  0
 23 57  1  0
 24 58  1  0
 26 59  1  0
 26 60  1  0
 27 61  1  0
 27 62  1  0
 29 63  1  0
 30 64  1  0
 32 65  1  0
 35 66  1  0
 36 67  1  0
M  END
>  <smiles>  (28) 
O=C(NCC(=O)N1CCC[C@H]1C(=O)N[C@H]1CC[C@H](Oc2ncccn2)CC1)c1ccc2cc(F)ccc2n1

>  <score_type>  (28) 
oracle

>  <origin>  (28) 
autodockgpu

>  <m_score__min__energy>  (28) 
-9.4299999999999997

>  <m_primary>  (28) 
energy

>  <rmsd>  (28) 
4.758133338158689

>  <m_score__min__rmsd>  (28) 
4.758133338158689

>  <meeko>  (28) 
{"free_energy": -8.92, "intermolecular_energy": -11.31, "internal_energy": -2.38, "cluster_size": 15, "cluster_id": 1, "rank_in_cluster": 6}

>  <energy>  (28) 
-8.21

>  <cluster_rmsd>  (28) 
1.7

>  <cluster>  (28) 
2

$$$$

     RDKit          3D

 67 71  0  0  0  0  0  0  0  0999 V2000
  140.0680   73.5070  222.3570 O   0  0  0  0  0  0  0  0  0  0  0  0
  140.0760   72.2310  222.2970 C   0  0  0  0  0  0  0  0  0  0  0  0
  140.0580   71.5900  221.0080 N   0  0  0  0  0  0  0  0  0  0  0  0
  140.0330   72.4500  219.8540 C   0  0  0  0  0  0  0  0  0  0  0  0
  141.4040   72.9470  219.5520 C   0  0  0  0  0  0  0  0  0  0  0  0
  142.3760   72.1840  219.3170 O   0  0  0  0  0  0  0  0  0  0  0  0
  141.6580   74.3460  219.5200 N   0  0  0  0  0  0  0  0  0  0  0  0
  141.3820   75.2030  218.3810 C   0  0  0  0  0  0  0  0  0  0  0  0
  142.3510   76.3780  218.5390 C   0  0  0  0  0  0  0  0  0  0  0  0
  143.2590   75.9500  219.7010 C   0  0  0  0  0  0  0  0  0  0  0  0
  142.2180   75.2050  220.5480 C   0  0  1  0  0  0  0  0  0  0  0  0
  141.2330   76.2230  220.9930 C   0  0  0  0  0  0  0  0  0  0  0  0
  139.9970   76.0360  220.9880 O   0  0  0  0  0  0  0  0  0  0  0  0
  141.7160   77.4700  221.4460 N   0  0  0  0  0  0  0  0  0  0  0  0
  140.7890   78.5010  221.8930 C   0  0  1  0  0  0  0  0  0  0  0  0
  141.1610   78.8420  223.3110 C   0  0  0  0  0  0  0  0  0  0  0  0
  140.6620   80.1680  223.7860 C   0  0  0  0  0  0  0  0  0  0  0  0
  140.7580   81.2910  222.8190 C   0  0  2  0  0  0  0  0  0  0  0  0
  139.4940   81.8070  222.4210 O   0  0  0  0  0  0  0  0  0  0  0  0
  138.3670   81.2420  223.0420 C   0  0  0  0  0  0  0  0  0  0  0  0
  138.0950   81.5970  224.3130 N   0  0  0  0  0  0  0  0  0  0  0  0
  137.0040   81.0470  224.9110 C   0  0  0  0  0  0  0  0  0  0  0  0
  136.2200   80.1520  224.1930 C   0  0  0  0  0  0  0  0  0  0  0  0
  136.5290   79.8060  222.8790 C   0  0  0  0  0  0  0  0  0  0  0  0
  137.6170   80.3800  222.3440 N   0  0  0  0  0  0  0  0  0  0  0  0
  141.5810   80.8590  221.6310 C   0  0  0  0  0  0  0  0  0  0  0  0
  140.8420   79.7080  220.9820 C   0  0  0  0  0  0  0  0  0  0  0  0
  140.1010   71.4150  223.5060 C   0  0  0  0  0  0  0  0  0  0  0  0
  139.5770   70.1390  223.4440 C   0  0  0  0  0  0  0  0  0  0  0  0
  139.5540   69.2870  224.5340 C   0  0  0  0  0  0  0  0  0  0  0  0
  140.0870   69.7700  225.7220 C   0  0  0  0  0  0  0  0  0  0  0  0
  140.0600   68.9110  226.8100 C   0  0  0  0  0  0  0  0  0  0  0  0
  140.5910   69.3780  228.0120 C   0  0  0  0  0  0  0  0  0  0  0  0
  140.5850   68.5770  229.0970 F   0  0  0  0  0  0  0  0  0  0  0  0
  141.1170   70.6640  228.0720 C   0  0  0  0  0  0  0  0  0  0  0  0
  141.1230   71.4870  226.9590 C   0  0  0  0  0  0  0  0  0  0  0  0
  140.6070   71.0420  225.7800 C   0  0  0  0  0  0  0  0  0  0  0  0
  140.6080   71.8450  224.6760 N   0  0  0  0  0  0  0  0  0  0  0  0
  140.0650   70.5380  220.9460 H   0  0  0  0  0  0  0  0  0  0  0  0
  139.6523   71.8866  218.9894 H   0  0  0  0  0  0  0  0  0  0  0  0
  139.3778   73.3090  220.0611 H   0  0  0  0  0  0  0  0  0  0  0  0
  141.5700   74.6685  217.4381 H   0  0  0  0  0  0  0  0  0  0  0  0
  140.3320   75.5292  218.3487 H   0  0  0  0  0  0  0  0  0  0  0  0
  142.9360   76.5299  217.6199 H   0  0  0  0  0  0  0  0  0  0  0  0
  141.8363   77.3312  218.7300 H   0  0  0  0  0  0  0  0  0  0  0  0
  144.0720   75.2879  219.3684 H   0  0  0  0  0  0  0  0  0  0  0  0
  143.7933   76.7645  220.2121 H   0  0  0  0  0  0  0  0  0  0  0  0
  142.5634   74.6654  221.4422 H   0  0  0  0  0  0  0  0  0  0  0  0
  142.7470   77.6940  221.4760 H   0  0  0  0  0  0  0  0  0  0  0  0
  139.7496   78.1429  221.8554 H   0  0  0  0  0  0  0  0  0  0  0  0
  142.2584   78.8417  223.3868 H   0  0  0  0  0  0  0  0  0  0  0  0
  140.6828   78.0837  223.9485 H   0  0  0  0  0  0  0  0  0  0  0  0
  141.2417   80.4441  224.6791 H   0  0  0  0  0  0  0  0  0  0  0  0
  139.5862   80.0288  223.9686 H   0  0  0  0  0  0  0  0  0  0  0  0
  141.2591   82.1261  223.3304 H   0  0  0  0  0  0  0  0  0  0  0  0
  136.7460   81.3070  225.9482 H   0  0  0  0  0  0  0  0  0  0  0  0
  135.3358   79.7068  224.6726 H   0  0  0  0  0  0  0  0  0  0  0  0
  135.9111   79.0970  222.3085 H   0  0  0  0  0  0  0  0  0  0  0  0
  142.5781   80.5313  221.9602 H   0  0  0  0  0  0  0  0  0  0  0  0
  141.7179   81.6895  220.9228 H   0  0  0  0  0  0  0  0  0  0  0  0
  141.3581   79.4311  220.0509 H   0  0  0  0  0  0  0  0  0  0  0  0
  139.8110   80.0313  220.7760 H   0  0  0  0  0  0  0  0  0  0  0  0
  139.1609   69.7854  222.4891 H   0  0  0  0  0  0  0  0  0  0  0  0
  139.1328   68.2733  224.4628 H   0  0  0  0  0  0  0  0  0  0  0  0
  139.6358   67.8994  226.7282 H   0  0  0  0  0  0  0  0  0  0  0  0
  141.5353   71.0334  229.0199 H   0  0  0  0  0  0  0  0  0  0  0  0
  141.5447   72.5007  227.0269 H   0  0  0  0  0  0  0  0  0  0  0  0
  1  2  2  0
  2  3  1  0
  3  4  1  0
  4  5  1  0
  5  6  2  0
  5  7  1  0
  7  8  1  0
  8  9  1  0
  9 10  1  0
 10 11  1  0
 11 12  1  0
 12 13  2  0
 12 14  1  0
 14 15  1  0
 15 16  1  0
 16 17  1  0
 17 18  1  0
 18 19  1  0
 19 20  1  0
 20 21  2  0
 21 22  1  0
 22 23  2  0
 23 24  1  0
 24 25  2  0
 18 26  1  0
 26 27  1  0
  2 28  1  0
 28 29  2  0
 29 30  1  0
 30 31  2  0
 31 32  1  0
 32 33  2  0
 33 34  1  0
 33 35  1  0
 35 36  2  0
 36 37  1  0
 37 38  2  0
 11  7  1  0
 27 15  1  0
 38 28  1  0
 25 20  1  0
 37 31  1  0
  3 39  1  0
  4 40  1  0
  4 41  1  0
  8 42  1  0
  8 43  1  0
  9 44  1  0
  9 45  1  0
 10 46  1  0
 10 47  1  0
 11 48  1  1
 14 49  1  0
 15 50  1  1
 16 51  1  0
 16 52  1  0
 17 53  1  0
 17 54  1  0
 18 55  1  1
 22 56  1  0
 23 57  1  0
 24 58  1  0
 26 59  1  0
 26 60  1  0
 27 61  1  0
 27 62  1  0
 29 63  1  0
 30 64  1  0
 32 65  1  0
 35 66  1  0
 36 67  1  0
M  END
>  <smiles>  (29) 
O=C(NCC(=O)N1CCC[C@H]1C(=O)N[C@H]1CC[C@H](Oc2ncccn2)CC1)c1ccc2cc(F)ccc2n1

>  <score_type>  (29) 
oracle

>  <origin>  (29) 
autodockgpu

>  <m_score__min__energy>  (29) 
-9.4299999999999997

>  <m_primary>  (29) 
energy

>  <rmsd>  (29) 
2.220906932312256

>  <m_score__min__rmsd>  (29) 
2.220906932312256

>  <meeko>  (29) 
{"free_energy": -8.69, "intermolecular_energy": -11.08, "internal_energy": -2.24, "cluster_size": 17, "cluster_id": 2, "rank_in_cluster": 8}

>  <energy>  (29) 
-8.21

>  <cluster_rmsd>  (29) 
1.8

>  <cluster>  (29) 
2

$$$$

     RDKit          3D

 67 71  0  0  0  0  0  0  0  0999 V2000
  139.9500   73.4870  222.4420 O   0  0  0  0  0  0  0  0  0  0  0  0
  139.8550   72.2150  222.3710 C   0  0  0  0  0  0  0  0  0  0  0  0
  139.6740   71.5960  221.0840 N   0  0  0  0  0  0  0  0  0  0  0  0
  139.6130   72.4720  219.9440 C   0  0  0  0  0  0  0  0  0  0  0  0
  140.9860   72.8490  219.5100 C   0  0  0  0  0  0  0  0  0  0  0  0
  141.8360   72.0130  219.1060 O   0  0  0  0  0  0  0  0  0  0  0  0
  141.3890   74.2140  219.5400 N   0  0  0  0  0  0  0  0  0  0  0  0
  141.1440   75.1650  218.4700 C   0  0  0  0  0  0  0  0  0  0  0  0
  142.2420   76.2190  218.6340 C   0  0  0  0  0  0  0  0  0  0  0  0
  143.1610   75.6280  219.7120 C   0  0  0  0  0  0  0  0  0  0  0  0
  142.0940   74.9440  220.5780 C   0  0  1  0  0  0  0  0  0  0  0  0
  141.2500   76.0300  221.1390 C   0  0  0  0  0  0  0  0  0  0  0  0
  140.0650   75.8660  221.5020 O   0  0  0  0  0  0  0  0  0  0  0  0
  141.8140   77.3170  221.2700 N   0  0  0  0  0  0  0  0  0  0  0  0
  141.0270   78.4150  221.8130 C   0  0  1  0  0  0  0  0  0  0  0  0
  141.4560   78.5970  223.2450 C   0  0  0  0  0  0  0  0  0  0  0  0
  141.1290   79.9330  223.8300 C   0  0  0  0  0  0  0  0  0  0  0  0
  141.3500   81.1080  222.9490 C   0  0  2  0  0  0  0  0  0  0  0  0
  140.1550   81.8040  222.6190 O   0  0  0  0  0  0  0  0  0  0  0  0
  138.9490   81.1740  222.9760 C   0  0  0  0  0  0  0  0  0  0  0  0
  138.5000   81.3290  224.2380 N   0  0  0  0  0  0  0  0  0  0  0  0
  137.3340   80.7180  224.5800 C   0  0  0  0  0  0  0  0  0  0  0  0
  136.6590   79.9670  223.6250 C   0  0  0  0  0  0  0  0  0  0  0  0
  137.1520   79.8270  222.3290 C   0  0  0  0  0  0  0  0  0  0  0  0
  138.3060   80.4520  222.0510 N   0  0  0  0  0  0  0  0  0  0  0  0
  142.0980   80.6730  221.7130 C   0  0  0  0  0  0  0  0  0  0  0  0
  141.2160   79.6740  220.9960 C   0  0  0  0  0  0  0  0  0  0  0  0
  139.9250   71.3810  223.5660 C   0  0  0  0  0  0  0  0  0  0  0  0
  139.4530   70.0860  223.4880 C   0  0  0  0  0  0  0  0  0  0  0  0
  139.4750   69.2160  224.5640 C   0  0  0  0  0  0  0  0  0  0  0  0
  139.9980   69.7020  225.7550 C   0  0  0  0  0  0  0  0  0  0  0  0
  140.0160   68.8260  226.8290 C   0  0  0  0  0  0  0  0  0  0  0  0
  140.5380   69.2950  228.0340 C   0  0  0  0  0  0  0  0  0  0  0  0
  140.5760   68.4770  229.1060 F   0  0  0  0  0  0  0  0  0  0  0  0
  141.0120   70.6010  228.1110 C   0  0  0  0  0  0  0  0  0  0  0  0
  140.9740   71.4410  227.0110 C   0  0  0  0  0  0  0  0  0  0  0  0
  140.4670   70.9930  225.8300 C   0  0  0  0  0  0  0  0  0  0  0  0
  140.4240   71.8140  224.7390 N   0  0  0  0  0  0  0  0  0  0  0  0
  139.5950   70.5480  221.0130 H   0  0  0  0  0  0  0  0  0  0  0  0
  139.0994   71.9580  219.1181 H   0  0  0  0  0  0  0  0  0  0  0  0
  139.0618   73.3828  220.2209 H   0  0  0  0  0  0  0  0  0  0  0  0
  141.2200   74.6740  217.4886 H   0  0  0  0  0  0  0  0  0  0  0  0
  140.1353   75.6008  218.5210 H   0  0  0  0  0  0  0  0  0  0  0  0
  142.7885   76.3652  217.6906 H   0  0  0  0  0  0  0  0  0  0  0  0
  141.8446   77.2070  218.9096 H   0  0  0  0  0  0  0  0  0  0  0  0
  143.8788   74.9070  219.2938 H   0  0  0  0  0  0  0  0  0  0  0  0
  143.8069   76.3492  220.2342 H   0  0  0  0  0  0  0  0  0  0  0  0
  142.4280   74.3165  221.4175 H   0  0  0  0  0  0  0  0  0  0  0  0
  142.8080   77.5250  220.9820 H   0  0  0  0  0  0  0  0  0  0  0  0
  139.9512   78.1897  221.7701 H   0  0  0  0  0  0  0  0  0  0  0  0
  142.5460   78.4579  223.2965 H   0  0  0  0  0  0  0  0  0  0  0  0
  140.8967   77.8548  223.8336 H   0  0  0  0  0  0  0  0  0  0  0  0
  141.7491   80.0664  224.7287 H   0  0  0  0  0  0  0  0  0  0  0  0
  140.0466   79.9114  224.0248 H   0  0  0  0  0  0  0  0  0  0  0  0
  141.9564   81.8329  223.5119 H   0  0  0  0  0  0  0  0  0  0  0  0
  136.9307   80.8169  225.5986 H   0  0  0  0  0  0  0  0  0  0  0  0
  135.7152   79.4724  223.8980 H   0  0  0  0  0  0  0  0  0  0  0  0
  136.6207   79.2329  221.5709 H   0  0  0  0  0  0  0  0  0  0  0  0
  143.0519   80.2027  221.9938 H   0  0  0  0  0  0  0  0  0  0  0  0
  142.3255   81.5334  221.0665 H   0  0  0  0  0  0  0  0  0  0  0  0
  141.6825   79.4101  220.0354 H   0  0  0  0  0  0  0  0  0  0  0  0
  140.2296   80.1348  220.8387 H   0  0  0  0  0  0  0  0  0  0  0  0
  139.0425   69.7311  222.5312 H   0  0  0  0  0  0  0  0  0  0  0  0
  139.0957   68.1869  224.4797 H   0  0  0  0  0  0  0  0  0  0  0  0
  139.6329   67.7992  226.7343 H   0  0  0  0  0  0  0  0  0  0  0  0
  141.4236   70.9721  229.0612 H   0  0  0  0  0  0  0  0  0  0  0  0
  141.3535   72.4703  227.0915 H   0  0  0  0  0  0  0  0  0  0  0  0
  1  2  2  0
  2  3  1  0
  3  4  1  0
  4  5  1  0
  5  6  2  0
  5  7  1  0
  7  8  1  0
  8  9  1  0
  9 10  1  0
 10 11  1  0
 11 12  1  0
 12 13  2  0
 12 14  1  0
 14 15  1  0
 15 16  1  0
 16 17  1  0
 17 18  1  0
 18 19  1  0
 19 20  1  0
 20 21  2  0
 21 22  1  0
 22 23  2  0
 23 24  1  0
 24 25  2  0
 18 26  1  0
 26 27  1  0
  2 28  1  0
 28 29  2  0
 29 30  1  0
 30 31  2  0
 31 32  1  0
 32 33  2  0
 33 34  1  0
 33 35  1  0
 35 36  2  0
 36 37  1  0
 37 38  2  0
 11  7  1  0
 27 15  1  0
 38 28  1  0
 25 20  1  0
 37 31  1  0
  3 39  1  0
  4 40  1  0
  4 41  1  0
  8 42  1  0
  8 43  1  0
  9 44  1  0
  9 45  1  0
 10 46  1  0
 10 47  1  0
 11 48  1  1
 14 49  1  0
 15 50  1  1
 16 51  1  0
 16 52  1  0
 17 53  1  0
 17 54  1  0
 18 55  1  1
 22 56  1  0
 23 57  1  0
 24 58  1  0
 26 59  1  0
 26 60  1  0
 27 61  1  0
 27 62  1  0
 29 63  1  0
 30 64  1  0
 32 65  1  0
 35 66  1  0
 36 67  1  0
M  END
>  <smiles>  (30) 
O=C(NCC(=O)N1CCC[C@H]1C(=O)N[C@H]1CC[C@H](Oc2ncccn2)CC1)c1ccc2cc(F)ccc2n1

>  <score_type>  (30) 
oracle

>  <origin>  (30) 
autodockgpu

>  <m_score__min__energy>  (30) 
-9.4299999999999997

>  <m_primary>  (30) 
energy

>  <rmsd>  (30) 
2.234439386054048

>  <m_score__min__rmsd>  (30) 
2.234439386054048

>  <meeko>  (30) 
{"free_energy": -8.99, "intermolecular_energy": -11.37, "internal_energy": -2.17, "cluster_size": 17, "cluster_id": 2, "rank_in_cluster": 1}

>  <energy>  (30) 
-8.21

>  <cluster_rmsd>  (30) 
1.81

>  <cluster>  (30) 
2

$$$$

     RDKit          3D

 67 71  0  0  0  0  0  0  0  0999 V2000
  140.3280   77.2540  218.8940 O   0  0  0  0  0  0  0  0  0  0  0  0
  141.6000   77.3590  218.9300 C   0  0  0  0  0  0  0  0  0  0  0  0
  142.1950   78.6710  218.9360 N   0  0  0  0  0  0  0  0  0  0  0  0
  141.2950   79.7930  218.9020 C   0  0  0  0  0  0  0  0  0  0  0  0
  141.7220   80.8260  219.8840 C   0  0  0  0  0  0  0  0  0  0  0  0
  142.1990   81.9410  219.5490 O   0  0  0  0  0  0  0  0  0  0  0  0
  141.5970   80.5720  221.2790 N   0  0  0  0  0  0  0  0  0  0  0  0
  140.4710   80.9950  222.0910 C   0  0  0  0  0  0  0  0  0  0  0  0
  141.0350   81.0890  223.5120 C   0  0  0  0  0  0  0  0  0  0  0  0
  142.5450   80.8900  223.3200 C   0  0  0  0  0  0  0  0  0  0  0  0
  142.5020   79.8720  222.1720 C   0  0  1  0  0  0  0  0  0  0  0  0
  141.8720   78.6460  222.7230 C   0  0  0  0  0  0  0  0  0  0  0  0
  142.0070   78.2730  223.9090 O   0  0  0  0  0  0  0  0  0  0  0  0
  141.0770   77.8560  221.8650 N   0  0  0  0  0  0  0  0  0  0  0  0
  140.4380   76.6440  222.3580 C   0  0  1  0  0  0  0  0  0  0  0  0
  138.9520   76.8760  222.3020 C   0  0  0  0  0  0  0  0  0  0  0  0
  138.1240   75.6320  222.3120 C   0  0  0  0  0  0  0  0  0  0  0  0
  138.6210   74.5060  221.4800 C   0  0  2  0  0  0  0  0  0  0  0  0
  138.9910   73.3610  222.2370 O   0  0  0  0  0  0  0  0  0  0  0  0
  139.8570   72.4500  221.6060 C   0  0  0  0  0  0  0  0  0  0  0  0
  139.3140   71.4800  220.8430 N   0  0  0  0  0  0  0  0  0  0  0  0
  140.1550   70.6000  220.2360 C   0  0  0  0  0  0  0  0  0  0  0  0
  141.5260   70.7360  220.4220 C   0  0  0  0  0  0  0  0  0  0  0  0
  142.0540   71.7520  221.2180 C   0  0  0  0  0  0  0  0  0  0  0  0
  141.1750   72.5880  221.7910 N   0  0  0  0  0  0  0  0  0  0  0  0
  139.7560   74.9880  220.6110 C   0  0  0  0  0  0  0  0  0  0  0  0
  140.8590   75.4400  221.5440 C   0  0  0  0  0  0  0  0  0  0  0  0
  142.4580   76.1810  218.9640 C   0  0  0  0  0  0  0  0  0  0  0  0
  142.2880   75.2200  217.9870 C   0  0  0  0  0  0  0  0  0  0  0  0
  143.0500   74.0670  217.9300 C   0  0  0  0  0  0  0  0  0  0  0  0
  144.0160   73.9020  218.9150 C   0  0  0  0  0  0  0  0  0  0  0  0
  144.7760   72.7450  218.8530 C   0  0  0  0  0  0  0  0  0  0  0  0
  145.7510   72.5610  219.8340 C   0  0  0  0  0  0  0  0  0  0  0  0
  146.5140   71.4490  219.8130 F   0  0  0  0  0  0  0  0  0  0  0  0
  145.9200   73.5300  220.8180 C   0  0  0  0  0  0  0  0  0  0  0  0
  145.1380   74.6710  220.8400 C   0  0  0  0  0  0  0  0  0  0  0  0
  144.1820   74.8610  219.8880 C   0  0  0  0  0  0  0  0  0  0  0  0
  143.4050   75.9830  219.9000 N   0  0  0  0  0  0  0  0  0  0  0  0
  143.2440   78.7700  218.9650 H   0  0  0  0  0  0  0  0  0  0  0  0
  141.2966   80.2293  217.8922 H   0  0  0  0  0  0  0  0  0  0  0  0
  140.2830   79.4486  219.1614 H   0  0  0  0  0  0  0  0  0  0  0  0
  140.0963   81.9735  221.7561 H   0  0  0  0  0  0  0  0  0  0  0  0
  139.6223   80.2984  222.0236 H   0  0  0  0  0  0  0  0  0  0  0  0
  140.8225   82.0737  223.9537 H   0  0  0  0  0  0  0  0  0  0  0  0
  140.5918   80.3498  224.1955 H   0  0  0  0  0  0  0  0  0  0  0  0
  143.0511   81.8219  223.0276 H   0  0  0  0  0  0  0  0  0  0  0  0
  143.1007   80.5741  224.2152 H   0  0  0  0  0  0  0  0  0  0  0  0
  143.4515   79.5745  221.7030 H   0  0  0  0  0  0  0  0  0  0  0  0
  140.9220   78.1120  220.8520 H   0  0  0  0  0  0  0  0  0  0  0  0
  140.7439   76.4281  223.3923 H   0  0  0  0  0  0  0  0  0  0  0  0
  138.7265   77.4301  221.3789 H   0  0  0  0  0  0  0  0  0  0  0  0
  138.6899   77.4305  223.2152 H   0  0  0  0  0  0  0  0  0  0  0  0
  137.1181   75.8956  221.9534 H   0  0  0  0  0  0  0  0  0  0  0  0
  138.1541   75.2670  223.3492 H   0  0  0  0  0  0  0  0  0  0  0  0
  137.7873   74.1716  220.8450 H   0  0  0  0  0  0  0  0  0  0  0  0
  139.7556   69.7914  219.6062 H   0  0  0  0  0  0  0  0  0  0  0  0
  142.2088   70.0271  219.9308 H   0  0  0  0  0  0  0  0  0  0  0  0
  143.1380   71.8625  221.3687 H   0  0  0  0  0  0  0  0  0  0  0  0
  139.4225   75.8279  219.9838 H   0  0  0  0  0  0  0  0  0  0  0  0
  140.1076   74.1891  219.9416 H   0  0  0  0  0  0  0  0  0  0  0  0
  141.7454   75.7035  220.9484 H   0  0  0  0  0  0  0  0  0  0  0  0
  141.0838   74.6161  222.2373 H   0  0  0  0  0  0  0  0  0  0  0  0
  141.5138   75.3781  217.2217 H   0  0  0  0  0  0  0  0  0  0  0  0
  142.8982   73.3154  217.1413 H   0  0  0  0  0  0  0  0  0  0  0  0
  144.6166   71.9995  218.0600 H   0  0  0  0  0  0  0  0  0  0  0  0
  146.6886   73.3864  221.5917 H   0  0  0  0  0  0  0  0  0  0  0  0
  145.2881   75.4252  221.6265 H   0  0  0  0  0  0  0  0  0  0  0  0
  1  2  2  0
  2  3  1  0
  3  4  1  0
  4  5  1  0
  5  6  2  0
  5  7  1  0
  7  8  1  0
  8  9  1  0
  9 10  1  0
 10 11  1  0
 11 12  1  0
 12 13  2  0
 12 14  1  0
 14 15  1  0
 15 16  1  0
 16 17  1  0
 17 18  1  0
 18 19  1  0
 19 20  1  0
 20 21  2  0
 21 22  1  0
 22 23  2  0
 23 24  1  0
 24 25  2  0
 18 26  1  0
 26 27  1  0
  2 28  1  0
 28 29  2  0
 29 30  1  0
 30 31  2  0
 31 32  1  0
 32 33  2  0
 33 34  1  0
 33 35  1  0
 35 36  2  0
 36 37  1  0
 37 38  2  0
 11  7  1  0
 27 15  1  0
 38 28  1  0
 25 20  1  0
 37 31  1  0
  3 39  1  0
  4 40  1  0
  4 41  1  0
  8 42  1  0
  8 43  1  0
  9 44  1  0
  9 45  1  0
 10 46  1  0
 10 47  1  0
 11 48  1  6
 14 49  1  0
 15 50  1  1
 16 51  1  0
 16 52  1  0
 17 53  1  0
 17 54  1  0
 18 55  1  6
 22 56  1  0
 23 57  1  0
 24 58  1  0
 26 59  1  0
 26 60  1  0
 27 61  1  0
 27 62  1  0
 29 63  1  0
 30 64  1  0
 32 65  1  0
 35 66  1  0
 36 67  1  0
M  END
>  <smiles>  (31) 
O=C(NCC(=O)N1CCC[C@H]1C(=O)N[C@H]1CC[C@H](Oc2ncccn2)CC1)c1ccc2cc(F)ccc2n1

>  <score_type>  (31) 
oracle

>  <origin>  (31) 
autodockgpu

>  <m_score__min__energy>  (31) 
-9.4299999999999997

>  <m_primary>  (31) 
energy

>  <rmsd>  (31) 
7.369979792098867

>  <m_score__min__rmsd>  (31) 
7.369979792098867

>  <meeko>  (31) 
{"free_energy": -6.74, "intermolecular_energy": -9.13, "internal_energy": -4.21, "cluster_size": 2, "cluster_id": 7, "rank_in_cluster": 1}

>  <energy>  (31) 
-8.05

>  <cluster_rmsd>  (31) 
1.99

>  <cluster>  (31) 
2

$$$$

     RDKit          3D

 67 71  0  0  0  0  0  0  0  0999 V2000
  138.2870   72.0890  222.3000 O   0  0  0  0  0  0  0  0  0  0  0  0
  139.4530   71.7600  222.7030 C   0  0  0  0  0  0  0  0  0  0  0  0
  140.6040   72.2310  221.9780 N   0  0  0  0  0  0  0  0  0  0  0  0
  140.3540   73.0600  220.8280 C   0  0  0  0  0  0  0  0  0  0  0  0
  141.4900   73.9970  220.6110 C   0  0  0  0  0  0  0  0  0  0  0  0
  142.6890   73.6900  220.8380 O   0  0  0  0  0  0  0  0  0  0  0  0
  141.2410   75.3100  220.1230 N   0  0  0  0  0  0  0  0  0  0  0  0
  139.9650   75.7600  219.5950 C   0  0  0  0  0  0  0  0  0  0  0  0
  140.3240   76.9150  218.6550 C   0  0  0  0  0  0  0  0  0  0  0  0
  141.8570   76.8730  218.5910 C   0  0  0  0  0  0  0  0  0  0  0  0
  142.1390   76.4470  220.0390 C   0  0  1  0  0  0  0  0  0  0  0  0
  141.6750   77.5630  220.9020 C   0  0  0  0  0  0  0  0  0  0  0  0
  141.4730   78.7230  220.4810 O   0  0  0  0  0  0  0  0  0  0  0  0
  141.4480   77.3030  222.2710 N   0  0  0  0  0  0  0  0  0  0  0  0
  140.9920   78.3650  223.1570 C   0  0  1  0  0  0  0  0  0  0  0  0
  141.9640   79.5050  223.0130 C   0  0  0  0  0  0  0  0  0  0  0  0
  141.4400   80.8330  223.4590 C   0  0  0  0  0  0  0  0  0  0  0  0
  140.0370   81.1450  223.0830 C   0  0  2  0  0  0  0  0  0  0  0  0
  139.1660   81.2750  224.2000 O   0  0  0  0  0  0  0  0  0  0  0  0
  137.7900   81.3150  223.9140 C   0  0  0  0  0  0  0  0  0  0  0  0
  137.0200   80.2960  224.3450 N   0  0  0  0  0  0  0  0  0  0  0  0
  135.6900   80.3380  224.0660 C   0  0  0  0  0  0  0  0  0  0  0  0
  135.1820   81.4210  223.3580 C   0  0  0  0  0  0  0  0  0  0  0  0
  136.0060   82.4590  222.9280 C   0  0  0  0  0  0  0  0  0  0  0  0
  137.3090   82.3610  223.2310 N   0  0  0  0  0  0  0  0  0  0  0  0
  139.5380   80.1080  222.1070 C   0  0  0  0  0  0  0  0  0  0  0  0
  139.5750   78.7770  222.8260 C   0  0  0  0  0  0  0  0  0  0  0  0
  139.6390   70.9160  223.8780 C   0  0  0  0  0  0  0  0  0  0  0  0
  139.2030   69.6070  223.8180 C   0  0  0  0  0  0  0  0  0  0  0  0
  139.3330   68.7260  224.8770 C   0  0  0  0  0  0  0  0  0  0  0  0
  139.9310   69.2150  226.0320 C   0  0  0  0  0  0  0  0  0  0  0  0
  140.0580   68.3280  227.0890 C   0  0  0  0  0  0  0  0  0  0  0  0
  140.6560   68.8000  228.2580 C   0  0  0  0  0  0  0  0  0  0  0  0
  140.8000   67.9710  229.3120 F   0  0  0  0  0  0  0  0  0  0  0  0
  141.0940   70.1190  228.3160 C   0  0  0  0  0  0  0  0  0  0  0  0
  140.9470   70.9690  227.2340 C   0  0  0  0  0  0  0  0  0  0  0  0
  140.3640   70.5190  226.0880 C   0  0  0  0  0  0  0  0  0  0  0  0
  140.2140   71.3500  225.0150 N   0  0  0  0  0  0  0  0  0  0  0  0
  141.5710   71.9660  222.3000 H   0  0  0  0  0  0  0  0  0  0  0  0
  140.2347   72.4222  219.9397 H   0  0  0  0  0  0  0  0  0  0  0  0
  139.4368   73.6426  220.9990 H   0  0  0  0  0  0  0  0  0  0  0  0
  139.4655   74.9503  219.0428 H   0  0  0  0  0  0  0  0  0  0  0  0
  139.2692   76.0683  220.3893 H   0  0  0  0  0  0  0  0  0  0  0  0
  139.8859   76.7594  217.6581 H   0  0  0  0  0  0  0  0  0  0  0  0
  139.9396   77.8840  219.0061 H   0  0  0  0  0  0  0  0  0  0  0  0
  142.2205   76.1321  217.8637 H   0  0  0  0  0  0  0  0  0  0  0  0
  142.3452   77.8033  218.2652 H   0  0  0  0  0  0  0  0  0  0  0  0
  143.1771   76.2184  220.3221 H   0  0  0  0  0  0  0  0  0  0  0  0
  141.5980   76.3460  222.6910 H   0  0  0  0  0  0  0  0  0  0  0  0
  140.9671   78.0244  224.2026 H   0  0  0  0  0  0  0  0  0  0  0  0
  142.2430   79.5855  221.9520 H   0  0  0  0  0  0  0  0  0  0  0  0
  142.8163   79.2713  223.6680 H   0  0  0  0  0  0  0  0  0  0  0  0
  142.0847   81.6112  223.0246 H   0  0  0  0  0  0  0  0  0  0  0  0
  141.4492   80.7987  224.5584 H   0  0  0  0  0  0  0  0  0  0  0  0
  140.0354   82.1344  222.6022 H   0  0  0  0  0  0  0  0  0  0  0  0
  135.0251   79.5262  224.3960 H   0  0  0  0  0  0  0  0  0  0  0  0
  134.1061   81.4594  223.1323 H   0  0  0  0  0  0  0  0  0  0  0  0
  135.6073   83.3172  222.3672 H   0  0  0  0  0  0  0  0  0  0  0  0
  140.1889   80.0779  221.2208 H   0  0  0  0  0  0  0  0  0  0  0  0
  138.5191   80.3445  221.7666 H   0  0  0  0  0  0  0  0  0  0  0  0
  139.1210   78.0099  222.1815 H   0  0  0  0  0  0  0  0  0  0  0  0
  139.0160   78.8780  223.7680 H   0  0  0  0  0  0  0  0  0  0  0  0
  138.7329   69.2499  222.8898 H   0  0  0  0  0  0  0  0  0  0  0  0
  138.9793   67.6867  224.8078 H   0  0  0  0  0  0  0  0  0  0  0  0
  139.7008   67.2907  227.0095 H   0  0  0  0  0  0  0  0  0  0  0  0
  141.5650   70.4925  229.2372 H   0  0  0  0  0  0  0  0  0  0  0  0
  141.3011   72.0084  227.2993 H   0  0  0  0  0  0  0  0  0  0  0  0
  1  2  2  0
  2  3  1  0
  3  4  1  0
  4  5  1  0
  5  6  2  0
  5  7  1  0
  7  8  1  0
  8  9  1  0
  9 10  1  0
 10 11  1  0
 11 12  1  0
 12 13  2  0
 12 14  1  0
 14 15  1  0
 15 16  1  0
 16 17  1  0
 17 18  1  0
 18 19  1  0
 19 20  1  0
 20 21  2  0
 21 22  1  0
 22 23  2  0
 23 24  1  0
 24 25  2  0
 18 26  1  0
 26 27  1  0
  2 28  1  0
 28 29  2  0
 29 30  1  0
 30 31  2  0
 31 32  1  0
 32 33  2  0
 33 34  1  0
 33 35  1  0
 35 36  2  0
 36 37  1  0
 37 38  2  0
 11  7  1  0
 27 15  1  0
 38 28  1  0
 25 20  1  0
 37 31  1  0
  3 39  1  0
  4 40  1  0
  4 41  1  0
  8 42  1  0
  8 43  1  0
  9 44  1  0
  9 45  1  0
 10 46  1  0
 10 47  1  0
 11 48  1  6
 14 49  1  0
 15 50  1  1
 16 51  1  0
 16 52  1  0
 17 53  1  0
 17 54  1  0
 18 55  1  6
 22 56  1  0
 23 57  1  0
 24 58  1  0
 26 59  1  0
 26 60  1  0
 27 61  1  0
 27 62  1  0
 29 63  1  0
 30 64  1  0
 32 65  1  0
 35 66  1  0
 36 67  1  0
M  END
>  <smiles>  (32) 
O=C(NCC(=O)N1CCC[C@H]1C(=O)N[C@H]1CC[C@H](Oc2ncccn2)CC1)c1ccc2cc(F)ccc2n1

>  <score_type>  (32) 
oracle

>  <origin>  (32) 
autodockgpu

>  <m_score__min__energy>  (32) 
-9.4299999999999997

>  <m_primary>  (32) 
energy

>  <rmsd>  (32) 
1.7899067792329033

>  <m_score__min__rmsd>  (32) 
1.7899067792329033

>  <meeko>  (32) 
{"free_energy": -7.9, "intermolecular_energy": -10.29, "internal_energy": -2.1, "cluster_size": 17, "cluster_id": 2, "rank_in_cluster": 17}

>  <energy>  (32) 
-7.9

>  <cluster_rmsd>  (32) 
1.53

>  <cluster>  (32) 
2

$$$$

     RDKit          3D

 67 71  0  0  0  0  0  0  0  0999 V2000
  143.0840   76.1270  214.8350 O   0  0  0  0  0  0  0  0  0  0  0  0
  143.3440   76.6060  215.9900 C   0  0  0  0  0  0  0  0  0  0  0  0
  144.2360   75.8870  216.8620 N   0  0  0  0  0  0  0  0  0  0  0  0
  144.7850   74.6560  216.3590 C   0  0  0  0  0  0  0  0  0  0  0  0
  145.1530   73.7570  217.4870 C   0  0  0  0  0  0  0  0  0  0  0  0
  146.1330   72.9680  217.4480 O   0  0  0  0  0  0  0  0  0  0  0  0
  144.3810   73.7680  218.6820 N   0  0  0  0  0  0  0  0  0  0  0  0
  144.9310   73.6000  220.0150 C   0  0  0  0  0  0  0  0  0  0  0  0
  143.7660   73.0530  220.8450 C   0  0  0  0  0  0  0  0  0  0  0  0
  142.6750   72.7660  219.8040 C   0  0  0  0  0  0  0  0  0  0  0  0
  142.9490   73.9390  218.8520 C   0  0  1  0  0  0  0  0  0  0  0  0
  142.6430   75.1770  219.6130 C   0  0  0  0  0  0  0  0  0  0  0  0
  143.3820   76.1850  219.6180 O   0  0  0  0  0  0  0  0  0  0  0  0
  141.4540   75.2200  220.3720 N   0  0  0  0  0  0  0  0  0  0  0  0
  141.1100   76.4110  221.1360 C   0  0  1  0  0  0  0  0  0  0  0  0
  140.4000   77.3470  220.1950 C   0  0  0  0  0  0  0  0  0  0  0  0
  139.5660   78.3920  220.8640 C   0  0  0  0  0  0  0  0  0  0  0  0
  138.7680   77.9460  222.0340 C   0  0  2  0  0  0  0  0  0  0  0  0
  139.1620   78.5560  223.2560 O   0  0  0  0  0  0  0  0  0  0  0  0
  140.3260   79.3440  223.2120 C   0  0  0  0  0  0  0  0  0  0  0  0
  141.5200   78.7170  223.2440 N   0  0  0  0  0  0  0  0  0  0  0  0
  142.6430   79.4830  223.2020 C   0  0  0  0  0  0  0  0  0  0  0  0
  142.5180   80.8650  223.1270 C   0  0  0  0  0  0  0  0  0  0  0  0
  141.2670   81.4800  223.0960 C   0  0  0  0  0  0  0  0  0  0  0  0
  140.1960   80.6740  223.1410 N   0  0  0  0  0  0  0  0  0  0  0  0
  138.8120   76.4410  222.1250 C   0  0  0  0  0  0  0  0  0  0  0  0
  140.2610   76.0580  222.3380 C   0  0  0  0  0  0  0  0  0  0  0  0
  142.7530   77.8610  216.4410 C   0  0  0  0  0  0  0  0  0  0  0  0
  142.1690   78.6840  215.4990 C   0  0  0  0  0  0  0  0  0  0  0  0
  141.5820   79.8940  215.8250 C   0  0  0  0  0  0  0  0  0  0  0  0
  141.6030   80.2640  217.1640 C   0  0  0  0  0  0  0  0  0  0  0  0
  141.0140   81.4770  217.4830 C   0  0  0  0  0  0  0  0  0  0  0  0
  141.0240   81.8650  218.8220 C   0  0  0  0  0  0  0  0  0  0  0  0
  140.4630   83.0390  219.1790 F   0  0  0  0  0  0  0  0  0  0  0  0
  141.6140   81.0350  219.7690 C   0  0  0  0  0  0  0  0  0  0  0  0
  142.1910   79.8310  219.4040 C   0  0  0  0  0  0  0  0  0  0  0  0
  142.1860   79.4420  218.0990 C   0  0  0  0  0  0  0  0  0  0  0  0
  142.7520   78.2550  217.7280 N   0  0  0  0  0  0  0  0  0  0  0  0
  144.4580   76.2720  217.8180 H   0  0  0  0  0  0  0  0  0  0  0  0
  144.0368   74.1566  215.7259 H   0  0  0  0  0  0  0  0  0  0  0  0
  145.6868   74.8799  215.7702 H   0  0  0  0  0  0  0  0  0  0  0  0
  145.7683   72.8867  220.0030 H   0  0  0  0  0  0  0  0  0  0  0  0
  145.3306   74.5398  220.4239 H   0  0  0  0  0  0  0  0  0  0  0  0
  144.0581   72.1317  221.3702 H   0  0  0  0  0  0  0  0  0  0  0  0
  143.4346   73.7541  221.6252 H   0  0  0  0  0  0  0  0  0  0  0  0
  142.8177   71.7922  219.3127 H   0  0  0  0  0  0  0  0  0  0  0  0
  141.6491   72.6998  220.1952 H   0  0  0  0  0  0  0  0  0  0  0  0
  142.3888   73.9838  217.9064 H   0  0  0  0  0  0  0  0  0  0  0  0
  140.7850   74.4040  220.4130 H   0  0  0  0  0  0  0  0  0  0  0  0
  142.0112   76.8968  221.5383 H   0  0  0  0  0  0  0  0  0  0  0  0
  139.7436   76.7481  219.5466 H   0  0  0  0  0  0  0  0  0  0  0  0
  141.1839   77.8835  219.6403 H   0  0  0  0  0  0  0  0  0  0  0  0
  138.8675   78.7936  220.1152 H   0  0  0  0  0  0  0  0  0  0  0  0
  140.2803   79.1291  221.2595 H   0  0  0  0  0  0  0  0  0  0  0  0
  137.7312   78.2756  221.8718 H   0  0  0  0  0  0  0  0  0  0  0  0
  143.6379   79.0144  223.2271 H   0  0  0  0  0  0  0  0  0  0  0  0
  143.4248   81.4867  223.0914 H   0  0  0  0  0  0  0  0  0  0  0  0
  141.1635   82.5736  223.0374 H   0  0  0  0  0  0  0  0  0  0  0  0
  138.4352   75.9941  221.1932 H   0  0  0  0  0  0  0  0  0  0  0  0
  138.1821   76.0768  222.9500 H   0  0  0  0  0  0  0  0  0  0  0  0
  140.3222   74.9737  222.5129 H   0  0  0  0  0  0  0  0  0  0  0  0
  140.6418   76.6165  223.2058 H   0  0  0  0  0  0  0  0  0  0  0  0
  142.1703   78.3649  214.4463 H   0  0  0  0  0  0  0  0  0  0  0  0
  141.1198   80.5338  215.0588 H   0  0  0  0  0  0  0  0  0  0  0  0
  140.5558   82.1100  216.7088 H   0  0  0  0  0  0  0  0  0  0  0  0
  141.6223   81.3404  220.8257 H   0  0  0  0  0  0  0  0  0  0  0  0
  142.6534   79.1886  220.1678 H   0  0  0  0  0  0  0  0  0  0  0  0
  1  2  2  0
  2  3  1  0
  3  4  1  0
  4  5  1  0
  5  6  2  0
  5  7  1  0
  7  8  1  0
  8  9  1  0
  9 10  1  0
 10 11  1  0
 11 12  1  0
 12 13  2  0
 12 14  1  0
 14 15  1  0
 15 16  1  0
 16 17  1  0
 17 18  1  0
 18 19  1  0
 19 20  1  0
 20 21  2  0
 21 22  1  0
 22 23  2  0
 23 24  1  0
 24 25  2  0
 18 26  1  0
 26 27  1  0
  2 28  1  0
 28 29  2  0
 29 30  1  0
 30 31  2  0
 31 32  1  0
 32 33  2  0
 33 34  1  0
 33 35  1  0
 35 36  2  0
 36 37  1  0
 37 38  2  0
 11  7  1  0
 27 15  1  0
 38 28  1  0
 25 20  1  0
 37 31  1  0
  3 39  1  0
  4 40  1  0
  4 41  1  0
  8 42  1  0
  8 43  1  0
  9 44  1  0
  9 45  1  0
 10 46  1  0
 10 47  1  0
 11 48  1  6
 14 49  1  0
 15 50  1  1
 16 51  1  0
 16 52  1  0
 17 53  1  0
 17 54  1  0
 18 55  1  6
 22 56  1  0
 23 57  1  0
 24 58  1  0
 26 59  1  0
 26 60  1  0
 27 61  1  0
 27 62  1  0
 29 63  1  0
 30 64  1  0
 32 65  1  0
 35 66  1  0
 36 67  1  0
M  END
>  <smiles>  (33) 
O=C(NCC(=O)N1CCC[C@H]1C(=O)N[C@H]1CC[C@H](Oc2ncccn2)CC1)c1ccc2cc(F)ccc2n1

>  <score_type>  (33) 
oracle

>  <origin>  (33) 
autodockgpu

>  <m_score__min__energy>  (33) 
-9.4299999999999997

>  <m_primary>  (33) 
energy

>  <rmsd>  (33) 
9.216111489514075

>  <m_score__min__rmsd>  (33) 
9.216111489514075

>  <meeko>  (33) 
{"free_energy": -6.62, "intermolecular_energy": -9.0, "internal_energy": -4.38, "cluster_size": 3, "cluster_id": 8, "rank_in_cluster": 1}

>  <energy>  (33) 
-8.84

>  <cluster_rmsd>  (33) 
0.0

>  <cluster>  (33) 
3

$$$$

     RDKit          3D

 67 71  0  0  0  0  0  0  0  0999 V2000
  140.0790   78.9510  218.7710 O   0  0  0  0  0  0  0  0  0  0  0  0
  141.3000   78.6380  218.9760 C   0  0  0  0  0  0  0  0  0  0  0  0
  142.2720   79.6850  219.1500 N   0  0  0  0  0  0  0  0  0  0  0  0
  141.7890   81.0390  219.0810 C   0  0  0  0  0  0  0  0  0  0  0  0
  140.8800   81.3210  220.2260 C   0  0  0  0  0  0  0  0  0  0  0  0
  139.8300   82.0060  220.1190 O   0  0  0  0  0  0  0  0  0  0  0  0
  141.1860   80.8050  221.5160 N   0  0  0  0  0  0  0  0  0  0  0  0
  140.5560   81.2490  222.7470 C   0  0  0  0  0  0  0  0  0  0  0  0
  141.5820   80.9330  223.8390 C   0  0  0  0  0  0  0  0  0  0  0  0
  142.8300   80.5020  223.0570 C   0  0  0  0  0  0  0  0  0  0  0  0
  142.1370   79.7760  221.8950 C   0  0  1  0  0  0  0  0  0  0  0  0
  141.4500   78.6000  222.4860 C   0  0  0  0  0  0  0  0  0  0  0  0
  141.7990   78.0640  223.5600 O   0  0  0  0  0  0  0  0  0  0  0  0
  140.3420   78.0560  221.8000 N   0  0  0  0  0  0  0  0  0  0  0  0
  139.6350   76.9030  222.3390 C   0  0  1  0  0  0  0  0  0  0  0  0
  138.1630   77.2020  222.2370 C   0  0  0  0  0  0  0  0  0  0  0  0
  137.2750   76.0010  222.2910 C   0  0  0  0  0  0  0  0  0  0  0  0
  137.7330   74.8110  221.5280 C   0  0  2  0  0  0  0  0  0  0  0  0
  138.0320   73.6900  222.3500 O   0  0  0  0  0  0  0  0  0  0  0  0
  139.0270   72.8170  221.8760 C   0  0  0  0  0  0  0  0  0  0  0  0
  140.2610   72.9080  222.4090 N   0  0  0  0  0  0  0  0  0  0  0  0
  141.2200   72.0620  221.9460 C   0  0  0  0  0  0  0  0  0  0  0  0
  140.8930   71.1460  220.9540 C   0  0  0  0  0  0  0  0  0  0  0  0
  139.6050   71.0780  220.4250 C   0  0  0  0  0  0  0  0  0  0  0  0
  138.7020   71.9380  220.9200 N   0  0  0  0  0  0  0  0  0  0  0  0
  138.9080   75.1940  220.6630 C   0  0  0  0  0  0  0  0  0  0  0  0
  140.0130   75.6400  221.5970 C   0  0  0  0  0  0  0  0  0  0  0  0
  141.7260   77.2440  219.0360 C   0  0  0  0  0  0  0  0  0  0  0  0
  140.9630   76.3000  218.3770 C   0  0  0  0  0  0  0  0  0  0  0  0
  141.2820   74.9530  218.3720 C   0  0  0  0  0  0  0  0  0  0  0  0
  142.4210   74.5730  219.0710 C   0  0  0  0  0  0  0  0  0  0  0  0
  142.7340   73.2230  219.0620 C   0  0  0  0  0  0  0  0  0  0  0  0
  143.8740   72.8220  219.7580 C   0  0  0  0  0  0  0  0  0  0  0  0
  144.2170   71.5180  219.7770 F   0  0  0  0  0  0  0  0  0  0  0  0
  144.6400   73.7750  220.4210 C   0  0  0  0  0  0  0  0  0  0  0  0
  144.2890   75.1140  220.4010 C   0  0  0  0  0  0  0  0  0  0  0  0
  143.1770   75.5170  219.7260 C   0  0  0  0  0  0  0  0  0  0  0  0
  142.8220   76.8350  219.7010 N   0  0  0  0  0  0  0  0  0  0  0  0
  143.2830   79.4390  219.3200 H   0  0  0  0  0  0  0  0  0  0  0  0
  142.6430   81.7314  219.1163 H   0  0  0  0  0  0  0  0  0  0  0  0
  141.2338   81.1740  218.1410 H   0  0  0  0  0  0  0  0  0  0  0  0
  140.3479   82.3285  222.7098 H   0  0  0  0  0  0  0  0  0  0  0  0
  139.5902   80.7534  222.9247 H   0  0  0  0  0  0  0  0  0  0  0  0
  141.7908   81.8237  224.4498 H   0  0  0  0  0  0  0  0  0  0  0  0
  141.2322   80.1608  224.5400 H   0  0  0  0  0  0  0  0  0  0  0  0
  143.4207   81.3638  222.7129 H   0  0  0  0  0  0  0  0  0  0  0  0
  143.5628   79.9063  223.6210 H   0  0  0  0  0  0  0  0  0  0  0  0
  142.7578   79.4131  221.0626 H   0  0  0  0  0  0  0  0  0  0  0  0
  139.9950   78.4590  220.8880 H   0  0  0  0  0  0  0  0  0  0  0  0
  139.9091   76.7268  223.3896 H   0  0  0  0  0  0  0  0  0  0  0  0
  137.9838   77.7176  221.2820 H   0  0  0  0  0  0  0  0  0  0  0  0
  137.9096   77.8146  223.1148 H   0  0  0  0  0  0  0  0  0  0  0  0
  136.2905   76.2936  221.8970 H   0  0  0  0  0  0  0  0  0  0  0  0
  137.2664   75.6887  223.3457 H   0  0  0  0  0  0  0  0  0  0  0  0
  136.8972   74.4841  220.8920 H   0  0  0  0  0  0  0  0  0  0  0  0
  142.2416   72.1025  222.3518 H   0  0  0  0  0  0  0  0  0  0  0  0
  141.6665   70.4601  220.5781 H   0  0  0  0  0  0  0  0  0  0  0  0
  139.3417   70.3542  219.6397 H   0  0  0  0  0  0  0  0  0  0  0  0
  138.6287   76.0159  219.9874 H   0  0  0  0  0  0  0  0  0  0  0  0
  139.2341   74.3460  220.0429 H   0  0  0  0  0  0  0  0  0  0  0  0
  140.9232   75.8295  221.0092 H   0  0  0  0  0  0  0  0  0  0  0  0
  140.1832   74.8431  222.3360 H   0  0  0  0  0  0  0  0  0  0  0  0
  140.0656   76.6319  217.8342 H   0  0  0  0  0  0  0  0  0  0  0  0
  140.6620   74.2171  217.8390 H   0  0  0  0  0  0  0  0  0  0  0  0
  142.1069   72.4953  218.5261 H   0  0  0  0  0  0  0  0  0  0  0  0
  145.5394   73.4596  220.9702 H   0  0  0  0  0  0  0  0  0  0  0  0
  144.9086   75.8527  220.9306 H   0  0  0  0  0  0  0  0  0  0  0  0
  1  2  2  0
  2  3  1  0
  3  4  1  0
  4  5  1  0
  5  6  2  0
  5  7  1  0
  7  8  1  0
  8  9  1  0
  9 10  1  0
 10 11  1  0
 11 12  1  0
 12 13  2  0
 12 14  1  0
 14 15  1  0
 15 16  1  0
 16 17  1  0
 17 18  1  0
 18 19  1  0
 19 20  1  0
 20 21  2  0
 21 22  1  0
 22 23  2  0
 23 24  1  0
 24 25  2  0
 18 26  1  0
 26 27  1  0
  2 28  1  0
 28 29  2  0
 29 30  1  0
 30 31  2  0
 31 32  1  0
 32 33  2  0
 33 34  1  0
 33 35  1  0
 35 36  2  0
 36 37  1  0
 37 38  2  0
 11  7  1  0
 27 15  1  0
 38 28  1  0
 25 20  1  0
 37 31  1  0
  3 39  1  0
  4 40  1  0
  4 41  1  0
  8 42  1  0
  8 43  1  0
  9 44  1  0
  9 45  1  0
 10 46  1  0
 10 47  1  0
 11 48  1  6
 14 49  1  0
 15 50  1  1
 16 51  1  0
 16 52  1  0
 17 53  1  0
 17 54  1  0
 18 55  1  6
 22 56  1  0
 23 57  1  0
 24 58  1  0
 26 59  1  0
 26 60  1  0
 27 61  1  0
 27 62  1  0
 29 63  1  0
 30 64  1  0
 32 65  1  0
 35 66  1  0
 36 67  1  0
M  END
>  <smiles>  (34) 
O=C(NCC(=O)N1CCC[C@H]1C(=O)N[C@H]1CC[C@H](Oc2ncccn2)CC1)c1ccc2cc(F)ccc2n1

>  <score_type>  (34) 
oracle

>  <origin>  (34) 
autodockgpu

>  <m_score__min__energy>  (34) 
-9.4299999999999997

>  <m_primary>  (34) 
energy

>  <rmsd>  (34) 
7.506909452490955

>  <m_score__min__rmsd>  (34) 
7.506909452490955

>  <meeko>  (34) 
{"free_energy": -5.98, "intermolecular_energy": -8.36, "internal_energy": -4.54, "cluster_size": 2, "cluster_id": 7, "rank_in_cluster": 2}

>  <energy>  (34) 
-8.17

>  <cluster_rmsd>  (34) 
1.47

>  <cluster>  (34) 
3

$$$$

     RDKit          3D

 67 71  0  0  0  0  0  0  0  0999 V2000
  141.1520   72.1460  221.5460 O   0  0  0  0  0  0  0  0  0  0  0  0
  140.2930   72.3650  222.4660 C   0  0  0  0  0  0  0  0  0  0  0  0
  139.3860   73.4740  222.3270 N   0  0  0  0  0  0  0  0  0  0  0  0
  139.5110   74.2720  221.1360 C   0  0  0  0  0  0  0  0  0  0  0  0
  140.7380   75.1130  221.2060 C   0  0  0  0  0  0  0  0  0  0  0  0
  141.0660   75.7690  222.2290 O   0  0  0  0  0  0  0  0  0  0  0  0
  141.6020   75.2000  220.0790 N   0  0  0  0  0  0  0  0  0  0  0  0
  142.9090   75.8310  220.0950 C   0  0  0  0  0  0  0  0  0  0  0  0
  143.1540   76.2460  218.6410 C   0  0  0  0  0  0  0  0  0  0  0  0
  141.8110   75.9710  217.9500 C   0  0  0  0  0  0  0  0  0  0  0  0
  141.4040   74.7110  218.7270 C   0  0  1  0  0  0  0  0  0  0  0  0
  142.4010   73.6660  218.3820 C   0  0  0  0  0  0  0  0  0  0  0  0
  143.0000   73.6180  217.2860 O   0  0  0  0  0  0  0  0  0  0  0  0
  142.6900   72.6720  219.3420 N   0  0  0  0  0  0  0  0  0  0  0  0
  143.6600   71.6260  219.0510 C   0  0  1  0  0  0  0  0  0  0  0  0
  143.1990   70.9340  217.7960 C   0  0  0  0  0  0  0  0  0  0  0  0
  144.2620   70.1670  217.0780 C   0  0  0  0  0  0  0  0  0  0  0  0
  145.5940   70.8190  216.9880 C   0  0  2  0  0  0  0  0  0  0  0  0
  146.6170   70.1170  217.6830 O   0  0  0  0  0  0  0  0  0  0  0  0
  146.2480   68.8900  218.2630 C   0  0  0  0  0  0  0  0  0  0  0  0
  145.9560   68.8700  219.5780 N   0  0  0  0  0  0  0  0  0  0  0  0
  145.6000   67.6820  220.1350 C   0  0  0  0  0  0  0  0  0  0  0  0
  145.5500   66.5480  219.3340 C   0  0  0  0  0  0  0  0  0  0  0  0
  145.8580   66.6030  217.9760 C   0  0  0  0  0  0  0  0  0  0  0  0
  146.2030   67.8030  217.4830 N   0  0  0  0  0  0  0  0  0  0  0  0
  145.4850   72.2480  217.4570 C   0  0  0  0  0  0  0  0  0  0  0  0
  145.0520   72.2020  218.9060 C   0  0  0  0  0  0  0  0  0  0  0  0
  140.2170   71.5180  223.6500 C   0  0  0  0  0  0  0  0  0  0  0  0
  139.6340   70.2730  223.5270 C   0  0  0  0  0  0  0  0  0  0  0  0
  139.5140   69.3940  224.5890 C   0  0  0  0  0  0  0  0  0  0  0  0
  140.0100   69.8180  225.8150 C   0  0  0  0  0  0  0  0  0  0  0  0
  139.8870   68.9340  226.8750 C   0  0  0  0  0  0  0  0  0  0  0  0
  140.3800   69.3410  228.1140 C   0  0  0  0  0  0  0  0  0  0  0  0
  140.2800   68.5130  229.1740 F   0  0  0  0  0  0  0  0  0  0  0  0
  140.9660   70.5960  228.2370 C   0  0  0  0  0  0  0  0  0  0  0  0
  141.0690   71.4470  227.1490 C   0  0  0  0  0  0  0  0  0  0  0  0
  140.5910   71.0600  225.9350 C   0  0  0  0  0  0  0  0  0  0  0  0
  140.6860   71.8910  224.8550 N   0  0  0  0  0  0  0  0  0  0  0  0
  138.6730   73.6660  223.0800 H   0  0  0  0  0  0  0  0  0  0  0  0
  139.5741   73.6097  220.2600 H   0  0  0  0  0  0  0  0  0  0  0  0
  138.6317   74.9272  221.0494 H   0  0  0  0  0  0  0  0  0  0  0  0
  142.9076   76.7108  220.7552 H   0  0  0  0  0  0  0  0  0  0  0  0
  143.6926   75.1591  220.4753 H   0  0  0  0  0  0  0  0  0  0  0  0
  143.4166   77.3123  218.5768 H   0  0  0  0  0  0  0  0  0  0  0  0
  143.9898   75.7008  218.1782 H   0  0  0  0  0  0  0  0  0  0  0  0
  141.0958   76.7944  218.0931 H   0  0  0  0  0  0  0  0  0  0  0  0
  141.8518   75.8633  216.8560 H   0  0  0  0  0  0  0  0  0  0  0  0
  140.4046   74.2882  218.5471 H   0  0  0  0  0  0  0  0  0  0  0  0
  142.2200   72.6530  220.2870 H   0  0  0  0  0  0  0  0  0  0  0  0
  143.7197   70.9021  219.8770 H   0  0  0  0  0  0  0  0  0  0  0  0
  142.8045   71.6974  217.1092 H   0  0  0  0  0  0  0  0  0  0  0  0
  142.4425   70.1986  218.1073 H   0  0  0  0  0  0  0  0  0  0  0  0
  143.9085   69.9829  216.0527 H   0  0  0  0  0  0  0  0  0  0  0  0
  144.4201   69.2554  217.6731 H   0  0  0  0  0  0  0  0  0  0  0  0
  145.9003   70.8004  215.9317 H   0  0  0  0  0  0  0  0  0  0  0  0
  145.3549   67.6195  221.2055 H   0  0  0  0  0  0  0  0  0  0  0  0
  145.2610   65.5856  219.7815 H   0  0  0  0  0  0  0  0  0  0  0  0
  145.8203   65.7069  217.3392 H   0  0  0  0  0  0  0  0  0  0  0  0
  144.7385   72.7877  216.8559 H   0  0  0  0  0  0  0  0  0  0  0  0
  146.4458   72.7726  217.3492 H   0  0  0  0  0  0  0  0  0  0  0  0
  145.0604   73.2234  219.3142 H   0  0  0  0  0  0  0  0  0  0  0  0
  145.7521   71.5551  219.4550 H   0  0  0  0  0  0  0  0  0  0  0  0
  139.2485   69.9666  222.5434 H   0  0  0  0  0  0  0  0  0  0  0  0
  139.0474   68.4053  224.4678 H   0  0  0  0  0  0  0  0  0  0  0  0
  139.4178   67.9478  226.7438 H   0  0  0  0  0  0  0  0  0  0  0  0
  141.3542   70.9183  229.2145 H   0  0  0  0  0  0  0  0  0  0  0  0
  141.5371   72.4355  227.2662 H   0  0  0  0  0  0  0  0  0  0  0  0
  1  2  2  0
  2  3  1  0
  3  4  1  0
  4  5  1  0
  5  6  2  0
  5  7  1  0
  7  8  1  0
  8  9  1  0
  9 10  1  0
 10 11  1  0
 11 12  1  0
 12 13  2  0
 12 14  1  0
 14 15  1  0
 15 16  1  0
 16 17  1  0
 17 18  1  0
 18 19  1  0
 19 20  1  0
 20 21  2  0
 21 22  1  0
 22 23  2  0
 23 24  1  0
 24 25  2  0
 18 26  1  0
 26 27  1  0
  2 28  1  0
 28 29  2  0
 29 30  1  0
 30 31  2  0
 31 32  1  0
 32 33  2  0
 33 34  1  0
 33 35  1  0
 35 36  2  0
 36 37  1  0
 37 38  2  0
 11  7  1  0
 27 15  1  0
 38 28  1  0
 25 20  1  0
 37 31  1  0
  3 39  1  0
  4 40  1  0
  4 41  1  0
  8 42  1  0
  8 43  1  0
  9 44  1  0
  9 45  1  0
 10 46  1  0
 10 47  1  0
 11 48  1  1
 14 49  1  0
 15 50  1  1
 16 51  1  0
 16 52  1  0
 17 53  1  0
 17 54  1  0
 18 55  1  6
 22 56  1  0
 23 57  1  0
 24 58  1  0
 26 59  1  0
 26 60  1  0
 27 61  1  0
 27 62  1  0
 29 63  1  0
 30 64  1  0
 32 65  1  0
 35 66  1  0
 36 67  1  0
M  END
>  <smiles>  (35) 
O=C(NCC(=O)N1CCC[C@H]1C(=O)N[C@H]1CC[C@H](Oc2ncccn2)CC1)c1ccc2cc(F)ccc2n1

>  <score_type>  (35) 
oracle

>  <origin>  (35) 
autodockgpu

>  <m_score__min__energy>  (35) 
-9.4299999999999997

>  <m_primary>  (35) 
energy

>  <rmsd>  (35) 
5.688666509510038

>  <m_score__min__rmsd>  (35) 
5.688666509510038

>  <meeko>  (35) 
{"free_energy": -8.42, "intermolecular_energy": -10.8, "internal_energy": -3.03, "cluster_size": 15, "cluster_id": 1, "rank_in_cluster": 9}

>  <energy>  (35) 
-8.22

>  <cluster_rmsd>  (35) 
0.0

>  <cluster>  (35) 
4

$$$$

     RDKit          3D

 67 71  0  0  0  0  0  0  0  0999 V2000
  143.7810   74.1020  217.9680 O   0  0  0  0  0  0  0  0  0  0  0  0
  143.4500   74.8960  218.9120 C   0  0  0  0  0  0  0  0  0  0  0  0
  143.4270   74.4060  220.2650 N   0  0  0  0  0  0  0  0  0  0  0  0
  143.7880   73.0270  220.4630 C   0  0  0  0  0  0  0  0  0  0  0  0
  142.5660   72.1960  220.6480 C   0  0  0  0  0  0  0  0  0  0  0  0
  142.5470   70.9500  220.4750 O   0  0  0  0  0  0  0  0  0  0  0  0
  141.3440   72.8120  221.0410 N   0  0  0  0  0  0  0  0  0  0  0  0
  140.6450   72.5270  222.2800 C   0  0  0  0  0  0  0  0  0  0  0  0
  139.1830   72.8790  221.9870 C   0  0  0  0  0  0  0  0  0  0  0  0
  139.1690   73.1540  220.4760 C   0  0  0  0  0  0  0  0  0  0  0  0
  140.5510   73.8090  220.3460 C   0  0  1  0  0  0  0  0  0  0  0  0
  140.4880   75.0770  221.1160 C   0  0  0  0  0  0  0  0  0  0  0  0
  141.1680   75.2960  222.1420 O   0  0  0  0  0  0  0  0  0  0  0  0
  139.6140   76.0910  220.6690 N   0  0  0  0  0  0  0  0  0  0  0  0
  139.5160   77.3520  221.3900 C   0  0  1  0  0  0  0  0  0  0  0  0
  138.8250   78.3290  220.4760 C   0  0  0  0  0  0  0  0  0  0  0  0
  138.2160   79.5070  221.1660 C   0  0  0  0  0  0  0  0  0  0  0  0
  137.5100   79.2260  222.4430 C   0  0  2  0  0  0  0  0  0  0  0  0
  138.1190   79.8360  223.5740 O   0  0  0  0  0  0  0  0  0  0  0  0
  139.4890   80.1310  223.4600 C   0  0  0  0  0  0  0  0  0  0  0  0
  140.3770   79.2050  223.8750 N   0  0  0  0  0  0  0  0  0  0  0  0
  141.7010   79.4950  223.7640 C   0  0  0  0  0  0  0  0  0  0  0  0
  142.0820   80.7200  223.2320 C   0  0  0  0  0  0  0  0  0  0  0  0
  141.1380   81.6560  222.8120 C   0  0  0  0  0  0  0  0  0  0  0  0
  139.8480   81.3140  222.9470 N   0  0  0  0  0  0  0  0  0  0  0  0
  137.3730   77.7350  222.6220 C   0  0  0  0  0  0  0  0  0  0  0  0
  138.7760   77.1720  222.6980 C   0  0  0  0  0  0  0  0  0  0  0  0
  143.0950   76.2850  218.6440 C   0  0  0  0  0  0  0  0  0  0  0  0
  143.2390   76.7600  217.3550 C   0  0  0  0  0  0  0  0  0  0  0  0
  142.9290   78.0600  216.9990 C   0  0  0  0  0  0  0  0  0  0  0  0
  142.4590   78.8940  218.0050 C   0  0  0  0  0  0  0  0  0  0  0  0
  142.1510   80.1960  217.6420 C   0  0  0  0  0  0  0  0  0  0  0  0
  141.6770   81.0480  218.6390 C   0  0  0  0  0  0  0  0  0  0  0  0
  141.3650   82.3240  218.3300 F   0  0  0  0  0  0  0  0  0  0  0  0
  141.5340   80.5680  219.9360 C   0  0  0  0  0  0  0  0  0  0  0  0
  141.8530   79.2590  220.2530 C   0  0  0  0  0  0  0  0  0  0  0  0
  142.3170   78.4180  219.2880 C   0  0  0  0  0  0  0  0  0  0  0  0
  142.6360   77.1250  219.5900 N   0  0  0  0  0  0  0  0  0  0  0  0
  143.1550   75.0520  221.0520 H   0  0  0  0  0  0  0  0  0  0  0  0
  144.3424   72.6669  219.5838 H   0  0  0  0  0  0  0  0  0  0  0  0
  144.4160   72.9464  221.3625 H   0  0  0  0  0  0  0  0  0  0  0  0
  140.7430   71.4641  222.5458 H   0  0  0  0  0  0  0  0  0  0  0  0
  141.0500   73.0975  223.1288 H   0  0  0  0  0  0  0  0  0  0  0  0
  138.5194   72.0386  222.2387 H   0  0  0  0  0  0  0  0  0  0  0  0
  138.8242   73.7341  222.5787 H   0  0  0  0  0  0  0  0  0  0  0  0
  139.0933   72.2277  219.8876 H   0  0  0  0  0  0  0  0  0  0  0  0
  138.3223   73.7527  220.1091 H   0  0  0  0  0  0  0  0  0  0  0  0
  140.9200   74.0509  219.3384 H   0  0  0  0  0  0  0  0  0  0  0  0
  139.0100   75.9710  219.8100 H   0  0  0  0  0  0  0  0  0  0  0  0
  140.5123   77.7325  221.6593 H   0  0  0  0  0  0  0  0  0  0  0  0
  138.0257   77.7932  219.9431 H   0  0  0  0  0  0  0  0  0  0  0  0
  139.6001   78.7284  219.8054 H   0  0  0  0  0  0  0  0  0  0  0  0
  137.4916   79.9631  220.4752 H   0  0  0  0  0  0  0  0  0  0  0  0
  139.0596   80.1603  221.4334 H   0  0  0  0  0  0  0  0  0  0  0  0
  136.5111   79.6817  222.3758 H   0  0  0  0  0  0  0  0  0  0  0  0
  142.4600   78.7691  224.0912 H   0  0  0  0  0  0  0  0  0  0  0  0
  143.1522   80.9570  223.1400 H   0  0  0  0  0  0  0  0  0  0  0  0
  141.4364   82.6273  222.3906 H   0  0  0  0  0  0  0  0  0  0  0  0
  136.8359   77.2989  221.7668 H   0  0  0  0  0  0  0  0  0  0  0  0
  136.8031   77.4979  223.5325 H   0  0  0  0  0  0  0  0  0  0  0  0
  138.7185   76.0986  222.9317 H   0  0  0  0  0  0  0  0  0  0  0  0
  139.3240   77.7141  223.4827 H   0  0  0  0  0  0  0  0  0  0  0  0
  143.6156   76.0764  216.5799 H   0  0  0  0  0  0  0  0  0  0  0  0
  143.0493   78.4172  215.9656 H   0  0  0  0  0  0  0  0  0  0  0  0
  142.2759   80.5441  216.6060 H   0  0  0  0  0  0  0  0  0  0  0  0
  141.1611   81.2397  220.7233 H   0  0  0  0  0  0  0  0  0  0  0  0
  141.7316   78.8980  221.2850 H   0  0  0  0  0  0  0  0  0  0  0  0
  1  2  2  0
  2  3  1  0
  3  4  1  0
  4  5  1  0
  5  6  2  0
  5  7  1  0
  7  8  1  0
  8  9  1  0
  9 10  1  0
 10 11  1  0
 11 12  1  0
 12 13  2  0
 12 14  1  0
 14 15  1  0
 15 16  1  0
 16 17  1  0
 17 18  1  0
 18 19  1  0
 19 20  1  0
 20 21  2  0
 21 22  1  0
 22 23  2  0
 23 24  1  0
 24 25  2  0
 18 26  1  0
 26 27  1  0
  2 28  1  0
 28 29  2  0
 29 30  1  0
 30 31  2  0
 31 32  1  0
 32 33  2  0
 33 34  1  0
 33 35  1  0
 35 36  2  0
 36 37  1  0
 37 38  2  0
 11  7  1  0
 27 15  1  0
 38 28  1  0
 25 20  1  0
 37 31  1  0
  3 39  1  0
  4 40  1  0
  4 41  1  0
  8 42  1  0
  8 43  1  0
  9 44  1  0
  9 45  1  0
 10 46  1  0
 10 47  1  0
 11 48  1  6
 14 49  1  0
 15 50  1  1
 16 51  1  0
 16 52  1  0
 17 53  1  0
 17 54  1  0
 18 55  1  6
 22 56  1  0
 23 57  1  0
 24 58  1  0
 26 59  1  0
 26 60  1  0
 27 61  1  0
 27 62  1  0
 29 63  1  0
 30 64  1  0
 32 65  1  0
 35 66  1  0
 36 67  1  0
M  END
>  <smiles>  (36) 
O=C(NCC(=O)N1CCC[C@H]1C(=O)N[C@H]1CC[C@H](Oc2ncccn2)CC1)c1ccc2cc(F)ccc2n1

>  <score_type>  (36) 
oracle

>  <origin>  (36) 
autodockgpu

>  <m_score__min__energy>  (36) 
-9.4299999999999997

>  <m_primary>  (36) 
energy

>  <rmsd>  (36) 
8.151626602637355

>  <m_score__min__rmsd>  (36) 
8.151626602637355

>  <meeko>  (36) 
{"free_energy": -6.21, "intermolecular_energy": -8.6, "internal_energy": -4.29, "cluster_size": 3, "cluster_id": 8, "rank_in_cluster": 2}

>  <energy>  (36) 
-8.11

>  <cluster_rmsd>  (36) 
0.47

>  <cluster>  (36) 
4

$$$$

     RDKit          3D

 67 71  0  0  0  0  0  0  0  0999 V2000
  140.8350   72.1490  222.1810 O   0  0  0  0  0  0  0  0  0  0  0  0
  139.8870   71.9480  223.0140 C   0  0  0  0  0  0  0  0  0  0  0  0
  138.5600   72.3990  222.6870 N   0  0  0  0  0  0  0  0  0  0  0  0
  138.3910   73.0560  221.4180 C   0  0  0  0  0  0  0  0  0  0  0  0
  138.7920   74.4860  221.5210 C   0  0  0  0  0  0  0  0  0  0  0  0
  138.1110   75.3510  222.1310 O   0  0  0  0  0  0  0  0  0  0  0  0
  140.0000   74.9280  220.9120 N   0  0  0  0  0  0  0  0  0  0  0  0
  141.1250   75.4910  221.6360 C   0  0  0  0  0  0  0  0  0  0  0  0
  141.8480   76.3640  220.6060 C   0  0  0  0  0  0  0  0  0  0  0  0
  140.9020   76.3630  219.3970 C   0  0  0  0  0  0  0  0  0  0  0  0
  140.3800   74.9240  219.5110 C   0  0  1  0  0  0  0  0  0  0  0  0
  141.5450   74.0360  219.2730 C   0  0  0  0  0  0  0  0  0  0  0  0
  142.4940   74.3300  218.5140 O   0  0  0  0  0  0  0  0  0  0  0  0
  141.5860   72.7910  219.9370 N   0  0  0  0  0  0  0  0  0  0  0  0
  142.7070   71.8840  219.7360 C   0  0  1  0  0  0  0  0  0  0  0  0
  142.7830   71.5990  218.2590 C   0  0  0  0  0  0  0  0  0  0  0  0
  144.1070   71.0880  217.7890 C   0  0  0  0  0  0  0  0  0  0  0  0
  145.3080   71.7410  218.3700 C   0  0  2  0  0  0  0  0  0  0  0  0
  146.1030   70.8670  219.1610 O   0  0  0  0  0  0  0  0  0  0  0  0
  146.1120   69.5150  218.7770 C   0  0  0  0  0  0  0  0  0  0  0  0
  146.3120   69.2240  217.4760 N   0  0  0  0  0  0  0  0  0  0  0  0
  146.3200   67.9140  217.1090 C   0  0  0  0  0  0  0  0  0  0  0  0
  146.1240   66.9390  218.0790 C   0  0  0  0  0  0  0  0  0  0  0  0
  145.9200   67.2740  219.4170 C   0  0  0  0  0  0  0  0  0  0  0  0
  145.9220   68.5820  219.7180 N   0  0  0  0  0  0  0  0  0  0  0  0
  144.8860   72.9640  219.1460 C   0  0  0  0  0  0  0  0  0  0  0  0
  143.9910   72.4820  220.2680 C   0  0  0  0  0  0  0  0  0  0  0  0
  140.1250   71.2740  224.2850 C   0  0  0  0  0  0  0  0  0  0  0  0
  140.9240   71.9030  225.2190 C   0  0  0  0  0  0  0  0  0  0  0  0
  141.2100   71.3490  226.4540 C   0  0  0  0  0  0  0  0  0  0  0  0
  140.6550   70.1060  226.7290 C   0  0  0  0  0  0  0  0  0  0  0  0
  140.9460   69.5550  227.9680 C   0  0  0  0  0  0  0  0  0  0  0  0
  140.3970   68.3070  228.2630 C   0  0  0  0  0  0  0  0  0  0  0  0
  140.6540   67.7340  229.4560 F   0  0  0  0  0  0  0  0  0  0  0  0
  139.5940   67.6750  227.3200 C   0  0  0  0  0  0  0  0  0  0  0  0
  139.3300   68.2630  226.0950 C   0  0  0  0  0  0  0  0  0  0  0  0
  139.8600   69.4810  225.7960 C   0  0  0  0  0  0  0  0  0  0  0  0
  139.6060   70.0700  224.5910 N   0  0  0  0  0  0  0  0  0  0  0  0
  137.7700   72.2380  223.3660 H   0  0  0  0  0  0  0  0  0  0  0  0
  139.0174   72.5565  220.6642 H   0  0  0  0  0  0  0  0  0  0  0  0
  137.3325   73.0007  221.1238 H   0  0  0  0  0  0  0  0  0  0  0  0
  140.7764   76.0987  222.4841 H   0  0  0  0  0  0  0  0  0  0  0  0
  141.7799   74.7150  222.0589 H   0  0  0  0  0  0  0  0  0  0  0  0
  141.9925   77.3847  220.9898 H   0  0  0  0  0  0  0  0  0  0  0  0
  142.8526   75.9890  220.3606 H   0  0  0  0  0  0  0  0  0  0  0  0
  140.0964   77.1047  219.5015 H   0  0  0  0  0  0  0  0  0  0  0  0
  141.3615   76.6274  218.4332 H   0  0  0  0  0  0  0  0  0  0  0  0
  139.5762   74.6057  218.8309 H   0  0  0  0  0  0  0  0  0  0  0  0
  140.8180   72.4790  220.5910 H   0  0  0  0  0  0  0  0  0  0  0  0
  142.5609   70.9459  220.2916 H   0  0  0  0  0  0  0  0  0  0  0  0
  142.5641   72.5316  217.7183 H   0  0  0  0  0  0  0  0  0  0  0  0
  142.0529   70.8010  218.0585 H   0  0  0  0  0  0  0  0  0  0  0  0
  144.1488   71.2195  216.6977 H   0  0  0  0  0  0  0  0  0  0  0  0
  144.1524   70.0406  218.1221 H   0  0  0  0  0  0  0  0  0  0  0  0
  145.9583   72.0404  217.5348 H   0  0  0  0  0  0  0  0  0  0  0  0
  146.4796   67.6306  216.0582 H   0  0  0  0  0  0  0  0  0  0  0  0
  146.1299   65.8791  217.7849 H   0  0  0  0  0  0  0  0  0  0  0  0
  145.7651   66.5045  220.1876 H   0  0  0  0  0  0  0  0  0  0  0  0
  144.3347   73.6558  218.4923 H   0  0  0  0  0  0  0  0  0  0  0  0
  145.7602   73.5020  219.5414 H   0  0  0  0  0  0  0  0  0  0  0  0
  143.7455   73.3333  220.9200 H   0  0  0  0  0  0  0  0  0  0  0  0
  144.5287   71.7023  220.8273 H   0  0  0  0  0  0  0  0  0  0  0  0
  141.3511   72.8858  224.9707 H   0  0  0  0  0  0  0  0  0  0  0  0
  141.8475   71.8689  227.1843 H   0  0  0  0  0  0  0  0  0  0  0  0
  141.5857   70.0823  228.6910 H   0  0  0  0  0  0  0  0  0  0  0  0
  139.1610   66.6907  227.5515 H   0  0  0  0  0  0  0  0  0  0  0  0
  138.6920   67.7462  225.3630 H   0  0  0  0  0  0  0  0  0  0  0  0
  1  2  2  0
  2  3  1  0
  3  4  1  0
  4  5  1  0
  5  6  2  0
  5  7  1  0
  7  8  1  0
  8  9  1  0
  9 10  1  0
 10 11  1  0
 11 12  1  0
 12 13  2  0
 12 14  1  0
 14 15  1  0
 15 16  1  0
 16 17  1  0
 17 18  1  0
 18 19  1  0
 19 20  1  0
 20 21  2  0
 21 22  1  0
 22 23  2  0
 23 24  1  0
 24 25  2  0
 18 26  1  0
 26 27  1  0
  2 28  1  0
 28 29  2  0
 29 30  1  0
 30 31  2  0
 31 32  1  0
 32 33  2  0
 33 34  1  0
 33 35  1  0
 35 36  2  0
 36 37  1  0
 37 38  2  0
 11  7  1  0
 27 15  1  0
 38 28  1  0
 25 20  1  0
 37 31  1  0
  3 39  1  0
  4 40  1  0
  4 41  1  0
  8 42  1  0
  8 43  1  0
  9 44  1  0
  9 45  1  0
 10 46  1  0
 10 47  1  0
 11 48  1  6
 14 49  1  0
 15 50  1  1
 16 51  1  0
 16 52  1  0
 17 53  1  0
 17 54  1  0
 18 55  1  6
 22 56  1  0
 23 57  1  0
 24 58  1  0
 26 59  1  0
 26 60  1  0
 27 61  1  0
 27 62  1  0
 29 63  1  0
 30 64  1  0
 32 65  1  0
 35 66  1  0
 36 67  1  0
M  END
>  <smiles>  (37) 
O=C(NCC(=O)N1CCC[C@H]1C(=O)N[C@H]1CC[C@H](Oc2ncccn2)CC1)c1ccc2cc(F)ccc2n1

>  <score_type>  (37) 
oracle

>  <origin>  (37) 
autodockgpu

>  <m_score__min__energy>  (37) 
-9.4299999999999997

>  <m_primary>  (37) 
energy

>  <rmsd>  (37) 
5.542531943887395

>  <m_score__min__rmsd>  (37) 
5.542531943887395

>  <meeko>  (37) 
{"free_energy": -8.28, "intermolecular_energy": -10.67, "internal_energy": -2.85, "cluster_size": 15, "cluster_id": 1, "rank_in_cluster": 10}

>  <energy>  (37) 
-7.44

>  <cluster_rmsd>  (37) 
1.93

>  <cluster>  (37) 
4

$$$$

     RDKit          3D

 67 71  0  0  0  0  0  0  0  0999 V2000
  139.7620   71.3620  220.8990 O   0  0  0  0  0  0  0  0  0  0  0  0
  139.3170   71.8380  221.9980 C   0  0  0  0  0  0  0  0  0  0  0  0
  138.5310   73.0440  221.9720 N   0  0  0  0  0  0  0  0  0  0  0  0
  138.2960   73.6390  220.6830 C   0  0  0  0  0  0  0  0  0  0  0  0
  138.7680   75.0510  220.6740 C   0  0  0  0  0  0  0  0  0  0  0  0
  138.0280   76.0270  220.9650 O   0  0  0  0  0  0  0  0  0  0  0  0
  140.1160   75.3450  220.3240 N   0  0  0  0  0  0  0  0  0  0  0  0
  141.1560   75.6800  221.2800 C   0  0  0  0  0  0  0  0  0  0  0  0
  142.1680   76.5010  220.4760 C   0  0  0  0  0  0  0  0  0  0  0  0
  141.4690   76.7250  219.1270 C   0  0  0  0  0  0  0  0  0  0  0  0
  140.7420   75.3780  219.0150 C   0  0  1  0  0  0  0  0  0  0  0  0
  141.7980   74.3400  218.8990 C   0  0  0  0  0  0  0  0  0  0  0  0
  142.7470   74.4090  218.0880 O   0  0  0  0  0  0  0  0  0  0  0  0
  141.7290   73.2140  219.7470 N   0  0  0  0  0  0  0  0  0  0  0  0
  142.7400   72.1700  219.6710 C   0  0  1  0  0  0  0  0  0  0  0  0
  142.7540   71.6730  218.2490 C   0  0  0  0  0  0  0  0  0  0  0  0
  144.0030   70.9580  217.8490 C   0  0  0  0  0  0  0  0  0  0  0  0
  145.2800   71.5500  218.3250 C   0  0  2  0  0  0  0  0  0  0  0  0
  145.9920   70.7130  219.2280 O   0  0  0  0  0  0  0  0  0  0  0  0
  145.9680   69.3350  218.9500 C   0  0  0  0  0  0  0  0  0  0  0  0
  146.3010   68.9290  217.7090 N   0  0  0  0  0  0  0  0  0  0  0  0
  146.2760   67.5960  217.4450 C   0  0  0  0  0  0  0  0  0  0  0  0
  145.9130   66.7130  218.4550 C   0  0  0  0  0  0  0  0  0  0  0  0
  145.5740   67.1660  219.7290 C   0  0  0  0  0  0  0  0  0  0  0  0
  145.6170   68.4920  219.9290 N   0  0  0  0  0  0  0  0  0  0  0  0
  145.0100   72.9080  218.9220 C   0  0  0  0  0  0  0  0  0  0  0  0
  144.0920   72.6920  220.1060 C   0  0  0  0  0  0  0  0  0  0  0  0
  139.5910   71.1860  223.2730 C   0  0  0  0  0  0  0  0  0  0  0  0
  139.3030   69.8410  223.3950 C   0  0  0  0  0  0  0  0  0  0  0  0
  139.5260   69.1310  224.5610 C   0  0  0  0  0  0  0  0  0  0  0  0
  140.0610   69.8330  225.6330 C   0  0  0  0  0  0  0  0  0  0  0  0
  140.2820   69.1160  226.7980 C   0  0  0  0  0  0  0  0  0  0  0  0
  140.8200   69.8040  227.8860 C   0  0  0  0  0  0  0  0  0  0  0  0
  141.0510   69.1460  229.0400 F   0  0  0  0  0  0  0  0  0  0  0  0
  141.1080   71.1590  227.7610 C   0  0  0  0  0  0  0  0  0  0  0  0
  140.8720   71.8350  226.5770 C   0  0  0  0  0  0  0  0  0  0  0  0
  140.3470   71.1730  225.5090 C   0  0  0  0  0  0  0  0  0  0  0  0
  140.1090   71.8300  224.3350 N   0  0  0  0  0  0  0  0  0  0  0  0
  138.1590   73.4460  222.8720 H   0  0  0  0  0  0  0  0  0  0  0  0
  138.8401   73.0692  219.9153 H   0  0  0  0  0  0  0  0  0  0  0  0
  137.2168   73.6202  220.4707 H   0  0  0  0  0  0  0  0  0  0  0  0
  140.7447   76.2744  222.1092 H   0  0  0  0  0  0  0  0  0  0  0  0
  141.6095   74.7866  221.7340 H   0  0  0  0  0  0  0  0  0  0  0  0
  142.3776   77.4598  220.9727 H   0  0  0  0  0  0  0  0  0  0  0  0
  143.1396   75.9957  220.3729 H   0  0  0  0  0  0  0  0  0  0  0  0
  140.7678   77.5719  219.1601 H   0  0  0  0  0  0  0  0  0  0  0  0
  142.1297   76.9804  218.2854 H   0  0  0  0  0  0  0  0  0  0  0  0
  140.0407   75.2327  218.1801 H   0  0  0  0  0  0  0  0  0  0  0  0
  140.9540   73.0930  220.4540 H   0  0  0  0  0  0  0  0  0  0  0  0
  142.5045   71.3412  220.3548 H   0  0  0  0  0  0  0  0  0  0  0  0
  142.6265   72.5387  217.5824 H   0  0  0  0  0  0  0  0  0  0  0  0
  141.9376   70.9402  218.1684 H   0  0  0  0  0  0  0  0  0  0  0  0
  144.0357   70.9293  216.7499 H   0  0  0  0  0  0  0  0  0  0  0  0
  143.9414   69.9691  218.3267 H   0  0  0  0  0  0  0  0  0  0  0  0
  145.9409   71.6560  217.4521 H   0  0  0  0  0  0  0  0  0  0  0  0
  146.5396   67.2209  216.4451 H   0  0  0  0  0  0  0  0  0  0  0  0
  145.8927   65.6335  218.2446 H   0  0  0  0  0  0  0  0  0  0  0  0
  145.2854   66.4705  220.5309 H   0  0  0  0  0  0  0  0  0  0  0  0
  144.5236   73.5579  218.1796 H   0  0  0  0  0  0  0  0  0  0  0  0
  145.9460   73.3952  219.2327 H   0  0  0  0  0  0  0  0  0  0  0  0
  143.9539   73.6490  220.6305 H   0  0  0  0  0  0  0  0  0  0  0  0
  144.5534   71.9453  220.7690 H   0  0  0  0  0  0  0  0  0  0  0  0
  138.8785   69.3122  222.5289 H   0  0  0  0  0  0  0  0  0  0  0  0
  139.2903   68.0591  224.6356 H   0  0  0  0  0  0  0  0  0  0  0  0
  140.0422   68.0444  226.8626 H   0  0  0  0  0  0  0  0  0  0  0  0
  141.5309   71.7028  228.6186 H   0  0  0  0  0  0  0  0  0  0  0  0
  141.1083   72.9064  226.4985 H   0  0  0  0  0  0  0  0  0  0  0  0
  1  2  2  0
  2  3  1  0
  3  4  1  0
  4  5  1  0
  5  6  2  0
  5  7  1  0
  7  8  1  0
  8  9  1  0
  9 10  1  0
 10 11  1  0
 11 12  1  0
 12 13  2  0
 12 14  1  0
 14 15  1  0
 15 16  1  0
 16 17  1  0
 17 18  1  0
 18 19  1  0
 19 20  1  0
 20 21  2  0
 21 22  1  0
 22 23  2  0
 23 24  1  0
 24 25  2  0
 18 26  1  0
 26 27  1  0
  2 28  1  0
 28 29  2  0
 29 30  1  0
 30 31  2  0
 31 32  1  0
 32 33  2  0
 33 34  1  0
 33 35  1  0
 35 36  2  0
 36 37  1  0
 37 38  2  0
 11  7  1  0
 27 15  1  0
 38 28  1  0
 25 20  1  0
 37 31  1  0
  3 39  1  0
  4 40  1  0
  4 41  1  0
  8 42  1  0
  8 43  1  0
  9 44  1  0
  9 45  1  0
 10 46  1  0
 10 47  1  0
 11 48  1  6
 14 49  1  0
 15 50  1  1
 16 51  1  0
 16 52  1  0
 17 53  1  0
 17 54  1  0
 18 55  1  6
 22 56  1  0
 23 57  1  0
 24 58  1  0
 26 59  1  0
 26 60  1  0
 27 61  1  0
 27 62  1  0
 29 63  1  0
 30 64  1  0
 32 65  1  0
 35 66  1  0
 36 67  1  0
M  END
>  <smiles>  (38) 
O=C(NCC(=O)N1CCC[C@H]1C(=O)N[C@H]1CC[C@H](Oc2ncccn2)CC1)c1ccc2cc(F)ccc2n1

>  <score_type>  (38) 
oracle

>  <origin>  (38) 
autodockgpu

>  <m_score__min__energy>  (38) 
-9.4299999999999997

>  <m_primary>  (38) 
energy

>  <rmsd>  (38) 
5.159151232673192

>  <m_score__min__rmsd>  (38) 
5.159151232673192

>  <meeko>  (38) 
{"free_energy": -7.95, "intermolecular_energy": -10.33, "internal_energy": -3.05, "cluster_size": 15, "cluster_id": 1, "rank_in_cluster": 12}

>  <energy>  (38) 
-7.3

>  <cluster_rmsd>  (38) 
1.88

>  <cluster>  (38) 
4

$$$$

     RDKit          3D

 67 71  0  0  0  0  0  0  0  0999 V2000
  139.1560   78.1840  221.7220 O   0  0  0  0  0  0  0  0  0  0  0  0
  140.0350   77.2660  221.8470 C   0  0  0  0  0  0  0  0  0  0  0  0
  141.4240   77.6330  221.9380 N   0  0  0  0  0  0  0  0  0  0  0  0
  141.7300   79.0380  221.8820 C   0  0  0  0  0  0  0  0  0  0  0  0
  141.7390   79.5080  220.4700 C   0  0  0  0  0  0  0  0  0  0  0  0
  141.4570   80.6880  220.1350 O   0  0  0  0  0  0  0  0  0  0  0  0
  142.0790   78.6040  219.4250 N   0  0  0  0  0  0  0  0  0  0  0  0
  142.8780   78.9550  218.2650 C   0  0  0  0  0  0  0  0  0  0  0  0
  142.4520   77.9550  217.1870 C   0  0  0  0  0  0  0  0  0  0  0  0
  141.2540   77.2290  217.8140 C   0  0  0  0  0  0  0  0  0  0  0  0
  141.7340   77.2020  219.2720 C   0  0  1  0  0  0  0  0  0  0  0  0
  142.9470   76.3460  219.2980 C   0  0  0  0  0  0  0  0  0  0  0  0
  144.0580   76.7340  219.7200 O   0  0  0  0  0  0  0  0  0  0  0  0
  142.8430   75.0210  218.8210 N   0  0  0  0  0  0  0  0  0  0  0  0
  144.0030   74.1420  218.8260 C   0  0  1  0  0  0  0  0  0  0  0  0
  144.3850   73.9250  220.2660 C   0  0  0  0  0  0  0  0  0  0  0  0
  145.2270   72.7150  220.5140 C   0  0  0  0  0  0  0  0  0  0  0  0
  144.8490   71.4880  219.7670 C   0  0  2  0  0  0  0  0  0  0  0  0
  145.8410   71.0570  218.8430 O   0  0  0  0  0  0  0  0  0  0  0  0
  145.9620   69.6680  218.6620 C   0  0  0  0  0  0  0  0  0  0  0  0
  146.1950   69.2070  217.4170 N   0  0  0  0  0  0  0  0  0  0  0  0
  146.3110   67.8620  217.2460 C   0  0  0  0  0  0  0  0  0  0  0  0
  146.1880   67.0270  218.3490 C   0  0  0  0  0  0  0  0  0  0  0  0
  145.9470   67.5380  219.6240 C   0  0  0  0  0  0  0  0  0  0  0  0
  145.8420   68.8710  219.7300 N   0  0  0  0  0  0  0  0  0  0  0  0
  143.5170   71.7030  219.0930 C   0  0  0  0  0  0  0  0  0  0  0  0
  143.7010   72.8420  218.1130 C   0  0  0  0  0  0  0  0  0  0  0  0
  139.6580   75.8580  221.8960 C   0  0  0  0  0  0  0  0  0  0  0  0
  138.3150   75.5410  221.9260 C   0  0  0  0  0  0  0  0  0  0  0  0
  137.8550   74.2370  221.9730 C   0  0  0  0  0  0  0  0  0  0  0  0
  138.8130   73.2320  221.9930 C   0  0  0  0  0  0  0  0  0  0  0  0
  138.3460   71.9280  222.0400 C   0  0  0  0  0  0  0  0  0  0  0  0
  139.2930   70.9040  222.0600 C   0  0  0  0  0  0  0  0  0  0  0  0
  138.8840   69.6200  222.1070 F   0  0  0  0  0  0  0  0  0  0  0  0
  140.6460   71.2260  222.0320 C   0  0  0  0  0  0  0  0  0  0  0  0
  141.0670   72.5430  221.9830 C   0  0  0  0  0  0  0  0  0  0  0  0
  140.1510   73.5510  221.9640 C   0  0  0  0  0  0  0  0  0  0  0  0
  140.5550   74.8540  221.9160 N   0  0  0  0  0  0  0  0  0  0  0  0
  142.1580   76.8840  222.0410 H   0  0  0  0  0  0  0  0  0  0  0  0
  140.9696   79.5979  222.4461 H   0  0  0  0  0  0  0  0  0  0  0  0
  142.7243   79.2058  222.3217 H   0  0  0  0  0  0  0  0  0  0  0  0
  142.6658   79.9857  217.9445 H   0  0  0  0  0  0  0  0  0  0  0  0
  143.9573   78.9107  218.4725 H   0  0  0  0  0  0  0  0  0  0  0  0
  142.1556   78.4758  216.2645 H   0  0  0  0  0  0  0  0  0  0  0  0
  143.2622   77.2688  216.8992 H   0  0  0  0  0  0  0  0  0  0  0  0
  140.3191   77.7966  217.6969 H   0  0  0  0  0  0  0  0  0  0  0  0
  141.0089   76.2502  217.3760 H   0  0  0  0  0  0  0  0  0  0  0  0
  141.0441   76.8238  220.0408 H   0  0  0  0  0  0  0  0  0  0  0  0
  141.9350   74.6290  218.4500 H   0  0  0  0  0  0  0  0  0  0  0  0
  144.8443   74.5942  218.2803 H   0  0  0  0  0  0  0  0  0  0  0  0
  143.4608   73.8256  220.8543 H   0  0  0  0  0  0  0  0  0  0  0  0
  144.9942   74.7926  220.5597 H   0  0  0  0  0  0  0  0  0  0  0  0
  145.1738   72.4836  221.5881 H   0  0  0  0  0  0  0  0  0  0  0  0
  146.2333   72.9787  220.1566 H   0  0  0  0  0  0  0  0  0  0  0  0
  144.7645   70.6694  220.4969 H   0  0  0  0  0  0  0  0  0  0  0  0
  146.4997   67.4416  216.2472 H   0  0  0  0  0  0  0  0  0  0  0  0
  146.2827   65.9394  218.2140 H   0  0  0  0  0  0  0  0  0  0  0  0
  145.8479   66.8801  220.4999 H   0  0  0  0  0  0  0  0  0  0  0  0
  142.7529   71.9656  219.8395 H   0  0  0  0  0  0  0  0  0  0  0  0
  143.1833   70.7899  218.5784 H   0  0  0  0  0  0  0  0  0  0  0  0
  142.7782   72.9618  217.5264 H   0  0  0  0  0  0  0  0  0  0  0  0
  144.5517   72.6009  217.4586 H   0  0  0  0  0  0  0  0  0  0  0  0
  137.5798   76.3591  221.9119 H   0  0  0  0  0  0  0  0  0  0  0  0
  136.7795   74.0069  221.9936 H   0  0  0  0  0  0  0  0  0  0  0  0
  137.2683   71.7086  222.0608 H   0  0  0  0  0  0  0  0  0  0  0  0
  141.3940   70.4197  222.0491 H   0  0  0  0  0  0  0  0  0  0  0  0
  142.1417   72.7762  221.9594 H   0  0  0  0  0  0  0  0  0  0  0  0
  1  2  2  0
  2  3  1  0
  3  4  1  0
  4  5  1  0
  5  6  2  0
  5  7  1  0
  7  8  1  0
  8  9  1  0
  9 10  1  0
 10 11  1  0
 11 12  1  0
 12 13  2  0
 12 14  1  0
 14 15  1  0
 15 16  1  0
 16 17  1  0
 17 18  1  0
 18 19  1  0
 19 20  1  0
 20 21  2  0
 21 22  1  0
 22 23  2  0
 23 24  1  0
 24 25  2  0
 18 26  1  0
 26 27  1  0
  2 28  1  0
 28 29  2  0
 29 30  1  0
 30 31  2  0
 31 32  1  0
 32 33  2  0
 33 34  1  0
 33 35  1  0
 35 36  2  0
 36 37  1  0
 37 38  2  0
 11  7  1  0
 27 15  1  0
 38 28  1  0
 25 20  1  0
 37 31  1  0
  3 39  1  0
  4 40  1  0
  4 41  1  0
  8 42  1  0
  8 43  1  0
  9 44  1  0
  9 45  1  0
 10 46  1  0
 10 47  1  0
 11 48  1  1
 14 49  1  0
 15 50  1  6
 16 51  1  0
 16 52  1  0
 17 53  1  0
 17 54  1  0
 18 55  1  1
 22 56  1  0
 23 57  1  0
 24 58  1  0
 26 59  1  0
 26 60  1  0
 27 61  1  0
 27 62  1  0
 29 63  1  0
 30 64  1  0
 32 65  1  0
 35 66  1  0
 36 67  1  0
M  END
>  <smiles>  (39) 
O=C(NCC(=O)N1CCC[C@H]1C(=O)N[C@H]1CC[C@H](Oc2ncccn2)CC1)c1ccc2cc(F)ccc2n1

>  <score_type>  (39) 
oracle

>  <origin>  (39) 
autodockgpu

>  <m_score__min__energy>  (39) 
-9.4299999999999997

>  <m_primary>  (39) 
energy

>  <rmsd>  (39) 
6.481038648518659

>  <m_score__min__rmsd>  (39) 
6.481038648518659

>  <meeko>  (39) 
{"free_energy": -7.67, "intermolecular_energy": -10.06, "internal_energy": -2.89, "cluster_size": 1, "cluster_id": 6, "rank_in_cluster": 1}

>  <energy>  (39) 
-7.82

>  <cluster_rmsd>  (39) 
0.0

>  <cluster>  (39) 
5

$$$$

     RDKit          3D

 67 71  0  0  0  0  0  0  0  0999 V2000
  140.0530   72.9890  222.7990 O   0  0  0  0  0  0  0  0  0  0  0  0
  140.1240   71.7200  222.9240 C   0  0  0  0  0  0  0  0  0  0  0  0
  139.9670   70.8910  221.7570 N   0  0  0  0  0  0  0  0  0  0  0  0
  139.7400   71.5650  220.5060 C   0  0  0  0  0  0  0  0  0  0  0  0
  138.3070   71.4610  220.1180 C   0  0  0  0  0  0  0  0  0  0  0  0
  137.8020   70.4230  219.6170 O   0  0  0  0  0  0  0  0  0  0  0  0
  137.4390   72.5730  220.3110 N   0  0  0  0  0  0  0  0  0  0  0  0
  136.5690   72.7430  221.4610 C   0  0  0  0  0  0  0  0  0  0  0  0
  135.4380   73.6450  220.9580 C   0  0  0  0  0  0  0  0  0  0  0  0
  135.6890   73.7380  219.4460 C   0  0  0  0  0  0  0  0  0  0  0  0
  137.2240   73.7310  219.4640 C   0  0  1  0  0  0  0  0  0  0  0  0
  137.6400   74.9820  220.1480 C   0  0  0  0  0  0  0  0  0  0  0  0
  137.0430   76.0720  220.0180 O   0  0  0  0  0  0  0  0  0  0  0  0
  138.7710   74.9400  220.9920 N   0  0  0  0  0  0  0  0  0  0  0  0
  139.2200   76.1390  221.6850 C   0  0  1  0  0  0  0  0  0  0  0  0
  139.3770   77.2160  220.6440 C   0  0  0  0  0  0  0  0  0  0  0  0
  139.3700   78.6110  221.1810 C   0  0  0  0  0  0  0  0  0  0  0  0
  138.3730   78.8990  222.2450 C   0  0  2  0  0  0  0  0  0  0  0  0
  138.9600   79.2270  223.4980 O   0  0  0  0  0  0  0  0  0  0  0  0
  140.3120   79.6130  223.4710 C   0  0  0  0  0  0  0  0  0  0  0  0
  141.2500   78.6450  223.4630 N   0  0  0  0  0  0  0  0  0  0  0  0
  142.5570   79.0230  223.4380 C   0  0  0  0  0  0  0  0  0  0  0  0
  142.8690   80.3760  223.4200 C   0  0  0  0  0  0  0  0  0  0  0  0
  141.8730   81.3520  223.4280 C   0  0  0  0  0  0  0  0  0  0  0  0
  140.6040   80.9190  223.4550 N   0  0  0  0  0  0  0  0  0  0  0  0
  137.4190   77.7370  222.3660 C   0  0  0  0  0  0  0  0  0  0  0  0
  138.2440   76.5340  222.7720 C   0  0  0  0  0  0  0  0  0  0  0  0
  140.3560   71.0980  224.2220 C   0  0  0  0  0  0  0  0  0  0  0  0
  140.7990   71.8950  225.2590 C   0  0  0  0  0  0  0  0  0  0  0  0
  141.0480   71.4020  226.5270 C   0  0  0  0  0  0  0  0  0  0  0  0
  140.8360   70.0440  226.7280 C   0  0  0  0  0  0  0  0  0  0  0  0
  141.0890   69.5560  228.0000 C   0  0  0  0  0  0  0  0  0  0  0  0
  140.8810   68.1950  228.2210 C   0  0  0  0  0  0  0  0  0  0  0  0
  141.1140   67.6760  229.4440 F   0  0  0  0  0  0  0  0  0  0  0  0
  140.4360   67.3930  227.1750 C   0  0  0  0  0  0  0  0  0  0  0  0
  140.1970   67.9250  225.9190 C   0  0  0  0  0  0  0  0  0  0  0  0
  140.3960   69.2520  225.6920 C   0  0  0  0  0  0  0  0  0  0  0  0
  140.1630   69.7870  224.4570 N   0  0  0  0  0  0  0  0  0  0  0  0
  140.0230   69.8430  221.8480 H   0  0  0  0  0  0  0  0  0  0  0  0
  140.0120   72.6257  220.6103 H   0  0  0  0  0  0  0  0  0  0  0  0
  140.3575   71.0934  219.7273 H   0  0  0  0  0  0  0  0  0  0  0  0
  136.1728   71.7728  221.7953 H   0  0  0  0  0  0  0  0  0  0  0  0
  137.0966   73.1762  222.3235 H   0  0  0  0  0  0  0  0  0  0  0  0
  134.4560   73.1948  221.1653 H   0  0  0  0  0  0  0  0  0  0  0  0
  135.4284   74.6293  221.4491 H   0  0  0  0  0  0  0  0  0  0  0  0
  135.2777   72.8733  218.9045 H   0  0  0  0  0  0  0  0  0  0  0  0
  135.2230   74.5953  218.9382 H   0  0  0  0  0  0  0  0  0  0  0  0
  137.7563   73.6857  218.5024 H   0  0  0  0  0  0  0  0  0  0  0  0
  139.3220   74.0520  221.1460 H   0  0  0  0  0  0  0  0  0  0  0  0
  140.1804   75.9665  222.1928 H   0  0  0  0  0  0  0  0  0  0  0  0
  138.5492   77.1214  219.9258 H   0  0  0  0  0  0  0  0  0  0  0  0
  140.3662   77.0643  220.1875 H   0  0  0  0  0  0  0  0  0  0  0  0
  139.1712   79.2930  220.3412 H   0  0  0  0  0  0  0  0  0  0  0  0
  140.3536   78.7497  221.6536 H   0  0  0  0  0  0  0  0  0  0  0  0
  137.8188   79.8001  221.9434 H   0  0  0  0  0  0  0  0  0  0  0  0
  143.3558   78.2668  223.4321 H   0  0  0  0  0  0  0  0  0  0  0  0
  143.9246   80.6846  223.3990 H   0  0  0  0  0  0  0  0  0  0  0  0
  142.1163   82.4246  223.4129 H   0  0  0  0  0  0  0  0  0  0  0  0
  136.9260   77.5497  221.4007 H   0  0  0  0  0  0  0  0  0  0  0  0
  136.6344   77.9461  223.1081 H   0  0  0  0  0  0  0  0  0  0  0  0
  137.5692   75.6884  222.9711 H   0  0  0  0  0  0  0  0  0  0  0  0
  138.8181   76.7970  223.6727 H   0  0  0  0  0  0  0  0  0  0  0  0
  140.9605   72.9663  225.0687 H   0  0  0  0  0  0  0  0  0  0  0  0
  141.3981   72.0557  227.3395 H   0  0  0  0  0  0  0  0  0  0  0  0
  141.4408   70.2175  228.8054 H   0  0  0  0  0  0  0  0  0  0  0  0
  140.2714   66.3193  227.3484 H   0  0  0  0  0  0  0  0  0  0  0  0
  139.8461   67.2746  225.1043 H   0  0  0  0  0  0  0  0  0  0  0  0
  1  2  2  0
  2  3  1  0
  3  4  1  0
  4  5  1  0
  5  6  2  0
  5  7  1  0
  7  8  1  0
  8  9  1  0
  9 10  1  0
 10 11  1  0
 11 12  1  0
 12 13  2  0
 12 14  1  0
 14 15  1  0
 15 16  1  0
 16 17  1  0
 17 18  1  0
 18 19  1  0
 19 20  1  0
 20 21  2  0
 21 22  1  0
 22 23  2  0
 23 24  1  0
 24 25  2  0
 18 26  1  0
 26 27  1  0
  2 28  1  0
 28 29  2  0
 29 30  1  0
 30 31  2  0
 31 32  1  0
 32 33  2  0
 33 34  1  0
 33 35  1  0
 35 36  2  0
 36 37  1  0
 37 38  2  0
 11  7  1  0
 27 15  1  0
 38 28  1  0
 25 20  1  0
 37 31  1  0
  3 39  1  0
  4 40  1  0
  4 41  1  0
  8 42  1  0
  8 43  1  0
  9 44  1  0
  9 45  1  0
 10 46  1  0
 10 47  1  0
 11 48  1  6
 14 49  1  0
 15 50  1  1
 16 51  1  0
 16 52  1  0
 17 53  1  0
 17 54  1  0
 18 55  1  6
 22 56  1  0
 23 57  1  0
 24 58  1  0
 26 59  1  0
 26 60  1  0
 27 61  1  0
 27 62  1  0
 29 63  1  0
 30 64  1  0
 32 65  1  0
 35 66  1  0
 36 67  1  0
M  END
>  <smiles>  (40) 
O=C(NCC(=O)N1CCC[C@H]1C(=O)N[C@H]1CC[C@H](Oc2ncccn2)CC1)c1ccc2cc(F)ccc2n1

>  <score_type>  (40) 
oracle

>  <origin>  (40) 
autodockgpu

>  <m_score__min__energy>  (40) 
-9.4299999999999997

>  <m_primary>  (40) 
energy

>  <rmsd>  (40) 
4.418628160946679

>  <m_score__min__rmsd>  (40) 
4.418628160946679

>  <meeko>  (40) 
{"free_energy": -7.3, "intermolecular_energy": -9.68, "internal_energy": -3.18, "cluster_size": 4, "cluster_id": 4, "rank_in_cluster": 4}

>  <energy>  (40) 
-7.67

>  <cluster_rmsd>  (40) 
0.0

>  <cluster>  (40) 
6

$$$$

     RDKit          3D

 67 71  0  0  0  0  0  0  0  0999 V2000
  139.7570   71.3720  220.9450 O   0  0  0  0  0  0  0  0  0  0  0  0
  139.5130   71.9390  222.0630 C   0  0  0  0  0  0  0  0  0  0  0  0
  139.0190   73.2920  222.0690 N   0  0  0  0  0  0  0  0  0  0  0  0
  138.8300   73.9210  220.7880 C   0  0  0  0  0  0  0  0  0  0  0  0
  138.7360   75.3980  220.9490 C   0  0  0  0  0  0  0  0  0  0  0  0
  137.6420   76.0110  221.0550 O   0  0  0  0  0  0  0  0  0  0  0  0
  139.9220   76.1820  220.9900 N   0  0  0  0  0  0  0  0  0  0  0  0
  140.7360   76.3770  222.1760 C   0  0  0  0  0  0  0  0  0  0  0  0
  141.4530   77.7090  221.9370 C   0  0  0  0  0  0  0  0  0  0  0  0
  140.7910   78.2580  220.6650 C   0  0  0  0  0  0  0  0  0  0  0  0
  140.5680   76.9300  219.9270 C   0  0  1  0  0  0  0  0  0  0  0  0
  141.9170   76.3850  219.6290 C   0  0  0  0  0  0  0  0  0  0  0  0
  142.9250   77.1000  219.4430 O   0  0  0  0  0  0  0  0  0  0  0  0
  142.0720   74.9840  219.5520 N   0  0  0  0  0  0  0  0  0  0  0  0
  143.3740   74.4010  219.2630 C   0  0  1  0  0  0  0  0  0  0  0  0
  144.2530   74.6730  220.4550 C   0  0  0  0  0  0  0  0  0  0  0  0
  145.4460   73.7800  220.5690 C   0  0  0  0  0  0  0  0  0  0  0  0
  145.2240   72.3440  220.2610 C   0  0  2  0  0  0  0  0  0  0  0  0
  145.9380   71.8910  219.1180 O   0  0  0  0  0  0  0  0  0  0  0  0
  145.7190   70.5550  218.7350 C   0  0  0  0  0  0  0  0  0  0  0  0
  146.1970   69.5790  219.5320 N   0  0  0  0  0  0  0  0  0  0  0  0
  145.9840   68.2890  219.1580 C   0  0  0  0  0  0  0  0  0  0  0  0
  145.2890   68.0310  217.9830 C   0  0  0  0  0  0  0  0  0  0  0  0
  144.8070   69.0650  217.1820 C   0  0  0  0  0  0  0  0  0  0  0  0
  145.0490   70.3160  217.6020 N   0  0  0  0  0  0  0  0  0  0  0  0
  143.7440   72.0840  220.1310 C   0  0  0  0  0  0  0  0  0  0  0  0
  143.2530   72.9210  218.9690 C   0  0  0  0  0  0  0  0  0  0  0  0
  139.7260   71.2460  223.3280 C   0  0  0  0  0  0  0  0  0  0  0  0
  139.3980   69.9070  223.4030 C   0  0  0  0  0  0  0  0  0  0  0  0
  139.5620   69.1600  224.5560 C   0  0  0  0  0  0  0  0  0  0  0  0
  140.0800   69.8180  225.6640 C   0  0  0  0  0  0  0  0  0  0  0  0
  140.2420   69.0640  226.8160 C   0  0  0  0  0  0  0  0  0  0  0  0
  140.7600   69.7080  227.9390 C   0  0  0  0  0  0  0  0  0  0  0  0
  140.9350   69.0130  229.0820 F   0  0  0  0  0  0  0  0  0  0  0  0
  141.0900   71.0570  227.8610 C   0  0  0  0  0  0  0  0  0  0  0  0
  140.9110   71.7710  226.6890 C   0  0  0  0  0  0  0  0  0  0  0  0
  140.4050   71.1530  225.5860 C   0  0  0  0  0  0  0  0  0  0  0  0
  140.2250   71.8470  224.4240 N   0  0  0  0  0  0  0  0  0  0  0  0
  138.8140   73.7700  222.9850 H   0  0  0  0  0  0  0  0  0  0  0  0
  139.6824   73.6802  220.1357 H   0  0  0  0  0  0  0  0  0  0  0  0
  137.8970   73.5488  220.3397 H   0  0  0  0  0  0  0  0  0  0  0  0
  140.1051   76.4314  223.0755 H   0  0  0  0  0  0  0  0  0  0  0  0
  141.4398   75.5477  222.3402 H   0  0  0  0  0  0  0  0  0  0  0  0
  141.3010   78.3935  222.7846 H   0  0  0  0  0  0  0  0  0  0  0  0
  142.5421   77.5935  221.8339 H   0  0  0  0  0  0  0  0  0  0  0  0
  139.8445   78.7750  220.8814 H   0  0  0  0  0  0  0  0  0  0  0  0
  141.3697   79.0158  220.1165 H   0  0  0  0  0  0  0  0  0  0  0  0
  140.0013   76.9463  218.9843 H   0  0  0  0  0  0  0  0  0  0  0  0
  141.2620   74.3220  219.6980 H   0  0  0  0  0  0  0  0  0  0  0  0
  143.8165   74.8501  218.3616 H   0  0  0  0  0  0  0  0  0  0  0  0
  143.6454   74.5504  221.3637 H   0  0  0  0  0  0  0  0  0  0  0  0
  144.6410   75.6944  220.3278 H   0  0  0  0  0  0  0  0  0  0  0  0
  145.8181   73.8477  221.6020 H   0  0  0  0  0  0  0  0  0  0  0  0
  146.1544   74.1376  219.8072 H   0  0  0  0  0  0  0  0  0  0  0  0
  145.6291   71.7593  221.1001 H   0  0  0  0  0  0  0  0  0  0  0  0
  146.3572   67.4604  219.7779 H   0  0  0  0  0  0  0  0  0  0  0  0
  145.1154   66.9884  217.6782 H   0  0  0  0  0  0  0  0  0  0  0  0
  144.2555   68.8651  216.2515 H   0  0  0  0  0  0  0  0  0  0  0  0
  143.2253   72.3781  221.0553 H   0  0  0  0  0  0  0  0  0  0  0  0
  143.5446   71.0158  219.9600 H   0  0  0  0  0  0  0  0  0  0  0  0
  142.1974   72.6799  218.7754 H   0  0  0  0  0  0  0  0  0  0  0  0
  143.8739   72.6911  218.0906 H   0  0  0  0  0  0  0  0  0  0  0  0
  138.9893   69.4135  222.5089 H   0  0  0  0  0  0  0  0  0  0  0  0
  139.2944   68.0937  224.5934 H   0  0  0  0  0  0  0  0  0  0  0  0
  139.9721   67.9980  226.8431 H   0  0  0  0  0  0  0  0  0  0  0  0
  141.5003   71.5651  228.7461 H   0  0  0  0  0  0  0  0  0  0  0  0
  141.1774   72.8375  226.6484 H   0  0  0  0  0  0  0  0  0  0  0  0
  1  2  2  0
  2  3  1  0
  3  4  1  0
  4  5  1  0
  5  6  2  0
  5  7  1  0
  7  8  1  0
  8  9  1  0
  9 10  1  0
 10 11  1  0
 11 12  1  0
 12 13  2  0
 12 14  1  0
 14 15  1  0
 15 16  1  0
 16 17  1  0
 17 18  1  0
 18 19  1  0
 19 20  1  0
 20 21  2  0
 21 22  1  0
 22 23  2  0
 23 24  1  0
 24 25  2  0
 18 26  1  0
 26 27  1  0
  2 28  1  0
 28 29  2  0
 29 30  1  0
 30 31  2  0
 31 32  1  0
 32 33  2  0
 33 34  1  0
 33 35  1  0
 35 36  2  0
 36 37  1  0
 37 38  2  0
 11  7  1  0
 27 15  1  0
 38 28  1  0
 25 20  1  0
 37 31  1  0
  3 39  1  0
  4 40  1  0
  4 41  1  0
  8 42  1  0
  8 43  1  0
  9 44  1  0
  9 45  1  0
 10 46  1  0
 10 47  1  0
 11 48  1  6
 14 49  1  0
 15 50  1  6
 16 51  1  0
 16 52  1  0
 17 53  1  0
 17 54  1  0
 18 55  1  1
 22 56  1  0
 23 57  1  0
 24 58  1  0
 26 59  1  0
 26 60  1  0
 27 61  1  0
 27 62  1  0
 29 63  1  0
 30 64  1  0
 32 65  1  0
 35 66  1  0
 36 67  1  0
M  END
>  <smiles>  (41) 
O=C(NCC(=O)N1CCC[C@H]1C(=O)N[C@H]1CC[C@H](Oc2ncccn2)CC1)c1ccc2cc(F)ccc2n1

>  <score_type>  (41) 
oracle

>  <origin>  (41) 
autodockgpu

>  <m_score__min__energy>  (41) 
-9.4299999999999997

>  <m_primary>  (41) 
energy

>  <rmsd>  (41) 
4.606171155492784

>  <m_score__min__rmsd>  (41) 
4.606171155492784

>  <meeko>  (41) 
{"free_energy": -8.94, "intermolecular_energy": -11.33, "internal_energy": -2.38, "cluster_size": 15, "cluster_id": 1, "rank_in_cluster": 5}

>  <energy>  (41) 
-6.74

>  <cluster_rmsd>  (41) 
0.0

>  <cluster>  (41) 
7

$$$$

     RDKit          3D

 67 71  0  0  0  0  0  0  0  0999 V2000
  140.0960   73.5650  222.3570 O   0  0  0  0  0  0  0  0  0  0  0  0
  139.9950   72.2920  222.2970 C   0  0  0  0  0  0  0  0  0  0  0  0
  139.8530   71.6610  221.0110 N   0  0  0  0  0  0  0  0  0  0  0  0
  139.8360   72.5250  219.8600 C   0  0  0  0  0  0  0  0  0  0  0  0
  141.2190   72.9620  219.5240 C   0  0  0  0  0  0  0  0  0  0  0  0
  142.1440   72.1590  219.2340 O   0  0  0  0  0  0  0  0  0  0  0  0
  141.5430   74.3480  219.5200 N   0  0  0  0  0  0  0  0  0  0  0  0
  141.2590   75.2530  218.4210 C   0  0  0  0  0  0  0  0  0  0  0  0
  142.2930   76.3730  218.5680 C   0  0  0  0  0  0  0  0  0  0  0  0
  143.2300   75.8640  219.6730 C   0  0  0  0  0  0  0  0  0  0  0  0
  142.1910   75.1450  220.5450 C   0  0  1  0  0  0  0  0  0  0  0  0
  141.2800   76.1960  221.0650 C   0  0  0  0  0  0  0  0  0  0  0  0
  140.0580   76.0160  221.2600 O   0  0  0  0  0  0  0  0  0  0  0  0
  141.8190   77.4670  221.3560 N   0  0  0  0  0  0  0  0  0  0  0  0
  140.9670   78.5310  221.8670 C   0  0  1  0  0  0  0  0  0  0  0  0
  141.4300   78.8310  223.2680 C   0  0  0  0  0  0  0  0  0  0  0  0
  141.0170   80.1700  223.7890 C   0  0  0  0  0  0  0  0  0  0  0  0
  141.1130   81.3040  222.8340 C   0  0  2  0  0  0  0  0  0  0  0  0
  139.8540   81.8830  222.5130 O   0  0  0  0  0  0  0  0  0  0  0  0
  138.7160   81.1900  222.9630 C   0  0  0  0  0  0  0  0  0  0  0  0
  138.2150   81.5070  224.1740 N   0  0  0  0  0  0  0  0  0  0  0  0
  137.1150   80.8330  224.6050 C   0  0  0  0  0  0  0  0  0  0  0  0
  136.5570   79.8560  223.7900 C   0  0  0  0  0  0  0  0  0  0  0  0
  137.1010   79.5530  222.5420 C   0  0  0  0  0  0  0  0  0  0  0  0
  138.1860   80.2500  222.1710 N   0  0  0  0  0  0  0  0  0  0  0  0
  141.8500   80.8560  221.5970 C   0  0  0  0  0  0  0  0  0  0  0  0
  141.0260   79.7500  220.9730 C   0  0  0  0  0  0  0  0  0  0  0  0
  140.0190   71.4720  223.5020 C   0  0  0  0  0  0  0  0  0  0  0  0
  139.4770   70.2030  223.4400 C   0  0  0  0  0  0  0  0  0  0  0  0
  139.4510   69.3470  224.5270 C   0  0  0  0  0  0  0  0  0  0  0  0
  139.9990   69.8190  225.7130 C   0  0  0  0  0  0  0  0  0  0  0  0
  139.9700   68.9570  226.7980 C   0  0  0  0  0  0  0  0  0  0  0  0
  140.5160   69.4120  227.9970 C   0  0  0  0  0  0  0  0  0  0  0  0
  140.5080   68.6070  229.0790 F   0  0  0  0  0  0  0  0  0  0  0  0
  141.0600   70.6910  228.0580 C   0  0  0  0  0  0  0  0  0  0  0  0
  141.0680   71.5180  226.9480 C   0  0  0  0  0  0  0  0  0  0  0  0
  140.5370   71.0840  225.7710 C   0  0  0  0  0  0  0  0  0  0  0  0
  140.5400   71.8910  224.6700 N   0  0  0  0  0  0  0  0  0  0  0  0
  139.7690   70.6120  220.9480 H   0  0  0  0  0  0  0  0  0  0  0  0
  139.4087   71.9817  219.0043 H   0  0  0  0  0  0  0  0  0  0  0  0
  139.2247   73.4112  220.0857 H   0  0  0  0  0  0  0  0  0  0  0  0
  141.3763   74.7401  217.4550 H   0  0  0  0  0  0  0  0  0  0  0  0
  140.2265   75.6315  218.4476 H   0  0  0  0  0  0  0  0  0  0  0  0
  142.8426   76.5248  217.6273 H   0  0  0  0  0  0  0  0  0  0  0  0
  141.8367   77.3439  218.8111 H   0  0  0  0  0  0  0  0  0  0  0  0
  143.9924   75.1733  219.2834 H   0  0  0  0  0  0  0  0  0  0  0  0
  143.8280   76.6341  220.1823 H   0  0  0  0  0  0  0  0  0  0  0  0
  142.5481   74.5609  221.4060 H   0  0  0  0  0  0  0  0  0  0  0  0
  142.8430   77.6870  221.2140 H   0  0  0  0  0  0  0  0  0  0  0  0
  139.9118   78.2206  221.8800 H   0  0  0  0  0  0  0  0  0  0  0  0
  142.5287   78.7812  223.2838 H   0  0  0  0  0  0  0  0  0  0  0  0
  140.9535   78.0836  223.9195 H   0  0  0  0  0  0  0  0  0  0  0  0
  141.6548   80.4048  224.6539 H   0  0  0  0  0  0  0  0  0  0  0  0
  139.9472   80.0758  224.0272 H   0  0  0  0  0  0  0  0  0  0  0  0
  141.6793   82.1065  223.3292 H   0  0  0  0  0  0  0  0  0  0  0  0
  136.6728   81.0586  225.5866 H   0  0  0  0  0  0  0  0  0  0  0  0
  135.6672   79.3098  224.1363 H   0  0  0  0  0  0  0  0  0  0  0  0
  136.6621   78.7804  221.8935 H   0  0  0  0  0  0  0  0  0  0  0  0
  142.8477   80.4790  221.8664 H   0  0  0  0  0  0  0  0  0  0  0  0
  141.9857   81.6914  220.8943 H   0  0  0  0  0  0  0  0  0  0  0  0
  141.4783   79.4664  220.0112 H   0  0  0  0  0  0  0  0  0  0  0  0
  140.0010   80.1224  220.8290 H   0  0  0  0  0  0  0  0  0  0  0  0
  139.0484   69.8587  222.4873 H   0  0  0  0  0  0  0  0  0  0  0  0
  139.0164   68.3391  224.4552 H   0  0  0  0  0  0  0  0  0  0  0  0
  139.5323   67.9512  226.7159 H   0  0  0  0  0  0  0  0  0  0  0  0
  141.4909   71.0510  229.0039 H   0  0  0  0  0  0  0  0  0  0  0  0
  141.5032   72.5259  227.0164 H   0  0  0  0  0  0  0  0  0  0  0  0
  1  2  2  0
  2  3  1  0
  3  4  1  0
  4  5  1  0
  5  6  2  0
  5  7  1  0
  7  8  1  0
  8  9  1  0
  9 10  1  0
 10 11  1  0
 11 12  1  0
 12 13  2  0
 12 14  1  0
 14 15  1  0
 15 16  1  0
 16 17  1  0
 17 18  1  0
 18 19  1  0
 19 20  1  0
 20 21  2  0
 21 22  1  0
 22 23  2  0
 23 24  1  0
 24 25  2  0
 18 26  1  0
 26 27  1  0
  2 28  1  0
 28 29  2  0
 29 30  1  0
 30 31  2  0
 31 32  1  0
 32 33  2  0
 33 34  1  0
 33 35  1  0
 35 36  2  0
 36 37  1  0
 37 38  2  0
 11  7  1  0
 27 15  1  0
 38 28  1  0
 25 20  1  0
 37 31  1  0
  3 39  1  0
  4 40  1  0
  4 41  1  0
  8 42  1  0
  8 43  1  0
  9 44  1  0
  9 45  1  0
 10 46  1  0
 10 47  1  0
 11 48  1  1
 14 49  1  0
 15 50  1  1
 16 51  1  0
 16 52  1  0
 17 53  1  0
 17 54  1  0
 18 55  1  1
 22 56  1  0
 23 57  1  0
 24 58  1  0
 26 59  1  0
 26 60  1  0
 27 61  1  0
 27 62  1  0
 29 63  1  0
 30 64  1  0
 32 65  1  0
 35 66  1  0
 36 67  1  0
M  END
>  <smiles>  (42) 
O=C(NCC(=O)N1CCC[C@H]1C(=O)N[C@H]1CC[C@H](Oc2ncccn2)CC1)c1ccc2cc(F)ccc2n1

>  <score_type>  (42) 
oracle

>  <origin>  (42) 
autodockgpu

>  <m_score__min__energy>  (42) 
-9.4299999999999997

>  <m_primary>  (42) 
energy

>  <rmsd>  (42) 
2.195988835857208

>  <m_score__min__rmsd>  (42) 
2.195988835857208

>  <meeko>  (42) 
{"free_energy": -8.9, "intermolecular_energy": -11.28, "internal_energy": -2.27, "cluster_size": 17, "cluster_id": 2, "rank_in_cluster": 3}

>  <energy>  (42) 
-5.98

>  <cluster_rmsd>  (42) 
1.1

>  <cluster>  (42) 
7

$$$$

     RDKit          3D

 67 71  0  0  0  0  0  0  0  0999 V2000
  141.0950   73.0410  222.3200 O   0  0  0  0  0  0  0  0  0  0  0  0
  140.0230   72.5830  222.8410 C   0  0  0  0  0  0  0  0  0  0  0  0
  138.7520   73.0470  222.3500 N   0  0  0  0  0  0  0  0  0  0  0  0
  138.7790   74.0130  221.2840 C   0  0  0  0  0  0  0  0  0  0  0  0
  139.0120   75.3780  221.8310 C   0  0  0  0  0  0  0  0  0  0  0  0
  138.3280   75.8710  222.7650 O   0  0  0  0  0  0  0  0  0  0  0  0
  140.0510   76.1880  221.2940 N   0  0  0  0  0  0  0  0  0  0  0  0
  141.0920   76.8170  222.0860 C   0  0  0  0  0  0  0  0  0  0  0  0
  141.5360   78.0220  221.2510 C   0  0  0  0  0  0  0  0  0  0  0  0
  140.5160   78.0690  220.1050 C   0  0  0  0  0  0  0  0  0  0  0  0
  140.3090   76.5600  219.9150 C   0  0  1  0  0  0  0  0  0  0  0  0
  141.6080   76.0150  219.4460 C   0  0  0  0  0  0  0  0  0  0  0  0
  142.3690   76.6220  218.6620 O   0  0  0  0  0  0  0  0  0  0  0  0
  142.0080   74.7430  219.9080 N   0  0  0  0  0  0  0  0  0  0  0  0
  143.2730   74.1650  219.4770 C   0  0  1  0  0  0  0  0  0  0  0  0
  144.3180   74.6040  220.4680 C   0  0  0  0  0  0  0  0  0  0  0  0
  145.5550   73.7650  220.4840 C   0  0  0  0  0  0  0  0  0  0  0  0
  145.3540   72.2970  220.3860 C   0  0  2  0  0  0  0  0  0  0  0  0
  145.8950   71.7280  219.2000 O   0  0  0  0  0  0  0  0  0  0  0  0
  145.6070   70.3710  218.9720 C   0  0  0  0  0  0  0  0  0  0  0  0
  146.3320   69.4470  219.6330 N   0  0  0  0  0  0  0  0  0  0  0  0
  146.0510   68.1350  219.4100 C   0  0  0  0  0  0  0  0  0  0  0  0
  145.0380   67.8030  218.5190 C   0  0  0  0  0  0  0  0  0  0  0  0
  144.3060   68.7850  217.8510 C   0  0  0  0  0  0  0  0  0  0  0  0
  144.6300   70.0600  218.1120 N   0  0  0  0  0  0  0  0  0  0  0  0
  143.8860   71.9820  220.5330 C   0  0  0  0  0  0  0  0  0  0  0  0
  143.1760   72.6580  219.3800 C   0  0  0  0  0  0  0  0  0  0  0  0
  140.0630   71.6030  223.9210 C   0  0  0  0  0  0  0  0  0  0  0  0
  139.5770   70.3350  223.6720 C   0  0  0  0  0  0  0  0  0  0  0  0
  139.5710   69.3360  224.6280 C   0  0  0  0  0  0  0  0  0  0  0  0
  140.0800   69.6580  225.8800 C   0  0  0  0  0  0  0  0  0  0  0  0
  140.0700   68.6530  226.8330 C   0  0  0  0  0  0  0  0  0  0  0  0
  140.5780   68.9580  228.0960 C   0  0  0  0  0  0  0  0  0  0  0  0
  140.5880   68.0100  229.0550 F   0  0  0  0  0  0  0  0  0  0  0  0
  141.0660   70.2360  228.3450 C   0  0  0  0  0  0  0  0  0  0  0  0
  141.0560   71.2100  227.3610 C   0  0  0  0  0  0  0  0  0  0  0  0
  140.5630   70.9230  226.1250 C   0  0  0  0  0  0  0  0  0  0  0  0
  140.5480   71.8760  225.1470 N   0  0  0  0  0  0  0  0  0  0  0  0
  137.8600   72.6760  222.7730 H   0  0  0  0  0  0  0  0  0  0  0  0
  139.5889   73.7591  220.5843 H   0  0  0  0  0  0  0  0  0  0  0  0
  137.8113   73.9968  220.7612 H   0  0  0  0  0  0  0  0  0  0  0  0
  140.6963   77.1432  223.0591 H   0  0  0  0  0  0  0  0  0  0  0  0
  141.9235   76.1305  222.3037 H   0  0  0  0  0  0  0  0  0  0  0  0
  141.4994   78.9462  221.8464 H   0  0  0  0  0  0  0  0  0  0  0  0
  142.5728   77.9337  220.8944 H   0  0  0  0  0  0  0  0  0  0  0  0
  139.5873   78.5801  220.3987 H   0  0  0  0  0  0  0  0  0  0  0  0
  140.8330   78.6222  219.2086 H   0  0  0  0  0  0  0  0  0  0  0  0
  139.5345   76.2251  219.2093 H   0  0  0  0  0  0  0  0  0  0  0  0
  141.4130   74.1750  220.5710 H   0  0  0  0  0  0  0  0  0  0  0  0
  143.5434   74.5130  218.4691 H   0  0  0  0  0  0  0  0  0  0  0  0
  143.8711   74.5748  221.4727 H   0  0  0  0  0  0  0  0  0  0  0  0
  144.6311   75.6134  220.1628 H   0  0  0  0  0  0  0  0  0  0  0  0
  146.0863   73.9687  221.4254 H   0  0  0  0  0  0  0  0  0  0  0  0
  146.1127   74.0464  219.5786 H   0  0  0  0  0  0  0  0  0  0  0  0
  145.9155   71.8308  221.2090 H   0  0  0  0  0  0  0  0  0  0  0  0
  146.6180   67.3475  219.9280 H   0  0  0  0  0  0  0  0  0  0  0  0
  144.8081   66.7429  218.3363 H   0  0  0  0  0  0  0  0  0  0  0  0
  143.5029   68.5264  217.1452 H   0  0  0  0  0  0  0  0  0  0  0  0
  143.5092   72.3713  221.4903 H   0  0  0  0  0  0  0  0  0  0  0  0
  143.7123   70.8959  220.5212 H   0  0  0  0  0  0  0  0  0  0  0  0
  142.1154   72.3664  219.3927 H   0  0  0  0  0  0  0  0  0  0  0  0
  143.6578   72.3403  218.4436 H   0  0  0  0  0  0  0  0  0  0  0  0
  139.1781   70.1102  222.6718 H   0  0  0  0  0  0  0  0  0  0  0  0
  139.1808   68.3315  224.4072 H   0  0  0  0  0  0  0  0  0  0  0  0
  139.6763   67.6520  226.6027 H   0  0  0  0  0  0  0  0  0  0  0  0
  141.4668   70.4773  229.3406 H   0  0  0  0  0  0  0  0  0  0  0  0
  141.4463   72.2153  227.5779 H   0  0  0  0  0  0  0  0  0  0  0  0
  1  2  2  0
  2  3  1  0
  3  4  1  0
  4  5  1  0
  5  6  2  0
  5  7  1  0
  7  8  1  0
  8  9  1  0
  9 10  1  0
 10 11  1  0
 11 12  1  0
 12 13  2  0
 12 14  1  0
 14 15  1  0
 15 16  1  0
 16 17  1  0
 17 18  1  0
 18 19  1  0
 19 20  1  0
 20 21  2  0
 21 22  1  0
 22 23  2  0
 23 24  1  0
 24 25  2  0
 18 26  1  0
 26 27  1  0
  2 28  1  0
 28 29  2  0
 29 30  1  0
 30 31  2  0
 31 32  1  0
 32 33  2  0
 33 34  1  0
 33 35  1  0
 35 36  2  0
 36 37  1  0
 37 38  2  0
 11  7  1  0
 27 15  1  0
 38 28  1  0
 25 20  1  0
 37 31  1  0
  3 39  1  0
  4 40  1  0
  4 41  1  0
  8 42  1  0
  8 43  1  0
  9 44  1  0
  9 45  1  0
 10 46  1  0
 10 47  1  0
 11 48  1  6
 14 49  1  0
 15 50  1  6
 16 51  1  0
 16 52  1  0
 17 53  1  0
 17 54  1  0
 18 55  1  1
 22 56  1  0
 23 57  1  0
 24 58  1  0
 26 59  1  0
 26 60  1  0
 27 61  1  0
 27 62  1  0
 29 63  1  0
 30 64  1  0
 32 65  1  0
 35 66  1  0
 36 67  1  0
M  END
>  <smiles>  (43) 
O=C(NCC(=O)N1CCC[C@H]1C(=O)N[C@H]1CC[C@H](Oc2ncccn2)CC1)c1ccc2cc(F)ccc2n1

>  <score_type>  (43) 
oracle

>  <origin>  (43) 
autodockgpu

>  <m_score__min__energy>  (43) 
-9.4299999999999997

>  <m_primary>  (43) 
energy

>  <rmsd>  (43) 
4.656457222681455

>  <m_score__min__rmsd>  (43) 
4.656457222681455

>  <meeko>  (43) 
{"free_energy": -9.43, "intermolecular_energy": -11.82, "internal_energy": -3.11, "cluster_size": 15, "cluster_id": 1, "rank_in_cluster": 1}

>  <energy>  (43) 
-6.62

>  <cluster_rmsd>  (43) 
0.0

>  <cluster>  (43) 
8

$$$$

     RDKit          3D

 67 71  0  0  0  0  0  0  0  0999 V2000
  138.9020   70.7810  221.4020 O   0  0  0  0  0  0  0  0  0  0  0  0
  139.0490   71.5620  222.4020 C   0  0  0  0  0  0  0  0  0  0  0  0
  138.7160   72.9550  222.2580 N   0  0  0  0  0  0  0  0  0  0  0  0
  138.2300   73.3780  220.9710 C   0  0  0  0  0  0  0  0  0  0  0  0
  139.3210   73.3100  219.9600 C   0  0  0  0  0  0  0  0  0  0  0  0
  139.3560   72.4520  219.0410 O   0  0  0  0  0  0  0  0  0  0  0  0
  140.3890   74.2490  220.0080 N   0  0  0  0  0  0  0  0  0  0  0  0
  141.1090   74.7320  218.8430 C   0  0  0  0  0  0  0  0  0  0  0  0
  142.4770   75.1570  219.3840 C   0  0  0  0  0  0  0  0  0  0  0  0
  142.4640   74.6650  220.8380 C   0  0  0  0  0  0  0  0  0  0  0  0
  140.9830   74.9120  221.1550 C   0  0  1  0  0  0  0  0  0  0  0  0
  140.7800   76.3810  221.0910 C   0  0  0  0  0  0  0  0  0  0  0  0
  140.0520   76.9420  220.2420 O   0  0  0  0  0  0  0  0  0  0  0  0
  141.4430   77.1930  222.0360 N   0  0  0  0  0  0  0  0  0  0  0  0
  141.2760   78.6390  222.0140 C   0  0  1  0  0  0  0  0  0  0  0  0
  140.1450   78.9660  222.9520 C   0  0  0  0  0  0  0  0  0  0  0  0
  140.1190   80.3820  223.4290 C   0  0  0  0  0  0  0  0  0  0  0  0
  141.4310   80.9790  223.7880 C   0  0  2  0  0  0  0  0  0  0  0  0
  141.8090   82.0640  222.9500 O   0  0  0  0  0  0  0  0  0  0  0  0
  141.1560   82.1470  221.7060 C   0  0  0  0  0  0  0  0  0  0  0  0
  141.7320   81.5490  220.6440 N   0  0  0  0  0  0  0  0  0  0  0  0
  141.0980   81.6330  219.4440 C   0  0  0  0  0  0  0  0  0  0  0  0
  139.8950   82.3230  219.3610 C   0  0  0  0  0  0  0  0  0  0  0  0
  139.3270   82.9310  220.4800 C   0  0  0  0  0  0  0  0  0  0  0  0
  139.9980   82.8150  221.6360 N   0  0  0  0  0  0  0  0  0  0  0  0
  142.4840   79.8990  223.8060 C   0  0  0  0  0  0  0  0  0  0  0  0
  142.5600   79.3390  222.4020 C   0  0  0  0  0  0  0  0  0  0  0  0
  139.5480   71.0700  223.6810 C   0  0  0  0  0  0  0  0  0  0  0  0
  140.3850   71.8880  224.4150 C   0  0  0  0  0  0  0  0  0  0  0  0
  140.9100   71.5150  225.6390 C   0  0  0  0  0  0  0  0  0  0  0  0
  140.5610   70.2580  226.1170 C   0  0  0  0  0  0  0  0  0  0  0  0
  141.0910   69.8900  227.3440 C   0  0  0  0  0  0  0  0  0  0  0  0
  140.7520   68.6320  227.8410 C   0  0  0  0  0  0  0  0  0  0  0  0
  141.2450   68.2320  229.0310 F   0  0  0  0  0  0  0  0  0  0  0  0
  139.9090   67.8100  227.1000 C   0  0  0  0  0  0  0  0  0  0  0  0
  139.4020   68.2200  225.8790 C   0  0  0  0  0  0  0  0  0  0  0  0
  139.7270   69.4460  225.3840 C   0  0  0  0  0  0  0  0  0  0  0  0
  139.2330   69.8600  224.1800 N   0  0  0  0  0  0  0  0  0  0  0  0
  138.8340   73.6090  223.0760 H   0  0  0  0  0  0  0  0  0  0  0  0
  137.4053   72.7198  220.6601 H   0  0  0  0  0  0  0  0  0  0  0  0
  137.8749   74.4164  221.0457 H   0  0  0  0  0  0  0  0  0  0  0  0
  141.2183   73.9329  218.0950 H   0  0  0  0  0  0  0  0  0  0  0  0
  140.5839   75.5577  218.3405 H   0  0  0  0  0  0  0  0  0  0  0  0
  143.2888   74.6794  218.8158 H   0  0  0  0  0  0  0  0  0  0  0  0
  142.6490   76.2404  219.3028 H   0  0  0  0  0  0  0  0  0  0  0  0
  142.7319   73.6010  220.9169 H   0  0  0  0  0  0  0  0  0  0  0  0
  143.1825   75.1544  221.5120 H   0  0  0  0  0  0  0  0  0  0  0  0
  140.5926   74.5655  222.1233 H   0  0  0  0  0  0  0  0  0  0  0  0
  142.0730   76.7850  222.7790 H   0  0  0  0  0  0  0  0  0  0  0  0
  141.0359   78.9939  221.0009 H   0  0  0  0  0  0  0  0  0  0  0  0
  140.2282   78.3098  223.8309 H   0  0  0  0  0  0  0  0  0  0  0  0
  139.2158   78.8125  222.3837 H   0  0  0  0  0  0  0  0  0  0  0  0
  139.4764   80.4236  224.3208 H   0  0  0  0  0  0  0  0  0  0  0  0
  139.7512   80.9722  222.5767 H   0  0  0  0  0  0  0  0  0  0  0  0
  141.3320   81.4146  224.7932 H   0  0  0  0  0  0  0  0  0  0  0  0
  141.5321   81.1607  218.5504 H   0  0  0  0  0  0  0  0  0  0  0  0
  139.3795   82.3912  218.3917 H   0  0  0  0  0  0  0  0  0  0  0  0
  138.3752   83.4790  220.4180 H   0  0  0  0  0  0  0  0  0  0  0  0
  142.2018   79.1067  224.5150 H   0  0  0  0  0  0  0  0  0  0  0  0
  143.4571   80.3018  224.1235 H   0  0  0  0  0  0  0  0  0  0  0  0
  143.3898   78.6189  222.3488 H   0  0  0  0  0  0  0  0  0  0  0  0
  142.7216   80.1748  221.7053 H   0  0  0  0  0  0  0  0  0  0  0  0
  140.6446   72.8769  224.0092 H   0  0  0  0  0  0  0  0  0  0  0  0
  141.5735   72.1829  226.2080 H   0  0  0  0  0  0  0  0  0  0  0  0
  141.7542   70.5652  227.9046 H   0  0  0  0  0  0  0  0  0  0  0  0
  139.6408   66.8174  227.4910 H   0  0  0  0  0  0  0  0  0  0  0  0
  138.7365   67.5553  225.3086 H   0  0  0  0  0  0  0  0  0  0  0  0
  1  2  2  0
  2  3  1  0
  3  4  1  0
  4  5  1  0
  5  6  2  0
  5  7  1  0
  7  8  1  0
  8  9  1  0
  9 10  1  0
 10 11  1  0
 11 12  1  0
 12 13  2  0
 12 14  1  0
 14 15  1  0
 15 16  1  0
 16 17  1  0
 17 18  1  0
 18 19  1  0
 19 20  1  0
 20 21  2  0
 21 22  1  0
 22 23  2  0
 23 24  1  0
 24 25  2  0
 18 26  1  0
 26 27  1  0
  2 28  1  0
 28 29  2  0
 29 30  1  0
 30 31  2  0
 31 32  1  0
 32 33  2  0
 33 34  1  0
 33 35  1  0
 35 36  2  0
 36 37  1  0
 37 38  2  0
 11  7  1  0
 27 15  1  0
 38 28  1  0
 25 20  1  0
 37 31  1  0
  3 39  1  0
  4 40  1  0
  4 41  1  0
  8 42  1  0
  8 43  1  0
  9 44  1  0
  9 45  1  0
 10 46  1  0
 10 47  1  0
 11 48  1  1
 14 49  1  0
 15 50  1  6
 16 51  1  0
 16 52  1  0
 17 53  1  0
 17 54  1  0
 18 55  1  1
 22 56  1  0
 23 57  1  0
 24 58  1  0
 26 59  1  0
 26 60  1  0
 27 61  1  0
 27 62  1  0
 29 63  1  0
 30 64  1  0
 32 65  1  0
 35 66  1  0
 36 67  1  0
M  END
>  <smiles>  (44) 
O=C(NCC(=O)N1CCC[C@H]1C(=O)N[C@H]1CC[C@H](Oc2ncccn2)CC1)c1ccc2cc(F)ccc2n1

>  <score_type>  (44) 
oracle

>  <origin>  (44) 
autodockgpu

>  <m_score__min__energy>  (44) 
-9.4299999999999997

>  <m_primary>  (44) 
energy

>  <rmsd>  (44) 
3.0562488152079226

>  <m_score__min__rmsd>  (44) 
3.0562488152079226

>  <meeko>  (44) 
{"free_energy": -8.78, "intermolecular_energy": -11.17, "internal_energy": -2.07, "cluster_size": 17, "cluster_id": 2, "rank_in_cluster": 6}

>  <energy>  (44) 
-6.21

>  <cluster_rmsd>  (44) 
2.0

>  <cluster>  (44) 
8

$$$$

     RDKit          3D

 67 71  0  0  0  0  0  0  0  0999 V2000
  142.1450   78.4200  219.0020 O   0  0  0  0  0  0  0  0  0  0  0  0
  142.2960   77.4360  219.8020 C   0  0  0  0  0  0  0  0  0  0  0  0
  141.8130   77.5500  221.1530 N   0  0  0  0  0  0  0  0  0  0  0  0
  141.1800   78.7900  221.5150 C   0  0  0  0  0  0  0  0  0  0  0  0
  139.7050   78.6840  221.3430 C   0  0  0  0  0  0  0  0  0  0  0  0
  138.9610   79.6800  221.1430 O   0  0  0  0  0  0  0  0  0  0  0  0
  139.0750   77.4100  221.4020 N   0  0  0  0  0  0  0  0  0  0  0  0
  138.0980   76.9330  220.4400 C   0  0  0  0  0  0  0  0  0  0  0  0
  137.2740   75.8960  221.2090 C   0  0  0  0  0  0  0  0  0  0  0  0
  137.7650   76.0380  222.6560 C   0  0  0  0  0  0  0  0  0  0  0  0
  139.2430   76.3430  222.3720 C   0  0  1  0  0  0  0  0  0  0  0  0
  139.8080   75.1250  221.7390 C   0  0  0  0  0  0  0  0  0  0  0  0
  140.7690   75.1450  220.9390 O   0  0  0  0  0  0  0  0  0  0  0  0
  139.2310   73.8760  222.0540 N   0  0  0  0  0  0  0  0  0  0  0  0
  139.7490   72.6520  221.4580 C   0  0  1  0  0  0  0  0  0  0  0  0
  139.7150   72.8410  219.9650 C   0  0  0  0  0  0  0  0  0  0  0  0
  140.6150   71.9270  219.1990 C   0  0  0  0  0  0  0  0  0  0  0  0
  141.9630   71.6960  219.7770 C   0  0  2  0  0  0  0  0  0  0  0  0
  142.1870   70.3500  220.1760 O   0  0  0  0  0  0  0  0  0  0  0  0
  143.1370   69.6280  219.4310 C   0  0  0  0  0  0  0  0  0  0  0  0
  142.9750   69.5530  218.0950 N   0  0  0  0  0  0  0  0  0  0  0  0
  143.8950   68.8540  217.3780 C   0  0  0  0  0  0  0  0  0  0  0  0
  144.9560   68.2530  218.0450 C   0  0  0  0  0  0  0  0  0  0  0  0
  145.0950   68.3510  219.4280 C   0  0  0  0  0  0  0  0  0  0  0  0
  144.1560   69.0520  220.0810 N   0  0  0  0  0  0  0  0  0  0  0  0
  142.1910   72.6580  220.9150 C   0  0  0  0  0  0  0  0  0  0  0  0
  141.1430   72.3520  221.9640 C   0  0  0  0  0  0  0  0  0  0  0  0
  142.9480   76.2040  219.3720 C   0  0  0  0  0  0  0  0  0  0  0  0
  142.6520   75.7110  218.1170 C   0  0  0  0  0  0  0  0  0  0  0  0
  143.2170   74.5510  217.6170 C   0  0  0  0  0  0  0  0  0  0  0  0
  144.1120   73.8810  218.4400 C   0  0  0  0  0  0  0  0  0  0  0  0
  144.6740   72.7200  217.9340 C   0  0  0  0  0  0  0  0  0  0  0  0
  145.5770   72.0330  218.7460 C   0  0  0  0  0  0  0  0  0  0  0  0
  146.1480   70.8980  218.2930 F   0  0  0  0  0  0  0  0  0  0  0  0
  145.8730   72.5310  220.0100 C   0  0  0  0  0  0  0  0  0  0  0  0
  145.2880   73.6960  220.4750 C   0  0  0  0  0  0  0  0  0  0  0  0
  144.4050   74.3750  219.6910 C   0  0  0  0  0  0  0  0  0  0  0  0
  143.8220   75.5250  220.1390 N   0  0  0  0  0  0  0  0  0  0  0  0
  141.9320   76.7440  221.8220 H   0  0  0  0  0  0  0  0  0  0  0  0
  141.4075   79.0207  222.5662 H   0  0  0  0  0  0  0  0  0  0  0  0
  141.5606   79.5907  220.8637 H   0  0  0  0  0  0  0  0  0  0  0  0
  137.4584   77.7584  220.0941 H   0  0  0  0  0  0  0  0  0  0  0  0
  138.5697   76.5084  219.5416 H   0  0  0  0  0  0  0  0  0  0  0  0
  136.1990   76.1177  221.1364 H   0  0  0  0  0  0  0  0  0  0  0  0
  137.3993   74.8765  220.8155 H   0  0  0  0  0  0  0  0  0  0  0  0
  137.2660   76.8647  223.1828 H   0  0  0  0  0  0  0  0  0  0  0  0
  137.5748   75.1740  223.3097 H   0  0  0  0  0  0  0  0  0  0  0  0
  139.8927   76.6077  223.2192 H   0  0  0  0  0  0  0  0  0  0  0  0
  138.4170   73.7870  222.7210 H   0  0  0  0  0  0  0  0  0  0  0  0
  139.1347   71.7838  221.7388 H   0  0  0  0  0  0  0  0  0  0  0  0
  140.0106   73.8772  219.7441 H   0  0  0  0  0  0  0  0  0  0  0  0
  138.6890   72.6060  219.6455 H   0  0  0  0  0  0  0  0  0  0  0  0
  140.7497   72.3537  218.1941 H   0  0  0  0  0  0  0  0  0  0  0  0
  140.1177   70.9460  219.2124 H   0  0  0  0  0  0  0  0  0  0  0  0
  142.6998   71.8842  218.9822 H   0  0  0  0  0  0  0  0  0  0  0  0
  143.8009   68.7655  216.2856 H   0  0  0  0  0  0  0  0  0  0  0  0
  145.7026   67.6874  217.4682 H   0  0  0  0  0  0  0  0  0  0  0  0
  145.9338   67.8767  219.9585 H   0  0  0  0  0  0  0  0  0  0  0  0
  142.0823   73.6942  220.5623 H   0  0  0  0  0  0  0  0  0  0  0  0
  143.2051   72.5485  221.3269 H   0  0  0  0  0  0  0  0  0  0  0  0
  141.3396   72.9657  222.8555 H   0  0  0  0  0  0  0  0  0  0  0  0
  141.1994   71.2805  222.2064 H   0  0  0  0  0  0  0  0  0  0  0  0
  141.9376   76.2630  217.4886 H   0  0  0  0  0  0  0  0  0  0  0  0
  142.9683   74.1768  216.6130 H   0  0  0  0  0  0  0  0  0  0  0  0
  144.4177   72.3534  216.9291 H   0  0  0  0  0  0  0  0  0  0  0  0
  146.5842   71.9899  220.6513 H   0  0  0  0  0  0  0  0  0  0  0  0
  145.5362   74.0736  221.4779 H   0  0  0  0  0  0  0  0  0  0  0  0
  1  2  2  0
  2  3  1  0
  3  4  1  0
  4  5  1  0
  5  6  2  0
  5  7  1  0
  7  8  1  0
  8  9  1  0
  9 10  1  0
 10 11  1  0
 11 12  1  0
 12 13  2  0
 12 14  1  0
 14 15  1  0
 15 16  1  0
 16 17  1  0
 17 18  1  0
 18 19  1  0
 19 20  1  0
 20 21  2  0
 21 22  1  0
 22 23  2  0
 23 24  1  0
 24 25  2  0
 18 26  1  0
 26 27  1  0
  2 28  1  0
 28 29  2  0
 29 30  1  0
 30 31  2  0
 31 32  1  0
 32 33  2  0
 33 34  1  0
 33 35  1  0
 35 36  2  0
 36 37  1  0
 37 38  2  0
 11  7  1  0
 27 15  1  0
 38 28  1  0
 25 20  1  0
 37 31  1  0
  3 39  1  0
  4 40  1  0
  4 41  1  0
  8 42  1  0
  8 43  1  0
  9 44  1  0
  9 45  1  0
 10 46  1  0
 10 47  1  0
 11 48  1  1
 14 49  1  0
 15 50  1  6
 16 51  1  0
 16 52  1  0
 17 53  1  0
 17 54  1  0
 18 55  1  6
 22 56  1  0
 23 57  1  0
 24 58  1  0
 26 59  1  0
 26 60  1  0
 27 61  1  0
 27 62  1  0
 29 63  1  0
 30 64  1  0
 32 65  1  0
 35 66  1  0
 36 67  1  0
M  END
>  <smiles>  (45) 
O=C(NCC(=O)N1CCC[C@H]1C(=O)N[C@H]1CC[C@H](Oc2ncccn2)CC1)c1ccc2cc(F)ccc2n1

>  <score_type>  (45) 
oracle

>  <origin>  (45) 
autodockgpu

>  <m_score__min__energy>  (45) 
-9.4299999999999997

>  <m_primary>  (45) 
energy

>  <rmsd>  (45) 
7.686205033698448

>  <m_score__min__rmsd>  (45) 
7.686205033698448

>  <meeko>  (45) 
{"free_energy": -5.56, "intermolecular_energy": -7.95, "internal_energy": -4.56, "cluster_size": 1, "cluster_id": 12, "rank_in_cluster": 1}

>  <energy>  (45) 
-5.99

>  <cluster_rmsd>  (45) 
0.66

>  <cluster>  (45) 
8

$$$$

     RDKit          3D

 67 71  0  0  0  0  0  0  0  0999 V2000
  141.0520   72.3720  222.3380 O   0  0  0  0  0  0  0  0  0  0  0  0
  140.0750   72.0920  223.1120 C   0  0  0  0  0  0  0  0  0  0  0  0
  138.7430   72.4820  222.7290 N   0  0  0  0  0  0  0  0  0  0  0  0
  138.6030   73.1710  221.4740 C   0  0  0  0  0  0  0  0  0  0  0  0
  139.1600   74.5480  221.5770 C   0  0  0  0  0  0  0  0  0  0  0  0
  138.6830   75.4280  222.3400 O   0  0  0  0  0  0  0  0  0  0  0  0
  140.2860   74.9170  220.7890 N   0  0  0  0  0  0  0  0  0  0  0  0
  141.4490   75.6200  221.3000 C   0  0  0  0  0  0  0  0  0  0  0  0
  142.0350   76.3330  220.0790 C   0  0  0  0  0  0  0  0  0  0  0  0
  140.9810   76.1120  218.9840 C   0  0  0  0  0  0  0  0  0  0  0  0
  140.5330   74.6970  219.3760 C   0  0  1  0  0  0  0  0  0  0  0  0
  141.7070   73.8130  219.1670 C   0  0  0  0  0  0  0  0  0  0  0  0
  142.6750   74.1110  218.4340 O   0  0  0  0  0  0  0  0  0  0  0  0
  141.7360   72.5670  219.8320 N   0  0  0  0  0  0  0  0  0  0  0  0
  142.8650   71.6650  219.6590 C   0  0  1  0  0  0  0  0  0  0  0  0
  143.0090   71.4180  218.1810 C   0  0  0  0  0  0  0  0  0  0  0  0
  144.3530   70.9180  217.7590 C   0  0  0  0  0  0  0  0  0  0  0  0
  145.5260   71.5550  218.4120 C   0  0  2  0  0  0  0  0  0  0  0  0
  146.2830   70.6600  219.2170 O   0  0  0  0  0  0  0  0  0  0  0  0
  146.1060   69.2880  218.9590 C   0  0  0  0  0  0  0  0  0  0  0  0
  145.6620   68.5050  219.9620 N   0  0  0  0  0  0  0  0  0  0  0  0
  145.4930   67.1790  219.7080 C   0  0  0  0  0  0  0  0  0  0  0  0
  145.7800   66.6910  218.4400 C   0  0  0  0  0  0  0  0  0  0  0  0
  146.2380   67.5300  217.4250 C   0  0  0  0  0  0  0  0  0  0  0  0
  146.3860   68.8270  217.7340 N   0  0  0  0  0  0  0  0  0  0  0  0
  145.0680   72.7570  219.1990 C   0  0  0  0  0  0  0  0  0  0  0  0
  144.1220   72.2480  220.2660 C   0  0  0  0  0  0  0  0  0  0  0  0
  140.2850   71.3900  224.3730 C   0  0  0  0  0  0  0  0  0  0  0  0
  141.0560   72.0020  225.3420 C   0  0  0  0  0  0  0  0  0  0  0  0
  141.3140   71.4200  226.5700 C   0  0  0  0  0  0  0  0  0  0  0  0
  140.7590   70.1680  226.8030 C   0  0  0  0  0  0  0  0  0  0  0  0
  141.0220   69.5910  228.0350 C   0  0  0  0  0  0  0  0  0  0  0  0
  140.4730   68.3340  228.2870 C   0  0  0  0  0  0  0  0  0  0  0  0
  140.7030   67.7340  229.4730 F   0  0  0  0  0  0  0  0  0  0  0  0
  139.6970   67.7190  227.3100 C   0  0  0  0  0  0  0  0  0  0  0  0
  139.4610   68.3340  226.0930 C   0  0  0  0  0  0  0  0  0  0  0  0
  139.9920   69.5620  225.8350 C   0  0  0  0  0  0  0  0  0  0  0  0
  139.7650   70.1770  224.6380 N   0  0  0  0  0  0  0  0  0  0  0  0
  137.9300   72.2560  223.3600 H   0  0  0  0  0  0  0  0  0  0  0  0
  139.1453   72.6174  220.6934 H   0  0  0  0  0  0  0  0  0  0  0  0
  137.5353   73.2346  221.2172 H   0  0  0  0  0  0  0  0  0  0  0  0
  141.1555   76.3476  222.0710 H   0  0  0  0  0  0  0  0  0  0  0  0
  142.1727   74.9407  221.7741 H   0  0  0  0  0  0  0  0  0  0  0  0
  142.1720   77.4058  220.2801 H   0  0  0  0  0  0  0  0  0  0  0  0
  143.0269   75.9492  219.7980 H   0  0  0  0  0  0  0  0  0  0  0  0
  140.1583   76.8393  219.0487 H   0  0  0  0  0  0  0  0  0  0  0  0
  141.3369   76.2294  217.9498 H   0  0  0  0  0  0  0  0  0  0  0  0
  139.6830   74.2519  218.8381 H   0  0  0  0  0  0  0  0  0  0  0  0
  140.9510   72.2530  220.4650 H   0  0  0  0  0  0  0  0  0  0  0  0
  142.6942   70.7124  220.1819 H   0  0  0  0  0  0  0  0  0  0  0  0
  142.8149   72.3644  217.6550 H   0  0  0  0  0  0  0  0  0  0  0  0
  142.2892   70.6260  217.9269 H   0  0  0  0  0  0  0  0  0  0  0  0
  144.4450   71.0779  216.6746 H   0  0  0  0  0  0  0  0  0  0  0  0
  144.3833   69.8621  218.0659 H   0  0  0  0  0  0  0  0  0  0  0  0
  146.2143   71.8753  217.6160 H   0  0  0  0  0  0  0  0  0  0  0  0
  145.1336   66.5021  220.4971 H   0  0  0  0  0  0  0  0  0  0  0  0
  145.6431   65.6196  218.2319 H   0  0  0  0  0  0  0  0  0  0  0  0
  146.4669   67.1470  216.4196 H   0  0  0  0  0  0  0  0  0  0  0  0
  144.5473   73.4659  218.5385 H   0  0  0  0  0  0  0  0  0  0  0  0
  145.9230   73.2831  219.6486 H   0  0  0  0  0  0  0  0  0  0  0  0
  143.8460   73.0828  220.9269 H   0  0  0  0  0  0  0  0  0  0  0  0
  144.6331   71.4544  220.8308 H   0  0  0  0  0  0  0  0  0  0  0  0
  141.4825   72.9932  225.1283 H   0  0  0  0  0  0  0  0  0  0  0  0
  141.9306   71.9256  227.3277 H   0  0  0  0  0  0  0  0  0  0  0  0
  141.6403   70.1049  228.7858 H   0  0  0  0  0  0  0  0  0  0  0  0
  139.2638   66.7275  227.5080 H   0  0  0  0  0  0  0  0  0  0  0  0
  138.8443   67.8312  225.3335 H   0  0  0  0  0  0  0  0  0  0  0  0
  1  2  2  0
  2  3  1  0
  3  4  1  0
  4  5  1  0
  5  6  2  0
  5  7  1  0
  7  8  1  0
  8  9  1  0
  9 10  1  0
 10 11  1  0
 11 12  1  0
 12 13  2  0
 12 14  1  0
 14 15  1  0
 15 16  1  0
 16 17  1  0
 17 18  1  0
 18 19  1  0
 19 20  1  0
 20 21  2  0
 21 22  1  0
 22 23  2  0
 23 24  1  0
 24 25  2  0
 18 26  1  0
 26 27  1  0
  2 28  1  0
 28 29  2  0
 29 30  1  0
 30 31  2  0
 31 32  1  0
 32 33  2  0
 33 34  1  0
 33 35  1  0
 35 36  2  0
 36 37  1  0
 37 38  2  0
 11  7  1  0
 27 15  1  0
 38 28  1  0
 25 20  1  0
 37 31  1  0
  3 39  1  0
  4 40  1  0
  4 41  1  0
  8 42  1  0
  8 43  1  0
  9 44  1  0
  9 45  1  0
 10 46  1  0
 10 47  1  0
 11 48  1  6
 14 49  1  0
 15 50  1  1
 16 51  1  0
 16 52  1  0
 17 53  1  0
 17 54  1  0
 18 55  1  6
 22 56  1  0
 23 57  1  0
 24 58  1  0
 26 59  1  0
 26 60  1  0
 27 61  1  0
 27 62  1  0
 29 63  1  0
 30 64  1  0
 32 65  1  0
 35 66  1  0
 36 67  1  0
M  END
>  <smiles>  (46) 
O=C(NCC(=O)N1CCC[C@H]1C(=O)N[C@H]1CC[C@H](Oc2ncccn2)CC1)c1ccc2cc(F)ccc2n1

>  <score_type>  (46) 
oracle

>  <origin>  (46) 
autodockgpu

>  <m_score__min__energy>  (46) 
-9.4299999999999997

>  <m_primary>  (46) 
energy

>  <rmsd>  (46) 
5.6533786853098515

>  <m_score__min__rmsd>  (46) 
5.6533786853098515

>  <meeko>  (46) 
{"free_energy": -8.44, "intermolecular_energy": -10.83, "internal_energy": -2.94, "cluster_size": 15, "cluster_id": 1, "rank_in_cluster": 8}

>  <energy>  (46) 
-6.18

>  <cluster_rmsd>  (46) 
0.0

>  <cluster>  (46) 
9

$$$$

     RDKit          3D

 67 71  0  0  0  0  0  0  0  0999 V2000
  143.5420   73.8850  218.0190 O   0  0  0  0  0  0  0  0  0  0  0  0
  143.3660   74.7030  218.9840 C   0  0  0  0  0  0  0  0  0  0  0  0
  143.4800   74.2240  220.3370 N   0  0  0  0  0  0  0  0  0  0  0  0
  143.7910   72.8300  220.5100 C   0  0  0  0  0  0  0  0  0  0  0  0
  142.5400   72.0360  220.6510 C   0  0  0  0  0  0  0  0  0  0  0  0
  142.4730   70.8050  220.4010 O   0  0  0  0  0  0  0  0  0  0  0  0
  141.3450   72.6720  221.0890 N   0  0  0  0  0  0  0  0  0  0  0  0
  140.7220   72.4450  222.3810 C   0  0  0  0  0  0  0  0  0  0  0  0
  139.2450   72.7870  222.1620 C   0  0  0  0  0  0  0  0  0  0  0  0
  139.1380   72.9940  220.6450 C   0  0  0  0  0  0  0  0  0  0  0  0
  140.5100   73.6390  220.4000 C   0  0  1  0  0  0  0  0  0  0  0  0
  140.4940   74.9400  221.1150 C   0  0  0  0  0  0  0  0  0  0  0  0
  141.3640   75.2830  221.9450 O   0  0  0  0  0  0  0  0  0  0  0  0
  139.4400   75.8410  220.8460 N   0  0  0  0  0  0  0  0  0  0  0  0
  139.3800   77.1290  221.5220 C   0  0  1  0  0  0  0  0  0  0  0  0
  138.8650   78.1280  220.5200 C   0  0  0  0  0  0  0  0  0  0  0  0
  138.2930   79.3730  221.1170 C   0  0  0  0  0  0  0  0  0  0  0  0
  137.4470   79.1940  222.3250 C   0  0  2  0  0  0  0  0  0  0  0  0
  137.9950   79.7900  223.4940 O   0  0  0  0  0  0  0  0  0  0  0  0
  139.3720   80.0720  223.4630 C   0  0  0  0  0  0  0  0  0  0  0  0
  140.2280   79.1110  223.8650 N   0  0  0  0  0  0  0  0  0  0  0  0
  141.5590   79.3880  223.8340 C   0  0  0  0  0  0  0  0  0  0  0  0
  141.9800   80.6370  223.3930 C   0  0  0  0  0  0  0  0  0  0  0  0
  141.0680   81.6090  222.9840 C   0  0  0  0  0  0  0  0  0  0  0  0
  139.7690   81.2780  223.0370 N   0  0  0  0  0  0  0  0  0  0  0  0
  137.1690   77.7260  222.5280 C   0  0  0  0  0  0  0  0  0  0  0  0
  138.5070   77.0540  222.7550 C   0  0  0  0  0  0  0  0  0  0  0  0
  143.0530   76.1070  218.7420 C   0  0  0  0  0  0  0  0  0  0  0  0
  143.2420   76.6080  217.4700 C   0  0  0  0  0  0  0  0  0  0  0  0
  142.9740   77.9240  217.1380 C   0  0  0  0  0  0  0  0  0  0  0  0
  142.4990   78.7460  218.1520 C   0  0  0  0  0  0  0  0  0  0  0  0
  142.2330   80.0630  217.8130 C   0  0  0  0  0  0  0  0  0  0  0  0
  141.7550   80.9030  218.8180 C   0  0  0  0  0  0  0  0  0  0  0  0
  141.4830   82.1930  218.5330 F   0  0  0  0  0  0  0  0  0  0  0  0
  141.5660   80.3960  220.0990 C   0  0  0  0  0  0  0  0  0  0  0  0
  141.8450   79.0720  220.3930 C   0  0  0  0  0  0  0  0  0  0  0  0
  142.3120   78.2430  219.4190 C   0  0  0  0  0  0  0  0  0  0  0  0
  142.5910   76.9350  219.6970 N   0  0  0  0  0  0  0  0  0  0  0  0
  143.3380   74.8890  221.1420 H   0  0  0  0  0  0  0  0  0  0  0  0
  144.3516   72.4717  219.6340 H   0  0  0  0  0  0  0  0  0  0  0  0
  144.3968   72.7085  221.4201 H   0  0  0  0  0  0  0  0  0  0  0  0
  140.8362   71.3950  222.6883 H   0  0  0  0  0  0  0  0  0  0  0  0
  141.1777   73.0524  223.1768 H   0  0  0  0  0  0  0  0  0  0  0  0
  138.5984   71.9603  222.4912 H   0  0  0  0  0  0  0  0  0  0  0  0
  138.9231   73.6688  222.7354 H   0  0  0  0  0  0  0  0  0  0  0  0
  139.0260   72.0424  220.1047 H   0  0  0  0  0  0  0  0  0  0  0  0
  138.2703   73.5783  220.3048 H   0  0  0  0  0  0  0  0  0  0  0  0
  140.8161   73.8343  219.3616 H   0  0  0  0  0  0  0  0  0  0  0  0
  138.6730   75.6140  220.1570 H   0  0  0  0  0  0  0  0  0  0  0  0
  140.3744   77.4357  221.8784 H   0  0  0  0  0  0  0  0  0  0  0  0
  138.0790   77.6414  219.9239 H   0  0  0  0  0  0  0  0  0  0  0  0
  139.7319   78.4411  219.9197 H   0  0  0  0  0  0  0  0  0  0  0  0
  137.6787   79.8626  220.3470 H   0  0  0  0  0  0  0  0  0  0  0  0
  139.1590   79.9639  221.4498 H   0  0  0  0  0  0  0  0  0  0  0  0
  136.5010   79.7269  222.1487 H   0  0  0  0  0  0  0  0  0  0  0  0
  142.2928   78.6335  224.1537 H   0  0  0  0  0  0  0  0  0  0  0  0
  143.0561   80.8635  223.3661 H   0  0  0  0  0  0  0  0  0  0  0  0
  141.3974   82.5988  222.6349 H   0  0  0  0  0  0  0  0  0  0  0  0
  136.6810   77.3062  221.6360 H   0  0  0  0  0  0  0  0  0  0  0  0
  136.4972   77.5665  223.3843 H   0  0  0  0  0  0  0  0  0  0  0  0
  138.3379   75.9974  223.0098 H   0  0  0  0  0  0  0  0  0  0  0  0
  139.0214   77.5764  223.5750 H   0  0  0  0  0  0  0  0  0  0  0  0
  143.6212   75.9334  216.6883 H   0  0  0  0  0  0  0  0  0  0  0  0
  143.1300   78.3024  216.1170 H   0  0  0  0  0  0  0  0  0  0  0  0
  142.3930   80.4320  216.7892 H   0  0  0  0  0  0  0  0  0  0  0  0
  141.1884   81.0580  220.8922 H   0  0  0  0  0  0  0  0  0  0  0  0
  141.6895   78.6901  221.4128 H   0  0  0  0  0  0  0  0  0  0  0  0
  1  2  2  0
  2  3  1  0
  3  4  1  0
  4  5  1  0
  5  6  2  0
  5  7  1  0
  7  8  1  0
  8  9  1  0
  9 10  1  0
 10 11  1  0
 11 12  1  0
 12 13  2  0
 12 14  1  0
 14 15  1  0
 15 16  1  0
 16 17  1  0
 17 18  1  0
 18 19  1  0
 19 20  1  0
 20 21  2  0
 21 22  1  0
 22 23  2  0
 23 24  1  0
 24 25  2  0
 18 26  1  0
 26 27  1  0
  2 28  1  0
 28 29  2  0
 29 30  1  0
 30 31  2  0
 31 32  1  0
 32 33  2  0
 33 34  1  0
 33 35  1  0
 35 36  2  0
 36 37  1  0
 37 38  2  0
 11  7  1  0
 27 15  1  0
 38 28  1  0
 25 20  1  0
 37 31  1  0
  3 39  1  0
  4 40  1  0
  4 41  1  0
  8 42  1  0
  8 43  1  0
  9 44  1  0
  9 45  1  0
 10 46  1  0
 10 47  1  0
 11 48  1  6
 14 49  1  0
 15 50  1  1
 16 51  1  0
 16 52  1  0
 17 53  1  0
 17 54  1  0
 18 55  1  6
 22 56  1  0
 23 57  1  0
 24 58  1  0
 26 59  1  0
 26 60  1  0
 27 61  1  0
 27 62  1  0
 29 63  1  0
 30 64  1  0
 32 65  1  0
 35 66  1  0
 36 67  1  0
M  END
>  <smiles>  (47) 
O=C(NCC(=O)N1CCC[C@H]1C(=O)N[C@H]1CC[C@H](Oc2ncccn2)CC1)c1ccc2cc(F)ccc2n1

>  <score_type>  (47) 
oracle

>  <origin>  (47) 
autodockgpu

>  <m_score__min__energy>  (47) 
-9.4299999999999997

>  <m_primary>  (47) 
energy

>  <rmsd>  (47) 
8.089903401885557

>  <m_score__min__rmsd>  (47) 
8.089903401885557

>  <meeko>  (47) 
{"free_energy": -6.15, "intermolecular_energy": -8.54, "internal_energy": -4.55, "cluster_size": 2, "cluster_id": 9, "rank_in_cluster": 2}

>  <energy>  (47) 
-6.15

>  <cluster_rmsd>  (47) 
0.12

>  <cluster>  (47) 
9

$$$$

     RDKit          3D

 67 71  0  0  0  0  0  0  0  0999 V2000
  143.6810   74.0140  217.9300 O   0  0  0  0  0  0  0  0  0  0  0  0
  143.4180   74.8020  218.9000 C   0  0  0  0  0  0  0  0  0  0  0  0
  143.4590   74.2940  220.2460 N   0  0  0  0  0  0  0  0  0  0  0  0
  143.8020   72.9060  220.4070 C   0  0  0  0  0  0  0  0  0  0  0  0
  142.5720   72.0900  220.6000 C   0  0  0  0  0  0  0  0  0  0  0  0
  142.5350   70.8450  220.4210 O   0  0  0  0  0  0  0  0  0  0  0  0
  141.3620   72.7190  221.0080 N   0  0  0  0  0  0  0  0  0  0  0  0
  140.6840   72.4530  222.2640 C   0  0  0  0  0  0  0  0  0  0  0  0
  139.2200   72.8120  221.9940 C   0  0  0  0  0  0  0  0  0  0  0  0
  139.1790   73.0710  220.4810 C   0  0  0  0  0  0  0  0  0  0  0  0
  140.5630   73.7140  220.3180 C   0  0  1  0  0  0  0  0  0  0  0  0
  140.5230   74.9910  221.0750 C   0  0  0  0  0  0  0  0  0  0  0  0
  141.3170   75.2700  222.0000 O   0  0  0  0  0  0  0  0  0  0  0  0
  139.5380   75.9420  220.7350 N   0  0  0  0  0  0  0  0  0  0  0  0
  139.4580   77.2090  221.4480 C   0  0  1  0  0  0  0  0  0  0  0  0
  138.8590   78.2120  220.4980 C   0  0  0  0  0  0  0  0  0  0  0  0
  138.2660   79.4170  221.1540 C   0  0  0  0  0  0  0  0  0  0  0  0
  137.4840   79.1730  222.3930 C   0  0  2  0  0  0  0  0  0  0  0  0
  138.0600   79.7600  223.5530 O   0  0  0  0  0  0  0  0  0  0  0  0
  139.4330   80.0560  223.4850 C   0  0  0  0  0  0  0  0  0  0  0  0
  140.3100   79.1020  223.8560 N   0  0  0  0  0  0  0  0  0  0  0  0
  141.6370   79.3930  223.7890 C   0  0  0  0  0  0  0  0  0  0  0  0
  142.0320   80.6480  223.3450 C   0  0  0  0  0  0  0  0  0  0  0  0
  141.0980   81.6130  222.9680 C   0  0  0  0  0  0  0  0  0  0  0  0
  139.8050   81.2680  223.0560 N   0  0  0  0  0  0  0  0  0  0  0  0
  137.2730   77.6900  222.5680 C   0  0  0  0  0  0  0  0  0  0  0  0
  138.6450   77.0670  222.7160 C   0  0  0  0  0  0  0  0  0  0  0  0
  143.0760   76.2010  218.6700 C   0  0  0  0  0  0  0  0  0  0  0  0
  143.2380   76.7130  217.3970 C   0  0  0  0  0  0  0  0  0  0  0  0
  142.9430   78.0250  217.0760 C   0  0  0  0  0  0  0  0  0  0  0  0
  142.4680   78.8330  218.1010 C   0  0  0  0  0  0  0  0  0  0  0  0
  142.1740   80.1470  217.7720 C   0  0  0  0  0  0  0  0  0  0  0  0
  141.6960   80.9740  218.7890 C   0  0  0  0  0  0  0  0  0  0  0  0
  141.3980   82.2600  218.5140 F   0  0  0  0  0  0  0  0  0  0  0  0
  141.5340   80.4570  220.0700 C   0  0  0  0  0  0  0  0  0  0  0  0
  141.8400   79.1370  220.3520 C   0  0  0  0  0  0  0  0  0  0  0  0
  142.3080   78.3210  219.3680 C   0  0  0  0  0  0  0  0  0  0  0  0
  142.6130   77.0170  219.6350 N   0  0  0  0  0  0  0  0  0  0  0  0
  143.2430   74.9350  221.0550 H   0  0  0  0  0  0  0  0  0  0  0  0
  144.3323   72.5565  219.5089 H   0  0  0  0  0  0  0  0  0  0  0  0
  144.4470   72.7966  221.2913 H   0  0  0  0  0  0  0  0  0  0  0  0
  140.7796   71.3926  222.5403 H   0  0  0  0  0  0  0  0  0  0  0  0
  141.1088   73.0301  223.0986 H   0  0  0  0  0  0  0  0  0  0  0  0
  138.5555   71.9790  222.2671 H   0  0  0  0  0  0  0  0  0  0  0  0
  138.8785   73.6761  222.5828 H   0  0  0  0  0  0  0  0  0  0  0  0
  139.0852   72.1391  219.9041 H   0  0  0  0  0  0  0  0  0  0  0  0
  138.3298   73.6721  220.1238 H   0  0  0  0  0  0  0  0  0  0  0  0
  140.9151   73.9422  219.3011 H   0  0  0  0  0  0  0  0  0  0  0  0
  138.8360   75.7710  219.9650 H   0  0  0  0  0  0  0  0  0  0  0  0
  140.4549   77.5464  221.7679 H   0  0  0  0  0  0  0  0  0  0  0  0
  138.0665   77.7095  219.9241 H   0  0  0  0  0  0  0  0  0  0  0  0
  139.6848   78.5756  219.8689 H   0  0  0  0  0  0  0  0  0  0  0  0
  137.5983   79.9007  220.4259 H   0  0  0  0  0  0  0  0  0  0  0  0
  139.1224   80.0339  221.4640 H   0  0  0  0  0  0  0  0  0  0  0  0
  136.5112   79.6722  222.2730 H   0  0  0  0  0  0  0  0  0  0  0  0
  142.3873   78.6441  224.0826 H   0  0  0  0  0  0  0  0  0  0  0  0
  143.1044   80.8863  223.2894 H   0  0  0  0  0  0  0  0  0  0  0  0
  141.4069   82.6083  222.6158 H   0  0  0  0  0  0  0  0  0  0  0  0
  136.7612   77.2739  221.6877 H   0  0  0  0  0  0  0  0  0  0  0  0
  136.6480   77.4817  223.4489 H   0  0  0  0  0  0  0  0  0  0  0  0
  138.5290   75.9981  222.9485 H   0  0  0  0  0  0  0  0  0  0  0  0
  139.1754   77.5886  223.5263 H   0  0  0  0  0  0  0  0  0  0  0  0
  143.6174   76.0493  216.6061 H   0  0  0  0  0  0  0  0  0  0  0  0
  143.0783   78.4115  216.0551 H   0  0  0  0  0  0  0  0  0  0  0  0
  142.3123   80.5236  216.7478 H   0  0  0  0  0  0  0  0  0  0  0  0
  141.1564   81.1080  220.8723 H   0  0  0  0  0  0  0  0  0  0  0  0
  141.7050   78.7471  221.3717 H   0  0  0  0  0  0  0  0  0  0  0  0
  1  2  2  0
  2  3  1  0
  3  4  1  0
  4  5  1  0
  5  6  2  0
  5  7  1  0
  7  8  1  0
  8  9  1  0
  9 10  1  0
 10 11  1  0
 11 12  1  0
 12 13  2  0
 12 14  1  0
 14 15  1  0
 15 16  1  0
 16 17  1  0
 17 18  1  0
 18 19  1  0
 19 20  1  0
 20 21  2  0
 21 22  1  0
 22 23  2  0
 23 24  1  0
 24 25  2  0
 18 26  1  0
 26 27  1  0
  2 28  1  0
 28 29  2  0
 29 30  1  0
 30 31  2  0
 31 32  1  0
 32 33  2  0
 33 34  1  0
 33 35  1  0
 35 36  2  0
 36 37  1  0
 37 38  2  0
 11  7  1  0
 27 15  1  0
 38 28  1  0
 25 20  1  0
 37 31  1  0
  3 39  1  0
  4 40  1  0
  4 41  1  0
  8 42  1  0
  8 43  1  0
  9 44  1  0
  9 45  1  0
 10 46  1  0
 10 47  1  0
 11 48  1  6
 14 49  1  0
 15 50  1  1
 16 51  1  0
 16 52  1  0
 17 53  1  0
 17 54  1  0
 18 55  1  6
 22 56  1  0
 23 57  1  0
 24 58  1  0
 26 59  1  0
 26 60  1  0
 27 61  1  0
 27 62  1  0
 29 63  1  0
 30 64  1  0
 32 65  1  0
 35 66  1  0
 36 67  1  0
M  END
>  <smiles>  (48) 
O=C(NCC(=O)N1CCC[C@H]1C(=O)N[C@H]1CC[C@H](Oc2ncccn2)CC1)c1ccc2cc(F)ccc2n1

>  <score_type>  (48) 
oracle

>  <origin>  (48) 
autodockgpu

>  <m_score__min__energy>  (48) 
-9.4299999999999997

>  <m_primary>  (48) 
energy

>  <rmsd>  (48) 
8.113594848701721

>  <m_score__min__rmsd>  (48) 
8.113594848701721

>  <meeko>  (48) 
{"free_energy": -6.18, "intermolecular_energy": -8.57, "internal_energy": -4.48, "cluster_size": 2, "cluster_id": 9, "rank_in_cluster": 1}

>  <energy>  (48) 
-6.08

>  <cluster_rmsd>  (48) 
0.0

>  <cluster>  (48) 
10

$$$$

     RDKit          3D

 67 71  0  0  0  0  0  0  0  0999 V2000
  140.0160   73.3960  222.3040 O   0  0  0  0  0  0  0  0  0  0  0  0
  139.9930   72.1190  222.2580 C   0  0  0  0  0  0  0  0  0  0  0  0
  139.9440   71.4650  220.9770 N   0  0  0  0  0  0  0  0  0  0  0  0
  139.9250   72.3120  219.8140 C   0  0  0  0  0  0  0  0  0  0  0  0
  141.2340   72.2490  219.1090 C   0  0  0  0  0  0  0  0  0  0  0  0
  141.7710   71.1700  218.7470 O   0  0  0  0  0  0  0  0  0  0  0  0
  141.9380   73.4500  218.8140 N   0  0  0  0  0  0  0  0  0  0  0  0
  141.6230   74.3340  217.7060 C   0  0  0  0  0  0  0  0  0  0  0  0
  142.9370   75.0610  217.4080 C   0  0  0  0  0  0  0  0  0  0  0  0
  143.9650   74.3380  218.2910 C   0  0  0  0  0  0  0  0  0  0  0  0
  143.0670   74.0480  219.5020 C   0  0  1  0  0  0  0  0  0  0  0  0
  142.7060   75.3670  220.0810 C   0  0  0  0  0  0  0  0  0  0  0  0
  143.4380   76.3780  220.0060 O   0  0  0  0  0  0  0  0  0  0  0  0
  141.4710   75.4900  220.7530 N   0  0  0  0  0  0  0  0  0  0  0  0
  141.0720   76.7620  221.3380 C   0  0  1  0  0  0  0  0  0  0  0  0
  140.6610   77.6590  220.2000 C   0  0  0  0  0  0  0  0  0  0  0  0
  139.7940   78.8110  220.5950 C   0  0  0  0  0  0  0  0  0  0  0  0
  138.7290   78.5210  221.5890 C   0  0  2  0  0  0  0  0  0  0  0  0
  138.9020   79.2070  222.8230 O   0  0  0  0  0  0  0  0  0  0  0  0
  140.1680   79.7760  223.0470 C   0  0  0  0  0  0  0  0  0  0  0  0
  141.0940   79.0370  223.6880 N   0  0  0  0  0  0  0  0  0  0  0  0
  142.3170   79.5920  223.9040 C   0  0  0  0  0  0  0  0  0  0  0  0
  142.5610   80.8850  223.4570 C   0  0  0  0  0  0  0  0  0  0  0  0
  141.5800   81.6220  222.7960 C   0  0  0  0  0  0  0  0  0  0  0  0
  140.3940   81.0230  222.6140 N   0  0  0  0  0  0  0  0  0  0  0  0
  138.6270   77.0300  221.7920 C   0  0  0  0  0  0  0  0  0  0  0  0
  139.9590   76.5710  222.3450 C   0  0  0  0  0  0  0  0  0  0  0  0
  140.0140   71.3160  223.4760 C   0  0  0  0  0  0  0  0  0  0  0  0
  139.4620   70.0520  223.4340 C   0  0  0  0  0  0  0  0  0  0  0  0
  139.4320   69.2130  224.5340 C   0  0  0  0  0  0  0  0  0  0  0  0
  139.9890   69.6970  225.7110 C   0  0  0  0  0  0  0  0  0  0  0  0
  139.9560   68.8510  226.8080 C   0  0  0  0  0  0  0  0  0  0  0  0
  140.5110   69.3200  227.9990 C   0  0  0  0  0  0  0  0  0  0  0  0
  140.5010   68.5310  229.0930 F   0  0  0  0  0  0  0  0  0  0  0  0
  141.0660   70.5940  228.0380 C   0  0  0  0  0  0  0  0  0  0  0  0
  141.0780   71.4040  226.9160 C   0  0  0  0  0  0  0  0  0  0  0  0
  140.5390   70.9580  225.7480 C   0  0  0  0  0  0  0  0  0  0  0  0
  140.5440   71.7480  224.6350 N   0  0  0  0  0  0  0  0  0  0  0  0
  139.9250   70.4120  220.9270 H   0  0  0  0  0  0  0  0  0  0  0  0
  139.1293   71.9758  219.1330 H   0  0  0  0  0  0  0  0  0  0  0  0
  139.7374   73.3491  220.1291 H   0  0  0  0  0  0  0  0  0  0  0  0
  141.2912   73.7566  216.8305 H   0  0  0  0  0  0  0  0  0  0  0  0
  140.8058   75.0300  217.9463 H   0  0  0  0  0  0  0  0  0  0  0  0
  143.2020   74.9709  216.3442 H   0  0  0  0  0  0  0  0  0  0  0  0
  142.8824   76.1399  217.6154 H   0  0  0  0  0  0  0  0  0  0  0  0
  144.3375   73.4155  217.8217 H   0  0  0  0  0  0  0  0  0  0  0  0
  144.8868   74.8987  218.5052 H   0  0  0  0  0  0  0  0  0  0  0  0
  143.4733   73.4286  220.3152 H   0  0  0  0  0  0  0  0  0  0  0  0
  140.8050   74.6760  220.8540 H   0  0  0  0  0  0  0  0  0  0  0  0
  141.9031   77.2197  221.8946 H   0  0  0  0  0  0  0  0  0  0  0  0
  140.1106   77.0516  219.4664 H   0  0  0  0  0  0  0  0  0  0  0  0
  141.5876   78.0918  219.7950 H   0  0  0  0  0  0  0  0  0  0  0  0
  139.3084   79.1928  219.6849 H   0  0  0  0  0  0  0  0  0  0  0  0
  140.4663   79.5300  221.0859 H   0  0  0  0  0  0  0  0  0  0  0  0
  137.7820   78.9031  221.1801 H   0  0  0  0  0  0  0  0  0  0  0  0
  143.1022   79.0250  224.4255 H   0  0  0  0  0  0  0  0  0  0  0  0
  143.5494   81.3364  223.6285 H   0  0  0  0  0  0  0  0  0  0  0  0
  141.7694   82.6457  222.4407 H   0  0  0  0  0  0  0  0  0  0  0  0
  138.4227   76.5306  220.8335 H   0  0  0  0  0  0  0  0  0  0  0  0
  137.8069   76.7811  222.4815 H   0  0  0  0  0  0  0  0  0  0  0  0
  139.8902   75.5041  222.6039 H   0  0  0  0  0  0  0  0  0  0  0  0
  140.1905   77.1752  223.2346 H   0  0  0  0  0  0  0  0  0  0  0  0
  139.0282   69.6969  222.4876 H   0  0  0  0  0  0  0  0  0  0  0  0
  138.9873   68.2084  224.4789 H   0  0  0  0  0  0  0  0  0  0  0  0
  139.5093   67.8479  226.7423 H   0  0  0  0  0  0  0  0  0  0  0  0
  141.5031   70.9646  228.9769 H   0  0  0  0  0  0  0  0  0  0  0  0
  141.5232   72.4085  226.9679 H   0  0  0  0  0  0  0  0  0  0  0  0
  1  2  2  0
  2  3  1  0
  3  4  1  0
  4  5  1  0
  5  6  2  0
  5  7  1  0
  7  8  1  0
  8  9  1  0
  9 10  1  0
 10 11  1  0
 11 12  1  0
 12 13  2  0
 12 14  1  0
 14 15  1  0
 15 16  1  0
 16 17  1  0
 17 18  1  0
 18 19  1  0
 19 20  1  0
 20 21  2  0
 21 22  1  0
 22 23  2  0
 23 24  1  0
 24 25  2  0
 18 26  1  0
 26 27  1  0
  2 28  1  0
 28 29  2  0
 29 30  1  0
 30 31  2  0
 31 32  1  0
 32 33  2  0
 33 34  1  0
 33 35  1  0
 35 36  2  0
 36 37  1  0
 37 38  2  0
 11  7  1  0
 27 15  1  0
 38 28  1  0
 25 20  1  0
 37 31  1  0
  3 39  1  0
  4 40  1  0
  4 41  1  0
  8 42  1  0
  8 43  1  0
  9 44  1  0
  9 45  1  0
 10 46  1  0
 10 47  1  0
 11 48  1  1
 14 49  1  0
 15 50  1  1
 16 51  1  0
 16 52  1  0
 17 53  1  0
 17 54  1  0
 18 55  1  6
 22 56  1  0
 23 57  1  0
 24 58  1  0
 26 59  1  0
 26 60  1  0
 27 61  1  0
 27 62  1  0
 29 63  1  0
 30 64  1  0
 32 65  1  0
 35 66  1  0
 36 67  1  0
M  END
>  <smiles>  (49) 
O=C(NCC(=O)N1CCC[C@H]1C(=O)N[C@H]1CC[C@H](Oc2ncccn2)CC1)c1ccc2cc(F)ccc2n1

>  <score_type>  (49) 
oracle

>  <origin>  (49) 
autodockgpu

>  <m_score__min__energy>  (49) 
-9.4299999999999997

>  <m_primary>  (49) 
energy

>  <rmsd>  (49) 
3.1508670634919085

>  <m_score__min__rmsd>  (49) 
3.1508670634919085

>  <meeko>  (49) 
{"free_energy": -8.24, "intermolecular_energy": -10.62, "internal_energy": -3.18, "cluster_size": 17, "cluster_id": 2, "rank_in_cluster": 12}

>  <energy>  (49) 
-5.84

>  <cluster_rmsd>  (49) 
0.0

>  <cluster>  (49) 
11

$$$$

     RDKit          3D

 67 71  0  0  0  0  0  0  0  0999 V2000
  140.5020   72.1490  221.9320 O   0  0  0  0  0  0  0  0  0  0  0  0
  139.5860   71.9870  222.8080 C   0  0  0  0  0  0  0  0  0  0  0  0
  138.3570   72.7250  222.6800 N   0  0  0  0  0  0  0  0  0  0  0  0
  138.2440   73.6110  221.5510 C   0  0  0  0  0  0  0  0  0  0  0  0
  138.6170   74.9970  221.9450 C   0  0  0  0  0  0  0  0  0  0  0  0
  137.9260   75.7010  222.7270 O   0  0  0  0  0  0  0  0  0  0  0  0
  139.8070   75.5830  221.4290 N   0  0  0  0  0  0  0  0  0  0  0  0
  140.7140   76.4110  222.2030 C   0  0  0  0  0  0  0  0  0  0  0  0
  141.4170   77.2880  221.1630 C   0  0  0  0  0  0  0  0  0  0  0  0
  140.6580   76.9930  219.8620 C   0  0  0  0  0  0  0  0  0  0  0  0
  140.3690   75.5030  220.0930 C   0  0  1  0  0  0  0  0  0  0  0  0
  141.6860   74.8180  220.1060 C   0  0  0  0  0  0  0  0  0  0  0  0
  142.1140   74.1600  221.0790 O   0  0  0  0  0  0  0  0  0  0  0  0
  142.5030   74.9130  218.9580 N   0  0  0  0  0  0  0  0  0  0  0  0
  143.8030   74.2590  218.9210 C   0  0  1  0  0  0  0  0  0  0  0  0
  144.5140   74.6230  220.1970 C   0  0  0  0  0  0  0  0  0  0  0  0
  145.6350   73.7070  220.5710 C   0  0  0  0  0  0  0  0  0  0  0  0
  145.3890   72.2550  220.3750 C   0  0  2  0  0  0  0  0  0  0  0  0
  146.2360   71.6630  219.3990 O   0  0  0  0  0  0  0  0  0  0  0  0
  145.8450   70.4010  218.9170 C   0  0  0  0  0  0  0  0  0  0  0  0
  145.3280   70.3260  217.6740 N   0  0  0  0  0  0  0  0  0  0  0  0
  144.9500   69.1040  217.2130 C   0  0  0  0  0  0  0  0  0  0  0  0
  145.1110   67.9930  218.0320 C   0  0  0  0  0  0  0  0  0  0  0  0
  145.6490   68.1050  219.3130 C   0  0  0  0  0  0  0  0  0  0  0  0
  146.0030   69.3360  219.7130 N   0  0  0  0  0  0  0  0  0  0  0  0
  143.9320   72.0330  220.0540 C   0  0  0  0  0  0  0  0  0  0  0  0
  143.6530   72.7630  218.7580 C   0  0  0  0  0  0  0  0  0  0  0  0
  139.7630   71.0730  223.9300 C   0  0  0  0  0  0  0  0  0  0  0  0
  139.3720   69.7580  223.7700 C   0  0  0  0  0  0  0  0  0  0  0  0
  139.4980   68.8140  224.7730 C   0  0  0  0  0  0  0  0  0  0  0  0
  140.0430   69.2420  225.9770 C   0  0  0  0  0  0  0  0  0  0  0  0
  140.1660   68.2910  226.9780 C   0  0  0  0  0  0  0  0  0  0  0  0
  140.7120   68.7030  228.1930 C   0  0  0  0  0  0  0  0  0  0  0  0
  140.8500   67.8100  229.1960 F   0  0  0  0  0  0  0  0  0  0  0  0
  141.1050   70.0270  228.3520 C   0  0  0  0  0  0  0  0  0  0  0  0
  140.9630   70.9430  227.3240 C   0  0  0  0  0  0  0  0  0  0  0  0
  140.4320   70.5530  226.1330 C   0  0  0  0  0  0  0  0  0  0  0  0
  140.2870   71.4480  225.1120 N   0  0  0  0  0  0  0  0  0  0  0  0
  137.5940   72.6000  223.3960 H   0  0  0  0  0  0  0  0  0  0  0  0
  138.9163   73.2675  220.7510 H   0  0  0  0  0  0  0  0  0  0  0  0
  137.2032   73.6072  221.1949 H   0  0  0  0  0  0  0  0  0  0  0  0
  140.1572   77.0307  222.9213 H   0  0  0  0  0  0  0  0  0  0  0  0
  141.4238   75.8134  222.7939 H   0  0  0  0  0  0  0  0  0  0  0  0
  141.3381   78.3522  221.4300 H   0  0  0  0  0  0  0  0  0  0  0  0
  142.4934   77.0754  221.0850 H   0  0  0  0  0  0  0  0  0  0  0  0
  139.7348   77.5852  219.7785 H   0  0  0  0  0  0  0  0  0  0  0  0
  141.1950   77.2348  218.9329 H   0  0  0  0  0  0  0  0  0  0  0  0
  139.7288   74.9781  219.3687 H   0  0  0  0  0  0  0  0  0  0  0  0
  142.2030   75.4530  218.1010 H   0  0  0  0  0  0  0  0  0  0  0  0
  144.3914   74.5964  218.0550 H   0  0  0  0  0  0  0  0  0  0  0  0
  143.7775   74.6145  221.0140 H   0  0  0  0  0  0  0  0  0  0  0  0
  144.9641   75.6127  220.0303 H   0  0  0  0  0  0  0  0  0  0  0  0
  145.8594   73.8686  221.6357 H   0  0  0  0  0  0  0  0  0  0  0  0
  146.4613   73.9600  219.8904 H   0  0  0  0  0  0  0  0  0  0  0  0
  145.6402   71.7469  221.3177 H   0  0  0  0  0  0  0  0  0  0  0  0
  144.5225   68.9963  216.2052 H   0  0  0  0  0  0  0  0  0  0  0  0
  144.8071   67.0030  217.6611 H   0  0  0  0  0  0  0  0  0  0  0  0
  145.7771   67.2276  219.9639 H   0  0  0  0  0  0  0  0  0  0  0  0
  143.3011   72.4370  220.8594 H   0  0  0  0  0  0  0  0  0  0  0  0
  143.7081   70.9603  219.9586 H   0  0  0  0  0  0  0  0  0  0  0  0
  142.6251   72.5398  218.4362 H   0  0  0  0  0  0  0  0  0  0  0  0
  144.3811   72.4230  218.0068 H   0  0  0  0  0  0  0  0  0  0  0  0
  138.9428   69.4489  222.8055 H   0  0  0  0  0  0  0  0  0  0  0  0
  139.1809   67.7713  224.6240 H   0  0  0  0  0  0  0  0  0  0  0  0
  139.8450   67.2508  226.8198 H   0  0  0  0  0  0  0  0  0  0  0  0
  141.5359   70.3520  229.3105 H   0  0  0  0  0  0  0  0  0  0  0  0
  141.2794   71.9864  227.4697 H   0  0  0  0  0  0  0  0  0  0  0  0
  1  2  2  0
  2  3  1  0
  3  4  1  0
  4  5  1  0
  5  6  2  0
  5  7  1  0
  7  8  1  0
  8  9  1  0
  9 10  1  0
 10 11  1  0
 11 12  1  0
 12 13  2  0
 12 14  1  0
 14 15  1  0
 15 16  1  0
 16 17  1  0
 17 18  1  0
 18 19  1  0
 19 20  1  0
 20 21  2  0
 21 22  1  0
 22 23  2  0
 23 24  1  0
 24 25  2  0
 18 26  1  0
 26 27  1  0
  2 28  1  0
 28 29  2  0
 29 30  1  0
 30 31  2  0
 31 32  1  0
 32 33  2  0
 33 34  1  0
 33 35  1  0
 35 36  2  0
 36 37  1  0
 37 38  2  0
 11  7  1  0
 27 15  1  0
 38 28  1  0
 25 20  1  0
 37 31  1  0
  3 39  1  0
  4 40  1  0
  4 41  1  0
  8 42  1  0
  8 43  1  0
  9 44  1  0
  9 45  1  0
 10 46  1  0
 10 47  1  0
 11 48  1  6
 14 49  1  0
 15 50  1  6
 16 51  1  0
 16 52  1  0
 17 53  1  0
 17 54  1  0
 18 55  1  1
 22 56  1  0
 23 57  1  0
 24 58  1  0
 26 59  1  0
 26 60  1  0
 27 61  1  0
 27 62  1  0
 29 63  1  0
 30 64  1  0
 32 65  1  0
 35 66  1  0
 36 67  1  0
M  END
>  <smiles>  (50) 
O=C(NCC(=O)N1CCC[C@H]1C(=O)N[C@H]1CC[C@H](Oc2ncccn2)CC1)c1ccc2cc(F)ccc2n1

>  <score_type>  (50) 
oracle

>  <origin>  (50) 
autodockgpu

>  <m_score__min__energy>  (50) 
-9.4299999999999997

>  <m_primary>  (50) 
energy

>  <rmsd>  (50) 
4.658781170195589

>  <m_score__min__rmsd>  (50) 
4.658781170195589

>  <meeko>  (50) 
{"free_energy": -9.25, "intermolecular_energy": -11.63, "internal_energy": -2.08, "cluster_size": 15, "cluster_id": 1, "rank_in_cluster": 3}

>  <energy>  (50) 
-5.56

>  <cluster_rmsd>  (50) 
0.0

>  <cluster>  (50) 
12

$$$$
