@<TRIPOS>MOLECULE
*****
 60 64 0 0 0
SMALL
GASTEIGER

@<TRIPOS>ATOM
      1 C         140.6990   70.8780  227.9600 C.ar    1  UNL1       -0.0617
      2 C         139.9420   69.7990  227.4830 C.ar    1  UNL1       -0.0615
      3 C         139.6440   69.7880  226.1350 C.ar    1  UNL1       -0.0571
      4 C         140.0700   70.7940  225.2740 C.ar    1  UNL1       -0.0303
      5 C         139.6630   70.6340  223.8460 C.3     1  UNL1        0.0370
      6 N         139.1350   71.8940  223.3260 N.pl3   1  UNL1       -0.3092
      7 C         139.9030   72.8050  222.5720 C.ar    1  UNL1        0.2213
      8 N         140.9010   72.3320  221.7970 N.ar    1  UNL1       -0.1810
      9 C         141.6010   73.2120  221.0620 C.ar    1  UNL1        0.2211
     10 N         142.6560   72.6760  220.2610 N.pl3   1  UNL1       -0.3130
     11 C         143.9940   72.7810  220.7440 C.3     1  UNL1        0.0158
     12 C         144.6600   74.1060  220.4740 C.3     1  UNL1       -0.0106
     13 C         144.0200   74.9090  219.4290 C.ar    1  UNL1       -0.0278
     14 C         143.6290   76.2200  219.7190 C.ar    1  UNL1       -0.0557
     15 C         143.0260   77.0120  218.7730 C.ar    1  UNL1       -0.0433
     16 C         142.7920   76.5300  217.5100 C.ar    1  UNL1        0.0276
     17 N         143.1740   75.2690  217.2480 N.ar    1  UNL1       -0.2630
     18 C         143.7640   74.4600  218.1390 C.ar    1  UNL1        0.0308
     19 N         141.3050   74.5130  221.1120 N.ar    1  UNL1       -0.1809
     20 C         140.2980   75.0060  221.8940 C.ar    1  UNL1        0.2240
     21 N         140.0080   76.4170  221.9070 N.pl3   1  UNL1       -0.2948
     22 C         138.7420   76.8540  222.3790 C.3     1  UNL1        0.0192
     23 C         138.5880   78.3380  222.3940 C.3     1  UNL1       -0.0115
     24 C         139.8950   78.9650  222.7110 C.ar    1  UNL1       -0.0412
     25 C         139.9580   80.1120  223.5060 C.ar    1  UNL1       -0.0582
     26 C         141.1850   80.7050  223.8040 C.ar    1  UNL1       -0.0615
     27 C         142.3710   80.1880  223.3290 C.ar    1  UNL1       -0.0614
     28 C         142.3190   79.0580  222.5440 C.ar    1  UNL1       -0.0568
     29 C         141.1000   78.4820  222.2580 C.ar    1  UNL1       -0.0269
     30 C         141.0690   77.2720  221.4060 C.3     1  UNL1        0.0402
     31 N         139.5880   74.1250  222.6350 N.ar    1  UNL1       -0.1809
     32 C         140.8120   71.8550  225.7360 C.ar    1  UNL1       -0.0571
     33 C         141.1070   71.8610  227.0900 C.ar    1  UNL1       -0.0615
     34 H         140.9654   70.9379  229.0256 H       1  UNL1        0.0618
     35 H         139.6004   68.9964  228.1532 H       1  UNL1        0.0618
     36 H         139.0500   68.9562  225.7284 H       1  UNL1        0.0621
     37 H         140.5378   70.3336  223.2506 H       1  UNL1        0.0512
     38 H         138.8807   69.8634  223.7805 H       1  UNL1        0.0512
     39 H         138.1130   72.1160  223.5350 H       1  UNL1        0.1492
     40 H         142.3570   72.2380  219.3600 H       1  UNL1        0.1489
     41 H         143.9788   72.6208  221.8322 H       1  UNL1        0.0465
     42 H         144.5796   72.0234  220.2026 H       1  UNL1        0.0465
     43 H         144.6542   74.6892  221.4066 H       1  UNL1        0.0329
     44 H         145.6740   73.8774  220.1141 H       1  UNL1        0.0329
     45 H         143.8082   76.6252  220.7258 H       1  UNL1        0.0621
     46 H         142.7287   78.0395  219.0295 H       1  UNL1        0.0633
     47 H         142.3101   77.1522  216.7414 H       1  UNL1        0.0829
     48 H         144.0465   73.4374  217.8482 H       1  UNL1        0.0832
     49 H         137.9633   76.4304  221.7277 H       1  UNL1        0.0468
     50 H         138.6505   76.5104  223.4199 H       1  UNL1        0.0468
     51 H         138.2458   78.6816  221.4067 H       1  UNL1        0.0328
     52 H         137.8485   78.6234  223.1567 H       1  UNL1        0.0328
     53 H         139.0305   80.5521  223.9011 H       1  UNL1        0.0620
     54 H         141.2065   81.6070  224.4333 H       1  UNL1        0.0618
     55 H         143.3324   80.6649  223.5703 H       1  UNL1        0.0618
     56 H         143.2455   78.6173  222.1472 H       1  UNL1        0.0621
     57 H         140.8651   77.5521  220.3620 H       1  UNL1        0.0514
     58 H         142.0366   76.7497  221.4367 H       1  UNL1        0.0514
     59 H         141.1538   72.6575  225.0658 H       1  UNL1        0.0621
     60 H         141.6993   72.6971  227.4900 H       1  UNL1        0.0618
@<TRIPOS>BOND
     1     1     2   ar
     2     2     3   ar
     3     3     4   ar
     4     4     5    1
     5     5     6    1
     6     6     7    1
     7     7     8   ar
     8     8     9   ar
     9     9    10    1
    10    10    11    1
    11    11    12    1
    12    12    13    1
    13    13    14   ar
    14    14    15   ar
    15    15    16   ar
    16    16    17   ar
    17    17    18   ar
    18     9    19   ar
    19    19    20   ar
    20    20    21    1
    21    21    22    1
    22    22    23    1
    23    23    24    1
    24    24    25   ar
    25    25    26   ar
    26    26    27   ar
    27    27    28   ar
    28    28    29   ar
    29    29    30    1
    30    20    31   ar
    31     4    32   ar
    32    32    33   ar
    33    33     1   ar
    34    31     7   ar
    35    18    13   ar
    36    30    21    1
    37    29    24   ar
    38     1    34    1
    39     2    35    1
    40     3    36    1
    41     5    37    1
    42     5    38    1
    43     6    39    1
    44    10    40    1
    45    11    41    1
    46    11    42    1
    47    12    43    1
    48    12    44    1
    49    14    45    1
    50    15    46    1
    51    16    47    1
    52    18    48    1
    53    22    49    1
    54    22    50    1
    55    23    51    1
    56    23    52    1
    57    25    53    1
    58    26    54    1
    59    27    55    1
    60    28    56    1
    61    30    57    1
    62    30    58    1
    63    32    59    1
    64    33    60    1
