@<TRIPOS>MOLECULE
*****
 79 85 0 0 0
SMALL
GASTEIGER

@<TRIPOS>ATOM
      1 C         138.2700   80.5350  224.4690 C.3     1  UNL1       -0.0222
      2 C         137.9150   80.4460  223.0360 C.ar    1  UNL1        0.0433
      3 C         138.5410   81.2960  222.1240 C.ar    1  UNL1       -0.0224
      4 C         138.1740   81.1740  220.7990 C.ar    1  UNL1        0.0329
      5 N         137.2600   80.2900  220.3640 N.ar    1  UNL1       -0.2227
      6 C         136.6720   79.4830  221.2740 C.ar    1  UNL1        0.2180
      7 N         135.7100   78.5630  220.7760 N.pl3   1  UNL1       -0.2979
      8 C         134.3220   78.7030  221.1710 C.3     1  UNL1        0.0150
      9 C         133.9890   77.4990  222.0130 C.3     1  UNL1       -0.0354
     10 C         134.9530   76.3620  221.8340 C.3     1  UNL1       -0.0316
     11 C         135.3310   76.2320  220.3720 C.3     1  UNL1        0.0391
     12 N         136.1840   75.0960  220.1370 N.pl3   1  UNL1       -0.3090
     13 C         137.4430   74.9040  220.7680 C.ar    1  UNL1        0.2213
     14 N         137.7980   73.7610  221.3800 N.ar    1  UNL1       -0.1809
     15 C         139.0190   73.6650  221.9560 C.ar    1  UNL1        0.2238
     16 N         139.3880   72.4640  222.6010 N.pl3   1  UNL1       -0.2965
     17 C         140.7310   72.2350  223.1200 C.3     1  UNL1        0.0307
     18 C         140.6870   71.7750  224.5600 C.3     1  UNL1        0.0294
     19 N         139.6300   70.7920  224.7670 N.pl3   1  UNL1       -0.3122
     20 C         139.9220   69.5580  225.4050 C.ar    1  UNL1        0.1213
     21 C         140.7450   69.4290  226.4960 C.ar    1  UNL1       -0.0217
     22 C         141.0190   68.2100  227.1040 C.ar    1  UNL1       -0.0571
     23 C         140.4280   67.0870  226.5730 C.ar    1  UNL1       -0.0435
     24 C         139.6120   67.2540  225.4840 C.ar    1  UNL1        0.0297
     25 N         139.3650   68.4350  224.9190 N.ar    1  UNL1       -0.2403
     26 C         138.3120   71.1650  224.2920 C.3     1  UNL1        0.0294
     27 C         138.4410   71.3740  222.7790 C.3     1  UNL1        0.0307
     28 N         139.8990   74.6840  221.9350 N.ar    1  UNL1       -0.1807
     29 C         139.5610   75.8340  221.3270 C.ar    1  UNL1        0.2240
     30 N         140.4380   76.9570  221.2570 N.pl3   1  UNL1       -0.2948
     31 C         140.6020   77.6380  219.9930 C.3     1  UNL1        0.0192
     32 C         141.2820   78.9520  220.0510 C.3     1  UNL1       -0.0115
     33 C         141.4350   79.5450  221.3860 C.ar    1  UNL1       -0.0412
     34 C         141.6590   80.9270  221.4430 C.ar    1  UNL1       -0.0582
     35 C         141.8040   81.4840  222.6850 C.ar    1  UNL1       -0.0615
     36 C         141.7420   80.7630  223.8590 C.ar    1  UNL1       -0.0614
     37 C         141.5180   79.3920  223.7830 C.ar    1  UNL1       -0.0568
     38 C         141.3710   78.8170  222.5470 C.ar    1  UNL1       -0.0269
     39 C         141.1340   77.3700  222.4590 C.3     1  UNL1        0.0402
     40 N         138.3470   75.8960  220.7680 N.ar    1  UNL1       -0.1809
     41 C         136.0560   77.4670  219.8750 C.3     1  UNL1        0.0333
     42 N         137.0030   79.5700  222.5730 N.ar    1  UNL1       -0.2196
     43 H         137.3833   80.3127  225.0809 H       1  UNL1        0.0293
     44 H         139.0638   79.8081  224.6959 H       1  UNL1        0.0293
     45 H         138.6269   81.5504  224.6959 H       1  UNL1        0.0293
     46 H         139.2935   82.0307  222.4464 H       1  UNL1        0.0651
     47 H         138.6541   81.8340  220.0615 H       1  UNL1        0.0831
     48 H         134.1852   79.6245  221.7560 H       1  UNL1        0.0464
     49 H         133.6643   78.7654  220.2915 H       1  UNL1        0.0464
     50 H         133.9973   77.8001  223.0710 H       1  UNL1        0.0281
     51 H         133.0002   77.1405  221.6909 H       1  UNL1        0.0281
     52 H         135.8580   76.5539  222.4291 H       1  UNL1        0.0284
     53 H         134.4784   75.4283  222.1699 H       1  UNL1        0.0284
     54 H         134.3846   76.1035  219.8263 H       1  UNL1        0.0514
     55 H         135.8400   74.3770  219.4590 H       1  UNL1        0.1492
     56 H         141.2247   71.4632  222.5112 H       1  UNL1        0.0480
     57 H         141.2901   73.1811  223.0723 H       1  UNL1        0.0480
     58 H         141.6546   71.3221  224.8218 H       1  UNL1        0.0480
     59 H         140.4818   72.6470  225.1983 H       1  UNL1        0.0480
     60 H         141.2107   70.3357  226.9095 H       1  UNL1        0.0652
     61 H         141.6840   68.1453  227.9778 H       1  UNL1        0.0619
     62 H         140.6037   66.0913  227.0063 H       1  UNL1        0.0633
     63 H         139.1341   66.3623  225.0522 H       1  UNL1        0.0830
     64 H         137.5897   70.3632  224.5052 H       1  UNL1        0.0480
     65 H         137.9510   72.0763  224.7913 H       1  UNL1        0.0480
     66 H         138.8173   70.4591  222.2981 H       1  UNL1        0.0480
     67 H         137.4684   71.6082  222.3216 H       1  UNL1        0.0480
     68 H         141.1884   76.9838  219.3310 H       1  UNL1        0.0468
     69 H         139.5839   77.8448  219.6315 H       1  UNL1        0.0468
     70 H         142.2871   78.8289  219.6213 H       1  UNL1        0.0328
     71 H         140.6329   79.6440  219.4943 H       1  UNL1        0.0328
     72 H         141.7158   81.5376  220.5298 H       1  UNL1        0.0620
     73 H         141.9799   82.5679  222.7503 H       1  UNL1        0.0618
     74 H         141.8667   81.2601  224.8323 H       1  UNL1        0.0618
     75 H         141.4600   78.7815  224.6962 H       1  UNL1        0.0621
     76 H         142.1072   76.8581  222.4880 H       1  UNL1        0.0514
     77 H         140.4878   77.1020  223.3079 H       1  UNL1        0.0514
     78 H         137.1427   77.2970  219.8883 H       1  UNL1        0.0483
     79 H         135.7616   77.7032  218.8418 H       1  UNL1        0.0483
@<TRIPOS>BOND
     1     1     2    1
     2     2     3   ar
     3     3     4   ar
     4     4     5   ar
     5     5     6   ar
     6     6     7    1
     7     7     8    1
     8     8     9    1
     9     9    10    1
    10    10    11    1
    11    11    12    1
    12    12    13    1
    13    13    14   ar
    14    14    15   ar
    15    15    16    1
    16    16    17    1
    17    17    18    1
    18    18    19    1
    19    19    20    1
    20    20    21   ar
    21    21    22   ar
    22    22    23   ar
    23    23    24   ar
    24    24    25   ar
    25    19    26    1
    26    26    27    1
    27    15    28   ar
    28    28    29   ar
    29    29    30    1
    30    30    31    1
    31    31    32    1
    32    32    33    1
    33    33    34   ar
    34    34    35   ar
    35    35    36   ar
    36    36    37   ar
    37    37    38   ar
    38    38    39    1
    39    29    40   ar
    40    11    41    1
    41     6    42   ar
    42    42     2   ar
    43    41     7    1
    44    40    13   ar
    45    27    16    1
    46    39    30    1
    47    25    20   ar
    48    38    33   ar
    49     1    43    1
    50     1    44    1
    51     1    45    1
    52     3    46    1
    53     4    47    1
    54     8    48    1
    55     8    49    1
    56     9    50    1
    57     9    51    1
    58    10    52    1
    59    10    53    1
    60    11    54    1
    61    12    55    1
    62    17    56    1
    63    17    57    1
    64    18    58    1
    65    18    59    1
    66    21    60    1
    67    22    61    1
    68    23    62    1
    69    24    63    1
    70    26    64    1
    71    26    65    1
    72    27    66    1
    73    27    67    1
    74    31    68    1
    75    31    69    1
    76    32    70    1
    77    32    71    1
    78    34    72    1
    79    35    73    1
    80    36    74    1
    81    37    75    1
    82    39    76    1
    83    39    77    1
    84    41    78    1
    85    41    79    1
