
     RDKit          3D

 56 61  0  0  0  0  0  0  0  0999 V2000
  139.2070   70.5030  221.9980 O   0  0  0  0  0  0  0  0  0  0  0  0
  139.6510   71.4090  222.7970 C   0  0  0  0  0  0  0  0  0  0  0  0
  139.9280   70.9190  224.1240 C   0  0  0  0  0  0  0  0  0  0  0  0
  140.3360   71.5140  225.2840 C   0  0  0  0  0  0  0  0  0  0  0  0
  140.4860   70.5720  226.2710 C   0  0  0  0  0  0  0  0  0  0  0  0
  140.8760   70.6660  227.5970 C   0  0  0  0  0  0  0  0  0  0  0  0
  141.1980   71.8520  228.1740 F   0  0  0  0  0  0  0  0  0  0  0  0
  140.9220   69.4830  228.3240 C   0  0  0  0  0  0  0  0  0  0  0  0
  140.5950   68.2530  227.7560 C   0  0  0  0  0  0  0  0  0  0  0  0
  140.2090   68.1920  226.4290 C   0  0  0  0  0  0  0  0  0  0  0  0
  140.1600   69.3700  225.6990 C   0  0  0  0  0  0  0  0  0  0  0  0
  139.8320   69.5950  224.4280 N   0  0  0  0  0  0  0  0  0  0  0  0
  139.7820   72.6890  222.2560 N   0  0  0  0  0  0  0  0  0  0  0  0
  141.1050   73.2970  221.9610 C   0  0  0  0  0  0  0  0  0  0  0  0
  140.8510   74.1180  220.7300 C   0  0  2  0  0  0  0  0  0  0  0  0
  140.9680   73.2960  219.4930 C   0  0  0  0  0  0  0  0  0  0  0  0
  141.8790   74.1340  218.5970 C   0  0  0  0  0  0  0  0  0  0  0  0
  142.5790   75.0260  219.4110 N   0  0  0  0  0  0  0  0  0  0  0  0
  143.9350   74.9330  219.6980 C   0  0  0  0  0  0  0  0  0  0  0  0
  144.4280   73.9420  220.6860 C   0  0  0  0  0  0  0  0  0  0  0  0
  144.4300   72.4910  220.4040 C   0  0  0  0  0  0  0  0  0  0  0  0
  145.9260   72.5220  220.1700 C   0  0  0  0  0  0  0  0  0  0  0  0
  145.9410   73.8990  220.8490 C   0  0  0  0  0  0  0  0  0  0  0  0
  141.7980   75.2820  220.5970 C   0  0  0  0  0  0  0  0  0  0  0  0
  139.4440   74.5550  220.9360 C   0  0  0  0  0  0  0  0  0  0  0  0
  138.6990   75.6000  220.4150 C   0  0  0  0  0  0  0  0  0  0  0  0
  137.3780   75.8150  220.7670 C   0  0  0  0  0  0  0  0  0  0  0  0
  136.8100   74.9370  221.6730 C   0  0  0  0  0  0  0  0  0  0  0  0
  137.5590   73.8980  222.1880 C   0  0  0  0  0  0  0  0  0  0  0  0
  138.8680   73.6770  221.8450 C   0  0  0  0  0  0  0  0  0  0  0  0
  140.5179   72.5916  225.4090 H   0  0  0  0  0  0  0  0  0  0  0  0
  141.2259   69.5182  229.3806 H   0  0  0  0  0  0  0  0  0  0  0  0
  140.6436   67.3350  228.3601 H   0  0  0  0  0  0  0  0  0  0  0  0
  139.9468   67.2306  225.9633 H   0  0  0  0  0  0  0  0  0  0  0  0
  139.5340   68.8240  223.7610 H   0  0  0  0  0  0  0  0  0  0  0  0
  141.4397   73.9322  222.7943 H   0  0  0  0  0  0  0  0  0  0  0  0
  141.8971   72.5472  221.8182 H   0  0  0  0  0  0  0  0  0  0  0  0
  141.4219   72.3181  219.7115 H   0  0  0  0  0  0  0  0  0  0  0  0
  139.9949   73.0751  219.0301 H   0  0  0  0  0  0  0  0  0  0  0  0
  142.5856   73.4794  218.0659 H   0  0  0  0  0  0  0  0  0  0  0  0
  141.2842   74.6818  217.8513 H   0  0  0  0  0  0  0  0  0  0  0  0
  144.4440   74.7116  218.7483 H   0  0  0  0  0  0  0  0  0  0  0  0
  144.1525   75.8960  220.1830 H   0  0  0  0  0  0  0  0  0  0  0  0
  143.7384   74.2977  221.4658 H   0  0  0  0  0  0  0  0  0  0  0  0
  144.1244   71.8695  221.2586 H   0  0  0  0  0  0  0  0  0  0  0  0
  143.7602   72.0779  219.6354 H   0  0  0  0  0  0  0  0  0  0  0  0
  146.4893   71.7421  220.7034 H   0  0  0  0  0  0  0  0  0  0  0  0
  146.3568   72.3672  219.1698 H   0  0  0  0  0  0  0  0  0  0  0  0
  146.2872   73.8890  221.8930 H   0  0  0  0  0  0  0  0  0  0  0  0
  146.5803   74.7136  220.4779 H   0  0  0  0  0  0  0  0  0  0  0  0
  142.4522   75.3452  221.4791 H   0  0  0  0  0  0  0  0  0  0  0  0
  141.2557   76.2362  220.5240 H   0  0  0  0  0  0  0  0  0  0  0  0
  139.1743   76.2833  219.6958 H   0  0  0  0  0  0  0  0  0  0  0  0
  136.8023   76.6510  220.3432 H   0  0  0  0  0  0  0  0  0  0  0  0
  135.7625   75.0667  221.9827 H   0  0  0  0  0  0  0  0  0  0  0  0
  137.0833   73.2153  222.9074 H   0  0  0  0  0  0  0  0  0  0  0  0
  1  2  2  0
  2  3  1  0
  3  4  2  0
  4  5  1  0
  5  6  2  0
  6  7  1  0
  6  8  1  0
  8  9  2  0
  9 10  1  0
 10 11  2  0
 11 12  1  0
  2 13  1  0
 13 14  1  0
 15 14  1  1
 15 16  1  0
 16 17  1  0
 17 18  1  0
 18 19  1  0
 19 20  1  0
 20 21  1  0
 21 22  1  0
 22 23  1  0
 18 24  1  0
 15 25  1  0
 25 26  2  0
 26 27  1  0
 27 28  2  0
 28 29  1  0
 29 30  2  0
 12  3  1  0
 30 13  1  0
 11  5  1  0
 24 15  1  0
 30 25  1  0
 23 20  1  0
  4 31  1  0
  8 32  1  0
  9 33  1  0
 10 34  1  0
 12 35  1  0
 14 36  1  0
 14 37  1  0
 16 38  1  0
 16 39  1  0
 17 40  1  0
 17 41  1  0
 19 42  1  0
 19 43  1  0
 20 44  1  0
 21 45  1  0
 21 46  1  0
 22 47  1  0
 22 48  1  0
 23 49  1  0
 23 50  1  0
 24 51  1  0
 24 52  1  0
 26 53  1  0
 27 54  1  0
 28 55  1  0
 29 56  1  0
M  END
>  <smiles>  (1) 
O=C(c1cc2c(F)cccc2[nH]1)N1C[C@@]2(CCN(CC3CCC3)C2)c2ccccc21

>  <score_type>  (1) 
oracle

>  <origin>  (1) 
autodockgpu

>  <m_score__min__energy>  (1) 
-8.1199999999999992

>  <m_primary>  (1) 
energy

>  <rmsd>  (1) 
4.62564156767657

>  <m_score__min__rmsd>  (1) 
4.62564156767657

>  <meeko>  (1) 
{"free_energy": -7.79, "intermolecular_energy": -8.98, "internal_energy": -1.61, "cluster_size": 22, "cluster_id": 4, "rank_in_cluster": 14}

>  <energy>  (1) 
-8.12

>  <cluster_rmsd>  (1) 
0.0

>  <cluster>  (1) 
1

$$$$

     RDKit          3D

 56 61  0  0  0  0  0  0  0  0999 V2000
  139.1490   70.4830  221.9870 O   0  0  0  0  0  0  0  0  0  0  0  0
  139.6300   71.3890  222.7640 C   0  0  0  0  0  0  0  0  0  0  0  0
  139.9350   70.9070  224.0880 C   0  0  0  0  0  0  0  0  0  0  0  0
  140.3680   71.5090  225.2350 C   0  0  0  0  0  0  0  0  0  0  0  0
  140.5370   70.5730  226.2240 C   0  0  0  0  0  0  0  0  0  0  0  0
  140.9550   70.6760  227.5410 C   0  0  0  0  0  0  0  0  0  0  0  0
  141.2900   71.8640  228.1040 F   0  0  0  0  0  0  0  0  0  0  0  0
  141.0150   69.4970  228.2750 C   0  0  0  0  0  0  0  0  0  0  0  0
  140.6750   68.2640  227.7220 C   0  0  0  0  0  0  0  0  0  0  0  0
  140.2610   68.1940  226.4040 C   0  0  0  0  0  0  0  0  0  0  0  0
  140.1980   69.3670  225.6670 C   0  0  0  0  0  0  0  0  0  0  0  0
  139.8440   69.5850  224.4020 N   0  0  0  0  0  0  0  0  0  0  0  0
  139.7700   72.6610  222.2050 N   0  0  0  0  0  0  0  0  0  0  0  0
  141.0970   73.2850  221.9700 C   0  0  0  0  0  0  0  0  0  0  0  0
  140.8960   74.0790  220.7100 C   0  0  2  0  0  0  0  0  0  0  0  0
  141.0920   73.2370  219.4970 C   0  0  0  0  0  0  0  0  0  0  0  0
  142.0360   74.0730  218.6350 C   0  0  0  0  0  0  0  0  0  0  0  0
  142.6770   74.9920  219.4680 N   0  0  0  0  0  0  0  0  0  0  0  0
  144.0170   74.9260  219.8270 C   0  0  0  0  0  0  0  0  0  0  0  0
  144.5030   73.8520  220.7290 C   0  0  0  0  0  0  0  0  0  0  0  0
  144.4580   72.4260  220.3420 C   0  0  0  0  0  0  0  0  0  0  0  0
  145.9480   72.4340  220.0780 C   0  0  0  0  0  0  0  0  0  0  0  0
  146.0170   73.7560  220.8550 C   0  0  0  0  0  0  0  0  0  0  0  0
  141.8310   75.2560  220.6060 C   0  0  0  0  0  0  0  0  0  0  0  0
  139.4740   74.4960  220.8340 C   0  0  0  0  0  0  0  0  0  0  0  0
  138.7410   75.5190  220.2540 C   0  0  0  0  0  0  0  0  0  0  0  0
  137.4000   75.7190  220.5320 C   0  0  0  0  0  0  0  0  0  0  0  0
  136.7980   74.8480  221.4240 C   0  0  0  0  0  0  0  0  0  0  0  0
  137.5360   73.8310  221.9970 C   0  0  0  0  0  0  0  0  0  0  0  0
  138.8640   73.6260  221.7280 C   0  0  0  0  0  0  0  0  0  0  0  0
  140.5541   72.5871  225.3493 H   0  0  0  0  0  0  0  0  0  0  0  0
  141.3409   69.5387  229.3248 H   0  0  0  0  0  0  0  0  0  0  0  0
  140.7356   67.3500  228.3311 H   0  0  0  0  0  0  0  0  0  0  0  0
  139.9879   67.2296  225.9507 H   0  0  0  0  0  0  0  0  0  0  0  0
  139.5310   68.8100  223.7460 H   0  0  0  0  0  0  0  0  0  0  0  0
  141.3762   73.9413  222.8074 H   0  0  0  0  0  0  0  0  0  0  0  0
  141.9076   72.5463  221.8850 H   0  0  0  0  0  0  0  0  0  0  0  0
  141.5488   72.2710  219.7579 H   0  0  0  0  0  0  0  0  0  0  0  0
  140.1486   72.9918  218.9872 H   0  0  0  0  0  0  0  0  0  0  0  0
  142.7805   73.4206  218.1554 H   0  0  0  0  0  0  0  0  0  0  0  0
  141.4736   74.5966  217.8478 H   0  0  0  0  0  0  0  0  0  0  0  0
  144.5897   74.8357  218.8922 H   0  0  0  0  0  0  0  0  0  0  0  0
  144.1573   75.8364  220.4282 H   0  0  0  0  0  0  0  0  0  0  0  0
  143.8403   74.1686  221.5479 H   0  0  0  0  0  0  0  0  0  0  0  0
  144.1521   71.7518  221.1556 H   0  0  0  0  0  0  0  0  0  0  0  0
  143.7614   72.0886  219.5604 H   0  0  0  0  0  0  0  0  0  0  0  0
  146.4994   71.6019  220.5402 H   0  0  0  0  0  0  0  0  0  0  0  0
  146.3536   72.3419  219.0597 H   0  0  0  0  0  0  0  0  0  0  0  0
  146.3837   73.6597  221.8876 H   0  0  0  0  0  0  0  0  0  0  0  0
  146.6722   74.5778  220.5305 H   0  0  0  0  0  0  0  0  0  0  0  0
  142.4365   75.3451  221.5200 H   0  0  0  0  0  0  0  0  0  0  0  0
  141.2789   76.2000  220.4874 H   0  0  0  0  0  0  0  0  0  0  0  0
  139.2429   76.1963  219.5474 H   0  0  0  0  0  0  0  0  0  0  0  0
  136.8348   76.5377  220.0627 H   0  0  0  0  0  0  0  0  0  0  0  0
  135.7337   74.9658  221.6759 H   0  0  0  0  0  0  0  0  0  0  0  0
  137.0339   73.1532  222.7030 H   0  0  0  0  0  0  0  0  0  0  0  0
  1  2  2  0
  2  3  1  0
  3  4  2  0
  4  5  1  0
  5  6  2  0
  6  7  1  0
  6  8  1  0
  8  9  2  0
  9 10  1  0
 10 11  2  0
 11 12  1  0
  2 13  1  0
 13 14  1  0
 15 14  1  1
 15 16  1  0
 16 17  1  0
 17 18  1  0
 18 19  1  0
 19 20  1  0
 20 21  1  0
 21 22  1  0
 22 23  1  0
 18 24  1  0
 15 25  1  0
 25 26  2  0
 26 27  1  0
 27 28  2  0
 28 29  1  0
 29 30  2  0
 12  3  1  0
 30 13  1  0
 11  5  1  0
 24 15  1  0
 30 25  1  0
 23 20  1  0
  4 31  1  0
  8 32  1  0
  9 33  1  0
 10 34  1  0
 12 35  1  0
 14 36  1  0
 14 37  1  0
 16 38  1  0
 16 39  1  0
 17 40  1  0
 17 41  1  0
 19 42  1  0
 19 43  1  0
 20 44  1  0
 21 45  1  0
 21 46  1  0
 22 47  1  0
 22 48  1  0
 23 49  1  0
 23 50  1  0
 24 51  1  0
 24 52  1  0
 26 53  1  0
 27 54  1  0
 28 55  1  0
 29 56  1  0
M  END
>  <smiles>  (2) 
O=C(c1cc2c(F)cccc2[nH]1)N1C[C@@]2(CCN(CC3CCC3)C2)c2ccccc21

>  <score_type>  (2) 
oracle

>  <origin>  (2) 
autodockgpu

>  <m_score__min__energy>  (2) 
-8.1199999999999992

>  <m_primary>  (2) 
energy

>  <rmsd>  (2) 
4.594886764212384

>  <m_score__min__rmsd>  (2) 
4.594886764212384

>  <meeko>  (2) 
{"free_energy": -7.85, "intermolecular_energy": -9.04, "internal_energy": -1.59, "cluster_size": 22, "cluster_id": 4, "rank_in_cluster": 1}

>  <energy>  (2) 
-8.12

>  <cluster_rmsd>  (2) 
0.02

>  <cluster>  (2) 
1

$$$$

     RDKit          3D

 56 61  0  0  0  0  0  0  0  0999 V2000
  139.3520   70.3990  221.9240 O   0  0  0  0  0  0  0  0  0  0  0  0
  139.7180   71.3300  222.7340 C   0  0  0  0  0  0  0  0  0  0  0  0
  139.9550   70.8620  224.0770 C   0  0  0  0  0  0  0  0  0  0  0  0
  140.3350   71.4750  225.2370 C   0  0  0  0  0  0  0  0  0  0  0  0
  140.4500   70.5500  226.2430 C   0  0  0  0  0  0  0  0  0  0  0  0
  140.8040   70.6650  227.5790 C   0  0  0  0  0  0  0  0  0  0  0  0
  141.1170   71.8590  228.1430 F   0  0  0  0  0  0  0  0  0  0  0  0
  140.8220   69.4950  228.3270 C   0  0  0  0  0  0  0  0  0  0  0  0
  140.5020   68.2570  227.7720 C   0  0  0  0  0  0  0  0  0  0  0  0
  140.1530   68.1740  226.4360 C   0  0  0  0  0  0  0  0  0  0  0  0
  140.1320   69.3390  225.6840 C   0  0  0  0  0  0  0  0  0  0  0  0
  139.8410   69.5440  224.4010 N   0  0  0  0  0  0  0  0  0  0  0  0
  139.8180   72.6110  222.1870 N   0  0  0  0  0  0  0  0  0  0  0  0
  141.1250   73.2810  221.9630 C   0  0  0  0  0  0  0  0  0  0  0  0
  140.9020   74.0780  220.7100 C   0  0  2  0  0  0  0  0  0  0  0  0
  141.1310   73.2540  219.4910 C   0  0  0  0  0  0  0  0  0  0  0  0
  142.0510   74.1290  218.6400 C   0  0  0  0  0  0  0  0  0  0  0  0
  142.6580   75.0600  219.4840 N   0  0  0  0  0  0  0  0  0  0  0  0
  143.9980   75.0360  219.8490 C   0  0  0  0  0  0  0  0  0  0  0  0
  144.7640   73.7650  219.8140 C   0  0  0  0  0  0  0  0  0  0  0  0
  146.1730   73.6890  220.2530 C   0  0  0  0  0  0  0  0  0  0  0  0
  145.7520   73.0260  221.5470 C   0  0  0  0  0  0  0  0  0  0  0  0
  144.3870   72.7610  220.8950 C   0  0  0  0  0  0  0  0  0  0  0  0
  141.7990   75.2870  220.6200 C   0  0  0  0  0  0  0  0  0  0  0  0
  139.4670   74.4480  220.8300 C   0  0  0  0  0  0  0  0  0  0  0  0
  138.7030   75.4510  220.2570 C   0  0  0  0  0  0  0  0  0  0  0  0
  137.3560   75.6040  220.5300 C   0  0  0  0  0  0  0  0  0  0  0  0
  136.7790   74.7050  221.4110 C   0  0  0  0  0  0  0  0  0  0  0  0
  137.5470   73.7080  221.9790 C   0  0  0  0  0  0  0  0  0  0  0  0
  138.8830   73.5500  221.7140 C   0  0  0  0  0  0  0  0  0  0  0  0
  140.5216   72.5534  225.3481 H   0  0  0  0  0  0  0  0  0  0  0  0
  141.0974   69.5469  229.3907 H   0  0  0  0  0  0  0  0  0  0  0  0
  140.5269   67.3499  228.3938 H   0  0  0  0  0  0  0  0  0  0  0  0
  139.8979   67.2058  225.9804 H   0  0  0  0  0  0  0  0  0  0  0  0
  139.5570   68.7630  223.7390 H   0  0  0  0  0  0  0  0  0  0  0  0
  141.3790   73.9389  222.8072 H   0  0  0  0  0  0  0  0  0  0  0  0
  141.9603   72.5707  221.8752 H   0  0  0  0  0  0  0  0  0  0  0  0
  141.6185   72.3014  219.7456 H   0  0  0  0  0  0  0  0  0  0  0  0
  140.1984   72.9822  218.9748 H   0  0  0  0  0  0  0  0  0  0  0  0
  142.8183   73.5059  218.1574 H   0  0  0  0  0  0  0  0  0  0  0  0
  141.4749   74.6412  217.8553 H   0  0  0  0  0  0  0  0  0  0  0  0
  144.5196   75.7372  219.1810 H   0  0  0  0  0  0  0  0  0  0  0  0
  143.9674   75.2779  220.9216 H   0  0  0  0  0  0  0  0  0  0  0  0
  144.5666   73.6137  218.7425 H   0  0  0  0  0  0  0  0  0  0  0  0
  146.8066   73.0573  219.6131 H   0  0  0  0  0  0  0  0  0  0  0  0
  146.7928   74.5975  220.2756 H   0  0  0  0  0  0  0  0  0  0  0  0
  146.3206   72.1200  221.8036 H   0  0  0  0  0  0  0  0  0  0  0  0
  145.8387   73.5422  222.5145 H   0  0  0  0  0  0  0  0  0  0  0  0
  144.2464   71.7319  220.5329 H   0  0  0  0  0  0  0  0  0  0  0  0
  143.4512   72.8572  221.4652 H   0  0  0  0  0  0  0  0  0  0  0  0
  142.3972   75.3884  221.5375 H   0  0  0  0  0  0  0  0  0  0  0  0
  141.2169   76.2134  220.5066 H   0  0  0  0  0  0  0  0  0  0  0  0
  139.1852   76.1515  219.5593 H   0  0  0  0  0  0  0  0  0  0  0  0
  136.7662   76.4081  220.0656 H   0  0  0  0  0  0  0  0  0  0  0  0
  135.7101   74.7850  221.6581 H   0  0  0  0  0  0  0  0  0  0  0  0
  137.0645   73.0077  222.6767 H   0  0  0  0  0  0  0  0  0  0  0  0
  1  2  2  0
  2  3  1  0
  3  4  2  0
  4  5  1  0
  5  6  2  0
  6  7  1  0
  6  8  1  0
  8  9  2  0
  9 10  1  0
 10 11  2  0
 11 12  1  0
  2 13  1  0
 13 14  1  0
 15 14  1  1
 15 16  1  0
 16 17  1  0
 17 18  1  0
 18 19  1  0
 19 20  1  0
 20 21  1  0
 21 22  1  0
 22 23  1  0
 18 24  1  0
 15 25  1  0
 25 26  2  0
 26 27  1  0
 27 28  2  0
 28 29  1  0
 29 30  2  0
 12  3  1  0
 30 13  1  0
 11  5  1  0
 24 15  1  0
 30 25  1  0
 23 20  1  0
  4 31  1  0
  8 32  1  0
  9 33  1  0
 10 34  1  0
 12 35  1  0
 14 36  1  0
 14 37  1  0
 16 38  1  0
 16 39  1  0
 17 40  1  0
 17 41  1  0
 19 42  1  0
 19 43  1  0
 20 44  1  0
 21 45  1  0
 21 46  1  0
 22 47  1  0
 22 48  1  0
 23 49  1  0
 23 50  1  0
 24 51  1  0
 24 52  1  0
 26 53  1  0
 27 54  1  0
 28 55  1  0
 29 56  1  0
M  END
>  <smiles>  (3) 
O=C(c1cc2c(F)cccc2[nH]1)N1C[C@@]2(CCN(CC3CCC3)C2)c2ccccc21

>  <score_type>  (3) 
oracle

>  <origin>  (3) 
autodockgpu

>  <m_score__min__energy>  (3) 
-8.1199999999999992

>  <m_primary>  (3) 
energy

>  <rmsd>  (3) 
4.611836170448631

>  <m_score__min__rmsd>  (3) 
4.611836170448631

>  <meeko>  (3) 
{"free_energy": -7.77, "intermolecular_energy": -8.96, "internal_energy": -1.62, "cluster_size": 22, "cluster_id": 4, "rank_in_cluster": 19}

>  <energy>  (3) 
-8.12

>  <cluster_rmsd>  (3) 
0.02

>  <cluster>  (3) 
1

$$$$

     RDKit          3D

 56 61  0  0  0  0  0  0  0  0999 V2000
  139.4850   71.2810  221.5630 O   0  0  0  0  0  0  0  0  0  0  0  0
  140.4730   71.6600  222.2950 C   0  0  0  0  0  0  0  0  0  0  0  0
  140.3530   71.2600  223.6740 C   0  0  0  0  0  0  0  0  0  0  0  0
  140.6830   71.8500  224.8620 C   0  0  0  0  0  0  0  0  0  0  0  0
  140.3830   71.0120  225.9050 C   0  0  0  0  0  0  0  0  0  0  0  0
  140.5280   71.1440  227.2770 C   0  0  0  0  0  0  0  0  0  0  0  0
  141.0460   72.2620  227.8460 F   0  0  0  0  0  0  0  0  0  0  0  0
  140.1140   70.0720  228.0590 C   0  0  0  0  0  0  0  0  0  0  0  0
  139.5770   68.9140  227.5000 C   0  0  0  0  0  0  0  0  0  0  0  0
  139.4450   68.8120  226.1270 C   0  0  0  0  0  0  0  0  0  0  0  0
  139.8550   69.8790  225.3420 C   0  0  0  0  0  0  0  0  0  0  0  0
  139.8450   70.0450  224.0200 N   0  0  0  0  0  0  0  0  0  0  0  0
  141.4730   72.3850  221.6430 N   0  0  0  0  0  0  0  0  0  0  0  0
  142.7540   71.7670  221.2170 C   0  0  0  0  0  0  0  0  0  0  0  0
  143.0860   72.4860  219.9410 C   0  0  2  0  0  0  0  0  0  0  0  0
  142.4100   71.8600  218.7700 C   0  0  0  0  0  0  0  0  0  0  0  0
  143.5390   71.7020  217.7530 C   0  0  0  0  0  0  0  0  0  0  0  0
  144.7500   71.7490  218.4450 N   0  0  0  0  0  0  0  0  0  0  0  0
  145.5810   70.6540  218.6510 C   0  0  0  0  0  0  0  0  0  0  0  0
  145.0630   69.2740  218.4830 C   0  0  0  0  0  0  0  0  0  0  0  0
  145.9620   68.1030  218.4160 C   0  0  0  0  0  0  0  0  0  0  0  0
  145.5970   67.7220  219.8350 C   0  0  0  0  0  0  0  0  0  0  0  0
  144.4040   68.6810  219.7210 C   0  0  0  0  0  0  0  0  0  0  0  0
  144.5650   72.5140  219.6530 C   0  0  0  0  0  0  0  0  0  0  0  0
  142.5350   73.8430  220.1990 C   0  0  0  0  0  0  0  0  0  0  0  0
  142.7950   75.0850  219.6430 C   0  0  0  0  0  0  0  0  0  0  0  0
  142.1450   76.2330  220.0600 C   0  0  0  0  0  0  0  0  0  0  0  0
  141.2070   76.1030  221.0690 C   0  0  0  0  0  0  0  0  0  0  0  0
  140.9540   74.8620  221.6190 C   0  0  0  0  0  0  0  0  0  0  0  0
  141.5920   73.7190  221.2120 C   0  0  0  0  0  0  0  0  0  0  0  0
  141.1251   72.8518  224.9662 H   0  0  0  0  0  0  0  0  0  0  0  0
  140.2133   70.1398  229.1524 H   0  0  0  0  0  0  0  0  0  0  0  0
  139.2592   68.0841  228.1483 H   0  0  0  0  0  0  0  0  0  0  0  0
  139.0244   67.9051  225.6682 H   0  0  0  0  0  0  0  0  0  0  0  0
  139.4790   69.3090  223.3470 H   0  0  0  0  0  0  0  0  0  0  0  0
  143.5373   71.9262  221.9727 H   0  0  0  0  0  0  0  0  0  0  0  0
  142.6802   70.6772  221.0867 H   0  0  0  0  0  0  0  0  0  0  0  0
  141.9822   70.8828  219.0384 H   0  0  0  0  0  0  0  0  0  0  0  0
  141.5691   72.4581  218.3890 H   0  0  0  0  0  0  0  0  0  0  0  0
  143.4423   70.7368  217.2343 H   0  0  0  0  0  0  0  0  0  0  0  0
  143.4947   72.5060  217.0036 H   0  0  0  0  0  0  0  0  0  0  0  0
  146.4235   70.7617  217.9520 H   0  0  0  0  0  0  0  0  0  0  0  0
  145.7985   70.7074  219.7280 H   0  0  0  0  0  0  0  0  0  0  0  0
  144.5163   69.5362  217.5652 H   0  0  0  0  0  0  0  0  0  0  0  0
  145.6681   67.3566  217.6633 H   0  0  0  0  0  0  0  0  0  0  0  0
  147.0172   68.2332  218.1340 H   0  0  0  0  0  0  0  0  0  0  0  0
  145.3236   66.6650  219.9694 H   0  0  0  0  0  0  0  0  0  0  0  0
  146.3229   67.8001  220.6578 H   0  0  0  0  0  0  0  0  0  0  0  0
  143.4388   68.1882  219.5325 H   0  0  0  0  0  0  0  0  0  0  0  0
  144.0955   69.3149  220.5654 H   0  0  0  0  0  0  0  0  0  0  0  0
  145.1246   72.0584  220.4832 H   0  0  0  0  0  0  0  0  0  0  0  0
  144.9332   73.5441  219.5375 H   0  0  0  0  0  0  0  0  0  0  0  0
  143.5447   75.1611  218.8417 H   0  0  0  0  0  0  0  0  0  0  0  0
  142.3653   77.2109  219.6071 H   0  0  0  0  0  0  0  0  0  0  0  0
  140.6634   76.9875  221.4326 H   0  0  0  0  0  0  0  0  0  0  0  0
  140.2053   74.7870  222.4214 H   0  0  0  0  0  0  0  0  0  0  0  0
  1  2  2  0
  2  3  1  0
  3  4  2  0
  4  5  1  0
  5  6  2  0
  6  7  1  0
  6  8  1  0
  8  9  2  0
  9 10  1  0
 10 11  2  0
 11 12  1  0
  2 13  1  0
 13 14  1  0
 15 14  1  1
 15 16  1  0
 16 17  1  0
 17 18  1  0
 18 19  1  0
 19 20  1  0
 20 21  1  0
 21 22  1  0
 22 23  1  0
 18 24  1  0
 15 25  1  0
 25 26  2  0
 26 27  1  0
 27 28  2  0
 28 29  1  0
 29 30  2  0
 12  3  1  0
 30 13  1  0
 11  5  1  0
 24 15  1  0
 30 25  1  0
 23 20  1  0
  4 31  1  0
  8 32  1  0
  9 33  1  0
 10 34  1  0
 12 35  1  0
 14 36  1  0
 14 37  1  0
 16 38  1  0
 16 39  1  0
 17 40  1  0
 17 41  1  0
 19 42  1  0
 19 43  1  0
 20 44  1  0
 21 45  1  0
 21 46  1  0
 22 47  1  0
 22 48  1  0
 23 49  1  0
 23 50  1  0
 24 51  1  0
 24 52  1  0
 26 53  1  0
 27 54  1  0
 28 55  1  0
 29 56  1  0
M  END
>  <smiles>  (4) 
O=C(c1cc2c(F)cccc2[nH]1)N1C[C@@]2(CCN(CC3CCC3)C2)c2ccccc21

>  <score_type>  (4) 
oracle

>  <origin>  (4) 
autodockgpu

>  <m_score__min__energy>  (4) 
-8.1199999999999992

>  <m_primary>  (4) 
energy

>  <rmsd>  (4) 
4.1500536528876415

>  <m_score__min__rmsd>  (4) 
4.1500536528876415

>  <meeko>  (4) 
{"free_energy": -7.79, "intermolecular_energy": -8.98, "internal_energy": -1.39, "cluster_size": 7, "cluster_id": 3, "rank_in_cluster": 5}

>  <energy>  (4) 
-8.11

>  <cluster_rmsd>  (4) 
0.04

>  <cluster>  (4) 
1

$$$$

     RDKit          3D

 56 61  0  0  0  0  0  0  0  0999 V2000
  139.5060   71.7720  221.3910 O   0  0  0  0  0  0  0  0  0  0  0  0
  140.5550   71.9290  222.1200 C   0  0  0  0  0  0  0  0  0  0  0  0
  140.4180   71.3850  223.4480 C   0  0  0  0  0  0  0  0  0  0  0  0
  140.6970   71.8620  224.6970 C   0  0  0  0  0  0  0  0  0  0  0  0
  140.4050   70.9110  225.6420 C   0  0  0  0  0  0  0  0  0  0  0  0
  140.5130   70.9070  227.0240 C   0  0  0  0  0  0  0  0  0  0  0  0
  140.9740   71.9790  227.7170 F   0  0  0  0  0  0  0  0  0  0  0  0
  140.1220   69.7470  227.6810 C   0  0  0  0  0  0  0  0  0  0  0  0
  139.6430   68.6330  226.9930 C   0  0  0  0  0  0  0  0  0  0  0  0
  139.5470   68.6680  225.6140 C   0  0  0  0  0  0  0  0  0  0  0  0
  139.9350   69.8240  224.9520 C   0  0  0  0  0  0  0  0  0  0  0  0
  139.9490   70.1230  223.6550 N   0  0  0  0  0  0  0  0  0  0  0  0
  141.6260   72.5900  221.5150 N   0  0  0  0  0  0  0  0  0  0  0  0
  142.9080   71.9080  221.2030 C   0  0  0  0  0  0  0  0  0  0  0  0
  143.3560   72.5640  219.9280 C   0  0  2  0  0  0  0  0  0  0  0  0
  142.7380   71.9190  218.7360 C   0  0  0  0  0  0  0  0  0  0  0  0
  143.9280   71.6800  217.8070 C   0  0  0  0  0  0  0  0  0  0  0  0
  145.0890   71.7070  218.5820 N   0  0  0  0  0  0  0  0  0  0  0  0
  145.8590   70.5910  218.8860 C   0  0  0  0  0  0  0  0  0  0  0  0
  145.3670   69.2280  218.5650 C   0  0  0  0  0  0  0  0  0  0  0  0
  146.2610   68.0520  218.5750 C   0  0  0  0  0  0  0  0  0  0  0  0
  145.6800   67.6010  219.8980 C   0  0  0  0  0  0  0  0  0  0  0  0
  144.5230   68.5790  219.6530 C   0  0  0  0  0  0  0  0  0  0  0  0
  144.8520   72.5260  219.7450 C   0  0  0  0  0  0  0  0  0  0  0  0
  142.8440   73.9500  220.0980 C   0  0  0  0  0  0  0  0  0  0  0  0
  143.1910   75.1590  219.5180 C   0  0  0  0  0  0  0  0  0  0  0  0
  142.5610   76.3460  219.8460 C   0  0  0  0  0  0  0  0  0  0  0  0
  141.5500   76.2900  220.7900 C   0  0  0  0  0  0  0  0  0  0  0  0
  141.2100   75.0820  221.3650 C   0  0  0  0  0  0  0  0  0  0  0  0
  141.8290   73.9010  221.0460 C   0  0  0  0  0  0  0  0  0  0  0  0
  141.0977   72.8632  224.9139 H   0  0  0  0  0  0  0  0  0  0  0  0
  140.1925   69.7062  228.7780 H   0  0  0  0  0  0  0  0  0  0  0  0
  139.3427   67.7301  227.5448 H   0  0  0  0  0  0  0  0  0  0  0  0
  139.1714   67.7987  225.0543 H   0  0  0  0  0  0  0  0  0  0  0  0
  139.6280   69.4480  222.9000 H   0  0  0  0  0  0  0  0  0  0  0  0
  143.6430   72.0670  222.0058 H   0  0  0  0  0  0  0  0  0  0  0  0
  142.7998   70.8175  221.1075 H   0  0  0  0  0  0  0  0  0  0  0  0
  142.2543   70.9694  219.0085 H   0  0  0  0  0  0  0  0  0  0  0  0
  141.9497   72.5326  218.2755 H   0  0  0  0  0  0  0  0  0  0  0  0
  143.8286   70.7004  217.3166 H   0  0  0  0  0  0  0  0  0  0  0  0
  143.9686   72.4561  217.0285 H   0  0  0  0  0  0  0  0  0  0  0  0
  146.8154   70.7139  218.3567 H   0  0  0  0  0  0  0  0  0  0  0  0
  145.8784   70.5951  219.9858 H   0  0  0  0  0  0  0  0  0  0  0  0
  144.9694   69.5443  217.5894 H   0  0  0  0  0  0  0  0  0  0  0  0
  146.0844   67.3497  217.7470 H   0  0  0  0  0  0  0  0  0  0  0  0
  147.3476   68.1847  218.4667 H   0  0  0  0  0  0  0  0  0  0  0  0
  145.3851   66.5418  219.9314 H   0  0  0  0  0  0  0  0  0  0  0  0
  146.2702   67.6266  220.8259 H   0  0  0  0  0  0  0  0  0  0  0  0
  143.5965   68.1085  219.2920 H   0  0  0  0  0  0  0  0  0  0  0  0
  144.0905   69.1716  220.4726 H   0  0  0  0  0  0  0  0  0  0  0  0
  145.3342   72.0833  220.6290 H   0  0  0  0  0  0  0  0  0  0  0  0
  145.2684   73.5362  219.6183 H   0  0  0  0  0  0  0  0  0  0  0  0
  143.9968   75.1758  218.7694 H   0  0  0  0  0  0  0  0  0  0  0  0
  142.8518   77.2967  219.3754 H   0  0  0  0  0  0  0  0  0  0  0  0
  141.0179   77.2075  221.0817 H   0  0  0  0  0  0  0  0  0  0  0  0
  140.4048   75.0662  222.1142 H   0  0  0  0  0  0  0  0  0  0  0  0
  1  2  2  0
  2  3  1  0
  3  4  2  0
  4  5  1  0
  5  6  2  0
  6  7  1  0
  6  8  1  0
  8  9  2  0
  9 10  1  0
 10 11  2  0
 11 12  1  0
  2 13  1  0
 13 14  1  0
 15 14  1  1
 15 16  1  0
 16 17  1  0
 17 18  1  0
 18 19  1  0
 19 20  1  0
 20 21  1  0
 21 22  1  0
 22 23  1  0
 18 24  1  0
 15 25  1  0
 25 26  2  0
 26 27  1  0
 27 28  2  0
 28 29  1  0
 29 30  2  0
 12  3  1  0
 30 13  1  0
 11  5  1  0
 24 15  1  0
 30 25  1  0
 23 20  1  0
  4 31  1  0
  8 32  1  0
  9 33  1  0
 10 34  1  0
 12 35  1  0
 14 36  1  0
 14 37  1  0
 16 38  1  0
 16 39  1  0
 17 40  1  0
 17 41  1  0
 19 42  1  0
 19 43  1  0
 20 44  1  0
 21 45  1  0
 21 46  1  0
 22 47  1  0
 22 48  1  0
 23 49  1  0
 23 50  1  0
 24 51  1  0
 24 52  1  0
 26 53  1  0
 27 54  1  0
 28 55  1  0
 29 56  1  0
M  END
>  <smiles>  (5) 
O=C(c1cc2c(F)cccc2[nH]1)N1C[C@@]2(CCN(CC3CCC3)C2)c2ccccc21

>  <score_type>  (5) 
oracle

>  <origin>  (5) 
autodockgpu

>  <m_score__min__energy>  (5) 
-8.1199999999999992

>  <m_primary>  (5) 
energy

>  <rmsd>  (5) 
3.9468100584333445

>  <m_score__min__rmsd>  (5) 
3.9468100584333445

>  <meeko>  (5) 
{"free_energy": -7.85, "intermolecular_energy": -9.04, "internal_energy": -1.31, "cluster_size": 7, "cluster_id": 3, "rank_in_cluster": 1}

>  <energy>  (5) 
-8.11

>  <cluster_rmsd>  (5) 
0.04

>  <cluster>  (5) 
1

$$$$

     RDKit          3D

 56 61  0  0  0  0  0  0  0  0999 V2000
  140.4050   74.4490  221.9750 O   0  0  0  0  0  0  0  0  0  0  0  0
  141.2970   75.0590  221.2760 C   0  0  0  0  0  0  0  0  0  0  0  0
  142.3890   74.2090  220.8710 C   0  0  0  0  0  0  0  0  0  0  0  0
  143.7330   74.4050  220.7250 C   0  0  0  0  0  0  0  0  0  0  0  0
  144.3310   73.2560  220.2730 C   0  0  0  0  0  0  0  0  0  0  0  0
  145.6480   72.9480  219.9700 C   0  0  0  0  0  0  0  0  0  0  0  0
  146.6510   73.8520  220.1020 F   0  0  0  0  0  0  0  0  0  0  0  0
  145.9040   71.6570  219.5230 C   0  0  0  0  0  0  0  0  0  0  0  0
  144.8930   70.7090  219.3800 C   0  0  0  0  0  0  0  0  0  0  0  0
  143.5880   71.0470  219.6910 C   0  0  0  0  0  0  0  0  0  0  0  0
  143.3260   72.3330  220.1390 C   0  0  0  0  0  0  0  0  0  0  0  0
  142.1840   72.9160  220.4980 N   0  0  0  0  0  0  0  0  0  0  0  0
  141.0630   76.4140  221.0350 N   0  0  0  0  0  0  0  0  0  0  0  0
  140.0940   77.2090  221.8320 C   0  0  0  0  0  0  0  0  0  0  0  0
  140.7220   78.5710  221.8970 C   0  0  2  0  0  0  0  0  0  0  0  0
  141.7010   78.6680  223.0160 C   0  0  0  0  0  0  0  0  0  0  0  0
  141.3030   79.9630  223.7230 C   0  0  0  0  0  0  0  0  0  0  0  0
  139.9860   80.2580  223.3670 N   0  0  0  0  0  0  0  0  0  0  0  0
  138.8970   80.1510  224.2240 C   0  0  0  0  0  0  0  0  0  0  0  0
  137.9050   81.2510  224.3210 C   0  0  0  0  0  0  0  0  0  0  0  0
  136.5440   81.1290  223.7590 C   0  0  0  0  0  0  0  0  0  0  0  0
  135.9730   80.9240  225.1460 C   0  0  0  0  0  0  0  0  0  0  0  0
  137.3020   81.4490  225.7050 C   0  0  0  0  0  0  0  0  0  0  0  0
  139.7100   79.6740  222.0780 C   0  0  0  0  0  0  0  0  0  0  0  0
  141.4170   78.6530  220.5850 C   0  0  0  0  0  0  0  0  0  0  0  0
  141.8710   79.7190  219.8250 C   0  0  0  0  0  0  0  0  0  0  0  0
  142.4990   79.5450  218.6050 C   0  0  0  0  0  0  0  0  0  0  0  0
  142.6660   78.2470  218.1550 C   0  0  0  0  0  0  0  0  0  0  0  0
  142.2110   77.1890  218.9170 C   0  0  0  0  0  0  0  0  0  0  0  0
  141.5880   77.3520  220.1270 C   0  0  0  0  0  0  0  0  0  0  0  0
  144.2592   75.3470  220.9388 H   0  0  0  0  0  0  0  0  0  0  0  0
  146.9377   71.3748  219.2742 H   0  0  0  0  0  0  0  0  0  0  0  0
  145.1313   69.6967  219.0216 H   0  0  0  0  0  0  0  0  0  0  0  0
  142.7764   70.3121  219.5853 H   0  0  0  0  0  0  0  0  0  0  0  0
  141.2480   72.4130  220.4890 H   0  0  0  0  0  0  0  0  0  0  0  0
  139.1154   77.2514  221.3314 H   0  0  0  0  0  0  0  0  0  0  0  0
  139.9041   76.7785  222.8263 H   0  0  0  0  0  0  0  0  0  0  0  0
  141.6113   77.8060  223.6934 H   0  0  0  0  0  0  0  0  0  0  0  0
  142.7463   78.6694  222.6734 H   0  0  0  0  0  0  0  0  0  0  0  0
  141.3752   79.8315  224.8127 H   0  0  0  0  0  0  0  0  0  0  0  0
  141.9733   80.7833  223.4267 H   0  0  0  0  0  0  0  0  0  0  0  0
  138.3420   79.2519  223.9180 H   0  0  0  0  0  0  0  0  0  0  0  0
  139.3644   80.1502  225.2198 H   0  0  0  0  0  0  0  0  0  0  0  0
  138.5805   81.9730  223.8388 H   0  0  0  0  0  0  0  0  0  0  0  0
  136.1843   82.0397  223.2578 H   0  0  0  0  0  0  0  0  0  0  0  0
  136.3390   80.3966  222.9643 H   0  0  0  0  0  0  0  0  0  0  0  0
  135.0992   81.5504  225.3785 H   0  0  0  0  0  0  0  0  0  0  0  0
  135.5577   79.9554  225.4610 H   0  0  0  0  0  0  0  0  0  0  0  0
  137.2728   82.4948  226.0447 H   0  0  0  0  0  0  0  0  0  0  0  0
  137.7627   81.0050  226.5998 H   0  0  0  0  0  0  0  0  0  0  0  0
  138.6895   79.2642  222.0545 H   0  0  0  0  0  0  0  0  0  0  0  0
  139.7797   80.4211  221.2736 H   0  0  0  0  0  0  0  0  0  0  0  0
  141.7267   80.7408  220.2058 H   0  0  0  0  0  0  0  0  0  0  0  0
  142.8517   80.4043  218.0158 H   0  0  0  0  0  0  0  0  0  0  0  0
  143.1609   78.0581  217.1909 H   0  0  0  0  0  0  0  0  0  0  0  0
  142.3553   76.1676  218.5350 H   0  0  0  0  0  0  0  0  0  0  0  0
  1  2  2  0
  2  3  1  0
  3  4  2  0
  4  5  1  0
  5  6  2  0
  6  7  1  0
  6  8  1  0
  8  9  2  0
  9 10  1  0
 10 11  2  0
 11 12  1  0
  2 13  1  0
 13 14  1  0
 15 14  1  6
 15 16  1  0
 16 17  1  0
 17 18  1  0
 18 19  1  0
 19 20  1  0
 20 21  1  0
 21 22  1  0
 22 23  1  0
 18 24  1  0
 15 25  1  0
 25 26  2  0
 26 27  1  0
 27 28  2  0
 28 29  1  0
 29 30  2  0
 12  3  1  0
 30 13  1  0
 11  5  1  0
 24 15  1  0
 30 25  1  0
 23 20  1  0
  4 31  1  0
  8 32  1  0
  9 33  1  0
 10 34  1  0
 12 35  1  0
 14 36  1  0
 14 37  1  0
 16 38  1  0
 16 39  1  0
 17 40  1  0
 17 41  1  0
 19 42  1  0
 19 43  1  0
 20 44  1  0
 21 45  1  0
 21 46  1  0
 22 47  1  0
 22 48  1  0
 23 49  1  0
 23 50  1  0
 24 51  1  0
 24 52  1  0
 26 53  1  0
 27 54  1  0
 28 55  1  0
 29 56  1  0
M  END
>  <smiles>  (6) 
O=C(c1cc2c(F)cccc2[nH]1)N1C[C@@]2(CCN(CC3CCC3)C2)c2ccccc21

>  <score_type>  (6) 
oracle

>  <origin>  (6) 
autodockgpu

>  <m_score__min__energy>  (6) 
-8.1199999999999992

>  <m_primary>  (6) 
energy

>  <rmsd>  (6) 
5.431146869829034

>  <m_score__min__rmsd>  (6) 
5.431146869829034

>  <meeko>  (6) 
{"free_energy": -7.88, "intermolecular_energy": -9.07, "internal_energy": -1.27, "cluster_size": 14, "cluster_id": 1, "rank_in_cluster": 10}

>  <energy>  (6) 
-8.04

>  <cluster_rmsd>  (6) 
0.13

>  <cluster>  (6) 
1

$$$$

     RDKit          3D

 56 61  0  0  0  0  0  0  0  0999 V2000
  139.2860   70.4470  221.9330 O   0  0  0  0  0  0  0  0  0  0  0  0
  139.6900   71.3700  222.7340 C   0  0  0  0  0  0  0  0  0  0  0  0
  139.9490   70.8970  224.0710 C   0  0  0  0  0  0  0  0  0  0  0  0
  140.3430   71.5050  225.2280 C   0  0  0  0  0  0  0  0  0  0  0  0
  140.4780   70.5760  226.2280 C   0  0  0  0  0  0  0  0  0  0  0  0
  140.8500   70.6870  227.5590 C   0  0  0  0  0  0  0  0  0  0  0  0
  141.1660   71.8800  228.1250 F   0  0  0  0  0  0  0  0  0  0  0  0
  140.8850   69.5130  228.3010 C   0  0  0  0  0  0  0  0  0  0  0  0
  140.5640   68.2760  227.7450 C   0  0  0  0  0  0  0  0  0  0  0  0
  140.1960   68.1980  226.4140 C   0  0  0  0  0  0  0  0  0  0  0  0
  140.1580   69.3670  225.6680 C   0  0  0  0  0  0  0  0  0  0  0  0
  139.8470   69.5770  224.3900 N   0  0  0  0  0  0  0  0  0  0  0  0
  139.8030   72.6490  222.1850 N   0  0  0  0  0  0  0  0  0  0  0  0
  141.1160   73.3090  221.9700 C   0  0  0  0  0  0  0  0  0  0  0  0
  140.9090   74.1050  220.7130 C   0  0  2  0  0  0  0  0  0  0  0  0
  141.1420   73.2760  219.4970 C   0  0  0  0  0  0  0  0  0  0  0  0
  142.0740   74.1430  218.6520 C   0  0  0  0  0  0  0  0  0  0  0  0
  142.6810   75.0720  219.4980 N   0  0  0  0  0  0  0  0  0  0  0  0
  144.0180   75.0390  219.8740 C   0  0  0  0  0  0  0  0  0  0  0  0
  144.7840   73.7700  219.8170 C   0  0  0  0  0  0  0  0  0  0  0  0
  146.2050   73.6950  220.2150 C   0  0  0  0  0  0  0  0  0  0  0  0
  145.8220   73.0310  221.5200 C   0  0  0  0  0  0  0  0  0  0  0  0
  144.4400   72.7640  220.9070 C   0  0  0  0  0  0  0  0  0  0  0  0
  141.8150   75.3070  220.6270 C   0  0  0  0  0  0  0  0  0  0  0  0
  139.4750   74.4850  220.8210 C   0  0  0  0  0  0  0  0  0  0  0  0
  138.7230   75.4920  220.2390 C   0  0  0  0  0  0  0  0  0  0  0  0
  137.3740   75.6540  220.5020 C   0  0  0  0  0  0  0  0  0  0  0  0
  136.7850   74.7620  221.3810 C   0  0  0  0  0  0  0  0  0  0  0  0
  137.5420   73.7610  221.9570 C   0  0  0  0  0  0  0  0  0  0  0  0
  138.8780   73.5930  221.7030 C   0  0  0  0  0  0  0  0  0  0  0  0
  140.5258   72.5837  225.3418 H   0  0  0  0  0  0  0  0  0  0  0  0
  141.1753   69.5613  229.3609 H   0  0  0  0  0  0  0  0  0  0  0  0
  140.6031   67.3660  228.3618 H   0  0  0  0  0  0  0  0  0  0  0  0
  139.9392   67.2308  225.9573 H   0  0  0  0  0  0  0  0  0  0  0  0
  139.5570   68.7970  223.7290 H   0  0  0  0  0  0  0  0  0  0  0  0
  141.3679   73.9671  222.8147 H   0  0  0  0  0  0  0  0  0  0  0  0
  141.9468   72.5925  221.8905 H   0  0  0  0  0  0  0  0  0  0  0  0
  141.6212   72.3208  219.7575 H   0  0  0  0  0  0  0  0  0  0  0  0
  140.2118   73.0088  218.9742 H   0  0  0  0  0  0  0  0  0  0  0  0
  142.8408   73.5137  218.1766 H   0  0  0  0  0  0  0  0  0  0  0  0
  141.5070   74.6576  217.8623 H   0  0  0  0  0  0  0  0  0  0  0  0
  144.5454   75.7550  219.2266 H   0  0  0  0  0  0  0  0  0  0  0  0
  143.9778   75.2561  220.9516 H   0  0  0  0  0  0  0  0  0  0  0  0
  144.5556   73.6201  218.7515 H   0  0  0  0  0  0  0  0  0  0  0  0
  146.8204   73.0642  219.5567 H   0  0  0  0  0  0  0  0  0  0  0  0
  146.8245   74.6039  220.2202 H   0  0  0  0  0  0  0  0  0  0  0  0
  146.3992   72.1259  221.7600 H   0  0  0  0  0  0  0  0  0  0  0  0
  145.9352   73.5470  222.4848 H   0  0  0  0  0  0  0  0  0  0  0  0
  144.2912   71.7350  220.5478 H   0  0  0  0  0  0  0  0  0  0  0  0
  143.5207   72.8576  221.5037 H   0  0  0  0  0  0  0  0  0  0  0  0
  142.4071   75.4061  221.5488 H   0  0  0  0  0  0  0  0  0  0  0  0
  141.2401   76.2371  220.5071 H   0  0  0  0  0  0  0  0  0  0  0  0
  139.2153   76.1874  219.5433 H   0  0  0  0  0  0  0  0  0  0  0  0
  136.7926   76.4602  220.0308 H   0  0  0  0  0  0  0  0  0  0  0  0
  135.7150   74.8503  221.6206 H   0  0  0  0  0  0  0  0  0  0  0  0
  137.0493   73.0657  222.6525 H   0  0  0  0  0  0  0  0  0  0  0  0
  1  2  2  0
  2  3  1  0
  3  4  2  0
  4  5  1  0
  5  6  2  0
  6  7  1  0
  6  8  1  0
  8  9  2  0
  9 10  1  0
 10 11  2  0
 11 12  1  0
  2 13  1  0
 13 14  1  0
 15 14  1  1
 15 16  1  0
 16 17  1  0
 17 18  1  0
 18 19  1  0
 19 20  1  0
 20 21  1  0
 21 22  1  0
 22 23  1  0
 18 24  1  0
 15 25  1  0
 25 26  2  0
 26 27  1  0
 27 28  2  0
 28 29  1  0
 29 30  2  0
 12  3  1  0
 30 13  1  0
 11  5  1  0
 24 15  1  0
 30 25  1  0
 23 20  1  0
  4 31  1  0
  8 32  1  0
  9 33  1  0
 10 34  1  0
 12 35  1  0
 14 36  1  0
 14 37  1  0
 16 38  1  0
 16 39  1  0
 17 40  1  0
 17 41  1  0
 19 42  1  0
 19 43  1  0
 20 44  1  0
 21 45  1  0
 21 46  1  0
 22 47  1  0
 22 48  1  0
 23 49  1  0
 23 50  1  0
 24 51  1  0
 24 52  1  0
 26 53  1  0
 27 54  1  0
 28 55  1  0
 29 56  1  0
M  END
>  <smiles>  (7) 
O=C(c1cc2c(F)cccc2[nH]1)N1C[C@@]2(CCN(CC3CCC3)C2)c2ccccc21

>  <score_type>  (7) 
oracle

>  <origin>  (7) 
autodockgpu

>  <m_score__min__energy>  (7) 
-8.1199999999999992

>  <m_primary>  (7) 
energy

>  <rmsd>  (7) 
4.5914600262562555

>  <m_score__min__rmsd>  (7) 
4.5914600262562555

>  <meeko>  (7) 
{"free_energy": -7.79, "intermolecular_energy": -8.98, "internal_energy": -1.61, "cluster_size": 22, "cluster_id": 4, "rank_in_cluster": 16}

>  <energy>  (7) 
-8.03

>  <cluster_rmsd>  (7) 
0.21

>  <cluster>  (7) 
1

$$$$

     RDKit          3D

 56 61  0  0  0  0  0  0  0  0999 V2000
  139.4710   71.1470  221.6090 O   0  0  0  0  0  0  0  0  0  0  0  0
  140.4230   71.6280  222.3290 C   0  0  0  0  0  0  0  0  0  0  0  0
  140.3520   71.2340  223.7140 C   0  0  0  0  0  0  0  0  0  0  0  0
  140.7040   71.8380  224.8870 C   0  0  0  0  0  0  0  0  0  0  0  0
  140.4520   71.0010  225.9440 C   0  0  0  0  0  0  0  0  0  0  0  0
  140.6350   71.1440  227.3100 C   0  0  0  0  0  0  0  0  0  0  0  0
  141.1470   72.2760  227.8570 F   0  0  0  0  0  0  0  0  0  0  0  0
  140.2650   70.0690  228.1100 C   0  0  0  0  0  0  0  0  0  0  0  0
  139.7350   68.8970  227.5740 C   0  0  0  0  0  0  0  0  0  0  0  0
  139.5640   68.7840  226.2060 C   0  0  0  0  0  0  0  0  0  0  0  0
  139.9310   69.8540  225.4020 C   0  0  0  0  0  0  0  0  0  0  0  0
  139.8780   70.0110  224.0810 N   0  0  0  0  0  0  0  0  0  0  0  0
  141.3450   72.4380  221.6620 N   0  0  0  0  0  0  0  0  0  0  0  0
  142.5920   71.8970  221.0620 C   0  0  0  0  0  0  0  0  0  0  0  0
  142.7890   72.7430  219.8360 C   0  0  2  0  0  0  0  0  0  0  0  0
  142.0180   72.2120  218.6770 C   0  0  0  0  0  0  0  0  0  0  0  0
  143.0500   72.1820  217.5500 C   0  0  0  0  0  0  0  0  0  0  0  0
  144.3190   72.1950  218.1300 N   0  0  0  0  0  0  0  0  0  0  0  0
  145.1850   71.1090  218.1530 C   0  0  0  0  0  0  0  0  0  0  0  0
  145.2290   70.2060  219.3300 C   0  0  0  0  0  0  0  0  0  0  0  0
  144.2000   69.1700  219.5600 C   0  0  0  0  0  0  0  0  0  0  0  0
  145.1610   68.0930  219.1020 C   0  0  0  0  0  0  0  0  0  0  0  0
  146.2910   69.1180  219.2640 C   0  0  0  0  0  0  0  0  0  0  0  0
  144.2340   72.8380  219.4180 C   0  0  0  0  0  0  0  0  0  0  0  0
  142.2410   74.0540  220.2740 C   0  0  0  0  0  0  0  0  0  0  0  0
  142.4250   75.3490  219.8190 C   0  0  0  0  0  0  0  0  0  0  0  0
  141.7970   76.4350  220.4020 C   0  0  0  0  0  0  0  0  0  0  0  0
  140.9590   76.1850  221.4760 C   0  0  0  0  0  0  0  0  0  0  0  0
  140.7810   74.8910  221.9240 C   0  0  0  0  0  0  0  0  0  0  0  0
  141.4000   73.8090  221.3520 C   0  0  0  0  0  0  0  0  0  0  0  0
  141.1282   72.8493  224.9719 H   0  0  0  0  0  0  0  0  0  0  0  0
  140.3946   70.1459  229.1996 H   0  0  0  0  0  0  0  0  0  0  0  0
  139.4537   68.0649  228.2362 H   0  0  0  0  0  0  0  0  0  0  0  0
  139.1465   67.8667  225.7653 H   0  0  0  0  0  0  0  0  0  0  0  0
  139.5080   69.2640  223.4230 H   0  0  0  0  0  0  0  0  0  0  0  0
  143.4400   72.0049  221.7542 H   0  0  0  0  0  0  0  0  0  0  0  0
  142.5262   70.8228  220.8345 H   0  0  0  0  0  0  0  0  0  0  0  0
  141.6357   71.2023  218.8878 H   0  0  0  0  0  0  0  0  0  0  0  0
  141.1340   72.8198  218.4341 H   0  0  0  0  0  0  0  0  0  0  0  0
  142.9224   71.2685  216.9506 H   0  0  0  0  0  0  0  0  0  0  0  0
  142.9216   73.0523  216.8896 H   0  0  0  0  0  0  0  0  0  0  0  0
  144.9292   70.4834  217.2851 H   0  0  0  0  0  0  0  0  0  0  0  0
  146.1771   71.5838  218.1680 H   0  0  0  0  0  0  0  0  0  0  0  0
  145.2581   71.0466  220.0389 H   0  0  0  0  0  0  0  0  0  0  0  0
  143.8893   69.0743  220.6108 H   0  0  0  0  0  0  0  0  0  0  0  0
  143.2096   69.2620  219.0902 H   0  0  0  0  0  0  0  0  0  0  0  0
  145.2302   67.2251  219.7742 H   0  0  0  0  0  0  0  0  0  0  0  0
  145.0085   67.5470  218.1593 H   0  0  0  0  0  0  0  0  0  0  0  0
  146.8833   69.0024  220.1837 H   0  0  0  0  0  0  0  0  0  0  0  0
  147.1225   69.1721  218.5458 H   0  0  0  0  0  0  0  0  0  0  0  0
  144.8771   72.3217  220.1460 H   0  0  0  0  0  0  0  0  0  0  0  0
  144.5710   73.8840  219.3688 H   0  0  0  0  0  0  0  0  0  0  0  0
  143.0946   75.5202  218.9632 H   0  0  0  0  0  0  0  0  0  0  0  0
  141.9569   77.4568  220.0273 H   0  0  0  0  0  0  0  0  0  0  0  0
  140.4359   77.0162  221.9715 H   0  0  0  0  0  0  0  0  0  0  0  0
  140.1114   74.7200  222.7798 H   0  0  0  0  0  0  0  0  0  0  0  0
  1  2  2  0
  2  3  1  0
  3  4  2  0
  4  5  1  0
  5  6  2  0
  6  7  1  0
  6  8  1  0
  8  9  2  0
  9 10  1  0
 10 11  2  0
 11 12  1  0
  2 13  1  0
 13 14  1  0
 15 14  1  1
 15 16  1  0
 16 17  1  0
 17 18  1  0
 18 19  1  0
 19 20  1  0
 20 21  1  0
 21 22  1  0
 22 23  1  0
 18 24  1  0
 15 25  1  0
 25 26  2  0
 26 27  1  0
 27 28  2  0
 28 29  1  0
 29 30  2  0
 12  3  1  0
 30 13  1  0
 11  5  1  0
 24 15  1  0
 30 25  1  0
 23 20  1  0
  4 31  1  0
  8 32  1  0
  9 33  1  0
 10 34  1  0
 12 35  1  0
 14 36  1  0
 14 37  1  0
 16 38  1  0
 16 39  1  0
 17 40  1  0
 17 41  1  0
 19 42  1  0
 19 43  1  0
 20 44  1  0
 21 45  1  0
 21 46  1  0
 22 47  1  0
 22 48  1  0
 23 49  1  0
 23 50  1  0
 24 51  1  0
 24 52  1  0
 26 53  1  0
 27 54  1  0
 28 55  1  0
 29 56  1  0
M  END
>  <smiles>  (8) 
O=C(c1cc2c(F)cccc2[nH]1)N1C[C@@]2(CCN(CC3CCC3)C2)c2ccccc21

>  <score_type>  (8) 
oracle

>  <origin>  (8) 
autodockgpu

>  <m_score__min__energy>  (8) 
-8.1199999999999992

>  <m_primary>  (8) 
energy

>  <rmsd>  (8) 
4.19817222964215

>  <m_score__min__rmsd>  (8) 
4.19817222964215

>  <meeko>  (8) 
{"free_energy": -7.38, "intermolecular_energy": -8.57, "internal_energy": -1.49, "cluster_size": 7, "cluster_id": 3, "rank_in_cluster": 7}

>  <energy>  (8) 
-7.9

>  <cluster_rmsd>  (8) 
0.48

>  <cluster>  (8) 
1

$$$$

     RDKit          3D

 56 61  0  0  0  0  0  0  0  0999 V2000
  139.2060   70.4630  221.9790 O   0  0  0  0  0  0  0  0  0  0  0  0
  139.6540   71.3760  222.7680 C   0  0  0  0  0  0  0  0  0  0  0  0
  139.9350   70.8970  224.0990 C   0  0  0  0  0  0  0  0  0  0  0  0
  140.3460   71.5020  225.2530 C   0  0  0  0  0  0  0  0  0  0  0  0
  140.4980   70.5690  226.2470 C   0  0  0  0  0  0  0  0  0  0  0  0
  140.8910   70.6750  227.5710 C   0  0  0  0  0  0  0  0  0  0  0  0
  141.2130   71.8650  228.1380 F   0  0  0  0  0  0  0  0  0  0  0  0
  140.9400   69.4970  228.3080 C   0  0  0  0  0  0  0  0  0  0  0  0
  140.6130   68.2620  227.7510 C   0  0  0  0  0  0  0  0  0  0  0  0
  140.2230   68.1890  226.4260 C   0  0  0  0  0  0  0  0  0  0  0  0
  140.1720   69.3610  225.6860 C   0  0  0  0  0  0  0  0  0  0  0  0
  139.8400   69.5760  224.4140 N   0  0  0  0  0  0  0  0  0  0  0  0
  139.7860   72.6510  222.2150 N   0  0  0  0  0  0  0  0  0  0  0  0
  141.1100   73.2800  221.9720 C   0  0  0  0  0  0  0  0  0  0  0  0
  140.8960   74.0780  220.7180 C   0  0  2  0  0  0  0  0  0  0  0  0
  141.0850   73.2430  219.5000 C   0  0  0  0  0  0  0  0  0  0  0  0
  142.0210   74.0860  218.6340 C   0  0  0  0  0  0  0  0  0  0  0  0
  142.6660   75.0020  219.4660 N   0  0  0  0  0  0  0  0  0  0  0  0
  144.0090   74.9380  219.8150 C   0  0  0  0  0  0  0  0  0  0  0  0
  144.4920   73.9030  220.7620 C   0  0  0  0  0  0  0  0  0  0  0  0
  144.4620   72.4630  220.4300 C   0  0  0  0  0  0  0  0  0  0  0  0
  145.9550   72.4730  220.1810 C   0  0  0  0  0  0  0  0  0  0  0  0
  146.0050   73.8240  220.9080 C   0  0  0  0  0  0  0  0  0  0  0  0
  141.8280   75.2590  220.6120 C   0  0  0  0  0  0  0  0  0  0  0  0
  139.4740   74.4920  220.8540 C   0  0  0  0  0  0  0  0  0  0  0  0
  138.7340   75.5150  220.2850 C   0  0  0  0  0  0  0  0  0  0  0  0
  137.3950   75.7100  220.5740 C   0  0  0  0  0  0  0  0  0  0  0  0
  136.8030   74.8330  221.4660 C   0  0  0  0  0  0  0  0  0  0  0  0
  137.5470   73.8160  222.0290 C   0  0  0  0  0  0  0  0  0  0  0  0
  138.8740   73.6160  221.7490 C   0  0  0  0  0  0  0  0  0  0  0  0
  140.5285   72.5806  225.3683 H   0  0  0  0  0  0  0  0  0  0  0  0
  141.2464   69.5412  229.3635 H   0  0  0  0  0  0  0  0  0  0  0  0
  140.6649   67.3492  228.3626 H   0  0  0  0  0  0  0  0  0  0  0  0
  139.9593   67.2235  225.9695 H   0  0  0  0  0  0  0  0  0  0  0  0
  139.5410   68.7990  223.7540 H   0  0  0  0  0  0  0  0  0  0  0  0
  141.3942   73.9336  222.8099 H   0  0  0  0  0  0  0  0  0  0  0  0
  141.9222   72.5443  221.8775 H   0  0  0  0  0  0  0  0  0  0  0  0
  141.5463   72.2769  219.7528 H   0  0  0  0  0  0  0  0  0  0  0  0
  140.1383   72.9980  218.9962 H   0  0  0  0  0  0  0  0  0  0  0  0
  142.7633   73.4377  218.1454 H   0  0  0  0  0  0  0  0  0  0  0  0
  141.4513   74.6120  217.8538 H   0  0  0  0  0  0  0  0  0  0  0  0
  144.5713   74.7969  218.8801 H   0  0  0  0  0  0  0  0  0  0  0  0
  144.1653   75.8743  220.3708 H   0  0  0  0  0  0  0  0  0  0  0  0
  143.8172   74.2451  221.5605 H   0  0  0  0  0  0  0  0  0  0  0  0
  144.1528   71.8182  221.2658 H   0  0  0  0  0  0  0  0  0  0  0  0
  143.7762   72.0900  219.6550 H   0  0  0  0  0  0  0  0  0  0  0  0
  146.5080   71.6636  220.6801 H   0  0  0  0  0  0  0  0  0  0  0  0
  146.3722   72.3456  219.1712 H   0  0  0  0  0  0  0  0  0  0  0  0
  146.3608   73.7698  221.9475 H   0  0  0  0  0  0  0  0  0  0  0  0
  146.6575   74.6382  220.5597 H   0  0  0  0  0  0  0  0  0  0  0  0
  142.4404   75.3456  221.5217 H   0  0  0  0  0  0  0  0  0  0  0  0
  141.2727   76.2022  220.5020 H   0  0  0  0  0  0  0  0  0  0  0  0
  139.2285   76.1971  219.5778 H   0  0  0  0  0  0  0  0  0  0  0  0
  136.8238   76.5294  220.1132 H   0  0  0  0  0  0  0  0  0  0  0  0
  135.7402   74.9464  221.7261 H   0  0  0  0  0  0  0  0  0  0  0  0
  137.0519   73.1338  222.7357 H   0  0  0  0  0  0  0  0  0  0  0  0
  1  2  2  0
  2  3  1  0
  3  4  2  0
  4  5  1  0
  5  6  2  0
  6  7  1  0
  6  8  1  0
  8  9  2  0
  9 10  1  0
 10 11  2  0
 11 12  1  0
  2 13  1  0
 13 14  1  0
 15 14  1  1
 15 16  1  0
 16 17  1  0
 17 18  1  0
 18 19  1  0
 19 20  1  0
 20 21  1  0
 21 22  1  0
 22 23  1  0
 18 24  1  0
 15 25  1  0
 25 26  2  0
 26 27  1  0
 27 28  2  0
 28 29  1  0
 29 30  2  0
 12  3  1  0
 30 13  1  0
 11  5  1  0
 24 15  1  0
 30 25  1  0
 23 20  1  0
  4 31  1  0
  8 32  1  0
  9 33  1  0
 10 34  1  0
 12 35  1  0
 14 36  1  0
 14 37  1  0
 16 38  1  0
 16 39  1  0
 17 40  1  0
 17 41  1  0
 19 42  1  0
 19 43  1  0
 20 44  1  0
 21 45  1  0
 21 46  1  0
 22 47  1  0
 22 48  1  0
 23 49  1  0
 23 50  1  0
 24 51  1  0
 24 52  1  0
 26 53  1  0
 27 54  1  0
 28 55  1  0
 29 56  1  0
M  END
>  <smiles>  (9) 
O=C(c1cc2c(F)cccc2[nH]1)N1C[C@@]2(CCN(CC3CCC3)C2)c2ccccc21

>  <score_type>  (9) 
oracle

>  <origin>  (9) 
autodockgpu

>  <m_score__min__energy>  (9) 
-8.1199999999999992

>  <m_primary>  (9) 
energy

>  <rmsd>  (9) 
4.606577610825561

>  <m_score__min__rmsd>  (9) 
4.606577610825561

>  <meeko>  (9) 
{"free_energy": -7.81, "intermolecular_energy": -9.01, "internal_energy": -1.6, "cluster_size": 22, "cluster_id": 4, "rank_in_cluster": 11}

>  <energy>  (9) 
-7.88

>  <cluster_rmsd>  (9) 
1.29

>  <cluster>  (9) 
1

$$$$

     RDKit          3D

 56 61  0  0  0  0  0  0  0  0999 V2000
  141.2890   76.4480  218.8390 O   0  0  0  0  0  0  0  0  0  0  0  0
  141.6790   76.4430  220.0650 C   0  0  0  0  0  0  0  0  0  0  0  0
  141.6540   77.7460  220.6810 C   0  0  0  0  0  0  0  0  0  0  0  0
  141.5730   79.0200  220.1940 C   0  0  0  0  0  0  0  0  0  0  0  0
  141.6220   79.9240  221.2250 C   0  0  0  0  0  0  0  0  0  0  0  0
  141.5800   81.3090  221.2520 C   0  0  0  0  0  0  0  0  0  0  0  0
  141.4640   82.0520  220.1220 F   0  0  0  0  0  0  0  0  0  0  0  0
  141.6580   81.9150  222.5000 C   0  0  0  0  0  0  0  0  0  0  0  0
  141.7750   81.1760  223.6750 C   0  0  0  0  0  0  0  0  0  0  0  0
  141.8140   79.7950  223.6150 C   0  0  0  0  0  0  0  0  0  0  0  0
  141.7350   79.1830  222.3730 C   0  0  0  0  0  0  0  0  0  0  0  0
  141.7520   77.8970  222.0310 N   0  0  0  0  0  0  0  0  0  0  0  0
  142.0580   75.2020  220.5810 N   0  0  0  0  0  0  0  0  0  0  0  0
  141.1060   74.3120  221.2930 C   0  0  0  0  0  0  0  0  0  0  0  0
  141.5560   72.9320  220.9080 C   0  0  2  0  0  0  0  0  0  0  0  0
  140.9600   72.5070  219.6100 C   0  0  0  0  0  0  0  0  0  0  0  0
  140.4110   71.1140  219.9130 C   0  0  0  0  0  0  0  0  0  0  0  0
  140.2610   71.0030  221.2960 N   0  0  0  0  0  0  0  0  0  0  0  0
  139.0380   70.9820  221.9550 C   0  0  0  0  0  0  0  0  0  0  0  0
  138.9730   71.1620  223.4270 C   0  0  0  0  0  0  0  0  0  0  0  0
  137.8140   70.7040  224.2210 C   0  0  0  0  0  0  0  0  0  0  0  0
  138.6070   69.5170  224.7240 C   0  0  0  0  0  0  0  0  0  0  0  0
  139.8720   70.2290  224.2260 C   0  0  0  0  0  0  0  0  0  0  0  0
  141.1980   71.8920  221.9380 C   0  0  0  0  0  0  0  0  0  0  0  0
  143.0260   73.1130  220.7750 C   0  0  0  0  0  0  0  0  0  0  0  0
  144.0890   72.2260  220.8100 C   0  0  0  0  0  0  0  0  0  0  0  0
  145.4020   72.6370  220.6650 C   0  0  0  0  0  0  0  0  0  0  0  0
  145.6280   73.9900  220.4770 C   0  0  0  0  0  0  0  0  0  0  0  0
  144.5630   74.8680  220.4430 C   0  0  0  0  0  0  0  0  0  0  0  0
  143.2590   74.4690  220.5860 C   0  0  0  0  0  0  0  0  0  0  0  0
  141.4817   79.2828  219.1298 H   0  0  0  0  0  0  0  0  0  0  0  0
  141.6264   83.0128  222.5620 H   0  0  0  0  0  0  0  0  0  0  0  0
  141.8361   81.6887  224.6463 H   0  0  0  0  0  0  0  0  0  0  0  0
  141.9057   79.1950  224.5324 H   0  0  0  0  0  0  0  0  0  0  0  0
  141.8290   77.1090  222.7410 H   0  0  0  0  0  0  0  0  0  0  0  0
  141.1720   74.4571  222.3814 H   0  0  0  0  0  0  0  0  0  0  0  0
  140.0569   74.5088  221.0271 H   0  0  0  0  0  0  0  0  0  0  0  0
  140.1538   73.1901  219.3044 H   0  0  0  0  0  0  0  0  0  0  0  0
  141.6842   72.5129  218.7820 H   0  0  0  0  0  0  0  0  0  0  0  0
  139.4369   70.9808  219.4196 H   0  0  0  0  0  0  0  0  0  0  0  0
  141.0992   70.3415  219.5392 H   0  0  0  0  0  0  0  0  0  0  0  0
  138.4274   71.7827  221.5122 H   0  0  0  0  0  0  0  0  0  0  0  0
  138.7001   69.9443  221.8172 H   0  0  0  0  0  0  0  0  0  0  0  0
  139.1291   72.2484  223.3536 H   0  0  0  0  0  0  0  0  0  0  0  0
  137.5093   71.4051  225.0119 H   0  0  0  0  0  0  0  0  0  0  0  0
  136.8392   70.5498  223.7351 H   0  0  0  0  0  0  0  0  0  0  0  0
  138.5649   69.3664  225.8128 H   0  0  0  0  0  0  0  0  0  0  0  0
  138.3646   68.4892  224.4160 H   0  0  0  0  0  0  0  0  0  0  0  0
  140.4573   70.7242  225.0148 H   0  0  0  0  0  0  0  0  0  0  0  0
  140.6911   69.6730  223.7465 H   0  0  0  0  0  0  0  0  0  0  0  0
  140.7348   72.3667  222.8155 H   0  0  0  0  0  0  0  0  0  0  0  0
  142.0886   71.3518  222.2917 H   0  0  0  0  0  0  0  0  0  0  0  0
  143.8818   71.1559  220.9585 H   0  0  0  0  0  0  0  0  0  0  0  0
  146.2334   71.9175  220.6977 H   0  0  0  0  0  0  0  0  0  0  0  0
  146.6549   74.3650  220.3549 H   0  0  0  0  0  0  0  0  0  0  0  0
  144.7704   75.9380  220.2942 H   0  0  0  0  0  0  0  0  0  0  0  0
  1  2  2  0
  2  3  1  0
  3  4  2  0
  4  5  1  0
  5  6  2  0
  6  7  1  0
  6  8  1  0
  8  9  2  0
  9 10  1  0
 10 11  2  0
 11 12  1  0
  2 13  1  0
 13 14  1  0
 15 14  1  1
 15 16  1  0
 16 17  1  0
 17 18  1  0
 18 19  1  0
 19 20  1  0
 20 21  1  0
 21 22  1  0
 22 23  1  0
 18 24  1  0
 15 25  1  0
 25 26  2  0
 26 27  1  0
 27 28  2  0
 28 29  1  0
 29 30  2  0
 12  3  1  0
 30 13  1  0
 11  5  1  0
 24 15  1  0
 30 25  1  0
 23 20  1  0
  4 31  1  0
  8 32  1  0
  9 33  1  0
 10 34  1  0
 12 35  1  0
 14 36  1  0
 14 37  1  0
 16 38  1  0
 16 39  1  0
 17 40  1  0
 17 41  1  0
 19 42  1  0
 19 43  1  0
 20 44  1  0
 21 45  1  0
 21 46  1  0
 22 47  1  0
 22 48  1  0
 23 49  1  0
 23 50  1  0
 24 51  1  0
 24 52  1  0
 26 53  1  0
 27 54  1  0
 28 55  1  0
 29 56  1  0
M  END
>  <smiles>  (10) 
O=C(c1cc2c(F)cccc2[nH]1)N1C[C@@]2(CCN(CC3CCC3)C2)c2ccccc21

>  <score_type>  (10) 
oracle

>  <origin>  (10) 
autodockgpu

>  <m_score__min__energy>  (10) 
-8.1199999999999992

>  <m_primary>  (10) 
energy

>  <rmsd>  (10) 
8.333721272077568

>  <m_score__min__rmsd>  (10) 
8.333721272077568

>  <meeko>  (10) 
{"free_energy": -7.66, "intermolecular_energy": -8.85, "internal_energy": -1.07, "cluster_size": 2, "cluster_id": 5, "rank_in_cluster": 2}

>  <energy>  (10) 
-7.88

>  <cluster_rmsd>  (10) 
1.29

>  <cluster>  (10) 
1

$$$$

     RDKit          3D

 56 61  0  0  0  0  0  0  0  0999 V2000
  139.2710   70.4190  221.9760 O   0  0  0  0  0  0  0  0  0  0  0  0
  139.6850   71.3490  222.7630 C   0  0  0  0  0  0  0  0  0  0  0  0
  139.9650   70.8890  224.1000 C   0  0  0  0  0  0  0  0  0  0  0  0
  140.3800   71.5080  225.2450 C   0  0  0  0  0  0  0  0  0  0  0  0
  140.5300   70.5880  226.2510 C   0  0  0  0  0  0  0  0  0  0  0  0
  140.9250   70.7110  227.5740 C   0  0  0  0  0  0  0  0  0  0  0  0
  141.2530   71.9080  228.1230 F   0  0  0  0  0  0  0  0  0  0  0  0
  140.9700   69.5440  228.3270 C   0  0  0  0  0  0  0  0  0  0  0  0
  140.6360   68.3030  227.7890 C   0  0  0  0  0  0  0  0  0  0  0  0
  140.2450   68.2130  226.4650 C   0  0  0  0  0  0  0  0  0  0  0  0
  140.1980   69.3740  225.7080 C   0  0  0  0  0  0  0  0  0  0  0  0
  139.8660   69.5720  224.4340 N   0  0  0  0  0  0  0  0  0  0  0  0
  139.7860   72.6240  222.2010 N   0  0  0  0  0  0  0  0  0  0  0  0
  141.0930   73.2930  221.9770 C   0  0  0  0  0  0  0  0  0  0  0  0
  140.8780   74.0750  220.7130 C   0  0  2  0  0  0  0  0  0  0  0  0
  141.1160   73.2360  219.5060 C   0  0  0  0  0  0  0  0  0  0  0  0
  142.0400   74.1020  218.6500 C   0  0  0  0  0  0  0  0  0  0  0  0
  142.6390   75.0450  219.4860 N   0  0  0  0  0  0  0  0  0  0  0  0
  143.9770   75.0270  219.8600 C   0  0  0  0  0  0  0  0  0  0  0  0
  144.7610   73.7690  219.7930 C   0  0  0  0  0  0  0  0  0  0  0  0
  146.1970   73.7210  220.1380 C   0  0  0  0  0  0  0  0  0  0  0  0
  145.8730   73.0710  221.4670 C   0  0  0  0  0  0  0  0  0  0  0  0
  144.4730   72.7750  220.9100 C   0  0  0  0  0  0  0  0  0  0  0  0
  141.7730   75.2840  220.6140 C   0  0  0  0  0  0  0  0  0  0  0  0
  139.4410   74.4430  220.8200 C   0  0  0  0  0  0  0  0  0  0  0  0
  138.6790   75.4380  220.2280 C   0  0  0  0  0  0  0  0  0  0  0  0
  137.3300   75.5910  220.4910 C   0  0  0  0  0  0  0  0  0  0  0  0
  136.7490   74.7030  221.3800 C   0  0  0  0  0  0  0  0  0  0  0  0
  137.5150   73.7150  221.9650 C   0  0  0  0  0  0  0  0  0  0  0  0
  138.8520   73.5550  221.7110 C   0  0  0  0  0  0  0  0  0  0  0  0
  140.5667   72.5874  225.3454 H   0  0  0  0  0  0  0  0  0  0  0  0
  141.2791   69.6018  229.3811 H   0  0  0  0  0  0  0  0  0  0  0  0
  140.6830   67.3990  228.4140 H   0  0  0  0  0  0  0  0  0  0  0  0
  139.9773   67.2421  226.0226 H   0  0  0  0  0  0  0  0  0  0  0  0
  139.5630   68.7870  223.7850 H   0  0  0  0  0  0  0  0  0  0  0  0
  141.3407   73.9613  222.8149 H   0  0  0  0  0  0  0  0  0  0  0  0
  141.9294   72.5825  221.9027 H   0  0  0  0  0  0  0  0  0  0  0  0
  141.6035   72.2875  219.7757 H   0  0  0  0  0  0  0  0  0  0  0  0
  140.1872   72.9559  218.9874 H   0  0  0  0  0  0  0  0  0  0  0  0
  142.8120   73.4744  218.1808 H   0  0  0  0  0  0  0  0  0  0  0  0
  141.4683   74.6027  217.8547 H   0  0  0  0  0  0  0  0  0  0  0  0
  144.4937   75.7549  219.2172 H   0  0  0  0  0  0  0  0  0  0  0  0
  143.9349   75.2349  220.9393 H   0  0  0  0  0  0  0  0  0  0  0  0
  144.4961   73.5997  218.7389 H   0  0  0  0  0  0  0  0  0  0  0  0
  146.7968   73.0893  219.4663 H   0  0  0  0  0  0  0  0  0  0  0  0
  146.8024   74.6389  220.1064 H   0  0  0  0  0  0  0  0  0  0  0  0
  146.4722   72.1780  221.6983 H   0  0  0  0  0  0  0  0  0  0  0  0
  146.0145   73.6030  222.4193 H   0  0  0  0  0  0  0  0  0  0  0  0
  144.3263   71.7386  220.5719 H   0  0  0  0  0  0  0  0  0  0  0  0
  143.5753   72.8647  221.5393 H   0  0  0  0  0  0  0  0  0  0  0  0
  142.3656   75.3974  221.5338 H   0  0  0  0  0  0  0  0  0  0  0  0
  141.1900   76.2080  220.4862 H   0  0  0  0  0  0  0  0  0  0  0  0
  139.1643   76.1303  219.5243 H   0  0  0  0  0  0  0  0  0  0  0  0
  136.7414   76.3875  220.0123 H   0  0  0  0  0  0  0  0  0  0  0  0
  135.6786   74.7847  221.6198 H   0  0  0  0  0  0  0  0  0  0  0  0
  137.0290   73.0231  222.6686 H   0  0  0  0  0  0  0  0  0  0  0  0
  1  2  2  0
  2  3  1  0
  3  4  2  0
  4  5  1  0
  5  6  2  0
  6  7  1  0
  6  8  1  0
  8  9  2  0
  9 10  1  0
 10 11  2  0
 11 12  1  0
  2 13  1  0
 13 14  1  0
 15 14  1  1
 15 16  1  0
 16 17  1  0
 17 18  1  0
 18 19  1  0
 19 20  1  0
 20 21  1  0
 21 22  1  0
 22 23  1  0
 18 24  1  0
 15 25  1  0
 25 26  2  0
 26 27  1  0
 27 28  2  0
 28 29  1  0
 29 30  2  0
 12  3  1  0
 30 13  1  0
 11  5  1  0
 24 15  1  0
 30 25  1  0
 23 20  1  0
  4 31  1  0
  8 32  1  0
  9 33  1  0
 10 34  1  0
 12 35  1  0
 14 36  1  0
 14 37  1  0
 16 38  1  0
 16 39  1  0
 17 40  1  0
 17 41  1  0
 19 42  1  0
 19 43  1  0
 20 44  1  0
 21 45  1  0
 21 46  1  0
 22 47  1  0
 22 48  1  0
 23 49  1  0
 23 50  1  0
 24 51  1  0
 24 52  1  0
 26 53  1  0
 27 54  1  0
 28 55  1  0
 29 56  1  0
M  END
>  <smiles>  (11) 
O=C(c1cc2c(F)cccc2[nH]1)N1C[C@@]2(CCN(CC3CCC3)C2)c2ccccc21

>  <score_type>  (11) 
oracle

>  <origin>  (11) 
autodockgpu

>  <m_score__min__energy>  (11) 
-8.1199999999999992

>  <m_primary>  (11) 
energy

>  <rmsd>  (11) 
4.625893044290525

>  <m_score__min__rmsd>  (11) 
4.625893044290525

>  <meeko>  (11) 
{"free_energy": -7.79, "intermolecular_energy": -8.98, "internal_energy": -1.6, "cluster_size": 22, "cluster_id": 4, "rank_in_cluster": 15}

>  <energy>  (11) 
-7.88

>  <cluster_rmsd>  (11) 
1.29

>  <cluster>  (11) 
1

$$$$

     RDKit          3D

 56 61  0  0  0  0  0  0  0  0999 V2000
  139.1740   70.4380  222.0070 O   0  0  0  0  0  0  0  0  0  0  0  0
  139.6410   71.3560  222.7790 C   0  0  0  0  0  0  0  0  0  0  0  0
  139.9440   70.8890  224.1090 C   0  0  0  0  0  0  0  0  0  0  0  0
  140.3730   71.5040  225.2510 C   0  0  0  0  0  0  0  0  0  0  0  0
  140.5420   70.5790  226.2500 C   0  0  0  0  0  0  0  0  0  0  0  0
  140.9580   70.6960  227.5670 C   0  0  0  0  0  0  0  0  0  0  0  0
  141.2890   71.8920  228.1180 F   0  0  0  0  0  0  0  0  0  0  0  0
  141.0190   69.5250  228.3130 C   0  0  0  0  0  0  0  0  0  0  0  0
  140.6830   68.2860  227.7720 C   0  0  0  0  0  0  0  0  0  0  0  0
  140.2720   68.2010  226.4540 C   0  0  0  0  0  0  0  0  0  0  0  0
  140.2070   69.3670  225.7050 C   0  0  0  0  0  0  0  0  0  0  0  0
  139.8550   69.5700  224.4370 N   0  0  0  0  0  0  0  0  0  0  0  0
  139.7680   72.6250  222.2110 N   0  0  0  0  0  0  0  0  0  0  0  0
  141.0890   73.2670  221.9860 C   0  0  0  0  0  0  0  0  0  0  0  0
  140.8910   74.0460  220.7170 C   0  0  2  0  0  0  0  0  0  0  0  0
  141.1140   73.1970  219.5140 C   0  0  0  0  0  0  0  0  0  0  0  0
  142.0560   74.0400  218.6560 C   0  0  0  0  0  0  0  0  0  0  0  0
  142.6730   74.9750  219.4880 N   0  0  0  0  0  0  0  0  0  0  0  0
  144.0100   74.9330  219.8640 C   0  0  0  0  0  0  0  0  0  0  0  0
  144.5060   73.8560  220.7560 C   0  0  0  0  0  0  0  0  0  0  0  0
  144.4490   72.4310  220.3700 C   0  0  0  0  0  0  0  0  0  0  0  0
  145.9350   72.4330  220.0790 C   0  0  0  0  0  0  0  0  0  0  0  0
  146.0220   73.7540  220.8550 C   0  0  0  0  0  0  0  0  0  0  0  0
  141.8090   75.2370  220.6130 C   0  0  0  0  0  0  0  0  0  0  0  0
  139.4610   74.4440  220.8200 C   0  0  0  0  0  0  0  0  0  0  0  0
  138.7200   75.4500  220.2220 C   0  0  0  0  0  0  0  0  0  0  0  0
  137.3740   75.6320  220.4820 C   0  0  0  0  0  0  0  0  0  0  0  0
  136.7740   74.7600  221.3740 C   0  0  0  0  0  0  0  0  0  0  0  0
  137.5190   73.7600  221.9660 C   0  0  0  0  0  0  0  0  0  0  0  0
  138.8540   73.5720  221.7140 C   0  0  0  0  0  0  0  0  0  0  0  0
  140.5562   72.5837  225.3545 H   0  0  0  0  0  0  0  0  0  0  0  0
  141.3426   69.5781  229.3630 H   0  0  0  0  0  0  0  0  0  0  0  0
  140.7443   67.3786  228.3907 H   0  0  0  0  0  0  0  0  0  0  0  0
  140.0029   67.2313  226.0099 H   0  0  0  0  0  0  0  0  0  0  0  0
  139.5450   68.7880  223.7890 H   0  0  0  0  0  0  0  0  0  0  0  0
  141.3484   73.9350  222.8206 H   0  0  0  0  0  0  0  0  0  0  0  0
  141.9117   72.5400  221.9175 H   0  0  0  0  0  0  0  0  0  0  0  0
  141.5819   72.2401  219.7887 H   0  0  0  0  0  0  0  0  0  0  0  0
  140.1806   72.9334  218.9952 H   0  0  0  0  0  0  0  0  0  0  0  0
  142.8158   73.3948  218.1909 H   0  0  0  0  0  0  0  0  0  0  0  0
  141.4953   74.5485  217.8579 H   0  0  0  0  0  0  0  0  0  0  0  0
  144.5969   74.8693  218.9359 H   0  0  0  0  0  0  0  0  0  0  0  0
  144.1232   75.8373  220.4799 H   0  0  0  0  0  0  0  0  0  0  0  0
  143.8579   74.1741  221.5859 H   0  0  0  0  0  0  0  0  0  0  0  0
  144.1552   71.7579  221.1889 H   0  0  0  0  0  0  0  0  0  0  0  0
  143.7373   72.0964  219.6009 H   0  0  0  0  0  0  0  0  0  0  0  0
  146.4914   71.5987  220.5311 H   0  0  0  0  0  0  0  0  0  0  0  0
  146.3223   72.3395  219.0537 H   0  0  0  0  0  0  0  0  0  0  0  0
  146.4065   73.6559  221.8809 H   0  0  0  0  0  0  0  0  0  0  0  0
  146.6742   74.5736  220.5191 H   0  0  0  0  0  0  0  0  0  0  0  0
  142.4017   75.3444  221.5334 H   0  0  0  0  0  0  0  0  0  0  0  0
  141.2439   76.1711  220.4785 H   0  0  0  0  0  0  0  0  0  0  0  0
  139.2201   76.1283  219.5150 H   0  0  0  0  0  0  0  0  0  0  0  0
  136.8025   76.4382  219.9988 H   0  0  0  0  0  0  0  0  0  0  0  0
  135.7048   74.8638  221.6108 H   0  0  0  0  0  0  0  0  0  0  0  0
  137.0185   73.0821  222.6731 H   0  0  0  0  0  0  0  0  0  0  0  0
  1  2  2  0
  2  3  1  0
  3  4  2  0
  4  5  1  0
  5  6  2  0
  6  7  1  0
  6  8  1  0
  8  9  2  0
  9 10  1  0
 10 11  2  0
 11 12  1  0
  2 13  1  0
 13 14  1  0
 15 14  1  1
 15 16  1  0
 16 17  1  0
 17 18  1  0
 18 19  1  0
 19 20  1  0
 20 21  1  0
 21 22  1  0
 22 23  1  0
 18 24  1  0
 15 25  1  0
 25 26  2  0
 26 27  1  0
 27 28  2  0
 28 29  1  0
 29 30  2  0
 12  3  1  0
 30 13  1  0
 11  5  1  0
 24 15  1  0
 30 25  1  0
 23 20  1  0
  4 31  1  0
  8 32  1  0
  9 33  1  0
 10 34  1  0
 12 35  1  0
 14 36  1  0
 14 37  1  0
 16 38  1  0
 16 39  1  0
 17 40  1  0
 17 41  1  0
 19 42  1  0
 19 43  1  0
 20 44  1  0
 21 45  1  0
 21 46  1  0
 22 47  1  0
 22 48  1  0
 23 49  1  0
 23 50  1  0
 24 51  1  0
 24 52  1  0
 26 53  1  0
 27 54  1  0
 28 55  1  0
 29 56  1  0
M  END
>  <smiles>  (12) 
O=C(c1cc2c(F)cccc2[nH]1)N1C[C@@]2(CCN(CC3CCC3)C2)c2ccccc21

>  <score_type>  (12) 
oracle

>  <origin>  (12) 
autodockgpu

>  <m_score__min__energy>  (12) 
-8.1199999999999992

>  <m_primary>  (12) 
energy

>  <rmsd>  (12) 
4.6197227598130395

>  <m_score__min__rmsd>  (12) 
4.6197227598130395

>  <meeko>  (12) 
{"free_energy": -7.85, "intermolecular_energy": -9.04, "internal_energy": -1.59, "cluster_size": 22, "cluster_id": 4, "rank_in_cluster": 2}

>  <energy>  (12) 
-7.87

>  <cluster_rmsd>  (12) 
1.28

>  <cluster>  (12) 
1

$$$$

     RDKit          3D

 56 61  0  0  0  0  0  0  0  0999 V2000
  139.2060   70.4360  221.9840 O   0  0  0  0  0  0  0  0  0  0  0  0
  139.6620   71.3570  222.7600 C   0  0  0  0  0  0  0  0  0  0  0  0
  139.9570   70.8910  224.0920 C   0  0  0  0  0  0  0  0  0  0  0  0
  140.3790   71.5070  225.2360 C   0  0  0  0  0  0  0  0  0  0  0  0
  140.5430   70.5830  226.2360 C   0  0  0  0  0  0  0  0  0  0  0  0
  140.9500   70.7010  227.5560 C   0  0  0  0  0  0  0  0  0  0  0  0
  141.2760   71.8980  228.1080 F   0  0  0  0  0  0  0  0  0  0  0  0
  141.0080   69.5310  228.3030 C   0  0  0  0  0  0  0  0  0  0  0  0
  140.6770   68.2910  227.7610 C   0  0  0  0  0  0  0  0  0  0  0  0
  140.2740   68.2050  226.4400 C   0  0  0  0  0  0  0  0  0  0  0  0
  140.2130   69.3700  225.6900 C   0  0  0  0  0  0  0  0  0  0  0  0
  139.8680   69.5720  224.4200 N   0  0  0  0  0  0  0  0  0  0  0  0
  139.7870   72.6270  222.1930 N   0  0  0  0  0  0  0  0  0  0  0  0
  141.1070   73.2700  221.9650 C   0  0  0  0  0  0  0  0  0  0  0  0
  140.9050   74.0510  220.6980 C   0  0  2  0  0  0  0  0  0  0  0  0
  141.1260   73.2020  219.4940 C   0  0  0  0  0  0  0  0  0  0  0  0
  142.0650   74.0470  218.6340 C   0  0  0  0  0  0  0  0  0  0  0  0
  142.6840   74.9820  219.4660 N   0  0  0  0  0  0  0  0  0  0  0  0
  144.0210   74.9400  219.8380 C   0  0  0  0  0  0  0  0  0  0  0  0
  144.5160   73.8760  220.7470 C   0  0  0  0  0  0  0  0  0  0  0  0
  144.4620   72.4460  220.3790 C   0  0  0  0  0  0  0  0  0  0  0  0
  145.9490   72.4460  220.0930 C   0  0  0  0  0  0  0  0  0  0  0  0
  146.0320   73.7780  220.8530 C   0  0  0  0  0  0  0  0  0  0  0  0
  141.8230   75.2420  220.5930 C   0  0  0  0  0  0  0  0  0  0  0  0
  139.4760   74.4470  220.8040 C   0  0  0  0  0  0  0  0  0  0  0  0
  138.7320   75.4540  220.2100 C   0  0  0  0  0  0  0  0  0  0  0  0
  137.3860   75.6340  220.4730 C   0  0  0  0  0  0  0  0  0  0  0  0
  136.7890   74.7600  221.3660 C   0  0  0  0  0  0  0  0  0  0  0  0
  137.5370   73.7600  221.9550 C   0  0  0  0  0  0  0  0  0  0  0  0
  138.8710   73.5740  221.7000 C   0  0  0  0  0  0  0  0  0  0  0  0
  140.5608   72.5869  225.3399 H   0  0  0  0  0  0  0  0  0  0  0  0
  141.3251   69.5854  229.3549 H   0  0  0  0  0  0  0  0  0  0  0  0
  140.7358   67.3840  228.3806 H   0  0  0  0  0  0  0  0  0  0  0  0
  140.0081   67.2348  225.9950 H   0  0  0  0  0  0  0  0  0  0  0  0
  139.5640   68.7890  223.7700 H   0  0  0  0  0  0  0  0  0  0  0  0
  141.3686   73.9367  222.7999 H   0  0  0  0  0  0  0  0  0  0  0  0
  141.9297   72.5434  221.8928 H   0  0  0  0  0  0  0  0  0  0  0  0
  141.5959   72.2457  219.7673 H   0  0  0  0  0  0  0  0  0  0  0  0
  140.1917   72.9369  218.9774 H   0  0  0  0  0  0  0  0  0  0  0  0
  142.8240   73.4030  218.1658 H   0  0  0  0  0  0  0  0  0  0  0  0
  141.5016   74.5560  217.8381 H   0  0  0  0  0  0  0  0  0  0  0  0
  144.6044   74.8577  218.9091 H   0  0  0  0  0  0  0  0  0  0  0  0
  144.1400   75.8540  220.4383 H   0  0  0  0  0  0  0  0  0  0  0  0
  143.8652   74.2041  221.5709 H   0  0  0  0  0  0  0  0  0  0  0  0
  144.1662   71.7831  221.2055 H   0  0  0  0  0  0  0  0  0  0  0  0
  143.7533   72.1008  219.6118 H   0  0  0  0  0  0  0  0  0  0  0  0
  146.5048   71.6182  220.5575 H   0  0  0  0  0  0  0  0  0  0  0  0
  146.3399   72.3399  219.0703 H   0  0  0  0  0  0  0  0  0  0  0  0
  146.4130   73.6936  221.8815 H   0  0  0  0  0  0  0  0  0  0  0  0
  146.6844   74.5942  220.5092 H   0  0  0  0  0  0  0  0  0  0  0  0
  142.4180   75.3481  221.5121 H   0  0  0  0  0  0  0  0  0  0  0  0
  141.2575   76.1762  220.4609 H   0  0  0  0  0  0  0  0  0  0  0  0
  139.2298   76.1348  219.5038 H   0  0  0  0  0  0  0  0  0  0  0  0
  136.8123   76.4398  219.9917 H   0  0  0  0  0  0  0  0  0  0  0  0
  135.7203   74.8623  221.6058 H   0  0  0  0  0  0  0  0  0  0  0  0
  137.0390   73.0805  222.6623 H   0  0  0  0  0  0  0  0  0  0  0  0
  1  2  2  0
  2  3  1  0
  3  4  2  0
  4  5  1  0
  5  6  2  0
  6  7  1  0
  6  8  1  0
  8  9  2  0
  9 10  1  0
 10 11  2  0
 11 12  1  0
  2 13  1  0
 13 14  1  0
 15 14  1  1
 15 16  1  0
 16 17  1  0
 17 18  1  0
 18 19  1  0
 19 20  1  0
 20 21  1  0
 21 22  1  0
 22 23  1  0
 18 24  1  0
 15 25  1  0
 25 26  2  0
 26 27  1  0
 27 28  2  0
 28 29  1  0
 29 30  2  0
 12  3  1  0
 30 13  1  0
 11  5  1  0
 24 15  1  0
 30 25  1  0
 23 20  1  0
  4 31  1  0
  8 32  1  0
  9 33  1  0
 10 34  1  0
 12 35  1  0
 14 36  1  0
 14 37  1  0
 16 38  1  0
 16 39  1  0
 17 40  1  0
 17 41  1  0
 19 42  1  0
 19 43  1  0
 20 44  1  0
 21 45  1  0
 21 46  1  0
 22 47  1  0
 22 48  1  0
 23 49  1  0
 23 50  1  0
 24 51  1  0
 24 52  1  0
 26 53  1  0
 27 54  1  0
 28 55  1  0
 29 56  1  0
M  END
>  <smiles>  (13) 
O=C(c1cc2c(F)cccc2[nH]1)N1C[C@@]2(CCN(CC3CCC3)C2)c2ccccc21

>  <score_type>  (13) 
oracle

>  <origin>  (13) 
autodockgpu

>  <m_score__min__energy>  (13) 
-8.1199999999999992

>  <m_primary>  (13) 
energy

>  <rmsd>  (13) 
4.6095535541951955

>  <m_score__min__rmsd>  (13) 
4.6095535541951955

>  <meeko>  (13) 
{"free_energy": -7.85, "intermolecular_energy": -9.04, "internal_energy": -1.59, "cluster_size": 22, "cluster_id": 4, "rank_in_cluster": 5}

>  <energy>  (13) 
-7.66

>  <cluster_rmsd>  (13) 
1.44

>  <cluster>  (13) 
1

$$$$

     RDKit          3D

 56 61  0  0  0  0  0  0  0  0999 V2000
  139.2020   70.4850  221.9790 O   0  0  0  0  0  0  0  0  0  0  0  0
  139.6530   71.3910  222.7730 C   0  0  0  0  0  0  0  0  0  0  0  0
  139.9230   70.9070  224.1030 C   0  0  0  0  0  0  0  0  0  0  0  0
  140.3370   71.5050  225.2600 C   0  0  0  0  0  0  0  0  0  0  0  0
  140.4740   70.5680  226.2530 C   0  0  0  0  0  0  0  0  0  0  0  0
  140.8630   70.6660  227.5790 C   0  0  0  0  0  0  0  0  0  0  0  0
  141.1980   71.8520  228.1490 F   0  0  0  0  0  0  0  0  0  0  0  0
  140.8950   69.4870  228.3140 C   0  0  0  0  0  0  0  0  0  0  0  0
  140.5540   68.2580  227.7540 C   0  0  0  0  0  0  0  0  0  0  0  0
  140.1690   68.1920  226.4270 C   0  0  0  0  0  0  0  0  0  0  0  0
  140.1350   69.3650  225.6880 C   0  0  0  0  0  0  0  0  0  0  0  0
  139.8110   69.5860  224.4160 N   0  0  0  0  0  0  0  0  0  0  0  0
  139.7990   72.6670  222.2230 N   0  0  0  0  0  0  0  0  0  0  0  0
  141.1290   73.2770  221.9700 C   0  0  0  0  0  0  0  0  0  0  0  0
  140.9150   74.0850  220.7220 C   0  0  2  0  0  0  0  0  0  0  0  0
  141.0790   73.2510  219.4980 C   0  0  0  0  0  0  0  0  0  0  0  0
  142.0180   74.0840  218.6270 C   0  0  0  0  0  0  0  0  0  0  0  0
  142.6850   74.9870  219.4560 N   0  0  0  0  0  0  0  0  0  0  0  0
  144.0310   74.9020  219.7910 C   0  0  0  0  0  0  0  0  0  0  0  0
  144.5070   73.8580  220.7310 C   0  0  0  0  0  0  0  0  0  0  0  0
  144.4620   72.4200  220.3920 C   0  0  0  0  0  0  0  0  0  0  0  0
  145.9550   72.4170  220.1380 C   0  0  0  0  0  0  0  0  0  0  0  0
  146.0200   73.7640  220.8720 C   0  0  0  0  0  0  0  0  0  0  0  0
  141.8620   75.2520  220.6110 C   0  0  0  0  0  0  0  0  0  0  0  0
  139.5010   74.5190  220.8740 C   0  0  0  0  0  0  0  0  0  0  0  0
  138.7700   75.5550  220.3160 C   0  0  0  0  0  0  0  0  0  0  0  0
  137.4370   75.7680  220.6200 C   0  0  0  0  0  0  0  0  0  0  0  0
  136.8400   74.8960  221.5140 C   0  0  0  0  0  0  0  0  0  0  0  0
  137.5750   73.8660  222.0650 C   0  0  0  0  0  0  0  0  0  0  0  0
  138.8960   73.6470  221.7710 C   0  0  0  0  0  0  0  0  0  0  0  0
  140.5321   72.5811  225.3781 H   0  0  0  0  0  0  0  0  0  0  0  0
  141.1990   69.5255  229.3705 H   0  0  0  0  0  0  0  0  0  0  0  0
  140.5907   67.3437  228.3645 H   0  0  0  0  0  0  0  0  0  0  0  0
  139.8959   67.2303  225.9681 H   0  0  0  0  0  0  0  0  0  0  0  0
  139.5050   68.8140  223.7530 H   0  0  0  0  0  0  0  0  0  0  0  0
  141.4313   73.9218  222.8084 H   0  0  0  0  0  0  0  0  0  0  0  0
  141.9289   72.5295  221.8634 H   0  0  0  0  0  0  0  0  0  0  0  0
  141.5285   72.2772  219.7422 H   0  0  0  0  0  0  0  0  0  0  0  0
  140.1239   73.0213  219.0030 H   0  0  0  0  0  0  0  0  0  0  0  0
  142.7457   73.4272  218.1280 H   0  0  0  0  0  0  0  0  0  0  0  0
  141.4479   74.6219  217.8553 H   0  0  0  0  0  0  0  0  0  0  0  0
  144.5815   74.7540  218.8502 H   0  0  0  0  0  0  0  0  0  0  0  0
  144.2078   75.8349  220.3463 H   0  0  0  0  0  0  0  0  0  0  0  0
  143.8380   74.2025  221.5334 H   0  0  0  0  0  0  0  0  0  0  0  0
  144.1494   71.7740  221.2257 H   0  0  0  0  0  0  0  0  0  0  0  0
  143.7701   72.0574  219.6175 H   0  0  0  0  0  0  0  0  0  0  0  0
  146.5018   71.5998  220.6311 H   0  0  0  0  0  0  0  0  0  0  0  0
  146.3678   72.2909  219.1262 H   0  0  0  0  0  0  0  0  0  0  0  0
  146.3785   73.7011  221.9100 H   0  0  0  0  0  0  0  0  0  0  0  0
  146.6791   74.5738  220.5259 H   0  0  0  0  0  0  0  0  0  0  0  0
  142.4844   75.3266  221.5149 H   0  0  0  0  0  0  0  0  0  0  0  0
  141.3193   76.2034  220.5096 H   0  0  0  0  0  0  0  0  0  0  0  0
  139.2669   76.2324  219.6060 H   0  0  0  0  0  0  0  0  0  0  0  0
  136.8736   76.5980  220.1687 H   0  0  0  0  0  0  0  0  0  0  0  0
  135.7815   75.0238  221.7848 H   0  0  0  0  0  0  0  0  0  0  0  0
  137.0770   73.1883  222.7740 H   0  0  0  0  0  0  0  0  0  0  0  0
  1  2  2  0
  2  3  1  0
  3  4  2  0
  4  5  1  0
  5  6  2  0
  6  7  1  0
  6  8  1  0
  8  9  2  0
  9 10  1  0
 10 11  2  0
 11 12  1  0
  2 13  1  0
 13 14  1  0
 15 14  1  1
 15 16  1  0
 16 17  1  0
 17 18  1  0
 18 19  1  0
 19 20  1  0
 20 21  1  0
 21 22  1  0
 22 23  1  0
 18 24  1  0
 15 25  1  0
 25 26  2  0
 26 27  1  0
 27 28  2  0
 28 29  1  0
 29 30  2  0
 12  3  1  0
 30 13  1  0
 11  5  1  0
 24 15  1  0
 30 25  1  0
 23 20  1  0
  4 31  1  0
  8 32  1  0
  9 33  1  0
 10 34  1  0
 12 35  1  0
 14 36  1  0
 14 37  1  0
 16 38  1  0
 16 39  1  0
 17 40  1  0
 17 41  1  0
 19 42  1  0
 19 43  1  0
 20 44  1  0
 21 45  1  0
 21 46  1  0
 22 47  1  0
 22 48  1  0
 23 49  1  0
 23 50  1  0
 24 51  1  0
 24 52  1  0
 26 53  1  0
 27 54  1  0
 28 55  1  0
 29 56  1  0
M  END
>  <smiles>  (14) 
O=C(c1cc2c(F)cccc2[nH]1)N1C[C@@]2(CCN(CC3CCC3)C2)c2ccccc21

>  <score_type>  (14) 
oracle

>  <origin>  (14) 
autodockgpu

>  <m_score__min__energy>  (14) 
-8.1199999999999992

>  <m_primary>  (14) 
energy

>  <rmsd>  (14) 
4.596491881903459

>  <m_score__min__rmsd>  (14) 
4.596491881903459

>  <meeko>  (14) 
{"free_energy": -7.82, "intermolecular_energy": -9.01, "internal_energy": -1.6, "cluster_size": 22, "cluster_id": 4, "rank_in_cluster": 10}

>  <energy>  (14) 
-7.64

>  <cluster_rmsd>  (14) 
1.43

>  <cluster>  (14) 
1

$$$$

     RDKit          3D

 56 61  0  0  0  0  0  0  0  0999 V2000
  139.2290   70.5040  222.0190 O   0  0  0  0  0  0  0  0  0  0  0  0
  139.6560   71.4140  222.8230 C   0  0  0  0  0  0  0  0  0  0  0  0
  139.9420   70.9230  224.1470 C   0  0  0  0  0  0  0  0  0  0  0  0
  140.3510   71.5180  225.3070 C   0  0  0  0  0  0  0  0  0  0  0  0
  140.5110   70.5750  226.2900 C   0  0  0  0  0  0  0  0  0  0  0  0
  140.9060   70.6690  227.6160 C   0  0  0  0  0  0  0  0  0  0  0  0
  141.2210   71.8550  228.1950 F   0  0  0  0  0  0  0  0  0  0  0  0
  140.9650   69.4840  228.3390 C   0  0  0  0  0  0  0  0  0  0  0  0
  140.6450   68.2530  227.7690 C   0  0  0  0  0  0  0  0  0  0  0  0
  140.2540   68.1920  226.4440 C   0  0  0  0  0  0  0  0  0  0  0  0
  140.1930   69.3710  225.7160 C   0  0  0  0  0  0  0  0  0  0  0  0
  139.8580   69.5980  224.4480 N   0  0  0  0  0  0  0  0  0  0  0  0
  139.7640   72.7000  222.2870 N   0  0  0  0  0  0  0  0  0  0  0  0
  141.0750   73.3210  221.9680 C   0  0  0  0  0  0  0  0  0  0  0  0
  140.7860   74.1480  220.7480 C   0  0  2  0  0  0  0  0  0  0  0  0
  140.8830   73.3360  219.5030 C   0  0  0  0  0  0  0  0  0  0  0  0
  141.7670   74.1880  218.5930 C   0  0  0  0  0  0  0  0  0  0  0  0
  142.4760   75.0810  219.3980 N   0  0  0  0  0  0  0  0  0  0  0  0
  143.8390   74.9980  219.6540 C   0  0  0  0  0  0  0  0  0  0  0  0
  144.3560   74.0600  220.6820 C   0  0  0  0  0  0  0  0  0  0  0  0
  144.4250   72.6030  220.4470 C   0  0  0  0  0  0  0  0  0  0  0  0
  145.9220   72.6920  220.2380 C   0  0  0  0  0  0  0  0  0  0  0  0
  145.8660   74.0880  220.8730 C   0  0  0  0  0  0  0  0  0  0  0  0
  141.7200   75.3220  220.6020 C   0  0  0  0  0  0  0  0  0  0  0  0
  139.3810   74.5720  220.9880 C   0  0  0  0  0  0  0  0  0  0  0  0
  138.6150   75.6130  220.4910 C   0  0  0  0  0  0  0  0  0  0  0  0
  137.3010   75.8140  220.8740 C   0  0  0  0  0  0  0  0  0  0  0  0
  136.7600   74.9240  221.7860 C   0  0  0  0  0  0  0  0  0  0  0  0
  137.5300   73.8890  222.2770 C   0  0  0  0  0  0  0  0  0  0  0  0
  138.8330   73.6820  221.9040 C   0  0  0  0  0  0  0  0  0  0  0  0
  140.5264   72.5965  225.4340 H   0  0  0  0  0  0  0  0  0  0  0  0
  141.2739   69.5184  229.3942 H   0  0  0  0  0  0  0  0  0  0  0  0
  140.7032   67.3339  228.3706 H   0  0  0  0  0  0  0  0  0  0  0  0
  139.9970   67.2295  225.9776 H   0  0  0  0  0  0  0  0  0  0  0  0
  139.5630   68.8260  223.7790 H   0  0  0  0  0  0  0  0  0  0  0  0
  141.4224   73.9536  222.7981 H   0  0  0  0  0  0  0  0  0  0  0  0
  141.8706   72.5795  221.8033 H   0  0  0  0  0  0  0  0  0  0  0  0
  141.3499   72.3606  219.7045 H   0  0  0  0  0  0  0  0  0  0  0  0
  139.9019   73.1101  219.0599 H   0  0  0  0  0  0  0  0  0  0  0  0
  142.4680   73.5433  218.0426 H   0  0  0  0  0  0  0  0  0  0  0  0
  141.1516   74.7350  217.8636 H   0  0  0  0  0  0  0  0  0  0  0  0
  144.3219   74.7229  218.7048 H   0  0  0  0  0  0  0  0  0  0  0  0
  144.0716   75.9851  220.0799 H   0  0  0  0  0  0  0  0  0  0  0  0
  143.6373   74.4097  221.4378 H   0  0  0  0  0  0  0  0  0  0  0  0
  144.1305   71.9959  221.3157 H   0  0  0  0  0  0  0  0  0  0  0  0
  143.7879   72.1371  219.6808 H   0  0  0  0  0  0  0  0  0  0  0  0
  146.5082   71.9541  220.8053 H   0  0  0  0  0  0  0  0  0  0  0  0
  146.3773   72.5255  219.2506 H   0  0  0  0  0  0  0  0  0  0  0  0
  146.1925   74.1252  221.9228 H   0  0  0  0  0  0  0  0  0  0  0  0
  146.4770   74.9176  220.4879 H   0  0  0  0  0  0  0  0  0  0  0  0
  142.3931   75.3852  221.4697 H   0  0  0  0  0  0  0  0  0  0  0  0
  141.1679   76.2718  220.5478 H   0  0  0  0  0  0  0  0  0  0  0  0
  139.0676   76.3050  219.7656 H   0  0  0  0  0  0  0  0  0  0  0  0
  136.7091   76.6484  220.4697 H   0  0  0  0  0  0  0  0  0  0  0  0
  135.7182   75.0415  222.1188 H   0  0  0  0  0  0  0  0  0  0  0  0
  137.0766   73.1972  223.0022 H   0  0  0  0  0  0  0  0  0  0  0  0
  1  2  2  0
  2  3  1  0
  3  4  2  0
  4  5  1  0
  5  6  2  0
  6  7  1  0
  6  8  1  0
  8  9  2  0
  9 10  1  0
 10 11  2  0
 11 12  1  0
  2 13  1  0
 13 14  1  0
 15 14  1  1
 15 16  1  0
 16 17  1  0
 17 18  1  0
 18 19  1  0
 19 20  1  0
 20 21  1  0
 21 22  1  0
 22 23  1  0
 18 24  1  0
 15 25  1  0
 25 26  2  0
 26 27  1  0
 27 28  2  0
 28 29  1  0
 29 30  2  0
 12  3  1  0
 30 13  1  0
 11  5  1  0
 24 15  1  0
 30 25  1  0
 23 20  1  0
  4 31  1  0
  8 32  1  0
  9 33  1  0
 10 34  1  0
 12 35  1  0
 14 36  1  0
 14 37  1  0
 16 38  1  0
 16 39  1  0
 17 40  1  0
 17 41  1  0
 19 42  1  0
 19 43  1  0
 20 44  1  0
 21 45  1  0
 21 46  1  0
 22 47  1  0
 22 48  1  0
 23 49  1  0
 23 50  1  0
 24 51  1  0
 24 52  1  0
 26 53  1  0
 27 54  1  0
 28 55  1  0
 29 56  1  0
M  END
>  <smiles>  (15) 
O=C(c1cc2c(F)cccc2[nH]1)N1C[C@@]2(CCN(CC3CCC3)C2)c2ccccc21

>  <score_type>  (15) 
oracle

>  <origin>  (15) 
autodockgpu

>  <m_score__min__energy>  (15) 
-8.1199999999999992

>  <m_primary>  (15) 
energy

>  <rmsd>  (15) 
4.661516661557361

>  <m_score__min__rmsd>  (15) 
4.661516661557361

>  <meeko>  (15) 
{"free_energy": -7.78, "intermolecular_energy": -8.98, "internal_energy": -1.62, "cluster_size": 22, "cluster_id": 4, "rank_in_cluster": 17}

>  <energy>  (15) 
-7.88

>  <cluster_rmsd>  (15) 
0.0

>  <cluster>  (15) 
2

$$$$

     RDKit          3D

 56 61  0  0  0  0  0  0  0  0999 V2000
  139.2300   70.3970  221.9840 O   0  0  0  0  0  0  0  0  0  0  0  0
  139.6440   71.3300  222.7660 C   0  0  0  0  0  0  0  0  0  0  0  0
  139.9240   70.8750  224.1050 C   0  0  0  0  0  0  0  0  0  0  0  0
  140.3270   71.5000  225.2510 C   0  0  0  0  0  0  0  0  0  0  0  0
  140.4830   70.5840  226.2600 C   0  0  0  0  0  0  0  0  0  0  0  0
  140.8720   70.7140  227.5840 C   0  0  0  0  0  0  0  0  0  0  0  0
  141.1830   71.9160  228.1320 F   0  0  0  0  0  0  0  0  0  0  0  0
  140.9270   69.5490  228.3390 C   0  0  0  0  0  0  0  0  0  0  0  0
  140.6110   68.3030  227.8010 C   0  0  0  0  0  0  0  0  0  0  0  0
  140.2260   68.2060  226.4760 C   0  0  0  0  0  0  0  0  0  0  0  0
  140.1680   69.3660  225.7170 C   0  0  0  0  0  0  0  0  0  0  0  0
  139.8390   69.5580  224.4410 N   0  0  0  0  0  0  0  0  0  0  0  0
  139.7470   72.6020  222.1990 N   0  0  0  0  0  0  0  0  0  0  0  0
  141.0530   73.2830  222.0040 C   0  0  0  0  0  0  0  0  0  0  0  0
  140.8610   74.0550  220.7300 C   0  0  2  0  0  0  0  0  0  0  0  0
  141.1380   73.2110  219.5340 C   0  0  0  0  0  0  0  0  0  0  0  0
  142.0750   74.0810  218.6970 C   0  0  0  0  0  0  0  0  0  0  0  0
  142.6430   75.0350  219.5420 N   0  0  0  0  0  0  0  0  0  0  0  0
  143.9720   75.0340  219.9490 C   0  0  0  0  0  0  0  0  0  0  0  0
  144.5030   73.9220  220.7760 C   0  0  0  0  0  0  0  0  0  0  0  0
  144.2060   72.5070  220.4680 C   0  0  0  0  0  0  0  0  0  0  0  0
  145.5970   72.3220  219.8990 C   0  0  0  0  0  0  0  0  0  0  0  0
  145.9870   73.6370  220.5880 C   0  0  0  0  0  0  0  0  0  0  0  0
  141.7460   75.2720  220.6450 C   0  0  0  0  0  0  0  0  0  0  0  0
  139.4190   74.4090  220.7980 C   0  0  0  0  0  0  0  0  0  0  0  0
  138.6620   75.3920  220.1810 C   0  0  0  0  0  0  0  0  0  0  0  0
  137.3050   75.5340  220.4090 C   0  0  0  0  0  0  0  0  0  0  0  0
  136.7110   74.6450  221.2880 C   0  0  0  0  0  0  0  0  0  0  0  0
  137.4720   73.6680  221.8990 C   0  0  0  0  0  0  0  0  0  0  0  0
  138.8170   73.5200  221.6790 C   0  0  0  0  0  0  0  0  0  0  0  0
  140.5012   72.5816  225.3503 H   0  0  0  0  0  0  0  0  0  0  0  0
  141.2295   69.6122  229.3947 H   0  0  0  0  0  0  0  0  0  0  0  0
  140.6675   67.4005  228.4273 H   0  0  0  0  0  0  0  0  0  0  0  0
  139.9716   67.2313  226.0341 H   0  0  0  0  0  0  0  0  0  0  0  0
  139.5480   68.7680  223.7920 H   0  0  0  0  0  0  0  0  0  0  0  0
  141.2729   73.9588  222.8436 H   0  0  0  0  0  0  0  0  0  0  0  0
  141.8985   72.5810  221.9555 H   0  0  0  0  0  0  0  0  0  0  0  0
  141.6275   72.2689  219.8217 H   0  0  0  0  0  0  0  0  0  0  0  0
  140.2256   72.9188  218.9935 H   0  0  0  0  0  0  0  0  0  0  0  0
  142.8650   73.4584  218.2517 H   0  0  0  0  0  0  0  0  0  0  0  0
  141.5190   74.5713  217.8843 H   0  0  0  0  0  0  0  0  0  0  0  0
  144.5823   75.0665  219.0344 H   0  0  0  0  0  0  0  0  0  0  0  0
  144.0243   75.8967  220.6294 H   0  0  0  0  0  0  0  0  0  0  0  0
  144.0707   74.3327  221.7003 H   0  0  0  0  0  0  0  0  0  0  0  0
  144.0007   71.8903  221.3554 H   0  0  0  0  0  0  0  0  0  0  0  0
  143.3242   72.2477  219.8637 H   0  0  0  0  0  0  0  0  0  0  0  0
  146.1297   71.4345  220.2712 H   0  0  0  0  0  0  0  0  0  0  0  0
  145.7637   72.1629  218.8234 H   0  0  0  0  0  0  0  0  0  0  0  0
  146.5497   73.5117  221.5248 H   0  0  0  0  0  0  0  0  0  0  0  0
  146.6525   74.3641  220.0996 H   0  0  0  0  0  0  0  0  0  0  0  0
  142.3135   75.3978  221.5789 H   0  0  0  0  0  0  0  0  0  0  0  0
  141.1569   76.1888  220.4952 H   0  0  0  0  0  0  0  0  0  0  0  0
  139.1580   76.0844  219.4848 H   0  0  0  0  0  0  0  0  0  0  0  0
  136.7211   76.3223  219.9114 H   0  0  0  0  0  0  0  0  0  0  0  0
  135.6339   74.7166  221.4996 H   0  0  0  0  0  0  0  0  0  0  0  0
  136.9755   72.9759  222.5951 H   0  0  0  0  0  0  0  0  0  0  0  0
  1  2  2  0
  2  3  1  0
  3  4  2  0
  4  5  1  0
  5  6  2  0
  6  7  1  0
  6  8  1  0
  8  9  2  0
  9 10  1  0
 10 11  2  0
 11 12  1  0
  2 13  1  0
 13 14  1  0
 15 14  1  1
 15 16  1  0
 16 17  1  0
 17 18  1  0
 18 19  1  0
 19 20  1  0
 20 21  1  0
 21 22  1  0
 22 23  1  0
 18 24  1  0
 15 25  1  0
 25 26  2  0
 26 27  1  0
 27 28  2  0
 28 29  1  0
 29 30  2  0
 12  3  1  0
 30 13  1  0
 11  5  1  0
 24 15  1  0
 30 25  1  0
 23 20  1  0
  4 31  1  0
  8 32  1  0
  9 33  1  0
 10 34  1  0
 12 35  1  0
 14 36  1  0
 14 37  1  0
 16 38  1  0
 16 39  1  0
 17 40  1  0
 17 41  1  0
 19 42  1  0
 19 43  1  0
 20 44  1  0
 21 45  1  0
 21 46  1  0
 22 47  1  0
 22 48  1  0
 23 49  1  0
 23 50  1  0
 24 51  1  0
 24 52  1  0
 26 53  1  0
 27 54  1  0
 28 55  1  0
 29 56  1  0
M  END
>  <smiles>  (16) 
O=C(c1cc2c(F)cccc2[nH]1)N1C[C@@]2(CCN(CC3CCC3)C2)c2ccccc21

>  <score_type>  (16) 
oracle

>  <origin>  (16) 
autodockgpu

>  <m_score__min__energy>  (16) 
-8.1199999999999992

>  <m_primary>  (16) 
energy

>  <rmsd>  (16) 
4.627805221623013

>  <m_score__min__rmsd>  (16) 
4.627805221623013

>  <meeko>  (16) 
{"free_energy": -7.72, "intermolecular_energy": -8.91, "internal_energy": -1.58, "cluster_size": 22, "cluster_id": 4, "rank_in_cluster": 21}

>  <energy>  (16) 
-7.86

>  <cluster_rmsd>  (16) 
0.49

>  <cluster>  (16) 
2

$$$$

     RDKit          3D

 56 61  0  0  0  0  0  0  0  0999 V2000
  139.2240   70.4200  221.9670 O   0  0  0  0  0  0  0  0  0  0  0  0
  139.6520   71.3460  222.7510 C   0  0  0  0  0  0  0  0  0  0  0  0
  139.9370   70.8820  224.0860 C   0  0  0  0  0  0  0  0  0  0  0  0
  140.3440   71.5000  225.2340 C   0  0  0  0  0  0  0  0  0  0  0  0
  140.5030   70.5770  226.2370 C   0  0  0  0  0  0  0  0  0  0  0  0
  140.8960   70.6980  227.5600 C   0  0  0  0  0  0  0  0  0  0  0  0
  141.2090   71.8960  228.1160 F   0  0  0  0  0  0  0  0  0  0  0  0
  140.9530   69.5280  228.3080 C   0  0  0  0  0  0  0  0  0  0  0  0
  140.6340   68.2860  227.7630 C   0  0  0  0  0  0  0  0  0  0  0  0
  140.2450   68.1980  226.4380 C   0  0  0  0  0  0  0  0  0  0  0  0
  140.1850   69.3620  225.6870 C   0  0  0  0  0  0  0  0  0  0  0  0
  139.8520   69.5630  224.4140 N   0  0  0  0  0  0  0  0  0  0  0  0
  139.7630   72.6200  222.1890 N   0  0  0  0  0  0  0  0  0  0  0  0
  141.0750   73.2820  221.9730 C   0  0  0  0  0  0  0  0  0  0  0  0
  140.8710   74.0640  220.7070 C   0  0  2  0  0  0  0  0  0  0  0  0
  141.1120   73.2230  219.5010 C   0  0  0  0  0  0  0  0  0  0  0  0
  142.0450   74.0840  218.6510 C   0  0  0  0  0  0  0  0  0  0  0  0
  142.6440   75.0250  219.4890 N   0  0  0  0  0  0  0  0  0  0  0  0
  143.9790   75.0010  219.8710 C   0  0  0  0  0  0  0  0  0  0  0  0
  144.7630   73.7440  219.7880 C   0  0  0  0  0  0  0  0  0  0  0  0
  146.1980   73.6920  220.1360 C   0  0  0  0  0  0  0  0  0  0  0  0
  145.8710   73.0220  221.4540 C   0  0  0  0  0  0  0  0  0  0  0  0
  144.4730   72.7340  220.8890 C   0  0  0  0  0  0  0  0  0  0  0  0
  141.7720   75.2690  220.6120 C   0  0  0  0  0  0  0  0  0  0  0  0
  139.4350   74.4400  220.8050 C   0  0  0  0  0  0  0  0  0  0  0  0
  138.6810   75.4380  220.2090 C   0  0  0  0  0  0  0  0  0  0  0  0
  137.3310   75.5980  220.4630 C   0  0  0  0  0  0  0  0  0  0  0  0
  136.7410   74.7130  221.3490 C   0  0  0  0  0  0  0  0  0  0  0  0
  137.4990   73.7210  221.9390 C   0  0  0  0  0  0  0  0  0  0  0  0
  138.8370   73.5550  221.6930 C   0  0  0  0  0  0  0  0  0  0  0  0
  140.5190   72.5809  225.3393 H   0  0  0  0  0  0  0  0  0  0  0  0
  141.2595   69.5843  229.3629 H   0  0  0  0  0  0  0  0  0  0  0  0
  140.6912   67.3794  228.3833 H   0  0  0  0  0  0  0  0  0  0  0  0
  139.9891   67.2263  225.9905 H   0  0  0  0  0  0  0  0  0  0  0  0
  139.5580   68.7770  223.7610 H   0  0  0  0  0  0  0  0  0  0  0  0
  141.3210   73.9497  222.8119 H   0  0  0  0  0  0  0  0  0  0  0  0
  141.9085   72.5675  221.9048 H   0  0  0  0  0  0  0  0  0  0  0  0
  141.5931   72.2721  219.7737 H   0  0  0  0  0  0  0  0  0  0  0  0
  140.1850   72.9473  218.9769 H   0  0  0  0  0  0  0  0  0  0  0  0
  142.8167   73.4523  218.1868 H   0  0  0  0  0  0  0  0  0  0  0  0
  141.4799   74.5873  217.8526 H   0  0  0  0  0  0  0  0  0  0  0  0
  144.4998   75.7394  219.2436 H   0  0  0  0  0  0  0  0  0  0  0  0
  143.9303   75.1915  220.9533 H   0  0  0  0  0  0  0  0  0  0  0  0
  144.5002   73.5895  218.7311 H   0  0  0  0  0  0  0  0  0  0  0  0
  146.8001   73.0709  219.4565 H   0  0  0  0  0  0  0  0  0  0  0  0
  146.8028   74.6107  220.1198 H   0  0  0  0  0  0  0  0  0  0  0  0
  146.4700   72.1259  221.6734 H   0  0  0  0  0  0  0  0  0  0  0  0
  146.0099   73.5396  222.4146 H   0  0  0  0  0  0  0  0  0  0  0  0
  144.3276   71.7027  220.5352 H   0  0  0  0  0  0  0  0  0  0  0  0
  143.5737   72.8141  221.5173 H   0  0  0  0  0  0  0  0  0  0  0  0
  142.3596   75.3808  221.5351 H   0  0  0  0  0  0  0  0  0  0  0  0
  141.1938   76.1954  220.4797 H   0  0  0  0  0  0  0  0  0  0  0  0
  139.1740   76.1281  219.5084 H   0  0  0  0  0  0  0  0  0  0  0  0
  136.7491   76.3969  219.9801 H   0  0  0  0  0  0  0  0  0  0  0  0
  135.6696   74.7999  221.5827 H   0  0  0  0  0  0  0  0  0  0  0  0
  137.0056   73.0313  222.6396 H   0  0  0  0  0  0  0  0  0  0  0  0
  1  2  2  0
  2  3  1  0
  3  4  2  0
  4  5  1  0
  5  6  2  0
  6  7  1  0
  6  8  1  0
  8  9  2  0
  9 10  1  0
 10 11  2  0
 11 12  1  0
  2 13  1  0
 13 14  1  0
 15 14  1  1
 15 16  1  0
 16 17  1  0
 17 18  1  0
 18 19  1  0
 19 20  1  0
 20 21  1  0
 21 22  1  0
 22 23  1  0
 18 24  1  0
 15 25  1  0
 25 26  2  0
 26 27  1  0
 27 28  2  0
 28 29  1  0
 29 30  2  0
 12  3  1  0
 30 13  1  0
 11  5  1  0
 24 15  1  0
 30 25  1  0
 23 20  1  0
  4 31  1  0
  8 32  1  0
  9 33  1  0
 10 34  1  0
 12 35  1  0
 14 36  1  0
 14 37  1  0
 16 38  1  0
 16 39  1  0
 17 40  1  0
 17 41  1  0
 19 42  1  0
 19 43  1  0
 20 44  1  0
 21 45  1  0
 21 46  1  0
 22 47  1  0
 22 48  1  0
 23 49  1  0
 23 50  1  0
 24 51  1  0
 24 52  1  0
 26 53  1  0
 27 54  1  0
 28 55  1  0
 29 56  1  0
M  END
>  <smiles>  (17) 
O=C(c1cc2c(F)cccc2[nH]1)N1C[C@@]2(CCN(CC3CCC3)C2)c2ccccc21

>  <score_type>  (17) 
oracle

>  <origin>  (17) 
autodockgpu

>  <m_score__min__energy>  (17) 
-8.1199999999999992

>  <m_primary>  (17) 
energy

>  <rmsd>  (17) 
4.614299896306296

>  <m_score__min__rmsd>  (17) 
4.614299896306296

>  <meeko>  (17) 
{"free_energy": -7.81, "intermolecular_energy": -9.0, "internal_energy": -1.59, "cluster_size": 22, "cluster_id": 4, "rank_in_cluster": 13}

>  <energy>  (17) 
-7.85

>  <cluster_rmsd>  (17) 
0.0

>  <cluster>  (17) 
3

$$$$

     RDKit          3D

 56 61  0  0  0  0  0  0  0  0999 V2000
  139.3130   70.4280  221.9230 O   0  0  0  0  0  0  0  0  0  0  0  0
  139.7070   71.3520  222.7280 C   0  0  0  0  0  0  0  0  0  0  0  0
  139.9610   70.8790  224.0660 C   0  0  0  0  0  0  0  0  0  0  0  0
  140.3510   71.4880  225.2250 C   0  0  0  0  0  0  0  0  0  0  0  0
  140.4830   70.5590  226.2250 C   0  0  0  0  0  0  0  0  0  0  0  0
  140.8510   70.6700  227.5570 C   0  0  0  0  0  0  0  0  0  0  0  0
  141.1630   71.8630  228.1240 F   0  0  0  0  0  0  0  0  0  0  0  0
  140.8840   69.4960  228.2990 C   0  0  0  0  0  0  0  0  0  0  0  0
  140.5660   68.2590  227.7420 C   0  0  0  0  0  0  0  0  0  0  0  0
  140.2020   68.1810  226.4090 C   0  0  0  0  0  0  0  0  0  0  0  0
  140.1660   69.3500  225.6630 C   0  0  0  0  0  0  0  0  0  0  0  0
  139.8590   69.5590  224.3840 N   0  0  0  0  0  0  0  0  0  0  0  0
  139.8160   72.6320  222.1810 N   0  0  0  0  0  0  0  0  0  0  0  0
  141.1260   73.2980  221.9670 C   0  0  0  0  0  0  0  0  0  0  0  0
  140.9160   74.0950  220.7110 C   0  0  2  0  0  0  0  0  0  0  0  0
  141.1520   73.2690  219.4940 C   0  0  0  0  0  0  0  0  0  0  0  0
  142.0810   74.1400  218.6500 C   0  0  0  0  0  0  0  0  0  0  0  0
  142.6840   75.0710  219.4980 N   0  0  0  0  0  0  0  0  0  0  0  0
  144.0210   75.0420  219.8730 C   0  0  0  0  0  0  0  0  0  0  0  0
  144.7910   73.7740  219.8180 C   0  0  0  0  0  0  0  0  0  0  0  0
  146.2110   73.7030  220.2220 C   0  0  0  0  0  0  0  0  0  0  0  0
  145.8230   73.0360  221.5250 C   0  0  0  0  0  0  0  0  0  0  0  0
  144.4450   72.7670  220.9050 C   0  0  0  0  0  0  0  0  0  0  0  0
  141.8170   75.3010  220.6270 C   0  0  0  0  0  0  0  0  0  0  0  0
  139.4810   74.4690  220.8200 C   0  0  0  0  0  0  0  0  0  0  0  0
  138.7250   75.4750  220.2400 C   0  0  0  0  0  0  0  0  0  0  0  0
  137.3760   75.6320  220.5020 C   0  0  0  0  0  0  0  0  0  0  0  0
  136.7890   74.7360  221.3800 C   0  0  0  0  0  0  0  0  0  0  0  0
  137.5500   73.7370  221.9550 C   0  0  0  0  0  0  0  0  0  0  0  0
  138.8870   73.5740  221.7000 C   0  0  0  0  0  0  0  0  0  0  0  0
  140.5327   72.5668  225.3395 H   0  0  0  0  0  0  0  0  0  0  0  0
  141.1703   69.5445  229.3600 H   0  0  0  0  0  0  0  0  0  0  0  0
  140.6041   67.3489  228.3587 H   0  0  0  0  0  0  0  0  0  0  0  0
  139.9470   67.2138  225.9514 H   0  0  0  0  0  0  0  0  0  0  0  0
  139.5720   68.7790  223.7220 H   0  0  0  0  0  0  0  0  0  0  0  0
  141.3749   73.9559  222.8127 H   0  0  0  0  0  0  0  0  0  0  0  0
  141.9599   72.5851  221.8865 H   0  0  0  0  0  0  0  0  0  0  0  0
  141.6345   72.3150  219.7532 H   0  0  0  0  0  0  0  0  0  0  0  0
  140.2226   72.9997  218.9707 H   0  0  0  0  0  0  0  0  0  0  0  0
  142.8505   73.5141  218.1745 H   0  0  0  0  0  0  0  0  0  0  0  0
  141.5127   74.6529  217.8600 H   0  0  0  0  0  0  0  0  0  0  0  0
  144.5461   75.7581  219.2238 H   0  0  0  0  0  0  0  0  0  0  0  0
  143.9808   75.2608  220.9503 H   0  0  0  0  0  0  0  0  0  0  0  0
  144.5676   73.6238  218.7514 H   0  0  0  0  0  0  0  0  0  0  0  0
  146.8313   73.0748  219.5659 H   0  0  0  0  0  0  0  0  0  0  0  0
  146.8281   74.6136  220.2309 H   0  0  0  0  0  0  0  0  0  0  0  0
  146.4010   72.1318  221.7666 H   0  0  0  0  0  0  0  0  0  0  0  0
  145.9304   73.5509  222.4911 H   0  0  0  0  0  0  0  0  0  0  0  0
  144.3002   71.7380  220.5441 H   0  0  0  0  0  0  0  0  0  0  0  0
  143.5228   72.8583  221.4976 H   0  0  0  0  0  0  0  0  0  0  0  0
  142.4085   75.4013  221.5490 H   0  0  0  0  0  0  0  0  0  0  0  0
  141.2384   76.2290  220.5084 H   0  0  0  0  0  0  0  0  0  0  0  0
  139.2153   76.1738  219.5463 H   0  0  0  0  0  0  0  0  0  0  0  0
  136.7923   76.4369  220.0315 H   0  0  0  0  0  0  0  0  0  0  0  0
  135.7186   74.8198  221.6190 H   0  0  0  0  0  0  0  0  0  0  0  0
  137.0602   73.0394  222.6503 H   0  0  0  0  0  0  0  0  0  0  0  0
  1  2  2  0
  2  3  1  0
  3  4  2  0
  4  5  1  0
  5  6  2  0
  6  7  1  0
  6  8  1  0
  8  9  2  0
  9 10  1  0
 10 11  2  0
 11 12  1  0
  2 13  1  0
 13 14  1  0
 15 14  1  1
 15 16  1  0
 16 17  1  0
 17 18  1  0
 18 19  1  0
 19 20  1  0
 20 21  1  0
 21 22  1  0
 22 23  1  0
 18 24  1  0
 15 25  1  0
 25 26  2  0
 26 27  1  0
 27 28  2  0
 28 29  1  0
 29 30  2  0
 12  3  1  0
 30 13  1  0
 11  5  1  0
 24 15  1  0
 30 25  1  0
 23 20  1  0
  4 31  1  0
  8 32  1  0
  9 33  1  0
 10 34  1  0
 12 35  1  0
 14 36  1  0
 14 37  1  0
 16 38  1  0
 16 39  1  0
 17 40  1  0
 17 41  1  0
 19 42  1  0
 19 43  1  0
 20 44  1  0
 21 45  1  0
 21 46  1  0
 22 47  1  0
 22 48  1  0
 23 49  1  0
 23 50  1  0
 24 51  1  0
 24 52  1  0
 26 53  1  0
 27 54  1  0
 28 55  1  0
 29 56  1  0
M  END
>  <smiles>  (18) 
O=C(c1cc2c(F)cccc2[nH]1)N1C[C@@]2(CCN(CC3CCC3)C2)c2ccccc21

>  <score_type>  (18) 
oracle

>  <origin>  (18) 
autodockgpu

>  <m_score__min__energy>  (18) 
-8.1199999999999992

>  <m_primary>  (18) 
energy

>  <rmsd>  (18) 
4.59645640370302

>  <m_score__min__rmsd>  (18) 
4.59645640370302

>  <meeko>  (18) 
{"free_energy": -7.78, "intermolecular_energy": -8.97, "internal_energy": -1.61, "cluster_size": 22, "cluster_id": 4, "rank_in_cluster": 18}

>  <energy>  (18) 
-7.84

>  <cluster_rmsd>  (18) 
0.32

>  <cluster>  (18) 
3

$$$$

     RDKit          3D

 56 61  0  0  0  0  0  0  0  0999 V2000
  139.2410   70.4630  221.9900 O   0  0  0  0  0  0  0  0  0  0  0  0
  139.6780   71.3790  222.7800 C   0  0  0  0  0  0  0  0  0  0  0  0
  139.9490   70.9060  224.1150 C   0  0  0  0  0  0  0  0  0  0  0  0
  140.3440   71.5170  225.2710 C   0  0  0  0  0  0  0  0  0  0  0  0
  140.4930   70.5870  226.2690 C   0  0  0  0  0  0  0  0  0  0  0  0
  140.8730   70.6990  227.5970 C   0  0  0  0  0  0  0  0  0  0  0  0
  141.1810   71.8930  228.1630 F   0  0  0  0  0  0  0  0  0  0  0  0
  140.9220   69.5240  228.3370 C   0  0  0  0  0  0  0  0  0  0  0  0
  140.6090   68.2860  227.7810 C   0  0  0  0  0  0  0  0  0  0  0  0
  140.2330   68.2060  226.4520 C   0  0  0  0  0  0  0  0  0  0  0  0
  140.1810   69.3760  225.7080 C   0  0  0  0  0  0  0  0  0  0  0  0
  139.8600   69.5850  224.4320 N   0  0  0  0  0  0  0  0  0  0  0  0
  139.8100   72.6540  222.2240 N   0  0  0  0  0  0  0  0  0  0  0  0
  141.1330   73.2780  221.9700 C   0  0  0  0  0  0  0  0  0  0  0  0
  140.9120   74.0760  220.7170 C   0  0  2  0  0  0  0  0  0  0  0  0
  141.0890   73.2370  219.4980 C   0  0  0  0  0  0  0  0  0  0  0  0
  142.0200   74.0770  218.6240 C   0  0  0  0  0  0  0  0  0  0  0  0
  142.6740   74.9920  219.4490 N   0  0  0  0  0  0  0  0  0  0  0  0
  144.0200   74.9250  219.7880 C   0  0  0  0  0  0  0  0  0  0  0  0
  144.5090   73.8850  220.7270 C   0  0  0  0  0  0  0  0  0  0  0  0
  144.4640   72.4460  220.3920 C   0  0  0  0  0  0  0  0  0  0  0  0
  145.9540   72.4460  220.1240 C   0  0  0  0  0  0  0  0  0  0  0  0
  146.0230   73.7950  220.8520 C   0  0  0  0  0  0  0  0  0  0  0  0
  141.8460   75.2530  220.6010 C   0  0  0  0  0  0  0  0  0  0  0  0
  139.4930   74.4940  220.8630 C   0  0  0  0  0  0  0  0  0  0  0  0
  138.7510   75.5180  220.2980 C   0  0  0  0  0  0  0  0  0  0  0  0
  137.4150   75.7170  220.5970 C   0  0  0  0  0  0  0  0  0  0  0  0
  136.8270   74.8430  221.4950 C   0  0  0  0  0  0  0  0  0  0  0  0
  137.5730   73.8250  222.0540 C   0  0  0  0  0  0  0  0  0  0  0  0
  138.8970   73.6200  221.7640 C   0  0  0  0  0  0  0  0  0  0  0  0
  140.5174   72.5972  225.3853 H   0  0  0  0  0  0  0  0  0  0  0  0
  141.2173   69.5731  229.3955 H   0  0  0  0  0  0  0  0  0  0  0  0
  140.6605   67.3755  228.3961 H   0  0  0  0  0  0  0  0  0  0  0  0
  139.9811   67.2373  225.9957 H   0  0  0  0  0  0  0  0  0  0  0  0
  139.5740   68.8040  223.7710 H   0  0  0  0  0  0  0  0  0  0  0  0
  141.4260   73.9312  222.8051 H   0  0  0  0  0  0  0  0  0  0  0  0
  141.9419   72.5393  221.8694 H   0  0  0  0  0  0  0  0  0  0  0  0
  141.5500   72.2702  219.7487 H   0  0  0  0  0  0  0  0  0  0  0  0
  140.1379   72.9927  219.0022 H   0  0  0  0  0  0  0  0  0  0  0  0
  142.7567   73.4264  218.1300 H   0  0  0  0  0  0  0  0  0  0  0  0
  141.4450   74.6038  217.8483 H   0  0  0  0  0  0  0  0  0  0  0  0
  144.5752   74.7875  218.8484 H   0  0  0  0  0  0  0  0  0  0  0  0
  144.1813   75.8587  220.3468 H   0  0  0  0  0  0  0  0  0  0  0  0
  143.8483   74.2304  221.5358 H   0  0  0  0  0  0  0  0  0  0  0  0
  144.1608   71.8014  221.2302 H   0  0  0  0  0  0  0  0  0  0  0  0
  143.7656   72.0798  219.6251 H   0  0  0  0  0  0  0  0  0  0  0  0
  146.5075   71.6319  220.6148 H   0  0  0  0  0  0  0  0  0  0  0  0
  146.3573   72.3174  219.1087 H   0  0  0  0  0  0  0  0  0  0  0  0
  146.3926   73.7367  221.8864 H   0  0  0  0  0  0  0  0  0  0  0  0
  146.6762   74.6052  220.4958 H   0  0  0  0  0  0  0  0  0  0  0  0
  142.4660   75.3395  221.5055 H   0  0  0  0  0  0  0  0  0  0  0  0
  141.2923   76.1974  220.4934 H   0  0  0  0  0  0  0  0  0  0  0  0
  139.2418   76.1976  219.5858 H   0  0  0  0  0  0  0  0  0  0  0  0
  136.8427   76.5373  220.1392 H   0  0  0  0  0  0  0  0  0  0  0  0
  135.7665   74.9596  221.7628 H   0  0  0  0  0  0  0  0  0  0  0  0
  137.0816   73.1458  222.7662 H   0  0  0  0  0  0  0  0  0  0  0  0
  1  2  2  0
  2  3  1  0
  3  4  2  0
  4  5  1  0
  5  6  2  0
  6  7  1  0
  6  8  1  0
  8  9  2  0
  9 10  1  0
 10 11  2  0
 11 12  1  0
  2 13  1  0
 13 14  1  0
 15 14  1  1
 15 16  1  0
 16 17  1  0
 17 18  1  0
 18 19  1  0
 19 20  1  0
 20 21  1  0
 21 22  1  0
 22 23  1  0
 18 24  1  0
 15 25  1  0
 25 26  2  0
 26 27  1  0
 27 28  2  0
 28 29  1  0
 29 30  2  0
 12  3  1  0
 30 13  1  0
 11  5  1  0
 24 15  1  0
 30 25  1  0
 23 20  1  0
  4 31  1  0
  8 32  1  0
  9 33  1  0
 10 34  1  0
 12 35  1  0
 14 36  1  0
 14 37  1  0
 16 38  1  0
 16 39  1  0
 17 40  1  0
 17 41  1  0
 19 42  1  0
 19 43  1  0
 20 44  1  0
 21 45  1  0
 21 46  1  0
 22 47  1  0
 22 48  1  0
 23 49  1  0
 23 50  1  0
 24 51  1  0
 24 52  1  0
 26 53  1  0
 27 54  1  0
 28 55  1  0
 29 56  1  0
M  END
>  <smiles>  (19) 
O=C(c1cc2c(F)cccc2[nH]1)N1C[C@@]2(CCN(CC3CCC3)C2)c2ccccc21

>  <score_type>  (19) 
oracle

>  <origin>  (19) 
autodockgpu

>  <m_score__min__energy>  (19) 
-8.1199999999999992

>  <m_primary>  (19) 
energy

>  <rmsd>  (19) 
4.614292146370294

>  <m_score__min__rmsd>  (19) 
4.614292146370294

>  <meeko>  (19) 
{"free_energy": -7.83, "intermolecular_energy": -9.02, "internal_energy": -1.6, "cluster_size": 22, "cluster_id": 4, "rank_in_cluster": 8}

>  <energy>  (19) 
-7.84

>  <cluster_rmsd>  (19) 
0.28

>  <cluster>  (19) 
3

$$$$

     RDKit          3D

 56 61  0  0  0  0  0  0  0  0999 V2000
  140.0080   74.5200  222.0810 O   0  0  0  0  0  0  0  0  0  0  0  0
  140.9230   75.0770  221.3680 C   0  0  0  0  0  0  0  0  0  0  0  0
  141.9580   74.1660  220.9490 C   0  0  0  0  0  0  0  0  0  0  0  0
  141.9720   72.8410  220.6150 C   0  0  0  0  0  0  0  0  0  0  0  0
  143.2500   72.4430  220.3150 C   0  0  0  0  0  0  0  0  0  0  0  0
  143.7790   71.2210  219.9300 C   0  0  0  0  0  0  0  0  0  0  0  0
  143.0070   70.1170  219.7710 F   0  0  0  0  0  0  0  0  0  0  0  0
  145.1500   71.1730  219.7070 C   0  0  0  0  0  0  0  0  0  0  0  0
  145.9640   72.2930  219.8610 C   0  0  0  0  0  0  0  0  0  0  0  0
  145.4070   73.4980  220.2470 C   0  0  0  0  0  0  0  0  0  0  0  0
  144.0390   73.5540  220.4700 C   0  0  0  0  0  0  0  0  0  0  0  0
  143.2560   74.5640  220.8450 N   0  0  0  0  0  0  0  0  0  0  0  0
  140.7640   76.4440  221.1290 N   0  0  0  0  0  0  0  0  0  0  0  0
  139.8160   77.2830  221.9060 C   0  0  0  0  0  0  0  0  0  0  0  0
  140.5100   78.6110  221.9940 C   0  0  2  0  0  0  0  0  0  0  0  0
  141.4630   78.6540  223.1390 C   0  0  0  0  0  0  0  0  0  0  0  0
  141.1120   79.9640  223.8420 C   0  0  0  0  0  0  0  0  0  0  0  0
  139.8220   80.3270  223.4550 N   0  0  0  0  0  0  0  0  0  0  0  0
  138.7070   80.2710  224.2820 C   0  0  0  0  0  0  0  0  0  0  0  0
  137.7390   81.3960  224.3170 C   0  0  0  0  0  0  0  0  0  0  0  0
  136.3170   81.2150  223.9590 C   0  0  0  0  0  0  0  0  0  0  0  0
  135.9270   81.2570  225.4210 C   0  0  0  0  0  0  0  0  0  0  0  0
  137.3180   81.8360  225.7120 C   0  0  0  0  0  0  0  0  0  0  0  0
  139.5510   79.7630  222.1550 C   0  0  0  0  0  0  0  0  0  0  0  0
  141.2420   78.6630  220.7010 C   0  0  0  0  0  0  0  0  0  0  0  0
  141.7690   79.7090  219.9600 C   0  0  0  0  0  0  0  0  0  0  0  0
  142.4190   79.5080  218.7550 C   0  0  0  0  0  0  0  0  0  0  0  0
  142.5320   78.2050  218.3020 C   0  0  0  0  0  0  0  0  0  0  0  0
  142.0040   77.1690  219.0460 C   0  0  0  0  0  0  0  0  0  0  0  0
  141.3590   77.3580  220.2410 C   0  0  0  0  0  0  0  0  0  0  0  0
  141.0869   72.1883  220.5903 H   0  0  0  0  0  0  0  0  0  0  0  0
  145.6067   70.2208  219.3993 H   0  0  0  0  0  0  0  0  0  0  0  0
  147.0458   72.2189  219.6762 H   0  0  0  0  0  0  0  0  0  0  0  0
  146.0346   74.3924  220.3744 H   0  0  0  0  0  0  0  0  0  0  0  0
  143.6230   75.5440  221.0290 H   0  0  0  0  0  0  0  0  0  0  0  0
  138.8537   77.3768  221.3814 H   0  0  0  0  0  0  0  0  0  0  0  0
  139.5793   76.8583  222.8927 H   0  0  0  0  0  0  0  0  0  0  0  0
  141.3122   77.7949  223.8092 H   0  0  0  0  0  0  0  0  0  0  0  0
  142.5157   78.6041  222.8239 H   0  0  0  0  0  0  0  0  0  0  0  0
  141.1495   79.8245  224.9325 H   0  0  0  0  0  0  0  0  0  0  0  0
  141.8299   80.7506  223.5664 H   0  0  0  0  0  0  0  0  0  0  0  0
  138.1398   79.3760  223.9865 H   0  0  0  0  0  0  0  0  0  0  0  0
  139.1453   80.2896  225.2907 H   0  0  0  0  0  0  0  0  0  0  0  0
  138.3498   82.0113  223.6400 H   0  0  0  0  0  0  0  0  0  0  0  0
  135.8986   82.0382  223.3612 H   0  0  0  0  0  0  0  0  0  0  0  0
  136.0104   80.3657  223.3307 H   0  0  0  0  0  0  0  0  0  0  0  0
  135.0915   81.9339  225.6528 H   0  0  0  0  0  0  0  0  0  0  0  0
  135.5528   80.3645  225.9440 H   0  0  0  0  0  0  0  0  0  0  0  0
  137.3349   82.9242  225.8717 H   0  0  0  0  0  0  0  0  0  0  0  0
  137.8882   81.5364  226.6037 H   0  0  0  0  0  0  0  0  0  0  0  0
  138.5120   79.4056  222.1024 H   0  0  0  0  0  0  0  0  0  0  0  0
  139.6799   80.5092  221.3571 H   0  0  0  0  0  0  0  0  0  0  0  0
  141.6670   80.7350  220.3432 H   0  0  0  0  0  0  0  0  0  0  0  0
  142.8298   80.3508  218.1797 H   0  0  0  0  0  0  0  0  0  0  0  0
  143.0420   77.9952  217.3502 H   0  0  0  0  0  0  0  0  0  0  0  0
  142.1056   76.1432  218.6619 H   0  0  0  0  0  0  0  0  0  0  0  0
  1  2  2  0
  2  3  1  0
  3  4  2  0
  4  5  1  0
  5  6  2  0
  6  7  1  0
  6  8  1  0
  8  9  2  0
  9 10  1  0
 10 11  2  0
 11 12  1  0
  2 13  1  0
 13 14  1  0
 15 14  1  6
 15 16  1  0
 16 17  1  0
 17 18  1  0
 18 19  1  0
 19 20  1  0
 20 21  1  0
 21 22  1  0
 22 23  1  0
 18 24  1  0
 15 25  1  0
 25 26  2  0
 26 27  1  0
 27 28  2  0
 28 29  1  0
 29 30  2  0
 12  3  1  0
 30 13  1  0
 11  5  1  0
 24 15  1  0
 30 25  1  0
 23 20  1  0
  4 31  1  0
  8 32  1  0
  9 33  1  0
 10 34  1  0
 12 35  1  0
 14 36  1  0
 14 37  1  0
 16 38  1  0
 16 39  1  0
 17 40  1  0
 17 41  1  0
 19 42  1  0
 19 43  1  0
 20 44  1  0
 21 45  1  0
 21 46  1  0
 22 47  1  0
 22 48  1  0
 23 49  1  0
 23 50  1  0
 24 51  1  0
 24 52  1  0
 26 53  1  0
 27 54  1  0
 28 55  1  0
 29 56  1  0
M  END
>  <smiles>  (20) 
O=C(c1cc2c(F)cccc2[nH]1)N1C[C@@]2(CCN(CC3CCC3)C2)c2ccccc21

>  <score_type>  (20) 
oracle

>  <origin>  (20) 
autodockgpu

>  <m_score__min__energy>  (20) 
-8.1199999999999992

>  <m_primary>  (20) 
energy

>  <rmsd>  (20) 
5.429514044888138

>  <m_score__min__rmsd>  (20) 
5.429514044888138

>  <meeko>  (20) 
{"free_energy": -8.12, "intermolecular_energy": -9.31, "internal_energy": -1.14, "cluster_size": 14, "cluster_id": 1, "rank_in_cluster": 2}

>  <energy>  (20) 
-7.83

>  <cluster_rmsd>  (20) 
0.49

>  <cluster>  (20) 
3

$$$$

     RDKit          3D

 56 61  0  0  0  0  0  0  0  0999 V2000
  139.1140   70.4820  222.0270 O   0  0  0  0  0  0  0  0  0  0  0  0
  139.6020   71.3890  222.7980 C   0  0  0  0  0  0  0  0  0  0  0  0
  139.9160   70.9100  224.1210 C   0  0  0  0  0  0  0  0  0  0  0  0
  140.3510   71.5140  225.2660 C   0  0  0  0  0  0  0  0  0  0  0  0
  140.5300   70.5800  226.2550 C   0  0  0  0  0  0  0  0  0  0  0  0
  140.9540   70.6860  227.5700 C   0  0  0  0  0  0  0  0  0  0  0  0
  141.2850   71.8770  228.1310 F   0  0  0  0  0  0  0  0  0  0  0  0
  141.0240   69.5070  228.3040 C   0  0  0  0  0  0  0  0  0  0  0  0
  140.6890   68.2720  227.7530 C   0  0  0  0  0  0  0  0  0  0  0  0
  140.2690   68.2000  226.4370 C   0  0  0  0  0  0  0  0  0  0  0  0
  140.1960   69.3720  225.7000 C   0  0  0  0  0  0  0  0  0  0  0  0
  139.8340   69.5870  224.4370 N   0  0  0  0  0  0  0  0  0  0  0  0
  139.7400   72.6600  222.2370 N   0  0  0  0  0  0  0  0  0  0  0  0
  141.0660   73.2880  222.0040 C   0  0  0  0  0  0  0  0  0  0  0  0
  140.8660   74.0770  220.7420 C   0  0  2  0  0  0  0  0  0  0  0  0
  141.0710   73.2320  219.5320 C   0  0  0  0  0  0  0  0  0  0  0  0
  142.0150   74.0690  218.6710 C   0  0  0  0  0  0  0  0  0  0  0  0
  142.6490   74.9930  219.5040 N   0  0  0  0  0  0  0  0  0  0  0  0
  143.9880   74.9330  219.8690 C   0  0  0  0  0  0  0  0  0  0  0  0
  144.4760   73.8570  220.7670 C   0  0  0  0  0  0  0  0  0  0  0  0
  144.4380   72.4330  220.3750 C   0  0  0  0  0  0  0  0  0  0  0  0
  145.9290   72.4490  220.1130 C   0  0  0  0  0  0  0  0  0  0  0  0
  145.9900   73.7680  220.8960 C   0  0  0  0  0  0  0  0  0  0  0  0
  141.7980   75.2580  220.6370 C   0  0  0  0  0  0  0  0  0  0  0  0
  139.4420   74.4900  220.8580 C   0  0  0  0  0  0  0  0  0  0  0  0
  138.7080   75.5080  220.2720 C   0  0  0  0  0  0  0  0  0  0  0  0
  137.3660   75.7030  220.5430 C   0  0  0  0  0  0  0  0  0  0  0  0
  136.7630   74.8330  221.4350 C   0  0  0  0  0  0  0  0  0  0  0  0
  137.5020   73.8210  222.0150 C   0  0  0  0  0  0  0  0  0  0  0  0
  138.8320   73.6200  221.7520 C   0  0  0  0  0  0  0  0  0  0  0  0
  140.5317   72.5932  225.3790 H   0  0  0  0  0  0  0  0  0  0  0  0
  141.3542   69.5508  229.3524 H   0  0  0  0  0  0  0  0  0  0  0  0
  140.7582   67.3584  228.3617 H   0  0  0  0  0  0  0  0  0  0  0  0
  139.9989   67.2341  225.9852 H   0  0  0  0  0  0  0  0  0  0  0  0
  139.5230   68.8100  223.7820 H   0  0  0  0  0  0  0  0  0  0  0  0
  141.3406   73.9477  222.8403 H   0  0  0  0  0  0  0  0  0  0  0  0
  141.8794   72.5519  221.9236 H   0  0  0  0  0  0  0  0  0  0  0  0
  141.5309   72.2688  219.7980 H   0  0  0  0  0  0  0  0  0  0  0  0
  140.1307   72.9814  219.0191 H   0  0  0  0  0  0  0  0  0  0  0  0
  142.7640   73.4181  218.1963 H   0  0  0  0  0  0  0  0  0  0  0  0
  141.4538   74.5879  217.8799 H   0  0  0  0  0  0  0  0  0  0  0  0
  144.5656   74.8514  218.9364 H   0  0  0  0  0  0  0  0  0  0  0  0
  144.1201   75.8408  220.4759 H   0  0  0  0  0  0  0  0  0  0  0  0
  143.8093   74.1666  221.5853 H   0  0  0  0  0  0  0  0  0  0  0  0
  144.1341   71.7544  221.1857 H   0  0  0  0  0  0  0  0  0  0  0  0
  143.7440   72.0951  219.5913 H   0  0  0  0  0  0  0  0  0  0  0  0
  146.4837   71.6176  220.5725 H   0  0  0  0  0  0  0  0  0  0  0  0
  146.3367   72.3631  219.0950 H   0  0  0  0  0  0  0  0  0  0  0  0
  146.3549   73.6690  221.9290 H   0  0  0  0  0  0  0  0  0  0  0  0
  146.6419   74.5944  220.5766 H   0  0  0  0  0  0  0  0  0  0  0  0
  142.3996   75.3528  221.5530 H   0  0  0  0  0  0  0  0  0  0  0  0
  141.2430   76.1995  220.5125 H   0  0  0  0  0  0  0  0  0  0  0  0
  139.2104   76.1855  219.5659 H   0  0  0  0  0  0  0  0  0  0  0  0
  136.7997   76.5178  220.0682 H   0  0  0  0  0  0  0  0  0  0  0  0
  135.6971   74.9476  221.6813 H   0  0  0  0  0  0  0  0  0  0  0  0
  136.9995   73.1441  222.7216 H   0  0  0  0  0  0  0  0  0  0  0  0
  1  2  2  0
  2  3  1  0
  3  4  2  0
  4  5  1  0
  5  6  2  0
  6  7  1  0
  6  8  1  0
  8  9  2  0
  9 10  1  0
 10 11  2  0
 11 12  1  0
  2 13  1  0
 13 14  1  0
 15 14  1  1
 15 16  1  0
 16 17  1  0
 17 18  1  0
 18 19  1  0
 19 20  1  0
 20 21  1  0
 21 22  1  0
 22 23  1  0
 18 24  1  0
 15 25  1  0
 25 26  2  0
 26 27  1  0
 27 28  2  0
 28 29  1  0
 29 30  2  0
 12  3  1  0
 30 13  1  0
 11  5  1  0
 24 15  1  0
 30 25  1  0
 23 20  1  0
  4 31  1  0
  8 32  1  0
  9 33  1  0
 10 34  1  0
 12 35  1  0
 14 36  1  0
 14 37  1  0
 16 38  1  0
 16 39  1  0
 17 40  1  0
 17 41  1  0
 19 42  1  0
 19 43  1  0
 20 44  1  0
 21 45  1  0
 21 46  1  0
 22 47  1  0
 22 48  1  0
 23 49  1  0
 23 50  1  0
 24 51  1  0
 24 52  1  0
 26 53  1  0
 27 54  1  0
 28 55  1  0
 29 56  1  0
M  END
>  <smiles>  (21) 
O=C(c1cc2c(F)cccc2[nH]1)N1C[C@@]2(CCN(CC3CCC3)C2)c2ccccc21

>  <score_type>  (21) 
oracle

>  <origin>  (21) 
autodockgpu

>  <m_score__min__energy>  (21) 
-8.1199999999999992

>  <m_primary>  (21) 
energy

>  <rmsd>  (21) 
4.616560205762583

>  <m_score__min__rmsd>  (21) 
4.616560205762583

>  <meeko>  (21) 
{"free_energy": -7.83, "intermolecular_energy": -9.03, "internal_energy": -1.59, "cluster_size": 22, "cluster_id": 4, "rank_in_cluster": 7}

>  <energy>  (21) 
-7.79

>  <cluster_rmsd>  (21) 
0.38

>  <cluster>  (21) 
3

$$$$

     RDKit          3D

 56 61  0  0  0  0  0  0  0  0999 V2000
  139.1750   70.4460  222.0050 O   0  0  0  0  0  0  0  0  0  0  0  0
  139.6500   71.3640  222.7720 C   0  0  0  0  0  0  0  0  0  0  0  0
  139.9640   70.8980  224.1000 C   0  0  0  0  0  0  0  0  0  0  0  0
  140.4000   71.5130  225.2390 C   0  0  0  0  0  0  0  0  0  0  0  0
  140.5780   70.5890  226.2360 C   0  0  0  0  0  0  0  0  0  0  0  0
  141.0030   70.7070  227.5510 C   0  0  0  0  0  0  0  0  0  0  0  0
  141.3340   71.9040  228.0990 F   0  0  0  0  0  0  0  0  0  0  0  0
  141.0720   69.5370  228.2960 C   0  0  0  0  0  0  0  0  0  0  0  0
  140.7360   68.2960  227.7580 C   0  0  0  0  0  0  0  0  0  0  0  0
  140.3160   68.2110  226.4420 C   0  0  0  0  0  0  0  0  0  0  0  0
  140.2430   69.3760  225.6940 C   0  0  0  0  0  0  0  0  0  0  0  0
  139.8810   69.5780  224.4280 N   0  0  0  0  0  0  0  0  0  0  0  0
  139.7760   72.6320  222.2020 N   0  0  0  0  0  0  0  0  0  0  0  0
  141.0950   73.2740  221.9720 C   0  0  0  0  0  0  0  0  0  0  0  0
  140.8940   74.0510  220.7030 C   0  0  2  0  0  0  0  0  0  0  0  0
  141.1150   73.1990  219.5010 C   0  0  0  0  0  0  0  0  0  0  0  0
  142.0550   74.0410  218.6390 C   0  0  0  0  0  0  0  0  0  0  0  0
  142.6730   74.9780  219.4680 N   0  0  0  0  0  0  0  0  0  0  0  0
  144.0110   74.9380  219.8410 C   0  0  0  0  0  0  0  0  0  0  0  0
  144.5100   73.8640  220.7360 C   0  0  0  0  0  0  0  0  0  0  0  0
  144.4580   72.4380  220.3510 C   0  0  0  0  0  0  0  0  0  0  0  0
  145.9440   72.4450  220.0630 C   0  0  0  0  0  0  0  0  0  0  0  0
  146.0260   73.7670  220.8380 C   0  0  0  0  0  0  0  0  0  0  0  0
  141.8120   75.2420  220.5940 C   0  0  0  0  0  0  0  0  0  0  0  0
  139.4650   74.4480  220.8070 C   0  0  0  0  0  0  0  0  0  0  0  0
  138.7220   75.4530  220.2090 C   0  0  0  0  0  0  0  0  0  0  0  0
  137.3760   75.6340  220.4720 C   0  0  0  0  0  0  0  0  0  0  0  0
  136.7790   74.7630  221.3670 C   0  0  0  0  0  0  0  0  0  0  0  0
  137.5260   73.7650  221.9590 C   0  0  0  0  0  0  0  0  0  0  0  0
  138.8600   73.5770  221.7050 C   0  0  0  0  0  0  0  0  0  0  0  0
  140.5819   72.5930  225.3415 H   0  0  0  0  0  0  0  0  0  0  0  0
  141.4023   69.5915  229.3438 H   0  0  0  0  0  0  0  0  0  0  0  0
  140.8043   67.3887  228.3762 H   0  0  0  0  0  0  0  0  0  0  0  0
  140.0461   67.2408  225.9994 H   0  0  0  0  0  0  0  0  0  0  0  0
  139.5690   68.7950  223.7820 H   0  0  0  0  0  0  0  0  0  0  0  0
  141.3564   73.9433  222.8049 H   0  0  0  0  0  0  0  0  0  0  0  0
  141.9174   72.5469  221.9018 H   0  0  0  0  0  0  0  0  0  0  0  0
  141.5841   72.2430  219.7768 H   0  0  0  0  0  0  0  0  0  0  0  0
  140.1807   72.9335  218.9847 H   0  0  0  0  0  0  0  0  0  0  0  0
  142.8143   73.3953  218.1736 H   0  0  0  0  0  0  0  0  0  0  0  0
  141.4924   74.5475  217.8409 H   0  0  0  0  0  0  0  0  0  0  0  0
  144.5958   74.8714  218.9117 H   0  0  0  0  0  0  0  0  0  0  0  0
  144.1252   75.8445  220.4535 H   0  0  0  0  0  0  0  0  0  0  0  0
  143.8602   74.1814  221.5648 H   0  0  0  0  0  0  0  0  0  0  0  0
  144.1649   71.7646  221.1699 H   0  0  0  0  0  0  0  0  0  0  0  0
  143.7487   72.1003  219.5810 H   0  0  0  0  0  0  0  0  0  0  0  0
  146.5023   71.6129  220.5167 H   0  0  0  0  0  0  0  0  0  0  0  0
  146.3332   72.3522  219.0384 H   0  0  0  0  0  0  0  0  0  0  0  0
  146.4090   73.6710  221.8647 H   0  0  0  0  0  0  0  0  0  0  0  0
  146.6765   74.5883  220.5027 H   0  0  0  0  0  0  0  0  0  0  0  0
  142.4069   75.3514  221.5127 H   0  0  0  0  0  0  0  0  0  0  0  0
  141.2464   76.1757  220.4587 H   0  0  0  0  0  0  0  0  0  0  0  0
  139.2200   76.1309  219.5001 H   0  0  0  0  0  0  0  0  0  0  0  0
  136.8025   76.4387  219.9887 H   0  0  0  0  0  0  0  0  0  0  0  0
  135.7103   74.8662  221.6061 H   0  0  0  0  0  0  0  0  0  0  0  0
  137.0273   73.0882  222.6684 H   0  0  0  0  0  0  0  0  0  0  0  0
  1  2  2  0
  2  3  1  0
  3  4  2  0
  4  5  1  0
  5  6  2  0
  6  7  1  0
  6  8  1  0
  8  9  2  0
  9 10  1  0
 10 11  2  0
 11 12  1  0
  2 13  1  0
 13 14  1  0
 15 14  1  1
 15 16  1  0
 16 17  1  0
 17 18  1  0
 18 19  1  0
 19 20  1  0
 20 21  1  0
 21 22  1  0
 22 23  1  0
 18 24  1  0
 15 25  1  0
 25 26  2  0
 26 27  1  0
 27 28  2  0
 28 29  1  0
 29 30  2  0
 12  3  1  0
 30 13  1  0
 11  5  1  0
 24 15  1  0
 30 25  1  0
 23 20  1  0
  4 31  1  0
  8 32  1  0
  9 33  1  0
 10 34  1  0
 12 35  1  0
 14 36  1  0
 14 37  1  0
 16 38  1  0
 16 39  1  0
 17 40  1  0
 17 41  1  0
 19 42  1  0
 19 43  1  0
 20 44  1  0
 21 45  1  0
 21 46  1  0
 22 47  1  0
 22 48  1  0
 23 49  1  0
 23 50  1  0
 24 51  1  0
 24 52  1  0
 26 53  1  0
 27 54  1  0
 28 55  1  0
 29 56  1  0
M  END
>  <smiles>  (22) 
O=C(c1cc2c(F)cccc2[nH]1)N1C[C@@]2(CCN(CC3CCC3)C2)c2ccccc21

>  <score_type>  (22) 
oracle

>  <origin>  (22) 
autodockgpu

>  <m_score__min__energy>  (22) 
-8.1199999999999992

>  <m_primary>  (22) 
energy

>  <rmsd>  (22) 
4.616251360133477

>  <m_score__min__rmsd>  (22) 
4.616251360133477

>  <meeko>  (22) 
{"free_energy": -7.85, "intermolecular_energy": -9.04, "internal_energy": -1.59, "cluster_size": 22, "cluster_id": 4, "rank_in_cluster": 4}

>  <energy>  (22) 
-7.76

>  <cluster_rmsd>  (22) 
0.48

>  <cluster>  (22) 
3

$$$$

     RDKit          3D

 56 61  0  0  0  0  0  0  0  0999 V2000
  139.4390   71.4190  221.5690 O   0  0  0  0  0  0  0  0  0  0  0  0
  140.4770   71.6970  222.2780 C   0  0  0  0  0  0  0  0  0  0  0  0
  140.3680   71.2670  223.6490 C   0  0  0  0  0  0  0  0  0  0  0  0
  140.6820   71.8420  224.8470 C   0  0  0  0  0  0  0  0  0  0  0  0
  140.4050   70.9770  225.8750 C   0  0  0  0  0  0  0  0  0  0  0  0
  140.5480   71.0860  227.2490 C   0  0  0  0  0  0  0  0  0  0  0  0
  141.0360   72.2060  227.8390 F   0  0  0  0  0  0  0  0  0  0  0  0
  140.1620   69.9880  228.0100 C   0  0  0  0  0  0  0  0  0  0  0  0
  139.6560   68.8270  227.4290 C   0  0  0  0  0  0  0  0  0  0  0  0
  139.5250   68.7490  226.0540 C   0  0  0  0  0  0  0  0  0  0  0  0
  139.9080   69.8410  225.2890 C   0  0  0  0  0  0  0  0  0  0  0  0
  139.8920   70.0320  223.9720 N   0  0  0  0  0  0  0  0  0  0  0  0
  141.5110   72.3580  221.6130 N   0  0  0  0  0  0  0  0  0  0  0  0
  142.7630   71.6700  221.2050 C   0  0  0  0  0  0  0  0  0  0  0  0
  143.1310   72.3430  219.9140 C   0  0  2  0  0  0  0  0  0  0  0  0
  142.4300   71.7220  218.7560 C   0  0  0  0  0  0  0  0  0  0  0  0
  143.5530   71.4870  217.7460 C   0  0  0  0  0  0  0  0  0  0  0  0
  144.7630   71.4930  218.4420 N   0  0  0  0  0  0  0  0  0  0  0  0
  145.5410   70.3660  218.6770 C   0  0  0  0  0  0  0  0  0  0  0  0
  144.9550   69.1720  219.3350 C   0  0  0  0  0  0  0  0  0  0  0  0
  144.1630   68.1750  218.5840 C   0  0  0  0  0  0  0  0  0  0  0  0
  145.3310   67.2120  218.5980 C   0  0  0  0  0  0  0  0  0  0  0  0
  145.9570   68.0840  219.6960 C   0  0  0  0  0  0  0  0  0  0  0  0
  144.6110   72.2950  219.6310 C   0  0  0  0  0  0  0  0  0  0  0  0
  142.6440   73.7300  220.1380 C   0  0  0  0  0  0  0  0  0  0  0  0
  142.9630   74.9450  219.5540 C   0  0  0  0  0  0  0  0  0  0  0  0
  142.3670   76.1320  219.9410 C   0  0  0  0  0  0  0  0  0  0  0  0
  141.4210   76.0700  220.9500 C   0  0  0  0  0  0  0  0  0  0  0  0
  141.1090   74.8550  221.5280 C   0  0  0  0  0  0  0  0  0  0  0  0
  141.6950   73.6740  221.1510 C   0  0  0  0  0  0  0  0  0  0  0  0
  141.0973   72.8532  224.9700 H   0  0  0  0  0  0  0  0  0  0  0  0
  140.2591   70.0375  229.1046 H   0  0  0  0  0  0  0  0  0  0  0  0
  139.3620   67.9760  228.0610 H   0  0  0  0  0  0  0  0  0  0  0  0
  139.1260   67.8412  225.5779 H   0  0  0  0  0  0  0  0  0  0  0  0
  139.5460   69.2990  223.2840 H   0  0  0  0  0  0  0  0  0  0  0  0
  143.5515   71.8094  221.9593 H   0  0  0  0  0  0  0  0  0  0  0  0
  142.6381   70.5822  221.0996 H   0  0  0  0  0  0  0  0  0  0  0  0
  141.9563   70.7725  219.0458 H   0  0  0  0  0  0  0  0  0  0  0  0
  141.6192   72.3499  218.3580 H   0  0  0  0  0  0  0  0  0  0  0  0
  143.4121   70.5156  217.2494 H   0  0  0  0  0  0  0  0  0  0  0  0
  143.5486   72.2740  216.9775 H   0  0  0  0  0  0  0  0  0  0  0  0
  145.9185   70.0337  217.6987 H   0  0  0  0  0  0  0  0  0  0  0  0
  146.2752   70.7209  219.4153 H   0  0  0  0  0  0  0  0  0  0  0  0
  144.4172   69.7796  220.0777 H   0  0  0  0  0  0  0  0  0  0  0  0
  143.2768   67.8101  219.1239 H   0  0  0  0  0  0  0  0  0  0  0  0
  143.6888   68.4524  217.6310 H   0  0  0  0  0  0  0  0  0  0  0  0
  145.0776   66.1893  218.9142 H   0  0  0  0  0  0  0  0  0  0  0  0
  145.8805   66.9583  217.6795 H   0  0  0  0  0  0  0  0  0  0  0  0
  145.8480   67.6831  220.7145 H   0  0  0  0  0  0  0  0  0  0  0  0
  147.0380   68.2860  219.7203 H   0  0  0  0  0  0  0  0  0  0  0  0
  145.1465   71.8339  220.4740 H   0  0  0  0  0  0  0  0  0  0  0  0
  145.0274   73.3036  219.4924 H   0  0  0  0  0  0  0  0  0  0  0  0
  143.7174   74.9668  218.7537 H   0  0  0  0  0  0  0  0  0  0  0  0
  142.6342   77.0874  219.4658 H   0  0  0  0  0  0  0  0  0  0  0  0
  140.9185   76.9872  221.2909 H   0  0  0  0  0  0  0  0  0  0  0  0
  140.3548   74.8337  222.3285 H   0  0  0  0  0  0  0  0  0  0  0  0
  1  2  2  0
  2  3  1  0
  3  4  2  0
  4  5  1  0
  5  6  2  0
  6  7  1  0
  6  8  1  0
  8  9  2  0
  9 10  1  0
 10 11  2  0
 11 12  1  0
  2 13  1  0
 13 14  1  0
 15 14  1  1
 15 16  1  0
 16 17  1  0
 17 18  1  0
 18 19  1  0
 19 20  1  0
 20 21  1  0
 21 22  1  0
 22 23  1  0
 18 24  1  0
 15 25  1  0
 25 26  2  0
 26 27  1  0
 27 28  2  0
 28 29  1  0
 29 30  2  0
 12  3  1  0
 30 13  1  0
 11  5  1  0
 24 15  1  0
 30 25  1  0
 23 20  1  0
  4 31  1  0
  8 32  1  0
  9 33  1  0
 10 34  1  0
 12 35  1  0
 14 36  1  0
 14 37  1  0
 16 38  1  0
 16 39  1  0
 17 40  1  0
 17 41  1  0
 19 42  1  0
 19 43  1  0
 20 44  1  0
 21 45  1  0
 21 46  1  0
 22 47  1  0
 22 48  1  0
 23 49  1  0
 23 50  1  0
 24 51  1  0
 24 52  1  0
 26 53  1  0
 27 54  1  0
 28 55  1  0
 29 56  1  0
M  END
>  <smiles>  (23) 
O=C(c1cc2c(F)cccc2[nH]1)N1C[C@@]2(CCN(CC3CCC3)C2)c2ccccc21

>  <score_type>  (23) 
oracle

>  <origin>  (23) 
autodockgpu

>  <m_score__min__energy>  (23) 
-8.1199999999999992

>  <m_primary>  (23) 
energy

>  <rmsd>  (23) 
4.132950974141592

>  <m_score__min__rmsd>  (23) 
4.132950974141592

>  <meeko>  (23) 
{"free_energy": -7.76, "intermolecular_energy": -8.95, "internal_energy": -1.34, "cluster_size": 7, "cluster_id": 3, "rank_in_cluster": 6}

>  <energy>  (23) 
-7.38

>  <cluster_rmsd>  (23) 
0.69

>  <cluster>  (23) 
3

$$$$

     RDKit          3D

 56 61  0  0  0  0  0  0  0  0999 V2000
  140.5740   74.8620  221.9730 O   0  0  0  0  0  0  0  0  0  0  0  0
  141.4550   75.3530  221.1730 C   0  0  0  0  0  0  0  0  0  0  0  0
  142.4660   74.4050  220.7800 C   0  0  0  0  0  0  0  0  0  0  0  0
  143.7940   74.5110  220.4770 C   0  0  0  0  0  0  0  0  0  0  0  0
  144.2980   73.2850  220.1250 C   0  0  0  0  0  0  0  0  0  0  0  0
  145.5640   72.8740  219.7370 C   0  0  0  0  0  0  0  0  0  0  0  0
  146.6090   73.7360  219.6480 F   0  0  0  0  0  0  0  0  0  0  0  0
  145.7240   71.5260  219.4420 C   0  0  0  0  0  0  0  0  0  0  0  0
  144.6690   70.6200  219.5280 C   0  0  0  0  0  0  0  0  0  0  0  0
  143.4170   71.0600  219.9180 C   0  0  0  0  0  0  0  0  0  0  0  0
  143.2510   72.4050  220.2140 C   0  0  0  0  0  0  0  0  0  0  0  0
  142.1750   73.0860  220.6040 N   0  0  0  0  0  0  0  0  0  0  0  0
  141.2870   76.6970  220.8320 N   0  0  0  0  0  0  0  0  0  0  0  0
  140.4450   77.6230  221.6310 C   0  0  0  0  0  0  0  0  0  0  0  0
  141.1620   78.9370  221.5210 C   0  0  2  0  0  0  0  0  0  0  0  0
  142.2410   79.0590  222.5410 C   0  0  0  0  0  0  0  0  0  0  0  0
  141.9900   80.4330  223.1590 C   0  0  0  0  0  0  0  0  0  0  0  0
  140.6680   80.7900  222.8890 N   0  0  0  0  0  0  0  0  0  0  0  0
  139.6550   80.8340  223.8390 C   0  0  0  0  0  0  0  0  0  0  0  0
  138.2330   80.7220  223.4280 C   0  0  0  0  0  0  0  0  0  0  0  0
  137.1440   80.5650  224.4140 C   0  0  0  0  0  0  0  0  0  0  0  0
  136.7480   82.0150  224.2310 C   0  0  0  0  0  0  0  0  0  0  0  0
  137.5990   82.0220  222.9540 C   0  0  0  0  0  0  0  0  0  0  0  0
  140.2430   80.1210  221.6850 C   0  0  0  0  0  0  0  0  0  0  0  0
  141.7420   78.8580  220.1530 C   0  0  0  0  0  0  0  0  0  0  0  0
  142.1930   79.8220  219.2660 C   0  0  0  0  0  0  0  0  0  0  0  0
  142.6980   79.5010  218.0190 C   0  0  0  0  0  0  0  0  0  0  0  0
  142.7420   78.1610  217.6750 C   0  0  0  0  0  0  0  0  0  0  0  0
  142.2900   77.2070  218.5640 C   0  0  0  0  0  0  0  0  0  0  0  0
  141.7880   77.5150  219.8020 C   0  0  0  0  0  0  0  0  0  0  0  0
  144.3749   75.4445  220.5105 H   0  0  0  0  0  0  0  0  0  0  0  0
  146.7145   71.1625  219.1308 H   0  0  0  0  0  0  0  0  0  0  0  0
  144.8311   69.5591  219.2867 H   0  0  0  0  0  0  0  0  0  0  0  0
  142.5722   70.3593  219.9917 H   0  0  0  0  0  0  0  0  0  0  0  0
  141.2250   72.6340  220.7540 H   0  0  0  0  0  0  0  0  0  0  0  0
  139.4308   77.6928  221.2109 H   0  0  0  0  0  0  0  0  0  0  0  0
  140.3164   77.2925  222.6722 H   0  0  0  0  0  0  0  0  0  0  0  0
  142.1582   78.2656  223.2984 H   0  0  0  0  0  0  0  0  0  0  0  0
  143.2495   78.9581  222.1135 H   0  0  0  0  0  0  0  0  0  0  0  0
  142.1505   80.3887  224.2463 H   0  0  0  0  0  0  0  0  0  0  0  0
  142.6817   81.1759  222.7350 H   0  0  0  0  0  0  0  0  0  0  0  0
  139.8459   80.0099  224.5421 H   0  0  0  0  0  0  0  0  0  0  0  0
  139.7214   81.8620  224.2248 H   0  0  0  0  0  0  0  0  0  0  0  0
  138.4367   79.8650  222.7692 H   0  0  0  0  0  0  0  0  0  0  0  0
  136.3668   79.8480  224.1109 H   0  0  0  0  0  0  0  0  0  0  0  0
  137.3623   80.1756  225.4194 H   0  0  0  0  0  0  0  0  0  0  0  0
  135.6729   82.1788  224.0658 H   0  0  0  0  0  0  0  0  0  0  0  0
  136.8972   82.7587  225.0277 H   0  0  0  0  0  0  0  0  0  0  0  0
  137.0226   81.9349  222.0212 H   0  0  0  0  0  0  0  0  0  0  0  0
  138.2133   82.8923  222.6797 H   0  0  0  0  0  0  0  0  0  0  0  0
  139.2002   79.7848  221.7823 H   0  0  0  0  0  0  0  0  0  0  0  0
  140.2897   80.7910  220.8138 H   0  0  0  0  0  0  0  0  0  0  0  0
  142.1479   80.8799  219.5640 H   0  0  0  0  0  0  0  0  0  0  0  0
  143.0509   80.2803  217.3275 H   0  0  0  0  0  0  0  0  0  0  0  0
  143.1367   77.8569  216.6943 H   0  0  0  0  0  0  0  0  0  0  0  0
  142.3346   76.1493  218.2650 H   0  0  0  0  0  0  0  0  0  0  0  0
  1  2  2  0
  2  3  1  0
  3  4  2  0
  4  5  1  0
  5  6  2  0
  6  7  1  0
  6  8  1  0
  8  9  2  0
  9 10  1  0
 10 11  2  0
 11 12  1  0
  2 13  1  0
 13 14  1  0
 15 14  1  1
 15 16  1  0
 16 17  1  0
 17 18  1  0
 18 19  1  0
 19 20  1  0
 20 21  1  0
 21 22  1  0
 22 23  1  0
 18 24  1  0
 15 25  1  0
 25 26  2  0
 26 27  1  0
 27 28  2  0
 28 29  1  0
 29 30  2  0
 12  3  1  0
 30 13  1  0
 11  5  1  0
 24 15  1  0
 30 25  1  0
 23 20  1  0
  4 31  1  0
  8 32  1  0
  9 33  1  0
 10 34  1  0
 12 35  1  0
 14 36  1  0
 14 37  1  0
 16 38  1  0
 16 39  1  0
 17 40  1  0
 17 41  1  0
 19 42  1  0
 19 43  1  0
 20 44  1  0
 21 45  1  0
 21 46  1  0
 22 47  1  0
 22 48  1  0
 23 49  1  0
 23 50  1  0
 24 51  1  0
 24 52  1  0
 26 53  1  0
 27 54  1  0
 28 55  1  0
 29 56  1  0
M  END
>  <smiles>  (24) 
O=C(c1cc2c(F)cccc2[nH]1)N1C[C@@]2(CCN(CC3CCC3)C2)c2ccccc21

>  <score_type>  (24) 
oracle

>  <origin>  (24) 
autodockgpu

>  <m_score__min__energy>  (24) 
-8.1199999999999992

>  <m_primary>  (24) 
energy

>  <rmsd>  (24) 
5.42549361964635

>  <m_score__min__rmsd>  (24) 
5.42549361964635

>  <meeko>  (24) 
{"free_energy": -7.66, "intermolecular_energy": -8.85, "internal_energy": -1.39, "cluster_size": 14, "cluster_id": 1, "rank_in_cluster": 13}

>  <energy>  (24) 
-7.85

>  <cluster_rmsd>  (24) 
0.0

>  <cluster>  (24) 
4

$$$$

     RDKit          3D

 56 61  0  0  0  0  0  0  0  0999 V2000
  140.9940   76.4860  219.0090 O   0  0  0  0  0  0  0  0  0  0  0  0
  141.4420   76.4660  220.2150 C   0  0  0  0  0  0  0  0  0  0  0  0
  141.5080   77.7710  220.8250 C   0  0  0  0  0  0  0  0  0  0  0  0
  141.4190   79.0450  220.3410 C   0  0  0  0  0  0  0  0  0  0  0  0
  141.5850   79.9500  221.3590 C   0  0  0  0  0  0  0  0  0  0  0  0
  141.5840   81.3350  221.3840 C   0  0  0  0  0  0  0  0  0  0  0  0
  141.3890   82.0790  220.2650 F   0  0  0  0  0  0  0  0  0  0  0  0
  141.7910   81.9420  222.6170 C   0  0  0  0  0  0  0  0  0  0  0  0
  141.9920   81.2020  223.7810 C   0  0  0  0  0  0  0  0  0  0  0  0
  141.9870   79.8200  223.7240 C   0  0  0  0  0  0  0  0  0  0  0  0
  141.7800   79.2090  222.4960 C   0  0  0  0  0  0  0  0  0  0  0  0
  141.7310   77.9210  222.1600 N   0  0  0  0  0  0  0  0  0  0  0  0
  141.7860   75.2100  220.7190 N   0  0  0  0  0  0  0  0  0  0  0  0
  140.8850   74.4350  221.6090 C   0  0  0  0  0  0  0  0  0  0  0  0
  141.1420   73.0090  221.2180 C   0  0  2  0  0  0  0  0  0  0  0  0
  140.3120   72.6050  220.0490 C   0  0  0  0  0  0  0  0  0  0  0  0
  139.6960   71.2790  220.4940 C   0  0  0  0  0  0  0  0  0  0  0  0
  139.7590   71.2230  221.8870 N   0  0  0  0  0  0  0  0  0  0  0  0
  138.6600   71.3360  222.7300 C   0  0  0  0  0  0  0  0  0  0  0  0
  138.6320   70.6210  224.0300 C   0  0  0  0  0  0  0  0  0  0  0  0
  139.2180   69.2740  224.1940 C   0  0  0  0  0  0  0  0  0  0  0  0
  140.4140   69.8650  224.9120 C   0  0  0  0  0  0  0  0  0  0  0  0
  139.5990   71.1560  225.0770 C   0  0  0  0  0  0  0  0  0  0  0  0
  140.8620   72.0360  222.3350 C   0  0  0  0  0  0  0  0  0  0  0  0
  142.5820   73.0450  220.8490 C   0  0  0  0  0  0  0  0  0  0  0  0
  143.5550   72.0620  220.7560 C   0  0  0  0  0  0  0  0  0  0  0  0
  144.8580   72.3430  220.3900 C   0  0  0  0  0  0  0  0  0  0  0  0
  145.1710   73.6620  220.1100 C   0  0  0  0  0  0  0  0  0  0  0  0
  144.1970   74.6360  220.2060 C   0  0  0  0  0  0  0  0  0  0  0  0
  142.9030   74.3670  220.5680 C   0  0  0  0  0  0  0  0  0  0  0  0
  141.2402   79.3075  219.2879 H   0  0  0  0  0  0  0  0  0  0  0  0
  141.7964   83.0404  222.6761 H   0  0  0  0  0  0  0  0  0  0  0  0
  142.1539   81.7148  224.7406 H   0  0  0  0  0  0  0  0  0  0  0  0
  142.1436   79.2191  224.6319 H   0  0  0  0  0  0  0  0  0  0  0  0
  141.8500   77.1340  222.8640 H   0  0  0  0  0  0  0  0  0  0  0  0
  141.1373   74.6037  222.6663 H   0  0  0  0  0  0  0  0  0  0  0  0
  139.8287   74.7231  221.5029 H   0  0  0  0  0  0  0  0  0  0  0  0
  139.5315   73.3523  219.8432 H   0  0  0  0  0  0  0  0  0  0  0  0
  140.8930   72.5182  219.1190 H   0  0  0  0  0  0  0  0  0  0  0  0
  138.6478   71.2246  220.1648 H   0  0  0  0  0  0  0  0  0  0  0  0
  140.2440   70.4342  220.0513 H   0  0  0  0  0  0  0  0  0  0  0  0
  138.5450   72.4063  222.9563 H   0  0  0  0  0  0  0  0  0  0  0  0
  137.8586   70.8439  222.1594 H   0  0  0  0  0  0  0  0  0  0  0  0
  137.5380   70.7023  224.1105 H   0  0  0  0  0  0  0  0  0  0  0  0
  138.6138   68.5965  224.8153 H   0  0  0  0  0  0  0  0  0  0  0  0
  139.3657   68.6262  223.3173 H   0  0  0  0  0  0  0  0  0  0  0  0
  140.6748   69.3642  225.8560 H   0  0  0  0  0  0  0  0  0  0  0  0
  141.4156   69.8693  224.4573 H   0  0  0  0  0  0  0  0  0  0  0  0
  139.1595   71.2936  226.0760 H   0  0  0  0  0  0  0  0  0  0  0  0
  140.0667   72.1461  224.9722 H   0  0  0  0  0  0  0  0  0  0  0  0
  140.5899   72.5766  223.2535 H   0  0  0  0  0  0  0  0  0  0  0  0
  141.7458   71.4235  222.5666 H   0  0  0  0  0  0  0  0  0  0  0  0
  143.2803   71.0210  220.9815 H   0  0  0  0  0  0  0  0  0  0  0  0
  145.6167   71.5493  220.3238 H   0  0  0  0  0  0  0  0  0  0  0  0
  146.1942   73.9338  219.8114 H   0  0  0  0  0  0  0  0  0  0  0  0
  144.4728   75.6769  219.9813 H   0  0  0  0  0  0  0  0  0  0  0  0
  1  2  2  0
  2  3  1  0
  3  4  2  0
  4  5  1  0
  5  6  2  0
  6  7  1  0
  6  8  1  0
  8  9  2  0
  9 10  1  0
 10 11  2  0
 11 12  1  0
  2 13  1  0
 13 14  1  0
 15 14  1  1
 15 16  1  0
 16 17  1  0
 17 18  1  0
 18 19  1  0
 19 20  1  0
 20 21  1  0
 21 22  1  0
 22 23  1  0
 18 24  1  0
 15 25  1  0
 25 26  2  0
 26 27  1  0
 27 28  2  0
 28 29  1  0
 29 30  2  0
 12  3  1  0
 30 13  1  0
 11  5  1  0
 24 15  1  0
 30 25  1  0
 23 20  1  0
  4 31  1  0
  8 32  1  0
  9 33  1  0
 10 34  1  0
 12 35  1  0
 14 36  1  0
 14 37  1  0
 16 38  1  0
 16 39  1  0
 17 40  1  0
 17 41  1  0
 19 42  1  0
 19 43  1  0
 20 44  1  0
 21 45  1  0
 21 46  1  0
 22 47  1  0
 22 48  1  0
 23 49  1  0
 23 50  1  0
 24 51  1  0
 24 52  1  0
 26 53  1  0
 27 54  1  0
 28 55  1  0
 29 56  1  0
M  END
>  <smiles>  (25) 
O=C(c1cc2c(F)cccc2[nH]1)N1C[C@@]2(CCN(CC3CCC3)C2)c2ccccc21

>  <score_type>  (25) 
oracle

>  <origin>  (25) 
autodockgpu

>  <m_score__min__energy>  (25) 
-8.1199999999999992

>  <m_primary>  (25) 
energy

>  <rmsd>  (25) 
8.288008111236305

>  <m_score__min__rmsd>  (25) 
8.288008111236305

>  <meeko>  (25) 
{"free_energy": -7.78, "intermolecular_energy": -8.98, "internal_energy": -1.11, "cluster_size": 2, "cluster_id": 5, "rank_in_cluster": 1}

>  <energy>  (25) 
-7.85

>  <cluster_rmsd>  (25) 
0.05

>  <cluster>  (25) 
4

$$$$

     RDKit          3D

 56 61  0  0  0  0  0  0  0  0999 V2000
  140.3960   74.4550  221.9750 O   0  0  0  0  0  0  0  0  0  0  0  0
  141.2880   75.0590  221.2700 C   0  0  0  0  0  0  0  0  0  0  0  0
  142.3750   74.2040  220.8640 C   0  0  0  0  0  0  0  0  0  0  0  0
  143.7180   74.3950  220.7020 C   0  0  0  0  0  0  0  0  0  0  0  0
  144.3090   73.2410  220.2560 C   0  0  0  0  0  0  0  0  0  0  0  0
  145.6230   72.9280  219.9430 C   0  0  0  0  0  0  0  0  0  0  0  0
  146.6280   73.8330  220.0560 F   0  0  0  0  0  0  0  0  0  0  0  0
  145.8730   71.6330  219.5060 C   0  0  0  0  0  0  0  0  0  0  0  0
  144.8590   70.6850  219.3830 C   0  0  0  0  0  0  0  0  0  0  0  0
  143.5570   71.0280  219.7030 C   0  0  0  0  0  0  0  0  0  0  0  0
  143.3010   72.3190  220.1410 C   0  0  0  0  0  0  0  0  0  0  0  0
  142.1640   72.9070  220.5060 N   0  0  0  0  0  0  0  0  0  0  0  0
  141.0580   76.4140  221.0260 N   0  0  0  0  0  0  0  0  0  0  0  0
  140.0920   77.2140  221.8220 C   0  0  0  0  0  0  0  0  0  0  0  0
  140.7240   78.5750  221.8830 C   0  0  2  0  0  0  0  0  0  0  0  0
  141.7040   78.6710  223.0010 C   0  0  0  0  0  0  0  0  0  0  0  0
  141.3100   79.9690  223.7050 C   0  0  0  0  0  0  0  0  0  0  0  0
  139.9930   80.2670  223.3490 N   0  0  0  0  0  0  0  0  0  0  0  0
  138.9040   80.1660  224.2060 C   0  0  0  0  0  0  0  0  0  0  0  0
  137.8860   81.2450  224.2590 C   0  0  0  0  0  0  0  0  0  0  0  0
  136.5120   81.0490  223.7530 C   0  0  0  0  0  0  0  0  0  0  0  0
  135.9900   80.9270  225.1690 C   0  0  0  0  0  0  0  0  0  0  0  0
  137.3220   81.5240  225.6450 C   0  0  0  0  0  0  0  0  0  0  0  0
  139.7160   79.6810  222.0610 C   0  0  0  0  0  0  0  0  0  0  0  0
  141.4190   78.6500  220.5700 C   0  0  0  0  0  0  0  0  0  0  0  0
  141.8760   79.7130  219.8080 C   0  0  0  0  0  0  0  0  0  0  0  0
  142.5030   79.5340  218.5880 C   0  0  0  0  0  0  0  0  0  0  0  0
  142.6660   78.2340  218.1410 C   0  0  0  0  0  0  0  0  0  0  0  0
  142.2080   77.1800  218.9060 C   0  0  0  0  0  0  0  0  0  0  0  0
  141.5860   77.3480  220.1160 C   0  0  0  0  0  0  0  0  0  0  0  0
  144.2484   75.3380  220.9006 H   0  0  0  0  0  0  0  0  0  0  0  0
  146.9036   71.3471  219.2491 H   0  0  0  0  0  0  0  0  0  0  0  0
  145.0924   69.6686  219.0331 H   0  0  0  0  0  0  0  0  0  0  0  0
  142.7434   70.2933  219.6121 H   0  0  0  0  0  0  0  0  0  0  0  0
  141.2270   72.4050  220.5110 H   0  0  0  0  0  0  0  0  0  0  0  0
  139.1130   77.2579  221.3223 H   0  0  0  0  0  0  0  0  0  0  0  0
  139.9021   76.7866  222.8176 H   0  0  0  0  0  0  0  0  0  0  0  0
  141.6119   77.8108  223.6804 H   0  0  0  0  0  0  0  0  0  0  0  0
  142.7492   78.6680  222.6581 H   0  0  0  0  0  0  0  0  0  0  0  0
  141.3826   79.8400  224.7950 H   0  0  0  0  0  0  0  0  0  0  0  0
  141.9824   80.7867  223.4061 H   0  0  0  0  0  0  0  0  0  0  0  0
  138.3716   79.2432  223.9321 H   0  0  0  0  0  0  0  0  0  0  0  0
  139.3675   80.2132  225.2025 H   0  0  0  0  0  0  0  0  0  0  0  0
  138.5254   81.9483  223.7054 H   0  0  0  0  0  0  0  0  0  0  0  0
  136.1114   81.9128  223.2022 H   0  0  0  0  0  0  0  0  0  0  0  0
  136.3029   80.2574  223.0184 H   0  0  0  0  0  0  0  0  0  0  0  0
  135.1069   81.5457  225.3866 H   0  0  0  0  0  0  0  0  0  0  0  0
  135.6113   79.9728  225.5642 H   0  0  0  0  0  0  0  0  0  0  0  0
  137.2746   82.5900  225.9122 H   0  0  0  0  0  0  0  0  0  0  0  0
  137.8232   81.1556  226.5523 H   0  0  0  0  0  0  0  0  0  0  0  0
  138.6942   79.2744  222.0378 H   0  0  0  0  0  0  0  0  0  0  0  0
  139.7886   80.4261  221.2551 H   0  0  0  0  0  0  0  0  0  0  0  0
  141.7352   80.7361  220.1867 H   0  0  0  0  0  0  0  0  0  0  0  0
  142.8580   80.3908  217.9965 H   0  0  0  0  0  0  0  0  0  0  0  0
  143.1599   78.0410  217.1773 H   0  0  0  0  0  0  0  0  0  0  0  0
  142.3488   76.1571  218.5267 H   0  0  0  0  0  0  0  0  0  0  0  0
  1  2  2  0
  2  3  1  0
  3  4  2  0
  4  5  1  0
  5  6  2  0
  6  7  1  0
  6  8  1  0
  8  9  2  0
  9 10  1  0
 10 11  2  0
 11 12  1  0
  2 13  1  0
 13 14  1  0
 15 14  1  6
 15 16  1  0
 16 17  1  0
 17 18  1  0
 18 19  1  0
 19 20  1  0
 20 21  1  0
 21 22  1  0
 22 23  1  0
 18 24  1  0
 15 25  1  0
 25 26  2  0
 26 27  1  0
 27 28  2  0
 28 29  1  0
 29 30  2  0
 12  3  1  0
 30 13  1  0
 11  5  1  0
 24 15  1  0
 30 25  1  0
 23 20  1  0
  4 31  1  0
  8 32  1  0
  9 33  1  0
 10 34  1  0
 12 35  1  0
 14 36  1  0
 14 37  1  0
 16 38  1  0
 16 39  1  0
 17 40  1  0
 17 41  1  0
 19 42  1  0
 19 43  1  0
 20 44  1  0
 21 45  1  0
 21 46  1  0
 22 47  1  0
 22 48  1  0
 23 49  1  0
 23 50  1  0
 24 51  1  0
 24 52  1  0
 26 53  1  0
 27 54  1  0
 28 55  1  0
 29 56  1  0
M  END
>  <smiles>  (26) 
O=C(c1cc2c(F)cccc2[nH]1)N1C[C@@]2(CCN(CC3CCC3)C2)c2ccccc21

>  <score_type>  (26) 
oracle

>  <origin>  (26) 
autodockgpu

>  <m_score__min__energy>  (26) 
-8.1199999999999992

>  <m_primary>  (26) 
energy

>  <rmsd>  (26) 
5.418614707943365

>  <m_score__min__rmsd>  (26) 
5.418614707943365

>  <meeko>  (26) 
{"free_energy": -7.88, "intermolecular_energy": -9.07, "internal_energy": -1.28, "cluster_size": 14, "cluster_id": 1, "rank_in_cluster": 11}

>  <energy>  (26) 
-7.85

>  <cluster_rmsd>  (26) 
0.03

>  <cluster>  (26) 
4

$$$$

     RDKit          3D

 56 61  0  0  0  0  0  0  0  0999 V2000
  140.0060   74.4590  222.0820 O   0  0  0  0  0  0  0  0  0  0  0  0
  140.9030   75.0420  221.3670 C   0  0  0  0  0  0  0  0  0  0  0  0
  141.9650   74.1620  220.9480 C   0  0  0  0  0  0  0  0  0  0  0  0
  142.0200   72.8360  220.6230 C   0  0  0  0  0  0  0  0  0  0  0  0
  143.3080   72.4770  220.3190 C   0  0  0  0  0  0  0  0  0  0  0  0
  143.8740   71.2700  219.9390 C   0  0  0  0  0  0  0  0  0  0  0  0
  143.1370   70.1400  219.7910 F   0  0  0  0  0  0  0  0  0  0  0  0
  145.2450   71.2640  219.7090 C   0  0  0  0  0  0  0  0  0  0  0  0
  146.0240   72.4110  219.8510 C   0  0  0  0  0  0  0  0  0  0  0  0
  145.4290   73.6010  220.2320 C   0  0  0  0  0  0  0  0  0  0  0  0
  144.0620   73.6140  220.4620 C   0  0  0  0  0  0  0  0  0  0  0  0
  143.2490   74.6000  220.8340 N   0  0  0  0  0  0  0  0  0  0  0  0
  140.7030   76.4030  221.1260 N   0  0  0  0  0  0  0  0  0  0  0  0
  139.7270   77.2130  221.8990 C   0  0  0  0  0  0  0  0  0  0  0  0
  140.3810   78.5620  221.9890 C   0  0  2  0  0  0  0  0  0  0  0  0
  141.3280   78.6350  223.1360 C   0  0  0  0  0  0  0  0  0  0  0  0
  140.9350   79.9340  223.8380 C   0  0  0  0  0  0  0  0  0  0  0  0
  139.6350   80.2570  223.4460 N   0  0  0  0  0  0  0  0  0  0  0  0
  138.5200   80.1680  224.2700 C   0  0  0  0  0  0  0  0  0  0  0  0
  137.7340   81.3810  224.6050 C   0  0  0  0  0  0  0  0  0  0  0  0
  136.4790   81.7200  223.9020 C   0  0  0  0  0  0  0  0  0  0  0  0
  135.6680   81.2570  225.0940 C   0  0  0  0  0  0  0  0  0  0  0  0
  136.9630   81.3030  225.9160 C   0  0  0  0  0  0  0  0  0  0  0  0
  139.3860   79.6840  222.1460 C   0  0  0  0  0  0  0  0  0  0  0  0
  141.1150   78.6360  220.6980 C   0  0  0  0  0  0  0  0  0  0  0  0
  141.6110   79.6960  219.9570 C   0  0  0  0  0  0  0  0  0  0  0  0
  142.2710   79.5150  218.7550 C   0  0  0  0  0  0  0  0  0  0  0  0
  142.4250   78.2160  218.3030 C   0  0  0  0  0  0  0  0  0  0  0  0
  141.9270   77.1640  219.0460 C   0  0  0  0  0  0  0  0  0  0  0  0
  141.2730   77.3340  220.2390 C   0  0  0  0  0  0  0  0  0  0  0  0
  141.1562   72.1551  220.6075 H   0  0  0  0  0  0  0  0  0  0  0  0
  145.7302   70.3246  219.4054 H   0  0  0  0  0  0  0  0  0  0  0  0
  147.1067   72.3706  219.6611 H   0  0  0  0  0  0  0  0  0  0  0  0
  146.0276   74.5163  220.3497 H   0  0  0  0  0  0  0  0  0  0  0  0
  143.5850   75.5930  221.0100 H   0  0  0  0  0  0  0  0  0  0  0  0
  138.7644   77.2776  221.3707 H   0  0  0  0  0  0  0  0  0  0  0  0
  139.4992   76.7817  222.8849 H   0  0  0  0  0  0  0  0  0  0  0  0
  141.2019   77.7718  223.8061 H   0  0  0  0  0  0  0  0  0  0  0  0
  142.3826   78.6178  222.8238 H   0  0  0  0  0  0  0  0  0  0  0  0
  140.9731   79.7958  224.9286 H   0  0  0  0  0  0  0  0  0  0  0  0
  141.6295   80.7423  223.5653 H   0  0  0  0  0  0  0  0  0  0  0  0
  137.8253   79.4657  223.7860 H   0  0  0  0  0  0  0  0  0  0  0  0
  138.9506   79.8761  225.2392 H   0  0  0  0  0  0  0  0  0  0  0  0
  138.5938   82.0468  224.4390 H   0  0  0  0  0  0  0  0  0  0  0  0
  136.3690   82.7908  223.6755 H   0  0  0  0  0  0  0  0  0  0  0  0
  136.2772   81.3058  222.9031 H   0  0  0  0  0  0  0  0  0  0  0  0
  134.8920   81.9641  225.4223 H   0  0  0  0  0  0  0  0  0  0  0  0
  135.0445   80.3518  225.0506 H   0  0  0  0  0  0  0  0  0  0  0  0
  137.0644   82.1901  226.5584 H   0  0  0  0  0  0  0  0  0  0  0  0
  137.1907   80.5350  226.6699 H   0  0  0  0  0  0  0  0  0  0  0  0
  138.3588   79.2945  222.0903 H   0  0  0  0  0  0  0  0  0  0  0  0
  139.4943   80.4332  221.3479 H   0  0  0  0  0  0  0  0  0  0  0  0
  141.4751   80.7188  220.3383 H   0  0  0  0  0  0  0  0  0  0  0  0
  142.6582   80.3698  218.1810 H   0  0  0  0  0  0  0  0  0  0  0  0
  142.9437   78.0217  217.3526 H   0  0  0  0  0  0  0  0  0  0  0  0
  142.0613   76.1417  218.6628 H   0  0  0  0  0  0  0  0  0  0  0  0
  1  2  2  0
  2  3  1  0
  3  4  2  0
  4  5  1  0
  5  6  2  0
  6  7  1  0
  6  8  1  0
  8  9  2  0
  9 10  1  0
 10 11  2  0
 11 12  1  0
  2 13  1  0
 13 14  1  0
 15 14  1  6
 15 16  1  0
 16 17  1  0
 17 18  1  0
 18 19  1  0
 19 20  1  0
 20 21  1  0
 21 22  1  0
 22 23  1  0
 18 24  1  0
 15 25  1  0
 25 26  2  0
 26 27  1  0
 27 28  2  0
 28 29  1  0
 29 30  2  0
 12  3  1  0
 30 13  1  0
 11  5  1  0
 24 15  1  0
 30 25  1  0
 23 20  1  0
  4 31  1  0
  8 32  1  0
  9 33  1  0
 10 34  1  0
 12 35  1  0
 14 36  1  0
 14 37  1  0
 16 38  1  0
 16 39  1  0
 17 40  1  0
 17 41  1  0
 19 42  1  0
 19 43  1  0
 20 44  1  0
 21 45  1  0
 21 46  1  0
 22 47  1  0
 22 48  1  0
 23 49  1  0
 23 50  1  0
 24 51  1  0
 24 52  1  0
 26 53  1  0
 27 54  1  0
 28 55  1  0
 29 56  1  0
M  END
>  <smiles>  (27) 
O=C(c1cc2c(F)cccc2[nH]1)N1C[C@@]2(CCN(CC3CCC3)C2)c2ccccc21

>  <score_type>  (27) 
oracle

>  <origin>  (27) 
autodockgpu

>  <m_score__min__energy>  (27) 
-8.1199999999999992

>  <m_primary>  (27) 
energy

>  <rmsd>  (27) 
5.453542783325919

>  <m_score__min__rmsd>  (27) 
5.453542783325919

>  <meeko>  (27) 
{"free_energy": -8.03, "intermolecular_energy": -9.22, "internal_energy": -1.14, "cluster_size": 14, "cluster_id": 1, "rank_in_cluster": 7}

>  <energy>  (27) 
-7.85

>  <cluster_rmsd>  (27) 
0.05

>  <cluster>  (27) 
4

$$$$

     RDKit          3D

 56 61  0  0  0  0  0  0  0  0999 V2000
  140.5370   74.8890  221.9870 O   0  0  0  0  0  0  0  0  0  0  0  0
  141.4270   75.3810  221.1990 C   0  0  0  0  0  0  0  0  0  0  0  0
  142.4460   74.4350  220.8200 C   0  0  0  0  0  0  0  0  0  0  0  0
  143.7760   74.5450  220.5260 C   0  0  0  0  0  0  0  0  0  0  0  0
  144.2880   73.3180  220.1880 C   0  0  0  0  0  0  0  0  0  0  0  0
  145.5580   72.9110  219.8130 C   0  0  0  0  0  0  0  0  0  0  0  0
  146.5990   73.7770  219.7230 F   0  0  0  0  0  0  0  0  0  0  0  0
  145.7270   71.5600  219.5310 C   0  0  0  0  0  0  0  0  0  0  0  0
  144.6760   70.6500  219.6180 C   0  0  0  0  0  0  0  0  0  0  0  0
  143.4190   71.0870  219.9960 C   0  0  0  0  0  0  0  0  0  0  0  0
  143.2440   72.4340  220.2790 C   0  0  0  0  0  0  0  0  0  0  0  0
  142.1630   73.1130  220.6550 N   0  0  0  0  0  0  0  0  0  0  0  0
  141.2610   76.7240  220.8520 N   0  0  0  0  0  0  0  0  0  0  0  0
  140.3960   77.6460  221.6310 C   0  0  0  0  0  0  0  0  0  0  0  0
  141.1090   78.9640  221.5370 C   0  0  2  0  0  0  0  0  0  0  0  0
  142.1630   79.0910  222.5820 C   0  0  0  0  0  0  0  0  0  0  0  0
  141.8900   80.4650  223.1930 C   0  0  0  0  0  0  0  0  0  0  0  0
  140.5740   80.8160  222.8920 N   0  0  0  0  0  0  0  0  0  0  0  0
  139.5380   80.8540  223.8170 C   0  0  0  0  0  0  0  0  0  0  0  0
  138.1340   81.0250  223.3680 C   0  0  0  0  0  0  0  0  0  0  0  0
  137.1470   79.9280  223.4510 C   0  0  0  0  0  0  0  0  0  0  0  0
  136.5020   80.5780  224.6570 C   0  0  0  0  0  0  0  0  0  0  0  0
  137.2620   81.8610  224.2950 C   0  0  0  0  0  0  0  0  0  0  0  0
  140.1800   80.1430  221.6780 C   0  0  0  0  0  0  0  0  0  0  0  0
  141.7210   78.8870  220.1830 C   0  0  0  0  0  0  0  0  0  0  0  0
  142.1890   79.8530  219.3060 C   0  0  0  0  0  0  0  0  0  0  0  0
  142.7240   79.5340  218.0720 C   0  0  0  0  0  0  0  0  0  0  0  0
  142.7830   78.1940  217.7300 C   0  0  0  0  0  0  0  0  0  0  0  0
  142.3150   77.2380  218.6090 C   0  0  0  0  0  0  0  0  0  0  0  0
  141.7820   77.5440  219.8340 C   0  0  0  0  0  0  0  0  0  0  0  0
  144.3524   75.4814  220.5560 H   0  0  0  0  0  0  0  0  0  0  0  0
  146.7214   71.1987  219.2299 H   0  0  0  0  0  0  0  0  0  0  0  0
  144.8449   69.5879  219.3870 H   0  0  0  0  0  0  0  0  0  0  0  0
  142.5774   70.3826  220.0705 H   0  0  0  0  0  0  0  0  0  0  0  0
  141.2140   72.6570  220.8030 H   0  0  0  0  0  0  0  0  0  0  0  0
  139.3914   77.7106  221.1876 H   0  0  0  0  0  0  0  0  0  0  0  0
  140.2449   77.3152  222.6691 H   0  0  0  0  0  0  0  0  0  0  0  0
  142.0660   78.2976  223.3377 H   0  0  0  0  0  0  0  0  0  0  0  0
  143.1820   78.9943  222.1791 H   0  0  0  0  0  0  0  0  0  0  0  0
  142.0249   80.4221  224.2838 H   0  0  0  0  0  0  0  0  0  0  0  0
  142.5878   81.2108  222.7844 H   0  0  0  0  0  0  0  0  0  0  0  0
  139.5777   79.9062  224.3739 H   0  0  0  0  0  0  0  0  0  0  0  0
  139.7354   81.7831  224.3719 H   0  0  0  0  0  0  0  0  0  0  0  0
  138.4402   81.3459  222.3614 H   0  0  0  0  0  0  0  0  0  0  0  0
  136.4852   79.8553  222.5754 H   0  0  0  0  0  0  0  0  0  0  0  0
  137.4871   78.8832  223.5037 H   0  0  0  0  0  0  0  0  0  0  0  0
  135.4068   80.6631  224.6004 H   0  0  0  0  0  0  0  0  0  0  0  0
  136.5709   80.1302  225.6594 H   0  0  0  0  0  0  0  0  0  0  0  0
  136.6540   82.6229  223.7853 H   0  0  0  0  0  0  0  0  0  0  0  0
  137.7031   82.5037  225.0711 H   0  0  0  0  0  0  0  0  0  0  0  0
  139.1370   79.8013  221.7515 H   0  0  0  0  0  0  0  0  0  0  0  0
  140.2429   80.8123  220.8073 H   0  0  0  0  0  0  0  0  0  0  0  0
  142.1327   80.9108  219.6025 H   0  0  0  0  0  0  0  0  0  0  0  0
  143.0887   80.3147  217.3883 H   0  0  0  0  0  0  0  0  0  0  0  0
  143.2023   77.8913  216.7591 H   0  0  0  0  0  0  0  0  0  0  0  0
  142.3726   76.1804  218.3121 H   0  0  0  0  0  0  0  0  0  0  0  0
  1  2  2  0
  2  3  1  0
  3  4  2  0
  4  5  1  0
  5  6  2  0
  6  7  1  0
  6  8  1  0
  8  9  2  0
  9 10  1  0
 10 11  2  0
 11 12  1  0
  2 13  1  0
 13 14  1  0
 15 14  1  1
 15 16  1  0
 16 17  1  0
 17 18  1  0
 18 19  1  0
 19 20  1  0
 20 21  1  0
 21 22  1  0
 22 23  1  0
 18 24  1  0
 15 25  1  0
 25 26  2  0
 26 27  1  0
 27 28  2  0
 28 29  1  0
 29 30  2  0
 12  3  1  0
 30 13  1  0
 11  5  1  0
 24 15  1  0
 30 25  1  0
 23 20  1  0
  4 31  1  0
  8 32  1  0
  9 33  1  0
 10 34  1  0
 12 35  1  0
 14 36  1  0
 14 37  1  0
 16 38  1  0
 16 39  1  0
 17 40  1  0
 17 41  1  0
 19 42  1  0
 19 43  1  0
 20 44  1  0
 21 45  1  0
 21 46  1  0
 22 47  1  0
 22 48  1  0
 23 49  1  0
 23 50  1  0
 24 51  1  0
 24 52  1  0
 26 53  1  0
 27 54  1  0
 28 55  1  0
 29 56  1  0
M  END
>  <smiles>  (28) 
O=C(c1cc2c(F)cccc2[nH]1)N1C[C@@]2(CCN(CC3CCC3)C2)c2ccccc21

>  <score_type>  (28) 
oracle

>  <origin>  (28) 
autodockgpu

>  <m_score__min__energy>  (28) 
-8.1199999999999992

>  <m_primary>  (28) 
energy

>  <rmsd>  (28) 
5.410315748183441

>  <m_score__min__rmsd>  (28) 
5.410315748183441

>  <meeko>  (28) 
{"free_energy": -7.64, "intermolecular_energy": -8.84, "internal_energy": -1.41, "cluster_size": 14, "cluster_id": 1, "rank_in_cluster": 14}

>  <energy>  (28) 
-7.85

>  <cluster_rmsd>  (28) 
0.05

>  <cluster>  (28) 
4

$$$$

     RDKit          3D

 56 61  0  0  0  0  0  0  0  0999 V2000
  142.1510   73.6360  221.0340 O   0  0  0  0  0  0  0  0  0  0  0  0
  141.0020   73.4880  221.5940 C   0  0  0  0  0  0  0  0  0  0  0  0
  140.3600   74.7340  221.9280 C   0  0  0  0  0  0  0  0  0  0  0  0
  139.0620   75.1000  222.1450 C   0  0  0  0  0  0  0  0  0  0  0  0
  138.9870   76.4450  222.4040 C   0  0  0  0  0  0  0  0  0  0  0  0
  137.9170   77.2820  222.6790 C   0  0  0  0  0  0  0  0  0  0  0  0
  136.6400   76.8270  222.7440 F   0  0  0  0  0  0  0  0  0  0  0  0
  138.2090   78.6240  222.8910 C   0  0  0  0  0  0  0  0  0  0  0  0
  139.5110   79.1170  222.8320 C   0  0  0  0  0  0  0  0  0  0  0  0
  140.5580   78.2560  222.5550 C   0  0  0  0  0  0  0  0  0  0  0  0
  140.2730   76.9150  222.3430 C   0  0  0  0  0  0  0  0  0  0  0  0
  141.0720   75.8870  222.0610 N   0  0  0  0  0  0  0  0  0  0  0  0
  140.5810   72.1700  221.7830 N   0  0  0  0  0  0  0  0  0  0  0  0
  140.6290   71.5010  223.1090 C   0  0  0  0  0  0  0  0  0  0  0  0
  139.4220   70.6070  223.0970 C   0  0  2  0  0  0  0  0  0  0  0  0
  138.1970   71.3380  223.5260 C   0  0  0  0  0  0  0  0  0  0  0  0
  137.5810   70.4130  224.5740 C   0  0  0  0  0  0  0  0  0  0  0  0
  138.5830   69.5560  225.0320 N   0  0  0  0  0  0  0  0  0  0  0  0
  139.1620   69.6250  226.2930 C   0  0  0  0  0  0  0  0  0  0  0  0
  140.5040   70.2320  226.4720 C   0  0  0  0  0  0  0  0  0  0  0  0
  140.7240   71.6900  226.3680 C   0  0  0  0  0  0  0  0  0  0  0  0
  140.8280   71.7980  227.8750 C   0  0  0  0  0  0  0  0  0  0  0  0
  141.0020   70.2730  227.9100 C   0  0  0  0  0  0  0  0  0  0  0  0
  139.5760   69.4070  223.9960 C   0  0  0  0  0  0  0  0  0  0  0  0
  139.3310   70.2300  221.6620 C   0  0  0  0  0  0  0  0  0  0  0  0
  138.7190   69.1760  221.0030 C   0  0  0  0  0  0  0  0  0  0  0  0
  138.7760   69.0280  219.6290 C   0  0  0  0  0  0  0  0  0  0  0  0
  139.4770   69.9840  218.9140 C   0  0  0  0  0  0  0  0  0  0  0  0
  140.0860   71.0310  219.5780 C   0  0  0  0  0  0  0  0  0  0  0  0
  140.0340   71.1860  220.9390 C   0  0  0  0  0  0  0  0  0  0  0  0
  138.2015   74.4154  222.1162 H   0  0  0  0  0  0  0  0  0  0  0  0
  137.3860   79.3194  223.1125 H   0  0  0  0  0  0  0  0  0  0  0  0
  139.7055   80.1858  223.0049 H   0  0  0  0  0  0  0  0  0  0  0  0
  141.5926   78.6263  222.5040 H   0  0  0  0  0  0  0  0  0  0  0  0
  142.1260   75.9830  221.9620 H   0  0  0  0  0  0  0  0  0  0  0  0
  141.5522   70.9131  223.2192 H   0  0  0  0  0  0  0  0  0  0  0  0
  140.6254   72.2130  223.9475 H   0  0  0  0  0  0  0  0  0  0  0  0
  138.4541   72.3135  223.9645 H   0  0  0  0  0  0  0  0  0  0  0  0
  137.5138   71.5572  222.6922 H   0  0  0  0  0  0  0  0  0  0  0  0
  137.1861   71.0073  225.4112 H   0  0  0  0  0  0  0  0  0  0  0  0
  136.7534   69.8355  224.1363 H   0  0  0  0  0  0  0  0  0  0  0  0
  138.4695   70.1981  226.9271 H   0  0  0  0  0  0  0  0  0  0  0  0
  139.3323   68.5681  226.5458 H   0  0  0  0  0  0  0  0  0  0  0  0
  140.9501   69.6030  225.6875 H   0  0  0  0  0  0  0  0  0  0  0  0
  141.6463   71.9657  225.8357 H   0  0  0  0  0  0  0  0  0  0  0  0
  140.0073   72.3179  225.8184 H   0  0  0  0  0  0  0  0  0  0  0  0
  141.6983   72.3667  228.2345 H   0  0  0  0  0  0  0  0  0  0  0  0
  140.0551   72.3044  228.4719 H   0  0  0  0  0  0  0  0  0  0  0  0
  142.0404   69.9353  228.0429 H   0  0  0  0  0  0  0  0  0  0  0  0
  140.5347   69.6611  228.6956 H   0  0  0  0  0  0  0  0  0  0  0  0
  140.5848   69.3845  224.4340 H   0  0  0  0  0  0  0  0  0  0  0  0
  139.4406   68.4674  223.4404 H   0  0  0  0  0  0  0  0  0  0  0  0
  138.1678   68.4298  221.5940 H   0  0  0  0  0  0  0  0  0  0  0  0
  138.2836   68.1838  219.1242 H   0  0  0  0  0  0  0  0  0  0  0  0
  139.5489   69.9099  217.8189 H   0  0  0  0  0  0  0  0  0  0  0  0
  140.6389   71.7757  218.9866 H   0  0  0  0  0  0  0  0  0  0  0  0
  1  2  2  0
  2  3  1  0
  3  4  2  0
  4  5  1  0
  5  6  2  0
  6  7  1  0
  6  8  1  0
  8  9  2  0
  9 10  1  0
 10 11  2  0
 11 12  1  0
  2 13  1  0
 13 14  1  0
 15 14  1  6
 15 16  1  0
 16 17  1  0
 17 18  1  0
 18 19  1  0
 19 20  1  0
 20 21  1  0
 21 22  1  0
 22 23  1  0
 18 24  1  0
 15 25  1  0
 25 26  2  0
 26 27  1  0
 27 28  2  0
 28 29  1  0
 29 30  2  0
 12  3  1  0
 30 13  1  0
 11  5  1  0
 24 15  1  0
 30 25  1  0
 23 20  1  0
  4 31  1  0
  8 32  1  0
  9 33  1  0
 10 34  1  0
 12 35  1  0
 14 36  1  0
 14 37  1  0
 16 38  1  0
 16 39  1  0
 17 40  1  0
 17 41  1  0
 19 42  1  0
 19 43  1  0
 20 44  1  0
 21 45  1  0
 21 46  1  0
 22 47  1  0
 22 48  1  0
 23 49  1  0
 23 50  1  0
 24 51  1  0
 24 52  1  0
 26 53  1  0
 27 54  1  0
 28 55  1  0
 29 56  1  0
M  END
>  <smiles>  (29) 
O=C(c1cc2c(F)cccc2[nH]1)N1C[C@@]2(CCN(CC3CCC3)C2)c2ccccc21

>  <score_type>  (29) 
oracle

>  <origin>  (29) 
autodockgpu

>  <m_score__min__energy>  (29) 
-8.1199999999999992

>  <m_primary>  (29) 
energy

>  <rmsd>  (29) 
6.881904222144975

>  <m_score__min__rmsd>  (29) 
6.881904222144975

>  <meeko>  (29) 
{"free_energy": -7.32, "intermolecular_energy": -8.52, "internal_energy": -1.67, "cluster_size": 3, "cluster_id": 6, "rank_in_cluster": 3}

>  <energy>  (29) 
-7.84

>  <cluster_rmsd>  (29) 
0.05

>  <cluster>  (29) 
4

$$$$

     RDKit          3D

 56 61  0  0  0  0  0  0  0  0999 V2000
  139.1610   70.4370  221.9960 O   0  0  0  0  0  0  0  0  0  0  0  0
  139.6370   71.3520  222.7670 C   0  0  0  0  0  0  0  0  0  0  0  0
  139.9480   70.8810  224.0930 C   0  0  0  0  0  0  0  0  0  0  0  0
  140.3920   71.4910  225.2320 C   0  0  0  0  0  0  0  0  0  0  0  0
  140.5630   70.5640  226.2280 C   0  0  0  0  0  0  0  0  0  0  0  0
  140.9910   70.6760  227.5420 C   0  0  0  0  0  0  0  0  0  0  0  0
  141.3340   71.8690  228.0910 F   0  0  0  0  0  0  0  0  0  0  0  0
  141.0510   69.5040  228.2850 C   0  0  0  0  0  0  0  0  0  0  0  0
  140.7030   68.2670  227.7460 C   0  0  0  0  0  0  0  0  0  0  0  0
  140.2800   68.1870  226.4310 C   0  0  0  0  0  0  0  0  0  0  0  0
  140.2160   69.3540  225.6840 C   0  0  0  0  0  0  0  0  0  0  0  0
  139.8540   69.5620  224.4200 N   0  0  0  0  0  0  0  0  0  0  0  0
  139.7640   72.6220  222.2000 N   0  0  0  0  0  0  0  0  0  0  0  0
  141.0850   73.2620  221.9700 C   0  0  0  0  0  0  0  0  0  0  0  0
  140.8820   74.0440  220.7040 C   0  0  2  0  0  0  0  0  0  0  0  0
  141.0990   73.1960  219.4990 C   0  0  0  0  0  0  0  0  0  0  0  0
  142.0380   74.0390  218.6370 C   0  0  0  0  0  0  0  0  0  0  0  0
  142.6610   74.9710  219.4680 N   0  0  0  0  0  0  0  0  0  0  0  0
  143.9990   74.9260  219.8380 C   0  0  0  0  0  0  0  0  0  0  0  0
  144.4970   73.8500  220.7320 C   0  0  0  0  0  0  0  0  0  0  0  0
  144.4410   72.4250  220.3460 C   0  0  0  0  0  0  0  0  0  0  0  0
  145.9270   72.4290  220.0560 C   0  0  0  0  0  0  0  0  0  0  0  0
  146.0120   73.7500  220.8320 C   0  0  0  0  0  0  0  0  0  0  0  0
  141.8030   75.2330  220.5980 C   0  0  0  0  0  0  0  0  0  0  0  0
  139.4540   74.4440  220.8140 C   0  0  0  0  0  0  0  0  0  0  0  0
  138.7120   75.4530  220.2220 C   0  0  0  0  0  0  0  0  0  0  0  0
  137.3670   75.6370  220.4880 C   0  0  0  0  0  0  0  0  0  0  0  0
  136.7700   74.7640  221.3810 C   0  0  0  0  0  0  0  0  0  0  0  0
  137.5160   73.7610  221.9670 C   0  0  0  0  0  0  0  0  0  0  0  0
  138.8490   73.5720  221.7090 C   0  0  0  0  0  0  0  0  0  0  0  0
  140.5844   72.5691  225.3351 H   0  0  0  0  0  0  0  0  0  0  0  0
  141.3838   69.5539  229.3323 H   0  0  0  0  0  0  0  0  0  0  0  0
  140.7643   67.3584  228.3630 H   0  0  0  0  0  0  0  0  0  0  0  0
  140.0007   67.2197  225.9879 H   0  0  0  0  0  0  0  0  0  0  0  0
  139.5340   68.7820  223.7720 H   0  0  0  0  0  0  0  0  0  0  0  0
  141.3497   73.9276  222.8048 H   0  0  0  0  0  0  0  0  0  0  0  0
  141.9060   72.5337  221.8959 H   0  0  0  0  0  0  0  0  0  0  0  0
  141.5674   72.2385  219.7707 H   0  0  0  0  0  0  0  0  0  0  0  0
  140.1629   72.9338  218.9842 H   0  0  0  0  0  0  0  0  0  0  0  0
  142.7941   73.3934  218.1664 H   0  0  0  0  0  0  0  0  0  0  0  0
  141.4742   74.5500  217.8426 H   0  0  0  0  0  0  0  0  0  0  0  0
  144.5814   74.8575  218.9073 H   0  0  0  0  0  0  0  0  0  0  0  0
  144.1173   75.8318  220.4508 H   0  0  0  0  0  0  0  0  0  0  0  0
  143.8492   74.1681  221.5621 H   0  0  0  0  0  0  0  0  0  0  0  0
  144.1474   71.7516  221.1647 H   0  0  0  0  0  0  0  0  0  0  0  0
  143.7299   72.0896  219.5767 H   0  0  0  0  0  0  0  0  0  0  0  0
  146.4842   71.5954  220.5084 H   0  0  0  0  0  0  0  0  0  0  0  0
  146.3150   72.3361  219.0309 H   0  0  0  0  0  0  0  0  0  0  0  0
  146.3960   73.6523  221.8582 H   0  0  0  0  0  0  0  0  0  0  0  0
  146.6635   74.5704  220.4966 H   0  0  0  0  0  0  0  0  0  0  0  0
  142.4004   75.3369  221.5158 H   0  0  0  0  0  0  0  0  0  0  0  0
  141.2398   76.1690  220.4682 H   0  0  0  0  0  0  0  0  0  0  0  0
  139.2103   76.1324  219.5149 H   0  0  0  0  0  0  0  0  0  0  0  0
  136.7946   76.4450  220.0089 H   0  0  0  0  0  0  0  0  0  0  0  0
  135.7022   74.8693  221.6235 H   0  0  0  0  0  0  0  0  0  0  0  0
  137.0174   73.0817  222.6740 H   0  0  0  0  0  0  0  0  0  0  0  0
  1  2  2  0
  2  3  1  0
  3  4  2  0
  4  5  1  0
  5  6  2  0
  6  7  1  0
  6  8  1  0
  8  9  2  0
  9 10  1  0
 10 11  2  0
 11 12  1  0
  2 13  1  0
 13 14  1  0
 15 14  1  1
 15 16  1  0
 16 17  1  0
 17 18  1  0
 18 19  1  0
 19 20  1  0
 20 21  1  0
 21 22  1  0
 22 23  1  0
 18 24  1  0
 15 25  1  0
 25 26  2  0
 26 27  1  0
 27 28  2  0
 28 29  1  0
 29 30  2  0
 12  3  1  0
 30 13  1  0
 11  5  1  0
 24 15  1  0
 30 25  1  0
 23 20  1  0
  4 31  1  0
  8 32  1  0
  9 33  1  0
 10 34  1  0
 12 35  1  0
 14 36  1  0
 14 37  1  0
 16 38  1  0
 16 39  1  0
 17 40  1  0
 17 41  1  0
 19 42  1  0
 19 43  1  0
 20 44  1  0
 21 45  1  0
 21 46  1  0
 22 47  1  0
 22 48  1  0
 23 49  1  0
 23 50  1  0
 24 51  1  0
 24 52  1  0
 26 53  1  0
 27 54  1  0
 28 55  1  0
 29 56  1  0
M  END
>  <smiles>  (30) 
O=C(c1cc2c(F)cccc2[nH]1)N1C[C@@]2(CCN(CC3CCC3)C2)c2ccccc21

>  <score_type>  (30) 
oracle

>  <origin>  (30) 
autodockgpu

>  <m_score__min__energy>  (30) 
-8.1199999999999992

>  <m_primary>  (30) 
energy

>  <rmsd>  (30) 
4.615807541379527

>  <m_score__min__rmsd>  (30) 
4.615807541379527

>  <meeko>  (30) 
{"free_energy": -7.84, "intermolecular_energy": -9.04, "internal_energy": -1.59, "cluster_size": 22, "cluster_id": 4, "rank_in_cluster": 6}

>  <energy>  (30) 
-7.83

>  <cluster_rmsd>  (30) 
0.04

>  <cluster>  (30) 
4

$$$$

     RDKit          3D

 56 61  0  0  0  0  0  0  0  0999 V2000
  139.1440   70.4580  221.9810 O   0  0  0  0  0  0  0  0  0  0  0  0
  139.6190   71.3670  222.7580 C   0  0  0  0  0  0  0  0  0  0  0  0
  139.9210   70.8890  224.0840 C   0  0  0  0  0  0  0  0  0  0  0  0
  140.3580   71.4920  225.2290 C   0  0  0  0  0  0  0  0  0  0  0  0
  140.5210   70.5600  226.2220 C   0  0  0  0  0  0  0  0  0  0  0  0
  140.9400   70.6650  227.5390 C   0  0  0  0  0  0  0  0  0  0  0  0
  141.2820   71.8540  228.0970 F   0  0  0  0  0  0  0  0  0  0  0  0
  140.9930   69.4890  228.2770 C   0  0  0  0  0  0  0  0  0  0  0  0
  140.6460   68.2560  227.7290 C   0  0  0  0  0  0  0  0  0  0  0  0
  140.2320   68.1830  226.4110 C   0  0  0  0  0  0  0  0  0  0  0  0
  140.1750   69.3540  225.6690 C   0  0  0  0  0  0  0  0  0  0  0  0
  139.8220   69.5690  224.4040 N   0  0  0  0  0  0  0  0  0  0  0  0
  139.7560   72.6390  222.1980 N   0  0  0  0  0  0  0  0  0  0  0  0
  141.0810   73.2700  221.9720 C   0  0  0  0  0  0  0  0  0  0  0  0
  140.8860   74.0600  220.7090 C   0  0  2  0  0  0  0  0  0  0  0  0
  141.0970   73.2160  219.5000 C   0  0  0  0  0  0  0  0  0  0  0  0
  142.0430   74.0570  218.6440 C   0  0  0  0  0  0  0  0  0  0  0  0
  142.6720   74.9810  219.4790 N   0  0  0  0  0  0  0  0  0  0  0  0
  144.0090   74.9240  219.8500 C   0  0  0  0  0  0  0  0  0  0  0  0
  144.4960   73.8470  220.7470 C   0  0  0  0  0  0  0  0  0  0  0  0
  144.4400   72.4220  220.3610 C   0  0  0  0  0  0  0  0  0  0  0  0
  145.9290   72.4220  220.0840 C   0  0  0  0  0  0  0  0  0  0  0  0
  146.0110   73.7430  220.8610 C   0  0  0  0  0  0  0  0  0  0  0  0
  141.8150   75.2430  220.6100 C   0  0  0  0  0  0  0  0  0  0  0  0
  139.4600   74.4700  220.8200 C   0  0  0  0  0  0  0  0  0  0  0  0
  138.7260   75.4870  220.2320 C   0  0  0  0  0  0  0  0  0  0  0  0
  137.3820   75.6790  220.4980 C   0  0  0  0  0  0  0  0  0  0  0  0
  136.7780   74.8060  221.3870 C   0  0  0  0  0  0  0  0  0  0  0  0
  137.5170   73.7950  221.9690 C   0  0  0  0  0  0  0  0  0  0  0  0
  138.8490   73.5970  221.7110 C   0  0  0  0  0  0  0  0  0  0  0  0
  140.5513   72.5693  225.3389 H   0  0  0  0  0  0  0  0  0  0  0  0
  141.3191   69.5328  229.3266 H   0  0  0  0  0  0  0  0  0  0  0  0
  140.7010   67.3442  228.3419 H   0  0  0  0  0  0  0  0  0  0  0  0
  139.9542   67.2183  225.9614 H   0  0  0  0  0  0  0  0  0  0  0  0
  139.5050   68.7930  223.7500 H   0  0  0  0  0  0  0  0  0  0  0  0
  141.3498   73.9297  222.8102 H   0  0  0  0  0  0  0  0  0  0  0  0
  141.8963   72.5356  221.8949 H   0  0  0  0  0  0  0  0  0  0  0  0
  141.5579   72.2536  219.7670 H   0  0  0  0  0  0  0  0  0  0  0  0
  140.1596   72.9629  218.9832 H   0  0  0  0  0  0  0  0  0  0  0  0
  142.7951   73.4083  218.1712 H   0  0  0  0  0  0  0  0  0  0  0  0
  141.4830   74.5761  217.8522 H   0  0  0  0  0  0  0  0  0  0  0  0
  144.5912   74.8469  218.9199 H   0  0  0  0  0  0  0  0  0  0  0  0
  144.1354   75.8304  220.4602 H   0  0  0  0  0  0  0  0  0  0  0  0
  143.8411   74.1668  221.5709 H   0  0  0  0  0  0  0  0  0  0  0  0
  144.1375   71.7496  221.1773 H   0  0  0  0  0  0  0  0  0  0  0  0
  143.7349   72.0881  219.5855 H   0  0  0  0  0  0  0  0  0  0  0  0
  146.4799   71.5868  220.5412 H   0  0  0  0  0  0  0  0  0  0  0  0
  146.3257   72.3282  219.0623 H   0  0  0  0  0  0  0  0  0  0  0  0
  146.3854   73.6442  221.8906 H   0  0  0  0  0  0  0  0  0  0  0  0
  146.6679   74.5616  220.5317 H   0  0  0  0  0  0  0  0  0  0  0  0
  142.4125   75.3379  221.5287 H   0  0  0  0  0  0  0  0  0  0  0  0
  141.2584   76.1835  220.4849 H   0  0  0  0  0  0  0  0  0  0  0  0
  139.2297   76.1662  219.5284 H   0  0  0  0  0  0  0  0  0  0  0  0
  136.8156   76.4930  220.0221 H   0  0  0  0  0  0  0  0  0  0  0  0
  135.7108   74.9177  221.6293 H   0  0  0  0  0  0  0  0  0  0  0  0
  137.0132   73.1163  222.6730 H   0  0  0  0  0  0  0  0  0  0  0  0
  1  2  2  0
  2  3  1  0
  3  4  2  0
  4  5  1  0
  5  6  2  0
  6  7  1  0
  6  8  1  0
  8  9  2  0
  9 10  1  0
 10 11  2  0
 11 12  1  0
  2 13  1  0
 13 14  1  0
 15 14  1  1
 15 16  1  0
 16 17  1  0
 17 18  1  0
 18 19  1  0
 19 20  1  0
 20 21  1  0
 21 22  1  0
 22 23  1  0
 18 24  1  0
 15 25  1  0
 25 26  2  0
 26 27  1  0
 27 28  2  0
 28 29  1  0
 29 30  2  0
 12  3  1  0
 30 13  1  0
 11  5  1  0
 24 15  1  0
 30 25  1  0
 23 20  1  0
  4 31  1  0
  8 32  1  0
  9 33  1  0
 10 34  1  0
 12 35  1  0
 14 36  1  0
 14 37  1  0
 16 38  1  0
 16 39  1  0
 17 40  1  0
 17 41  1  0
 19 42  1  0
 19 43  1  0
 20 44  1  0
 21 45  1  0
 21 46  1  0
 22 47  1  0
 22 48  1  0
 23 49  1  0
 23 50  1  0
 24 51  1  0
 24 52  1  0
 26 53  1  0
 27 54  1  0
 28 55  1  0
 29 56  1  0
M  END
>  <smiles>  (31) 
O=C(c1cc2c(F)cccc2[nH]1)N1C[C@@]2(CCN(CC3CCC3)C2)c2ccccc21

>  <score_type>  (31) 
oracle

>  <origin>  (31) 
autodockgpu

>  <m_score__min__energy>  (31) 
-8.1199999999999992

>  <m_primary>  (31) 
energy

>  <rmsd>  (31) 
4.597888130441386

>  <m_score__min__rmsd>  (31) 
4.597888130441386

>  <meeko>  (31) 
{"free_energy": -7.85, "intermolecular_energy": -9.04, "internal_energy": -1.59, "cluster_size": 22, "cluster_id": 4, "rank_in_cluster": 3}

>  <energy>  (31) 
-7.83

>  <cluster_rmsd>  (31) 
0.06

>  <cluster>  (31) 
4

$$$$

     RDKit          3D

 56 61  0  0  0  0  0  0  0  0999 V2000
  139.4660   71.5040  221.5400 O   0  0  0  0  0  0  0  0  0  0  0  0
  140.4890   71.8010  222.2620 C   0  0  0  0  0  0  0  0  0  0  0  0
  140.3840   71.3410  223.6240 C   0  0  0  0  0  0  0  0  0  0  0  0
  140.7190   71.8820  224.8330 C   0  0  0  0  0  0  0  0  0  0  0  0
  140.4340   70.9970  225.8410 C   0  0  0  0  0  0  0  0  0  0  0  0
  140.5900   71.0710  227.2170 C   0  0  0  0  0  0  0  0  0  0  0  0
  141.1030   72.1680  227.8290 F   0  0  0  0  0  0  0  0  0  0  0  0
  140.1910   69.9630  227.9540 C   0  0  0  0  0  0  0  0  0  0  0  0
  139.6590   68.8250  227.3510 C   0  0  0  0  0  0  0  0  0  0  0  0
  139.5160   68.7820  225.9760 C   0  0  0  0  0  0  0  0  0  0  0  0
  139.9120   69.8850  225.2340 C   0  0  0  0  0  0  0  0  0  0  0  0
  139.8890   70.1070  223.9210 N   0  0  0  0  0  0  0  0  0  0  0  0
  141.5070   72.5090  221.6190 N   0  0  0  0  0  0  0  0  0  0  0  0
  142.7860   71.8720  221.2150 C   0  0  0  0  0  0  0  0  0  0  0  0
  143.1440   72.5770  219.9380 C   0  0  2  0  0  0  0  0  0  0  0  0
  142.4770   71.9500  218.7630 C   0  0  0  0  0  0  0  0  0  0  0  0
  143.6180   71.7710  217.7620 C   0  0  0  0  0  0  0  0  0  0  0  0
  144.8200   71.8080  218.4710 N   0  0  0  0  0  0  0  0  0  0  0  0
  145.6340   70.7060  218.6970 C   0  0  0  0  0  0  0  0  0  0  0  0
  145.1120   69.3310  218.5010 C   0  0  0  0  0  0  0  0  0  0  0  0
  146.0060   68.1560  218.4360 C   0  0  0  0  0  0  0  0  0  0  0  0
  145.6120   67.7590  219.8430 C   0  0  0  0  0  0  0  0  0  0  0  0
  144.4260   68.7260  219.7180 C   0  0  0  0  0  0  0  0  0  0  0  0
  144.6270   72.5860  219.6700 C   0  0  0  0  0  0  0  0  0  0  0  0
  142.6060   73.9430  220.1780 C   0  0  0  0  0  0  0  0  0  0  0  0
  142.8880   75.1770  219.6160 C   0  0  0  0  0  0  0  0  0  0  0  0
  142.2460   76.3360  220.0140 C   0  0  0  0  0  0  0  0  0  0  0  0
  141.2930   76.2250  221.0120 C   0  0  0  0  0  0  0  0  0  0  0  0
  141.0180   74.9920  221.5670 C   0  0  0  0  0  0  0  0  0  0  0  0
  141.6480   73.8380  221.1790 C   0  0  0  0  0  0  0  0  0  0  0  0
  141.1540   72.8820  224.9769 H   0  0  0  0  0  0  0  0  0  0  0  0
  140.2985   69.9847  229.0485 H   0  0  0  0  0  0  0  0  0  0  0  0
  139.3543   67.9651  227.9655 H   0  0  0  0  0  0  0  0  0  0  0  0
  139.0975   67.8928  225.4818 H   0  0  0  0  0  0  0  0  0  0  0  0
  139.5240   69.3980  223.2190 H   0  0  0  0  0  0  0  0  0  0  0  0
  143.5610   72.0275  221.9800 H   0  0  0  0  0  0  0  0  0  0  0  0
  142.7005   70.7822  221.0920 H   0  0  0  0  0  0  0  0  0  0  0  0
  142.0344   70.9798  219.0330 H   0  0  0  0  0  0  0  0  0  0  0  0
  141.6484   72.5549  218.3661 H   0  0  0  0  0  0  0  0  0  0  0  0
  143.5165   70.8035  217.2485 H   0  0  0  0  0  0  0  0  0  0  0  0
  143.5939   72.5700  217.0063 H   0  0  0  0  0  0  0  0  0  0  0  0
  146.5009   70.8122  218.0283 H   0  0  0  0  0  0  0  0  0  0  0  0
  145.8141   70.7499  219.7813 H   0  0  0  0  0  0  0  0  0  0  0  0
  144.5846   69.6079  217.5762 H   0  0  0  0  0  0  0  0  0  0  0  0
  145.7225   67.4208  217.6684 H   0  0  0  0  0  0  0  0  0  0  0  0
  147.0671   68.2840  218.1757 H   0  0  0  0  0  0  0  0  0  0  0  0
  145.3307   66.7019  219.9587 H   0  0  0  0  0  0  0  0  0  0  0  0
  146.3223   67.8228  220.6805 H   0  0  0  0  0  0  0  0  0  0  0  0
  143.4622   68.2408  219.5044 H   0  0  0  0  0  0  0  0  0  0  0  0
  144.1042   69.3508  220.5642 H   0  0  0  0  0  0  0  0  0  0  0  0
  145.1701   72.1316  220.5118 H   0  0  0  0  0  0  0  0  0  0  0  0
  145.0082   73.6109  219.5505 H   0  0  0  0  0  0  0  0  0  0  0  0
  143.6498   75.2377  218.8248 H   0  0  0  0  0  0  0  0  0  0  0  0
  142.4834   77.3074  219.5556 H   0  0  0  0  0  0  0  0  0  0  0  0
  140.7556   77.1187  221.3621 H   0  0  0  0  0  0  0  0  0  0  0  0
  140.2567   74.9322  222.3588 H   0  0  0  0  0  0  0  0  0  0  0  0
  1  2  2  0
  2  3  1  0
  3  4  2  0
  4  5  1  0
  5  6  2  0
  6  7  1  0
  6  8  1  0
  8  9  2  0
  9 10  1  0
 10 11  2  0
 11 12  1  0
  2 13  1  0
 13 14  1  0
 15 14  1  1
 15 16  1  0
 16 17  1  0
 17 18  1  0
 18 19  1  0
 19 20  1  0
 20 21  1  0
 21 22  1  0
 22 23  1  0
 18 24  1  0
 15 25  1  0
 25 26  2  0
 26 27  1  0
 27 28  2  0
 28 29  1  0
 29 30  2  0
 12  3  1  0
 30 13  1  0
 11  5  1  0
 24 15  1  0
 30 25  1  0
 23 20  1  0
  4 31  1  0
  8 32  1  0
  9 33  1  0
 10 34  1  0
 12 35  1  0
 14 36  1  0
 14 37  1  0
 16 38  1  0
 16 39  1  0
 17 40  1  0
 17 41  1  0
 19 42  1  0
 19 43  1  0
 20 44  1  0
 21 45  1  0
 21 46  1  0
 22 47  1  0
 22 48  1  0
 23 49  1  0
 23 50  1  0
 24 51  1  0
 24 52  1  0
 26 53  1  0
 27 54  1  0
 28 55  1  0
 29 56  1  0
M  END
>  <smiles>  (32) 
O=C(c1cc2c(F)cccc2[nH]1)N1C[C@@]2(CCN(CC3CCC3)C2)c2ccccc21

>  <score_type>  (32) 
oracle

>  <origin>  (32) 
autodockgpu

>  <m_score__min__energy>  (32) 
-8.1199999999999992

>  <m_primary>  (32) 
energy

>  <rmsd>  (32) 
4.072973418243436

>  <m_score__min__rmsd>  (32) 
4.072973418243436

>  <meeko>  (32) 
{"free_energy": -7.84, "intermolecular_energy": -9.03, "internal_energy": -1.37, "cluster_size": 7, "cluster_id": 3, "rank_in_cluster": 3}

>  <energy>  (32) 
-7.82

>  <cluster_rmsd>  (32) 
0.07

>  <cluster>  (32) 
4

$$$$

     RDKit          3D

 56 61  0  0  0  0  0  0  0  0999 V2000
  134.3530   68.2700  224.9200 O   0  0  0  0  0  0  0  0  0  0  0  0
  135.0140   69.3700  224.8240 C   0  0  0  0  0  0  0  0  0  0  0  0
  134.3200   70.5070  225.3740 C   0  0  0  0  0  0  0  0  0  0  0  0
  134.5790   71.8480  225.4030 C   0  0  0  0  0  0  0  0  0  0  0  0
  133.5950   72.5040  226.0980 C   0  0  0  0  0  0  0  0  0  0  0  0
  133.4050   73.8430  226.4050 C   0  0  0  0  0  0  0  0  0  0  0  0
  134.2720   74.8070  226.0040 F   0  0  0  0  0  0  0  0  0  0  0  0
  132.2740   74.1630  227.1460 C   0  0  0  0  0  0  0  0  0  0  0  0
  131.3680   73.1930  227.5680 C   0  0  0  0  0  0  0  0  0  0  0  0
  131.5850   71.8650  227.2460 C   0  0  0  0  0  0  0  0  0  0  0  0
  132.7110   71.5390  226.5050 C   0  0  0  0  0  0  0  0  0  0  0  0
  133.1570   70.3630  226.0670 N   0  0  0  0  0  0  0  0  0  0  0  0
  136.2660   69.2790  224.2110 N   0  0  0  0  0  0  0  0  0  0  0  0
  137.4320   70.0810  224.6610 C   0  0  0  0  0  0  0  0  0  0  0  0
  138.6000   69.1640  224.4330 C   0  0  2  0  0  0  0  0  0  0  0  0
  138.8050   68.2440  225.5870 C   0  0  0  0  0  0  0  0  0  0  0  0
  140.2990   68.3730  225.8810 C   0  0  0  0  0  0  0  0  0  0  0  0
  140.7450   69.5700  225.3190 N   0  0  0  0  0  0  0  0  0  0  0  0
  141.1070   70.6950  226.0490 C   0  0  0  0  0  0  0  0  0  0  0  0
  141.1260   70.6550  227.5320 C   0  0  0  0  0  0  0  0  0  0  0  0
  141.3060   71.8760  228.3460 C   0  0  0  0  0  0  0  0  0  0  0  0
  139.8310   71.8860  228.6860 C   0  0  0  0  0  0  0  0  0  0  0  0
  139.7680   70.4370  228.1850 C   0  0  0  0  0  0  0  0  0  0  0  0
  139.8910   69.9080  224.2060 C   0  0  0  0  0  0  0  0  0  0  0  0
  138.1660   68.4060  223.2290 C   0  0  0  0  0  0  0  0  0  0  0  0
  138.8610   67.6860  222.2710 C   0  0  0  0  0  0  0  0  0  0  0  0
  138.2270   67.0550  221.2150 C   0  0  0  0  0  0  0  0  0  0  0  0
  136.8490   67.1640  221.1430 C   0  0  0  0  0  0  0  0  0  0  0  0
  136.1640   67.8840  222.1020 C   0  0  0  0  0  0  0  0  0  0  0  0
  136.7830   68.5120  223.1510 C   0  0  0  0  0  0  0  0  0  0  0  0
  135.4501   72.3315  224.9367 H   0  0  0  0  0  0  0  0  0  0  0  0
  132.0884   75.2152  227.4075 H   0  0  0  0  0  0  0  0  0  0  0  0
  130.4835   73.4815  228.1549 H   0  0  0  0  0  0  0  0  0  0  0  0
  130.8802   71.0853  227.5705 H   0  0  0  0  0  0  0  0  0  0  0  0
  132.6490   69.4470  226.2460 H   0  0  0  0  0  0  0  0  0  0  0  0
  137.5311   70.9994  224.0637 H   0  0  0  0  0  0  0  0  0  0  0  0
  137.3457   70.4117  225.7066 H   0  0  0  0  0  0  0  0  0  0  0  0
  138.2046   68.5591  226.4532 H   0  0  0  0  0  0  0  0  0  0  0  0
  138.4971   67.2101  225.3722 H   0  0  0  0  0  0  0  0  0  0  0  0
  140.4663   68.3854  226.9681 H   0  0  0  0  0  0  0  0  0  0  0  0
  140.8485   67.5211  225.4540 H   0  0  0  0  0  0  0  0  0  0  0  0
  142.1236   70.9657  225.7277 H   0  0  0  0  0  0  0  0  0  0  0  0
  140.2950   71.4041  225.8305 H   0  0  0  0  0  0  0  0  0  0  0  0
  141.9409   69.9164  227.5529 H   0  0  0  0  0  0  0  0  0  0  0  0
  141.9642   71.7394  229.2167 H   0  0  0  0  0  0  0  0  0  0  0  0
  141.7765   72.7676  227.9060 H   0  0  0  0  0  0  0  0  0  0  0  0
  139.6086   72.0106  229.7561 H   0  0  0  0  0  0  0  0  0  0  0  0
  139.1546   72.6609  228.2960 H   0  0  0  0  0  0  0  0  0  0  0  0
  139.7615   69.6787  228.9818 H   0  0  0  0  0  0  0  0  0  0  0  0
  138.9076   70.0675  227.6077 H   0  0  0  0  0  0  0  0  0  0  0  0
  139.7079   70.9923  224.1801 H   0  0  0  0  0  0  0  0  0  0  0  0
  140.3518   69.6324  223.2459 H   0  0  0  0  0  0  0  0  0  0  0  0
  139.9556   67.6133  222.3526 H   0  0  0  0  0  0  0  0  0  0  0  0
  138.7958   66.4891  220.4625 H   0  0  0  0  0  0  0  0  0  0  0  0
  136.3002   66.6778  220.3230 H   0  0  0  0  0  0  0  0  0  0  0  0
  135.0695   67.9569  222.0199 H   0  0  0  0  0  0  0  0  0  0  0  0
  1  2  2  0
  2  3  1  0
  3  4  2  0
  4  5  1  0
  5  6  2  0
  6  7  1  0
  6  8  1  0
  8  9  2  0
  9 10  1  0
 10 11  2  0
 11 12  1  0
  2 13  1  0
 13 14  1  0
 15 14  1  1
 15 16  1  0
 16 17  1  0
 17 18  1  0
 18 19  1  0
 19 20  1  0
 20 21  1  0
 21 22  1  0
 22 23  1  0
 18 24  1  0
 15 25  1  0
 25 26  2  0
 26 27  1  0
 27 28  2  0
 28 29  1  0
 29 30  2  0
 12  3  1  0
 30 13  1  0
 11  5  1  0
 24 15  1  0
 30 25  1  0
 23 20  1  0
  4 31  1  0
  8 32  1  0
  9 33  1  0
 10 34  1  0
 12 35  1  0
 14 36  1  0
 14 37  1  0
 16 38  1  0
 16 39  1  0
 17 40  1  0
 17 41  1  0
 19 42  1  0
 19 43  1  0
 20 44  1  0
 21 45  1  0
 21 46  1  0
 22 47  1  0
 22 48  1  0
 23 49  1  0
 23 50  1  0
 24 51  1  0
 24 52  1  0
 26 53  1  0
 27 54  1  0
 28 55  1  0
 29 56  1  0
M  END
>  <smiles>  (33) 
O=C(c1cc2c(F)cccc2[nH]1)N1C[C@@]2(CCN(CC3CCC3)C2)c2ccccc21

>  <score_type>  (33) 
oracle

>  <origin>  (33) 
autodockgpu

>  <m_score__min__energy>  (33) 
-8.1199999999999992

>  <m_primary>  (33) 
energy

>  <rmsd>  (33) 
8.829474964730847

>  <m_score__min__rmsd>  (33) 
8.829474964730847

>  <meeko>  (33) 
{"free_energy": -7.86, "intermolecular_energy": -9.05, "internal_energy": -1.49, "cluster_size": 2, "cluster_id": 2, "rank_in_cluster": 2}

>  <energy>  (33) 
-7.82

>  <cluster_rmsd>  (33) 
0.07

>  <cluster>  (33) 
4

$$$$

     RDKit          3D

 56 61  0  0  0  0  0  0  0  0999 V2000
  140.0080   74.5170  222.0770 O   0  0  0  0  0  0  0  0  0  0  0  0
  140.9240   75.0760  221.3660 C   0  0  0  0  0  0  0  0  0  0  0  0
  141.9620   74.1680  220.9480 C   0  0  0  0  0  0  0  0  0  0  0  0
  141.9800   72.8430  220.6160 C   0  0  0  0  0  0  0  0  0  0  0  0
  143.2590   72.4480  220.3170 C   0  0  0  0  0  0  0  0  0  0  0  0
  143.7920   71.2270  219.9330 C   0  0  0  0  0  0  0  0  0  0  0  0
  143.0230   70.1200  219.7750 F   0  0  0  0  0  0  0  0  0  0  0  0
  145.1630   71.1820  219.7100 C   0  0  0  0  0  0  0  0  0  0  0  0
  145.9740   72.3050  219.8640 C   0  0  0  0  0  0  0  0  0  0  0  0
  145.4130   73.5100  220.2480 C   0  0  0  0  0  0  0  0  0  0  0  0
  144.0450   73.5610  220.4710 C   0  0  0  0  0  0  0  0  0  0  0  0
  143.2590   74.5690  220.8440 N   0  0  0  0  0  0  0  0  0  0  0  0
  140.7630   76.4430  221.1290 N   0  0  0  0  0  0  0  0  0  0  0  0
  139.8140   77.2800  221.9070 C   0  0  0  0  0  0  0  0  0  0  0  0
  140.5070   78.6090  221.9950 C   0  0  2  0  0  0  0  0  0  0  0  0
  141.4610   78.6520  223.1390 C   0  0  0  0  0  0  0  0  0  0  0  0
  141.1090   79.9610  223.8440 C   0  0  0  0  0  0  0  0  0  0  0  0
  139.8170   80.3230  223.4580 N   0  0  0  0  0  0  0  0  0  0  0  0
  138.7030   80.2650  224.2860 C   0  0  0  0  0  0  0  0  0  0  0  0
  137.7300   81.3840  224.3170 C   0  0  0  0  0  0  0  0  0  0  0  0
  136.3010   81.1890  223.9910 C   0  0  0  0  0  0  0  0  0  0  0  0
  135.9400   81.2590  225.4600 C   0  0  0  0  0  0  0  0  0  0  0  0
  137.3340   81.8510  225.7110 C   0  0  0  0  0  0  0  0  0  0  0  0
  139.5460   79.7590  222.1580 C   0  0  0  0  0  0  0  0  0  0  0  0
  141.2370   78.6630  220.7010 C   0  0  0  0  0  0  0  0  0  0  0  0
  141.7620   79.7100  219.9600 C   0  0  0  0  0  0  0  0  0  0  0  0
  142.4100   79.5120  218.7550 C   0  0  0  0  0  0  0  0  0  0  0  0
  142.5250   78.2090  218.3010 C   0  0  0  0  0  0  0  0  0  0  0  0
  142.0000   77.1710  219.0440 C   0  0  0  0  0  0  0  0  0  0  0  0
  141.3560   77.3580  220.2400 C   0  0  0  0  0  0  0  0  0  0  0  0
  141.0967   72.1878  220.5919 H   0  0  0  0  0  0  0  0  0  0  0  0
  145.6222   70.2309  219.4025 H   0  0  0  0  0  0  0  0  0  0  0  0
  147.0563   72.2335  219.6809 H   0  0  0  0  0  0  0  0  0  0  0  0
  146.0374   74.4068  220.3735 H   0  0  0  0  0  0  0  0  0  0  0  0
  143.6230   75.5510  221.0270 H   0  0  0  0  0  0  0  0  0  0  0  0
  138.8513   77.3728  221.3830 H   0  0  0  0  0  0  0  0  0  0  0  0
  139.5780   76.8545  222.8935 H   0  0  0  0  0  0  0  0  0  0  0  0
  141.3120   77.7919  223.8084 H   0  0  0  0  0  0  0  0  0  0  0  0
  142.5135   78.6039  222.8228 H   0  0  0  0  0  0  0  0  0  0  0  0
  141.1476   79.8203  224.9343 H   0  0  0  0  0  0  0  0  0  0  0  0
  141.8257   80.7488  223.5689 H   0  0  0  0  0  0  0  0  0  0  0  0
  138.1402   79.3658  223.9949 H   0  0  0  0  0  0  0  0  0  0  0  0
  139.1421   80.2905  225.2942 H   0  0  0  0  0  0  0  0  0  0  0  0
  138.3241   81.9875  223.6150 H   0  0  0  0  0  0  0  0  0  0  0  0
  135.8666   81.9979  223.3852 H   0  0  0  0  0  0  0  0  0  0  0  0
  135.9862   80.3257  223.3863 H   0  0  0  0  0  0  0  0  0  0  0  0
  135.1057   81.9364  225.6948 H   0  0  0  0  0  0  0  0  0  0  0  0
  135.5812   80.3756  226.0085 H   0  0  0  0  0  0  0  0  0  0  0  0
  137.3483   82.9424  225.8477 H   0  0  0  0  0  0  0  0  0  0  0  0
  137.9233   81.5727  226.5972 H   0  0  0  0  0  0  0  0  0  0  0  0
  138.5077   79.3996  222.1063 H   0  0  0  0  0  0  0  0  0  0  0  0
  139.6728   80.5060  221.3605 H   0  0  0  0  0  0  0  0  0  0  0  0
  141.6594   80.7355  220.3446 H   0  0  0  0  0  0  0  0  0  0  0  0
  142.8181   80.3561  218.1797 H   0  0  0  0  0  0  0  0  0  0  0  0
  143.0345   78.0012  217.3485 H   0  0  0  0  0  0  0  0  0  0  0  0
  142.1031   76.1459  218.6587 H   0  0  0  0  0  0  0  0  0  0  0  0
  1  2  2  0
  2  3  1  0
  3  4  2  0
  4  5  1  0
  5  6  2  0
  6  7  1  0
  6  8  1  0
  8  9  2  0
  9 10  1  0
 10 11  2  0
 11 12  1  0
  2 13  1  0
 13 14  1  0
 15 14  1  6
 15 16  1  0
 16 17  1  0
 17 18  1  0
 18 19  1  0
 19 20  1  0
 20 21  1  0
 21 22  1  0
 22 23  1  0
 18 24  1  0
 15 25  1  0
 25 26  2  0
 26 27  1  0
 27 28  2  0
 28 29  1  0
 29 30  2  0
 12  3  1  0
 30 13  1  0
 11  5  1  0
 24 15  1  0
 30 25  1  0
 23 20  1  0
  4 31  1  0
  8 32  1  0
  9 33  1  0
 10 34  1  0
 12 35  1  0
 14 36  1  0
 14 37  1  0
 16 38  1  0
 16 39  1  0
 17 40  1  0
 17 41  1  0
 19 42  1  0
 19 43  1  0
 20 44  1  0
 21 45  1  0
 21 46  1  0
 22 47  1  0
 22 48  1  0
 23 49  1  0
 23 50  1  0
 24 51  1  0
 24 52  1  0
 26 53  1  0
 27 54  1  0
 28 55  1  0
 29 56  1  0
M  END
>  <smiles>  (34) 
O=C(c1cc2c(F)cccc2[nH]1)N1C[C@@]2(CCN(CC3CCC3)C2)c2ccccc21

>  <score_type>  (34) 
oracle

>  <origin>  (34) 
autodockgpu

>  <m_score__min__energy>  (34) 
-8.1199999999999992

>  <m_primary>  (34) 
energy

>  <rmsd>  (34) 
5.433970697759128

>  <m_score__min__rmsd>  (34) 
5.433970697759128

>  <meeko>  (34) 
{"free_energy": -8.12, "intermolecular_energy": -9.31, "internal_energy": -1.14, "cluster_size": 14, "cluster_id": 1, "rank_in_cluster": 3}

>  <energy>  (34) 
-7.81

>  <cluster_rmsd>  (34) 
0.05

>  <cluster>  (34) 
4

$$$$

     RDKit          3D

 56 61  0  0  0  0  0  0  0  0999 V2000
  139.2030   70.4680  221.9900 O   0  0  0  0  0  0  0  0  0  0  0  0
  139.6480   71.3790  222.7830 C   0  0  0  0  0  0  0  0  0  0  0  0
  139.9320   70.8960  224.1110 C   0  0  0  0  0  0  0  0  0  0  0  0
  140.3450   71.4970  225.2660 C   0  0  0  0  0  0  0  0  0  0  0  0
  140.5000   70.5610  226.2560 C   0  0  0  0  0  0  0  0  0  0  0  0
  140.8960   70.6630  227.5810 C   0  0  0  0  0  0  0  0  0  0  0  0
  141.2170   71.8520  228.1510 F   0  0  0  0  0  0  0  0  0  0  0  0
  140.9480   69.4830  228.3130 C   0  0  0  0  0  0  0  0  0  0  0  0
  140.6210   68.2500  227.7530 C   0  0  0  0  0  0  0  0  0  0  0  0
  140.2300   68.1810  226.4280 C   0  0  0  0  0  0  0  0  0  0  0  0
  140.1750   69.3550  225.6920 C   0  0  0  0  0  0  0  0  0  0  0  0
  139.8400   69.5730  224.4220 N   0  0  0  0  0  0  0  0  0  0  0  0
  139.7750   72.6570  222.2340 N   0  0  0  0  0  0  0  0  0  0  0  0
  141.0960   73.2820  221.9700 C   0  0  0  0  0  0  0  0  0  0  0  0
  140.8630   74.0880  220.7250 C   0  0  2  0  0  0  0  0  0  0  0  0
  141.0260   73.2590  219.4980 C   0  0  0  0  0  0  0  0  0  0  0  0
  141.9490   74.1030  218.6200 C   0  0  0  0  0  0  0  0  0  0  0  0
  142.6120   75.0120  219.4450 N   0  0  0  0  0  0  0  0  0  0  0  0
  143.9620   74.9410  219.7690 C   0  0  0  0  0  0  0  0  0  0  0  0
  144.4550   73.9120  220.7170 C   0  0  0  0  0  0  0  0  0  0  0  0
  144.4250   72.4710  220.3920 C   0  0  0  0  0  0  0  0  0  0  0  0
  145.9170   72.4820  220.1310 C   0  0  0  0  0  0  0  0  0  0  0  0
  145.9700   73.8370  220.8510 C   0  0  0  0  0  0  0  0  0  0  0  0
  141.7970   75.2660  220.6080 C   0  0  0  0  0  0  0  0  0  0  0  0
  139.4460   74.5070  220.8890 C   0  0  0  0  0  0  0  0  0  0  0  0
  138.6990   75.5360  220.3400 C   0  0  0  0  0  0  0  0  0  0  0  0
  137.3670   75.7340  220.6550 C   0  0  0  0  0  0  0  0  0  0  0  0
  136.7870   74.8540  221.5530 C   0  0  0  0  0  0  0  0  0  0  0  0
  137.5380   73.8310  222.0960 C   0  0  0  0  0  0  0  0  0  0  0  0
  138.8580   73.6270  221.7900 C   0  0  0  0  0  0  0  0  0  0  0  0
  140.5269   72.5754  225.3847 H   0  0  0  0  0  0  0  0  0  0  0  0
  141.2571   69.5238  229.3679 H   0  0  0  0  0  0  0  0  0  0  0  0
  140.6735   67.3354  228.3618 H   0  0  0  0  0  0  0  0  0  0  0  0
  139.9685   67.2164  225.9684 H   0  0  0  0  0  0  0  0  0  0  0  0
  139.5420   68.7980  223.7590 H   0  0  0  0  0  0  0  0  0  0  0  0
  141.3982   73.9296  222.8062 H   0  0  0  0  0  0  0  0  0  0  0  0
  141.9031   72.5433  221.8561 H   0  0  0  0  0  0  0  0  0  0  0  0
  141.4878   72.2895  219.7365 H   0  0  0  0  0  0  0  0  0  0  0  0
  140.0691   73.0210  219.0105 H   0  0  0  0  0  0  0  0  0  0  0  0
  142.6800   73.4547  218.1147 H   0  0  0  0  0  0  0  0  0  0  0  0
  141.3673   74.6351  217.8529 H   0  0  0  0  0  0  0  0  0  0  0  0
  144.5051   74.7860  218.8250 H   0  0  0  0  0  0  0  0  0  0  0  0
  144.1362   75.8817  220.3119 H   0  0  0  0  0  0  0  0  0  0  0  0
  143.7864   74.2565  221.5197 H   0  0  0  0  0  0  0  0  0  0  0  0
  144.1235   71.8296  221.2332 H   0  0  0  0  0  0  0  0  0  0  0  0
  143.7338   72.0934  219.6241 H   0  0  0  0  0  0  0  0  0  0  0  0
  146.4752   71.6761  220.6299 H   0  0  0  0  0  0  0  0  0  0  0  0
  146.3267   72.3501  219.1187 H   0  0  0  0  0  0  0  0  0  0  0  0
  146.3345   73.7888  221.8877 H   0  0  0  0  0  0  0  0  0  0  0  0
  146.6178   74.6509  220.4932 H   0  0  0  0  0  0  0  0  0  0  0  0
  142.4268   75.3454  221.5064 H   0  0  0  0  0  0  0  0  0  0  0  0
  141.2434   76.2119  220.5138 H   0  0  0  0  0  0  0  0  0  0  0  0
  139.1827   76.2205  219.6276 H   0  0  0  0  0  0  0  0  0  0  0  0
  136.7908   76.5584  220.2095 H   0  0  0  0  0  0  0  0  0  0  0  0
  135.7296   74.9699  221.8332 H   0  0  0  0  0  0  0  0  0  0  0  0
  137.0537   73.1469  222.8084 H   0  0  0  0  0  0  0  0  0  0  0  0
  1  2  2  0
  2  3  1  0
  3  4  2  0
  4  5  1  0
  5  6  2  0
  6  7  1  0
  6  8  1  0
  8  9  2  0
  9 10  1  0
 10 11  2  0
 11 12  1  0
  2 13  1  0
 13 14  1  0
 15 14  1  1
 15 16  1  0
 16 17  1  0
 17 18  1  0
 18 19  1  0
 19 20  1  0
 20 21  1  0
 21 22  1  0
 22 23  1  0
 18 24  1  0
 15 25  1  0
 25 26  2  0
 26 27  1  0
 27 28  2  0
 28 29  1  0
 29 30  2  0
 12  3  1  0
 30 13  1  0
 11  5  1  0
 24 15  1  0
 30 25  1  0
 23 20  1  0
  4 31  1  0
  8 32  1  0
  9 33  1  0
 10 34  1  0
 12 35  1  0
 14 36  1  0
 14 37  1  0
 16 38  1  0
 16 39  1  0
 17 40  1  0
 17 41  1  0
 19 42  1  0
 19 43  1  0
 20 44  1  0
 21 45  1  0
 21 46  1  0
 22 47  1  0
 22 48  1  0
 23 49  1  0
 23 50  1  0
 24 51  1  0
 24 52  1  0
 26 53  1  0
 27 54  1  0
 28 55  1  0
 29 56  1  0
M  END
>  <smiles>  (35) 
O=C(c1cc2c(F)cccc2[nH]1)N1C[C@@]2(CCN(CC3CCC3)C2)c2ccccc21

>  <score_type>  (35) 
oracle

>  <origin>  (35) 
autodockgpu

>  <m_score__min__energy>  (35) 
-8.1199999999999992

>  <m_primary>  (35) 
energy

>  <rmsd>  (35) 
4.622930418082204

>  <m_score__min__rmsd>  (35) 
4.622930418082204

>  <meeko>  (35) 
{"free_energy": -7.82, "intermolecular_energy": -9.01, "internal_energy": -1.6, "cluster_size": 22, "cluster_id": 4, "rank_in_cluster": 9}

>  <energy>  (35) 
-7.81

>  <cluster_rmsd>  (35) 
0.31

>  <cluster>  (35) 
4

$$$$

     RDKit          3D

 56 61  0  0  0  0  0  0  0  0999 V2000
  140.3680   74.4380  221.9750 O   0  0  0  0  0  0  0  0  0  0  0  0
  141.2610   75.0430  221.2730 C   0  0  0  0  0  0  0  0  0  0  0  0
  142.3490   74.1890  220.8680 C   0  0  0  0  0  0  0  0  0  0  0  0
  143.6930   74.3800  220.7130 C   0  0  0  0  0  0  0  0  0  0  0  0
  144.2860   73.2280  220.2640 C   0  0  0  0  0  0  0  0  0  0  0  0
  145.6000   72.9150  219.9560 C   0  0  0  0  0  0  0  0  0  0  0  0
  146.6060   73.8180  220.0780 F   0  0  0  0  0  0  0  0  0  0  0  0
  145.8520   71.6220  219.5140 C   0  0  0  0  0  0  0  0  0  0  0  0
  144.8370   70.6750  219.3830 C   0  0  0  0  0  0  0  0  0  0  0  0
  143.5350   71.0180  219.6980 C   0  0  0  0  0  0  0  0  0  0  0  0
  143.2780   72.3070  220.1410 C   0  0  0  0  0  0  0  0  0  0  0  0
  142.1390   72.8940  220.5030 N   0  0  0  0  0  0  0  0  0  0  0  0
  141.0320   76.3990  221.0310 N   0  0  0  0  0  0  0  0  0  0  0  0
  140.0690   77.1990  221.8310 C   0  0  0  0  0  0  0  0  0  0  0  0
  140.7030   78.5590  221.8910 C   0  0  2  0  0  0  0  0  0  0  0  0
  141.6860   78.6530  223.0060 C   0  0  0  0  0  0  0  0  0  0  0  0
  141.2950   79.9510  223.7130 C   0  0  0  0  0  0  0  0  0  0  0  0
  139.9780   80.2510  223.3620 N   0  0  0  0  0  0  0  0  0  0  0  0
  138.8920   80.1490  224.2220 C   0  0  0  0  0  0  0  0  0  0  0  0
  137.8790   81.2320  224.2850 C   0  0  0  0  0  0  0  0  0  0  0  0
  136.4970   81.0400  223.7960 C   0  0  0  0  0  0  0  0  0  0  0  0
  135.9930   80.9240  225.2180 C   0  0  0  0  0  0  0  0  0  0  0  0
  137.3320   81.5180  225.6760 C   0  0  0  0  0  0  0  0  0  0  0  0
  139.6960   79.6660  222.0740 C   0  0  0  0  0  0  0  0  0  0  0  0
  141.3940   78.6350  220.5770 C   0  0  0  0  0  0  0  0  0  0  0  0
  141.8500   79.6990  219.8140 C   0  0  0  0  0  0  0  0  0  0  0  0
  142.4720   79.5200  218.5920 C   0  0  0  0  0  0  0  0  0  0  0  0
  142.6330   78.2210  218.1430 C   0  0  0  0  0  0  0  0  0  0  0  0
  142.1760   77.1660  218.9080 C   0  0  0  0  0  0  0  0  0  0  0  0
  141.5580   77.3340  220.1200 C   0  0  0  0  0  0  0  0  0  0  0  0
  144.2228   75.3218  220.9187 H   0  0  0  0  0  0  0  0  0  0  0  0
  146.8835   71.3368  219.2598 H   0  0  0  0  0  0  0  0  0  0  0  0
  145.0710   69.6596  219.0306 H   0  0  0  0  0  0  0  0  0  0  0  0
  142.7210   70.2847  219.5994 H   0  0  0  0  0  0  0  0  0  0  0  0
  141.2020   72.3930  220.5010 H   0  0  0  0  0  0  0  0  0  0  0  0
  139.0885   77.2444  221.3345 H   0  0  0  0  0  0  0  0  0  0  0  0
  139.8814   76.7708  222.8267 H   0  0  0  0  0  0  0  0  0  0  0  0
  141.5952   77.7921  223.6847 H   0  0  0  0  0  0  0  0  0  0  0  0
  142.7302   78.6496  222.6600 H   0  0  0  0  0  0  0  0  0  0  0  0
  141.3709   79.8205  224.8026 H   0  0  0  0  0  0  0  0  0  0  0  0
  141.9672   80.7683  223.4126 H   0  0  0  0  0  0  0  0  0  0  0  0
  138.3547   79.2302  223.9442 H   0  0  0  0  0  0  0  0  0  0  0  0
  139.3590   80.1876  225.2172 H   0  0  0  0  0  0  0  0  0  0  0  0
  138.5154   81.9308  223.7223 H   0  0  0  0  0  0  0  0  0  0  0  0
  136.0930   81.9040  223.2479 H   0  0  0  0  0  0  0  0  0  0  0  0
  136.2755   80.2474  223.0661 H   0  0  0  0  0  0  0  0  0  0  0  0
  135.1146   81.5461  225.4447 H   0  0  0  0  0  0  0  0  0  0  0  0
  135.6166   79.9720  225.6206 H   0  0  0  0  0  0  0  0  0  0  0  0
  137.2913   82.5852  225.9397 H   0  0  0  0  0  0  0  0  0  0  0  0
  137.8424   81.1513  226.5788 H   0  0  0  0  0  0  0  0  0  0  0  0
  138.6739   79.2600  222.0541 H   0  0  0  0  0  0  0  0  0  0  0  0
  139.7663   80.4119  221.2686 H   0  0  0  0  0  0  0  0  0  0  0  0
  141.7121   80.7219  220.1942 H   0  0  0  0  0  0  0  0  0  0  0  0
  142.8251   80.3770  217.9997 H   0  0  0  0  0  0  0  0  0  0  0  0
  143.1244   78.0290  217.1778 H   0  0  0  0  0  0  0  0  0  0  0  0
  142.3143   76.1434  218.5271 H   0  0  0  0  0  0  0  0  0  0  0  0
  1  2  2  0
  2  3  1  0
  3  4  2  0
  4  5  1  0
  5  6  2  0
  6  7  1  0
  6  8  1  0
  8  9  2  0
  9 10  1  0
 10 11  2  0
 11 12  1  0
  2 13  1  0
 13 14  1  0
 15 14  1  6
 15 16  1  0
 16 17  1  0
 17 18  1  0
 18 19  1  0
 19 20  1  0
 20 21  1  0
 21 22  1  0
 22 23  1  0
 18 24  1  0
 15 25  1  0
 25 26  2  0
 26 27  1  0
 27 28  2  0
 28 29  1  0
 29 30  2  0
 12  3  1  0
 30 13  1  0
 11  5  1  0
 24 15  1  0
 30 25  1  0
 23 20  1  0
  4 31  1  0
  8 32  1  0
  9 33  1  0
 10 34  1  0
 12 35  1  0
 14 36  1  0
 14 37  1  0
 16 38  1  0
 16 39  1  0
 17 40  1  0
 17 41  1  0
 19 42  1  0
 19 43  1  0
 20 44  1  0
 21 45  1  0
 21 46  1  0
 22 47  1  0
 22 48  1  0
 23 49  1  0
 23 50  1  0
 24 51  1  0
 24 52  1  0
 26 53  1  0
 27 54  1  0
 28 55  1  0
 29 56  1  0
M  END
>  <smiles>  (36) 
O=C(c1cc2c(F)cccc2[nH]1)N1C[C@@]2(CCN(CC3CCC3)C2)c2ccccc21

>  <score_type>  (36) 
oracle

>  <origin>  (36) 
autodockgpu

>  <m_score__min__energy>  (36) 
-8.1199999999999992

>  <m_primary>  (36) 
energy

>  <rmsd>  (36) 
5.399586613713607

>  <m_score__min__rmsd>  (36) 
5.399586613713607

>  <meeko>  (36) 
{"free_energy": -7.88, "intermolecular_energy": -9.07, "internal_energy": -1.27, "cluster_size": 14, "cluster_id": 1, "rank_in_cluster": 9}

>  <energy>  (36) 
-7.81

>  <cluster_rmsd>  (36) 
0.31

>  <cluster>  (36) 
4

$$$$

     RDKit          3D

 56 61  0  0  0  0  0  0  0  0999 V2000
  140.0840   74.8910  222.0450 O   0  0  0  0  0  0  0  0  0  0  0  0
  141.0150   75.4120  221.3260 C   0  0  0  0  0  0  0  0  0  0  0  0
  142.0280   74.4680  220.9250 C   0  0  0  0  0  0  0  0  0  0  0  0
  142.0230   73.1240  220.6810 C   0  0  0  0  0  0  0  0  0  0  0  0
  143.2850   72.6980  220.3550 C   0  0  0  0  0  0  0  0  0  0  0  0
  143.7920   71.4490  220.0310 C   0  0  0  0  0  0  0  0  0  0  0  0
  143.0100   70.3420  219.9780 F   0  0  0  0  0  0  0  0  0  0  0  0
  145.1520   71.3760  219.7540 C   0  0  0  0  0  0  0  0  0  0  0  0
  145.9770   72.4980  219.7990 C   0  0  0  0  0  0  0  0  0  0  0  0
  145.4410   73.7310  220.1260 C   0  0  0  0  0  0  0  0  0  0  0  0
  144.0850   73.8110  220.4020 C   0  0  0  0  0  0  0  0  0  0  0  0
  143.3230   74.8490  220.7410 N   0  0  0  0  0  0  0  0  0  0  0  0
  140.8930   76.7780  221.0640 N   0  0  0  0  0  0  0  0  0  0  0  0
  140.0080   77.6650  221.8610 C   0  0  0  0  0  0  0  0  0  0  0  0
  140.7500   78.9700  221.8910 C   0  0  2  0  0  0  0  0  0  0  0  0
  141.7530   79.0030  222.9920 C   0  0  0  0  0  0  0  0  0  0  0  0
  141.4770   80.3390  223.6810 C   0  0  0  0  0  0  0  0  0  0  0  0
  140.1840   80.7390  223.3410 N   0  0  0  0  0  0  0  0  0  0  0  0
  139.1050   80.7390  224.2170 C   0  0  0  0  0  0  0  0  0  0  0  0
  137.7430   81.0740  223.7310 C   0  0  0  0  0  0  0  0  0  0  0  0
  136.6220   80.1150  223.8230 C   0  0  0  0  0  0  0  0  0  0  0  0
  136.0430   80.8780  224.9950 C   0  0  0  0  0  0  0  0  0  0  0  0
  136.9690   82.0420  224.6140 C   0  0  0  0  0  0  0  0  0  0  0  0
  139.8380   80.1580  222.0670 C   0  0  0  0  0  0  0  0  0  0  0  0
  141.4270   78.9700  220.5670 C   0  0  0  0  0  0  0  0  0  0  0  0
  141.9560   79.9810  219.7810 C   0  0  0  0  0  0  0  0  0  0  0  0
  142.5450   79.7340  218.5540 C   0  0  0  0  0  0  0  0  0  0  0  0
  142.5950   78.4180  218.1250 C   0  0  0  0  0  0  0  0  0  0  0  0
  142.0650   77.4170  218.9140 C   0  0  0  0  0  0  0  0  0  0  0  0
  141.4790   77.6530  220.1310 C   0  0  0  0  0  0  0  0  0  0  0  0
  141.1352   72.4771  220.7378 H   0  0  0  0  0  0  0  0  0  0  0  0
  145.5907   70.4022  219.4910 H   0  0  0  0  0  0  0  0  0  0  0  0
  147.0499   72.4039  219.5755 H   0  0  0  0  0  0  0  0  0  0  0  0
  146.0768   74.6277  220.1661 H   0  0  0  0  0  0  0  0  0  0  0  0
  143.7010   75.8360  220.8430 H   0  0  0  0  0  0  0  0  0  0  0  0
  139.0281   77.7815  221.3749 H   0  0  0  0  0  0  0  0  0  0  0  0
  139.7990   77.2691  222.8658 H   0  0  0  0  0  0  0  0  0  0  0  0
  141.6031   78.1633  223.6866 H   0  0  0  0  0  0  0  0  0  0  0  0
  142.7886   78.9103  222.6330 H   0  0  0  0  0  0  0  0  0  0  0  0
  141.5567   80.2203  224.7717 H   0  0  0  0  0  0  0  0  0  0  0  0
  142.2086   81.0944  223.3583 H   0  0  0  0  0  0  0  0  0  0  0  0
  139.0471   79.7279  224.6464 H   0  0  0  0  0  0  0  0  0  0  0  0
  139.3376   81.5712  224.8977 H   0  0  0  0  0  0  0  0  0  0  0  0
  138.1063   81.3218  222.7227 H   0  0  0  0  0  0  0  0  0  0  0  0
  135.9728   80.1004  222.9351 H   0  0  0  0  0  0  0  0  0  0  0  0
  136.8246   79.0376  223.9129 H   0  0  0  0  0  0  0  0  0  0  0  0
  134.9690   81.1006  224.9111 H   0  0  0  0  0  0  0  0  0  0  0  0
  136.0344   80.4560  226.0108 H   0  0  0  0  0  0  0  0  0  0  0  0
  136.4737   82.8595  224.0696 H   0  0  0  0  0  0  0  0  0  0  0  0
  137.4746   82.6463  225.3816 H   0  0  0  0  0  0  0  0  0  0  0  0
  138.7862   79.8359  222.0668 H   0  0  0  0  0  0  0  0  0  0  0  0
  139.9572   80.8825  221.2479 H   0  0  0  0  0  0  0  0  0  0  0  0
  141.9058   81.0175  220.1459 H   0  0  0  0  0  0  0  0  0  0  0  0
  142.9574   80.5505  217.9431 H   0  0  0  0  0  0  0  0  0  0  0  0
  143.0562   78.1710  217.1574 H   0  0  0  0  0  0  0  0  0  0  0  0
  142.1151   76.3805  218.5490 H   0  0  0  0  0  0  0  0  0  0  0  0
  1  2  2  0
  2  3  1  0
  3  4  2  0
  4  5  1  0
  5  6  2  0
  6  7  1  0
  6  8  1  0
  8  9  2  0
  9 10  1  0
 10 11  2  0
 11 12  1  0
  2 13  1  0
 13 14  1  0
 15 14  1  1
 15 16  1  0
 16 17  1  0
 17 18  1  0
 18 19  1  0
 19 20  1  0
 20 21  1  0
 21 22  1  0
 22 23  1  0
 18 24  1  0
 15 25  1  0
 25 26  2  0
 26 27  1  0
 27 28  2  0
 28 29  1  0
 29 30  2  0
 12  3  1  0
 30 13  1  0
 11  5  1  0
 24 15  1  0
 30 25  1  0
 23 20  1  0
  4 31  1  0
  8 32  1  0
  9 33  1  0
 10 34  1  0
 12 35  1  0
 14 36  1  0
 14 37  1  0
 16 38  1  0
 16 39  1  0
 17 40  1  0
 17 41  1  0
 19 42  1  0
 19 43  1  0
 20 44  1  0
 21 45  1  0
 21 46  1  0
 22 47  1  0
 22 48  1  0
 23 49  1  0
 23 50  1  0
 24 51  1  0
 24 52  1  0
 26 53  1  0
 27 54  1  0
 28 55  1  0
 29 56  1  0
M  END
>  <smiles>  (37) 
O=C(c1cc2c(F)cccc2[nH]1)N1C[C@@]2(CCN(CC3CCC3)C2)c2ccccc21

>  <score_type>  (37) 
oracle

>  <origin>  (37) 
autodockgpu

>  <m_score__min__energy>  (37) 
-8.1199999999999992

>  <m_primary>  (37) 
energy

>  <rmsd>  (37) 
5.523391752493614

>  <m_score__min__rmsd>  (37) 
5.523391752493614

>  <meeko>  (37) 
{"free_energy": -7.9, "intermolecular_energy": -9.09, "internal_energy": -1.24, "cluster_size": 14, "cluster_id": 1, "rank_in_cluster": 8}

>  <energy>  (37) 
-7.79

>  <cluster_rmsd>  (37) 
0.12

>  <cluster>  (37) 
4

$$$$

     RDKit          3D

 56 61  0  0  0  0  0  0  0  0999 V2000
  140.0340   74.4970  222.0350 O   0  0  0  0  0  0  0  0  0  0  0  0
  140.9500   75.0790  221.3450 C   0  0  0  0  0  0  0  0  0  0  0  0
  142.0080   74.1920  220.9300 C   0  0  0  0  0  0  0  0  0  0  0  0
  142.0560   72.8660  220.6030 C   0  0  0  0  0  0  0  0  0  0  0  0
  143.3430   72.4990  220.3060 C   0  0  0  0  0  0  0  0  0  0  0  0
  143.9030   71.2880  219.9280 C   0  0  0  0  0  0  0  0  0  0  0  0
  143.1590   70.1640  219.7740 F   0  0  0  0  0  0  0  0  0  0  0  0
  145.2740   71.2730  219.7050 C   0  0  0  0  0  0  0  0  0  0  0  0
  146.0610   72.4130  219.8540 C   0  0  0  0  0  0  0  0  0  0  0  0
  145.4730   73.6070  220.2330 C   0  0  0  0  0  0  0  0  0  0  0  0
  144.1040   73.6290  220.4560 C   0  0  0  0  0  0  0  0  0  0  0  0
  143.2960   74.6210  220.8240 N   0  0  0  0  0  0  0  0  0  0  0  0
  140.7710   76.4460  221.1210 N   0  0  0  0  0  0  0  0  0  0  0  0
  139.8500   77.2720  221.9420 C   0  0  0  0  0  0  0  0  0  0  0  0
  140.5370   78.6060  222.0100 C   0  0  2  0  0  0  0  0  0  0  0  0
  141.5370   78.6490  223.1130 C   0  0  0  0  0  0  0  0  0  0  0  0
  141.2060   79.9520  223.8390 C   0  0  0  0  0  0  0  0  0  0  0  0
  139.8970   80.3070  223.5080 N   0  0  0  0  0  0  0  0  0  0  0  0
  138.8180   80.2380  224.3810 C   0  0  0  0  0  0  0  0  0  0  0  0
  137.7530   81.2700  224.3430 C   0  0  0  0  0  0  0  0  0  0  0  0
  136.3860   80.9670  223.8690 C   0  0  0  0  0  0  0  0  0  0  0  0
  135.8770   80.9550  225.2950 C   0  0  0  0  0  0  0  0  0  0  0  0
  137.1830   81.6520  225.7020 C   0  0  0  0  0  0  0  0  0  0  0  0
  139.5770   79.7490  222.2180 C   0  0  0  0  0  0  0  0  0  0  0  0
  141.2150   78.6710  220.6870 C   0  0  0  0  0  0  0  0  0  0  0  0
  141.7020   79.7250  219.9310 C   0  0  0  0  0  0  0  0  0  0  0  0
  142.3020   79.5370  218.6990 C   0  0  0  0  0  0  0  0  0  0  0  0
  142.4060   78.2380  218.2330 C   0  0  0  0  0  0  0  0  0  0  0  0
  141.9180   77.1930  218.9920 C   0  0  0  0  0  0  0  0  0  0  0  0
  141.3220   77.3700  220.2140 C   0  0  0  0  0  0  0  0  0  0  0  0
  141.1878   72.1910  220.5813 H   0  0  0  0  0  0  0  0  0  0  0  0
  145.7537   70.3309  219.4010 H   0  0  0  0  0  0  0  0  0  0  0  0
  147.1446   72.3642  219.6712 H   0  0  0  0  0  0  0  0  0  0  0  0
  146.0774   74.5180  220.3547 H   0  0  0  0  0  0  0  0  0  0  0  0
  143.6380   75.6110  221.0030 H   0  0  0  0  0  0  0  0  0  0  0  0
  138.8660   77.3613  221.4585 H   0  0  0  0  0  0  0  0  0  0  0  0
  139.6581   76.8392  222.9349 H   0  0  0  0  0  0  0  0  0  0  0  0
  141.4214   77.7845  223.7832 H   0  0  0  0  0  0  0  0  0  0  0  0
  142.5758   78.6093  222.7533 H   0  0  0  0  0  0  0  0  0  0  0  0
  141.2901   79.8060  224.9260 H   0  0  0  0  0  0  0  0  0  0  0  0
  141.9058   80.7460  223.5394 H   0  0  0  0  0  0  0  0  0  0  0  0
  138.3266   79.2708  224.1992 H   0  0  0  0  0  0  0  0  0  0  0  0
  139.2840   80.3988  225.3643 H   0  0  0  0  0  0  0  0  0  0  0  0
  138.3579   81.9462  223.7210 H   0  0  0  0  0  0  0  0  0  0  0  0
  135.9446   81.7571  223.2438 H   0  0  0  0  0  0  0  0  0  0  0  0
  136.2089   80.1019  223.2131 H   0  0  0  0  0  0  0  0  0  0  0  0
  134.9682   81.5518  225.4619 H   0  0  0  0  0  0  0  0  0  0  0  0
  135.5435   80.0260  225.7805 H   0  0  0  0  0  0  0  0  0  0  0  0
  137.0891   82.7352  225.8692 H   0  0  0  0  0  0  0  0  0  0  0  0
  137.7041   81.3924  226.6353 H   0  0  0  0  0  0  0  0  0  0  0  0
  138.5395   79.3837  222.2063 H   0  0  0  0  0  0  0  0  0  0  0  0
  139.6670   80.5010  221.4202 H   0  0  0  0  0  0  0  0  0  0  0  0
  141.6081   80.7479  220.3246 H   0  0  0  0  0  0  0  0  0  0  0  0
  142.6816   80.3867  218.1126 H   0  0  0  0  0  0  0  0  0  0  0  0
  142.8769   78.0383  217.2591 H   0  0  0  0  0  0  0  0  0  0  0  0
  142.0118   76.1704  218.5978 H   0  0  0  0  0  0  0  0  0  0  0  0
  1  2  2  0
  2  3  1  0
  3  4  2  0
  4  5  1  0
  5  6  2  0
  6  7  1  0
  6  8  1  0
  8  9  2  0
  9 10  1  0
 10 11  2  0
 11 12  1  0
  2 13  1  0
 13 14  1  0
 15 14  1  6
 15 16  1  0
 16 17  1  0
 17 18  1  0
 18 19  1  0
 19 20  1  0
 20 21  1  0
 21 22  1  0
 22 23  1  0
 18 24  1  0
 15 25  1  0
 25 26  2  0
 26 27  1  0
 27 28  2  0
 28 29  1  0
 29 30  2  0
 12  3  1  0
 30 13  1  0
 11  5  1  0
 24 15  1  0
 30 25  1  0
 23 20  1  0
  4 31  1  0
  8 32  1  0
  9 33  1  0
 10 34  1  0
 12 35  1  0
 14 36  1  0
 14 37  1  0
 16 38  1  0
 16 39  1  0
 17 40  1  0
 17 41  1  0
 19 42  1  0
 19 43  1  0
 20 44  1  0
 21 45  1  0
 21 46  1  0
 22 47  1  0
 22 48  1  0
 23 49  1  0
 23 50  1  0
 24 51  1  0
 24 52  1  0
 26 53  1  0
 27 54  1  0
 28 55  1  0
 29 56  1  0
M  END
>  <smiles>  (38) 
O=C(c1cc2c(F)cccc2[nH]1)N1C[C@@]2(CCN(CC3CCC3)C2)c2ccccc21

>  <score_type>  (38) 
oracle

>  <origin>  (38) 
autodockgpu

>  <m_score__min__energy>  (38) 
-8.1199999999999992

>  <m_primary>  (38) 
energy

>  <rmsd>  (38) 
5.483413979756346

>  <m_score__min__rmsd>  (38) 
5.483413979756346

>  <meeko>  (38) 
{"free_energy": -8.04, "intermolecular_energy": -9.23, "internal_energy": -1.16, "cluster_size": 14, "cluster_id": 1, "rank_in_cluster": 6}

>  <energy>  (38) 
-7.79

>  <cluster_rmsd>  (38) 
0.31

>  <cluster>  (38) 
4

$$$$

     RDKit          3D

 56 61  0  0  0  0  0  0  0  0999 V2000
  139.5920   71.3240  221.4730 O   0  0  0  0  0  0  0  0  0  0  0  0
  140.5980   71.6350  222.2120 C   0  0  0  0  0  0  0  0  0  0  0  0
  140.4340   71.2590  223.5940 C   0  0  0  0  0  0  0  0  0  0  0  0
  140.7090   71.8780  224.7800 C   0  0  0  0  0  0  0  0  0  0  0  0
  140.3850   71.0560  225.8290 C   0  0  0  0  0  0  0  0  0  0  0  0
  140.4760   71.2170  227.2020 C   0  0  0  0  0  0  0  0  0  0  0  0
  140.9530   72.3560  227.7670 F   0  0  0  0  0  0  0  0  0  0  0  0
  140.0520   70.1530  227.9900 C   0  0  0  0  0  0  0  0  0  0  0  0
  139.5570   68.9750  227.4350 C   0  0  0  0  0  0  0  0  0  0  0  0
  139.4780   68.8440  226.0600 C   0  0  0  0  0  0  0  0  0  0  0  0
  139.8990   69.9020  225.2690 C   0  0  0  0  0  0  0  0  0  0  0  0
  139.9350   70.0420  223.9460 N   0  0  0  0  0  0  0  0  0  0  0  0
  141.6580   72.2740  221.5640 N   0  0  0  0  0  0  0  0  0  0  0  0
  142.9210   71.5720  221.2220 C   0  0  0  0  0  0  0  0  0  0  0  0
  143.3360   72.2040  219.9250 C   0  0  2  0  0  0  0  0  0  0  0  0
  142.6740   71.5500  218.7620 C   0  0  0  0  0  0  0  0  0  0  0  0
  143.8310   71.2830  217.8000 C   0  0  0  0  0  0  0  0  0  0  0  0
  145.0160   71.3070  218.5370 N   0  0  0  0  0  0  0  0  0  0  0  0
  145.7810   70.1860  218.8330 C   0  0  0  0  0  0  0  0  0  0  0  0
  145.1290   68.8840  219.1170 C   0  0  0  0  0  0  0  0  0  0  0  0
  144.8980   67.8780  218.0590 C   0  0  0  0  0  0  0  0  0  0  0  0
  146.0540   67.0470  218.5750 C   0  0  0  0  0  0  0  0  0  0  0  0
  146.0000   67.8810  219.8620 C   0  0  0  0  0  0  0  0  0  0  0  0
  144.8250   72.1450  219.6950 C   0  0  0  0  0  0  0  0  0  0  0  0
  142.8460   73.5980  220.0910 C   0  0  0  0  0  0  0  0  0  0  0  0
  143.1890   74.7950  219.4820 C   0  0  0  0  0  0  0  0  0  0  0  0
  142.5840   75.9940  219.8120 C   0  0  0  0  0  0  0  0  0  0  0  0
  141.6030   75.9640  220.7890 C   0  0  0  0  0  0  0  0  0  0  0  0
  141.2670   74.7680  221.3910 C   0  0  0  0  0  0  0  0  0  0  0  0
  141.8610   73.5750  221.0700 C   0  0  0  0  0  0  0  0  0  0  0  0
  141.1295   72.8896  224.8795 H   0  0  0  0  0  0  0  0  0  0  0  0
  140.1091   70.2440  229.0847 H   0  0  0  0  0  0  0  0  0  0  0  0
  139.2302   68.1520  228.0876 H   0  0  0  0  0  0  0  0  0  0  0  0
  139.0898   67.9211  225.6045 H   0  0  0  0  0  0  0  0  0  0  0  0
  139.6080   69.2860  223.2740 H   0  0  0  0  0  0  0  0  0  0  0  0
  143.6828   71.7333  221.9990 H   0  0  0  0  0  0  0  0  0  0  0  0
  142.7969   70.4817  221.1458 H   0  0  0  0  0  0  0  0  0  0  0  0
  142.1876   70.6104  219.0631 H   0  0  0  0  0  0  0  0  0  0  0  0
  141.8794   72.1671  218.3173 H   0  0  0  0  0  0  0  0  0  0  0  0
  143.7045   70.2976  217.3277 H   0  0  0  0  0  0  0  0  0  0  0  0
  143.8560   72.0473  217.0093 H   0  0  0  0  0  0  0  0  0  0  0  0
  146.4482   70.0237  217.9736 H   0  0  0  0  0  0  0  0  0  0  0  0
  146.2416   70.4479  219.7970 H   0  0  0  0  0  0  0  0  0  0  0  0
  144.2398   69.3640  219.5518 H   0  0  0  0  0  0  0  0  0  0  0  0
  143.9217   67.3755  218.1258 H   0  0  0  0  0  0  0  0  0  0  0  0
  144.8676   68.1851  217.0032 H   0  0  0  0  0  0  0  0  0  0  0  0
  145.8256   65.9796  218.7112 H   0  0  0  0  0  0  0  0  0  0  0  0
  146.9848   66.9342  217.9998 H   0  0  0  0  0  0  0  0  0  0  0  0
  145.5020   67.3837  220.7074 H   0  0  0  0  0  0  0  0  0  0  0  0
  146.9181   68.1937  220.3810 H   0  0  0  0  0  0  0  0  0  0  0  0
  145.3298   71.7089  220.5697 H   0  0  0  0  0  0  0  0  0  0  0  0
  145.2486   73.1483  219.5403 H   0  0  0  0  0  0  0  0  0  0  0  0
  143.9708   74.7911  218.7082 H   0  0  0  0  0  0  0  0  0  0  0  0
  142.8706   76.9342  219.3181 H   0  0  0  0  0  0  0  0  0  0  0  0
  141.0921   76.8921  221.0850 H   0  0  0  0  0  0  0  0  0  0  0  0
  140.4855   74.7725  222.1651 H   0  0  0  0  0  0  0  0  0  0  0  0
  1  2  2  0
  2  3  1  0
  3  4  2  0
  4  5  1  0
  5  6  2  0
  6  7  1  0
  6  8  1  0
  8  9  2  0
  9 10  1  0
 10 11  2  0
 11 12  1  0
  2 13  1  0
 13 14  1  0
 15 14  1  1
 15 16  1  0
 16 17  1  0
 17 18  1  0
 18 19  1  0
 19 20  1  0
 20 21  1  0
 21 22  1  0
 22 23  1  0
 18 24  1  0
 15 25  1  0
 25 26  2  0
 26 27  1  0
 27 28  2  0
 28 29  1  0
 29 30  2  0
 12  3  1  0
 30 13  1  0
 11  5  1  0
 24 15  1  0
 30 25  1  0
 23 20  1  0
  4 31  1  0
  8 32  1  0
  9 33  1  0
 10 34  1  0
 12 35  1  0
 14 36  1  0
 14 37  1  0
 16 38  1  0
 16 39  1  0
 17 40  1  0
 17 41  1  0
 19 42  1  0
 19 43  1  0
 20 44  1  0
 21 45  1  0
 21 46  1  0
 22 47  1  0
 22 48  1  0
 23 49  1  0
 23 50  1  0
 24 51  1  0
 24 52  1  0
 26 53  1  0
 27 54  1  0
 28 55  1  0
 29 56  1  0
M  END
>  <smiles>  (39) 
O=C(c1cc2c(F)cccc2[nH]1)N1C[C@@]2(CCN(CC3CCC3)C2)c2ccccc21

>  <score_type>  (39) 
oracle

>  <origin>  (39) 
autodockgpu

>  <m_score__min__energy>  (39) 
-8.1199999999999992

>  <m_primary>  (39) 
energy

>  <rmsd>  (39) 
4.167348238663955

>  <m_score__min__rmsd>  (39) 
4.167348238663955

>  <meeko>  (39) 
{"free_energy": -7.83, "intermolecular_energy": -9.03, "internal_energy": -1.29, "cluster_size": 7, "cluster_id": 3, "rank_in_cluster": 4}

>  <energy>  (39) 
-7.79

>  <cluster_rmsd>  (39) 
0.31

>  <cluster>  (39) 
4

$$$$

     RDKit          3D

 56 61  0  0  0  0  0  0  0  0999 V2000
  139.2390   70.3970  221.9640 O   0  0  0  0  0  0  0  0  0  0  0  0
  139.6660   71.3280  222.7440 C   0  0  0  0  0  0  0  0  0  0  0  0
  139.9550   70.8700  224.0800 C   0  0  0  0  0  0  0  0  0  0  0  0
  140.3780   71.4920  225.2200 C   0  0  0  0  0  0  0  0  0  0  0  0
  140.5330   70.5750  226.2290 C   0  0  0  0  0  0  0  0  0  0  0  0
  140.9380   70.7010  227.5480 C   0  0  0  0  0  0  0  0  0  0  0  0
  141.2710   71.8990  228.0920 F   0  0  0  0  0  0  0  0  0  0  0  0
  140.9860   69.5360  228.3040 C   0  0  0  0  0  0  0  0  0  0  0  0
  140.6470   68.2940  227.7710 C   0  0  0  0  0  0  0  0  0  0  0  0
  140.2470   68.2010  226.4510 C   0  0  0  0  0  0  0  0  0  0  0  0
  140.1960   69.3600  225.6910 C   0  0  0  0  0  0  0  0  0  0  0  0
  139.8550   69.5550  224.4180 N   0  0  0  0  0  0  0  0  0  0  0  0
  139.7710   72.5990  222.1760 N   0  0  0  0  0  0  0  0  0  0  0  0
  141.0790   73.2740  221.9720 C   0  0  0  0  0  0  0  0  0  0  0  0
  140.8830   74.0460  220.6990 C   0  0  2  0  0  0  0  0  0  0  0  0
  141.1470   73.2010  219.5020 C   0  0  0  0  0  0  0  0  0  0  0  0
  142.0820   74.0670  218.6580 C   0  0  0  0  0  0  0  0  0  0  0  0
  142.6620   75.0180  219.4990 N   0  0  0  0  0  0  0  0  0  0  0  0
  143.9930   75.0090  219.8970 C   0  0  0  0  0  0  0  0  0  0  0  0
  144.7980   73.7660  219.8030 C   0  0  0  0  0  0  0  0  0  0  0  0
  146.2280   73.7300  220.1740 C   0  0  0  0  0  0  0  0  0  0  0  0
  145.8900   73.0290  221.4730 C   0  0  0  0  0  0  0  0  0  0  0  0
  144.5060   72.7300  220.8790 C   0  0  0  0  0  0  0  0  0  0  0  0
  141.7740   75.2590  220.6090 C   0  0  0  0  0  0  0  0  0  0  0  0
  139.4430   74.4080  220.7770 C   0  0  0  0  0  0  0  0  0  0  0  0
  138.6870   75.3950  220.1660 C   0  0  0  0  0  0  0  0  0  0  0  0
  137.3320   75.5440  220.4030 C   0  0  0  0  0  0  0  0  0  0  0  0
  136.7390   74.6580  221.2860 C   0  0  0  0  0  0  0  0  0  0  0  0
  137.4990   73.6770  221.8920 C   0  0  0  0  0  0  0  0  0  0  0  0
  138.8420   73.5230  221.6630 C   0  0  0  0  0  0  0  0  0  0  0  0
  140.5670   72.5714  225.3155 H   0  0  0  0  0  0  0  0  0  0  0  0
  141.3014   69.5962  229.3561 H   0  0  0  0  0  0  0  0  0  0  0  0
  140.6975   67.3915  228.3978 H   0  0  0  0  0  0  0  0  0  0  0  0
  139.9752   67.2292  226.0131 H   0  0  0  0  0  0  0  0  0  0  0  0
  139.5470   68.7680  223.7740 H   0  0  0  0  0  0  0  0  0  0  0  0
  141.3073   73.9493  222.8097 H   0  0  0  0  0  0  0  0  0  0  0  0
  141.9207   72.5679  221.9184 H   0  0  0  0  0  0  0  0  0  0  0  0
  141.6343   72.2567  219.7862 H   0  0  0  0  0  0  0  0  0  0  0  0
  140.2294   72.9127  218.9683 H   0  0  0  0  0  0  0  0  0  0  0  0
  142.8652   73.4406  218.2060 H   0  0  0  0  0  0  0  0  0  0  0  0
  141.5218   74.5607  217.8503 H   0  0  0  0  0  0  0  0  0  0  0  0
  144.5093   75.7658  219.2882 H   0  0  0  0  0  0  0  0  0  0  0  0
  143.9284   75.1809  220.9816 H   0  0  0  0  0  0  0  0  0  0  0  0
  144.5550   73.6279  218.7391 H   0  0  0  0  0  0  0  0  0  0  0  0
  146.8513   73.1321  219.4928 H   0  0  0  0  0  0  0  0  0  0  0  0
  146.8180   74.6583  220.1858 H   0  0  0  0  0  0  0  0  0  0  0  0
  146.4997   72.1383  221.6850 H   0  0  0  0  0  0  0  0  0  0  0  0
  146.0046   73.5297  222.4457 H   0  0  0  0  0  0  0  0  0  0  0  0
  144.3831   71.7037  220.5028 H   0  0  0  0  0  0  0  0  0  0  0  0
  143.5952   72.7834  221.4935 H   0  0  0  0  0  0  0  0  0  0  0  0
  142.3488   75.3809  221.5389 H   0  0  0  0  0  0  0  0  0  0  0  0
  141.1888   76.1791  220.4645 H   0  0  0  0  0  0  0  0  0  0  0  0
  139.1819   76.0853  219.4671 H   0  0  0  0  0  0  0  0  0  0  0  0
  136.7489   76.3353  219.9092 H   0  0  0  0  0  0  0  0  0  0  0  0
  135.6637   74.7353  221.5047 H   0  0  0  0  0  0  0  0  0  0  0  0
  137.0038   72.9870  222.5910 H   0  0  0  0  0  0  0  0  0  0  0  0
  1  2  2  0
  2  3  1  0
  3  4  2  0
  4  5  1  0
  5  6  2  0
  6  7  1  0
  6  8  1  0
  8  9  2  0
  9 10  1  0
 10 11  2  0
 11 12  1  0
  2 13  1  0
 13 14  1  0
 15 14  1  1
 15 16  1  0
 16 17  1  0
 17 18  1  0
 18 19  1  0
 19 20  1  0
 20 21  1  0
 21 22  1  0
 22 23  1  0
 18 24  1  0
 15 25  1  0
 25 26  2  0
 26 27  1  0
 27 28  2  0
 28 29  1  0
 29 30  2  0
 12  3  1  0
 30 13  1  0
 11  5  1  0
 24 15  1  0
 30 25  1  0
 23 20  1  0
  4 31  1  0
  8 32  1  0
  9 33  1  0
 10 34  1  0
 12 35  1  0
 14 36  1  0
 14 37  1  0
 16 38  1  0
 16 39  1  0
 17 40  1  0
 17 41  1  0
 19 42  1  0
 19 43  1  0
 20 44  1  0
 21 45  1  0
 21 46  1  0
 22 47  1  0
 22 48  1  0
 23 49  1  0
 23 50  1  0
 24 51  1  0
 24 52  1  0
 26 53  1  0
 27 54  1  0
 28 55  1  0
 29 56  1  0
M  END
>  <smiles>  (40) 
O=C(c1cc2c(F)cccc2[nH]1)N1C[C@@]2(CCN(CC3CCC3)C2)c2ccccc21

>  <score_type>  (40) 
oracle

>  <origin>  (40) 
autodockgpu

>  <m_score__min__energy>  (40) 
-8.1199999999999992

>  <m_primary>  (40) 
energy

>  <rmsd>  (40) 
4.61605354008484

>  <m_score__min__rmsd>  (40) 
4.61605354008484

>  <meeko>  (40) 
{"free_energy": -7.81, "intermolecular_energy": -9.0, "internal_energy": -1.59, "cluster_size": 22, "cluster_id": 4, "rank_in_cluster": 12}

>  <energy>  (40) 
-7.78

>  <cluster_rmsd>  (40) 
0.2

>  <cluster>  (40) 
4

$$$$

     RDKit          3D

 56 61  0  0  0  0  0  0  0  0999 V2000
  139.3900   70.4060  221.9090 O   0  0  0  0  0  0  0  0  0  0  0  0
  139.7600   71.3310  222.7240 C   0  0  0  0  0  0  0  0  0  0  0  0
  139.9780   70.8600  224.0680 C   0  0  0  0  0  0  0  0  0  0  0  0
  140.3590   71.4660  225.2320 C   0  0  0  0  0  0  0  0  0  0  0  0
  140.4500   70.5400  226.2390 C   0  0  0  0  0  0  0  0  0  0  0  0
  140.7950   70.6500  227.5770 C   0  0  0  0  0  0  0  0  0  0  0  0
  141.1240   71.8380  228.1440 F   0  0  0  0  0  0  0  0  0  0  0  0
  140.7870   69.4790  228.3260 C   0  0  0  0  0  0  0  0  0  0  0  0
  140.4520   68.2470  227.7680 C   0  0  0  0  0  0  0  0  0  0  0  0
  140.1120   68.1700  226.4300 C   0  0  0  0  0  0  0  0  0  0  0  0
  140.1170   69.3350  225.6770 C   0  0  0  0  0  0  0  0  0  0  0  0
  139.8390   69.5440  224.3920 N   0  0  0  0  0  0  0  0  0  0  0  0
  139.8810   72.6120  222.1790 N   0  0  0  0  0  0  0  0  0  0  0  0
  141.1940   73.1940  221.8010 C   0  0  0  0  0  0  0  0  0  0  0  0
  140.8770   74.0250  220.5910 C   0  0  2  0  0  0  0  0  0  0  0  0
  140.8970   73.2070  219.3460 C   0  0  0  0  0  0  0  0  0  0  0  0
  141.7650   74.0310  218.3960 C   0  0  0  0  0  0  0  0  0  0  0  0
  142.5340   74.9050  219.1660 N   0  0  0  0  0  0  0  0  0  0  0  0
  143.9040   74.7830  219.3630 C   0  0  0  0  0  0  0  0  0  0  0  0
  144.4960   73.4750  219.7350 C   0  0  0  0  0  0  0  0  0  0  0  0
  145.9040   73.1400  219.4340 C   0  0  0  0  0  0  0  0  0  0  0  0
  146.2840   73.3600  220.8830 C   0  0  0  0  0  0  0  0  0  0  0  0
  144.7870   73.3020  221.2190 C   0  0  0  0  0  0  0  0  0  0  0  0
  141.8380   75.1710  220.4010 C   0  0  0  0  0  0  0  0  0  0  0  0
  139.4960   74.4900  220.8900 C   0  0  0  0  0  0  0  0  0  0  0  0
  138.7400   75.5520  220.4220 C   0  0  0  0  0  0  0  0  0  0  0  0
  137.4500   75.7920  220.8600 C   0  0  0  0  0  0  0  0  0  0  0  0
  136.9240   74.9200  221.7980 C   0  0  0  0  0  0  0  0  0  0  0  0
  137.6840   73.8650  222.2600 C   0  0  0  0  0  0  0  0  0  0  0  0
  138.9630   73.6190  221.8320 C   0  0  0  0  0  0  0  0  0  0  0  0
  140.5631   72.5410  225.3447 H   0  0  0  0  0  0  0  0  0  0  0  0
  141.0534   69.5264  229.3922 H   0  0  0  0  0  0  0  0  0  0  0  0
  140.4580   67.3394  228.3894 H   0  0  0  0  0  0  0  0  0  0  0  0
  139.8435   67.2062  225.9728 H   0  0  0  0  0  0  0  0  0  0  0  0
  139.5480   68.7680  223.7280 H   0  0  0  0  0  0  0  0  0  0  0  0
  141.5948   73.8190  222.6126 H   0  0  0  0  0  0  0  0  0  0  0  0
  141.9600   72.4292  221.6054 H   0  0  0  0  0  0  0  0  0  0  0  0
  141.3441   72.2191  219.5310 H   0  0  0  0  0  0  0  0  0  0  0  0
  139.8917   73.0080  218.9462 H   0  0  0  0  0  0  0  0  0  0  0  0
  142.4225   73.3649  217.8180 H   0  0  0  0  0  0  0  0  0  0  0  0
  141.1344   74.5942  217.6923 H   0  0  0  0  0  0  0  0  0  0  0  0
  144.3865   75.0920  218.4240 H   0  0  0  0  0  0  0  0  0  0  0  0
  144.0819   75.3990  220.2568 H   0  0  0  0  0  0  0  0  0  0  0  0
  143.7217   72.9117  219.1936 H   0  0  0  0  0  0  0  0  0  0  0  0
  146.0526   72.1074  219.0852 H   0  0  0  0  0  0  0  0  0  0  0  0
  146.4395   73.6759  218.6365 H   0  0  0  0  0  0  0  0  0  0  0  0
  146.8848   72.5524  221.3268 H   0  0  0  0  0  0  0  0  0  0  0  0
  146.9126   74.2080  221.1925 H   0  0  0  0  0  0  0  0  0  0  0  0
  144.4511   72.3432  221.6408 H   0  0  0  0  0  0  0  0  0  0  0  0
  144.3428   73.9705  221.9712 H   0  0  0  0  0  0  0  0  0  0  0  0
  142.5495   75.2162  221.2387 H   0  0  0  0  0  0  0  0  0  0  0  0
  141.3122   76.1366  220.3675 H   0  0  0  0  0  0  0  0  0  0  0  0
  139.1811   76.2287  219.6754 H   0  0  0  0  0  0  0  0  0  0  0  0
  136.8653   76.6419  220.4782 H   0  0  0  0  0  0  0  0  0  0  0  0
  135.9011   75.0681  222.1746 H   0  0  0  0  0  0  0  0  0  0  0  0
  137.2426   73.1892  223.0073 H   0  0  0  0  0  0  0  0  0  0  0  0
  1  2  2  0
  2  3  1  0
  3  4  2  0
  4  5  1  0
  5  6  2  0
  6  7  1  0
  6  8  1  0
  8  9  2  0
  9 10  1  0
 10 11  2  0
 11 12  1  0
  2 13  1  0
 13 14  1  0
 15 14  1  1
 15 16  1  0
 16 17  1  0
 17 18  1  0
 18 19  1  0
 19 20  1  0
 20 21  1  0
 21 22  1  0
 22 23  1  0
 18 24  1  0
 15 25  1  0
 25 26  2  0
 26 27  1  0
 27 28  2  0
 28 29  1  0
 29 30  2  0
 12  3  1  0
 30 13  1  0
 11  5  1  0
 24 15  1  0
 30 25  1  0
 23 20  1  0
  4 31  1  0
  8 32  1  0
  9 33  1  0
 10 34  1  0
 12 35  1  0
 14 36  1  0
 14 37  1  0
 16 38  1  0
 16 39  1  0
 17 40  1  0
 17 41  1  0
 19 42  1  0
 19 43  1  0
 20 44  1  0
 21 45  1  0
 21 46  1  0
 22 47  1  0
 22 48  1  0
 23 49  1  0
 23 50  1  0
 24 51  1  0
 24 52  1  0
 26 53  1  0
 27 54  1  0
 28 55  1  0
 29 56  1  0
M  END
>  <smiles>  (41) 
O=C(c1cc2c(F)cccc2[nH]1)N1C[C@@]2(CCN(CC3CCC3)C2)c2ccccc21

>  <score_type>  (41) 
oracle

>  <origin>  (41) 
autodockgpu

>  <m_score__min__energy>  (41) 
-8.1199999999999992

>  <m_primary>  (41) 
energy

>  <rmsd>  (41) 
4.623432200442187

>  <m_score__min__rmsd>  (41) 
4.623432200442187

>  <meeko>  (41) 
{"free_energy": -7.45, "intermolecular_energy": -8.64, "internal_energy": -1.58, "cluster_size": 22, "cluster_id": 4, "rank_in_cluster": 22}

>  <energy>  (41) 
-7.78

>  <cluster_rmsd>  (41) 
0.31

>  <cluster>  (41) 
4

$$$$

     RDKit          3D

 56 61  0  0  0  0  0  0  0  0999 V2000
  140.0200   74.5200  222.1060 O   0  0  0  0  0  0  0  0  0  0  0  0
  140.9250   75.0760  221.3810 C   0  0  0  0  0  0  0  0  0  0  0  0
  141.9590   74.1670  220.9540 C   0  0  0  0  0  0  0  0  0  0  0  0
  141.9730   72.8410  220.6260 C   0  0  0  0  0  0  0  0  0  0  0  0
  143.2490   72.4450  220.3140 C   0  0  0  0  0  0  0  0  0  0  0  0
  143.7770   71.2230  219.9280 C   0  0  0  0  0  0  0  0  0  0  0  0
  143.0070   70.1160  219.7810 F   0  0  0  0  0  0  0  0  0  0  0  0
  145.1460   71.1780  219.6890 C   0  0  0  0  0  0  0  0  0  0  0  0
  145.9590   72.3010  219.8300 C   0  0  0  0  0  0  0  0  0  0  0  0
  145.4010   73.5070  220.2170 C   0  0  0  0  0  0  0  0  0  0  0  0
  144.0360   73.5590  220.4550 C   0  0  0  0  0  0  0  0  0  0  0  0
  143.2540   74.5680  220.8340 N   0  0  0  0  0  0  0  0  0  0  0  0
  140.7600   76.4420  221.1380 N   0  0  0  0  0  0  0  0  0  0  0  0
  139.8090   77.2790  221.9140 C   0  0  0  0  0  0  0  0  0  0  0  0
  140.4970   78.6110  221.9980 C   0  0  2  0  0  0  0  0  0  0  0  0
  141.4520   78.6610  223.1400 C   0  0  0  0  0  0  0  0  0  0  0  0
  141.0960   79.9710  223.8410 C   0  0  0  0  0  0  0  0  0  0  0  0
  139.8030   80.3270  223.4540 N   0  0  0  0  0  0  0  0  0  0  0  0
  138.6900   80.2690  224.2830 C   0  0  0  0  0  0  0  0  0  0  0  0
  137.7170   81.3890  224.3170 C   0  0  0  0  0  0  0  0  0  0  0  0
  136.2890   81.1960  223.9910 C   0  0  0  0  0  0  0  0  0  0  0  0
  135.9280   81.2630  225.4600 C   0  0  0  0  0  0  0  0  0  0  0  0
  137.3230   81.8530  225.7130 C   0  0  0  0  0  0  0  0  0  0  0  0
  139.5330   79.7580  222.1570 C   0  0  0  0  0  0  0  0  0  0  0  0
  141.2270   78.6620  220.7030 C   0  0  0  0  0  0  0  0  0  0  0  0
  141.7480   79.7080  219.9580 C   0  0  0  0  0  0  0  0  0  0  0  0
  142.3970   79.5070  218.7530 C   0  0  0  0  0  0  0  0  0  0  0  0
  142.5160   78.2030  218.3030 C   0  0  0  0  0  0  0  0  0  0  0  0
  141.9940   77.1670  219.0510 C   0  0  0  0  0  0  0  0  0  0  0  0
  141.3490   77.3560  220.2460 C   0  0  0  0  0  0  0  0  0  0  0  0
  141.0895   72.1858  220.6138 H   0  0  0  0  0  0  0  0  0  0  0  0
  145.6016   70.2260  219.3789 H   0  0  0  0  0  0  0  0  0  0  0  0
  147.0391   72.2293  219.6347 H   0  0  0  0  0  0  0  0  0  0  0  0
  146.0265   74.4043  220.3332 H   0  0  0  0  0  0  0  0  0  0  0  0
  143.6200   75.5500  221.0100 H   0  0  0  0  0  0  0  0  0  0  0  0
  138.8457   77.3670  221.3902 H   0  0  0  0  0  0  0  0  0  0  0  0
  139.5756   76.8558  222.9021 H   0  0  0  0  0  0  0  0  0  0  0  0
  141.3071   77.8026  223.8124 H   0  0  0  0  0  0  0  0  0  0  0  0
  142.5042   78.6155  222.8226 H   0  0  0  0  0  0  0  0  0  0  0  0
  141.1353   79.8339  224.9317 H   0  0  0  0  0  0  0  0  0  0  0  0
  141.8100   80.7604  223.5636 H   0  0  0  0  0  0  0  0  0  0  0  0
  138.1263   79.3706  223.9914 H   0  0  0  0  0  0  0  0  0  0  0  0
  139.1305   80.2934  225.2906 H   0  0  0  0  0  0  0  0  0  0  0  0
  138.3105   81.9940  223.6157 H   0  0  0  0  0  0  0  0  0  0  0  0
  135.8552   82.0065  223.3870 H   0  0  0  0  0  0  0  0  0  0  0  0
  135.9735   80.3343  223.3845 H   0  0  0  0  0  0  0  0  0  0  0  0
  135.0944   81.9408  225.6962 H   0  0  0  0  0  0  0  0  0  0  0  0
  135.5681   80.3787  226.0063 H   0  0  0  0  0  0  0  0  0  0  0  0
  137.3387   82.9440  225.8528 H   0  0  0  0  0  0  0  0  0  0  0  0
  137.9124   81.5720  226.5982 H   0  0  0  0  0  0  0  0  0  0  0  0
  138.4957   79.3952  222.1072 H   0  0  0  0  0  0  0  0  0  0  0  0
  139.6569   80.5024  221.3567 H   0  0  0  0  0  0  0  0  0  0  0  0
  141.6417   80.7346  220.3384 H   0  0  0  0  0  0  0  0  0  0  0  0
  142.8027   80.3503  218.1749 H   0  0  0  0  0  0  0  0  0  0  0  0
  143.0256   77.9930  217.3511 H   0  0  0  0  0  0  0  0  0  0  0  0
  142.1006   76.1406  218.6701 H   0  0  0  0  0  0  0  0  0  0  0  0
  1  2  2  0
  2  3  1  0
  3  4  2  0
  4  5  1  0
  5  6  2  0
  6  7  1  0
  6  8  1  0
  8  9  2  0
  9 10  1  0
 10 11  2  0
 11 12  1  0
  2 13  1  0
 13 14  1  0
 15 14  1  6
 15 16  1  0
 16 17  1  0
 17 18  1  0
 18 19  1  0
 19 20  1  0
 20 21  1  0
 21 22  1  0
 22 23  1  0
 18 24  1  0
 15 25  1  0
 25 26  2  0
 26 27  1  0
 27 28  2  0
 28 29  1  0
 29 30  2  0
 12  3  1  0
 30 13  1  0
 11  5  1  0
 24 15  1  0
 30 25  1  0
 23 20  1  0
  4 31  1  0
  8 32  1  0
  9 33  1  0
 10 34  1  0
 12 35  1  0
 14 36  1  0
 14 37  1  0
 16 38  1  0
 16 39  1  0
 17 40  1  0
 17 41  1  0
 19 42  1  0
 19 43  1  0
 20 44  1  0
 21 45  1  0
 21 46  1  0
 22 47  1  0
 22 48  1  0
 23 49  1  0
 23 50  1  0
 24 51  1  0
 24 52  1  0
 26 53  1  0
 27 54  1  0
 28 55  1  0
 29 56  1  0
M  END
>  <smiles>  (42) 
O=C(c1cc2c(F)cccc2[nH]1)N1C[C@@]2(CCN(CC3CCC3)C2)c2ccccc21

>  <score_type>  (42) 
oracle

>  <origin>  (42) 
autodockgpu

>  <m_score__min__energy>  (42) 
-8.1199999999999992

>  <m_primary>  (42) 
energy

>  <rmsd>  (42) 
5.430945155288215

>  <m_score__min__rmsd>  (42) 
5.430945155288215

>  <meeko>  (42) 
{"free_energy": -8.12, "intermolecular_energy": -9.32, "internal_energy": -1.14, "cluster_size": 14, "cluster_id": 1, "rank_in_cluster": 1}

>  <energy>  (42) 
-7.77

>  <cluster_rmsd>  (42) 
0.32

>  <cluster>  (42) 
4

$$$$

     RDKit          3D

 56 61  0  0  0  0  0  0  0  0999 V2000
  142.1780   73.6220  221.0070 O   0  0  0  0  0  0  0  0  0  0  0  0
  141.0480   73.4610  221.6020 C   0  0  0  0  0  0  0  0  0  0  0  0
  140.3970   74.7020  221.9430 C   0  0  0  0  0  0  0  0  0  0  0  0
  139.0980   75.0540  222.1750 C   0  0  0  0  0  0  0  0  0  0  0  0
  139.0120   76.3980  222.4330 C   0  0  0  0  0  0  0  0  0  0  0  0
  137.9370   77.2250  222.7200 C   0  0  0  0  0  0  0  0  0  0  0  0
  136.6660   76.7560  222.8020 F   0  0  0  0  0  0  0  0  0  0  0  0
  138.2170   78.5700  222.9270 C   0  0  0  0  0  0  0  0  0  0  0  0
  139.5130   79.0760  222.8500 C   0  0  0  0  0  0  0  0  0  0  0  0
  140.5650   78.2260  222.5620 C   0  0  0  0  0  0  0  0  0  0  0  0
  140.2930   76.8820  222.3550 C   0  0  0  0  0  0  0  0  0  0  0  0
  141.0990   75.8630  222.0650 N   0  0  0  0  0  0  0  0  0  0  0  0
  140.6530   72.1390  221.8170 N   0  0  0  0  0  0  0  0  0  0  0  0
  140.6840   71.5080  223.1610 C   0  0  0  0  0  0  0  0  0  0  0  0
  139.4990   70.5860  223.1450 C   0  0  2  0  0  0  0  0  0  0  0  0
  138.2470   71.2990  223.5240 C   0  0  0  0  0  0  0  0  0  0  0  0
  137.6270   70.3870  224.5820 C   0  0  0  0  0  0  0  0  0  0  0  0
  138.6370   69.5670  225.0870 N   0  0  0  0  0  0  0  0  0  0  0  0
  139.1830   69.6840  226.3590 C   0  0  0  0  0  0  0  0  0  0  0  0
  140.5640   70.1960  226.5410 C   0  0  0  0  0  0  0  0  0  0  0  0
  140.8820   71.6360  226.4480 C   0  0  0  0  0  0  0  0  0  0  0  0
  140.9950   71.7260  227.9550 C   0  0  0  0  0  0  0  0  0  0  0  0
  141.0650   70.1920  227.9790 C   0  0  0  0  0  0  0  0  0  0  0  0
  139.6580   69.4130  224.0800 C   0  0  0  0  0  0  0  0  0  0  0  0
  139.4520   70.1680  221.7190 C   0  0  0  0  0  0  0  0  0  0  0  0
  138.8800   69.0830  221.0750 C   0  0  0  0  0  0  0  0  0  0  0  0
  138.9750   68.8990  219.7070 C   0  0  0  0  0  0  0  0  0  0  0  0
  139.6710   69.8520  218.9840 C   0  0  0  0  0  0  0  0  0  0  0  0
  140.2390   70.9310  219.6330 C   0  0  0  0  0  0  0  0  0  0  0  0
  140.1500   71.1210  220.9870 C   0  0  0  0  0  0  0  0  0  0  0  0
  138.2446   74.3601  222.1575 H   0  0  0  0  0  0  0  0  0  0  0  0
  137.3897   79.2569  223.1589 H   0  0  0  0  0  0  0  0  0  0  0  0
  139.6985   80.1472  223.0176 H   0  0  0  0  0  0  0  0  0  0  0  0
  141.5948   78.6074  222.4985 H   0  0  0  0  0  0  0  0  0  0  0  0
  142.1500   75.9690  221.9520 H   0  0  0  0  0  0  0  0  0  0  0  0
  141.6175   70.9454  223.3094 H   0  0  0  0  0  0  0  0  0  0  0  0
  140.6436   72.2422  223.9791 H   0  0  0  0  0  0  0  0  0  0  0  0
  138.4704   72.2917  223.9419 H   0  0  0  0  0  0  0  0  0  0  0  0
  137.5798   71.4799  222.6684 H   0  0  0  0  0  0  0  0  0  0  0  0
  137.1976   70.9936  225.3930 H   0  0  0  0  0  0  0  0  0  0  0  0
  136.8244   69.7782  224.1402 H   0  0  0  0  0  0  0  0  0  0  0  0
  138.5208   70.3549  226.9259 H   0  0  0  0  0  0  0  0  0  0  0  0
  139.2605   68.6386  226.6924 H   0  0  0  0  0  0  0  0  0  0  0  0
  140.9659   69.5438  225.7516 H   0  0  0  0  0  0  0  0  0  0  0  0
  141.8202   71.8527  225.9161 H   0  0  0  0  0  0  0  0  0  0  0  0
  140.2085   72.3150  225.9045 H   0  0  0  0  0  0  0  0  0  0  0  0
  141.9024   72.2317  228.3169 H   0  0  0  0  0  0  0  0  0  0  0  0
  140.2591   72.2795  228.5568 H   0  0  0  0  0  0  0  0  0  0  0  0
  142.0781   69.7834  228.1081 H   0  0  0  0  0  0  0  0  0  0  0  0
  140.5580   69.6074  228.7608 H   0  0  0  0  0  0  0  0  0  0  0  0
  140.6560   69.4252  224.5424 H   0  0  0  0  0  0  0  0  0  0  0  0
  139.5576   68.4560  223.5470 H   0  0  0  0  0  0  0  0  0  0  0  0
  138.3305   68.3410  221.6728 H   0  0  0  0  0  0  0  0  0  0  0  0
  138.5156   68.0298  219.2136 H   0  0  0  0  0  0  0  0  0  0  0  0
  139.7718   69.7503  217.8934 H   0  0  0  0  0  0  0  0  0  0  0  0
  140.7886   71.6726  219.0347 H   0  0  0  0  0  0  0  0  0  0  0  0
  1  2  2  0
  2  3  1  0
  3  4  2  0
  4  5  1  0
  5  6  2  0
  6  7  1  0
  6  8  1  0
  8  9  2  0
  9 10  1  0
 10 11  2  0
 11 12  1  0
  2 13  1  0
 13 14  1  0
 15 14  1  6
 15 16  1  0
 16 17  1  0
 17 18  1  0
 18 19  1  0
 19 20  1  0
 20 21  1  0
 21 22  1  0
 22 23  1  0
 18 24  1  0
 15 25  1  0
 25 26  2  0
 26 27  1  0
 27 28  2  0
 28 29  1  0
 29 30  2  0
 12  3  1  0
 30 13  1  0
 11  5  1  0
 24 15  1  0
 30 25  1  0
 23 20  1  0
  4 31  1  0
  8 32  1  0
  9 33  1  0
 10 34  1  0
 12 35  1  0
 14 36  1  0
 14 37  1  0
 16 38  1  0
 16 39  1  0
 17 40  1  0
 17 41  1  0
 19 42  1  0
 19 43  1  0
 20 44  1  0
 21 45  1  0
 21 46  1  0
 22 47  1  0
 22 48  1  0
 23 49  1  0
 23 50  1  0
 24 51  1  0
 24 52  1  0
 26 53  1  0
 27 54  1  0
 28 55  1  0
 29 56  1  0
M  END
>  <smiles>  (43) 
O=C(c1cc2c(F)cccc2[nH]1)N1C[C@@]2(CCN(CC3CCC3)C2)c2ccccc21

>  <score_type>  (43) 
oracle

>  <origin>  (43) 
autodockgpu

>  <m_score__min__energy>  (43) 
-8.1199999999999992

>  <m_primary>  (43) 
energy

>  <rmsd>  (43) 
6.889354491626079

>  <m_score__min__rmsd>  (43) 
6.889354491626079

>  <meeko>  (43) 
{"free_energy": -7.35, "intermolecular_energy": -8.54, "internal_energy": -1.65, "cluster_size": 3, "cluster_id": 6, "rank_in_cluster": 1}

>  <energy>  (43) 
-7.75

>  <cluster_rmsd>  (43) 
1.29

>  <cluster>  (43) 
4

$$$$

     RDKit          3D

 56 61  0  0  0  0  0  0  0  0999 V2000
  140.3530   74.4490  221.9780 O   0  0  0  0  0  0  0  0  0  0  0  0
  141.2480   75.0560  221.2820 C   0  0  0  0  0  0  0  0  0  0  0  0
  142.3390   74.2040  220.8800 C   0  0  0  0  0  0  0  0  0  0  0  0
  143.6830   74.3970  220.7300 C   0  0  0  0  0  0  0  0  0  0  0  0
  144.2790   73.2460  220.2830 C   0  0  0  0  0  0  0  0  0  0  0  0
  145.5960   72.9360  219.9790 C   0  0  0  0  0  0  0  0  0  0  0  0
  146.6000   73.8400  220.1050 F   0  0  0  0  0  0  0  0  0  0  0  0
  145.8510   71.6430  219.5380 C   0  0  0  0  0  0  0  0  0  0  0  0
  144.8380   70.6950  219.4020 C   0  0  0  0  0  0  0  0  0  0  0  0
  143.5340   71.0350  219.7130 C   0  0  0  0  0  0  0  0  0  0  0  0
  143.2730   72.3240  220.1550 C   0  0  0  0  0  0  0  0  0  0  0  0
  142.1320   72.9090  220.5130 N   0  0  0  0  0  0  0  0  0  0  0  0
  141.0190   76.4120  221.0400 N   0  0  0  0  0  0  0  0  0  0  0  0
  140.0500   77.2090  221.8360 C   0  0  0  0  0  0  0  0  0  0  0  0
  140.6820   78.5700  221.9020 C   0  0  2  0  0  0  0  0  0  0  0  0
  141.6600   78.6650  223.0220 C   0  0  0  0  0  0  0  0  0  0  0  0
  141.2640   79.9600  223.7280 C   0  0  0  0  0  0  0  0  0  0  0  0
  139.9480   80.2590  223.3710 N   0  0  0  0  0  0  0  0  0  0  0  0
  138.8580   80.1550  224.2250 C   0  0  0  0  0  0  0  0  0  0  0  0
  137.8100   81.2060  224.2390 C   0  0  0  0  0  0  0  0  0  0  0  0
  136.4290   80.9400  223.7860 C   0  0  0  0  0  0  0  0  0  0  0  0
  135.9490   80.8950  225.2210 C   0  0  0  0  0  0  0  0  0  0  0  0
  137.2740   81.5580  225.6200 C   0  0  0  0  0  0  0  0  0  0  0  0
  139.6730   79.6760  222.0810 C   0  0  0  0  0  0  0  0  0  0  0  0
  141.3800   78.6500  220.5910 C   0  0  0  0  0  0  0  0  0  0  0  0
  141.8380   79.7150  219.8320 C   0  0  0  0  0  0  0  0  0  0  0  0
  142.4670   79.5390  218.6130 C   0  0  0  0  0  0  0  0  0  0  0  0
  142.6310   78.2400  218.1620 C   0  0  0  0  0  0  0  0  0  0  0  0
  142.1720   77.1840  218.9240 C   0  0  0  0  0  0  0  0  0  0  0  0
  141.5480   77.3490  220.1330 C   0  0  0  0  0  0  0  0  0  0  0  0
  144.2107   75.3395  220.9378 H   0  0  0  0  0  0  0  0  0  0  0  0
  146.8840   71.3589  219.2886 H   0  0  0  0  0  0  0  0  0  0  0  0
  145.0749   69.6806  219.0487 H   0  0  0  0  0  0  0  0  0  0  0  0
  142.7219   70.2999  219.6122 H   0  0  0  0  0  0  0  0  0  0  0  0
  141.1960   72.4060  220.5080 H   0  0  0  0  0  0  0  0  0  0  0  0
  139.0723   77.2539  221.3339 H   0  0  0  0  0  0  0  0  0  0  0  0
  139.8571   76.7787  222.8298 H   0  0  0  0  0  0  0  0  0  0  0  0
  141.5678   77.8032  223.6994 H   0  0  0  0  0  0  0  0  0  0  0  0
  142.7057   78.6642  222.6806 H   0  0  0  0  0  0  0  0  0  0  0  0
  141.3347   79.8281  224.8178 H   0  0  0  0  0  0  0  0  0  0  0  0
  141.9365   80.7786  223.4318 H   0  0  0  0  0  0  0  0  0  0  0  0
  138.3530   79.2095  223.9781 H   0  0  0  0  0  0  0  0  0  0  0  0
  139.3144   80.2470  225.2216 H   0  0  0  0  0  0  0  0  0  0  0  0
  138.4141   81.8895  223.6242 H   0  0  0  0  0  0  0  0  0  0  0  0
  135.9886   81.7552  223.1932 H   0  0  0  0  0  0  0  0  0  0  0  0
  136.2236   80.0973  223.1095 H   0  0  0  0  0  0  0  0  0  0  0  0
  135.0540   81.5015  225.4238 H   0  0  0  0  0  0  0  0  0  0  0  0
  135.6096   79.9580  225.6866 H   0  0  0  0  0  0  0  0  0  0  0  0
  137.2020   82.6373  225.8199 H   0  0  0  0  0  0  0  0  0  0  0  0
  137.8095   81.2630  226.5345 H   0  0  0  0  0  0  0  0  0  0  0  0
  138.6513   79.2693  222.0552 H   0  0  0  0  0  0  0  0  0  0  0  0
  139.7467   80.4230  221.2769 H   0  0  0  0  0  0  0  0  0  0  0  0
  141.6962   80.7372  220.2128 H   0  0  0  0  0  0  0  0  0  0  0  0
  142.8232   80.3974  218.0246 H   0  0  0  0  0  0  0  0  0  0  0  0
  143.1261   78.0498  217.1983 H   0  0  0  0  0  0  0  0  0  0  0  0
  142.3139   76.1620  218.5427 H   0  0  0  0  0  0  0  0  0  0  0  0
  1  2  2  0
  2  3  1  0
  3  4  2  0
  4  5  1  0
  5  6  2  0
  6  7  1  0
  6  8  1  0
  8  9  2  0
  9 10  1  0
 10 11  2  0
 11 12  1  0
  2 13  1  0
 13 14  1  0
 15 14  1  6
 15 16  1  0
 16 17  1  0
 17 18  1  0
 18 19  1  0
 19 20  1  0
 20 21  1  0
 21 22  1  0
 22 23  1  0
 18 24  1  0
 15 25  1  0
 25 26  2  0
 26 27  1  0
 27 28  2  0
 28 29  1  0
 29 30  2  0
 12  3  1  0
 30 13  1  0
 11  5  1  0
 24 15  1  0
 30 25  1  0
 23 20  1  0
  4 31  1  0
  8 32  1  0
  9 33  1  0
 10 34  1  0
 12 35  1  0
 14 36  1  0
 14 37  1  0
 16 38  1  0
 16 39  1  0
 17 40  1  0
 17 41  1  0
 19 42  1  0
 19 43  1  0
 20 44  1  0
 21 45  1  0
 21 46  1  0
 22 47  1  0
 22 48  1  0
 23 49  1  0
 23 50  1  0
 24 51  1  0
 24 52  1  0
 26 53  1  0
 27 54  1  0
 28 55  1  0
 29 56  1  0
M  END
>  <smiles>  (44) 
O=C(c1cc2c(F)cccc2[nH]1)N1C[C@@]2(CCN(CC3CCC3)C2)c2ccccc21

>  <score_type>  (44) 
oracle

>  <origin>  (44) 
autodockgpu

>  <m_score__min__energy>  (44) 
-8.1199999999999992

>  <m_primary>  (44) 
energy

>  <rmsd>  (44) 
5.396459932902323

>  <m_score__min__rmsd>  (44) 
5.396459932902323

>  <meeko>  (44) 
{"free_energy": -7.87, "intermolecular_energy": -9.06, "internal_energy": -1.28, "cluster_size": 14, "cluster_id": 1, "rank_in_cluster": 12}

>  <energy>  (44) 
-7.72

>  <cluster_rmsd>  (44) 
0.15

>  <cluster>  (44) 
4

$$$$

     RDKit          3D

 56 61  0  0  0  0  0  0  0  0999 V2000
  140.0620   74.5170  222.1600 O   0  0  0  0  0  0  0  0  0  0  0  0
  140.9550   75.0650  221.4120 C   0  0  0  0  0  0  0  0  0  0  0  0
  141.9780   74.1500  220.9730 C   0  0  0  0  0  0  0  0  0  0  0  0
  141.9810   72.8240  220.6430 C   0  0  0  0  0  0  0  0  0  0  0  0
  143.2510   72.4210  220.3190 C   0  0  0  0  0  0  0  0  0  0  0  0
  143.7680   71.1960  219.9260 C   0  0  0  0  0  0  0  0  0  0  0  0
  142.9890   70.0940  219.7850 F   0  0  0  0  0  0  0  0  0  0  0  0
  145.1340   71.1420  219.6750 C   0  0  0  0  0  0  0  0  0  0  0  0
  145.9550   72.2600  219.8090 C   0  0  0  0  0  0  0  0  0  0  0  0
  145.4090   73.4690  220.2030 C   0  0  0  0  0  0  0  0  0  0  0  0
  144.0470   73.5290  220.4540 C   0  0  0  0  0  0  0  0  0  0  0  0
  143.2750   74.5430  220.8420 N   0  0  0  0  0  0  0  0  0  0  0  0
  140.7870   76.4280  221.1590 N   0  0  0  0  0  0  0  0  0  0  0  0
  139.8340   77.2690  221.9280 C   0  0  0  0  0  0  0  0  0  0  0  0
  140.5200   78.6030  222.0020 C   0  0  2  0  0  0  0  0  0  0  0  0
  141.4750   78.6630  223.1440 C   0  0  0  0  0  0  0  0  0  0  0  0
  141.1160   79.9790  223.8350 C   0  0  0  0  0  0  0  0  0  0  0  0
  139.8230   80.3290  223.4460 N   0  0  0  0  0  0  0  0  0  0  0  0
  138.7100   80.2750  224.2750 C   0  0  0  0  0  0  0  0  0  0  0  0
  137.7080   81.3700  224.2630 C   0  0  0  0  0  0  0  0  0  0  0  0
  136.2780   81.1200  223.9860 C   0  0  0  0  0  0  0  0  0  0  0  0
  135.9500   81.2710  225.4560 C   0  0  0  0  0  0  0  0  0  0  0  0
  137.3340   81.9110  225.6360 C   0  0  0  0  0  0  0  0  0  0  0  0
  139.5540   79.7500  222.1530 C   0  0  0  0  0  0  0  0  0  0  0  0
  141.2500   78.6460  220.7070 C   0  0  0  0  0  0  0  0  0  0  0  0
  141.7690   79.6870  219.9540 C   0  0  0  0  0  0  0  0  0  0  0  0
  142.4180   79.4790  218.7500 C   0  0  0  0  0  0  0  0  0  0  0  0
  142.5390   78.1720  218.3100 C   0  0  0  0  0  0  0  0  0  0  0  0
  142.0190   77.1400  219.0660 C   0  0  0  0  0  0  0  0  0  0  0  0
  141.3740   77.3370  220.2600 C   0  0  0  0  0  0  0  0  0  0  0  0
  141.0935   72.1742  220.6380 H   0  0  0  0  0  0  0  0  0  0  0  0
  145.5808   70.1872  219.3609 H   0  0  0  0  0  0  0  0  0  0  0  0
  147.0326   72.1818  219.6025 H   0  0  0  0  0  0  0  0  0  0  0  0
  146.0414   74.3621  220.3145 H   0  0  0  0  0  0  0  0  0  0  0  0
  143.6490   75.5220  221.0160 H   0  0  0  0  0  0  0  0  0  0  0  0
  138.8709   77.3513  221.4030 H   0  0  0  0  0  0  0  0  0  0  0  0
  139.6006   76.8530  222.9192 H   0  0  0  0  0  0  0  0  0  0  0  0
  141.3313   77.8096  223.8230 H   0  0  0  0  0  0  0  0  0  0  0  0
  142.5275   78.6165  222.8275 H   0  0  0  0  0  0  0  0  0  0  0  0
  141.1560   79.8508  224.9268 H   0  0  0  0  0  0  0  0  0  0  0  0
  141.8282   80.7676  223.5508 H   0  0  0  0  0  0  0  0  0  0  0  0
  138.1705   79.3513  224.0185 H   0  0  0  0  0  0  0  0  0  0  0  0
  139.1473   80.3508  225.2815 H   0  0  0  0  0  0  0  0  0  0  0  0
  138.2684   81.9443  223.5106 H   0  0  0  0  0  0  0  0  0  0  0  0
  135.8082   81.8791  223.3433 H   0  0  0  0  0  0  0  0  0  0  0  0
  135.9719   80.2135  223.4432 H   0  0  0  0  0  0  0  0  0  0  0  0
  135.1043   81.9410  225.6700 H   0  0  0  0  0  0  0  0  0  0  0  0
  135.6270   80.4144  226.0658 H   0  0  0  0  0  0  0  0  0  0  0  0
  137.3234   83.0087  225.7066 H   0  0  0  0  0  0  0  0  0  0  0  0
  137.9513   81.7016  226.5220 H   0  0  0  0  0  0  0  0  0  0  0  0
  138.5173   79.3853  222.1058 H   0  0  0  0  0  0  0  0  0  0  0  0
  139.6769   80.4888  221.3474 H   0  0  0  0  0  0  0  0  0  0  0  0
  141.6611   80.7162  220.3271 H   0  0  0  0  0  0  0  0  0  0  0  0
  142.8218   80.3188  218.1655 H   0  0  0  0  0  0  0  0  0  0  0  0
  143.0487   77.9558  217.3595 H   0  0  0  0  0  0  0  0  0  0  0  0
  142.1273   76.1110  218.6927 H   0  0  0  0  0  0  0  0  0  0  0  0
  1  2  2  0
  2  3  1  0
  3  4  2  0
  4  5  1  0
  5  6  2  0
  6  7  1  0
  6  8  1  0
  8  9  2  0
  9 10  1  0
 10 11  2  0
 11 12  1  0
  2 13  1  0
 13 14  1  0
 15 14  1  1
 15 16  1  0
 16 17  1  0
 17 18  1  0
 18 19  1  0
 19 20  1  0
 20 21  1  0
 21 22  1  0
 22 23  1  0
 18 24  1  0
 15 25  1  0
 25 26  2  0
 26 27  1  0
 27 28  2  0
 28 29  1  0
 29 30  2  0
 12  3  1  0
 30 13  1  0
 11  5  1  0
 24 15  1  0
 30 25  1  0
 23 20  1  0
  4 31  1  0
  8 32  1  0
  9 33  1  0
 10 34  1  0
 12 35  1  0
 14 36  1  0
 14 37  1  0
 16 38  1  0
 16 39  1  0
 17 40  1  0
 17 41  1  0
 19 42  1  0
 19 43  1  0
 20 44  1  0
 21 45  1  0
 21 46  1  0
 22 47  1  0
 22 48  1  0
 23 49  1  0
 23 50  1  0
 24 51  1  0
 24 52  1  0
 26 53  1  0
 27 54  1  0
 28 55  1  0
 29 56  1  0
M  END
>  <smiles>  (45) 
O=C(c1cc2c(F)cccc2[nH]1)N1C[C@@]2(CCN(CC3CCC3)C2)c2ccccc21

>  <score_type>  (45) 
oracle

>  <origin>  (45) 
autodockgpu

>  <m_score__min__energy>  (45) 
-8.1199999999999992

>  <m_primary>  (45) 
energy

>  <rmsd>  (45) 
5.427356951815542

>  <m_score__min__rmsd>  (45) 
5.427356951815542

>  <meeko>  (45) 
{"free_energy": -8.11, "intermolecular_energy": -9.31, "internal_energy": -1.14, "cluster_size": 14, "cluster_id": 1, "rank_in_cluster": 4}

>  <energy>  (45) 
-7.45

>  <cluster_rmsd>  (45) 
0.37

>  <cluster>  (45) 
4

$$$$

     RDKit          3D

 56 61  0  0  0  0  0  0  0  0999 V2000
  139.9850   74.4960  222.0660 O   0  0  0  0  0  0  0  0  0  0  0  0
  140.9030   75.0550  221.3580 C   0  0  0  0  0  0  0  0  0  0  0  0
  141.9400   74.1440  220.9400 C   0  0  0  0  0  0  0  0  0  0  0  0
  141.9560   72.8190  220.6080 C   0  0  0  0  0  0  0  0  0  0  0  0
  143.2340   72.4230  220.3100 C   0  0  0  0  0  0  0  0  0  0  0  0
  143.7650   71.2010  219.9260 C   0  0  0  0  0  0  0  0  0  0  0  0
  142.9950   70.0950  219.7670 F   0  0  0  0  0  0  0  0  0  0  0  0
  145.1360   71.1540  219.7040 C   0  0  0  0  0  0  0  0  0  0  0  0
  145.9490   72.2750  219.8590 C   0  0  0  0  0  0  0  0  0  0  0  0
  145.3900   73.4800  220.2430 C   0  0  0  0  0  0  0  0  0  0  0  0
  144.0220   73.5340  220.4650 C   0  0  0  0  0  0  0  0  0  0  0  0
  143.2380   74.5440  220.8380 N   0  0  0  0  0  0  0  0  0  0  0  0
  140.7460   76.4220  221.1220 N   0  0  0  0  0  0  0  0  0  0  0  0
  139.8070   77.2630  221.9090 C   0  0  0  0  0  0  0  0  0  0  0  0
  140.5060   78.5890  221.9920 C   0  0  2  0  0  0  0  0  0  0  0  0
  141.4710   78.6280  223.1270 C   0  0  0  0  0  0  0  0  0  0  0  0
  141.1300   79.9380  223.8360 C   0  0  0  0  0  0  0  0  0  0  0  0
  139.8370   80.3050  223.4610 N   0  0  0  0  0  0  0  0  0  0  0  0
  138.7300   80.2510  224.3000 C   0  0  0  0  0  0  0  0  0  0  0  0
  137.7510   81.3660  224.3250 C   0  0  0  0  0  0  0  0  0  0  0  0
  136.3320   81.1690  223.9620 C   0  0  0  0  0  0  0  0  0  0  0  0
  135.9360   81.2150  225.4230 C   0  0  0  0  0  0  0  0  0  0  0  0
  137.3200   81.8100  225.7160 C   0  0  0  0  0  0  0  0  0  0  0  0
  139.5520   79.7430  222.1640 C   0  0  0  0  0  0  0  0  0  0  0  0
  141.2260   78.6410  220.6920 C   0  0  0  0  0  0  0  0  0  0  0  0
  141.7480   79.6850  219.9470 C   0  0  0  0  0  0  0  0  0  0  0  0
  142.3850   79.4850  218.7350 C   0  0  0  0  0  0  0  0  0  0  0  0
  142.4910   78.1820  218.2790 C   0  0  0  0  0  0  0  0  0  0  0  0
  141.9670   77.1460  219.0280 C   0  0  0  0  0  0  0  0  0  0  0  0
  141.3340   77.3360  220.2290 C   0  0  0  0  0  0  0  0  0  0  0  0
  141.0719   72.1650  220.5834 H   0  0  0  0  0  0  0  0  0  0  0  0
  145.5937   70.2022  219.3963 H   0  0  0  0  0  0  0  0  0  0  0  0
  147.0313   72.2016  219.6766 H   0  0  0  0  0  0  0  0  0  0  0  0
  146.0161   74.3755  220.3695 H   0  0  0  0  0  0  0  0  0  0  0  0
  143.6030   75.5240  221.0210 H   0  0  0  0  0  0  0  0  0  0  0  0
  138.8402   77.3602  221.3933 H   0  0  0  0  0  0  0  0  0  0  0  0
  139.5779   76.8378  222.8973 H   0  0  0  0  0  0  0  0  0  0  0  0
  141.3254   77.7681  223.7973 H   0  0  0  0  0  0  0  0  0  0  0  0
  142.5203   78.5764  222.8009 H   0  0  0  0  0  0  0  0  0  0  0  0
  141.1770   79.7963  224.9258 H   0  0  0  0  0  0  0  0  0  0  0  0
  141.8475   80.7233  223.5558 H   0  0  0  0  0  0  0  0  0  0  0  0
  138.1696   79.3452  224.0251 H   0  0  0  0  0  0  0  0  0  0  0  0
  139.1774   80.2909  225.3041 H   0  0  0  0  0  0  0  0  0  0  0  0
  138.3586   81.9834  223.6470 H   0  0  0  0  0  0  0  0  0  0  0  0
  135.9078   81.9848  223.3582 H   0  0  0  0  0  0  0  0  0  0  0  0
  136.0362   80.3135  223.3370 H   0  0  0  0  0  0  0  0  0  0  0  0
  135.0927   81.8845  225.6480 H   0  0  0  0  0  0  0  0  0  0  0  0
  135.5691   80.3216  225.9495 H   0  0  0  0  0  0  0  0  0  0  0  0
  137.3252   82.8993  225.8693 H   0  0  0  0  0  0  0  0  0  0  0  0
  137.8897   81.5215  226.6117 H   0  0  0  0  0  0  0  0  0  0  0  0
  138.5116   79.3883  222.1215 H   0  0  0  0  0  0  0  0  0  0  0  0
  139.6751   80.4897  221.3657 H   0  0  0  0  0  0  0  0  0  0  0  0
  141.6528   80.7107  220.3327 H   0  0  0  0  0  0  0  0  0  0  0  0
  142.7911   80.3279  218.1566 H   0  0  0  0  0  0  0  0  0  0  0  0
  142.9915   77.9720  217.3222 H   0  0  0  0  0  0  0  0  0  0  0  0
  142.0622   76.1202  218.6424 H   0  0  0  0  0  0  0  0  0  0  0  0
  1  2  2  0
  2  3  1  0
  3  4  2  0
  4  5  1  0
  5  6  2  0
  6  7  1  0
  6  8  1  0
  8  9  2  0
  9 10  1  0
 10 11  2  0
 11 12  1  0
  2 13  1  0
 13 14  1  0
 15 14  1  6
 15 16  1  0
 16 17  1  0
 17 18  1  0
 18 19  1  0
 19 20  1  0
 20 21  1  0
 21 22  1  0
 22 23  1  0
 18 24  1  0
 15 25  1  0
 25 26  2  0
 26 27  1  0
 27 28  2  0
 28 29  1  0
 29 30  2  0
 12  3  1  0
 30 13  1  0
 11  5  1  0
 24 15  1  0
 30 25  1  0
 23 20  1  0
  4 31  1  0
  8 32  1  0
  9 33  1  0
 10 34  1  0
 12 35  1  0
 14 36  1  0
 14 37  1  0
 16 38  1  0
 16 39  1  0
 17 40  1  0
 17 41  1  0
 19 42  1  0
 19 43  1  0
 20 44  1  0
 21 45  1  0
 21 46  1  0
 22 47  1  0
 22 48  1  0
 23 49  1  0
 23 50  1  0
 24 51  1  0
 24 52  1  0
 26 53  1  0
 27 54  1  0
 28 55  1  0
 29 56  1  0
M  END
>  <smiles>  (46) 
O=C(c1cc2c(F)cccc2[nH]1)N1C[C@@]2(CCN(CC3CCC3)C2)c2ccccc21

>  <score_type>  (46) 
oracle

>  <origin>  (46) 
autodockgpu

>  <m_score__min__energy>  (46) 
-8.1199999999999992

>  <m_primary>  (46) 
energy

>  <rmsd>  (46) 
5.414139470595289

>  <m_score__min__rmsd>  (46) 
5.414139470595289

>  <meeko>  (46) 
{"free_energy": -8.11, "intermolecular_energy": -9.31, "internal_energy": -1.14, "cluster_size": 14, "cluster_id": 1, "rank_in_cluster": 5}

>  <energy>  (46) 
-7.78

>  <cluster_rmsd>  (46) 
0.0

>  <cluster>  (46) 
5

$$$$

     RDKit          3D

 56 61  0  0  0  0  0  0  0  0999 V2000
  134.1810   68.0660  224.5380 O   0  0  0  0  0  0  0  0  0  0  0  0
  134.8680   69.1540  224.5270 C   0  0  0  0  0  0  0  0  0  0  0  0
  134.2030   70.2600  225.1680 C   0  0  0  0  0  0  0  0  0  0  0  0
  134.4890   71.5900  225.2960 C   0  0  0  0  0  0  0  0  0  0  0  0
  133.5250   72.2110  226.0480 C   0  0  0  0  0  0  0  0  0  0  0  0
  133.3660   73.5260  226.4570 C   0  0  0  0  0  0  0  0  0  0  0  0
  134.2490   74.5000  226.1200 F   0  0  0  0  0  0  0  0  0  0  0  0
  132.2490   73.8120  227.2320 C   0  0  0  0  0  0  0  0  0  0  0  0
  131.3260   72.8310  227.5890 C   0  0  0  0  0  0  0  0  0  0  0  0
  131.5120   71.5270  227.1650 C   0  0  0  0  0  0  0  0  0  0  0  0
  132.6250   71.2360  226.3910 C   0  0  0  0  0  0  0  0  0  0  0  0
  133.0420   70.0880  225.8600 N   0  0  0  0  0  0  0  0  0  0  0  0
  136.1160   69.0820  223.9040 N   0  0  0  0  0  0  0  0  0  0  0  0
  137.2150   70.0340  224.2110 C   0  0  0  0  0  0  0  0  0  0  0  0
  138.4540   69.1940  224.0870 C   0  0  2  0  0  0  0  0  0  0  0  0
  138.7490   68.4660  225.3520 C   0  0  0  0  0  0  0  0  0  0  0  0
  140.2300   68.7590  225.5910 C   0  0  0  0  0  0  0  0  0  0  0  0
  140.5660   69.8980  224.8580 N   0  0  0  0  0  0  0  0  0  0  0  0
  140.8380   71.1410  225.4160 C   0  0  0  0  0  0  0  0  0  0  0  0
  141.4450   71.2430  226.7660 C   0  0  0  0  0  0  0  0  0  0  0  0
  141.3930   72.4910  227.5550 C   0  0  0  0  0  0  0  0  0  0  0  0
  140.3110   71.9070  228.4380 C   0  0  0  0  0  0  0  0  0  0  0  0
  140.6760   70.5290  227.8690 C   0  0  0  0  0  0  0  0  0  0  0  0
  139.6740   70.0030  223.7290 C   0  0  0  0  0  0  0  0  0  0  0  0
  138.0730   68.2410  223.0110 C   0  0  0  0  0  0  0  0  0  0  0  0
  138.8160   67.4540  222.1460 C   0  0  0  0  0  0  0  0  0  0  0  0
  138.2270   66.6300  221.2030 C   0  0  0  0  0  0  0  0  0  0  0  0
  136.8440   66.6130  221.1480 C   0  0  0  0  0  0  0  0  0  0  0  0
  136.1110   67.4000  222.0130 C   0  0  0  0  0  0  0  0  0  0  0  0
  136.6860   68.2190  222.9500 C   0  0  0  0  0  0  0  0  0  0  0  0
  135.3658   72.0902  224.8590 H   0  0  0  0  0  0  0  0  0  0  0  0
  132.0882   74.8449  227.5744 H   0  0  0  0  0  0  0  0  0  0  0  0
  130.4531   73.0921  228.2054 H   0  0  0  0  0  0  0  0  0  0  0  0
  130.7934   70.7394  227.4357 H   0  0  0  0  0  0  0  0  0  0  0  0
  132.5170   69.1710  225.9750 H   0  0  0  0  0  0  0  0  0  0  0  0
  137.2291   70.8638  223.4890 H   0  0  0  0  0  0  0  0  0  0  0  0
  137.1122   70.5008  225.2017 H   0  0  0  0  0  0  0  0  0  0  0  0
  138.1333   68.8487  226.1794 H   0  0  0  0  0  0  0  0  0  0  0  0
  138.5282   67.3902  225.2903 H   0  0  0  0  0  0  0  0  0  0  0  0
  140.4075   68.9379  226.6618 H   0  0  0  0  0  0  0  0  0  0  0  0
  140.8455   67.9042  225.2741 H   0  0  0  0  0  0  0  0  0  0  0  0
  141.5210   71.6548  224.7235 H   0  0  0  0  0  0  0  0  0  0  0  0
  139.8364   71.5718  225.5616 H   0  0  0  0  0  0  0  0  0  0  0  0
  142.4331   70.9235  226.4032 H   0  0  0  0  0  0  0  0  0  0  0  0
  142.3275   72.7222  228.0873 H   0  0  0  0  0  0  0  0  0  0  0  0
  141.2324   73.4555  227.0510 H   0  0  0  0  0  0  0  0  0  0  0  0
  140.4908   72.0190  229.5174 H   0  0  0  0  0  0  0  0  0  0  0  0
  139.2788   72.2864  228.4128 H   0  0  0  0  0  0  0  0  0  0  0  0
  141.2986   69.9115  228.5331 H   0  0  0  0  0  0  0  0  0  0  0  0
  139.9028   69.7817  227.6371 H   0  0  0  0  0  0  0  0  0  0  0  0
  139.3986   71.0538  223.5559 H   0  0  0  0  0  0  0  0  0  0  0  0
  140.1461   69.6335  222.8067 H   0  0  0  0  0  0  0  0  0  0  0  0
  139.9136   67.4853  222.2111 H   0  0  0  0  0  0  0  0  0  0  0  0
  138.8339   66.0130  220.5240 H   0  0  0  0  0  0  0  0  0  0  0  0
  136.3298   65.9731  220.4158 H   0  0  0  0  0  0  0  0  0  0  0  0
  135.0134   67.3686  221.9475 H   0  0  0  0  0  0  0  0  0  0  0  0
  1  2  2  0
  2  3  1  0
  3  4  2  0
  4  5  1  0
  5  6  2  0
  6  7  1  0
  6  8  1  0
  8  9  2  0
  9 10  1  0
 10 11  2  0
 11 12  1  0
  2 13  1  0
 13 14  1  0
 15 14  1  1
 15 16  1  0
 16 17  1  0
 17 18  1  0
 18 19  1  0
 19 20  1  0
 20 21  1  0
 21 22  1  0
 22 23  1  0
 18 24  1  0
 15 25  1  0
 25 26  2  0
 26 27  1  0
 27 28  2  0
 28 29  1  0
 29 30  2  0
 12  3  1  0
 30 13  1  0
 11  5  1  0
 24 15  1  0
 30 25  1  0
 23 20  1  0
  4 31  1  0
  8 32  1  0
  9 33  1  0
 10 34  1  0
 12 35  1  0
 14 36  1  0
 14 37  1  0
 16 38  1  0
 16 39  1  0
 17 40  1  0
 17 41  1  0
 19 42  1  0
 19 43  1  0
 20 44  1  0
 21 45  1  0
 21 46  1  0
 22 47  1  0
 22 48  1  0
 23 49  1  0
 23 50  1  0
 24 51  1  0
 24 52  1  0
 26 53  1  0
 27 54  1  0
 28 55  1  0
 29 56  1  0
M  END
>  <smiles>  (47) 
O=C(c1cc2c(F)cccc2[nH]1)N1C[C@@]2(CCN(CC3CCC3)C2)c2ccccc21

>  <score_type>  (47) 
oracle

>  <origin>  (47) 
autodockgpu

>  <m_score__min__energy>  (47) 
-8.1199999999999992

>  <m_primary>  (47) 
energy

>  <rmsd>  (47) 
8.91710483621095

>  <m_score__min__rmsd>  (47) 
8.91710483621095

>  <meeko>  (47) 
{"free_energy": -7.88, "intermolecular_energy": -9.08, "internal_energy": -1.25, "cluster_size": 2, "cluster_id": 2, "rank_in_cluster": 1}

>  <energy>  (47) 
-7.66

>  <cluster_rmsd>  (47) 
0.54

>  <cluster>  (47) 
5

$$$$

     RDKit          3D

 56 61  0  0  0  0  0  0  0  0999 V2000
  139.4550   71.4490  221.5530 O   0  0  0  0  0  0  0  0  0  0  0  0
  140.4700   71.7640  222.2790 C   0  0  0  0  0  0  0  0  0  0  0  0
  140.3620   71.3150  223.6440 C   0  0  0  0  0  0  0  0  0  0  0  0
  140.7020   71.8630  224.8490 C   0  0  0  0  0  0  0  0  0  0  0  0
  140.4110   70.9880  225.8640 C   0  0  0  0  0  0  0  0  0  0  0  0
  140.5680   71.0710  227.2390 C   0  0  0  0  0  0  0  0  0  0  0  0
  141.0920   72.1680  227.8420 F   0  0  0  0  0  0  0  0  0  0  0  0
  140.1590   69.9730  227.9860 C   0  0  0  0  0  0  0  0  0  0  0  0
  139.6170   68.8350  227.3910 C   0  0  0  0  0  0  0  0  0  0  0  0
  139.4720   68.7820  226.0160 C   0  0  0  0  0  0  0  0  0  0  0  0
  139.8770   69.8760  225.2660 C   0  0  0  0  0  0  0  0  0  0  0  0
  139.8560   70.0880  223.9510 N   0  0  0  0  0  0  0  0  0  0  0  0
  141.4830   72.4770  221.6350 N   0  0  0  0  0  0  0  0  0  0  0  0
  142.7600   71.8440  221.2170 C   0  0  0  0  0  0  0  0  0  0  0  0
  143.1090   72.5600  219.9440 C   0  0  2  0  0  0  0  0  0  0  0  0
  142.4340   71.9440  218.7680 C   0  0  0  0  0  0  0  0  0  0  0  0
  143.5680   71.7740  217.7580 C   0  0  0  0  0  0  0  0  0  0  0  0
  144.7750   71.8050  218.4590 N   0  0  0  0  0  0  0  0  0  0  0  0
  145.5910   70.7000  218.6700 C   0  0  0  0  0  0  0  0  0  0  0  0
  145.0610   69.3270  218.4800 C   0  0  0  0  0  0  0  0  0  0  0  0
  145.9510   68.1490  218.4030 C   0  0  0  0  0  0  0  0  0  0  0  0
  145.5760   67.7530  219.8150 C   0  0  0  0  0  0  0  0  0  0  0  0
  144.3920   68.7240  219.7080 C   0  0  0  0  0  0  0  0  0  0  0  0
  144.5910   72.5710  219.6660 C   0  0  0  0  0  0  0  0  0  0  0  0
  142.5730   73.9240  220.2000 C   0  0  0  0  0  0  0  0  0  0  0  0
  142.8520   75.1630  219.6480 C   0  0  0  0  0  0  0  0  0  0  0  0
  142.2140   76.3190  220.0610 C   0  0  0  0  0  0  0  0  0  0  0  0
  141.2670   76.1990  221.0640 C   0  0  0  0  0  0  0  0  0  0  0  0
  140.9950   74.9600  221.6100 C   0  0  0  0  0  0  0  0  0  0  0  0
  141.6220   73.8100  221.2060 C   0  0  0  0  0  0  0  0  0  0  0  0
  141.1447   72.8608  224.9849 H   0  0  0  0  0  0  0  0  0  0  0  0
  140.2662   70.0028  229.0803 H   0  0  0  0  0  0  0  0  0  0  0  0
  139.3057   67.9823  228.0122 H   0  0  0  0  0  0  0  0  0  0  0  0
  139.0454   67.8927  225.5290 H   0  0  0  0  0  0  0  0  0  0  0  0
  139.4840   69.3770  223.2550 H   0  0  0  0  0  0  0  0  0  0  0  0
  143.5400   71.9934  221.9781 H   0  0  0  0  0  0  0  0  0  0  0  0
  142.6743   70.7553  221.0853 H   0  0  0  0  0  0  0  0  0  0  0  0
  141.9929   70.9715  219.0320 H   0  0  0  0  0  0  0  0  0  0  0  0
  141.6029   72.5526  218.3823 H   0  0  0  0  0  0  0  0  0  0  0  0
  143.4631   70.8110  217.2368 H   0  0  0  0  0  0  0  0  0  0  0  0
  143.5386   72.5796  217.0096 H   0  0  0  0  0  0  0  0  0  0  0  0
  146.4470   70.8050  217.9872 H   0  0  0  0  0  0  0  0  0  0  0  0
  145.7904   70.7416  219.7510 H   0  0  0  0  0  0  0  0  0  0  0  0
  144.5208   69.6050  217.5630 H   0  0  0  0  0  0  0  0  0  0  0  0
  145.6548   67.4146  217.6395 H   0  0  0  0  0  0  0  0  0  0  0  0
  147.0087   68.2742  218.1281 H   0  0  0  0  0  0  0  0  0  0  0  0
  145.2926   66.6968  219.9343 H   0  0  0  0  0  0  0  0  0  0  0  0
  146.2987   67.8140  220.6421 H   0  0  0  0  0  0  0  0  0  0  0  0
  143.4233   68.2421  219.5094 H   0  0  0  0  0  0  0  0  0  0  0  0
  144.0858   69.3500  220.5590 H   0  0  0  0  0  0  0  0  0  0  0  0
  145.1396   72.1082  220.4996 H   0  0  0  0  0  0  0  0  0  0  0  0
  144.9721   73.5968  219.5540 H   0  0  0  0  0  0  0  0  0  0  0  0
  143.6084   75.2305  218.8522 H   0  0  0  0  0  0  0  0  0  0  0  0
  142.4496   77.2945  219.6106 H   0  0  0  0  0  0  0  0  0  0  0  0
  140.7319   77.0895  221.4255 H   0  0  0  0  0  0  0  0  0  0  0  0
  140.2395   74.8928  222.4067 H   0  0  0  0  0  0  0  0  0  0  0  0
  1  2  2  0
  2  3  1  0
  3  4  2  0
  4  5  1  0
  5  6  2  0
  6  7  1  0
  6  8  1  0
  8  9  2  0
  9 10  1  0
 10 11  2  0
 11 12  1  0
  2 13  1  0
 13 14  1  0
 15 14  1  1
 15 16  1  0
 16 17  1  0
 17 18  1  0
 18 19  1  0
 19 20  1  0
 20 21  1  0
 21 22  1  0
 22 23  1  0
 18 24  1  0
 15 25  1  0
 25 26  2  0
 26 27  1  0
 27 28  2  0
 28 29  1  0
 29 30  2  0
 12  3  1  0
 30 13  1  0
 11  5  1  0
 24 15  1  0
 30 25  1  0
 23 20  1  0
  4 31  1  0
  8 32  1  0
  9 33  1  0
 10 34  1  0
 12 35  1  0
 14 36  1  0
 14 37  1  0
 16 38  1  0
 16 39  1  0
 17 40  1  0
 17 41  1  0
 19 42  1  0
 19 43  1  0
 20 44  1  0
 21 45  1  0
 21 46  1  0
 22 47  1  0
 22 48  1  0
 23 49  1  0
 23 50  1  0
 24 51  1  0
 24 52  1  0
 26 53  1  0
 27 54  1  0
 28 55  1  0
 29 56  1  0
M  END
>  <smiles>  (48) 
O=C(c1cc2c(F)cccc2[nH]1)N1C[C@@]2(CCN(CC3CCC3)C2)c2ccccc21

>  <score_type>  (48) 
oracle

>  <origin>  (48) 
autodockgpu

>  <m_score__min__energy>  (48) 
-8.1199999999999992

>  <m_primary>  (48) 
energy

>  <rmsd>  (48) 
4.094529720684593

>  <m_score__min__rmsd>  (48) 
4.094529720684593

>  <meeko>  (48) 
{"free_energy": -7.84, "intermolecular_energy": -9.03, "internal_energy": -1.38, "cluster_size": 7, "cluster_id": 3, "rank_in_cluster": 2}

>  <energy>  (48) 
-7.35

>  <cluster_rmsd>  (48) 
0.0

>  <cluster>  (48) 
6

$$$$

     RDKit          3D

 56 61  0  0  0  0  0  0  0  0999 V2000
  142.1860   73.5870  220.9940 O   0  0  0  0  0  0  0  0  0  0  0  0
  141.0570   73.4250  221.5890 C   0  0  0  0  0  0  0  0  0  0  0  0
  140.4040   74.6640  221.9300 C   0  0  0  0  0  0  0  0  0  0  0  0
  139.1040   75.0150  222.1590 C   0  0  0  0  0  0  0  0  0  0  0  0
  139.0160   76.3590  222.4170 C   0  0  0  0  0  0  0  0  0  0  0  0
  137.9390   77.1840  222.7020 C   0  0  0  0  0  0  0  0  0  0  0  0
  136.6680   76.7140  222.7810 F   0  0  0  0  0  0  0  0  0  0  0  0
  138.2170   78.5300  222.9120 C   0  0  0  0  0  0  0  0  0  0  0  0
  139.5130   79.0370  222.8400 C   0  0  0  0  0  0  0  0  0  0  0  0
  140.5670   78.1880  222.5530 C   0  0  0  0  0  0  0  0  0  0  0  0
  140.2960   76.8440  222.3440 C   0  0  0  0  0  0  0  0  0  0  0  0
  141.1040   75.8260  222.0550 N   0  0  0  0  0  0  0  0  0  0  0  0
  140.6650   72.1020  221.8050 N   0  0  0  0  0  0  0  0  0  0  0  0
  140.6950   71.4720  223.1500 C   0  0  0  0  0  0  0  0  0  0  0  0
  139.5120   70.5470  223.1340 C   0  0  2  0  0  0  0  0  0  0  0  0
  138.2580   71.2580  223.5100 C   0  0  0  0  0  0  0  0  0  0  0  0
  137.6390   70.3460  224.5680 C   0  0  0  0  0  0  0  0  0  0  0  0
  138.6500   69.5280  225.0750 N   0  0  0  0  0  0  0  0  0  0  0  0
  139.1950   69.6470  226.3480 C   0  0  0  0  0  0  0  0  0  0  0  0
  140.5720   70.1690  226.5310 C   0  0  0  0  0  0  0  0  0  0  0  0
  140.8810   71.6110  226.4410 C   0  0  0  0  0  0  0  0  0  0  0  0
  140.9930   71.6970  227.9490 C   0  0  0  0  0  0  0  0  0  0  0  0
  141.0730   70.1650  227.9690 C   0  0  0  0  0  0  0  0  0  0  0  0
  139.6720   69.3760  224.0690 C   0  0  0  0  0  0  0  0  0  0  0  0
  139.4680   70.1280  221.7070 C   0  0  0  0  0  0  0  0  0  0  0  0
  138.8990   69.0410  221.0640 C   0  0  0  0  0  0  0  0  0  0  0  0
  138.9950   68.8570  219.6960 C   0  0  0  0  0  0  0  0  0  0  0  0
  139.6900   69.8110  218.9730 C   0  0  0  0  0  0  0  0  0  0  0  0
  140.2550   70.8910  219.6210 C   0  0  0  0  0  0  0  0  0  0  0  0
  140.1640   71.0820  220.9760 C   0  0  0  0  0  0  0  0  0  0  0  0
  138.2513   74.3204  222.1393 H   0  0  0  0  0  0  0  0  0  0  0  0
  137.3883   79.2158  223.1421 H   0  0  0  0  0  0  0  0  0  0  0  0
  139.6973   80.1079  223.0107 H   0  0  0  0  0  0  0  0  0  0  0  0
  141.5966   78.5703  222.4920 H   0  0  0  0  0  0  0  0  0  0  0  0
  142.1560   75.9330  221.9460 H   0  0  0  0  0  0  0  0  0  0  0  0
  141.6296   70.9116  223.3003 H   0  0  0  0  0  0  0  0  0  0  0  0
  140.6513   72.2072  223.9671 H   0  0  0  0  0  0  0  0  0  0  0  0
  138.4786   72.2517  223.9269 H   0  0  0  0  0  0  0  0  0  0  0  0
  137.5916   71.4366  222.6532 H   0  0  0  0  0  0  0  0  0  0  0  0
  137.2077   70.9525  225.3780 H   0  0  0  0  0  0  0  0  0  0  0  0
  136.8381   69.7353  224.1258 H   0  0  0  0  0  0  0  0  0  0  0  0
  138.5276   70.3120  226.9158 H   0  0  0  0  0  0  0  0  0  0  0  0
  139.2801   68.6017  226.6798 H   0  0  0  0  0  0  0  0  0  0  0  0
  140.9779   69.5218  225.7396 H   0  0  0  0  0  0  0  0  0  0  0  0
  141.8179   71.8348  225.9099 H   0  0  0  0  0  0  0  0  0  0  0  0
  140.2038   72.2874  225.8988 H   0  0  0  0  0  0  0  0  0  0  0  0
  141.8969   72.2075  228.3127 H   0  0  0  0  0  0  0  0  0  0  0  0
  140.2531   72.2438  228.5520 H   0  0  0  0  0  0  0  0  0  0  0  0
  142.0888   69.7628  228.0971 H   0  0  0  0  0  0  0  0  0  0  0  0
  140.5698   69.5752  228.7493 H   0  0  0  0  0  0  0  0  0  0  0  0
  140.6695   69.3904  224.5324 H   0  0  0  0  0  0  0  0  0  0  0  0
  139.5737   68.4187  223.5362 H   0  0  0  0  0  0  0  0  0  0  0  0
  138.3514   68.2978  221.6621 H   0  0  0  0  0  0  0  0  0  0  0  0
  138.5371   67.9870  219.2026 H   0  0  0  0  0  0  0  0  0  0  0  0
  139.7921   69.7086  217.8826 H   0  0  0  0  0  0  0  0  0  0  0  0
  140.8039   71.6331  219.0226 H   0  0  0  0  0  0  0  0  0  0  0  0
  1  2  2  0
  2  3  1  0
  3  4  2  0
  4  5  1  0
  5  6  2  0
  6  7  1  0
  6  8  1  0
  8  9  2  0
  9 10  1  0
 10 11  2  0
 11 12  1  0
  2 13  1  0
 13 14  1  0
 15 14  1  6
 15 16  1  0
 16 17  1  0
 17 18  1  0
 18 19  1  0
 19 20  1  0
 20 21  1  0
 21 22  1  0
 22 23  1  0
 18 24  1  0
 15 25  1  0
 25 26  2  0
 26 27  1  0
 27 28  2  0
 28 29  1  0
 29 30  2  0
 12  3  1  0
 30 13  1  0
 11  5  1  0
 24 15  1  0
 30 25  1  0
 23 20  1  0
  4 31  1  0
  8 32  1  0
  9 33  1  0
 10 34  1  0
 12 35  1  0
 14 36  1  0
 14 37  1  0
 16 38  1  0
 16 39  1  0
 17 40  1  0
 17 41  1  0
 19 42  1  0
 19 43  1  0
 20 44  1  0
 21 45  1  0
 21 46  1  0
 22 47  1  0
 22 48  1  0
 23 49  1  0
 23 50  1  0
 24 51  1  0
 24 52  1  0
 26 53  1  0
 27 54  1  0
 28 55  1  0
 29 56  1  0
M  END
>  <smiles>  (49) 
O=C(c1cc2c(F)cccc2[nH]1)N1C[C@@]2(CCN(CC3CCC3)C2)c2ccccc21

>  <score_type>  (49) 
oracle

>  <origin>  (49) 
autodockgpu

>  <m_score__min__energy>  (49) 
-8.1199999999999992

>  <m_primary>  (49) 
energy

>  <rmsd>  (49) 
6.884299253981193

>  <m_score__min__rmsd>  (49) 
6.884299253981193

>  <meeko>  (49) 
{"free_energy": -7.34, "intermolecular_energy": -8.54, "internal_energy": -1.65, "cluster_size": 3, "cluster_id": 6, "rank_in_cluster": 2}

>  <energy>  (49) 
-7.34

>  <cluster_rmsd>  (49) 
0.04

>  <cluster>  (49) 
6

$$$$

     RDKit          3D

 56 61  0  0  0  0  0  0  0  0999 V2000
  139.0830   70.5190  221.8060 O   0  0  0  0  0  0  0  0  0  0  0  0
  139.5560   71.3650  222.6530 C   0  0  0  0  0  0  0  0  0  0  0  0
  139.8180   70.7940  223.9500 C   0  0  0  0  0  0  0  0  0  0  0  0
  139.6110   69.5600  224.4990 C   0  0  0  0  0  0  0  0  0  0  0  0
  140.0180   69.5510  225.8080 C   0  0  0  0  0  0  0  0  0  0  0  0
  140.0140   68.5610  226.7780 C   0  0  0  0  0  0  0  0  0  0  0  0
  139.5560   67.3080  226.5310 F   0  0  0  0  0  0  0  0  0  0  0  0
  140.5100   68.9060  228.0300 C   0  0  0  0  0  0  0  0  0  0  0  0
  140.9890   70.1840  228.3090 C   0  0  0  0  0  0  0  0  0  0  0  0
  140.9790   71.1510  227.3200 C   0  0  0  0  0  0  0  0  0  0  0  0
  140.4870   70.8130  226.0680 C   0  0  0  0  0  0  0  0  0  0  0  0
  140.3610   71.5340  224.9560 N   0  0  0  0  0  0  0  0  0  0  0  0
  139.7280   72.6690  222.1830 N   0  0  0  0  0  0  0  0  0  0  0  0
  141.0700   73.2680  221.9710 C   0  0  0  0  0  0  0  0  0  0  0  0
  140.8770   74.1530  220.7740 C   0  0  2  0  0  0  0  0  0  0  0  0
  141.0310   73.3930  219.5020 C   0  0  0  0  0  0  0  0  0  0  0  0
  141.9890   74.2600  218.6860 C   0  0  0  0  0  0  0  0  0  0  0  0
  142.6690   75.0980  219.5710 N   0  0  0  0  0  0  0  0  0  0  0  0
  144.0110   74.9670  219.9050 C   0  0  0  0  0  0  0  0  0  0  0  0
  144.4650   73.8540  220.7750 C   0  0  0  0  0  0  0  0  0  0  0  0
  144.4450   72.4480  220.3220 C   0  0  0  0  0  0  0  0  0  0  0  0
  145.9450   72.4740  220.1200 C   0  0  0  0  0  0  0  0  0  0  0  0
  145.9730   73.7590  220.9590 C   0  0  0  0  0  0  0  0  0  0  0  0
  141.8470   75.3070  220.7370 C   0  0  0  0  0  0  0  0  0  0  0  0
  139.4700   74.6040  220.9470 C   0  0  0  0  0  0  0  0  0  0  0  0
  138.7620   75.6860  220.4510 C   0  0  0  0  0  0  0  0  0  0  0  0
  137.4320   75.9060  220.7630 C   0  0  0  0  0  0  0  0  0  0  0  0
  136.8150   74.9920  221.6000 C   0  0  0  0  0  0  0  0  0  0  0  0
  137.5280   73.9170  222.0910 C   0  0  0  0  0  0  0  0  0  0  0  0
  138.8460   73.6910  221.7870 C   0  0  0  0  0  0  0  0  0  0  0  0
  139.1802   68.6986  223.9676 H   0  0  0  0  0  0  0  0  0  0  0  0
  140.5247   68.1461  228.8252 H   0  0  0  0  0  0  0  0  0  0  0  0
  141.3735   70.4231  229.3115 H   0  0  0  0  0  0  0  0  0  0  0  0
  141.3530   72.1656  227.5220 H   0  0  0  0  0  0  0  0  0  0  0  0
  140.6570   72.5520  224.8890 H   0  0  0  0  0  0  0  0  0  0  0  0
  141.3808   73.8554  222.8476 H   0  0  0  0  0  0  0  0  0  0  0  0
  141.8561   72.5131  221.8219 H   0  0  0  0  0  0  0  0  0  0  0  0
  141.4616   72.3979  219.6876 H   0  0  0  0  0  0  0  0  0  0  0  0
  140.0739   73.2121  218.9909 H   0  0  0  0  0  0  0  0  0  0  0  0
  142.7066   73.6214  218.1500 H   0  0  0  0  0  0  0  0  0  0  0  0
  141.4323   74.8545  217.9467 H   0  0  0  0  0  0  0  0  0  0  0  0
  144.5637   74.8729  218.9586 H   0  0  0  0  0  0  0  0  0  0  0  0
  144.2004   75.8572  220.5228 H   0  0  0  0  0  0  0  0  0  0  0  0
  143.7662   74.1289  221.5788 H   0  0  0  0  0  0  0  0  0  0  0  0
  144.1102   71.7359  221.0907 H   0  0  0  0  0  0  0  0  0  0  0  0
  143.7832   72.1440  219.4977 H   0  0  0  0  0  0  0  0  0  0  0  0
  146.4821   71.6239  220.5660 H   0  0  0  0  0  0  0  0  0  0  0  0
  146.3929   72.4303  219.1163 H   0  0  0  0  0  0  0  0  0  0  0  0
  146.2974   73.6169  222.0004 H   0  0  0  0  0  0  0  0  0  0  0  0
  146.6356   74.5979  220.6999 H   0  0  0  0  0  0  0  0  0  0  0  0
  142.4671   75.3143  221.6455 H   0  0  0  0  0  0  0  0  0  0  0  0
  141.3225   76.2729  220.6924 H   0  0  0  0  0  0  0  0  0  0  0  0
  139.2752   76.3957  219.7854 H   0  0  0  0  0  0  0  0  0  0  0  0
  136.8865   76.7729  220.3618 H   0  0  0  0  0  0  0  0  0  0  0  0
  135.7575   75.1224  221.8735 H   0  0  0  0  0  0  0  0  0  0  0  0
  137.0149   73.2082  222.7575 H   0  0  0  0  0  0  0  0  0  0  0  0
  1  2  2  0
  2  3  1  0
  3  4  2  0
  4  5  1  0
  5  6  2  0
  6  7  1  0
  6  8  1  0
  8  9  2  0
  9 10  1  0
 10 11  2  0
 11 12  1  0
  2 13  1  0
 13 14  1  0
 15 14  1  1
 15 16  1  0
 16 17  1  0
 17 18  1  0
 18 19  1  0
 19 20  1  0
 20 21  1  0
 21 22  1  0
 22 23  1  0
 18 24  1  0
 15 25  1  0
 25 26  2  0
 26 27  1  0
 27 28  2  0
 28 29  1  0
 29 30  2  0
 12  3  1  0
 30 13  1  0
 11  5  1  0
 24 15  1  0
 30 25  1  0
 23 20  1  0
  4 31  1  0
  8 32  1  0
  9 33  1  0
 10 34  1  0
 12 35  1  0
 14 36  1  0
 14 37  1  0
 16 38  1  0
 16 39  1  0
 17 40  1  0
 17 41  1  0
 19 42  1  0
 19 43  1  0
 20 44  1  0
 21 45  1  0
 21 46  1  0
 22 47  1  0
 22 48  1  0
 23 49  1  0
 23 50  1  0
 24 51  1  0
 24 52  1  0
 26 53  1  0
 27 54  1  0
 28 55  1  0
 29 56  1  0
M  END
>  <smiles>  (50) 
O=C(c1cc2c(F)cccc2[nH]1)N1C[C@@]2(CCN(CC3CCC3)C2)c2ccccc21

>  <score_type>  (50) 
oracle

>  <origin>  (50) 
autodockgpu

>  <m_score__min__energy>  (50) 
-8.1199999999999992

>  <m_primary>  (50) 
energy

>  <rmsd>  (50) 
4.670926174598793

>  <m_score__min__rmsd>  (50) 
4.670926174598793

>  <meeko>  (50) 
{"free_energy": -7.75, "intermolecular_energy": -8.94, "internal_energy": -1.29, "cluster_size": 22, "cluster_id": 4, "rank_in_cluster": 20}

>  <energy>  (50) 
-7.32

>  <cluster_rmsd>  (50) 
0.12

>  <cluster>  (50) 
6

$$$$
