
     RDKit          3D

 74 80  0  0  0  0  0  0  0  0999 V2000
  133.8730   70.1950  226.8360 C   0  0  0  0  0  0  0  0  0  0  0  0
  134.6720   69.9710  225.7290 C   0  0  0  0  0  0  0  0  0  0  0  0
  135.1030   71.0220  224.9650 C   0  0  0  0  0  0  0  0  0  0  0  0
  134.7660   72.3500  225.2560 C   0  0  0  0  0  0  0  0  0  0  0  0
  135.2790   73.4360  224.4010 C   0  0  0  0  0  0  0  0  0  0  0  0
  134.2120   74.3150  224.0340 N   0  0  0  0  0  0  0  0  0  0  0  0
  134.6480   75.6710  223.9890 C   0  0  0  0  0  0  0  0  0  0  0  0
  135.5350   75.6980  222.7380 C   0  0  0  0  0  0  0  0  0  0  0  0
  134.8020   74.7560  221.8100 C   0  0  1  0  0  0  0  0  0  0  0  0
  135.6840   73.7830  221.1880 N   0  0  0  0  0  0  0  0  0  0  0  0
  137.0680   73.7370  221.5660 C   0  0  0  0  0  0  0  0  0  0  0  0
  137.9400   74.6730  221.1680 N   0  0  0  0  0  0  0  0  0  0  0  0
  139.2270   74.6180  221.5280 C   0  0  0  0  0  0  0  0  0  0  0  0
  140.1630   75.6160  221.1050 N   0  0  0  0  0  0  0  0  0  0  0  0
  140.1160   76.2500  219.8170 C   0  0  0  0  0  0  0  0  0  0  0  0
  140.3440   77.7330  219.8560 C   0  0  0  0  0  0  0  0  0  0  0  0
  140.6820   78.2570  221.1850 C   0  0  0  0  0  0  0  0  0  0  0  0
  140.5760   79.6190  221.3930 C   0  0  0  0  0  0  0  0  0  0  0  0
  140.8900   80.1450  222.6420 C   0  0  0  0  0  0  0  0  0  0  0  0
  141.3090   79.3370  223.6910 C   0  0  0  0  0  0  0  0  0  0  0  0
  141.4100   77.9830  223.4720 C   0  0  0  0  0  0  0  0  0  0  0  0
  141.0960   77.4770  222.2280 C   0  0  0  0  0  0  0  0  0  0  0  0
  141.2130   76.0140  222.0220 C   0  0  0  0  0  0  0  0  0  0  0  0
  139.6540   73.5990  222.3060 N   0  0  0  0  0  0  0  0  0  0  0  0
  138.7970   72.6320  222.7290 C   0  0  0  0  0  0  0  0  0  0  0  0
  139.2210   71.5490  223.5490 N   0  0  0  0  0  0  0  0  0  0  0  0
  138.3000   70.4690  223.8380 C   0  0  0  0  0  0  0  0  0  0  0  0
  139.1070   69.3610  224.4900 C   0  0  0  0  0  0  0  0  0  0  0  0
  139.7040   69.9940  225.7140 C   0  0  0  0  0  0  0  0  0  0  0  0
  139.5090   69.4770  226.9770 C   0  0  0  0  0  0  0  0  0  0  0  0
  140.1210   70.1630  228.0220 C   0  0  0  0  0  0  0  0  0  0  0  0
  140.8740   71.2910  227.8050 C   0  0  0  0  0  0  0  0  0  0  0  0
  141.0640   71.8000  226.5380 C   0  0  0  0  0  0  0  0  0  0  0  0
  140.4610   71.1260  225.4970 C   0  0  0  0  0  0  0  0  0  0  0  0
  140.5860   71.5720  224.0720 C   0  0  0  0  0  0  0  0  0  0  0  0
  137.5130   72.7320  222.3400 N   0  0  0  0  0  0  0  0  0  0  0  0
  133.7540   74.0880  222.6700 C   0  0  0  0  0  0  0  0  0  0  0  0
  133.9690   72.5310  226.3640 C   0  0  0  0  0  0  0  0  0  0  0  0
  133.5290   71.4930  227.1410 C   0  0  0  0  0  0  0  0  0  0  0  0
  133.5215   69.3576  227.4567 H   0  0  0  0  0  0  0  0  0  0  0  0
  134.9621   68.9442  225.4616 H   0  0  0  0  0  0  0  0  0  0  0  0
  135.7374   70.8160  224.0903 H   0  0  0  0  0  0  0  0  0  0  0  0
  136.0446   74.0024  224.9516 H   0  0  0  0  0  0  0  0  0  0  0  0
  135.7187   73.0020  223.4909 H   0  0  0  0  0  0  0  0  0  0  0  0
  133.7956   76.3586  223.8859 H   0  0  0  0  0  0  0  0  0  0  0  0
  135.1707   75.9922  224.9020 H   0  0  0  0  0  0  0  0  0  0  0  0
  135.5952   76.7108  222.3130 H   0  0  0  0  0  0  0  0  0  0  0  0
  136.5788   75.4081  222.9291 H   0  0  0  0  0  0  0  0  0  0  0  0
  134.3564   75.3025  220.9657 H   0  0  0  0  0  0  0  0  0  0  0  0
  135.3590   73.1020  220.4670 H   0  0  0  0  0  0  0  0  0  0  0  0
  140.8911   75.7978  219.1808 H   0  0  0  0  0  0  0  0  0  0  0  0
  139.1004   76.0951  219.4238 H   0  0  0  0  0  0  0  0  0  0  0  0
  141.1703   77.9727  219.1707 H   0  0  0  0  0  0  0  0  0  0  0  0
  139.3950   78.2057  219.5628 H   0  0  0  0  0  0  0  0  0  0  0  0
  140.2465   80.2810  220.5787 H   0  0  0  0  0  0  0  0  0  0  0  0
  140.8041   81.2297  222.8030 H   0  0  0  0  0  0  0  0  0  0  0  0
  141.5540   79.7692  224.6724 H   0  0  0  0  0  0  0  0  0  0  0  0
  141.7374   77.3116  224.2795 H   0  0  0  0  0  0  0  0  0  0  0  0
  142.1969   75.7729  221.5933 H   0  0  0  0  0  0  0  0  0  0  0  0
  141.1142   75.4797  222.9784 H   0  0  0  0  0  0  0  0  0  0  0  0
  137.5130   70.8167  224.5233 H   0  0  0  0  0  0  0  0  0  0  0  0
  137.8130   70.1115  222.9188 H   0  0  0  0  0  0  0  0  0  0  0  0
  138.4562   68.5186  224.7671 H   0  0  0  0  0  0  0  0  0  0  0  0
  139.8746   68.9531  223.8159 H   0  0  0  0  0  0  0  0  0  0  0  0
  138.9045   68.5742  227.1490 H   0  0  0  0  0  0  0  0  0  0  0  0
  139.9982   69.7915  229.0501 H   0  0  0  0  0  0  0  0  0  0  0  0
  141.3367   71.8006  228.6630 H   0  0  0  0  0  0  0  0  0  0  0  0
  141.6689   72.7024  226.3653 H   0  0  0  0  0  0  0  0  0  0  0  0
  141.0032   72.5885  224.0199 H   0  0  0  0  0  0  0  0  0  0  0  0
  141.2618   70.9249  223.4936 H   0  0  0  0  0  0  0  0  0  0  0  0
  132.7671   74.5463  222.5087 H   0  0  0  0  0  0  0  0  0  0  0  0
  133.6374   73.0192  222.4375 H   0  0  0  0  0  0  0  0  0  0  0  0
  133.6727   73.5545  226.6370 H   0  0  0  0  0  0  0  0  0  0  0  0
  132.8953   71.6977  228.0165 H   0  0  0  0  0  0  0  0  0  0  0  0
  1  2  2  0
  2  3  1  0
  3  4  2  0
  4  5  1  0
  5  6  1  0
  6  7  1  0
  7  8  1  0
  8  9  1  0
  9 10  1  0
 10 11  1  0
 11 12  2  0
 12 13  1  0
 13 14  1  0
 14 15  1  0
 15 16  1  0
 16 17  1  0
 17 18  2  0
 18 19  1  0
 19 20  2  0
 20 21  1  0
 21 22  2  0
 22 23  1  0
 13 24  2  0
 24 25  1  0
 25 26  1  0
 26 27  1  0
 27 28  1  0
 28 29  1  0
 29 30  2  0
 30 31  1  0
 31 32  2  0
 32 33  1  0
 33 34  2  0
 34 35  1  0
 25 36  2  0
  9 37  1  0
  4 38  1  0
 38 39  2  0
 39  1  1  0
 37  6  1  0
 36 11  1  0
 23 14  1  0
 35 26  1  0
 22 17  1  0
 34 29  1  0
  1 40  1  0
  2 41  1  0
  3 42  1  0
  5 43  1  0
  5 44  1  0
  7 45  1  0
  7 46  1  0
  8 47  1  0
  8 48  1  0
  9 49  1  6
 10 50  1  0
 15 51  1  0
 15 52  1  0
 16 53  1  0
 16 54  1  0
 18 55  1  0
 19 56  1  0
 20 57  1  0
 21 58  1  0
 23 59  1  0
 23 60  1  0
 27 61  1  0
 27 62  1  0
 28 63  1  0
 28 64  1  0
 30 65  1  0
 31 66  1  0
 32 67  1  0
 33 68  1  0
 35 69  1  0
 35 70  1  0
 37 71  1  0
 37 72  1  0
 38 73  1  0
 39 74  1  0
M  END
