@<TRIPOS>MOLECULE
*****
 48 52 0 0 0
SMALL
GASTEIGER

@<TRIPOS>ATOM
      1 O         139.2430   67.7730  225.3310 O.2     1  UNL1       -0.1577
      2 S         139.2140   68.9560  224.4190 S.O2    1  UNL1        0.0370
      3 O         138.0060   69.7960  224.8060 O.2     1  UNL1       -0.1577
      4 C         140.6780   69.9080  224.7320 C.3     1  UNL1        0.1069
      5 C         140.5940   70.6050  226.0470 C.ar    1  UNL1       -0.0250
      6 C         141.2150   71.8400  226.2540 C.ar    1  UNL1       -0.0570
      7 C         141.0820   72.4010  227.4920 C.ar    1  UNL1       -0.0615
      8 C         140.3850   71.8340  228.5370 C.ar    1  UNL1       -0.0617
      9 C         139.7710   70.6090  228.3300 C.ar    1  UNL1       -0.0615
     10 C         139.8950   70.0350  227.0970 C.ar    1  UNL1       -0.0570
     11 N         139.0420   68.4790  222.8190 N.3     1  UNL1       -0.1647
     12 C         138.1280   67.4080  222.5810 C.3     1  UNL1        0.0465
     13 C         136.8600   68.1200  222.2770 C.ar    1  UNL1       -0.0266
     14 C         135.5100   67.7670  222.3570 C.ar    1  UNL1       -0.0570
     15 C         134.5180   68.6770  221.9870 C.ar    1  UNL1       -0.0614
     16 C         134.8690   69.9500  221.5320 C.ar    1  UNL1       -0.0614
     17 C         136.2130   70.2950  221.4560 C.ar    1  UNL1       -0.0564
     18 C         137.1970   69.3780  221.8280 C.ar    1  UNL1       -0.0198
     19 C         138.7020   69.4540  221.8560 C.3     1  UNL1        0.0839
     20 C         139.1790   70.8140  222.0490 C.ar    1  UNL1        0.0007
     21 C         138.7070   71.8730  222.7900 C.ar    1  UNL1        0.0078
     22 N         139.4950   72.9530  222.6370 N.ar    1  UNL1       -0.3603
     23 C         140.4950   72.6400  221.8030 C.ar    1  UNL1        0.0468
     24 C         141.5370   73.4250  221.3570 C.ar    1  UNL1       -0.0378
     25 C         142.4540   72.8770  220.4920 C.ar    1  UNL1       -0.0598
     26 C         142.3010   71.5590  220.0990 C.ar    1  UNL1       -0.0611
     27 C         141.2560   70.7860  220.5530 C.ar    1  UNL1       -0.0523
     28 C         140.3260   71.3230  221.4230 C.ar    1  UNL1        0.0047
     29 H         141.5491   69.2364  224.7364 H       1  UNL1        0.0565
     30 H         140.7779   70.6656  223.9408 H       1  UNL1        0.0565
     31 H         141.7852   72.3376  225.4557 H       1  UNL1        0.0621
     32 H         141.5651   73.3736  227.6674 H       1  UNL1        0.0618
     33 H         140.3177   72.3410  229.5109 H       1  UNL1        0.0618
     34 H         139.2027   70.1154  229.1321 H       1  UNL1        0.0618
     35 H         139.4106   69.0619  226.9283 H       1  UNL1        0.0621
     36 H         138.4515   66.7930  221.7283 H       1  UNL1        0.0493
     37 H         138.0441   66.7104  223.4274 H       1  UNL1        0.0493
     38 H         135.2273   66.7656  222.7138 H       1  UNL1        0.0621
     39 H         133.4580   68.3909  222.0539 H       1  UNL1        0.0618
     40 H         134.0915   70.6703  221.2376 H       1  UNL1        0.0618
     41 H         136.5025   71.2951  221.1011 H       1  UNL1        0.0621
     42 H         139.2128   69.2230  220.9096 H       1  UNL1        0.0580
     43 H         137.8072   71.8411  223.4220 H       1  UNL1        0.0810
     44 H         139.3480   73.8900  223.1000 H       1  UNL1        0.1653
     45 H         141.6327   74.4699  221.6871 H       1  UNL1        0.0638
     46 H         143.2966   73.4770  220.1179 H       1  UNL1        0.0618
     47 H         143.0328   71.1177  219.4064 H       1  UNL1        0.0618
     48 H         141.1613   69.7409  220.2232 H       1  UNL1        0.0624
@<TRIPOS>BOND
     1     1     2    2
     2     2     3    2
     3     2     4    1
     4     4     5    1
     5     5     6   ar
     6     6     7   ar
     7     7     8   ar
     8     8     9   ar
     9     9    10   ar
    10     2    11    1
    11    11    12    1
    12    12    13    1
    13    13    14   ar
    14    14    15   ar
    15    15    16   ar
    16    16    17   ar
    17    17    18   ar
    18    18    19    1
    19    19    20    1
    20    20    21   ar
    21    21    22   ar
    22    22    23   ar
    23    23    24   ar
    24    24    25   ar
    25    25    26   ar
    26    26    27   ar
    27    27    28   ar
    28    10     5   ar
    29    19    11    1
    30    28    20   ar
    31    18    13   ar
    32    28    23   ar
    33     4    29    1
    34     4    30    1
    35     6    31    1
    36     7    32    1
    37     8    33    1
    38     9    34    1
    39    10    35    1
    40    12    36    1
    41    12    37    1
    42    14    38    1
    43    15    39    1
    44    16    40    1
    45    17    41    1
    46    19    42    1
    47    21    43    1
    48    22    44    1
    49    24    45    1
    50    25    46    1
    51    26    47    1
    52    27    48    1
