@<TRIPOS>MOLECULE
*****
 56 61 0 0 0
SMALL
GASTEIGER

@<TRIPOS>ATOM
      1 O         139.5060   71.7720  221.3910 O.2     1  UNL1       -0.2680
      2 C         140.5550   71.9290  222.1200 C.2     1  UNL1        0.2672
      3 C         140.4180   71.3850  223.4480 C.ar    1  UNL1        0.1034
      4 C         140.6970   71.8620  224.6970 C.ar    1  UNL1       -0.0214
      5 C         140.4050   70.9110  225.6420 C.ar    1  UNL1        0.0356
      6 C         140.5130   70.9070  227.0240 C.ar    1  UNL1        0.1325
      7 F         140.9740   71.9790  227.7170 F       1  UNL1       -0.2048
      8 C         140.1220   69.7470  227.6810 C.ar    1  UNL1       -0.0257
      9 C         139.6430   68.6330  226.9930 C.ar    1  UNL1       -0.0571
     10 C         139.5470   68.6680  225.6140 C.ar    1  UNL1       -0.0376
     11 C         139.9350   69.8240  224.9520 C.ar    1  UNL1        0.0498
     12 N         139.9490   70.1230  223.6550 N.ar    1  UNL1       -0.3505
     13 N         141.6260   72.5900  221.5150 N.am    1  UNL1       -0.2651
     14 C         142.9080   71.9080  221.2030 C.3     1  UNL1        0.0310
     15 C         143.3560   72.5640  219.9280 C.3     1  UNL1        0.0275
     16 C         142.7380   71.9190  218.7360 C.3     1  UNL1       -0.0278
     17 C         143.9280   71.6800  217.8070 C.3     1  UNL1       -0.0002
     18 N         145.0890   71.7070  218.5820 N.3     1  UNL1       -0.3011
     19 C         145.8590   70.5910  218.8860 C.3     1  UNL1        0.0017
     20 C         145.3670   69.2280  218.5650 C.3     1  UNL1       -0.0282
     21 C         146.2610   68.0520  218.5750 C.3     1  UNL1       -0.0490
     22 C         145.6800   67.6010  219.8980 C.3     1  UNL1       -0.0525
     23 C         144.5230   68.5790  219.6530 C.3     1  UNL1       -0.0490
     24 C         144.8520   72.5260  219.7450 C.3     1  UNL1        0.0101
     25 C         142.8440   73.9500  220.0980 C.ar    1  UNL1       -0.0170
     26 C         143.1910   75.1590  219.5180 C.ar    1  UNL1       -0.0562
     27 C         142.5610   76.3460  219.8460 C.ar    1  UNL1       -0.0614
     28 C         141.5500   76.2900  220.7900 C.ar    1  UNL1       -0.0600
     29 C         141.2100   75.0820  221.3650 C.ar    1  UNL1       -0.0400
     30 C         141.8290   73.9010  221.0460 C.ar    1  UNL1        0.0404
     31 H         141.0977   72.8632  224.9139 H       1  UNL1        0.0647
     32 H         140.1925   69.7062  228.7780 H       1  UNL1        0.0646
     33 H         139.3427   67.7301  227.5448 H       1  UNL1        0.0619
     34 H         139.1714   67.7987  225.0543 H       1  UNL1        0.0638
     35 H         139.6280   69.4480  222.9000 H       1  UNL1        0.1660
     36 H         143.6430   72.0670  222.0058 H       1  UNL1        0.0478
     37 H         142.7998   70.8175  221.1075 H       1  UNL1        0.0478
     38 H         142.2543   70.9694  219.0085 H       1  UNL1        0.0287
     39 H         141.9497   72.5326  218.2755 H       1  UNL1        0.0287
     40 H         143.8286   70.7004  217.3166 H       1  UNL1        0.0427
     41 H         143.9686   72.4561  217.0285 H       1  UNL1        0.0427
     42 H         146.8154   70.7139  218.3567 H       1  UNL1        0.0429
     43 H         145.8784   70.5951  219.9858 H       1  UNL1        0.0429
     44 H         144.9694   69.5443  217.5894 H       1  UNL1        0.0313
     45 H         146.0844   67.3497  217.7470 H       1  UNL1        0.0268
     46 H         147.3476   68.1847  218.4667 H       1  UNL1        0.0268
     47 H         145.3851   66.5418  219.9314 H       1  UNL1        0.0265
     48 H         146.2702   67.6266  220.8259 H       1  UNL1        0.0265
     49 H         143.5965   68.1085  219.2920 H       1  UNL1        0.0268
     50 H         144.0905   69.1716  220.4726 H       1  UNL1        0.0268
     51 H         145.3342   72.0833  220.6290 H       1  UNL1        0.0436
     52 H         145.2684   73.5362  219.6183 H       1  UNL1        0.0436
     53 H         143.9968   75.1758  218.7694 H       1  UNL1        0.0621
     54 H         142.8518   77.2967  219.3754 H       1  UNL1        0.0618
     55 H         141.0179   77.2075  221.0817 H       1  UNL1        0.0618
     56 H         140.4048   75.0662  222.1142 H       1  UNL1        0.0636
@<TRIPOS>BOND
     1     1     2    2
     2     2     3    1
     3     3     4   ar
     4     4     5   ar
     5     5     6   ar
     6     6     7    1
     7     6     8   ar
     8     8     9   ar
     9     9    10   ar
    10    10    11   ar
    11    11    12   ar
    12     2    13   am
    13    13    14    1
    14    15    14    1
    15    15    16    1
    16    16    17    1
    17    17    18    1
    18    18    19    1
    19    19    20    1
    20    20    21    1
    21    21    22    1
    22    22    23    1
    23    18    24    1
    24    15    25    1
    25    25    26   ar
    26    26    27   ar
    27    27    28   ar
    28    28    29   ar
    29    29    30   ar
    30    12     3   ar
    31    30    13    1
    32    11     5   ar
    33    24    15    1
    34    30    25   ar
    35    23    20    1
    36     4    31    1
    37     8    32    1
    38     9    33    1
    39    10    34    1
    40    12    35    1
    41    14    36    1
    42    14    37    1
    43    16    38    1
    44    16    39    1
    45    17    40    1
    46    17    41    1
    47    19    42    1
    48    19    43    1
    49    20    44    1
    50    21    45    1
    51    21    46    1
    52    22    47    1
    53    22    48    1
    54    23    49    1
    55    23    50    1
    56    24    51    1
    57    24    52    1
    58    26    53    1
    59    27    54    1
    60    28    55    1
    61    29    56    1
