
     RDKit          3D

 44 47  0  0  0  0  0  0  0  0999 V2000
  138.6660   78.7070  223.0690 C   0  0  0  0  0  0  0  0  0  0  0  0
  139.9880   78.4790  222.2830 C   0  0  2  0  0  0  0  0  0  0  0  0
  140.2930   77.0610  222.2290 N   0  0  0  0  0  0  0  0  0  0  0  0
  141.1820   76.5220  221.2840 C   0  0  0  0  0  0  0  0  0  0  0  0
  141.7050   77.3670  220.4510 O   0  0  0  0  0  0  0  0  0  0  0  0
  141.5850   75.1530  221.1310 C   0  0  0  0  0  0  0  0  0  0  0  0
  142.7400   74.7570  220.4890 C   0  0  0  0  0  0  0  0  0  0  0  0
  143.1000   73.4400  220.3550 C   0  0  0  0  0  0  0  0  0  0  0  0
  140.7900   74.1230  221.6460 C   0  0  0  0  0  0  0  0  0  0  0  0
  145.0000   73.8740  219.2040 O   0  0  0  0  0  0  0  0  0  0  0  0
  144.5160   71.6730  219.5720 N   0  0  0  0  0  0  0  0  0  0  0  0
  145.6020   71.2440  218.9080 C   0  0  0  0  0  0  0  0  0  0  0  0
  145.8900   69.9060  218.7600 C   0  0  0  0  0  0  0  0  0  0  0  0
  145.0700   68.9390  219.2930 C   0  0  0  0  0  0  0  0  0  0  0  0
  143.9480   69.3750  219.9770 C   0  0  0  0  0  0  0  0  0  0  0  0
  143.6960   70.7350  220.1010 C   0  0  0  0  0  0  0  0  0  0  0  0
  142.5660   71.1390  220.7650 N   0  0  0  0  0  0  0  0  0  0  0  0
  142.2780   72.4470  220.8860 C   0  0  0  0  0  0  0  0  0  0  0  0
  141.1480   72.8170  221.5160 N   0  0  0  0  0  0  0  0  0  0  0  0
  144.2390   73.0110  219.6900 C   0  0  0  0  0  0  0  0  0  0  0  0
  139.6710   74.3140  222.2480 N   0  0  0  0  0  0  0  0  0  0  0  0
  141.0140   79.3450  222.8140 C   0  0  0  0  0  0  0  0  0  0  0  0
  140.6370   80.4510  223.5810 C   0  0  0  0  0  0  0  0  0  0  0  0
  141.5510   81.3310  224.0800 C   0  0  0  0  0  0  0  0  0  0  0  0
  142.9310   81.2060  223.8710 C   0  0  0  0  0  0  0  0  0  0  0  0
  143.3060   80.0950  223.1020 C   0  0  0  0  0  0  0  0  0  0  0  0
  142.3730   79.2100  222.6020 C   0  0  0  0  0  0  0  0  0  0  0  0
  138.8709   78.6717  224.1492 H   0  0  0  0  0  0  0  0  0  0  0  0
  138.2486   79.6904  222.8070 H   0  0  0  0  0  0  0  0  0  0  0  0
  137.9433   77.9202  222.8070 H   0  0  0  0  0  0  0  0  0  0  0  0
  139.8989   78.7704  221.2261 H   0  0  0  0  0  0  0  0  0  0  0  0
  139.8410   76.3920  222.9130 H   0  0  0  0  0  0  0  0  0  0  0  0
  143.3998   75.5294  220.0670 H   0  0  0  0  0  0  0  0  0  0  0  0
  146.2839   71.9865  218.4679 H   0  0  0  0  0  0  0  0  0  0  0  0
  146.7914   69.6051  218.2059 H   0  0  0  0  0  0  0  0  0  0  0  0
  145.2953   67.8682  219.1810 H   0  0  0  0  0  0  0  0  0  0  0  0
  143.2565   68.6444  220.4220 H   0  0  0  0  0  0  0  0  0  0  0  0
  140.5270   72.0610  221.9270 H   0  0  0  0  0  0  0  0  0  0  0  0
  139.3620   73.7620  223.0460 H   0  0  0  0  0  0  0  0  0  0  0  0
  139.5695   80.6166  223.7885 H   0  0  0  0  0  0  0  0  0  0  0  0
  141.1873   82.1810  224.6760 H   0  0  0  0  0  0  0  0  0  0  0  0
  143.6610   81.9215  224.2773 H   0  0  0  0  0  0  0  0  0  0  0  0
  144.3722   79.9245  222.8918 H   0  0  0  0  0  0  0  0  0  0  0  0
  142.7278   78.3561  222.0062 H   0  0  0  0  0  0  0  0  0  0  0  0
  1  2  1  0
  2  3  1  0
  3  4  1  0
  4  5  2  0
  4  6  1  0
  6  7  2  0
  7  8  1  0
  8  9  1  0
  9 10  2  0
  9 11  1  0
 11 12  1  0
 12 13  2  0
 13 14  1  0
 14 15  2  0
 15 16  1  0
 16 17  2  0
 17 18  1  0
 18 19  1  0
 19 20  1  0
 20 21  2  3
  2 22  1  0
 22 23  2  0
 23 24  1  0
 24 25  2  0
 25 26  1  0
 26 27  2  0
 20  6  1  0
 27 22  1  0
 18  8  2  0
 16 11  1  0
  1 28  1  0
  1 29  1  0
  1 30  1  0
  2 31  1  6
  3 32  1  0
  7 33  1  0
 12 34  1  0
 13 35  1  0
 14 36  1  0
 15 37  1  0
 19 38  1  0
 21 39  1  0
 23 40  1  0
 24 41  1  0
 25 42  1  0
 26 43  1  0
 27 44  1  0
M  END
