
 61 65  0  0  0  0  0  0  0  0999 V2000
  140.1860   70.9120  221.3460 O   0  0  0  0  0  0  0  0  0  0  0  0
  139.8440   71.3910  222.4620 C   0  0  0  0  0  0  0  0  0  0  0  0
  139.4260   72.7900  222.5190 N   0  0  0  0  0  0  0  0  0  0  0  0
  139.4490   73.4850  221.2810 C   0  0  0  0  0  0  0  0  0  0  0  0
  140.6290   74.2810  220.9810 C   0  0  0  0  0  0  0  0  0  0  0  0
  141.7240   73.7940  221.4920 O   0  0  0  0  0  0  0  0  0  0  0  0
  140.8170   75.4650  220.2530 N   0  0  0  0  0  0  0  0  0  0  0  0
  140.0150   76.7110  220.4120 C   0  0  0  0  0  0  0  0  0  0  0  0
  141.0570   77.8040  220.1140 C   0  0  0  0  0  0  0  0  0  0  0  0
  142.3690   77.0380  219.8160 C   0  0  2  0  0  0  0  0  0  0  0  0
  143.1660   77.7110  218.9250 O   0  0  0  0  0  0  0  0  0  0  0  0
  141.7180   75.7850  219.2160 C   0  0  1  0  0  0  0  0  0  0  0  0
  142.5650   74.9010  218.4560 C   0  0  0  0  0  0  0  0  0  0  0  0
  143.5450   74.0500  219.1280 C   0  0  0  0  0  0  0  0  0  0  0  0
  144.3730   74.7060  220.0660 C   0  0  0  0  0  0  0  0  0  0  0  0
  145.3110   74.0210  220.8030 C   0  0  0  0  0  0  0  0  0  0  0  0
  145.4610   72.6690  220.6390 C   0  0  0  0  0  0  0  0  0  0  0  0
  144.6730   71.9890  219.7360 C   0  0  0  0  0  0  0  0  0  0  0  0
  144.8670   70.5520  219.5950 C   0  0  0  0  0  0  0  0  0  0  0  0
  143.8610   69.6260  219.7300 C   0  0  0  0  0  0  0  0  0  0  0  0
  144.0670   68.2570  219.5920 C   0  0  0  0  0  0  0  0  0  0  0  0
  145.3440   67.8380  219.3050 C   0  0  0  0  0  0  0  0  0  0  0  0
  146.3140   68.7980  219.1770 C   0  0  0  0  0  0  0  0  0  0  0  0
  146.0930   70.1150  219.3160 N   0  0  0  0  0  0  0  0  0  0  0  0
  143.7430   72.7090  219.0150 C   0  0  0  0  0  0  0  0  0  0  0  0
  139.8590   70.5830  223.6680 C   0  0  0  0  0  0  0  0  0  0  0  0
  139.2980   69.3310  223.6360 C   0  0  0  0  0  0  0  0  0  0  0  0
  139.2880   68.5160  224.7720 C   0  0  0  0  0  0  0  0  0  0  0  0
  139.8700   69.0290  225.9260 C   0  0  0  0  0  0  0  0  0  0  0  0
  139.9220   68.3210  227.1090 C   0  0  0  0  0  0  0  0  0  0  0  0
  140.4990   68.8300  228.2590 C   0  0  0  0  0  0  0  0  0  0  0  0
  140.5440   68.1240  229.4160 F   0  0  0  0  0  0  0  0  0  0  0  0
  141.0580   70.1080  228.2420 C   0  0  0  0  0  0  0  0  0  0  0  0
  141.0070   70.8190  227.0610 C   0  0  0  0  0  0  0  0  0  0  0  0
  140.4310   70.3110  225.9180 C   0  0  0  0  0  0  0  0  0  0  0  0
  140.4230   71.0680  224.8090 N   0  0  0  0  0  0  0  0  0  0  0  0
  139.1380   73.0920  223.4540 H   0  0  0  0  0  0  0  0  0  0  0  0
  139.3435   72.7373  220.4811 H   0  0  0  0  0  0  0  0  0  0  0  0
  138.6290   74.2146  221.3532 H   0  0  0  0  0  0  0  0  0  0  0  0
  139.1833   76.7452  219.6929 H   0  0  0  0  0  0  0  0  0  0  0  0
  139.5400   76.8091  221.3993 H   0  0  0  0  0  0  0  0  0  0  0  0
  140.7518   78.4014  219.2422 H   0  0  0  0  0  0  0  0  0  0  0  0
  141.1705   78.5059  220.9534 H   0  0  0  0  0  0  0  0  0  0  0  0
  143.0556   76.8704  220.6589 H   0  0  0  0  0  0  0  0  0  0  0  0
  144.0720   77.8530  219.3300 H   0  0  0  0  0  0  0  0  0  0  0  0
  141.1364   75.8218  218.2831 H   0  0  0  0  0  0  0  0  0  0  0  0
  141.8973   74.2301  217.8955 H   0  0  0  0  0  0  0  0  0  0  0  0
  143.1950   75.5964  217.8820 H   0  0  0  0  0  0  0  0  0  0  0  0
  144.2650   75.7911  220.2105 H   0  0  0  0  0  0  0  0  0  0  0  0
  145.9419   74.5597  221.5254 H   0  0  0  0  0  0  0  0  0  0  0  0
  146.2126   72.1249  221.2299 H   0  0  0  0  0  0  0  0  0  0  0  0
  142.8459   69.9835  219.9577 H   0  0  0  0  0  0  0  0  0  0  0  0
  143.2415   67.5393  219.7079 H   0  0  0  0  0  0  0  0  0  0  0  0
  145.5793   66.7705  219.1824 H   0  0  0  0  0  0  0  0  0  0  0  0
  147.3378   68.4687  218.9459 H   0  0  0  0  0  0  0  0  0  0  0  0
  143.1166   72.1592  218.2972 H   0  0  0  0  0  0  0  0  0  0  0  0
  138.8491   68.9628  222.7017 H   0  0  0  0  0  0  0  0  0  0  0  0
  138.8390   67.5120  224.7537 H   0  0  0  0  0  0  0  0  0  0  0  0
  139.4872   67.3110  227.1392 H   0  0  0  0  0  0  0  0  0  0  0  0
  141.5247   70.5352  229.1418 H   0  0  0  0  0  0  0  0  0  0  0  0
  141.4424   71.8287  227.0312 H   0  0  0  0  0  0  0  0  0  0  0  0
  1  2  2  0
  2  3  1  0
  3  4  1  0
  4  5  1  0
  5  6  2  0
  5  7  1  0
  7  8  1  0
  8  9  1  0
  9 10  1  0
 10 11  1  0
 10 12  1  0
 12 13  1  0
 13 14  1  0
 14 15  2  0
 15 16  1  0
 16 17  2  0
 17 18  1  0
 18 19  1  0
 19 20  2  0
 20 21  1  0
 21 22  2  0
 22 23  1  0
 23 24  2  0
 18 25  2  0
  2 26  1  0
 26 27  2  0
 27 28  1  0
 28 29  2  0
 29 30  1  0
 30 31  2  0
 31 32  1  0
 31 33  1  0
 33 34  2  0
 34 35  1  0
 35 36  2  0
 12  7  1  0
 25 14  1  0
 36 26  1  0
 24 19  1  0
 35 29  1  0
  3 37  1  0
  4 38  1  0
  4 39  1  0
  8 40  1  0
  8 41  1  0
  9 42  1  0
  9 43  1  0
 10 44  1  1
 11 45  1  0
 12 46  1  6
 13 47  1  0
 13 48  1  0
 15 49  1  0
 16 50  1  0
 17 51  1  0
 20 52  1  0
 21 53  1  0
 22 54  1  0
 23 55  1  0
 25 56  1  0
 27 57  1  0
 28 58  1  0
 30 59  1  0
 33 60  1  0
 34 61  1  0
M  END
