@<TRIPOS>MOLECULE
*****
 65 69 0 0 0
SMALL
GASTEIGER

@<TRIPOS>ATOM
      1 C         138.8360   81.2250  223.7240 C.ar    1  UNL1       -0.0615
      2 C         137.6930   80.4710  223.4610 C.ar    1  UNL1       -0.0615
      3 C         137.7660   79.1440  223.0990 C.ar    1  UNL1       -0.0583
      4 C         139.0130   78.5330  222.9910 C.ar    1  UNL1       -0.0435
      5 C         140.1220   79.3050  223.2570 C.ar    1  UNL1       -0.0441
      6 C         140.0840   80.6220  223.6180 C.ar    1  UNL1       -0.0583
      7 C         141.4490   78.6070  223.1290 C.3     1  UNL1       -0.0268
      8 C         141.4180   77.9170  221.7850 C.3     1  UNL1       -0.0390
      9 C         140.2580   77.0010  221.5910 C.3     1  UNL1        0.0233
     10 C         140.8130   75.6070  221.4770 C.ar    1  UNL1        0.1366
     11 N         140.1660   74.5620  222.0180 N.ar    1  UNL1       -0.2172
     12 C         140.6090   73.2840  221.9500 C.ar    1  UNL1        0.1241
     13 N         139.8880   72.2010  222.5440 N.pl3   1  UNL1       -0.3277
     14 C         139.0300   71.4310  221.7150 C.3     1  UNL1        0.0232
     15 C         137.6740   71.9720  221.4600 C.3     1  UNL1        0.0146
     16 N         137.5250   73.3040  221.0680 N.3     1  UNL1       -0.2965
     17 C         137.4160   73.6330  219.6960 C.3     1  UNL1        0.0225
     18 C         138.0190   75.0400  219.5340 C.3     1  UNL1        0.0604
     19 O         137.4870   75.9360  220.4280 O.3     1  UNL1       -0.3772
     20 C         136.4260   75.4190  221.1690 C.3     1  UNL1        0.0604
     21 C         136.9710   74.2460  221.9640 C.3     1  UNL1        0.0225
     22 C         141.8020   73.0960  221.2730 C.ar    1  UNL1        0.0181
     23 C         142.5110   74.1340  220.6950 C.ar    1  UNL1        0.1266
     24 N         143.7490   73.9220  220.0030 N.pl3   1  UNL1       -0.3126
     25 C         143.7760   73.8740  218.5560 C.3     1  UNL1        0.0261
     26 C         144.8270   72.9150  218.0440 C.3     1  UNL1        0.0117
     27 N         146.0670   73.0270  218.7690 N.3     1  UNL1       -0.3130
     28 C         145.9230   72.8830  220.1830 C.3     1  UNL1        0.0117
     29 C         144.9290   73.7790  220.8330 C.3     1  UNL1        0.0261
     30 N         141.9740   75.3680  220.8240 N.ar    1  UNL1       -0.2169
     31 C         139.1720   77.1080  222.6100 C.3     1  UNL1       -0.0177
     32 H         138.7513   82.2833  224.0117 H       1  UNL1        0.0618
     33 H         136.7058   80.9490  223.5449 H       1  UNL1        0.0618
     34 H         136.8482   78.5722  222.8971 H       1  UNL1        0.0620
     35 H         141.0077   81.1850  223.8176 H       1  UNL1        0.0620
     36 H         142.2716   79.3363  223.1672 H       1  UNL1        0.0313
     37 H         141.6137   77.8928  223.9492 H       1  UNL1        0.0313
     38 H         141.3816   78.6891  221.0024 H       1  UNL1        0.0275
     39 H         142.3231   77.2942  221.7303 H       1  UNL1        0.0275
     40 H         139.7343   77.3009  220.6713 H       1  UNL1        0.0383
     41 H         140.0550   72.0560  223.5650 H       1  UNL1        0.1475
     42 H         139.5282   71.3129  220.7414 H       1  UNL1        0.0474
     43 H         138.8637   70.4952  222.2687 H       1  UNL1        0.0474
     44 H         137.2274   71.3539  220.6673 H       1  UNL1        0.0442
     45 H         137.1942   71.9400  222.4493 H       1  UNL1        0.0442
     46 H         137.9745   72.9078  219.0859 H       1  UNL1        0.0449
     47 H         136.3677   73.6091  219.3635 H       1  UNL1        0.0449
     48 H         139.1055   74.9809  219.6951 H       1  UNL1        0.0572
     49 H         137.7846   75.3942  218.5193 H       1  UNL1        0.0572
     50 H         136.0315   76.1869  221.8507 H       1  UNL1        0.0572
     51 H         135.6053   75.0996  220.5100 H       1  UNL1        0.0572
     52 H         137.7493   74.5990  222.6566 H       1  UNL1        0.0449
     53 H         136.1602   73.7786  222.5421 H       1  UNL1        0.0449
     54 H         142.2042   72.0755  221.1910 H       1  UNL1        0.0686
     55 H         142.7901   73.5487  218.1924 H       1  UNL1        0.0477
     56 H         144.0226   74.8800  218.1857 H       1  UNL1        0.0477
     57 H         144.4485   71.8873  218.1466 H       1  UNL1        0.0439
     58 H         145.0278   73.1652  216.9918 H       1  UNL1        0.0439
     59 H         146.7020   73.7690  218.4550 H       1  UNL1        0.1220
     60 H         145.6233   71.8444  220.3865 H       1  UNL1        0.0439
     61 H         146.8974   73.1628  220.6098 H       1  UNL1        0.0439
     62 H         144.6380   73.3516  221.8039 H       1  UNL1        0.0477
     63 H         145.3848   74.7701  220.9738 H       1  UNL1        0.0477
     64 H         138.2293   76.7310  222.1867 H       1  UNL1        0.0320
     65 H         139.4310   76.5106  223.4966 H       1  UNL1        0.0320
@<TRIPOS>BOND
     1     1     2   ar
     2     2     3   ar
     3     3     4   ar
     4     4     5   ar
     5     5     6   ar
     6     5     7    1
     7     7     8    1
     8     8     9    1
     9     9    10    1
    10    10    11   ar
    11    11    12   ar
    12    12    13    1
    13    13    14    1
    14    14    15    1
    15    15    16    1
    16    16    17    1
    17    17    18    1
    18    18    19    1
    19    19    20    1
    20    20    21    1
    21    12    22   ar
    22    22    23   ar
    23    23    24    1
    24    24    25    1
    25    25    26    1
    26    26    27    1
    27    27    28    1
    28    28    29    1
    29    23    30   ar
    30     9    31    1
    31     6     1   ar
    32    30    10   ar
    33    31     4    1
    34    21    16    1
    35    29    24    1
    36     1    32    1
    37     2    33    1
    38     3    34    1
    39     6    35    1
    40     7    36    1
    41     7    37    1
    42     8    38    1
    43     8    39    1
    44     9    40    1
    45    13    41    1
    46    14    42    1
    47    14    43    1
    48    15    44    1
    49    15    45    1
    50    17    46    1
    51    17    47    1
    52    18    48    1
    53    18    49    1
    54    20    50    1
    55    20    51    1
    56    21    52    1
    57    21    53    1
    58    22    54    1
    59    25    55    1
    60    25    56    1
    61    26    57    1
    62    26    58    1
    63    27    59    1
    64    28    60    1
    65    28    61    1
    66    29    62    1
    67    29    63    1
    68    31    64    1
    69    31    65    1
