@<TRIPOS>MOLECULE
*****
 51 54 0 0 0
SMALL
GASTEIGER

@<TRIPOS>ATOM
      1 O         139.0780   70.8220  221.4610 O.2     1  UNL1       -0.2685
      2 C         139.3550   71.4920  222.5120 C.2     1  UNL1        0.2628
      3 N         139.4280   72.9150  222.4950 N.am    1  UNL1       -0.3015
      4 C         139.1840   73.6320  221.2630 C.3     1  UNL1        0.0887
      5 C         139.4110   75.0660  221.4490 C.2     1  UNL1        0.2332
      6 O         138.5950   75.7010  222.1790 O.2     1  UNL1       -0.2739
      7 N         140.5220   75.6810  220.8110 N.am    1  UNL1       -0.2931
      8 C         141.7860   74.9870  220.6720 C.3     1  UNL1        0.0153
      9 C         142.8640   75.8330  220.0890 C.3     1  UNL1       -0.0371
     10 C         142.4610   76.5950  218.8450 C.3     1  UNL1       -0.0496
     11 C         141.0540   77.0860  218.8830 C.3     1  UNL1       -0.0301
     12 C         140.4490   77.0430  220.2650 C.3     1  UNL1        0.0512
     13 C         141.0730   78.0200  221.1610 C.ar    1  UNL1       -0.0269
     14 C         141.0790   77.7260  222.5230 C.ar    1  UNL1       -0.0554
     15 C         141.6490   78.5990  223.4490 C.ar    1  UNL1       -0.0431
     16 C         142.2270   79.7840  223.0550 C.ar    1  UNL1        0.0410
     17 CL        142.9560   80.9160  224.1740 Cl      1  UNL1       -0.0835
     18 C         142.2270   80.0850  221.7100 C.ar    1  UNL1       -0.0431
     19 C         141.6540   79.2050  220.7920 C.ar    1  UNL1       -0.0554
     20 C         139.6030   70.7880  223.7660 C.ar    1  UNL1        0.1260
     21 C         139.3360   69.4300  223.8600 C.ar    1  UNL1       -0.0306
     22 C         139.5590   68.7180  225.0360 C.ar    1  UNL1       -0.0504
     23 C         140.0590   69.4090  226.1230 C.ar    1  UNL1        0.0004
     24 C         140.2730   68.6870  227.2800 C.ar    1  UNL1       -0.0526
     25 C         140.7700   69.3680  228.3630 C.ar    1  UNL1       -0.0611
     26 C         141.0580   70.7300  228.3310 C.ar    1  UNL1       -0.0597
     27 C         140.8170   71.3920  227.1300 C.ar    1  UNL1       -0.0357
     28 C         140.3210   70.7600  226.0170 C.ar    1  UNL1        0.0718
     29 N         140.0850   71.3900  224.8520 N.ar    1  UNL1       -0.2421
     30 H         139.6620   73.3980  223.4020 H       1  UNL1        0.1496
     31 H         139.8645   73.2560  220.4848 H       1  UNL1        0.0558
     32 H         138.1379   73.4743  220.9616 H       1  UNL1        0.0558
     33 H         142.1088   74.6477  221.6673 H       1  UNL1        0.0465
     34 H         141.6215   74.1480  219.9799 H       1  UNL1        0.0465
     35 H         143.1790   76.5612  220.8509 H       1  UNL1        0.0280
     36 H         143.6707   75.1482  219.7885 H       1  UNL1        0.0280
     37 H         143.1300   77.4612  218.7343 H       1  UNL1        0.0266
     38 H         142.5398   75.8987  217.9971 H       1  UNL1        0.0266
     39 H         141.0364   78.1261  218.5253 H       1  UNL1        0.0286
     40 H         140.4568   76.4201  218.2427 H       1  UNL1        0.0286
     41 H         139.3885   77.3234  220.1833 H       1  UNL1        0.0550
     42 H         140.6255   76.7875  222.8744 H       1  UNL1        0.0621
     43 H         141.6363   78.3349  224.5167 H       1  UNL1        0.0632
     44 H         142.6809   81.0235  221.3590 H       1  UNL1        0.0632
     45 H         141.6691   79.4739  219.7255 H       1  UNL1        0.0621
     46 H         138.9373   68.9011  222.9818 H       1  UNL1        0.0641
     47 H         139.3441   67.6409  225.0974 H       1  UNL1        0.0625
     48 H         140.0542   67.6102  227.3318 H       1  UNL1        0.0624
     49 H         140.9485   68.8141  229.2964 H       1  UNL1        0.0618
     50 H         141.4561   71.2568  229.2108 H       1  UNL1        0.0618
     51 H         141.0336   72.4688  227.0705 H       1  UNL1        0.0639
@<TRIPOS>BOND
     1     1     2    2
     2     2     3   am
     3     3     4    1
     4     4     5    1
     5     5     6    2
     6     5     7   am
     7     7     8    1
     8     8     9    1
     9     9    10    1
    10    10    11    1
    11    11    12    1
    12    12    13    1
    13    13    14   ar
    14    14    15   ar
    15    15    16   ar
    16    16    17    1
    17    16    18   ar
    18    18    19   ar
    19     2    20    1
    20    20    21   ar
    21    21    22   ar
    22    22    23   ar
    23    23    24   ar
    24    24    25   ar
    25    25    26   ar
    26    26    27   ar
    27    27    28   ar
    28    28    29   ar
    29    12     7    1
    30    19    13   ar
    31    29    20   ar
    32    28    23   ar
    33     3    30    1
    34     4    31    1
    35     4    32    1
    36     8    33    1
    37     8    34    1
    38     9    35    1
    39     9    36    1
    40    10    37    1
    41    10    38    1
    42    11    39    1
    43    11    40    1
    44    12    41    1
    45    14    42    1
    46    15    43    1
    47    18    44    1
    48    19    45    1
    49    21    46    1
    50    22    47    1
    51    24    48    1
    52    25    49    1
    53    26    50    1
    54    27    51    1
