@<TRIPOS>MOLECULE
*****
 58 61 0 0 0
SMALL
GASTEIGER

@<TRIPOS>ATOM
      1 C         142.9680   79.9640  222.5360 C.3     1  UNL1       -0.0425
      2 C         141.7520   79.1810  222.9980 C.3     1  UNL1        0.0456
      3 N         141.6120   78.0750  222.0670 N.am    1  UNL1       -0.3072
      4 C         141.3170   78.2600  220.6860 C.2     1  UNL1        0.2340
      5 O         141.1560   79.3860  220.1680 O.2     1  UNL1       -0.2738
      6 C         141.2040   77.0150  219.8510 C.3     1  UNL1        0.1023
      7 C         142.3400   77.0340  218.8660 C.3     1  UNL1       -0.0243
      8 C         142.8950   75.6290  218.9610 C.3     1  UNL1       -0.0350
      9 C         142.7130   75.3720  220.4620 C.3     1  UNL1        0.0156
     10 N         141.3590   75.8440  220.6810 N.am    1  UNL1       -0.2886
     11 C         140.3380   75.3210  221.5200 C.2     1  UNL1        0.2334
     12 O         139.9380   75.9230  222.5470 O.2     1  UNL1       -0.2739
     13 C         139.7550   74.0060  221.1180 C.3     1  UNL1        0.0887
     14 N         139.5520   73.1870  222.2900 N.am    1  UNL1       -0.3015
     15 C         140.4920   72.1410  222.5490 C.2     1  UNL1        0.2628
     16 O         141.4750   71.9440  221.7690 O.2     1  UNL1       -0.2685
     17 C         140.3050   71.2970  223.7350 C.ar    1  UNL1        0.1260
     18 C         139.6080   70.1080  223.6030 C.ar    1  UNL1       -0.0306
     19 C         139.3900   69.2580  224.6740 C.ar    1  UNL1       -0.0503
     20 C         139.8800   69.6020  225.9150 C.ar    1  UNL1        0.0031
     21 C         139.6900   68.7880  227.0190 C.ar    1  UNL1       -0.0173
     22 C         140.1870   69.1490  228.2470 C.ar    1  UNL1        0.1241
     23 F         139.9780   68.3220  229.3010 F       1  UNL1       -0.2055
     24 C         140.8730   70.3280  228.3570 C.ar    1  UNL1       -0.0244
     25 C         141.0700   71.1490  227.2600 C.ar    1  UNL1       -0.0330
     26 C         140.5790   70.8100  226.0070 C.ar    1  UNL1        0.0720
     27 N         140.7680   71.6060  224.9410 N.ar    1  UNL1       -0.2421
     28 C         140.5440   80.0480  223.0460 C.ar    1  UNL1       -0.0275
     29 C         139.4510   79.7010  223.8480 C.ar    1  UNL1       -0.0568
     30 C         138.3330   80.5080  223.8890 C.ar    1  UNL1       -0.0614
     31 C         138.2400   81.6670  223.1600 C.ar    1  UNL1       -0.0617
     32 C         139.3160   82.0280  222.3570 C.ar    1  UNL1       -0.0614
     33 C         140.4430   81.2190  222.3130 C.ar    1  UNL1       -0.0568
     34 H         143.5270   80.3239  223.4123 H       1  UNL1        0.0251
     35 H         143.6152   79.3125  221.9305 H       1  UNL1        0.0251
     36 H         142.6428   80.8228  221.9305 H       1  UNL1        0.0251
     37 H         141.8727   78.8024  224.0237 H       1  UNL1        0.0545
     38 H         141.7390   77.1170  222.4590 H       1  UNL1        0.1493
     39 H         140.2232   76.9840  219.3540 H       1  UNL1        0.0597
     40 H         141.9786   77.2486  217.8495 H       1  UNL1        0.0288
     41 H         143.0879   77.8115  219.0811 H       1  UNL1        0.0288
     42 H         142.3159   74.9192  218.3521 H       1  UNL1        0.0281
     43 H         143.9247   75.5116  218.5922 H       1  UNL1        0.0281
     44 H         142.8077   74.3022  220.6997 H       1  UNL1        0.0465
     45 H         143.4653   75.8672  221.0935 H       1  UNL1        0.0465
     46 H         138.7905   74.1715  220.6156 H       1  UNL1        0.0558
     47 H         140.4456   73.4952  220.4308 H       1  UNL1        0.0558
     48 H         138.7670   73.3040  222.9610 H       1  UNL1        0.1496
     49 H         139.2143   69.8294  222.6144 H       1  UNL1        0.0641
     50 H         138.8326   68.3198  224.5359 H       1  UNL1        0.0625
     51 H         139.1360   67.8438  226.9112 H       1  UNL1        0.0653
     52 H         141.2754   70.6290  229.3355 H       1  UNL1        0.0647
     53 H         141.6271   72.0893  227.3840 H       1  UNL1        0.0640
     54 H         139.4835   78.7801  224.4487 H       1  UNL1        0.0621
     55 H         137.4875   80.2126  224.5276 H       1  UNL1        0.0618
     56 H         137.3376   82.2941  223.2097 H       1  UNL1        0.0618
     57 H         139.2744   82.9505  221.7593 H       1  UNL1        0.0618
     58 H         141.2861   81.5185  221.6731 H       1  UNL1        0.0621
@<TRIPOS>BOND
     1     1     2    1
     2     2     3    1
     3     3     4   am
     4     4     5    2
     5     4     6    1
     6     6     7    1
     7     7     8    1
     8     8     9    1
     9     9    10    1
    10    10    11   am
    11    11    12    2
    12    11    13    1
    13    13    14    1
    14    14    15   am
    15    15    16    2
    16    15    17    1
    17    17    18   ar
    18    18    19   ar
    19    19    20   ar
    20    20    21   ar
    21    21    22   ar
    22    22    23    1
    23    22    24   ar
    24    24    25   ar
    25    25    26   ar
    26    26    27   ar
    27     2    28    1
    28    28    29   ar
    29    29    30   ar
    30    30    31   ar
    31    31    32   ar
    32    32    33   ar
    33    10     6    1
    34    27    17   ar
    35    33    28   ar
    36    26    20   ar
    37     1    34    1
    38     1    35    1
    39     1    36    1
    40     2    37    1
    41     3    38    1
    42     6    39    1
    43     7    40    1
    44     7    41    1
    45     8    42    1
    46     8    43    1
    47     9    44    1
    48     9    45    1
    49    13    46    1
    50    13    47    1
    51    14    48    1
    52    18    49    1
    53    19    50    1
    54    21    51    1
    55    24    52    1
    56    25    53    1
    57    29    54    1
    58    30    55    1
    59    31    56    1
    60    32    57    1
    61    33    58    1
