
 67 71  0  0  0  0  0  0  0  0999 V2000
  139.2860   77.2970  222.7060 O   0  0  0  0  0  0  0  0  0  0  0  0
  140.2180   76.6960  222.1130 C   0  0  0  0  0  0  0  0  0  0  0  0
  141.4370   77.3640  221.8360 N   0  0  0  0  0  0  0  0  0  0  0  0
  141.6290   78.7370  222.2290 C   0  0  0  0  0  0  0  0  0  0  0  0
  141.3980   79.7770  221.3330 C   0  0  0  0  0  0  0  0  0  0  0  0
  141.6080   81.0670  221.7960 C   0  0  0  0  0  0  0  0  0  0  0  0
  142.0260   81.3260  223.0840 C   0  0  0  0  0  0  0  0  0  0  0  0
  142.2560   80.2980  223.9760 C   0  0  0  0  0  0  0  0  0  0  0  0
  142.0470   78.9930  223.5200 C   0  0  0  0  0  0  0  0  0  0  0  0
  139.9770   75.3050  221.7350 C   0  0  0  0  0  0  0  0  0  0  0  0
  141.0660   74.4750  221.5810 C   0  0  0  0  0  0  0  0  0  0  0  0
  140.8820   73.1430  221.2220 C   0  0  0  0  0  0  0  0  0  0  0  0
  139.6290   72.6020  221.0080 C   0  0  0  0  0  0  0  0  0  0  0  0
  139.4440   71.2340  220.6390 N   0  0  0  0  0  0  0  0  0  0  0  0
  140.6190   70.4090  220.4240 C   0  0  0  0  0  0  0  0  0  0  0  0
  140.1160   68.9910  220.3000 C   0  0  2  0  0  0  0  0  0  0  0  0
  141.0980   68.1020  219.6080 C   0  0  0  0  0  0  0  0  0  0  0  0
  140.4080   67.6970  218.3160 C   0  0  0  0  0  0  0  0  0  0  0  0
  139.4440   68.8560  218.1390 C   0  0  0  0  0  0  0  0  0  0  0  0
  138.8780   68.9720  219.4450 N   0  0  0  0  0  0  0  0  0  0  0  0
  137.6160   69.0300  220.0270 C   0  0  0  0  0  0  0  0  0  0  0  0
  136.7970   69.8970  219.4810 O   0  0  0  0  0  0  0  0  0  0  0  0
  137.0060   68.3070  221.1380 C   0  0  0  0  0  0  0  0  0  0  0  0
  137.8110   68.3040  222.3200 N   0  0  0  0  0  0  0  0  0  0  0  0
  137.9890   69.5990  222.9590 C   0  0  0  0  0  0  0  0  0  0  0  0
  137.4220   70.5510  222.4080 O   0  0  0  0  0  0  0  0  0  0  0  0
  138.7960   69.6880  224.1690 C   0  0  0  0  0  0  0  0  0  0  0  0
  139.2510   70.9350  224.5400 C   0  0  0  0  0  0  0  0  0  0  0  0
  140.0230   71.1610  225.6590 C   0  0  0  0  0  0  0  0  0  0  0  0
  140.3330   70.0360  226.4240 C   0  0  0  0  0  0  0  0  0  0  0  0
  141.1090   70.2250  227.5590 C   0  0  0  0  0  0  0  0  0  0  0  0
  141.4340   69.1400  228.3370 C   0  0  0  0  0  0  0  0  0  0  0  0
  142.1960   69.2550  229.4710 F   0  0  0  0  0  0  0  0  0  0  0  0
  140.9710   67.8790  227.9590 C   0  0  0  0  0  0  0  0  0  0  0  0
  140.1970   67.7020  226.8210 C   0  0  0  0  0  0  0  0  0  0  0  0
  139.8690   68.8020  226.0360 C   0  0  0  0  0  0  0  0  0  0  0  0
  139.1140   68.6320  224.9270 N   0  0  0  0  0  0  0  0  0  0  0  0
  138.5480   73.4520  221.1660 C   0  0  0  0  0  0  0  0  0  0  0  0
  138.7150   74.7890  221.5260 C   0  0  0  0  0  0  0  0  0  0  0  0
  142.2150   76.8720  221.3440 H   0  0  0  0  0  0  0  0  0  0  0  0
  141.0636   79.5839  220.3030 H   0  0  0  0  0  0  0  0  0  0  0  0
  141.4354   81.9118  221.1130 H   0  0  0  0  0  0  0  0  0  0  0  0
  142.1784   82.3669  223.4055 H   0  0  0  0  0  0  0  0  0  0  0  0
  142.5904   80.4976  225.0047 H   0  0  0  0  0  0  0  0  0  0  0  0
  142.2196   78.1504  224.2057 H   0  0  0  0  0  0  0  0  0  0  0  0
  142.0817   74.8655  221.7419 H   0  0  0  0  0  0  0  0  0  0  0  0
  141.7655   72.4982  221.1045 H   0  0  0  0  0  0  0  0  0  0  0  0
  138.4640   70.8920  220.5400 H   0  0  0  0  0  0  0  0  0  0  0  0
  141.1358   70.7131  219.5018 H   0  0  0  0  0  0  0  0  0  0  0  0
  141.3384   70.5101  221.2499 H   0  0  0  0  0  0  0  0  0  0  0  0
  139.9352   68.6329  221.3243 H   0  0  0  0  0  0  0  0  0  0  0  0
  142.0307   68.6452  219.3959 H   0  0  0  0  0  0  0  0  0  0  0  0
  141.3764   67.2324  220.2214 H   0  0  0  0  0  0  0  0  0  0  0  0
  141.1196   67.6299  217.4799 H   0  0  0  0  0  0  0  0  0  0  0  0
  139.9316   66.7059  218.3431 H   0  0  0  0  0  0  0  0  0  0  0  0
  139.9733   69.7758  217.8495 H   0  0  0  0  0  0  0  0  0  0  0  0
  138.6995   68.6970  217.3450 H   0  0  0  0  0  0  0  0  0  0  0  0
  136.0408   68.7790  221.3739 H   0  0  0  0  0  0  0  0  0  0  0  0
  136.8885   67.2603  220.8207 H   0  0  0  0  0  0  0  0  0  0  0  0
  138.2600   67.4510  222.7310 H   0  0  0  0  0  0  0  0  0  0  0  0
  138.9837   71.7957  223.9093 H   0  0  0  0  0  0  0  0  0  0  0  0
  140.3735   72.1672  225.9325 H   0  0  0  0  0  0  0  0  0  0  0  0
  141.4596   71.2311  227.8325 H   0  0  0  0  0  0  0  0  0  0  0  0
  141.2254   67.0055  228.5772 H   0  0  0  0  0  0  0  0  0  0  0  0
  139.8451   66.6980  226.5416 H   0  0  0  0  0  0  0  0  0  0  0  0
  137.5319   73.0633  221.0036 H   0  0  0  0  0  0  0  0  0  0  0  0
  137.8338   75.4368  221.6441 H   0  0  0  0  0  0  0  0  0  0  0  0
  1  2  2  0
  2  3  1  0
  3  4  1  0
  4  5  2  0
  5  6  1  0
  6  7  2  0
  7  8  1  0
  8  9  2  0
  2 10  1  0
 10 11  2  0
 11 12  1  0
 12 13  2  0
 13 14  1  0
 14 15  1  0
 15 16  1  0
 16 17  1  0
 17 18  1  0
 18 19  1  0
 19 20  1  0
 20 21  1  0
 21 22  2  0
 21 23  1  0
 23 24  1  0
 24 25  1  0
 25 26  2  0
 25 27  1  0
 27 28  2  0
 28 29  1  0
 29 30  2  0
 30 31  1  0
 31 32  2  0
 32 33  1  0
 32 34  1  0
 34 35  2  0
 35 36  1  0
 36 37  2  0
 13 38  1  0
 38 39  2  0
  9  4  1  0
 39 10  1  0
 20 16  1  0
 37 27  1  0
 36 30  1  0
  3 40  1  0
  5 41  1  0
  6 42  1  0
  7 43  1  0
  8 44  1  0
  9 45  1  0
 11 46  1  0
 12 47  1  0
 14 48  1  0
 15 49  1  0
 15 50  1  0
 16 51  1  1
 17 52  1  0
 17 53  1  0
 18 54  1  0
 18 55  1  0
 19 56  1  0
 19 57  1  0
 23 58  1  0
 23 59  1  0
 24 60  1  0
 28 61  1  0
 29 62  1  0
 31 63  1  0
 34 64  1  0
 35 65  1  0
 38 66  1  0
 39 67  1  0
M  END
