@<TRIPOS>MOLECULE
*****
 52 55 0 0 0
SMALL
GASTEIGER

@<TRIPOS>ATOM
      1 O         139.8740   71.1820  221.2810 O.2     1  UNL1       -0.2685
      2 C         139.7920   71.7480  222.4230 C.2     1  UNL1        0.2628
      3 N         139.6070   73.1550  222.4630 N.am    1  UNL1       -0.3015
      4 C         139.5100   73.9560  221.2790 C.3     1  UNL1        0.0887
      5 C         140.1100   75.3020  221.4270 C.2     1  UNL1        0.2331
      6 O         139.4730   76.1740  222.0440 O.2     1  UNL1       -0.2739
      7 N         141.3940   75.5060  220.8420 N.am    1  UNL1       -0.2943
      8 C         142.4100   74.5220  220.5020 C.3     1  UNL1        0.0175
      9 C         142.9290   75.0930  219.1980 C.3     1  UNL1       -0.0092
     10 C         142.3850   76.5020  219.0760 C.3     1  UNL1        0.0755
     11 O         143.3340   77.3840  218.5830 O.3     1  UNL1       -0.3899
     12 C         141.9420   76.8040  220.4650 C.3     1  UNL1        0.0559
     13 C         140.9910   77.9310  220.5980 C.3     1  UNL1       -0.0066
     14 C         141.4240   78.8000  221.7130 C.ar    1  UNL1       -0.0455
     15 C         141.8540   80.1100  221.4730 C.ar    1  UNL1       -0.0585
     16 C         142.2550   80.9050  222.5290 C.ar    1  UNL1       -0.0615
     17 C         142.2540   80.4660  223.8390 C.ar    1  UNL1       -0.0617
     18 C         141.8240   79.1610  224.0720 C.ar    1  UNL1       -0.0615
     19 C         141.4200   78.3530  223.0290 C.ar    1  UNL1       -0.0585
     20 C         139.8830   70.9930  223.6640 C.ar    1  UNL1        0.1260
     21 C         139.4910   69.6710  223.7120 C.ar    1  UNL1       -0.0306
     22 C         139.6030   69.0220  224.9140 C.ar    1  UNL1       -0.0504
     23 C         140.0810   69.6060  226.0640 C.ar    1  UNL1        0.0004
     24 C         140.1820   68.9180  227.2700 C.ar    1  UNL1       -0.0526
     25 C         140.6790   69.6190  228.3580 C.ar    1  UNL1       -0.0611
     26 C         141.0560   70.9440  228.2470 C.ar    1  UNL1       -0.0597
     27 C         140.9550   71.6250  227.0550 C.ar    1  UNL1       -0.0357
     28 C         140.4630   70.9430  225.9640 C.ar    1  UNL1        0.0718
     29 N         140.3550   71.5870  224.7860 N.ar    1  UNL1       -0.2421
     30 H         139.5420   73.5980  223.4280 H       1  UNL1        0.1496
     31 H         140.0263   73.4324  220.4609 H       1  UNL1        0.0558
     32 H         138.4393   74.0995  221.0716 H       1  UNL1        0.0558
     33 H         143.1997   74.4741  221.2663 H       1  UNL1        0.0465
     34 H         142.0395   73.4886  220.4325 H       1  UNL1        0.0465
     35 H         144.0288   75.1134  219.2070 H       1  UNL1        0.0306
     36 H         142.6068   74.4756  218.3465 H       1  UNL1        0.0306
     37 H         141.5633   76.6019  218.3516 H       1  UNL1        0.0612
     38 H         143.8390   77.7340  219.3620 H       1  UNL1        0.2099
     39 H         142.7464   77.1742  221.1176 H       1  UNL1        0.0529
     40 H         140.9744   78.5113  219.6637 H       1  UNL1        0.0332
     41 H         139.9820   77.5427  220.8010 H       1  UNL1        0.0332
     42 H         141.8726   80.5053  220.4467 H       1  UNL1        0.0620
     43 H         142.5894   81.9315  222.3180 H       1  UNL1        0.0618
     44 H         142.5787   81.1186  224.6628 H       1  UNL1        0.0618
     45 H         141.8065   78.7703  225.1001 H       1  UNL1        0.0618
     46 H         141.0858   77.3275  223.2449 H       1  UNL1        0.0620
     47 H         139.1034   69.1575  222.8197 H       1  UNL1        0.0641
     48 H         139.2911   67.9682  224.9620 H       1  UNL1        0.0625
     49 H         139.8805   67.8636  227.3560 H       1  UNL1        0.0624
     50 H         140.7752   69.1106  229.3287 H       1  UNL1        0.0618
     51 H         141.4462   71.4670  229.1326 H       1  UNL1        0.0618
     52 H         141.2574   72.6797  226.9762 H       1  UNL1        0.0639
@<TRIPOS>BOND
     1     1     2    2
     2     2     3   am
     3     3     4    1
     4     4     5    1
     5     5     6    2
     6     5     7   am
     7     7     8    1
     8     8     9    1
     9     9    10    1
    10    10    11    1
    11    10    12    1
    12    12    13    1
    13    13    14    1
    14    14    15   ar
    15    15    16   ar
    16    16    17   ar
    17    17    18   ar
    18    18    19   ar
    19     2    20    1
    20    20    21   ar
    21    21    22   ar
    22    22    23   ar
    23    23    24   ar
    24    24    25   ar
    25    25    26   ar
    26    26    27   ar
    27    27    28   ar
    28    28    29   ar
    29    12     7    1
    30    19    14   ar
    31    29    20   ar
    32    28    23   ar
    33     3    30    1
    34     4    31    1
    35     4    32    1
    36     8    33    1
    37     8    34    1
    38     9    35    1
    39     9    36    1
    40    10    37    1
    41    11    38    1
    42    12    39    1
    43    13    40    1
    44    13    41    1
    45    15    42    1
    46    16    43    1
    47    17    44    1
    48    18    45    1
    49    19    46    1
    50    21    47    1
    51    22    48    1
    52    24    49    1
    53    25    50    1
    54    26    51    1
    55    27    52    1
