
     RDKit          3D

 63 67  0  0  0  0  0  0  0  0999 V2000
  138.4520   75.1600  221.6660 O   0  0  0  0  0  0  0  0  0  0  0  0
  139.6490   75.5040  221.9240 C   0  0  0  0  0  0  0  0  0  0  0  0
  140.7490   74.6090  221.7610 N   0  0  0  0  0  0  0  0  0  0  0  0
  140.5700   73.2850  221.2920 C   0  0  0  0  0  0  0  0  0  0  0  0
  141.6070   72.6470  220.5000 C   0  0  0  0  0  0  0  0  0  0  0  0
  141.2220   71.5460  219.9130 O   0  0  0  0  0  0  0  0  0  0  0  0
  142.9480   73.0440  220.2870 N   0  0  0  0  0  0  0  0  0  0  0  0
  144.0830   72.3030  219.7590 C   0  0  0  0  0  0  0  0  0  0  0  0
  144.9790   73.4260  219.1740 C   0  0  2  0  0  0  0  0  0  0  0  0
  146.2680   72.9830  218.9590 O   0  0  0  0  0  0  0  0  0  0  0  0
  144.8580   74.4020  220.3330 C   0  0  0  0  0  0  0  0  0  0  0  0
  143.3900   74.4110  220.6140 C   0  0  1  0  0  0  0  0  0  0  0  0
  142.7790   75.4190  219.7100 C   0  0  0  0  0  0  0  0  0  0  0  0
  142.7260   75.1410  218.4920 O   0  0  0  0  0  0  0  0  0  0  0  0
  142.2590   76.6570  220.1330 N   0  0  0  0  0  0  0  0  0  0  0  0
  141.6970   77.5420  219.1510 C   0  0  1  0  0  0  0  0  0  0  0  0
  140.5960   78.4740  219.6400 C   0  0  0  0  0  0  0  0  0  0  0  0
  141.1430   79.4780  218.6450 C   0  0  1  0  0  0  0  0  0  0  0  0
  141.0970   80.8830  219.0640 C   0  0  0  0  0  0  0  0  0  0  0  0
  141.2670   81.9080  218.1270 C   0  0  0  0  0  0  0  0  0  0  0  0
  141.2150   83.2200  218.5530 C   0  0  0  0  0  0  0  0  0  0  0  0
  141.0010   83.5200  219.8820 C   0  0  0  0  0  0  0  0  0  0  0  0
  140.8290   82.5240  220.8370 C   0  0  0  0  0  0  0  0  0  0  0  0
  140.8840   81.2230  220.3830 C   0  0  0  0  0  0  0  0  0  0  0  0
  142.5050   78.8040  218.8740 C   0  0  0  0  0  0  0  0  0  0  0  0
  139.9190   76.8700  222.4080 C   0  0  0  0  0  0  0  0  0  0  0  0
  138.9140   77.7220  222.7750 C   0  0  0  0  0  0  0  0  0  0  0  0
  139.1620   79.0120  223.2340 C   0  0  0  0  0  0  0  0  0  0  0  0
  140.4650   79.4530  223.3250 C   0  0  0  0  0  0  0  0  0  0  0  0
  140.7280   80.7380  223.7820 C   0  0  0  0  0  0  0  0  0  0  0  0
  142.0420   81.1540  223.8650 C   0  0  0  0  0  0  0  0  0  0  0  0
  142.3810   82.3890  224.2980 F   0  0  0  0  0  0  0  0  0  0  0  0
  143.0600   80.2820  223.4900 C   0  0  0  0  0  0  0  0  0  0  0  0
  142.7700   79.0280  223.0460 C   0  0  0  0  0  0  0  0  0  0  0  0
  141.4690   78.5810  222.9510 C   0  0  0  0  0  0  0  0  0  0  0  0
  141.1860   77.3370  222.5110 N   0  0  0  0  0  0  0  0  0  0  0  0
  141.7230   74.9590  222.0020 H   0  0  0  0  0  0  0  0  0  0  0  0
  140.4139   72.6528  222.1786 H   0  0  0  0  0  0  0  0  0  0  0  0
  139.7339   73.3795  220.5835 H   0  0  0  0  0  0  0  0  0  0  0  0
  144.6046   71.7542  220.5570 H   0  0  0  0  0  0  0  0  0  0  0  0
  143.8006   71.5393  219.0194 H   0  0  0  0  0  0  0  0  0  0  0  0
  144.7017   73.8294  218.1889 H   0  0  0  0  0  0  0  0  0  0  0  0
  146.7920   73.7960  218.6990 H   0  0  0  0  0  0  0  0  0  0  0  0
  145.4256   74.0500  221.2070 H   0  0  0  0  0  0  0  0  0  0  0  0
  145.2613   75.3993  220.1034 H   0  0  0  0  0  0  0  0  0  0  0  0
  143.1152   74.6699  221.6472 H   0  0  0  0  0  0  0  0  0  0  0  0
  142.2850   76.9140  221.1390 H   0  0  0  0  0  0  0  0  0  0  0  0
  141.5121   76.7748  218.3847 H   0  0  0  0  0  0  0  0  0  0  0  0
  140.6777   78.7749  220.6949 H   0  0  0  0  0  0  0  0  0  0  0  0
  139.5368   78.1776  219.6569 H   0  0  0  0  0  0  0  0  0  0  0  0
  140.6925   79.6085  217.6500 H   0  0  0  0  0  0  0  0  0  0  0  0
  141.4395   81.6719  217.0666 H   0  0  0  0  0  0  0  0  0  0  0  0
  141.3455   84.0344  217.8252 H   0  0  0  0  0  0  0  0  0  0  0  0
  140.9655   84.5741  220.1945 H   0  0  0  0  0  0  0  0  0  0  0  0
  140.6582   82.7611  221.8975 H   0  0  0  0  0  0  0  0  0  0  0  0
  140.7506   80.4116  221.1137 H   0  0  0  0  0  0  0  0  0  0  0  0
  143.0779   79.1887  219.7306 H   0  0  0  0  0  0  0  0  0  0  0  0
  143.3197   78.8402  218.1358 H   0  0  0  0  0  0  0  0  0  0  0  0
  137.8725   77.3751  222.7048 H   0  0  0  0  0  0  0  0  0  0  0  0
  138.3293   79.6712  223.5205 H   0  0  0  0  0  0  0  0  0  0  0  0
  139.9068   81.4101  224.0717 H   0  0  0  0  0  0  0  0  0  0  0  0
  144.1084   80.6090  223.5529 H   0  0  0  0  0  0  0  0  0  0  0  0
  143.5918   78.3565  222.7566 H   0  0  0  0  0  0  0  0  0  0  0  0
  1  2  2  0
  2  3  1  0
  3  4  1  0
  4  5  1  0
  5  6  2  0
  5  7  1  0
  7  8  1  0
  8  9  1  0
  9 10  1  0
  9 11  1  0
 11 12  1  0
 12 13  1  0
 13 14  2  0
 13 15  1  0
 15 16  1  0
 16 17  1  0
 17 18  1  0
 18 19  1  0
 19 20  2  0
 20 21  1  0
 21 22  2  0
 22 23  1  0
 23 24  2  0
 18 25  1  0
  2 26  1  0
 26 27  2  0
 27 28  1  0
 28 29  2  0
 29 30  1  0
 30 31  2  0
 31 32  1  0
 31 33  1  0
 33 34  2  0
 34 35  1  0
 35 36  2  0
 12  7  1  0
 25 16  1  0
 36 26  1  0
 24 19  1  0
 35 29  1  0
  3 37  1  0
  4 38  1  0
  4 39  1  0
  8 40  1  0
  8 41  1  0
  9 42  1  6
 10 43  1  0
 11 44  1  0
 11 45  1  0
 12 46  1  1
 15 47  1  0
 16 48  1  6
 17 49  1  0
 17 50  1  0
 18 51  1  6
 20 52  1  0
 21 53  1  0
 22 54  1  0
 23 55  1  0
 24 56  1  0
 25 57  1  0
 25 58  1  0
 27 59  1  0
 28 60  1  0
 30 61  1  0
 33 62  1  0
 34 63  1  0
M  END
>  <smiles>  (1) 
O=C(NCC(=O)N1C[C@H](O)C[C@H]1C(=O)N[C@H]1C[C@@H](c2ccccc2)C1)c1ccc2cc(F)ccc2n1

>  <score_type>  (1) 
oracle

>  <origin>  (1) 
autodockgpu

>  <m_score__min__energy>  (1) 
-10.06

>  <m_primary>  (1) 
energy

>  <rmsd>  (1) 
6.815720539129713

>  <m_score__min__rmsd>  (1) 
6.815720539129713

>  <meeko>  (1) 
{"free_energy": -8.07, "intermolecular_energy": -10.46, "internal_energy": -4.26, "cluster_size": 13, "cluster_id": 6, "rank_in_cluster": 4}

>  <energy>  (1) 
-10.06

>  <cluster_rmsd>  (1) 
0.0

>  <cluster>  (1) 
1

$$$$

     RDKit          3D

 63 67  0  0  0  0  0  0  0  0999 V2000
  142.9700   77.0120  219.5710 O   0  0  0  0  0  0  0  0  0  0  0  0
  142.7720   77.6740  218.5040 C   0  0  0  0  0  0  0  0  0  0  0  0
  142.9070   77.0870  217.2090 N   0  0  0  0  0  0  0  0  0  0  0  0
  143.2610   75.7270  217.0400 C   0  0  0  0  0  0  0  0  0  0  0  0
  142.6670   74.7100  217.8890 C   0  0  0  0  0  0  0  0  0  0  0  0
  141.4050   74.4850  217.6400 O   0  0  0  0  0  0  0  0  0  0  0  0
  143.2530   73.9510  218.9300 N   0  0  0  0  0  0  0  0  0  0  0  0
  144.6490   73.7670  219.2990 C   0  0  0  0  0  0  0  0  0  0  0  0
  144.5590   73.4380  220.8120 C   0  0  2  0  0  0  0  0  0  0  0  0
  145.7270   72.8670  221.2740 O   0  0  0  0  0  0  0  0  0  0  0  0
  143.3950   72.4630  220.7350 C   0  0  0  0  0  0  0  0  0  0  0  0
  142.4140   73.1760  219.8620 C   0  0  1  0  0  0  0  0  0  0  0  0
  141.6070   74.0590  220.7420 C   0  0  0  0  0  0  0  0  0  0  0  0
  141.3670   73.6520  221.9000 O   0  0  0  0  0  0  0  0  0  0  0  0
  141.0980   75.3150  220.3600 N   0  0  0  0  0  0  0  0  0  0  0  0
  140.3270   76.0660  221.3120 C   0  0  1  0  0  0  0  0  0  0  0  0
  141.0710   76.5330  222.5560 C   0  0  0  0  0  0  0  0  0  0  0  0
  140.1790   77.7580  222.5060 C   0  0  1  0  0  0  0  0  0  0  0  0
  140.8020   79.0200  222.9160 C   0  0  0  0  0  0  0  0  0  0  0  0
  142.1810   79.2100  222.7710 C   0  0  0  0  0  0  0  0  0  0  0  0
  142.7370   80.4110  223.1640 C   0  0  0  0  0  0  0  0  0  0  0  0
  141.9490   81.4110  223.6940 C   0  0  0  0  0  0  0  0  0  0  0  0
  140.5750   81.2530  223.8510 C   0  0  0  0  0  0  0  0  0  0  0  0
  140.0470   80.0440  223.4490 C   0  0  0  0  0  0  0  0  0  0  0  0
  140.1480   77.5430  220.9850 C   0  0  0  0  0  0  0  0  0  0  0  0
  142.3910   79.0960  218.5960 C   0  0  0  0  0  0  0  0  0  0  0  0
  142.9260   80.0450  217.7700 C   0  0  0  0  0  0  0  0  0  0  0  0
  142.5700   81.3880  217.8510 C   0  0  0  0  0  0  0  0  0  0  0  0
  141.6450   81.7820  218.7940 C   0  0  0  0  0  0  0  0  0  0  0  0
  141.2780   83.1180  218.8860 C   0  0  0  0  0  0  0  0  0  0  0  0
  140.3490   83.4840  219.8390 C   0  0  0  0  0  0  0  0  0  0  0  0
  139.9420   84.7650  219.9930 F   0  0  0  0  0  0  0  0  0  0  0  0
  139.8080   82.5130  220.6760 C   0  0  0  0  0  0  0  0  0  0  0  0
  140.1870   81.2100  220.5610 C   0  0  0  0  0  0  0  0  0  0  0  0
  141.1130   80.8110  219.6210 C   0  0  0  0  0  0  0  0  0  0  0  0
  141.4860   79.5180  219.5100 N   0  0  0  0  0  0  0  0  0  0  0  0
  142.7340   77.7000  216.3580 H   0  0  0  0  0  0  0  0  0  0  0  0
  143.0102   75.4604  216.0027 H   0  0  0  0  0  0  0  0  0  0  0  0
  144.3230   75.7054  217.3259 H   0  0  0  0  0  0  0  0  0  0  0  0
  145.1016   72.9359  218.7382 H   0  0  0  0  0  0  0  0  0  0  0  0
  145.2786   74.6416  219.0783 H   0  0  0  0  0  0  0  0  0  0  0  0
  144.4199   74.2818  221.5039 H   0  0  0  0  0  0  0  0  0  0  0  0
  145.4610   71.9750  221.6460 H   0  0  0  0  0  0  0  0  0  0  0  0
  143.7070   71.5102  220.2824 H   0  0  0  0  0  0  0  0  0  0  0  0
  142.9851   72.1997  221.7212 H   0  0  0  0  0  0  0  0  0  0  0  0
  141.7219   72.5235  219.3095 H   0  0  0  0  0  0  0  0  0  0  0  0
  141.2830   75.6820  219.4060 H   0  0  0  0  0  0  0  0  0  0  0  0
  139.4818   75.3642  221.3682 H   0  0  0  0  0  0  0  0  0  0  0  0
  142.1424   76.7331  222.4078 H   0  0  0  0  0  0  0  0  0  0  0  0
  141.1650   75.9082  223.4564 H   0  0  0  0  0  0  0  0  0  0  0  0
  139.2726   77.8374  223.1241 H   0  0  0  0  0  0  0  0  0  0  0  0
  142.8127   78.4139  222.3500 H   0  0  0  0  0  0  0  0  0  0  0  0
  143.8195   80.5719  223.0533 H   0  0  0  0  0  0  0  0  0  0  0  0
  142.4182   82.3575  224.0005 H   0  0  0  0  0  0  0  0  0  0  0  0
  139.9444   82.0494  224.2729 H   0  0  0  0  0  0  0  0  0  0  0  0
  138.9638   79.8876  223.5595 H   0  0  0  0  0  0  0  0  0  0  0  0
  140.9803   78.0026  220.4318 H   0  0  0  0  0  0  0  0  0  0  0  0
  139.3343   77.9177  220.3466 H   0  0  0  0  0  0  0  0  0  0  0  0
  143.6638   79.7362  217.0148 H   0  0  0  0  0  0  0  0  0  0  0  0
  143.0211   82.1257  217.1711 H   0  0  0  0  0  0  0  0  0  0  0  0
  141.7184   83.8689  218.2135 H   0  0  0  0  0  0  0  0  0  0  0  0
  139.0677   82.8003  221.4372 H   0  0  0  0  0  0  0  0  0  0  0  0
  139.7446   80.4597  221.2328 H   0  0  0  0  0  0  0  0  0  0  0  0
  1  2  2  0
  2  3  1  0
  3  4  1  0
  4  5  1  0
  5  6  2  0
  5  7  1  0
  7  8  1  0
  8  9  1  0
  9 10  1  0
  9 11  1  0
 11 12  1  0
 12 13  1  0
 13 14  2  0
 13 15  1  0
 15 16  1  0
 16 17  1  0
 17 18  1  0
 18 19  1  0
 19 20  2  0
 20 21  1  0
 21 22  2  0
 22 23  1  0
 23 24  2  0
 18 25  1  0
  2 26  1  0
 26 27  2  0
 27 28  1  0
 28 29  2  0
 29 30  1  0
 30 31  2  0
 31 32  1  0
 31 33  1  0
 33 34  2  0
 34 35  1  0
 35 36  2  0
 12  7  1  0
 25 16  1  0
 36 26  1  0
 24 19  1  0
 35 29  1  0
  3 37  1  0
  4 38  1  0
  4 39  1  0
  8 40  1  0
  8 41  1  0
  9 42  1  1
 10 43  1  0
 11 44  1  0
 11 45  1  0
 12 46  1  6
 15 47  1  0
 16 48  1  1
 17 49  1  0
 17 50  1  0
 18 51  1  1
 20 52  1  0
 21 53  1  0
 22 54  1  0
 23 55  1  0
 24 56  1  0
 25 57  1  0
 25 58  1  0
 27 59  1  0
 28 60  1  0
 30 61  1  0
 33 62  1  0
 34 63  1  0
M  END
>  <smiles>  (2) 
O=C(NCC(=O)N1C[C@H](O)C[C@H]1C(=O)N[C@H]1C[C@@H](c2ccccc2)C1)c1ccc2cc(F)ccc2n1

>  <score_type>  (2) 
oracle

>  <origin>  (2) 
autodockgpu

>  <m_score__min__energy>  (2) 
-10.06

>  <m_primary>  (2) 
energy

>  <rmsd>  (2) 
9.114529352858082

>  <m_score__min__rmsd>  (2) 
9.114529352858082

>  <meeko>  (2) 
{"free_energy": -7.25, "intermolecular_energy": -9.63, "internal_energy": -4.6, "cluster_size": 5, "cluster_id": 12, "rank_in_cluster": 3}

>  <energy>  (2) 
-10.05

>  <cluster_rmsd>  (2) 
0.11

>  <cluster>  (2) 
1

$$$$

     RDKit          3D

 63 67  0  0  0  0  0  0  0  0999 V2000
  139.3610   72.5220  222.1070 O   0  0  0  0  0  0  0  0  0  0  0  0
  139.7930   71.3540  222.3620 C   0  0  0  0  0  0  0  0  0  0  0  0
  140.0300   70.3900  221.3360 N   0  0  0  0  0  0  0  0  0  0  0  0
  139.8060   70.6860  219.9690 C   0  0  0  0  0  0  0  0  0  0  0  0
  140.4150   71.8600  219.3700 C   0  0  0  0  0  0  0  0  0  0  0  0
  139.6040   72.5490  218.6140 O   0  0  0  0  0  0  0  0  0  0  0  0
  141.7400   72.3440  219.4850 N   0  0  0  0  0  0  0  0  0  0  0  0
  142.8440   72.3200  218.5370 C   0  0  0  0  0  0  0  0  0  0  0  0
  143.6980   73.5370  218.9810 C   0  0  2  0  0  0  0  0  0  0  0  0
  144.9730   73.4750  218.4580 O   0  0  0  0  0  0  0  0  0  0  0  0
  143.6430   73.2820  220.4790 C   0  0  0  0  0  0  0  0  0  0  0  0
  142.1950   73.0040  220.7220 C   0  0  1  0  0  0  0  0  0  0  0  0
  141.5260   74.3140  220.9270 C   0  0  0  0  0  0  0  0  0  0  0  0
  142.2360   75.2640  221.3260 O   0  0  0  0  0  0  0  0  0  0  0  0
  140.1580   74.5540  220.7030 N   0  0  0  0  0  0  0  0  0  0  0  0
  139.6390   75.8710  220.9460 C   0  0  1  0  0  0  0  0  0  0  0  0
  139.8810   76.4400  222.3390 C   0  0  0  0  0  0  0  0  0  0  0  0
  139.9850   77.7900  221.6570 C   0  0  1  0  0  0  0  0  0  0  0  0
  140.9630   78.7210  222.2310 C   0  0  0  0  0  0  0  0  0  0  0  0
  141.2640   78.6810  223.5970 C   0  0  0  0  0  0  0  0  0  0  0  0
  142.1910   79.5680  224.1040 C   0  0  0  0  0  0  0  0  0  0  0  0
  142.8120   80.4850  223.2820 C   0  0  0  0  0  0  0  0  0  0  0  0
  142.5330   80.5510  221.9200 C   0  0  0  0  0  0  0  0  0  0  0  0
  141.6040   79.6510  221.4400 C   0  0  0  0  0  0  0  0  0  0  0  0
  140.5030   77.0170  220.4360 C   0  0  0  0  0  0  0  0  0  0  0  0
  140.0590   70.9720  223.7610 C   0  0  0  0  0  0  0  0  0  0  0  0
  140.6150   71.8430  224.6570 C   0  0  0  0  0  0  0  0  0  0  0  0
  140.8690   71.4890  225.9790 C   0  0  0  0  0  0  0  0  0  0  0  0
  140.5490   70.2180  226.4070 C   0  0  0  0  0  0  0  0  0  0  0  0
  140.7950   69.8510  227.7240 C   0  0  0  0  0  0  0  0  0  0  0  0
  140.4640   68.5720  228.1260 C   0  0  0  0  0  0  0  0  0  0  0  0
  140.6740   68.1380  229.3900 F   0  0  0  0  0  0  0  0  0  0  0  0
  139.8990   67.6910  227.2090 C   0  0  0  0  0  0  0  0  0  0  0  0
  139.6700   68.0810  225.9250 C   0  0  0  0  0  0  0  0  0  0  0  0
  139.9880   69.3500  225.4910 C   0  0  0  0  0  0  0  0  0  0  0  0
  139.7590   69.7330  224.2160 N   0  0  0  0  0  0  0  0  0  0  0  0
  140.3830   69.4290  221.6190 H   0  0  0  0  0  0  0  0  0  0  0  0
  140.1592   69.8171  219.3942 H   0  0  0  0  0  0  0  0  0  0  0  0
  138.7304   70.9137  219.9331 H   0  0  0  0  0  0  0  0  0  0  0  0
  143.4156   71.3836  218.6168 H   0  0  0  0  0  0  0  0  0  0  0  0
  142.5202   72.3725  217.4870 H   0  0  0  0  0  0  0  0  0  0  0  0
  143.3604   74.5338  218.6612 H   0  0  0  0  0  0  0  0  0  0  0  0
  145.2360   74.4250  218.2780 H   0  0  0  0  0  0  0  0  0  0  0  0
  144.2632   72.4165  220.7554 H   0  0  0  0  0  0  0  0  0  0  0  0
  144.0282   74.1223  221.0753 H   0  0  0  0  0  0  0  0  0  0  0  0
  141.9820   72.3745  221.5986 H   0  0  0  0  0  0  0  0  0  0  0  0
  139.5450   73.7860  220.3680 H   0  0  0  0  0  0  0  0  0  0  0  0
  138.6260   75.6765  220.5640 H   0  0  0  0  0  0  0  0  0  0  0  0
  140.8041   76.0945  222.8275 H   0  0  0  0  0  0  0  0  0  0  0  0
  139.1964   76.2544  223.1798 H   0  0  0  0  0  0  0  0  0  0  0  0
  139.1316   78.4829  221.6153 H   0  0  0  0  0  0  0  0  0  0  0  0
  140.7689   77.9532  224.2566 H   0  0  0  0  0  0  0  0  0  0  0  0
  142.4376   79.5436  225.1757 H   0  0  0  0  0  0  0  0  0  0  0  0
  143.5460   81.1815  223.7135 H   0  0  0  0  0  0  0  0  0  0  0  0
  143.0265   81.2813  221.2619 H   0  0  0  0  0  0  0  0  0  0  0  0
  141.3613   79.6767  220.3674 H   0  0  0  0  0  0  0  0  0  0  0  0
  141.5852   76.8199  220.4334 H   0  0  0  0  0  0  0  0  0  0  0  0
  140.4310   77.4065  219.4098 H   0  0  0  0  0  0  0  0  0  0  0  0
  140.8704   72.8589  224.3211 H   0  0  0  0  0  0  0  0  0  0  0  0
  141.3192   72.2138  226.6732 H   0  0  0  0  0  0  0  0  0  0  0  0
  141.2438   70.5638  228.4314 H   0  0  0  0  0  0  0  0  0  0  0  0
  139.6352   66.6707  227.5243 H   0  0  0  0  0  0  0  0  0  0  0  0
  139.2212   67.3676  225.2182 H   0  0  0  0  0  0  0  0  0  0  0  0
  1  2  2  0
  2  3  1  0
  3  4  1  0
  4  5  1  0
  5  6  2  0
  5  7  1  0
  7  8  1  0
  8  9  1  0
  9 10  1  0
  9 11  1  0
 11 12  1  0
 12 13  1  0
 13 14  2  0
 13 15  1  0
 15 16  1  0
 16 17  1  0
 17 18  1  0
 18 19  1  0
 19 20  2  0
 20 21  1  0
 21 22  2  0
 22 23  1  0
 23 24  2  0
 18 25  1  0
  2 26  1  0
 26 27  2  0
 27 28  1  0
 28 29  2  0
 29 30  1  0
 30 31  2  0
 31 32  1  0
 31 33  1  0
 33 34  2  0
 34 35  1  0
 35 36  2  0
 12  7  1  0
 25 16  1  0
 36 26  1  0
 24 19  1  0
 35 29  1  0
  3 37  1  0
  4 38  1  0
  4 39  1  0
  8 40  1  0
  8 41  1  0
  9 42  1  1
 10 43  1  0
 11 44  1  0
 11 45  1  0
 12 46  1  1
 15 47  1  0
 16 48  1  6
 17 49  1  0
 17 50  1  0
 18 51  1  6
 20 52  1  0
 21 53  1  0
 22 54  1  0
 23 55  1  0
 24 56  1  0
 25 57  1  0
 25 58  1  0
 27 59  1  0
 28 60  1  0
 30 61  1  0
 33 62  1  0
 34 63  1  0
M  END
>  <smiles>  (3) 
O=C(NCC(=O)N1C[C@H](O)C[C@H]1C(=O)N[C@H]1C[C@@H](c2ccccc2)C1)c1ccc2cc(F)ccc2n1

>  <score_type>  (3) 
oracle

>  <origin>  (3) 
autodockgpu

>  <m_score__min__energy>  (3) 
-10.06

>  <m_primary>  (3) 
energy

>  <rmsd>  (3) 
4.116020016838217

>  <m_score__min__rmsd>  (3) 
4.116020016838217

>  <meeko>  (3) 
{"free_energy": -8.5, "intermolecular_energy": -10.89, "internal_energy": -3.41, "cluster_size": 5, "cluster_id": 1, "rank_in_cluster": 4}

>  <energy>  (3) 
-9.28

>  <cluster_rmsd>  (3) 
0.69

>  <cluster>  (3) 
1

$$$$

     RDKit          3D

 63 67  0  0  0  0  0  0  0  0999 V2000
  140.0060   73.0140  222.7910 O   0  0  0  0  0  0  0  0  0  0  0  0
  140.2720   71.7770  222.9180 C   0  0  0  0  0  0  0  0  0  0  0  0
  140.3990   70.9070  221.7940 N   0  0  0  0  0  0  0  0  0  0  0  0
  140.2460   71.3770  220.4670 C   0  0  0  0  0  0  0  0  0  0  0  0
  141.3810   71.3830  219.5610 C   0  0  0  0  0  0  0  0  0  0  0  0
  141.1650   70.7500  218.4390 O   0  0  0  0  0  0  0  0  0  0  0  0
  142.6610   71.9620  219.7270 N   0  0  0  0  0  0  0  0  0  0  0  0
  143.8950   71.7640  218.9820 C   0  0  0  0  0  0  0  0  0  0  0  0
  144.6440   73.1040  219.2040 C   0  0  2  0  0  0  0  0  0  0  0  0
  145.9840   72.9900  218.8980 O   0  0  0  0  0  0  0  0  0  0  0  0
  144.3710   73.2410  220.6930 C   0  0  0  0  0  0  0  0  0  0  0  0
  142.9100   72.9450  220.7970 C   0  0  1  0  0  0  0  0  0  0  0  0
  142.1860   74.2190  220.5550 C   0  0  0  0  0  0  0  0  0  0  0  0
  142.2060   74.6780  219.3910 O   0  0  0  0  0  0  0  0  0  0  0  0
  141.4860   74.9380  221.5410 N   0  0  0  0  0  0  0  0  0  0  0  0
  140.8320   76.1620  221.1700 C   0  0  1  0  0  0  0  0  0  0  0  0
  140.3190   77.0220  222.3180 C   0  0  0  0  0  0  0  0  0  0  0  0
  140.6590   78.2130  221.4430 C   0  0  1  0  0  0  0  0  0  0  0  0
  141.1660   79.3970  222.1450 C   0  0  0  0  0  0  0  0  0  0  0  0
  140.7220   80.6760  221.7890 C   0  0  0  0  0  0  0  0  0  0  0  0
  141.2160   81.7700  222.4710 C   0  0  0  0  0  0  0  0  0  0  0  0
  142.1350   81.6100  223.4870 C   0  0  0  0  0  0  0  0  0  0  0  0
  142.5960   80.3520  223.8630 C   0  0  0  0  0  0  0  0  0  0  0  0
  142.0850   79.2770  223.1660 C   0  0  0  0  0  0  0  0  0  0  0  0
  141.7610   77.3250  220.8450 C   0  0  0  0  0  0  0  0  0  0  0  0
  140.4560   71.2130  224.2690 C   0  0  0  0  0  0  0  0  0  0  0  0
  140.7580   71.9980  225.3470 C   0  0  0  0  0  0  0  0  0  0  0  0
  140.9320   71.4720  226.6240 C   0  0  0  0  0  0  0  0  0  0  0  0
  140.7950   70.1130  226.8160 C   0  0  0  0  0  0  0  0  0  0  0  0
  140.9640   69.5750  228.0850 C   0  0  0  0  0  0  0  0  0  0  0  0
  140.8190   68.2110  228.2480 C   0  0  0  0  0  0  0  0  0  0  0  0
  140.9700   67.6110  229.4500 F   0  0  0  0  0  0  0  0  0  0  0  0
  140.5120   67.4190  227.1460 C   0  0  0  0  0  0  0  0  0  0  0  0
  140.3520   67.9770  225.9140 C   0  0  0  0  0  0  0  0  0  0  0  0
  140.4880   69.3350  225.7160 C   0  0  0  0  0  0  0  0  0  0  0  0
  140.3280   69.8840  224.4940 N   0  0  0  0  0  0  0  0  0  0  0  0
  140.6150   69.8820  221.9720 H   0  0  0  0  0  0  0  0  0  0  0  0
  139.4692   70.7552  219.9980 H   0  0  0  0  0  0  0  0  0  0  0  0
  140.0264   72.4463  220.6024 H   0  0  0  0  0  0  0  0  0  0  0  0
  144.4698   70.9166  219.3840 H   0  0  0  0  0  0  0  0  0  0  0  0
  143.7315   71.5252  217.9208 H   0  0  0  0  0  0  0  0  0  0  0  0
  144.3345   73.9616  218.5886 H   0  0  0  0  0  0  0  0  0  0  0  0
  146.3020   73.9250  218.7280 H   0  0  0  0  0  0  0  0  0  0  0  0
  144.9631   72.5166  221.2715 H   0  0  0  0  0  0  0  0  0  0  0  0
  144.6422   74.2289  221.0937 H   0  0  0  0  0  0  0  0  0  0  0  0
  142.5837   72.5499  221.7703 H   0  0  0  0  0  0  0  0  0  0  0  0
  141.4480   74.5800  222.5150 H   0  0  0  0  0  0  0  0  0  0  0  0
  140.1536   75.7188  220.4261 H   0  0  0  0  0  0  0  0  0  0  0  0
  140.9011   76.9488  223.2485 H   0  0  0  0  0  0  0  0  0  0  0  0
  139.3222   76.8809  222.7612 H   0  0  0  0  0  0  0  0  0  0  0  0
  139.8946   78.7199  220.8357 H   0  0  0  0  0  0  0  0  0  0  0  0
  139.9905   80.8074  220.9781 H   0  0  0  0  0  0  0  0  0  0  0  0
  140.8731   82.7798  222.2013 H   0  0  0  0  0  0  0  0  0  0  0  0
  142.5129   82.4990  224.0132 H   0  0  0  0  0  0  0  0  0  0  0  0
  143.3289   80.2218  224.6729 H   0  0  0  0  0  0  0  0  0  0  0  0
  142.4295   78.2688  223.4396 H   0  0  0  0  0  0  0  0  0  0  0  0
  142.7134   77.3292  221.3954 H   0  0  0  0  0  0  0  0  0  0  0  0
  142.1806   77.4902  219.8417 H   0  0  0  0  0  0  0  0  0  0  0  0
  140.8672   73.0827  225.2001 H   0  0  0  0  0  0  0  0  0  0  0  0
  141.1758   72.1320  227.4696 H   0  0  0  0  0  0  0  0  0  0  0  0
  141.2079   70.2207  228.9415 H   0  0  0  0  0  0  0  0  0  0  0  0
  140.3974   66.3321  227.2710 H   0  0  0  0  0  0  0  0  0  0  0  0
  140.1090   67.3303  225.0580 H   0  0  0  0  0  0  0  0  0  0  0  0
  1  2  2  0
  2  3  1  0
  3  4  1  0
  4  5  1  0
  5  6  2  0
  5  7  1  0
  7  8  1  0
  8  9  1  0
  9 10  1  0
  9 11  1  0
 11 12  1  0
 12 13  1  0
 13 14  2  0
 13 15  1  0
 15 16  1  0
 16 17  1  0
 17 18  1  0
 18 19  1  0
 19 20  2  0
 20 21  1  0
 21 22  2  0
 22 23  1  0
 23 24  2  0
 18 25  1  0
  2 26  1  0
 26 27  2  0
 27 28  1  0
 28 29  2  0
 29 30  1  0
 30 31  2  0
 31 32  1  0
 31 33  1  0
 33 34  2  0
 34 35  1  0
 35 36  2  0
 12  7  1  0
 25 16  1  0
 36 26  1  0
 24 19  1  0
 35 29  1  0
  3 37  1  0
  4 38  1  0
  4 39  1  0
  8 40  1  0
  8 41  1  0
  9 42  1  6
 10 43  1  0
 11 44  1  0
 11 45  1  0
 12 46  1  1
 15 47  1  0
 16 48  1  6
 17 49  1  0
 17 50  1  0
 18 51  1  6
 20 52  1  0
 21 53  1  0
 22 54  1  0
 23 55  1  0
 24 56  1  0
 25 57  1  0
 25 58  1  0
 27 59  1  0
 28 60  1  0
 30 61  1  0
 33 62  1  0
 34 63  1  0
M  END
>  <smiles>  (4) 
O=C(NCC(=O)N1C[C@H](O)C[C@H]1C(=O)N[C@H]1C[C@@H](c2ccccc2)C1)c1ccc2cc(F)ccc2n1

>  <score_type>  (4) 
oracle

>  <origin>  (4) 
autodockgpu

>  <m_score__min__energy>  (4) 
-10.06

>  <m_primary>  (4) 
energy

>  <rmsd>  (4) 
4.0597596478683355

>  <m_score__min__rmsd>  (4) 
4.0597596478683355

>  <meeko>  (4) 
{"free_energy": -10.06, "intermolecular_energy": -12.45, "internal_energy": -2.81, "cluster_size": 5, "cluster_id": 1, "rank_in_cluster": 1}

>  <energy>  (4) 
-8.5

>  <cluster_rmsd>  (4) 
1.13

>  <cluster>  (4) 
1

$$$$

     RDKit          3D

 63 67  0  0  0  0  0  0  0  0999 V2000
  140.6950   74.6090  221.9530 O   0  0  0  0  0  0  0  0  0  0  0  0
  140.0650   75.5490  221.3740 C   0  0  0  0  0  0  0  0  0  0  0  0
  138.6510   75.7020  221.4900 N   0  0  0  0  0  0  0  0  0  0  0  0
  137.8670   74.8150  222.2680 C   0  0  0  0  0  0  0  0  0  0  0  0
  136.4180   74.8880  222.2150 C   0  0  0  0  0  0  0  0  0  0  0  0
  135.9190   74.6370  221.0350 O   0  0  0  0  0  0  0  0  0  0  0  0
  135.4940   75.1920  223.2420 N   0  0  0  0  0  0  0  0  0  0  0  0
  135.2290   74.5250  224.5070 C   0  0  0  0  0  0  0  0  0  0  0  0
  134.6660   75.6730  225.3860 C   0  0  2  0  0  0  0  0  0  0  0  0
  134.0080   75.1840  226.4950 O   0  0  0  0  0  0  0  0  0  0  0  0
  133.7370   76.2810  224.3480 C   0  0  0  0  0  0  0  0  0  0  0  0
  134.5970   76.3560  223.1280 C   0  0  1  0  0  0  0  0  0  0  0  0
  135.3450   77.6380  223.1990 C   0  0  0  0  0  0  0  0  0  0  0  0
  135.1170   78.3830  224.1780 O   0  0  0  0  0  0  0  0  0  0  0  0
  136.2870   78.0650  222.2440 N   0  0  0  0  0  0  0  0  0  0  0  0
  136.9360   79.3320  222.4330 C   0  0  1  0  0  0  0  0  0  0  0  0
  137.9450   79.4040  223.5730 C   0  0  0  0  0  0  0  0  0  0  0  0
  138.7150   80.3710  222.6950 C   0  0  1  0  0  0  0  0  0  0  0  0
  140.1760   80.2860  222.7800 C   0  0  0  0  0  0  0  0  0  0  0  0
  140.9740   81.3620  222.3720 C   0  0  0  0  0  0  0  0  0  0  0  0
  142.3470   81.2510  222.4680 C   0  0  0  0  0  0  0  0  0  0  0  0
  142.9280   80.0990  222.9550 C   0  0  0  0  0  0  0  0  0  0  0  0
  142.1620   79.0130  223.3670 C   0  0  0  0  0  0  0  0  0  0  0  0
  140.7940   79.1510  223.2620 C   0  0  0  0  0  0  0  0  0  0  0  0
  138.1140   79.6060  221.5060 C   0  0  0  0  0  0  0  0  0  0  0  0
  140.8120   76.5200  220.5520 C   0  0  0  0  0  0  0  0  0  0  0  0
  142.0230   76.2170  219.9940 C   0  0  0  0  0  0  0  0  0  0  0  0
  142.7330   77.1280  219.2170 C   0  0  0  0  0  0  0  0  0  0  0  0
  142.2010   78.3810  218.9970 C   0  0  0  0  0  0  0  0  0  0  0  0
  142.8970   79.3000  218.2220 C   0  0  0  0  0  0  0  0  0  0  0  0
  142.3410   80.5470  218.0170 C   0  0  0  0  0  0  0  0  0  0  0  0
  142.9570   81.4970  217.2780 F   0  0  0  0  0  0  0  0  0  0  0  0
  141.1080   80.8480  218.5890 C   0  0  0  0  0  0  0  0  0  0  0  0
  140.4500   79.9250  219.3430 C   0  0  0  0  0  0  0  0  0  0  0  0
  140.9770   78.6710  219.5670 C   0  0  0  0  0  0  0  0  0  0  0  0
  140.3210   77.7590  220.3150 N   0  0  0  0  0  0  0  0  0  0  0  0
  138.1870   76.5060  220.9740 H   0  0  0  0  0  0  0  0  0  0  0  0
  138.1447   73.7953  221.9629 H   0  0  0  0  0  0  0  0  0  0  0  0
  138.0970   75.1149  223.3010 H   0  0  0  0  0  0  0  0  0  0  0  0
  134.4892   73.7203  224.3839 H   0  0  0  0  0  0  0  0  0  0  0  0
  136.1165   74.0393  224.9389 H   0  0  0  0  0  0  0  0  0  0  0  0
  135.3924   76.3683  225.8319 H   0  0  0  0  0  0  0  0  0  0  0  0
  133.0620   75.5000  226.4070 H   0  0  0  0  0  0  0  0  0  0  0  0
  132.8619   75.6372  224.1756 H   0  0  0  0  0  0  0  0  0  0  0  0
  133.3290   77.2566  224.6507 H   0  0  0  0  0  0  0  0  0  0  0  0
  134.0525   76.3328  222.1725 H   0  0  0  0  0  0  0  0  0  0  0  0
  136.5000   77.4670  221.4220 H   0  0  0  0  0  0  0  0  0  0  0  0
  136.0207   79.9420  222.4255 H   0  0  0  0  0  0  0  0  0  0  0  0
  138.4661   78.4602  223.7915 H   0  0  0  0  0  0  0  0  0  0  0  0
  137.6528   79.6486  224.6049 H   0  0  0  0  0  0  0  0  0  0  0  0
  138.6259   81.4603  222.8199 H   0  0  0  0  0  0  0  0  0  0  0  0
  140.5141   82.2816  221.9810 H   0  0  0  0  0  0  0  0  0  0  0  0
  142.9841   82.0904  222.1527 H   0  0  0  0  0  0  0  0  0  0  0  0
  144.0244   80.0372  223.0193 H   0  0  0  0  0  0  0  0  0  0  0  0
  142.6232   78.0932  223.7559 H   0  0  0  0  0  0  0  0  0  0  0  0
  140.1608   78.3097  223.5801 H   0  0  0  0  0  0  0  0  0  0  0  0
  138.6774   78.7150  221.1918 H   0  0  0  0  0  0  0  0  0  0  0  0
  137.9954   80.0535  220.5082 H   0  0  0  0  0  0  0  0  0  0  0  0
  142.4512   75.2183  220.1651 H   0  0  0  0  0  0  0  0  0  0  0  0
  143.7058   76.8519  218.7841 H   0  0  0  0  0  0  0  0  0  0  0  0
  143.8705   79.0397  217.7810 H   0  0  0  0  0  0  0  0  0  0  0  0
  140.6614   81.8406  218.4303 H   0  0  0  0  0  0  0  0  0  0  0  0
  139.4762   80.1856  219.7833 H   0  0  0  0  0  0  0  0  0  0  0  0
  1  2  2  0
  2  3  1  0
  3  4  1  0
  4  5  1  0
  5  6  2  0
  5  7  1  0
  7  8  1  0
  8  9  1  0
  9 10  1  0
  9 11  1  0
 11 12  1  0
 12 13  1  0
 13 14  2  0
 13 15  1  0
 15 16  1  0
 16 17  1  0
 17 18  1  0
 18 19  1  0
 19 20  2  0
 20 21  1  0
 21 22  2  0
 22 23  1  0
 23 24  2  0
 18 25  1  0
  2 26  1  0
 26 27  2  0
 27 28  1  0
 28 29  2  0
 29 30  1  0
 30 31  2  0
 31 32  1  0
 31 33  1  0
 33 34  2  0
 34 35  1  0
 35 36  2  0
 12  7  1  0
 25 16  1  0
 36 26  1  0
 24 19  1  0
 35 29  1  0
  3 37  1  0
  4 38  1  0
  4 39  1  0
  8 40  1  0
  8 41  1  0
  9 42  1  1
 10 43  1  0
 11 44  1  0
 11 45  1  0
 12 46  1  6
 15 47  1  0
 16 48  1  1
 17 49  1  0
 17 50  1  0
 18 51  1  6
 20 52  1  0
 21 53  1  0
 22 54  1  0
 23 55  1  0
 24 56  1  0
 25 57  1  0
 25 58  1  0
 27 59  1  0
 28 60  1  0
 30 61  1  0
 33 62  1  0
 34 63  1  0
M  END
>  <smiles>  (5) 
O=C(NCC(=O)N1C[C@H](O)C[C@H]1C(=O)N[C@H]1C[C@@H](c2ccccc2)C1)c1ccc2cc(F)ccc2n1

>  <score_type>  (5) 
oracle

>  <origin>  (5) 
autodockgpu

>  <m_score__min__energy>  (5) 
-10.06

>  <m_primary>  (5) 
energy

>  <rmsd>  (5) 
8.23846457706882

>  <m_score__min__rmsd>  (5) 
8.23846457706882

>  <meeko>  (5) 
{"free_energy": -6.37, "intermolecular_energy": -8.76, "internal_energy": -3.95, "cluster_size": 1, "cluster_id": 15, "rank_in_cluster": 1}

>  <energy>  (5) 
-8.49

>  <cluster_rmsd>  (5) 
1.55

>  <cluster>  (5) 
1

$$$$

     RDKit          3D

 63 67  0  0  0  0  0  0  0  0999 V2000
  139.8850   73.6620  222.5950 O   0  0  0  0  0  0  0  0  0  0  0  0
  139.9720   74.5720  221.7110 C   0  0  0  0  0  0  0  0  0  0  0  0
  140.1140   74.2730  220.3230 N   0  0  0  0  0  0  0  0  0  0  0  0
  140.1560   72.9400  219.8480 C   0  0  0  0  0  0  0  0  0  0  0  0
  141.4170   72.2200  219.8130 C   0  0  0  0  0  0  0  0  0  0  0  0
  141.2850   70.9210  219.8390 O   0  0  0  0  0  0  0  0  0  0  0  0
  142.7390   72.7220  219.7630 N   0  0  0  0  0  0  0  0  0  0  0  0
  143.9540   72.1390  219.2160 C   0  0  0  0  0  0  0  0  0  0  0  0
  144.8070   73.3900  218.8740 C   0  0  2  0  0  0  0  0  0  0  0  0
  146.1340   73.0610  218.6920 O   0  0  0  0  0  0  0  0  0  0  0  0
  144.5430   74.1660  220.1540 C   0  0  0  0  0  0  0  0  0  0  0  0
  143.0630   74.0460  220.3230 C   0  0  1  0  0  0  0  0  0  0  0  0
  142.4430   75.1440  219.5380 C   0  0  0  0  0  0  0  0  0  0  0  0
  141.9990   74.8590  218.4040 O   0  0  0  0  0  0  0  0  0  0  0  0
  142.3230   76.4740  219.9840 N   0  0  0  0  0  0  0  0  0  0  0  0
  141.7040   77.4390  219.1200 C   0  0  1  0  0  0  0  0  0  0  0  0
  140.3410   77.9580  219.5630 C   0  0  0  0  0  0  0  0  0  0  0  0
  140.7530   79.2760  218.9360 C   0  0  1  0  0  0  0  0  0  0  0  0
  140.2890   80.4840  219.6250 C   0  0  0  0  0  0  0  0  0  0  0  0
  141.1980   81.4810  219.9980 C   0  0  0  0  0  0  0  0  0  0  0  0
  140.7290   82.6080  220.6430 C   0  0  0  0  0  0  0  0  0  0  0  0
  139.3860   82.7520  220.9200 C   0  0  0  0  0  0  0  0  0  0  0  0
  138.4580   81.7790  220.5630 C   0  0  0  0  0  0  0  0  0  0  0  0
  138.9540   80.6650  219.9190 C   0  0  0  0  0  0  0  0  0  0  0  0
  142.1930   78.8730  219.2860 C   0  0  0  0  0  0  0  0  0  0  0  0
  139.9260   75.9870  222.1260 C   0  0  0  0  0  0  0  0  0  0  0  0
  138.7450   76.6490  222.3150 C   0  0  0  0  0  0  0  0  0  0  0  0
  138.6950   77.9840  222.7070 C   0  0  0  0  0  0  0  0  0  0  0  0
  139.8740   78.6680  222.9130 C   0  0  0  0  0  0  0  0  0  0  0  0
  139.8390   80.0000  223.3060 C   0  0  0  0  0  0  0  0  0  0  0  0
  141.0350   80.6600  223.5060 C   0  0  0  0  0  0  0  0  0  0  0  0
  141.0860   81.9570  223.8860 F   0  0  0  0  0  0  0  0  0  0  0  0
  142.2330   79.9810  223.3110 C   0  0  0  0  0  0  0  0  0  0  0  0
  142.2340   78.6740  222.9270 C   0  0  0  0  0  0  0  0  0  0  0  0
  141.0590   77.9850  222.7180 C   0  0  0  0  0  0  0  0  0  0  0  0
  141.0640   76.6900  222.3370 N   0  0  0  0  0  0  0  0  0  0  0  0
  140.1890   75.0820  219.6380 H   0  0  0  0  0  0  0  0  0  0  0  0
  139.4742   72.3552  220.4829 H   0  0  0  0  0  0  0  0  0  0  0  0
  139.8943   73.0426  218.7845 H   0  0  0  0  0  0  0  0  0  0  0  0
  144.4595   71.5050  219.9593 H   0  0  0  0  0  0  0  0  0  0  0  0
  143.7734   71.4835  218.3513 H   0  0  0  0  0  0  0  0  0  0  0  0
  144.5679   73.9244  217.9427 H   0  0  0  0  0  0  0  0  0  0  0  0
  146.6170   73.9350  218.6040 H   0  0  0  0  0  0  0  0  0  0  0  0
  145.0755   73.7168  221.0053 H   0  0  0  0  0  0  0  0  0  0  0  0
  144.8900   75.2088  220.1072 H   0  0  0  0  0  0  0  0  0  0  0  0
  142.7047   74.1261  221.3599 H   0  0  0  0  0  0  0  0  0  0  0  0
  142.6790   76.7400  220.9230 H   0  0  0  0  0  0  0  0  0  0  0  0
  141.8365   76.8715  218.1870 H   0  0  0  0  0  0  0  0  0  0  0  0
  140.1883   77.9899  220.6519 H   0  0  0  0  0  0  0  0  0  0  0  0
  139.4020   77.4482  219.3017 H   0  0  0  0  0  0  0  0  0  0  0  0
  140.4339   79.5567  217.9214 H   0  0  0  0  0  0  0  0  0  0  0  0
  142.2703   81.3682  219.7804 H   0  0  0  0  0  0  0  0  0  0  0  0
  141.4338   83.3990  220.9389 H   0  0  0  0  0  0  0  0  0  0  0  0
  139.0395   83.6593  221.4364 H   0  0  0  0  0  0  0  0  0  0  0  0
  137.3861   81.8922  220.7826 H   0  0  0  0  0  0  0  0  0  0  0  0
  138.2455   79.8772  219.6235 H   0  0  0  0  0  0  0  0  0  0  0  0
  142.5182   79.1402  220.3023 H   0  0  0  0  0  0  0  0  0  0  0  0
  143.0691   79.2693  218.7518 H   0  0  0  0  0  0  0  0  0  0  0  0
  137.8012   76.1081  222.1517 H   0  0  0  0  0  0  0  0  0  0  0  0
  137.7271   78.4865  222.8505 H   0  0  0  0  0  0  0  0  0  0  0  0
  138.8797   80.5173  223.4545 H   0  0  0  0  0  0  0  0  0  0  0  0
  143.1879   80.5039  223.4682 H   0  0  0  0  0  0  0  0  0  0  0  0
  143.1939   78.1572  222.7805 H   0  0  0  0  0  0  0  0  0  0  0  0
  1  2  2  0
  2  3  1  0
  3  4  1  0
  4  5  1  0
  5  6  2  0
  5  7  1  0
  7  8  1  0
  8  9  1  0
  9 10  1  0
  9 11  1  0
 11 12  1  0
 12 13  1  0
 13 14  2  0
 13 15  1  0
 15 16  1  0
 16 17  1  0
 17 18  1  0
 18 19  1  0
 19 20  2  0
 20 21  1  0
 21 22  2  0
 22 23  1  0
 23 24  2  0
 18 25  1  0
  2 26  1  0
 26 27  2  0
 27 28  1  0
 28 29  2  0
 29 30  1  0
 30 31  2  0
 31 32  1  0
 31 33  1  0
 33 34  2  0
 34 35  1  0
 35 36  2  0
 12  7  1  0
 25 16  1  0
 36 26  1  0
 24 19  1  0
 35 29  1  0
  3 37  1  0
  4 38  1  0
  4 39  1  0
  8 40  1  0
  8 41  1  0
  9 42  1  6
 10 43  1  0
 11 44  1  0
 11 45  1  0
 12 46  1  1
 15 47  1  0
 16 48  1  6
 17 49  1  0
 17 50  1  0
 18 51  1  6
 20 52  1  0
 21 53  1  0
 22 54  1  0
 23 55  1  0
 24 56  1  0
 25 57  1  0
 25 58  1  0
 27 59  1  0
 28 60  1  0
 30 61  1  0
 33 62  1  0
 34 63  1  0
M  END
>  <smiles>  (6) 
O=C(NCC(=O)N1C[C@H](O)C[C@H]1C(=O)N[C@H]1C[C@@H](c2ccccc2)C1)c1ccc2cc(F)ccc2n1

>  <score_type>  (6) 
oracle

>  <origin>  (6) 
autodockgpu

>  <m_score__min__energy>  (6) 
-10.06

>  <m_primary>  (6) 
energy

>  <rmsd>  (6) 
6.427983310872042

>  <m_score__min__rmsd>  (6) 
6.427983310872042

>  <meeko>  (6) 
{"free_energy": -7.39, "intermolecular_energy": -9.77, "internal_energy": -4.75, "cluster_size": 13, "cluster_id": 6, "rank_in_cluster": 5}

>  <energy>  (6) 
-9.1

>  <cluster_rmsd>  (6) 
0.0

>  <cluster>  (6) 
2

$$$$

     RDKit          3D

 63 67  0  0  0  0  0  0  0  0999 V2000
  138.4750   75.3140  221.6940 O   0  0  0  0  0  0  0  0  0  0  0  0
  139.6830   75.6710  221.8640 C   0  0  0  0  0  0  0  0  0  0  0  0
  140.7800   74.7960  221.6000 N   0  0  0  0  0  0  0  0  0  0  0  0
  140.5830   73.4780  221.1240 C   0  0  0  0  0  0  0  0  0  0  0  0
  141.7240   72.6640  220.7430 C   0  0  0  0  0  0  0  0  0  0  0  0
  141.4640   71.3860  220.6800 O   0  0  0  0  0  0  0  0  0  0  0  0
  143.0500   73.0580  220.4440 N   0  0  0  0  0  0  0  0  0  0  0  0
  144.1680   72.2940  219.9110 C   0  0  0  0  0  0  0  0  0  0  0  0
  145.0240   73.3860  219.2160 C   0  0  2  0  0  0  0  0  0  0  0  0
  146.3060   72.9410  218.9700 O   0  0  0  0  0  0  0  0  0  0  0  0
  144.9440   74.4320  220.3160 C   0  0  0  0  0  0  0  0  0  0  0  0
  143.4910   74.4470  220.6630 C   0  0  1  0  0  0  0  0  0  0  0  0
  142.8270   75.3910  219.7280 C   0  0  0  0  0  0  0  0  0  0  0  0
  142.6780   75.0160  218.5440 O   0  0  0  0  0  0  0  0  0  0  0  0
  142.3590   76.6690  220.0850 N   0  0  0  0  0  0  0  0  0  0  0  0
  141.7380   77.4830  219.0770 C   0  0  1  0  0  0  0  0  0  0  0  0
  140.6520   78.4350  219.5610 C   0  0  0  0  0  0  0  0  0  0  0  0
  141.1360   79.3770  218.4760 C   0  0  1  0  0  0  0  0  0  0  0  0
  141.0940   80.8050  218.8050 C   0  0  0  0  0  0  0  0  0  0  0  0
  141.0960   81.7680  217.7880 C   0  0  0  0  0  0  0  0  0  0  0  0
  141.0530   83.1040  218.1300 C   0  0  0  0  0  0  0  0  0  0  0  0
  141.0110   83.4900  219.4530 C   0  0  0  0  0  0  0  0  0  0  0  0
  141.0090   82.5590  220.4870 C   0  0  0  0  0  0  0  0  0  0  0  0
  141.0510   81.2310  220.1160 C   0  0  0  0  0  0  0  0  0  0  0  0
  142.5150   78.7310  218.6770 C   0  0  0  0  0  0  0  0  0  0  0  0
  139.9720   77.0340  222.3500 C   0  0  0  0  0  0  0  0  0  0  0  0
  138.9780   77.8950  222.7250 C   0  0  0  0  0  0  0  0  0  0  0  0
  139.2430   79.1820  223.1850 C   0  0  0  0  0  0  0  0  0  0  0  0
  140.5510   79.6090  223.2700 C   0  0  0  0  0  0  0  0  0  0  0  0
  140.8310   80.8890  223.7290 C   0  0  0  0  0  0  0  0  0  0  0  0
  142.1500   81.2900  223.8040 C   0  0  0  0  0  0  0  0  0  0  0  0
  142.5040   82.5210  224.2380 F   0  0  0  0  0  0  0  0  0  0  0  0
  143.1560   80.4080  223.4210 C   0  0  0  0  0  0  0  0  0  0  0  0
  142.8500   79.1580  222.9760 C   0  0  0  0  0  0  0  0  0  0  0  0
  141.5430   78.7260  222.8880 C   0  0  0  0  0  0  0  0  0  0  0  0
  141.2430   77.4860  222.4460 N   0  0  0  0  0  0  0  0  0  0  0  0
  141.7650   75.1570  221.7710 H   0  0  0  0  0  0  0  0  0  0  0  0
  140.0531   72.9301  221.9171 H   0  0  0  0  0  0  0  0  0  0  0  0
  140.0527   73.6302  220.1723 H   0  0  0  0  0  0  0  0  0  0  0  0
  144.7317   71.8006  220.7165 H   0  0  0  0  0  0  0  0  0  0  0  0
  143.8605   71.4829  219.2345 H   0  0  0  0  0  0  0  0  0  0  0  0
  144.6982   73.7247  218.2214 H   0  0  0  0  0  0  0  0  0  0  0  0
  146.8600   73.7680  218.8530 H   0  0  0  0  0  0  0  0  0  0  0  0
  145.5543   74.1405  221.1835 H   0  0  0  0  0  0  0  0  0  0  0  0
  145.3250   75.4162  220.0058 H   0  0  0  0  0  0  0  0  0  0  0  0
  143.2611   74.7691  221.6894 H   0  0  0  0  0  0  0  0  0  0  0  0
  142.4650   77.0070  221.0610 H   0  0  0  0  0  0  0  0  0  0  0  0
  141.5246   76.6658  218.3723 H   0  0  0  0  0  0  0  0  0  0  0  0
  140.7835   78.8046  220.5887 H   0  0  0  0  0  0  0  0  0  0  0  0
  139.5987   78.1311  219.6517 H   0  0  0  0  0  0  0  0  0  0  0  0
  140.6343   79.4388  217.4990 H   0  0  0  0  0  0  0  0  0  0  0  0
  141.1313   81.4635  216.7316 H   0  0  0  0  0  0  0  0  0  0  0  0
  141.0522   83.8688  217.3393 H   0  0  0  0  0  0  0  0  0  0  0  0
  140.9782   84.5620  219.6974 H   0  0  0  0  0  0  0  0  0  0  0  0
  140.9757   82.8653  221.5430 H   0  0  0  0  0  0  0  0  0  0  0  0
  141.0501   80.4696  220.9099 H   0  0  0  0  0  0  0  0  0  0  0  0
  143.1265   79.1758  219.4759 H   0  0  0  0  0  0  0  0  0  0  0  0
  143.2900   78.7257  217.8964 H   0  0  0  0  0  0  0  0  0  0  0  0
  137.9325   77.5590  222.6610 H   0  0  0  0  0  0  0  0  0  0  0  0
  138.4191   79.8498  223.4769 H   0  0  0  0  0  0  0  0  0  0  0  0
  140.0193   81.5691  224.0266 H   0  0  0  0  0  0  0  0  0  0  0  0
  144.2082   80.7236  223.4783 H   0  0  0  0  0  0  0  0  0  0  0  0
  143.6626   78.4781  222.6803 H   0  0  0  0  0  0  0  0  0  0  0  0
  1  2  2  0
  2  3  1  0
  3  4  1  0
  4  5  1  0
  5  6  2  0
  5  7  1  0
  7  8  1  0
  8  9  1  0
  9 10  1  0
  9 11  1  0
 11 12  1  0
 12 13  1  0
 13 14  2  0
 13 15  1  0
 15 16  1  0
 16 17  1  0
 17 18  1  0
 18 19  1  0
 19 20  2  0
 20 21  1  0
 21 22  2  0
 22 23  1  0
 23 24  2  0
 18 25  1  0
  2 26  1  0
 26 27  2  0
 27 28  1  0
 28 29  2  0
 29 30  1  0
 30 31  2  0
 31 32  1  0
 31 33  1  0
 33 34  2  0
 34 35  1  0
 35 36  2  0
 12  7  1  0
 25 16  1  0
 36 26  1  0
 24 19  1  0
 35 29  1  0
  3 37  1  0
  4 38  1  0
  4 39  1  0
  8 40  1  0
  8 41  1  0
  9 42  1  6
 10 43  1  0
 11 44  1  0
 11 45  1  0
 12 46  1  1
 15 47  1  0
 16 48  1  6
 17 49  1  0
 17 50  1  0
 18 51  1  6
 20 52  1  0
 21 53  1  0
 22 54  1  0
 23 55  1  0
 24 56  1  0
 25 57  1  0
 25 58  1  0
 27 59  1  0
 28 60  1  0
 30 61  1  0
 33 62  1  0
 34 63  1  0
M  END
>  <smiles>  (7) 
O=C(NCC(=O)N1C[C@H](O)C[C@H]1C(=O)N[C@H]1C[C@@H](c2ccccc2)C1)c1ccc2cc(F)ccc2n1

>  <score_type>  (7) 
oracle

>  <origin>  (7) 
autodockgpu

>  <m_score__min__energy>  (7) 
-10.06

>  <m_primary>  (7) 
energy

>  <rmsd>  (7) 
6.934214706809838

>  <m_score__min__rmsd>  (7) 
6.934214706809838

>  <meeko>  (7) 
{"free_energy": -8.1, "intermolecular_energy": -10.48, "internal_energy": -4.04, "cluster_size": 13, "cluster_id": 6, "rank_in_cluster": 3}

>  <energy>  (7) 
-8.18

>  <cluster_rmsd>  (7) 
1.88

>  <cluster>  (7) 
2

$$$$

     RDKit          3D

 63 67  0  0  0  0  0  0  0  0999 V2000
  140.9050   71.8460  221.2030 O   0  0  0  0  0  0  0  0  0  0  0  0
  140.2020   72.2110  222.1970 C   0  0  0  0  0  0  0  0  0  0  0  0
  139.4840   73.4440  222.2110 N   0  0  0  0  0  0  0  0  0  0  0  0
  139.5080   74.3320  221.1080 C   0  0  0  0  0  0  0  0  0  0  0  0
  140.2730   75.5640  221.1820 C   0  0  0  0  0  0  0  0  0  0  0  0
  140.3290   76.0810  222.3790 O   0  0  0  0  0  0  0  0  0  0  0  0
  140.9460   76.2680  220.1550 N   0  0  0  0  0  0  0  0  0  0  0  0
  141.1980   77.6910  219.9900 C   0  0  0  0  0  0  0  0  0  0  0  0
  142.4800   77.7090  219.1160 C   0  0  2  0  0  0  0  0  0  0  0  0
  142.6770   78.9450  218.5350 O   0  0  0  0  0  0  0  0  0  0  0  0
  142.0620   76.6330  218.1270 C   0  0  0  0  0  0  0  0  0  0  0  0
  141.5340   75.5500  219.0100 C   0  0  1  0  0  0  0  0  0  0  0  0
  142.6920   74.7140  219.4180 C   0  0  0  0  0  0  0  0  0  0  0  0
  143.7790   75.3000  219.6180 O   0  0  0  0  0  0  0  0  0  0  0  0
  142.6450   73.3190  219.5930 N   0  0  0  0  0  0  0  0  0  0  0  0
  143.8440   72.6320  219.9880 C   0  0  1  0  0  0  0  0  0  0  0  0
  143.6980   71.1430  220.2760 C   0  0  0  0  0  0  0  0  0  0  0  0
  145.1020   71.0020  219.7200 C   0  0  1  0  0  0  0  0  0  0  0  0
  145.3670   69.7780  218.9570 C   0  0  0  0  0  0  0  0  0  0  0  0
  145.2950   68.5260  219.5790 C   0  0  0  0  0  0  0  0  0  0  0  0
  145.5470   67.3930  218.8320 C   0  0  0  0  0  0  0  0  0  0  0  0
  145.8680   67.4880  217.4940 C   0  0  0  0  0  0  0  0  0  0  0  0
  145.9490   68.7180  216.8480 C   0  0  0  0  0  0  0  0  0  0  0  0
  145.6910   69.8330  217.6180 C   0  0  0  0  0  0  0  0  0  0  0  0
  144.7650   72.2200  218.8460 C   0  0  0  0  0  0  0  0  0  0  0  0
  140.1200   71.3360  223.3820 C   0  0  0  0  0  0  0  0  0  0  0  0
  139.5660   70.0860  223.3230 C   0  0  0  0  0  0  0  0  0  0  0  0
  139.4860   69.2550  224.4370 C   0  0  0  0  0  0  0  0  0  0  0  0
  139.9810   69.7010  225.6440 C   0  0  0  0  0  0  0  0  0  0  0  0
  139.9090   68.8820  226.7640 C   0  0  0  0  0  0  0  0  0  0  0  0
  140.4140   69.3530  227.9600 C   0  0  0  0  0  0  0  0  0  0  0  0
  140.3800   68.6170  229.0950 F   0  0  0  0  0  0  0  0  0  0  0  0
  140.9750   70.6250  228.0120 C   0  0  0  0  0  0  0  0  0  0  0  0
  141.0310   71.4040  226.8970 C   0  0  0  0  0  0  0  0  0  0  0  0
  140.5370   70.9640  225.6870 C   0  0  0  0  0  0  0  0  0  0  0  0
  140.5950   71.7400  224.5830 N   0  0  0  0  0  0  0  0  0  0  0  0
  138.9220   73.6910  223.0780 H   0  0  0  0  0  0  0  0  0  0  0  0
  139.9028   73.7644  220.2524 H   0  0  0  0  0  0  0  0  0  0  0  0
  138.4679   74.6846  221.0458 H   0  0  0  0  0  0  0  0  0  0  0  0
  140.3604   78.1856  219.4764 H   0  0  0  0  0  0  0  0  0  0  0  0
  141.3108   78.2286  220.9430 H   0  0  0  0  0  0  0  0  0  0  0  0
  143.4392   77.5326  219.6248 H   0  0  0  0  0  0  0  0  0  0  0  0
  143.6700   79.0760  218.5140 H   0  0  0  0  0  0  0  0  0  0  0  0
  141.2814   77.0036  217.4464 H   0  0  0  0  0  0  0  0  0  0  0  0
  142.8843   76.2993  217.4770 H   0  0  0  0  0  0  0  0  0  0  0  0
  140.7882   74.8904  218.5423 H   0  0  0  0  0  0  0  0  0  0  0  0
  141.7560   72.8060  219.4380 H   0  0  0  0  0  0  0  0  0  0  0  0
  144.1472   73.3485  220.7656 H   0  0  0  0  0  0  0  0  0  0  0  0
  142.9156   70.6327  219.6951 H   0  0  0  0  0  0  0  0  0  0  0  0
  143.4143   70.7586  221.2668 H   0  0  0  0  0  0  0  0  0  0  0  0
  145.9815   70.9555  220.3790 H   0  0  0  0  0  0  0  0  0  0  0  0
  145.0415   68.4463  220.6464 H   0  0  0  0  0  0  0  0  0  0  0  0
  145.4912   66.4034  219.3091 H   0  0  0  0  0  0  0  0  0  0  0  0
  146.0649   66.5685  216.9232 H   0  0  0  0  0  0  0  0  0  0  0  0
  146.2049   68.7968  215.7811 H   0  0  0  0  0  0  0  0  0  0  0  0
  145.7468   70.8207  217.1371 H   0  0  0  0  0  0  0  0  0  0  0  0
  144.2576   71.9879  217.8980 H   0  0  0  0  0  0  0  0  0  0  0  0
  145.5348   72.8871  218.4308 H   0  0  0  0  0  0  0  0  0  0  0  0
  139.1702   69.7254  222.3621 H   0  0  0  0  0  0  0  0  0  0  0  0
  139.0337   68.2556  224.3553 H   0  0  0  0  0  0  0  0  0  0  0  0
  139.4595   67.8801  226.6995 H   0  0  0  0  0  0  0  0  0  0  0  0
  141.3770   71.0048  228.9628 H   0  0  0  0  0  0  0  0  0  0  0  0
  141.4800   72.4061  226.9626 H   0  0  0  0  0  0  0  0  0  0  0  0
  1  2  2  0
  2  3  1  0
  3  4  1  0
  4  5  1  0
  5  6  2  0
  5  7  1  0
  7  8  1  0
  8  9  1  0
  9 10  1  0
  9 11  1  0
 11 12  1  0
 12 13  1  0
 13 14  2  0
 13 15  1  0
 15 16  1  0
 16 17  1  0
 17 18  1  0
 18 19  1  0
 19 20  2  0
 20 21  1  0
 21 22  2  0
 22 23  1  0
 23 24  2  0
 18 25  1  0
  2 26  1  0
 26 27  2  0
 27 28  1  0
 28 29  2  0
 29 30  1  0
 30 31  2  0
 31 32  1  0
 31 33  1  0
 33 34  2  0
 34 35  1  0
 35 36  2  0
 12  7  1  0
 25 16  1  0
 36 26  1  0
 24 19  1  0
 35 29  1  0
  3 37  1  0
  4 38  1  0
  4 39  1  0
  8 40  1  0
  8 41  1  0
  9 42  1  1
 10 43  1  0
 11 44  1  0
 11 45  1  0
 12 46  1  6
 15 47  1  0
 16 48  1  1
 17 49  1  0
 17 50  1  0
 18 51  1  1
 20 52  1  0
 21 53  1  0
 22 54  1  0
 23 55  1  0
 24 56  1  0
 25 57  1  0
 25 58  1  0
 27 59  1  0
 28 60  1  0
 30 61  1  0
 33 62  1  0
 34 63  1  0
M  END
>  <smiles>  (8) 
O=C(NCC(=O)N1C[C@H](O)C[C@H]1C(=O)N[C@H]1C[C@@H](c2ccccc2)C1)c1ccc2cc(F)ccc2n1

>  <score_type>  (8) 
oracle

>  <origin>  (8) 
autodockgpu

>  <m_score__min__energy>  (8) 
-10.06

>  <m_primary>  (8) 
energy

>  <rmsd>  (8) 
6.519033723782564

>  <m_score__min__rmsd>  (8) 
6.519033723782564

>  <meeko>  (8) 
{"free_energy": -8.41, "intermolecular_energy": -10.8, "internal_energy": -2.64, "cluster_size": 7, "cluster_id": 3, "rank_in_cluster": 4}

>  <energy>  (8) 
-8.14

>  <cluster_rmsd>  (8) 
1.86

>  <cluster>  (8) 
2

$$$$

     RDKit          3D

 63 67  0  0  0  0  0  0  0  0999 V2000
  134.3690   76.0300  225.0810 O   0  0  0  0  0  0  0  0  0  0  0  0
  134.9520   74.9710  224.6880 C   0  0  0  0  0  0  0  0  0  0  0  0
  136.0680   75.0030  223.7980 N   0  0  0  0  0  0  0  0  0  0  0  0
  136.5960   76.2220  223.3080 C   0  0  0  0  0  0  0  0  0  0  0  0
  137.4590   76.2240  222.1400 C   0  0  0  0  0  0  0  0  0  0  0  0
  136.8960   75.7390  221.0670 O   0  0  0  0  0  0  0  0  0  0  0  0
  138.7980   76.6640  222.0110 N   0  0  0  0  0  0  0  0  0  0  0  0
  139.5200   77.7180  222.7060 C   0  0  0  0  0  0  0  0  0  0  0  0
  140.9930   77.2390  222.6130 C   0  0  2  0  0  0  0  0  0  0  0  0
  141.8750   78.2650  222.8790 O   0  0  0  0  0  0  0  0  0  0  0  0
  140.9730   76.8170  221.1530 C   0  0  0  0  0  0  0  0  0  0  0  0
  139.7110   76.0240  221.0470 C   0  0  1  0  0  0  0  0  0  0  0  0
  140.0370   74.6290  221.4380 C   0  0  0  0  0  0  0  0  0  0  0  0
  141.2470   74.3120  221.4790 O   0  0  0  0  0  0  0  0  0  0  0  0
  139.0810   73.6480  221.7630 N   0  0  0  0  0  0  0  0  0  0  0  0
  139.5350   72.3330  222.1220 C   0  0  1  0  0  0  0  0  0  0  0  0
  140.6110   72.2670  223.1990 C   0  0  0  0  0  0  0  0  0  0  0  0
  139.9520   70.9710  223.6320 C   0  0  1  0  0  0  0  0  0  0  0  0
  139.9460   70.7100  225.0750 C   0  0  0  0  0  0  0  0  0  0  0  0
  140.6450   71.5480  225.9510 C   0  0  0  0  0  0  0  0  0  0  0  0
  140.6160   71.2760  227.3040 C   0  0  0  0  0  0  0  0  0  0  0  0
  139.9120   70.1950  227.7900 C   0  0  0  0  0  0  0  0  0  0  0  0
  139.2070   69.3430  226.9450 C   0  0  0  0  0  0  0  0  0  0  0  0
  139.2530   69.6390  225.5980 C   0  0  0  0  0  0  0  0  0  0  0  0
  138.6450   71.5810  223.1040 C   0  0  0  0  0  0  0  0  0  0  0  0
  134.4660   73.6610  225.1610 C   0  0  0  0  0  0  0  0  0  0  0  0
  133.4180   73.5480  226.0320 C   0  0  0  0  0  0  0  0  0  0  0  0
  132.9540   72.3150  226.4810 C   0  0  0  0  0  0  0  0  0  0  0  0
  133.5680   71.1640  226.0360 C   0  0  0  0  0  0  0  0  0  0  0  0
  133.1150   69.9260  226.4750 C   0  0  0  0  0  0  0  0  0  0  0  0
  133.7480   68.7900  226.0120 C   0  0  0  0  0  0  0  0  0  0  0  0
  133.3680   67.5490  226.3930 F   0  0  0  0  0  0  0  0  0  0  0  0
  134.8140   68.9120  225.1260 C   0  0  0  0  0  0  0  0  0  0  0  0
  135.2340   70.1400  224.7140 C   0  0  0  0  0  0  0  0  0  0  0  0
  134.6250   71.2950  225.1560 C   0  0  0  0  0  0  0  0  0  0  0  0
  135.0450   72.5110  224.7450 N   0  0  0  0  0  0  0  0  0  0  0  0
  136.5040   74.0800  223.5030 H   0  0  0  0  0  0  0  0  0  0  0  0
  135.7371   76.8663  223.0689 H   0  0  0  0  0  0  0  0  0  0  0  0
  137.2657   76.5498  224.1167 H   0  0  0  0  0  0  0  0  0  0  0  0
  139.3857   78.6880  222.2050 H   0  0  0  0  0  0  0  0  0  0  0  0
  139.1761   77.8756  223.7389 H   0  0  0  0  0  0  0  0  0  0  0  0
  141.3163   76.4626  223.3220 H   0  0  0  0  0  0  0  0  0  0  0  0
  142.6380   78.1350  222.2430 H   0  0  0  0  0  0  0  0  0  0  0  0
  140.9456   77.6935  220.4889 H   0  0  0  0  0  0  0  0  0  0  0  0
  141.8668   76.2495  220.8546 H   0  0  0  0  0  0  0  0  0  0  0  0
  139.2598   75.9981  220.0441 H   0  0  0  0  0  0  0  0  0  0  0  0
  138.0700   73.8820  221.7420 H   0  0  0  0  0  0  0  0  0  0  0  0
  139.7157   71.9804  221.0958 H   0  0  0  0  0  0  0  0  0  0  0  0
  140.5742   73.0772  223.9421 H   0  0  0  0  0  0  0  0  0  0  0  0
  141.6840   72.3350  222.9667 H   0  0  0  0  0  0  0  0  0  0  0  0
  140.3356   69.9921  223.3084 H   0  0  0  0  0  0  0  0  0  0  0  0
  141.2092   72.4107  225.5671 H   0  0  0  0  0  0  0  0  0  0  0  0
  141.1605   71.9289  228.0020 H   0  0  0  0  0  0  0  0  0  0  0  0
  139.9074   70.0010  228.8727 H   0  0  0  0  0  0  0  0  0  0  0  0
  138.6436   68.4803  227.3301 H   0  0  0  0  0  0  0  0  0  0  0  0
  138.7066   68.9843  224.9032 H   0  0  0  0  0  0  0  0  0  0  0  0
  138.1025   72.2144  223.8213 H   0  0  0  0  0  0  0  0  0  0  0  0
  137.7883   70.9696  222.7843 H   0  0  0  0  0  0  0  0  0  0  0  0
  132.9245   74.4634  226.3903 H   0  0  0  0  0  0  0  0  0  0  0  0
  132.1081   72.2598  227.1820 H   0  0  0  0  0  0  0  0  0  0  0  0
  132.2706   69.8527  227.1761 H   0  0  0  0  0  0  0  0  0  0  0  0
  135.3215   68.0092  224.7555 H   0  0  0  0  0  0  0  0  0  0  0  0
  136.0783   70.2120  224.0126 H   0  0  0  0  0  0  0  0  0  0  0  0
  1  2  2  0
  2  3  1  0
  3  4  1  0
  4  5  1  0
  5  6  2  0
  5  7  1  0
  7  8  1  0
  8  9  1  0
  9 10  1  0
  9 11  1  0
 11 12  1  0
 12 13  1  0
 13 14  2  0
 13 15  1  0
 15 16  1  0
 16 17  1  0
 17 18  1  0
 18 19  1  0
 19 20  2  0
 20 21  1  0
 21 22  2  0
 22 23  1  0
 23 24  2  0
 18 25  1  0
  2 26  1  0
 26 27  2  0
 27 28  1  0
 28 29  2  0
 29 30  1  0
 30 31  2  0
 31 32  1  0
 31 33  1  0
 33 34  2  0
 34 35  1  0
 35 36  2  0
 12  7  1  0
 25 16  1  0
 36 26  1  0
 24 19  1  0
 35 29  1  0
  3 37  1  0
  4 38  1  0
  4 39  1  0
  8 40  1  0
  8 41  1  0
  9 42  1  1
 10 43  1  0
 11 44  1  0
 11 45  1  0
 12 46  1  6
 15 47  1  0
 16 48  1  6
 17 49  1  0
 17 50  1  0
 18 51  1  6
 20 52  1  0
 21 53  1  0
 22 54  1  0
 23 55  1  0
 24 56  1  0
 25 57  1  0
 25 58  1  0
 27 59  1  0
 28 60  1  0
 30 61  1  0
 33 62  1  0
 34 63  1  0
M  END
>  <smiles>  (9) 
O=C(NCC(=O)N1C[C@H](O)C[C@H]1C(=O)N[C@H]1C[C@@H](c2ccccc2)C1)c1ccc2cc(F)ccc2n1

>  <score_type>  (9) 
oracle

>  <origin>  (9) 
autodockgpu

>  <m_score__min__energy>  (9) 
-10.06

>  <m_primary>  (9) 
energy

>  <rmsd>  (9) 
7.243650132136509

>  <m_score__min__rmsd>  (9) 
7.243650132136509

>  <meeko>  (9) 
{"free_energy": -8.18, "intermolecular_energy": -10.57, "internal_energy": -3.1, "cluster_size": 2, "cluster_id": 7, "rank_in_cluster": 1}

>  <energy>  (9) 
-8.06

>  <cluster_rmsd>  (9) 
1.88

>  <cluster>  (9) 
2

$$$$

     RDKit          3D

 63 67  0  0  0  0  0  0  0  0999 V2000
  139.2000   68.6990  220.3980 O   0  0  0  0  0  0  0  0  0  0  0  0
  139.6380   69.6730  221.0880 C   0  0  0  0  0  0  0  0  0  0  0  0
  140.2270   70.8270  220.4870 N   0  0  0  0  0  0  0  0  0  0  0  0
  140.3470   70.9550  219.0820 C   0  0  0  0  0  0  0  0  0  0  0  0
  141.6040   71.3880  218.4960 C   0  0  0  0  0  0  0  0  0  0  0  0
  141.6440   71.2840  217.1950 O   0  0  0  0  0  0  0  0  0  0  0  0
  142.7660   71.8890  219.1290 N   0  0  0  0  0  0  0  0  0  0  0  0
  144.0910   72.1670  218.5950 C   0  0  0  0  0  0  0  0  0  0  0  0
  144.6200   73.2650  219.5550 C   0  0  2  0  0  0  0  0  0  0  0  0
  145.9890   73.4040  219.4570 O   0  0  0  0  0  0  0  0  0  0  0  0
  144.1660   72.6270  220.8580 C   0  0  0  0  0  0  0  0  0  0  0  0
  142.7570   72.2250  220.5640 C   0  0  1  0  0  0  0  0  0  0  0  0
  141.8970   73.4020  220.8500 C   0  0  0  0  0  0  0  0  0  0  0  0
  141.1350   73.3290  221.8390 O   0  0  0  0  0  0  0  0  0  0  0  0
  141.8850   74.5840  220.0860 N   0  0  0  0  0  0  0  0  0  0  0  0
  141.0000   75.6470  220.4730 C   0  0  1  0  0  0  0  0  0  0  0  0
  141.0660   76.0760  221.9340 C   0  0  0  0  0  0  0  0  0  0  0  0
  140.7630   77.4740  221.4310 C   0  0  1  0  0  0  0  0  0  0  0  0
  141.4230   78.5680  222.1500 C   0  0  0  0  0  0  0  0  0  0  0  0
  141.5600   78.5210  223.5430 C   0  0  0  0  0  0  0  0  0  0  0  0
  142.1880   79.5650  224.1900 C   0  0  0  0  0  0  0  0  0  0  0  0
  142.6730   80.6430  223.4800 C   0  0  0  0  0  0  0  0  0  0  0  0
  142.5520   80.7200  222.0960 C   0  0  0  0  0  0  0  0  0  0  0  0
  141.9210   79.6620  221.4750 C   0  0  0  0  0  0  0  0  0  0  0  0
  141.4840   77.0530  220.1410 C   0  0  0  0  0  0  0  0  0  0  0  0
  139.5400   69.6190  222.5590 C   0  0  0  0  0  0  0  0  0  0  0  0
  138.8250   68.6470  223.2020 C   0  0  0  0  0  0  0  0  0  0  0  0
  138.7290   68.5890  224.5890 C   0  0  0  0  0  0  0  0  0  0  0  0
  139.3770   69.5410  225.3470 C   0  0  0  0  0  0  0  0  0  0  0  0
  139.2920   69.4960  226.7330 C   0  0  0  0  0  0  0  0  0  0  0  0
  139.9520   70.4610  227.4670 C   0  0  0  0  0  0  0  0  0  0  0  0
  139.9160   70.4860  228.8190 F   0  0  0  0  0  0  0  0  0  0  0  0
  140.6780   71.4470  226.8060 C   0  0  0  0  0  0  0  0  0  0  0  0
  140.7430   71.4640  225.4460 C   0  0  0  0  0  0  0  0  0  0  0  0
  140.0960   70.5160  224.6820 C   0  0  0  0  0  0  0  0  0  0  0  0
  140.1630   70.5360  223.3340 N   0  0  0  0  0  0  0  0  0  0  0  0
  140.5800   71.6010  221.1220 H   0  0  0  0  0  0  0  0  0  0  0  0
  140.1201   69.9679  218.6528 H   0  0  0  0  0  0  0  0  0  0  0  0
  139.6599   71.7804  218.8441 H   0  0  0  0  0  0  0  0  0  0  0  0
  144.7281   71.2709  218.6274 H   0  0  0  0  0  0  0  0  0  0  0  0
  144.0809   72.4768  217.5396 H   0  0  0  0  0  0  0  0  0  0  0  0
  144.2667   74.2932  219.3874 H   0  0  0  0  0  0  0  0  0  0  0  0
  146.1480   74.3780  219.2860 H   0  0  0  0  0  0  0  0  0  0  0  0
  144.7835   71.7509  221.1051 H   0  0  0  0  0  0  0  0  0  0  0  0
  144.2524   73.3008  221.7232 H   0  0  0  0  0  0  0  0  0  0  0  0
  142.3812   71.3786  221.1576 H   0  0  0  0  0  0  0  0  0  0  0  0
  142.5090   74.6750  219.2610 H   0  0  0  0  0  0  0  0  0  0  0  0
  140.0891   75.2143  220.0337 H   0  0  0  0  0  0  0  0  0  0  0  0
  142.0513   75.9571  222.4084 H   0  0  0  0  0  0  0  0  0  0  0  0
  140.4693   75.5892  222.7195 H   0  0  0  0  0  0  0  0  0  0  0  0
  139.7424   77.8841  221.4468 H   0  0  0  0  0  0  0  0  0  0  0  0
  141.1723   77.6638  224.1131 H   0  0  0  0  0  0  0  0  0  0  0  0
  142.3031   79.5373  225.2836 H   0  0  0  0  0  0  0  0  0  0  0  0
  143.1680   81.4627  224.0214 H   0  0  0  0  0  0  0  0  0  0  0  0
  142.9388   81.5786  221.5274 H   0  0  0  0  0  0  0  0  0  0  0  0
  141.8091   79.6930  220.3812 H   0  0  0  0  0  0  0  0  0  0  0  0
  142.5759   77.1853  220.1524 H   0  0  0  0  0  0  0  0  0  0  0  0
  141.2968   77.5339  219.1696 H   0  0  0  0  0  0  0  0  0  0  0  0
  138.3075   67.8841  222.6018 H   0  0  0  0  0  0  0  0  0  0  0  0
  138.1438   67.7940  225.0743 H   0  0  0  0  0  0  0  0  0  0  0  0
  138.7111   68.7081  227.2348 H   0  0  0  0  0  0  0  0  0  0  0  0
  141.2037   72.2191  227.3869 H   0  0  0  0  0  0  0  0  0  0  0  0
  141.3249   72.2520  224.9455 H   0  0  0  0  0  0  0  0  0  0  0  0
  1  2  2  0
  2  3  1  0
  3  4  1  0
  4  5  1  0
  5  6  2  0
  5  7  1  0
  7  8  1  0
  8  9  1  0
  9 10  1  0
  9 11  1  0
 11 12  1  0
 12 13  1  0
 13 14  2  0
 13 15  1  0
 15 16  1  0
 16 17  1  0
 17 18  1  0
 18 19  1  0
 19 20  2  0
 20 21  1  0
 21 22  2  0
 22 23  1  0
 23 24  2  0
 18 25  1  0
  2 26  1  0
 26 27  2  0
 27 28  1  0
 28 29  2  0
 29 30  1  0
 30 31  2  0
 31 32  1  0
 31 33  1  0
 33 34  2  0
 34 35  1  0
 35 36  2  0
 12  7  1  0
 25 16  1  0
 36 26  1  0
 24 19  1  0
 35 29  1  0
  3 37  1  0
  4 38  1  0
  4 39  1  0
  8 40  1  0
  8 41  1  0
  9 42  1  6
 10 43  1  0
 11 44  1  0
 11 45  1  0
 12 46  1  1
 15 47  1  0
 16 48  1  6
 17 49  1  0
 17 50  1  0
 18 51  1  6
 20 52  1  0
 21 53  1  0
 22 54  1  0
 23 55  1  0
 24 56  1  0
 25 57  1  0
 25 58  1  0
 27 59  1  0
 28 60  1  0
 30 61  1  0
 33 62  1  0
 34 63  1  0
M  END
>  <smiles>  (10) 
O=C(NCC(=O)N1C[C@H](O)C[C@H]1C(=O)N[C@H]1C[C@@H](c2ccccc2)C1)c1ccc2cc(F)ccc2n1

>  <score_type>  (10) 
oracle

>  <origin>  (10) 
autodockgpu

>  <m_score__min__energy>  (10) 
-10.06

>  <m_primary>  (10) 
energy

>  <rmsd>  (10) 
4.129827515782719

>  <m_score__min__rmsd>  (10) 
4.129827515782719

>  <meeko>  (10) 
{"free_energy": -8.49, "intermolecular_energy": -10.88, "internal_energy": -2.8, "cluster_size": 5, "cluster_id": 1, "rank_in_cluster": 5}

>  <energy>  (10) 
-8.98

>  <cluster_rmsd>  (10) 
0.0

>  <cluster>  (10) 
3

$$$$

     RDKit          3D

 63 67  0  0  0  0  0  0  0  0999 V2000
  141.9640   76.7040  217.8720 O   0  0  0  0  0  0  0  0  0  0  0  0
  141.2550   76.8390  218.9180 C   0  0  0  0  0  0  0  0  0  0  0  0
  140.2240   75.9140  219.2630 N   0  0  0  0  0  0  0  0  0  0  0  0
  139.9380   74.7830  218.4610 C   0  0  0  0  0  0  0  0  0  0  0  0
  140.8000   73.6160  218.5160 C   0  0  0  0  0  0  0  0  0  0  0  0
  140.3500   72.5940  217.8400 O   0  0  0  0  0  0  0  0  0  0  0  0
  142.0300   73.4370  219.1930 N   0  0  0  0  0  0  0  0  0  0  0  0
  143.2370   74.2500  219.1970 C   0  0  0  0  0  0  0  0  0  0  0  0
  143.8720   73.9060  220.5700 C   0  0  2  0  0  0  0  0  0  0  0  0
  145.2000   74.2780  220.6190 O   0  0  0  0  0  0  0  0  0  0  0  0
  143.6650   72.4010  220.5150 C   0  0  0  0  0  0  0  0  0  0  0  0
  142.2440   72.2720  220.0700 C   0  0  1  0  0  0  0  0  0  0  0  0
  141.3970   72.3360  221.2890 C   0  0  0  0  0  0  0  0  0  0  0  0
  141.3000   73.4440  221.8630 O   0  0  0  0  0  0  0  0  0  0  0  0
  140.7020   71.2410  221.8350 N   0  0  0  0  0  0  0  0  0  0  0  0
  139.9200   71.4430  223.0230 C   0  0  1  0  0  0  0  0  0  0  0  0
  139.3720   70.1850  223.6850 C   0  0  0  0  0  0  0  0  0  0  0  0
  139.5630   70.9160  225.0000 C   0  0  1  0  0  0  0  0  0  0  0  0
  139.9810   70.0900  226.1360 C   0  0  0  0  0  0  0  0  0  0  0  0
  140.5940   70.6740  227.2510 C   0  0  0  0  0  0  0  0  0  0  0  0
  140.9730   69.8680  228.3060 C   0  0  0  0  0  0  0  0  0  0  0  0
  140.7530   68.5070  228.2660 C   0  0  0  0  0  0  0  0  0  0  0  0
  140.1470   67.8970  227.1730 C   0  0  0  0  0  0  0  0  0  0  0  0
  139.7780   68.7260  226.1340 C   0  0  0  0  0  0  0  0  0  0  0  0
  140.7200   71.6480  224.3030 C   0  0  0  0  0  0  0  0  0  0  0  0
  141.4970   77.9880  219.8110 C   0  0  0  0  0  0  0  0  0  0  0  0
  141.6620   79.2580  219.3300 C   0  0  0  0  0  0  0  0  0  0  0  0
  141.8910   80.3460  220.1670 C   0  0  0  0  0  0  0  0  0  0  0  0
  141.9530   80.1440  221.5300 C   0  0  0  0  0  0  0  0  0  0  0  0
  142.1780   81.2210  222.3780 C   0  0  0  0  0  0  0  0  0  0  0  0
  142.2340   80.9900  223.7370 C   0  0  0  0  0  0  0  0  0  0  0  0
  142.4520   81.9850  224.6280 F   0  0  0  0  0  0  0  0  0  0  0  0
  142.0660   79.6960  224.2190 C   0  0  0  0  0  0  0  0  0  0  0  0
  141.8450   78.6610  223.3630 C   0  0  0  0  0  0  0  0  0  0  0  0
  141.7830   78.8560  221.9990 C   0  0  0  0  0  0  0  0  0  0  0  0
  141.5640   77.8270  221.1530 N   0  0  0  0  0  0  0  0  0  0  0  0
  139.6640   76.0920  220.1480 H   0  0  0  0  0  0  0  0  0  0  0  0
  138.9284   74.4450  218.7375 H   0  0  0  0  0  0  0  0  0  0  0  0
  140.0841   75.1565  217.4367 H   0  0  0  0  0  0  0  0  0  0  0  0
  143.9059   73.9718  218.3693 H   0  0  0  0  0  0  0  0  0  0  0  0
  143.0416   75.3241  219.0621 H   0  0  0  0  0  0  0  0  0  0  0  0
  143.4546   74.4053  221.4568 H   0  0  0  0  0  0  0  0  0  0  0  0
  145.4360   74.5540  219.6850 H   0  0  0  0  0  0  0  0  0  0  0  0
  144.3496   71.9341  219.7915 H   0  0  0  0  0  0  0  0  0  0  0  0
  143.8655   71.9010  221.4740 H   0  0  0  0  0  0  0  0  0  0  0  0
  142.0051   71.3386  219.5392 H   0  0  0  0  0  0  0  0  0  0  0  0
  140.7600   70.3110  221.3790 H   0  0  0  0  0  0  0  0  0  0  0  0
  139.2592   72.2173  222.6061 H   0  0  0  0  0  0  0  0  0  0  0  0
  139.9938   69.2864  223.5594 H   0  0  0  0  0  0  0  0  0  0  0  0
  138.4109   69.7362  223.3939 H   0  0  0  0  0  0  0  0  0  0  0  0
  138.7307   71.4352  225.4977 H   0  0  0  0  0  0  0  0  0  0  0  0
  140.7711   71.7591  227.2860 H   0  0  0  0  0  0  0  0  0  0  0  0
  141.4553   70.3158  229.1874 H   0  0  0  0  0  0  0  0  0  0  0  0
  141.0648   67.8883  229.1204 H   0  0  0  0  0  0  0  0  0  0  0  0
  139.9713   66.8117  227.1388 H   0  0  0  0  0  0  0  0  0  0  0  0
  139.2950   68.2740  225.2551 H   0  0  0  0  0  0  0  0  0  0  0  0
  141.6885   71.1275  224.3360 H   0  0  0  0  0  0  0  0  0  0  0  0
  141.0821   72.6347  224.6275 H   0  0  0  0  0  0  0  0  0  0  0  0
  141.6119   79.4250  218.2439 H   0  0  0  0  0  0  0  0  0  0  0  0
  142.0209   81.3543  219.7469 H   0  0  0  0  0  0  0  0  0  0  0  0
  142.3087   82.2360  221.9747 H   0  0  0  0  0  0  0  0  0  0  0  0
  142.1122   79.5074  225.3017 H   0  0  0  0  0  0  0  0  0  0  0  0
  141.7130   77.6468  223.7680 H   0  0  0  0  0  0  0  0  0  0  0  0
  1  2  2  0
  2  3  1  0
  3  4  1  0
  4  5  1  0
  5  6  2  0
  5  7  1  0
  7  8  1  0
  8  9  1  0
  9 10  1  0
  9 11  1  0
 11 12  1  0
 12 13  1  0
 13 14  2  0
 13 15  1  0
 15 16  1  0
 16 17  1  0
 17 18  1  0
 18 19  1  0
 19 20  2  0
 20 21  1  0
 21 22  2  0
 22 23  1  0
 23 24  2  0
 18 25  1  0
  2 26  1  0
 26 27  2  0
 27 28  1  0
 28 29  2  0
 29 30  1  0
 30 31  2  0
 31 32  1  0
 31 33  1  0
 33 34  2  0
 34 35  1  0
 35 36  2  0
 12  7  1  0
 25 16  1  0
 36 26  1  0
 24 19  1  0
 35 29  1  0
  3 37  1  0
  4 38  1  0
  4 39  1  0
  8 40  1  0
  8 41  1  0
  9 42  1  1
 10 43  1  0
 11 44  1  0
 11 45  1  0
 12 46  1  6
 15 47  1  0
 16 48  1  6
 17 49  1  0
 17 50  1  0
 18 51  1  1
 20 52  1  0
 21 53  1  0
 22 54  1  0
 23 55  1  0
 24 56  1  0
 25 57  1  0
 25 58  1  0
 27 59  1  0
 28 60  1  0
 30 61  1  0
 33 62  1  0
 34 63  1  0
M  END
>  <smiles>  (11) 
O=C(NCC(=O)N1C[C@H](O)C[C@H]1C(=O)N[C@H]1C[C@@H](c2ccccc2)C1)c1ccc2cc(F)ccc2n1

>  <score_type>  (11) 
oracle

>  <origin>  (11) 
autodockgpu

>  <m_score__min__energy>  (11) 
-10.06

>  <m_primary>  (11) 
energy

>  <rmsd>  (11) 
9.179340255059818

>  <m_score__min__rmsd>  (11) 
9.179340255059818

>  <meeko>  (11) 
{"free_energy": -8.92, "intermolecular_energy": -11.3, "internal_energy": -2.06, "cluster_size": 2, "cluster_id": 4, "rank_in_cluster": 1}

>  <energy>  (11) 
-8.67

>  <cluster_rmsd>  (11) 
1.61

>  <cluster>  (11) 
3

$$$$

     RDKit          3D

 63 67  0  0  0  0  0  0  0  0999 V2000
  137.8640   71.1330  221.7800 O   0  0  0  0  0  0  0  0  0  0  0  0
  138.6590   71.5420  222.6830 C   0  0  0  0  0  0  0  0  0  0  0  0
  139.2760   72.8290  222.6290 N   0  0  0  0  0  0  0  0  0  0  0  0
  139.0270   73.7300  221.5650 C   0  0  0  0  0  0  0  0  0  0  0  0
  139.6140   75.0580  221.5850 C   0  0  0  0  0  0  0  0  0  0  0  0
  140.7610   75.1200  222.2050 O   0  0  0  0  0  0  0  0  0  0  0  0
  139.1210   76.2680  221.0410 N   0  0  0  0  0  0  0  0  0  0  0  0
  139.1660   76.7840  219.6810 C   0  0  0  0  0  0  0  0  0  0  0  0
  137.9340   77.7250  219.6350 C   0  0  2  0  0  0  0  0  0  0  0  0
  138.0030   78.5950  218.5670 O   0  0  0  0  0  0  0  0  0  0  0  0
  138.1460   78.3980  220.9810 C   0  0  0  0  0  0  0  0  0  0  0  0
  138.4250   77.2480  221.8940 C   0  0  1  0  0  0  0  0  0  0  0  0
  137.1130   76.7360  222.3650 C   0  0  0  0  0  0  0  0  0  0  0  0
  136.0980   77.4140  222.0870 O   0  0  0  0  0  0  0  0  0  0  0  0
  136.9380   75.5470  223.0980 N   0  0  0  0  0  0  0  0  0  0  0  0
  135.6100   75.1700  223.4950 C   0  0  1  0  0  0  0  0  0  0  0  0
  135.2250   73.7160  223.2500 C   0  0  0  0  0  0  0  0  0  0  0  0
  134.3970   73.8280  224.5150 C   0  0  1  0  0  0  0  0  0  0  0  0
  134.3430   72.6250  225.3520 C   0  0  0  0  0  0  0  0  0  0  0  0
  133.7320   72.6630  226.6110 C   0  0  0  0  0  0  0  0  0  0  0  0
  133.6950   71.5120  227.3720 C   0  0  0  0  0  0  0  0  0  0  0  0
  134.2530   70.3410  226.9040 C   0  0  0  0  0  0  0  0  0  0  0  0
  134.8680   70.2710  225.6580 C   0  0  0  0  0  0  0  0  0  0  0  0
  134.8890   71.4350  224.9180 C   0  0  0  0  0  0  0  0  0  0  0  0
  135.4350   74.8620  224.9770 C   0  0  0  0  0  0  0  0  0  0  0  0
  138.9620   70.6650  223.8300 C   0  0  0  0  0  0  0  0  0  0  0  0
  138.5160   69.3740  223.8920 C   0  0  0  0  0  0  0  0  0  0  0  0
  138.7980   68.5400  224.9700 C   0  0  0  0  0  0  0  0  0  0  0  0
  139.5550   69.0270  226.0150 C   0  0  0  0  0  0  0  0  0  0  0  0
  139.8470   68.2070  227.0980 C   0  0  0  0  0  0  0  0  0  0  0  0
  140.6070   68.7200  228.1290 C   0  0  0  0  0  0  0  0  0  0  0  0
  140.9320   67.9860  229.2180 F   0  0  0  0  0  0  0  0  0  0  0  0
  141.0570   70.0350  228.0590 C   0  0  0  0  0  0  0  0  0  0  0  0
  140.7560   70.8140  226.9840 C   0  0  0  0  0  0  0  0  0  0  0  0
  139.9990   70.3330  225.9370 C   0  0  0  0  0  0  0  0  0  0  0  0
  139.7020   71.1090  224.8720 N   0  0  0  0  0  0  0  0  0  0  0  0
  139.9360   73.1040  223.4140 H   0  0  0  0  0  0  0  0  0  0  0  0
  139.3803   73.2406  220.6454 H   0  0  0  0  0  0  0  0  0  0  0  0
  137.9485   73.9293  221.6500 H   0  0  0  0  0  0  0  0  0  0  0  0
  140.0973   77.3400  219.4979 H   0  0  0  0  0  0  0  0  0  0  0  0
  139.1438   75.9964  218.9134 H   0  0  0  0  0  0  0  0  0  0  0  0
  136.9485   77.2573  219.4937 H   0  0  0  0  0  0  0  0  0  0  0  0
  137.2700   78.3150  217.9440 H   0  0  0  0  0  0  0  0  0  0  0  0
  138.9997   79.0908  220.9461 H   0  0  0  0  0  0  0  0  0  0  0  0
  137.2868   79.0058  221.3009 H   0  0  0  0  0  0  0  0  0  0  0  0
  139.0314   77.4917  222.7788 H   0  0  0  0  0  0  0  0  0  0  0  0
  137.7600   74.9610  223.3410 H   0  0  0  0  0  0  0  0  0  0  0  0
  135.0914   76.0022  222.9965 H   0  0  0  0  0  0  0  0  0  0  0  0
  136.0586   73.0002  223.3031 H   0  0  0  0  0  0  0  0  0  0  0  0
  134.8004   73.3710  222.2957 H   0  0  0  0  0  0  0  0  0  0  0  0
  133.3162   74.0297  224.4812 H   0  0  0  0  0  0  0  0  0  0  0  0
  133.2880   73.5961  226.9881 H   0  0  0  0  0  0  0  0  0  0  0  0
  133.2155   71.5290  228.3619 H   0  0  0  0  0  0  0  0  0  0  0  0
  134.2108   69.4389  227.5321 H   0  0  0  0  0  0  0  0  0  0  0  0
  135.3135   69.3377  225.2831 H   0  0  0  0  0  0  0  0  0  0  0  0
  135.3673   71.4130  223.9277 H   0  0  0  0  0  0  0  0  0  0  0  0
  136.3220   74.4424  225.4741 H   0  0  0  0  0  0  0  0  0  0  0  0
  135.2116   75.6376  225.7244 H   0  0  0  0  0  0  0  0  0  0  0  0
  137.9129   68.9806  223.0604 H   0  0  0  0  0  0  0  0  0  0  0  0
  138.4222   67.5064  224.9883 H   0  0  0  0  0  0  0  0  0  0  0  0
  139.4800   67.1706  227.1327 H   0  0  0  0  0  0  0  0  0  0  0  0
  141.6614   70.4487  228.8797 H   0  0  0  0  0  0  0  0  0  0  0  0
  141.1248   71.8498  226.9500 H   0  0  0  0  0  0  0  0  0  0  0  0
  1  2  2  0
  2  3  1  0
  3  4  1  0
  4  5  1  0
  5  6  2  0
  5  7  1  0
  7  8  1  0
  8  9  1  0
  9 10  1  0
  9 11  1  0
 11 12  1  0
 12 13  1  0
 13 14  2  0
 13 15  1  0
 15 16  1  0
 16 17  1  0
 17 18  1  0
 18 19  1  0
 19 20  2  0
 20 21  1  0
 21 22  2  0
 22 23  1  0
 23 24  2  0
 18 25  1  0
  2 26  1  0
 26 27  2  0
 27 28  1  0
 28 29  2  0
 29 30  1  0
 30 31  2  0
 31 32  1  0
 31 33  1  0
 33 34  2  0
 34 35  1  0
 35 36  2  0
 12  7  1  0
 25 16  1  0
 36 26  1  0
 24 19  1  0
 35 29  1  0
  3 37  1  0
  4 38  1  0
  4 39  1  0
  8 40  1  0
  8 41  1  0
  9 42  1  1
 10 43  1  0
 11 44  1  0
 11 45  1  0
 12 46  1  1
 15 47  1  0
 16 48  1  6
 17 49  1  0
 17 50  1  0
 18 51  1  6
 20 52  1  0
 21 53  1  0
 22 54  1  0
 23 55  1  0
 24 56  1  0
 25 57  1  0
 25 58  1  0
 27 59  1  0
 28 60  1  0
 30 61  1  0
 33 62  1  0
 34 63  1  0
M  END
>  <smiles>  (12) 
O=C(NCC(=O)N1C[C@H](O)C[C@H]1C(=O)N[C@H]1C[C@@H](c2ccccc2)C1)c1ccc2cc(F)ccc2n1

>  <score_type>  (12) 
oracle

>  <origin>  (12) 
autodockgpu

>  <m_score__min__energy>  (12) 
-10.06

>  <m_primary>  (12) 
energy

>  <rmsd>  (12) 
5.719326621019457

>  <m_score__min__rmsd>  (12) 
5.719326621019457

>  <meeko>  (12) 
{"free_energy": -7.84, "intermolecular_energy": -10.22, "internal_energy": -3.03, "cluster_size": 1, "cluster_id": 10, "rank_in_cluster": 1}

>  <energy>  (12) 
-8.51

>  <cluster_rmsd>  (12) 
0.93

>  <cluster>  (12) 
3

$$$$

     RDKit          3D

 63 67  0  0  0  0  0  0  0  0999 V2000
  138.4690   74.8240  221.9450 O   0  0  0  0  0  0  0  0  0  0  0  0
  139.6390   75.3180  221.9930 C   0  0  0  0  0  0  0  0  0  0  0  0
  140.8110   74.5040  221.9450 N   0  0  0  0  0  0  0  0  0  0  0  0
  140.7360   73.0950  221.8310 C   0  0  0  0  0  0  0  0  0  0  0  0
  141.6370   72.3880  220.9390 C   0  0  0  0  0  0  0  0  0  0  0  0
  141.0710   71.4160  220.2760 O   0  0  0  0  0  0  0  0  0  0  0  0
  143.0160   72.6000  220.7000 N   0  0  0  0  0  0  0  0  0  0  0  0
  144.0680   71.6660  220.3290 C   0  0  0  0  0  0  0  0  0  0  0  0
  145.0860   72.5770  219.5940 C   0  0  2  0  0  0  0  0  0  0  0  0
  146.3210   71.9700  219.4880 O   0  0  0  0  0  0  0  0  0  0  0  0
  145.0620   73.7370  220.5760 C   0  0  0  0  0  0  0  0  0  0  0  0
  143.6010   73.9480  220.8120 C   0  0  1  0  0  0  0  0  0  0  0  0
  143.1110   74.8530  219.7410 C   0  0  0  0  0  0  0  0  0  0  0  0
  143.1330   74.4190  218.5680 O   0  0  0  0  0  0  0  0  0  0  0  0
  142.6270   76.1560  219.9590 N   0  0  0  0  0  0  0  0  0  0  0  0
  142.1860   76.9270  218.8300 C   0  0  1  0  0  0  0  0  0  0  0  0
  140.9420   77.7790  219.0460 C   0  0  0  0  0  0  0  0  0  0  0  0
  141.5800   78.7710  218.0930 C   0  0  1  0  0  0  0  0  0  0  0  0
  141.3450   80.1870  218.3920 C   0  0  0  0  0  0  0  0  0  0  0  0
  142.3670   81.1280  218.2180 C   0  0  0  0  0  0  0  0  0  0  0  0
  142.1120   82.4540  218.5060 C   0  0  0  0  0  0  0  0  0  0  0  0
  140.8710   82.8500  218.9600 C   0  0  0  0  0  0  0  0  0  0  0  0
  139.8360   81.9390  219.1430 C   0  0  0  0  0  0  0  0  0  0  0  0
  140.1180   80.6210  218.8470 C   0  0  0  0  0  0  0  0  0  0  0  0
  142.9260   78.2400  218.6090 C   0  0  0  0  0  0  0  0  0  0  0  0
  139.8020   76.7800  222.1030 C   0  0  0  0  0  0  0  0  0  0  0  0
  138.7310   77.6300  222.1110 C   0  0  0  0  0  0  0  0  0  0  0  0
  138.8770   79.0100  222.2150 C   0  0  0  0  0  0  0  0  0  0  0  0
  140.1440   79.5450  222.3160 C   0  0  0  0  0  0  0  0  0  0  0  0
  140.3050   80.9210  222.4220 C   0  0  0  0  0  0  0  0  0  0  0  0
  141.5850   81.4290  222.5220 C   0  0  0  0  0  0  0  0  0  0  0  0
  141.8260   82.7560  222.6270 F   0  0  0  0  0  0  0  0  0  0  0  0
  142.6700   80.5590  222.5140 C   0  0  0  0  0  0  0  0  0  0  0  0
  142.4790   79.2140  222.4090 C   0  0  0  0  0  0  0  0  0  0  0  0
  141.2150   78.6730  222.3070 C   0  0  0  0  0  0  0  0  0  0  0  0
  141.0300   77.3400  222.2040 N   0  0  0  0  0  0  0  0  0  0  0  0
  141.7590   74.9820  221.9970 H   0  0  0  0  0  0  0  0  0  0  0  0
  140.9017   72.6860  222.8386 H   0  0  0  0  0  0  0  0  0  0  0  0
  139.7491   72.9315  221.3735 H   0  0  0  0  0  0  0  0  0  0  0  0
  144.5197   71.2029  221.2187 H   0  0  0  0  0  0  0  0  0  0  0  0
  143.7106   70.8257  219.7156 H   0  0  0  0  0  0  0  0  0  0  0  0
  144.8630   72.8412  218.5498 H   0  0  0  0  0  0  0  0  0  0  0  0
  146.4960   71.5590  220.3850 H   0  0  0  0  0  0  0  0  0  0  0  0
  145.5795   73.4746  221.5105 H   0  0  0  0  0  0  0  0  0  0  0  0
  145.5742   74.6346  220.1991 H   0  0  0  0  0  0  0  0  0  0  0  0
  143.3467   74.4013  221.7814 H   0  0  0  0  0  0  0  0  0  0  0  0
  142.5920   76.5420  220.9230 H   0  0  0  0  0  0  0  0  0  0  0  0
  142.2083   76.1033  218.1012 H   0  0  0  0  0  0  0  0  0  0  0  0
  140.8039   78.1461  220.0737 H   0  0  0  0  0  0  0  0  0  0  0  0
  139.9252   77.3871  218.8960 H   0  0  0  0  0  0  0  0  0  0  0  0
  141.3107   78.8021  217.0269 H   0  0  0  0  0  0  0  0  0  0  0  0
  143.3581   80.8156  217.8573 H   0  0  0  0  0  0  0  0  0  0  0  0
  142.9068   83.2026  218.3720 H   0  0  0  0  0  0  0  0  0  0  0  0
  140.6956   83.9128  219.1829 H   0  0  0  0  0  0  0  0  0  0  0  0
  138.8455   82.2525  219.5044 H   0  0  0  0  0  0  0  0  0  0  0  0
  139.3201   79.8758  218.9814 H   0  0  0  0  0  0  0  0  0  0  0  0
  143.2992   78.7247  219.5232 H   0  0  0  0  0  0  0  0  0  0  0  0
  143.8565   78.3088  218.0264 H   0  0  0  0  0  0  0  0  0  0  0  0
  137.7182   77.2081  222.0324 H   0  0  0  0  0  0  0  0  0  0  0  0
  137.9935   79.6654  222.2166 H   0  0  0  0  0  0  0  0  0  0  0  0
  139.4323   81.5906  222.4262 H   0  0  0  0  0  0  0  0  0  0  0  0
  143.6912   80.9602  222.5931 H   0  0  0  0  0  0  0  0  0  0  0  0
  143.3523   78.5452  222.4055 H   0  0  0  0  0  0  0  0  0  0  0  0
  1  2  2  0
  2  3  1  0
  3  4  1  0
  4  5  1  0
  5  6  2  0
  5  7  1  0
  7  8  1  0
  8  9  1  0
  9 10  1  0
  9 11  1  0
 11 12  1  0
 12 13  1  0
 13 14  2  0
 13 15  1  0
 15 16  1  0
 16 17  1  0
 17 18  1  0
 18 19  1  0
 19 20  2  0
 20 21  1  0
 21 22  2  0
 22 23  1  0
 23 24  2  0
 18 25  1  0
  2 26  1  0
 26 27  2  0
 27 28  1  0
 28 29  2  0
 29 30  1  0
 30 31  2  0
 31 32  1  0
 31 33  1  0
 33 34  2  0
 34 35  1  0
 35 36  2  0
 12  7  1  0
 25 16  1  0
 36 26  1  0
 24 19  1  0
 35 29  1  0
  3 37  1  0
  4 38  1  0
  4 39  1  0
  8 40  1  0
  8 41  1  0
  9 42  1  6
 10 43  1  0
 11 44  1  0
 11 45  1  0
 12 46  1  1
 15 47  1  0
 16 48  1  6
 17 49  1  0
 17 50  1  0
 18 51  1  6
 20 52  1  0
 21 53  1  0
 22 54  1  0
 23 55  1  0
 24 56  1  0
 25 57  1  0
 25 58  1  0
 27 59  1  0
 28 60  1  0
 30 61  1  0
 33 62  1  0
 34 63  1  0
M  END
>  <smiles>  (13) 
O=C(NCC(=O)N1C[C@H](O)C[C@H]1C(=O)N[C@H]1C[C@@H](c2ccccc2)C1)c1ccc2cc(F)ccc2n1

>  <score_type>  (13) 
oracle

>  <origin>  (13) 
autodockgpu

>  <m_score__min__energy>  (13) 
-10.06

>  <m_primary>  (13) 
energy

>  <rmsd>  (13) 
7.194641667362426

>  <m_score__min__rmsd>  (13) 
7.194641667362426

>  <meeko>  (13) 
{"free_energy": -7.37, "intermolecular_energy": -9.75, "internal_energy": -4.68, "cluster_size": 13, "cluster_id": 6, "rank_in_cluster": 6}

>  <energy>  (13) 
-8.41

>  <cluster_rmsd>  (13) 
1.09

>  <cluster>  (13) 
3

$$$$

     RDKit          3D

 63 67  0  0  0  0  0  0  0  0999 V2000
  138.4850   75.5050  221.2250 O   0  0  0  0  0  0  0  0  0  0  0  0
  139.6670   75.7430  221.6260 C   0  0  0  0  0  0  0  0  0  0  0  0
  140.7120   74.7750  221.5340 N   0  0  0  0  0  0  0  0  0  0  0  0
  140.4920   73.4910  220.9790 C   0  0  0  0  0  0  0  0  0  0  0  0
  141.5890   72.5470  220.8720 C   0  0  0  0  0  0  0  0  0  0  0  0
  141.2800   71.3330  221.2400 O   0  0  0  0  0  0  0  0  0  0  0  0
  142.9200   72.7590  220.4390 N   0  0  0  0  0  0  0  0  0  0  0  0
  143.8450   71.8730  219.7490 C   0  0  0  0  0  0  0  0  0  0  0  0
  144.7770   72.8660  219.0070 C   0  0  2  0  0  0  0  0  0  0  0  0
  145.9430   72.2540  218.5960 O   0  0  0  0  0  0  0  0  0  0  0  0
  144.9760   73.8460  220.1520 C   0  0  0  0  0  0  0  0  0  0  0  0
  143.5880   74.0530  220.6640 C   0  0  1  0  0  0  0  0  0  0  0  0
  142.9790   75.1370  219.8520 C   0  0  0  0  0  0  0  0  0  0  0  0
  142.7080   76.2100  220.4370 O   0  0  0  0  0  0  0  0  0  0  0  0
  142.6890   75.0380  218.4780 N   0  0  0  0  0  0  0  0  0  0  0  0
  142.0950   76.1640  217.8140 C   0  0  1  0  0  0  0  0  0  0  0  0
  140.8440   76.7420  218.4640 C   0  0  0  0  0  0  0  0  0  0  0  0
  141.3310   78.0890  217.9660 C   0  0  1  0  0  0  0  0  0  0  0  0
  141.0650   79.2300  218.8470 C   0  0  0  0  0  0  0  0  0  0  0  0
  142.1030   80.0900  219.2270 C   0  0  0  0  0  0  0  0  0  0  0  0
  141.8190   81.1570  220.0550 C   0  0  0  0  0  0  0  0  0  0  0  0
  140.5350   81.3750  220.5070 C   0  0  0  0  0  0  0  0  0  0  0  0
  139.4830   80.5390  220.1480 C   0  0  0  0  0  0  0  0  0  0  0  0
  139.7940   79.4810  219.3190 C   0  0  0  0  0  0  0  0  0  0  0  0
  142.7470   77.5110  218.1040 C   0  0  0  0  0  0  0  0  0  0  0  0
  139.9790   77.0620  222.2090 C   0  0  0  0  0  0  0  0  0  0  0  0
  139.0090   77.8730  222.7290 C   0  0  0  0  0  0  0  0  0  0  0  0
  139.2960   79.1170  223.2810 C   0  0  0  0  0  0  0  0  0  0  0  0
  140.6040   79.5540  223.3100 C   0  0  0  0  0  0  0  0  0  0  0  0
  140.9070   80.7930  223.8590 C   0  0  0  0  0  0  0  0  0  0  0  0
  142.2250   81.2040  223.8750 C   0  0  0  0  0  0  0  0  0  0  0  0
  142.6000   82.3970  224.3900 F   0  0  0  0  0  0  0  0  0  0  0  0
  143.2070   80.3740  223.3440 C   0  0  0  0  0  0  0  0  0  0  0  0
  142.8790   79.1640  222.8130 C   0  0  0  0  0  0  0  0  0  0  0  0
  141.5730   78.7230  222.7810 C   0  0  0  0  0  0  0  0  0  0  0  0
  141.2510   77.5220  222.2540 N   0  0  0  0  0  0  0  0  0  0  0  0
  141.6760   75.0380  221.8960 H   0  0  0  0  0  0  0  0  0  0  0  0
  139.7173   73.0086  221.5931 H   0  0  0  0  0  0  0  0  0  0  0  0
  140.2442   73.7092  219.9297 H   0  0  0  0  0  0  0  0  0  0  0  0
  144.4104   71.2558  220.4627 H   0  0  0  0  0  0  0  0  0  0  0  0
  143.3467   71.1573  219.0786 H   0  0  0  0  0  0  0  0  0  0  0  0
  144.4011   73.3061  218.0716 H   0  0  0  0  0  0  0  0  0  0  0  0
  145.6630   71.3690  218.2180 H   0  0  0  0  0  0  0  0  0  0  0  0
  145.6245   73.4177  220.9304 H   0  0  0  0  0  0  0  0  0  0  0  0
  145.4669   74.7803  219.8419 H   0  0  0  0  0  0  0  0  0  0  0  0
  143.5212   74.3443  221.7226 H   0  0  0  0  0  0  0  0  0  0  0  0
  142.9060   74.1620  217.9650 H   0  0  0  0  0  0  0  0  0  0  0  0
  142.0760   75.7180  216.8086 H   0  0  0  0  0  0  0  0  0  0  0  0
  140.8006   76.6401  219.5584 H   0  0  0  0  0  0  0  0  0  0  0  0
  139.8356   76.3613  218.2446 H   0  0  0  0  0  0  0  0  0  0  0  0
  140.9480   78.5330  217.0353 H   0  0  0  0  0  0  0  0  0  0  0  0
  143.1294   79.9176  218.8708 H   0  0  0  0  0  0  0  0  0  0  0  0
  142.6258   81.8408  220.3575 H   0  0  0  0  0  0  0  0  0  0  0  0
  140.3375   82.2316  221.1682 H   0  0  0  0  0  0  0  0  0  0  0  0
  138.4574   80.7122  220.5060 H   0  0  0  0  0  0  0  0  0  0  0  0
  138.9838   78.8005  219.0181 H   0  0  0  0  0  0  0  0  0  0  0  0
  143.1945   77.6069  219.1043 H   0  0  0  0  0  0  0  0  0  0  0  0
  143.6050   77.8932  217.5315 H   0  0  0  0  0  0  0  0  0  0  0  0
  137.9642   77.5294  222.7102 H   0  0  0  0  0  0  0  0  0  0  0  0
  138.4900   79.7444  223.6893 H   0  0  0  0  0  0  0  0  0  0  0  0
  140.1139   81.4334  224.2723 H   0  0  0  0  0  0  0  0  0  0  0  0
  144.2581   80.6983  223.3532 H   0  0  0  0  0  0  0  0  0  0  0  0
  143.6732   78.5243  222.4006 H   0  0  0  0  0  0  0  0  0  0  0  0
  1  2  2  0
  2  3  1  0
  3  4  1  0
  4  5  1  0
  5  6  2  0
  5  7  1  0
  7  8  1  0
  8  9  1  0
  9 10  1  0
  9 11  1  0
 11 12  1  0
 12 13  1  0
 13 14  2  0
 13 15  1  0
 15 16  1  0
 16 17  1  0
 17 18  1  0
 18 19  1  0
 19 20  2  0
 20 21  1  0
 21 22  2  0
 22 23  1  0
 23 24  2  0
 18 25  1  0
  2 26  1  0
 26 27  2  0
 27 28  1  0
 28 29  2  0
 29 30  1  0
 30 31  2  0
 31 32  1  0
 31 33  1  0
 33 34  2  0
 34 35  1  0
 35 36  2  0
 12  7  1  0
 25 16  1  0
 36 26  1  0
 24 19  1  0
 35 29  1  0
  3 37  1  0
  4 38  1  0
  4 39  1  0
  8 40  1  0
  8 41  1  0
  9 42  1  6
 10 43  1  0
 11 44  1  0
 11 45  1  0
 12 46  1  1
 15 47  1  0
 16 48  1  6
 17 49  1  0
 17 50  1  0
 18 51  1  6
 20 52  1  0
 21 53  1  0
 22 54  1  0
 23 55  1  0
 24 56  1  0
 25 57  1  0
 25 58  1  0
 27 59  1  0
 28 60  1  0
 30 61  1  0
 33 62  1  0
 34 63  1  0
M  END
>  <smiles>  (14) 
O=C(NCC(=O)N1C[C@H](O)C[C@H]1C(=O)N[C@H]1C[C@@H](c2ccccc2)C1)c1ccc2cc(F)ccc2n1

>  <score_type>  (14) 
oracle

>  <origin>  (14) 
autodockgpu

>  <m_score__min__energy>  (14) 
-10.06

>  <m_primary>  (14) 
energy

>  <rmsd>  (14) 
7.084097448987617

>  <m_score__min__rmsd>  (14) 
7.084097448987617

>  <meeko>  (14) 
{"free_energy": -6.89, "intermolecular_energy": -9.28, "internal_energy": -4.57, "cluster_size": 2, "cluster_id": 4, "rank_in_cluster": 2}

>  <energy>  (14) 
-8.32

>  <cluster_rmsd>  (14) 
1.42

>  <cluster>  (14) 
3

$$$$

     RDKit          3D

 63 67  0  0  0  0  0  0  0  0999 V2000
  140.7790   73.2660  222.2790 O   0  0  0  0  0  0  0  0  0  0  0  0
  139.7450   72.6010  222.6030 C   0  0  0  0  0  0  0  0  0  0  0  0
  138.4810   72.8030  221.9720 N   0  0  0  0  0  0  0  0  0  0  0  0
  138.3090   73.7550  220.9370 C   0  0  0  0  0  0  0  0  0  0  0  0
  139.4400   74.5370  220.4730 C   0  0  0  0  0  0  0  0  0  0  0  0
  140.0520   74.0220  219.4410 O   0  0  0  0  0  0  0  0  0  0  0  0
  139.9620   75.7520  220.9780 N   0  0  0  0  0  0  0  0  0  0  0  0
  139.7980   76.3870  222.2770 C   0  0  0  0  0  0  0  0  0  0  0  0
  141.0880   77.2380  222.4040 C   0  0  2  0  0  0  0  0  0  0  0  0
  140.9630   78.2010  223.3840 O   0  0  0  0  0  0  0  0  0  0  0  0
  141.0940   77.8040  220.9930 C   0  0  0  0  0  0  0  0  0  0  0  0
  140.8330   76.6010  220.1460 C   0  0  1  0  0  0  0  0  0  0  0  0
  142.1460   75.9570  219.8850 C   0  0  0  0  0  0  0  0  0  0  0  0
  143.0170   76.6430  219.3050 O   0  0  0  0  0  0  0  0  0  0  0  0
  142.4720   74.6360  220.2460 N   0  0  0  0  0  0  0  0  0  0  0  0
  143.7810   74.1360  219.9300 C   0  0  1  0  0  0  0  0  0  0  0  0
  144.3060   73.0200  220.8240 C   0  0  0  0  0  0  0  0  0  0  0  0
  144.9930   72.4870  219.5820 C   0  0  1  0  0  0  0  0  0  0  0  0
  145.0630   71.0270  219.4670 C   0  0  0  0  0  0  0  0  0  0  0  0
  143.9510   70.2370  219.7780 C   0  0  0  0  0  0  0  0  0  0  0  0
  144.0490   68.8650  219.6560 C   0  0  0  0  0  0  0  0  0  0  0  0
  145.2240   68.2780  219.2370 C   0  0  0  0  0  0  0  0  0  0  0  0
  146.3470   69.0360  218.9210 C   0  0  0  0  0  0  0  0  0  0  0  0
  146.2210   70.4030  219.0500 C   0  0  0  0  0  0  0  0  0  0  0  0
  143.8340   73.1190  218.7970 C   0  0  0  0  0  0  0  0  0  0  0  0
  139.8450   71.5830  223.6670 C   0  0  0  0  0  0  0  0  0  0  0  0
  139.4330   70.2930  223.4770 C   0  0  0  0  0  0  0  0  0  0  0  0
  139.5250   69.3280  224.4760 C   0  0  0  0  0  0  0  0  0  0  0  0
  140.0510   69.6790  225.7020 C   0  0  0  0  0  0  0  0  0  0  0  0
  140.1510   68.7260  226.7080 C   0  0  0  0  0  0  0  0  0  0  0  0
  140.6830   69.1040  227.9240 C   0  0  0  0  0  0  0  0  0  0  0  0
  140.8120   68.2360  228.9540 F   0  0  0  0  0  0  0  0  0  0  0  0
  141.1000   70.4180  228.1100 C   0  0  0  0  0  0  0  0  0  0  0  0
  140.9900   71.3290  227.1040 C   0  0  0  0  0  0  0  0  0  0  0  0
  140.4640   70.9850  225.8770 C   0  0  0  0  0  0  0  0  0  0  0  0
  140.3560   71.8910  224.8820 N   0  0  0  0  0  0  0  0  0  0  0  0
  137.6560   72.2180  222.2970 H   0  0  0  0  0  0  0  0  0  0  0  0
  137.9219   73.2084  220.0644 H   0  0  0  0  0  0  0  0  0  0  0  0
  137.6520   74.5091  221.3948 H   0  0  0  0  0  0  0  0  0  0  0  0
  138.9000   77.0219  222.2979 H   0  0  0  0  0  0  0  0  0  0  0  0
  139.6646   75.6699  223.1004 H   0  0  0  0  0  0  0  0  0  0  0  0
  142.0083   76.7155  222.7042 H   0  0  0  0  0  0  0  0  0  0  0  0
  141.8990   78.4500  223.6380 H   0  0  0  0  0  0  0  0  0  0  0  0
  140.3017   78.5564  220.8657 H   0  0  0  0  0  0  0  0  0  0  0  0
  142.0318   78.3188  220.7369 H   0  0  0  0  0  0  0  0  0  0  0  0
  140.3584   76.8087  219.1756 H   0  0  0  0  0  0  0  0  0  0  0  0
  141.7710   74.0440  220.7330 H   0  0  0  0  0  0  0  0  0  0  0  0
  144.2765   75.1163  219.8711 H   0  0  0  0  0  0  0  0  0  0  0  0
  143.5328   72.3608  221.2455 H   0  0  0  0  0  0  0  0  0  0  0  0
  144.8495   73.2195  221.7593 H   0  0  0  0  0  0  0  0  0  0  0  0
  146.0517   72.6994  219.3724 H   0  0  0  0  0  0  0  0  0  0  0  0
  143.0126   70.7019  220.1147 H   0  0  0  0  0  0  0  0  0  0  0  0
  143.1805   68.2339  219.8956 H   0  0  0  0  0  0  0  0  0  0  0  0
  145.2749   67.1826  219.1503 H   0  0  0  0  0  0  0  0  0  0  0  0
  147.2853   68.5697  218.5861 H   0  0  0  0  0  0  0  0  0  0  0  0
  147.0912   71.0305  218.8072 H   0  0  0  0  0  0  0  0  0  0  0  0
  142.9397   72.4866  218.6955 H   0  0  0  0  0  0  0  0  0  0  0  0
  143.9188   73.4090  217.7393 H   0  0  0  0  0  0  0  0  0  0  0  0
  139.0142   70.0079  222.5006 H   0  0  0  0  0  0  0  0  0  0  0  0
  139.1828   68.2992  224.2903 H   0  0  0  0  0  0  0  0  0  0  0  0
  139.8135   67.6928  226.5390 H   0  0  0  0  0  0  0  0  0  0  0  0
  141.5224   70.7239  229.0785 H   0  0  0  0  0  0  0  0  0  0  0  0
  141.3282   72.3618  227.2740 H   0  0  0  0  0  0  0  0  0  0  0  0
  1  2  2  0
  2  3  1  0
  3  4  1  0
  4  5  1  0
  5  6  2  0
  5  7  1  0
  7  8  1  0
  8  9  1  0
  9 10  1  0
  9 11  1  0
 11 12  1  0
 12 13  1  0
 13 14  2  0
 13 15  1  0
 15 16  1  0
 16 17  1  0
 17 18  1  0
 18 19  1  0
 19 20  2  0
 20 21  1  0
 21 22  2  0
 22 23  1  0
 23 24  2  0
 18 25  1  0
  2 26  1  0
 26 27  2  0
 27 28  1  0
 28 29  2  0
 29 30  1  0
 30 31  2  0
 31 32  1  0
 31 33  1  0
 33 34  2  0
 34 35  1  0
 35 36  2  0
 12  7  1  0
 25 16  1  0
 36 26  1  0
 24 19  1  0
 35 29  1  0
  3 37  1  0
  4 38  1  0
  4 39  1  0
  8 40  1  0
  8 41  1  0
  9 42  1  1
 10 43  1  0
 11 44  1  0
 11 45  1  0
 12 46  1  6
 15 47  1  0
 16 48  1  6
 17 49  1  0
 17 50  1  0
 18 51  1  6
 20 52  1  0
 21 53  1  0
 22 54  1  0
 23 55  1  0
 24 56  1  0
 25 57  1  0
 25 58  1  0
 27 59  1  0
 28 60  1  0
 30 61  1  0
 33 62  1  0
 34 63  1  0
M  END
>  <smiles>  (15) 
O=C(NCC(=O)N1C[C@H](O)C[C@H]1C(=O)N[C@H]1C[C@@H](c2ccccc2)C1)c1ccc2cc(F)ccc2n1

>  <score_type>  (15) 
oracle

>  <origin>  (15) 
autodockgpu

>  <m_score__min__energy>  (15) 
-10.06

>  <m_primary>  (15) 
energy

>  <rmsd>  (15) 
5.848401796709205

>  <m_score__min__rmsd>  (15) 
5.848401796709205

>  <meeko>  (15) 
{"free_energy": -8.32, "intermolecular_energy": -10.7, "internal_energy": -3.07, "cluster_size": 7, "cluster_id": 3, "rank_in_cluster": 5}

>  <energy>  (15) 
-8.17

>  <cluster_rmsd>  (15) 
1.52

>  <cluster>  (15) 
3

$$$$

     RDKit          3D

 63 67  0  0  0  0  0  0  0  0999 V2000
  140.1430   73.7620  222.3750 O   0  0  0  0  0  0  0  0  0  0  0  0
  140.3670   72.5160  222.2560 C   0  0  0  0  0  0  0  0  0  0  0  0
  140.7960   71.9350  221.0250 N   0  0  0  0  0  0  0  0  0  0  0  0
  141.0050   72.7170  219.8640 C   0  0  0  0  0  0  0  0  0  0  0  0
  142.0040   73.7710  219.8670 C   0  0  0  0  0  0  0  0  0  0  0  0
  142.8300   73.7130  220.8770 O   0  0  0  0  0  0  0  0  0  0  0  0
  142.1960   74.8320  218.9500 N   0  0  0  0  0  0  0  0  0  0  0  0
  141.8080   74.9590  217.5540 C   0  0  0  0  0  0  0  0  0  0  0  0
  141.6900   76.4950  217.3730 C   0  0  2  0  0  0  0  0  0  0  0  0
  141.6970   76.8490  216.0400 O   0  0  0  0  0  0  0  0  0  0  0  0
  142.9620   76.8810  218.1110 C   0  0  0  0  0  0  0  0  0  0  0  0
  142.8880   76.0660  219.3610 C   0  0  1  0  0  0  0  0  0  0  0  0
  142.0910   76.8450  220.3440 C   0  0  0  0  0  0  0  0  0  0  0  0
  141.9920   78.0780  220.1550 O   0  0  0  0  0  0  0  0  0  0  0  0
  141.4440   76.2900  221.4640 N   0  0  0  0  0  0  0  0  0  0  0  0
  140.7080   77.1610  222.3380 C   0  0  1  0  0  0  0  0  0  0  0  0
  141.4460   78.4020  222.8230 C   0  0  0  0  0  0  0  0  0  0  0  0
  140.0970   79.0950  222.7820 C   0  0  1  0  0  0  0  0  0  0  0  0
  140.1140   80.5030  222.3740 C   0  0  0  0  0  0  0  0  0  0  0  0
  138.9260   81.2420  222.3250 C   0  0  0  0  0  0  0  0  0  0  0  0
  138.9760   82.5660  221.9410 C   0  0  0  0  0  0  0  0  0  0  0  0
  140.1770   83.1570  221.6070 C   0  0  0  0  0  0  0  0  0  0  0  0
  141.3740   82.4500  221.6450 C   0  0  0  0  0  0  0  0  0  0  0  0
  141.2950   81.1290  222.0340 C   0  0  0  0  0  0  0  0  0  0  0  0
  139.7500   78.1210  221.6450 C   0  0  0  0  0  0  0  0  0  0  0  0
  140.1810   71.6340  223.4240 C   0  0  0  0  0  0  0  0  0  0  0  0
  139.5110   70.4460  223.3350 C   0  0  0  0  0  0  0  0  0  0  0  0
  139.3320   69.6080  224.4320 C   0  0  0  0  0  0  0  0  0  0  0  0
  139.8470   69.9840  225.6550 C   0  0  0  0  0  0  0  0  0  0  0  0
  139.6780   69.1580  226.7590 C   0  0  0  0  0  0  0  0  0  0  0  0
  140.2060   69.5590  227.9700 C   0  0  0  0  0  0  0  0  0  0  0  0
  140.0820   68.8120  229.0910 F   0  0  0  0  0  0  0  0  0  0  0  0
  140.8860   70.7700  228.0530 C   0  0  0  0  0  0  0  0  0  0  0  0
  141.0360   71.5580  226.9530 C   0  0  0  0  0  0  0  0  0  0  0  0
  140.5220   71.1880  225.7280 C   0  0  0  0  0  0  0  0  0  0  0  0
  140.6730   71.9710  224.6390 N   0  0  0  0  0  0  0  0  0  0  0  0
  140.9580   70.8850  220.9930 H   0  0  0  0  0  0  0  0  0  0  0  0
  141.2806   72.0210  219.0580 H   0  0  0  0  0  0  0  0  0  0  0  0
  140.0584   73.2670  219.7567 H   0  0  0  0  0  0  0  0  0  0  0  0
  142.5766   74.5388  216.8886 H   0  0  0  0  0  0  0  0  0  0  0  0
  140.8832   74.4173  217.3063 H   0  0  0  0  0  0  0  0  0  0  0  0
  140.7704   76.9757  217.7381 H   0  0  0  0  0  0  0  0  0  0  0  0
  140.9060   77.4510  215.9170 H   0  0  0  0  0  0  0  0  0  0  0  0
  143.8544   76.6215  217.5225 H   0  0  0  0  0  0  0  0  0  0  0  0
  143.0402   77.9613  218.3027 H   0  0  0  0  0  0  0  0  0  0  0  0
  143.8586   75.8305  219.8218 H   0  0  0  0  0  0  0  0  0  0  0  0
  141.5050   75.2690  221.6450 H   0  0  0  0  0  0  0  0  0  0  0  0
  140.3653   76.3794  223.0320 H   0  0  0  0  0  0  0  0  0  0  0  0
  142.1939   78.8007  222.1218 H   0  0  0  0  0  0  0  0  0  0  0  0
  142.0803   78.3979  223.7217 H   0  0  0  0  0  0  0  0  0  0  0  0
  139.4814   79.2137  223.6859 H   0  0  0  0  0  0  0  0  0  0  0  0
  137.9664   80.7736  222.5889 H   0  0  0  0  0  0  0  0  0  0  0  0
  138.0488   83.1565  221.9007 H   0  0  0  0  0  0  0  0  0  0  0  0
  140.1881   84.2141  221.3030 H   0  0  0  0  0  0  0  0  0  0  0  0
  142.3327   82.9192  221.3790 H   0  0  0  0  0  0  0  0  0  0  0  0
  142.2248   80.5427  222.0753 H   0  0  0  0  0  0  0  0  0  0  0  0
  140.0605   78.4462  220.6411 H   0  0  0  0  0  0  0  0  0  0  0  0
  138.7156   77.8489  221.3883 H   0  0  0  0  0  0  0  0  0  0  0  0
  139.0986   70.1413  222.3619 H   0  0  0  0  0  0  0  0  0  0  0  0
  138.7870   68.6585  224.3249 H   0  0  0  0  0  0  0  0  0  0  0  0
  139.1354   68.2053  226.6703 H   0  0  0  0  0  0  0  0  0  0  0  0
  141.3064   71.0938  229.0165 H   0  0  0  0  0  0  0  0  0  0  0  0
  141.5789   72.5104  227.0433 H   0  0  0  0  0  0  0  0  0  0  0  0
  1  2  2  0
  2  3  1  0
  3  4  1  0
  4  5  1  0
  5  6  2  0
  5  7  1  0
  7  8  1  0
  8  9  1  0
  9 10  1  0
  9 11  1  0
 11 12  1  0
 12 13  1  0
 13 14  2  0
 13 15  1  0
 15 16  1  0
 16 17  1  0
 17 18  1  0
 18 19  1  0
 19 20  2  0
 20 21  1  0
 21 22  2  0
 22 23  1  0
 23 24  2  0
 18 25  1  0
  2 26  1  0
 26 27  2  0
 27 28  1  0
 28 29  2  0
 29 30  1  0
 30 31  2  0
 31 32  1  0
 31 33  1  0
 33 34  2  0
 34 35  1  0
 35 36  2  0
 12  7  1  0
 25 16  1  0
 36 26  1  0
 24 19  1  0
 35 29  1  0
  3 37  1  0
  4 38  1  0
  4 39  1  0
  8 40  1  0
  8 41  1  0
  9 42  1  1
 10 43  1  0
 11 44  1  0
 11 45  1  0
 12 46  1  1
 15 47  1  0
 16 48  1  1
 17 49  1  0
 17 50  1  0
 18 51  1  1
 20 52  1  0
 21 53  1  0
 22 54  1  0
 23 55  1  0
 24 56  1  0
 25 57  1  0
 25 58  1  0
 27 59  1  0
 28 60  1  0
 30 61  1  0
 33 62  1  0
 34 63  1  0
M  END
>  <smiles>  (16) 
O=C(NCC(=O)N1C[C@H](O)C[C@H]1C(=O)N[C@H]1C[C@@H](c2ccccc2)C1)c1ccc2cc(F)ccc2n1

>  <score_type>  (16) 
oracle

>  <origin>  (16) 
autodockgpu

>  <m_score__min__energy>  (16) 
-10.06

>  <m_primary>  (16) 
energy

>  <rmsd>  (16) 
2.470726824132946

>  <m_score__min__rmsd>  (16) 
2.470726824132946

>  <meeko>  (16) 
{"free_energy": -8.14, "intermolecular_energy": -10.52, "internal_energy": -3.05, "cluster_size": 4, "cluster_id": 2, "rank_in_cluster": 3}

>  <energy>  (16) 
-7.43

>  <cluster_rmsd>  (16) 
1.68

>  <cluster>  (16) 
3

$$$$

     RDKit          3D

 63 67  0  0  0  0  0  0  0  0999 V2000
  135.3230   72.0210  222.7510 O   0  0  0  0  0  0  0  0  0  0  0  0
  136.5540   72.1450  223.0450 C   0  0  0  0  0  0  0  0  0  0  0  0
  137.3230   73.2760  222.6390 N   0  0  0  0  0  0  0  0  0  0  0  0
  136.7540   74.3350  221.8900 C   0  0  0  0  0  0  0  0  0  0  0  0
  137.1980   75.7000  222.1060 C   0  0  0  0  0  0  0  0  0  0  0  0
  136.2650   76.4950  222.5560 O   0  0  0  0  0  0  0  0  0  0  0  0
  138.4740   76.2750  221.8950 N   0  0  0  0  0  0  0  0  0  0  0  0
  139.1560   77.3520  222.5950 C   0  0  0  0  0  0  0  0  0  0  0  0
  140.6520   77.0250  222.3470 C   0  0  2  0  0  0  0  0  0  0  0  0
  141.4570   78.1150  222.6060 O   0  0  0  0  0  0  0  0  0  0  0  0
  140.5400   76.6900  220.8690 C   0  0  0  0  0  0  0  0  0  0  0  0
  139.3510   75.7850  220.8170 C   0  0  1  0  0  0  0  0  0  0  0  0
  139.8380   74.4080  221.0850 C   0  0  0  0  0  0  0  0  0  0  0  0
  140.1980   74.1430  222.2540 O   0  0  0  0  0  0  0  0  0  0  0  0
  139.9200   73.3890  220.1170 N   0  0  0  0  0  0  0  0  0  0  0  0
  140.4140   72.0990  220.5120 C   0  0  1  0  0  0  0  0  0  0  0  0
  139.7890   71.4970  221.7640 C   0  0  0  0  0  0  0  0  0  0  0  0
  139.9770   70.1530  221.0890 C   0  0  1  0  0  0  0  0  0  0  0  0
  138.9260   69.1610  221.3360 C   0  0  0  0  0  0  0  0  0  0  0  0
  137.6190   69.3840  220.8850 C   0  0  0  0  0  0  0  0  0  0  0  0
  136.6540   68.4280  221.1310 C   0  0  0  0  0  0  0  0  0  0  0  0
  136.9670   67.2720  221.8130 C   0  0  0  0  0  0  0  0  0  0  0  0
  138.2550   67.0210  222.2750 C   0  0  0  0  0  0  0  0  0  0  0  0
  139.2000   67.9920  222.0140 C   0  0  0  0  0  0  0  0  0  0  0  0
  139.8150   70.9140  219.7640 C   0  0  0  0  0  0  0  0  0  0  0  0
  137.2180   71.0880  223.8320 C   0  0  0  0  0  0  0  0  0  0  0  0
  136.5780   69.9300  224.1750 C   0  0  0  0  0  0  0  0  0  0  0  0
  137.1990   68.9280  224.9170 C   0  0  0  0  0  0  0  0  0  0  0  0
  138.5060   69.1040  225.3210 C   0  0  0  0  0  0  0  0  0  0  0  0
  139.1390   68.1130  226.0590 C   0  0  0  0  0  0  0  0  0  0  0  0
  140.4480   68.3150  226.4500 C   0  0  0  0  0  0  0  0  0  0  0  0
  141.1330   67.3990  227.1720 F   0  0  0  0  0  0  0  0  0  0  0  0
  141.0930   69.4960  226.0970 C   0  0  0  0  0  0  0  0  0  0  0  0
  140.4450   70.4490  225.3710 C   0  0  0  0  0  0  0  0  0  0  0  0
  139.1380   70.2790  224.9650 C   0  0  0  0  0  0  0  0  0  0  0  0
  138.5000   71.2260  224.2450 N   0  0  0  0  0  0  0  0  0  0  0  0
  138.3490   73.3130  222.9120 H   0  0  0  0  0  0  0  0  0  0  0  0
  136.9357   74.1066  220.8294 H   0  0  0  0  0  0  0  0  0  0  0  0
  135.7090   74.3529  222.2331 H   0  0  0  0  0  0  0  0  0  0  0  0
  138.8886   78.3318  222.1725 H   0  0  0  0  0  0  0  0  0  0  0  0
  138.8935   77.4151  223.6614 H   0  0  0  0  0  0  0  0  0  0  0  0
  141.1072   76.2434  222.9729 H   0  0  0  0  0  0  0  0  0  0  0  0
  142.3500   77.8890  222.2130 H   0  0  0  0  0  0  0  0  0  0  0  0
  140.3726   77.5972  220.2698 H   0  0  0  0  0  0  0  0  0  0  0  0
  141.4517   76.2311  220.4588 H   0  0  0  0  0  0  0  0  0  0  0  0
  138.8153   75.7743  219.8563 H   0  0  0  0  0  0  0  0  0  0  0  0
  139.6250   73.5770  219.1400 H   0  0  0  0  0  0  0  0  0  0  0  0
  141.4825   72.3550  220.4597 H   0  0  0  0  0  0  0  0  0  0  0  0
  138.7422   71.7835  221.9435 H   0  0  0  0  0  0  0  0  0  0  0  0
  140.1707   71.7084  222.7738 H   0  0  0  0  0  0  0  0  0  0  0  0
  140.8400   69.5097  221.3156 H   0  0  0  0  0  0  0  0  0  0  0  0
  137.3652   70.3069  220.3430 H   0  0  0  0  0  0  0  0  0  0  0  0
  135.6246   68.5906  220.7790 H   0  0  0  0  0  0  0  0  0  0  0  0
  136.1777   66.5283  221.9969 H   0  0  0  0  0  0  0  0  0  0  0  0
  138.5064   66.0985  222.8188 H   0  0  0  0  0  0  0  0  0  0  0  0
  140.2285   67.8243  222.3662 H   0  0  0  0  0  0  0  0  0  0  0  0
  138.7764   71.0507  219.4284 H   0  0  0  0  0  0  0  0  0  0  0  0
  140.2204   70.5441  218.8107 H   0  0  0  0  0  0  0  0  0  0  0  0
  135.5361   69.7843  223.8538 H   0  0  0  0  0  0  0  0  0  0  0  0
  136.6543   68.0085  225.1773 H   0  0  0  0  0  0  0  0  0  0  0  0
  138.6093   67.1868  226.3266 H   0  0  0  0  0  0  0  0  0  0  0  0
  142.1354   69.6616  226.4069 H   0  0  0  0  0  0  0  0  0  0  0  0
  140.9757   71.3744  225.1027 H   0  0  0  0  0  0  0  0  0  0  0  0
  1  2  2  0
  2  3  1  0
  3  4  1  0
  4  5  1  0
  5  6  2  0
  5  7  1  0
  7  8  1  0
  8  9  1  0
  9 10  1  0
  9 11  1  0
 11 12  1  0
 12 13  1  0
 13 14  2  0
 13 15  1  0
 15 16  1  0
 16 17  1  0
 17 18  1  0
 18 19  1  0
 19 20  2  0
 20 21  1  0
 21 22  2  0
 22 23  1  0
 23 24  2  0
 18 25  1  0
  2 26  1  0
 26 27  2  0
 27 28  1  0
 28 29  2  0
 29 30  1  0
 30 31  2  0
 31 32  1  0
 31 33  1  0
 33 34  2  0
 34 35  1  0
 35 36  2  0
 12  7  1  0
 25 16  1  0
 36 26  1  0
 24 19  1  0
 35 29  1  0
  3 37  1  0
  4 38  1  0
  4 39  1  0
  8 40  1  0
  8 41  1  0
  9 42  1  1
 10 43  1  0
 11 44  1  0
 11 45  1  0
 12 46  1  6
 15 47  1  0
 16 48  1  1
 17 49  1  0
 17 50  1  0
 18 51  1  6
 20 52  1  0
 21 53  1  0
 22 54  1  0
 23 55  1  0
 24 56  1  0
 25 57  1  0
 25 58  1  0
 27 59  1  0
 28 60  1  0
 30 61  1  0
 33 62  1  0
 34 63  1  0
M  END
>  <smiles>  (17) 
O=C(NCC(=O)N1C[C@H](O)C[C@H]1C(=O)N[C@H]1C[C@@H](c2ccccc2)C1)c1ccc2cc(F)ccc2n1

>  <score_type>  (17) 
oracle

>  <origin>  (17) 
autodockgpu

>  <m_score__min__energy>  (17) 
-10.06

>  <m_primary>  (17) 
energy

>  <rmsd>  (17) 
6.3447523399643115

>  <m_score__min__rmsd>  (17) 
6.3447523399643115

>  <meeko>  (17) 
{"free_energy": -6.41, "intermolecular_energy": -8.79, "internal_energy": -4.52, "cluster_size": 1, "cluster_id": 14, "rank_in_cluster": 1}

>  <energy>  (17) 
-8.92

>  <cluster_rmsd>  (17) 
0.0

>  <cluster>  (17) 
4

$$$$

     RDKit          3D

 63 67  0  0  0  0  0  0  0  0999 V2000
  140.1160   71.5670  220.5740 O   0  0  0  0  0  0  0  0  0  0  0  0
  140.3590   72.1360  221.6850 C   0  0  0  0  0  0  0  0  0  0  0  0
  140.7580   73.5040  221.7680 N   0  0  0  0  0  0  0  0  0  0  0  0
  140.8980   74.3100  220.6130 C   0  0  0  0  0  0  0  0  0  0  0  0
  141.8800   73.9660  219.6000 C   0  0  0  0  0  0  0  0  0  0  0  0
  141.4030   73.9540  218.3850 O   0  0  0  0  0  0  0  0  0  0  0  0
  143.2500   73.6430  219.7480 N   0  0  0  0  0  0  0  0  0  0  0  0
  144.1710   73.8990  220.8440 C   0  0  0  0  0  0  0  0  0  0  0  0
  145.2140   72.7620  220.6830 C   0  0  2  0  0  0  0  0  0  0  0  0
  146.3700   73.0340  221.3850 O   0  0  0  0  0  0  0  0  0  0  0  0
  145.3820   72.8580  219.1750 C   0  0  0  0  0  0  0  0  0  0  0  0
  143.9730   72.9270  218.6820 C   0  0  1  0  0  0  0  0  0  0  0  0
  143.4930   71.5300  218.5320 C   0  0  0  0  0  0  0  0  0  0  0  0
  144.3510   70.6510  218.2880 O   0  0  0  0  0  0  0  0  0  0  0  0
  142.1480   71.1320  218.6450 N   0  0  0  0  0  0  0  0  0  0  0  0
  141.8210   69.7440  218.4720 C   0  0  1  0  0  0  0  0  0  0  0  0
  141.9840   68.8600  219.7030 C   0  0  0  0  0  0  0  0  0  0  0  0
  140.7930   68.0830  219.1750 C   0  0  1  0  0  0  0  0  0  0  0  0
  139.8750   67.5550  220.1900 C   0  0  0  0  0  0  0  0  0  0  0  0
  140.1800   66.3750  220.8770 C   0  0  0  0  0  0  0  0  0  0  0  0
  139.2960   65.9070  221.8280 C   0  0  0  0  0  0  0  0  0  0  0  0
  138.1270   66.5870  222.0980 C   0  0  0  0  0  0  0  0  0  0  0  0
  137.7950   67.7620  221.4320 C   0  0  0  0  0  0  0  0  0  0  0  0
  138.6970   68.2080  220.4880 C   0  0  0  0  0  0  0  0  0  0  0  0
  140.3360   69.4100  218.5510 C   0  0  0  0  0  0  0  0  0  0  0  0
  140.2260   71.3640  222.9360 C   0  0  0  0  0  0  0  0  0  0  0  0
  139.6210   70.1380  222.9700 C   0  0  0  0  0  0  0  0  0  0  0  0
  139.4930   69.4050  224.1460 C   0  0  0  0  0  0  0  0  0  0  0  0
  139.9930   69.9260  225.3210 C   0  0  0  0  0  0  0  0  0  0  0  0
  139.8750   69.2050  226.5020 C   0  0  0  0  0  0  0  0  0  0  0  0
  140.3860   69.7500  227.6630 C   0  0  0  0  0  0  0  0  0  0  0  0
  140.3080   69.1120  228.8520 F   0  0  0  0  0  0  0  0  0  0  0  0
  141.0000   70.9980  227.6200 C   0  0  0  0  0  0  0  0  0  0  0  0
  141.1010   71.6810  226.4460 C   0  0  0  0  0  0  0  0  0  0  0  0
  140.6020   71.1650  225.2690 C   0  0  0  0  0  0  0  0  0  0  0  0
  140.7050   71.8450  224.1060 N   0  0  0  0  0  0  0  0  0  0  0  0
  140.9520   73.9140  222.7290 H   0  0  0  0  0  0  0  0  0  0  0  0
  139.9179   74.3216  220.1137 H   0  0  0  0  0  0  0  0  0  0  0  0
  141.2735   75.2627  221.0146 H   0  0  0  0  0  0  0  0  0  0  0  0
  144.6427   74.8876  220.7434 H   0  0  0  0  0  0  0  0  0  0  0  0
  143.6845   73.9096  221.8305 H   0  0  0  0  0  0  0  0  0  0  0  0
  144.9375   71.7674  221.0628 H   0  0  0  0  0  0  0  0  0  0  0  0
  146.4940   72.2600  222.0090 H   0  0  0  0  0  0  0  0  0  0  0  0
  145.9427   73.7625  218.8967 H   0  0  0  0  0  0  0  0  0  0  0  0
  145.9493   72.0177  218.7483 H   0  0  0  0  0  0  0  0  0  0  0  0
  143.8421   73.4357  217.7155 H   0  0  0  0  0  0  0  0  0  0  0  0
  141.4140   71.8380  218.8500 H   0  0  0  0  0  0  0  0  0  0  0  0
  142.4163   69.5884  217.5602 H   0  0  0  0  0  0  0  0  0  0  0  0
  141.8175   69.3679  220.6644 H   0  0  0  0  0  0  0  0  0  0  0  0
  142.9377   68.3761  219.9604 H   0  0  0  0  0  0  0  0  0  0  0  0
  140.9191   67.1558  218.5968 H   0  0  0  0  0  0  0  0  0  0  0  0
  141.1102   65.8285  220.6624 H   0  0  0  0  0  0  0  0  0  0  0  0
  139.5264   64.9817  222.3765 H   0  0  0  0  0  0  0  0  0  0  0  0
  137.4396   66.1900  222.8595 H   0  0  0  0  0  0  0  0  0  0  0  0
  136.8635   68.3064  221.6463 H   0  0  0  0  0  0  0  0  0  0  0  0
  138.4641   69.1349  219.9433 H   0  0  0  0  0  0  0  0  0  0  0  0
  139.7464   70.0592  219.2150 H   0  0  0  0  0  0  0  0  0  0  0  0
  139.6666   69.4597  217.6795 H   0  0  0  0  0  0  0  0  0  0  0  0
  139.2218   69.7167  222.0356 H   0  0  0  0  0  0  0  0  0  0  0  0
  138.9991   68.4221  224.1385 H   0  0  0  0  0  0  0  0  0  0  0  0
  139.3847   68.2204  226.5122 H   0  0  0  0  0  0  0  0  0  0  0  0
  141.4075   71.4369  228.5426 H   0  0  0  0  0  0  0  0  0  0  0  0
  141.5913   72.6656  226.4367 H   0  0  0  0  0  0  0  0  0  0  0  0
  1  2  2  0
  2  3  1  0
  3  4  1  0
  4  5  1  0
  5  6  2  0
  5  7  1  0
  7  8  1  0
  8  9  1  0
  9 10  1  0
  9 11  1  0
 11 12  1  0
 12 13  1  0
 13 14  2  0
 13 15  1  0
 15 16  1  0
 16 17  1  0
 17 18  1  0
 18 19  1  0
 19 20  2  0
 20 21  1  0
 21 22  2  0
 22 23  1  0
 23 24  2  0
 18 25  1  0
  2 26  1  0
 26 27  2  0
 27 28  1  0
 28 29  2  0
 29 30  1  0
 30 31  2  0
 31 32  1  0
 31 33  1  0
 33 34  2  0
 34 35  1  0
 35 36  2  0
 12  7  1  0
 25 16  1  0
 36 26  1  0
 24 19  1  0
 35 29  1  0
  3 37  1  0
  4 38  1  0
  4 39  1  0
  8 40  1  0
  8 41  1  0
  9 42  1  6
 10 43  1  0
 11 44  1  0
 11 45  1  0
 12 46  1  6
 15 47  1  0
 16 48  1  6
 17 49  1  0
 17 50  1  0
 18 51  1  6
 20 52  1  0
 21 53  1  0
 22 54  1  0
 23 55  1  0
 24 56  1  0
 25 57  1  0
 25 58  1  0
 27 59  1  0
 28 60  1  0
 30 61  1  0
 33 62  1  0
 34 63  1  0
M  END
>  <smiles>  (18) 
O=C(NCC(=O)N1C[C@H](O)C[C@H]1C(=O)N[C@H]1C[C@@H](c2ccccc2)C1)c1ccc2cc(F)ccc2n1

>  <score_type>  (18) 
oracle

>  <origin>  (18) 
autodockgpu

>  <m_score__min__energy>  (18) 
-10.06

>  <m_primary>  (18) 
energy

>  <rmsd>  (18) 
7.729067657254093

>  <m_score__min__rmsd>  (18) 
7.729067657254093

>  <meeko>  (18) 
{"free_energy": -6.22, "intermolecular_energy": -8.6, "internal_energy": -4.58, "cluster_size": 1, "cluster_id": 16, "rank_in_cluster": 1}

>  <energy>  (18) 
-6.89

>  <cluster_rmsd>  (18) 
1.98

>  <cluster>  (18) 
4

$$$$

     RDKit          3D

 63 67  0  0  0  0  0  0  0  0999 V2000
  139.9850   71.6010  221.1700 O   0  0  0  0  0  0  0  0  0  0  0  0
  139.3240   71.8400  222.2290 C   0  0  0  0  0  0  0  0  0  0  0  0
  138.3420   72.8740  222.2950 N   0  0  0  0  0  0  0  0  0  0  0  0
  138.0410   73.6890  221.1770 C   0  0  0  0  0  0  0  0  0  0  0  0
  139.0990   74.4190  220.5030 C   0  0  0  0  0  0  0  0  0  0  0  0
  139.4140   73.9330  219.3320 O   0  0  0  0  0  0  0  0  0  0  0  0
  139.8240   75.5550  220.9340 N   0  0  0  0  0  0  0  0  0  0  0  0
  139.6410   76.4120  222.0960 C   0  0  0  0  0  0  0  0  0  0  0  0
  141.0680   76.9700  222.3340 C   0  0  2  0  0  0  0  0  0  0  0  0
  141.0450   78.0830  223.1500 O   0  0  0  0  0  0  0  0  0  0  0  0
  141.4030   77.2860  220.8860 C   0  0  0  0  0  0  0  0  0  0  0  0
  140.9790   76.0490  220.1630 C   0  0  1  0  0  0  0  0  0  0  0  0
  142.1220   75.1010  220.2130 C   0  0  0  0  0  0  0  0  0  0  0  0
  143.2740   75.5870  220.1800 O   0  0  0  0  0  0  0  0  0  0  0  0
  141.9930   73.7010  220.2950 N   0  0  0  0  0  0  0  0  0  0  0  0
  143.1840   72.8990  220.3320 C   0  0  1  0  0  0  0  0  0  0  0  0
  143.0860   71.5900  221.1050 C   0  0  0  0  0  0  0  0  0  0  0  0
  144.0500   71.0300  220.0780 C   0  0  1  0  0  0  0  0  0  0  0  0
  143.8390   69.6280  219.7010 C   0  0  0  0  0  0  0  0  0  0  0  0
  142.5500   69.1520  219.4340 C   0  0  0  0  0  0  0  0  0  0  0  0
  142.3850   67.8290  219.0790 C   0  0  0  0  0  0  0  0  0  0  0  0
  143.4710   66.9840  218.9900 C   0  0  0  0  0  0  0  0  0  0  0  0
  144.7640   67.4260  219.2490 C   0  0  0  0  0  0  0  0  0  0  0  0
  144.9000   68.7530  219.6000 C   0  0  0  0  0  0  0  0  0  0  0  0
  143.4300   72.0380  219.1000 C   0  0  0  0  0  0  0  0  0  0  0  0
  139.5730   71.0280  223.4350 C   0  0  0  0  0  0  0  0  0  0  0  0
  139.3220   69.6850  223.4690 C   0  0  0  0  0  0  0  0  0  0  0  0
  139.5550   68.9130  224.6040 C   0  0  0  0  0  0  0  0  0  0  0  0
  140.0580   69.5180  225.7360 C   0  0  0  0  0  0  0  0  0  0  0  0
  140.2980   68.7600  226.8750 C   0  0  0  0  0  0  0  0  0  0  0  0
  140.8030   69.3910  227.9940 C   0  0  0  0  0  0  0  0  0  0  0  0
  141.0610   68.7240  229.1420 F   0  0  0  0  0  0  0  0  0  0  0  0
  141.0560   70.7590  227.9520 C   0  0  0  0  0  0  0  0  0  0  0  0
  140.8120   71.4750  226.8200 C   0  0  0  0  0  0  0  0  0  0  0  0
  140.3070   70.8750  225.6850 C   0  0  0  0  0  0  0  0  0  0  0  0
  140.0660   71.5890  224.5640 N   0  0  0  0  0  0  0  0  0  0  0  0
  137.8300   73.0260  223.2140 H   0  0  0  0  0  0  0  0  0  0  0  0
  137.5771   73.0353  220.4237 H   0  0  0  0  0  0  0  0  0  0  0  0
  137.4187   74.4874  221.6075 H   0  0  0  0  0  0  0  0  0  0  0  0
  138.9283   77.2224  221.8832 H   0  0  0  0  0  0  0  0  0  0  0  0
  139.2271   75.8840  222.9677 H   0  0  0  0  0  0  0  0  0  0  0  0
  141.7853   76.3148  222.8499 H   0  0  0  0  0  0  0  0  0  0  0  0
  142.0040   78.3430  223.2770 H   0  0  0  0  0  0  0  0  0  0  0  0
  140.8402   78.1626  220.5326 H   0  0  0  0  0  0  0  0  0  0  0  0
  142.4632   77.5354  220.7317 H   0  0  0  0  0  0  0  0  0  0  0  0
  140.7058   76.1964  219.1077 H   0  0  0  0  0  0  0  0  0  0  0  0
  141.0500   73.2680  220.3280 H   0  0  0  0  0  0  0  0  0  0  0  0
  143.8662   73.7063  220.6370 H   0  0  0  0  0  0  0  0  0  0  0  0
  142.0887   71.1258  221.1068 H   0  0  0  0  0  0  0  0  0  0  0  0
  143.2746   71.5280  222.1869 H   0  0  0  0  0  0  0  0  0  0  0  0
  145.1302   70.9658  220.2756 H   0  0  0  0  0  0  0  0  0  0  0  0
  141.6813   69.8229  219.5062 H   0  0  0  0  0  0  0  0  0  0  0  0
  141.3769   67.4444  218.8648 H   0  0  0  0  0  0  0  0  0  0  0  0
  143.3105   65.9332  218.7069 H   0  0  0  0  0  0  0  0  0  0  0  0
  145.6316   66.7535  219.1777 H   0  0  0  0  0  0  0  0  0  0  0  0
  145.9101   69.1341  219.8109 H   0  0  0  0  0  0  0  0  0  0  0  0
  142.5223   71.6904  218.5850 H   0  0  0  0  0  0  0  0  0  0  0  0
  143.9603   72.4085  218.2104 H   0  0  0  0  0  0  0  0  0  0  0  0
  138.9219   69.1969  222.5681 H   0  0  0  0  0  0  0  0  0  0  0  0
  139.3404   67.8341  224.5976 H   0  0  0  0  0  0  0  0  0  0  0  0
  140.0901   67.6799  226.8850 H   0  0  0  0  0  0  0  0  0  0  0  0
  141.4569   71.2665  228.8418 H   0  0  0  0  0  0  0  0  0  0  0  0
  141.0219   72.5547  226.8102 H   0  0  0  0  0  0  0  0  0  0  0  0
  1  2  2  0
  2  3  1  0
  3  4  1  0
  4  5  1  0
  5  6  2  0
  5  7  1  0
  7  8  1  0
  8  9  1  0
  9 10  1  0
  9 11  1  0
 11 12  1  0
 12 13  1  0
 13 14  2  0
 13 15  1  0
 15 16  1  0
 16 17  1  0
 17 18  1  0
 18 19  1  0
 19 20  2  0
 20 21  1  0
 21 22  2  0
 22 23  1  0
 23 24  2  0
 18 25  1  0
  2 26  1  0
 26 27  2  0
 27 28  1  0
 28 29  2  0
 29 30  1  0
 30 31  2  0
 31 32  1  0
 31 33  1  0
 33 34  2  0
 34 35  1  0
 35 36  2  0
 12  7  1  0
 25 16  1  0
 36 26  1  0
 24 19  1  0
 35 29  1  0
  3 37  1  0
  4 38  1  0
  4 39  1  0
  8 40  1  0
  8 41  1  0
  9 42  1  1
 10 43  1  0
 11 44  1  0
 11 45  1  0
 12 46  1  6
 15 47  1  0
 16 48  1  1
 17 49  1  0
 17 50  1  0
 18 51  1  1
 20 52  1  0
 21 53  1  0
 22 54  1  0
 23 55  1  0
 24 56  1  0
 25 57  1  0
 25 58  1  0
 27 59  1  0
 28 60  1  0
 30 61  1  0
 33 62  1  0
 34 63  1  0
M  END
>  <smiles>  (19) 
O=C(NCC(=O)N1C[C@H](O)C[C@H]1C(=O)N[C@H]1C[C@@H](c2ccccc2)C1)c1ccc2cc(F)ccc2n1

>  <score_type>  (19) 
oracle

>  <origin>  (19) 
autodockgpu

>  <m_score__min__energy>  (19) 
-10.06

>  <m_primary>  (19) 
energy

>  <rmsd>  (19) 
6.149638865749322

>  <m_score__min__rmsd>  (19) 
6.149638865749322

>  <meeko>  (19) 
{"free_energy": -7.43, "intermolecular_energy": -9.81, "internal_energy": -3.64, "cluster_size": 7, "cluster_id": 3, "rank_in_cluster": 7}

>  <energy>  (19) 
-8.32

>  <cluster_rmsd>  (19) 
0.0

>  <cluster>  (19) 
5

$$$$

     RDKit          3D

 63 67  0  0  0  0  0  0  0  0999 V2000
  140.2480   73.6270  222.1620 O   0  0  0  0  0  0  0  0  0  0  0  0
  140.5650   72.3960  222.1490 C   0  0  0  0  0  0  0  0  0  0  0  0
  141.2050   71.7860  221.0280 N   0  0  0  0  0  0  0  0  0  0  0  0
  141.5340   72.5240  219.8660 C   0  0  0  0  0  0  0  0  0  0  0  0
  142.1670   73.8250  219.9850 C   0  0  0  0  0  0  0  0  0  0  0  0
  142.6890   74.0540  221.1590 O   0  0  0  0  0  0  0  0  0  0  0  0
  142.2880   74.8580  219.0250 N   0  0  0  0  0  0  0  0  0  0  0  0
  141.8530   74.9190  217.6380 C   0  0  0  0  0  0  0  0  0  0  0  0
  141.6670   76.4420  217.4070 C   0  0  2  0  0  0  0  0  0  0  0  0
  141.6190   76.7460  216.0630 O   0  0  0  0  0  0  0  0  0  0  0  0
  142.9450   76.9040  218.0890 C   0  0  0  0  0  0  0  0  0  0  0  0
  142.9420   76.1330  219.3700 C   0  0  1  0  0  0  0  0  0  0  0  0
  142.1450   76.9150  220.3490 C   0  0  0  0  0  0  0  0  0  0  0  0
  142.0910   78.1550  220.1860 O   0  0  0  0  0  0  0  0  0  0  0  0
  141.4520   76.3570  221.4390 N   0  0  0  0  0  0  0  0  0  0  0  0
  140.7210   77.2320  222.3140 C   0  0  1  0  0  0  0  0  0  0  0  0
  141.4670   78.4690  222.7990 C   0  0  0  0  0  0  0  0  0  0  0  0
  140.1220   79.1690  222.7590 C   0  0  1  0  0  0  0  0  0  0  0  0
  140.1480   80.5780  222.3530 C   0  0  0  0  0  0  0  0  0  0  0  0
  138.9640   81.3230  222.3030 C   0  0  0  0  0  0  0  0  0  0  0  0
  139.0220   82.6480  221.9190 C   0  0  0  0  0  0  0  0  0  0  0  0
  140.2270   83.2320  221.5870 C   0  0  0  0  0  0  0  0  0  0  0  0
  141.4200   82.5180  221.6260 C   0  0  0  0  0  0  0  0  0  0  0  0
  141.3330   81.1970  222.0140 C   0  0  0  0  0  0  0  0  0  0  0  0
  139.7690   78.1990  221.6220 C   0  0  0  0  0  0  0  0  0  0  0  0
  140.2640   71.5610  223.3280 C   0  0  0  0  0  0  0  0  0  0  0  0
  139.5140   70.4210  223.2360 C   0  0  0  0  0  0  0  0  0  0  0  0
  139.2270   69.6280  224.3430 C   0  0  0  0  0  0  0  0  0  0  0  0
  139.7140   69.9990  225.5790 C   0  0  0  0  0  0  0  0  0  0  0  0
  139.4370   69.2170  226.6930 C   0  0  0  0  0  0  0  0  0  0  0  0
  139.9380   69.6120  227.9180 C   0  0  0  0  0  0  0  0  0  0  0  0
  139.7110   68.9060  229.0490 F   0  0  0  0  0  0  0  0  0  0  0  0
  140.7000   70.7730  228.0040 C   0  0  0  0  0  0  0  0  0  0  0  0
  140.9540   71.5180  226.8920 C   0  0  0  0  0  0  0  0  0  0  0  0
  140.4700   71.1530  225.6550 C   0  0  0  0  0  0  0  0  0  0  0  0
  140.7250   71.8940  224.5550 N   0  0  0  0  0  0  0  0  0  0  0  0
  141.4350   70.7500  221.0820 H   0  0  0  0  0  0  0  0  0  0  0  0
  142.2127   71.8943  219.2720 H   0  0  0  0  0  0  0  0  0  0  0  0
  140.5516   72.7607  219.4314 H   0  0  0  0  0  0  0  0  0  0  0  0
  142.6176   74.5058  216.9637 H   0  0  0  0  0  0  0  0  0  0  0  0
  140.9439   74.3325  217.4389 H   0  0  0  0  0  0  0  0  0  0  0  0
  140.7407   76.8996  217.7846 H   0  0  0  0  0  0  0  0  0  0  0  0
  142.3260   77.4420  215.9190 H   0  0  0  0  0  0  0  0  0  0  0  0
  143.8283   76.6575  217.4816 H   0  0  0  0  0  0  0  0  0  0  0  0
  142.9862   77.9929  218.2392 H   0  0  0  0  0  0  0  0  0  0  0  0
  143.9349   75.9532  219.8080 H   0  0  0  0  0  0  0  0  0  0  0  0
  141.4750   75.3310  221.5980 H   0  0  0  0  0  0  0  0  0  0  0  0
  140.3735   76.4520  223.0074 H   0  0  0  0  0  0  0  0  0  0  0  0
  142.2166   78.8637  222.0973 H   0  0  0  0  0  0  0  0  0  0  0  0
  142.1021   78.4612  223.6971 H   0  0  0  0  0  0  0  0  0  0  0  0
  139.5067   79.2898  223.6628 H   0  0  0  0  0  0  0  0  0  0  0  0
  138.0016   80.8597  222.5657 H   0  0  0  0  0  0  0  0  0  0  0  0
  138.0983   83.2438  221.8774 H   0  0  0  0  0  0  0  0  0  0  0  0
  140.2447   84.2892  221.2837 H   0  0  0  0  0  0  0  0  0  0  0  0
  142.3817   82.9819  221.3616 H   0  0  0  0  0  0  0  0  0  0  0  0
  142.2592   80.6051  222.0553 H   0  0  0  0  0  0  0  0  0  0  0  0
  140.0814   78.5232  220.6184 H   0  0  0  0  0  0  0  0  0  0  0  0
  138.7328   77.9337  221.3651 H   0  0  0  0  0  0  0  0  0  0  0  0
  139.1239   70.1204  222.2524 H   0  0  0  0  0  0  0  0  0  0  0  0
  138.6198   68.7173  224.2337 H   0  0  0  0  0  0  0  0  0  0  0  0
  138.8318   68.3030  226.6016 H   0  0  0  0  0  0  0  0  0  0  0  0
  141.1005   71.0919  228.9776 H   0  0  0  0  0  0  0  0  0  0  0  0
  141.5594   72.4318  226.9840 H   0  0  0  0  0  0  0  0  0  0  0  0
  1  2  2  0
  2  3  1  0
  3  4  1  0
  4  5  1  0
  5  6  2  0
  5  7  1  0
  7  8  1  0
  8  9  1  0
  9 10  1  0
  9 11  1  0
 11 12  1  0
 12 13  1  0
 13 14  2  0
 13 15  1  0
 15 16  1  0
 16 17  1  0
 17 18  1  0
 18 19  1  0
 19 20  2  0
 20 21  1  0
 21 22  2  0
 22 23  1  0
 23 24  2  0
 18 25  1  0
  2 26  1  0
 26 27  2  0
 27 28  1  0
 28 29  2  0
 29 30  1  0
 30 31  2  0
 31 32  1  0
 31 33  1  0
 33 34  2  0
 34 35  1  0
 35 36  2  0
 12  7  1  0
 25 16  1  0
 36 26  1  0
 24 19  1  0
 35 29  1  0
  3 37  1  0
  4 38  1  0
  4 39  1  0
  8 40  1  0
  8 41  1  0
  9 42  1  1
 10 43  1  0
 11 44  1  0
 11 45  1  0
 12 46  1  1
 15 47  1  0
 16 48  1  1
 17 49  1  0
 17 50  1  0
 18 51  1  1
 20 52  1  0
 21 53  1  0
 22 54  1  0
 23 55  1  0
 24 56  1  0
 25 57  1  0
 25 58  1  0
 27 59  1  0
 28 60  1  0
 30 61  1  0
 33 62  1  0
 34 63  1  0
M  END
>  <smiles>  (20) 
O=C(NCC(=O)N1C[C@H](O)C[C@H]1C(=O)N[C@H]1C[C@@H](c2ccccc2)C1)c1ccc2cc(F)ccc2n1

>  <score_type>  (20) 
oracle

>  <origin>  (20) 
autodockgpu

>  <m_score__min__energy>  (20) 
-10.06

>  <m_primary>  (20) 
energy

>  <rmsd>  (20) 
2.531809434770224

>  <m_score__min__rmsd>  (20) 
2.531809434770224

>  <meeko>  (20) 
{"free_energy": -8.06, "intermolecular_energy": -10.45, "internal_energy": -2.89, "cluster_size": 4, "cluster_id": 2, "rank_in_cluster": 4}

>  <energy>  (20) 
-8.2

>  <cluster_rmsd>  (20) 
1.29

>  <cluster>  (20) 
5

$$$$

     RDKit          3D

 63 67  0  0  0  0  0  0  0  0999 V2000
  140.6970   74.1940  222.2530 O   0  0  0  0  0  0  0  0  0  0  0  0
  141.3160   74.6170  221.2270 C   0  0  0  0  0  0  0  0  0  0  0  0
  140.9040   75.7860  220.5170 N   0  0  0  0  0  0  0  0  0  0  0  0
  139.7830   76.5480  220.9250 C   0  0  0  0  0  0  0  0  0  0  0  0
  138.5420   75.8840  221.2830 C   0  0  0  0  0  0  0  0  0  0  0  0
  138.3110   75.8530  222.5680 O   0  0  0  0  0  0  0  0  0  0  0  0
  137.5750   75.2730  220.4500 N   0  0  0  0  0  0  0  0  0  0  0  0
  137.3310   75.4110  219.0220 C   0  0  0  0  0  0  0  0  0  0  0  0
  136.6670   74.0580  218.6590 C   0  0  2  0  0  0  0  0  0  0  0  0
  136.0210   74.1230  217.4420 O   0  0  0  0  0  0  0  0  0  0  0  0
  135.7190   73.9760  219.8450 C   0  0  0  0  0  0  0  0  0  0  0  0
  136.5990   74.3180  221.0040 C   0  0  1  0  0  0  0  0  0  0  0  0
  137.2490   73.0580  221.4460 C   0  0  0  0  0  0  0  0  0  0  0  0
  136.7950   71.9860  220.9890 O   0  0  0  0  0  0  0  0  0  0  0  0
  138.3360   72.9920  222.3390 N   0  0  0  0  0  0  0  0  0  0  0  0
  138.8670   71.7040  222.6860 C   0  0  1  0  0  0  0  0  0  0  0  0
  140.2300   71.7040  223.3680 C   0  0  0  0  0  0  0  0  0  0  0  0
  139.7320   70.4940  224.1350 C   0  0  1  0  0  0  0  0  0  0  0  0
  140.1840   70.3900  225.5260 C   0  0  0  0  0  0  0  0  0  0  0  0
  140.1970   69.1500  226.1760 C   0  0  0  0  0  0  0  0  0  0  0  0
  140.6310   69.0850  227.4850 C   0  0  0  0  0  0  0  0  0  0  0  0
  141.0450   70.2230  228.1470 C   0  0  0  0  0  0  0  0  0  0  0  0
  141.0430   71.4690  227.5280 C   0  0  0  0  0  0  0  0  0  0  0  0
  140.6050   71.5040  226.2200 C   0  0  0  0  0  0  0  0  0  0  0  0
  138.3310   71.1040  223.9790 C   0  0  0  0  0  0  0  0  0  0  0  0
  142.5000   73.8820  220.7440 C   0  0  0  0  0  0  0  0  0  0  0  0
  143.6860   74.5110  220.4810 C   0  0  0  0  0  0  0  0  0  0  0  0
  144.8080   73.8240  220.0260 C   0  0  0  0  0  0  0  0  0  0  0  0
  144.7280   72.4610  219.8340 C   0  0  0  0  0  0  0  0  0  0  0  0
  145.8400   71.7610  219.3820 C   0  0  0  0  0  0  0  0  0  0  0  0
  145.7320   70.3970  219.2000 C   0  0  0  0  0  0  0  0  0  0  0  0
  146.7670   69.6460  218.7610 F   0  0  0  0  0  0  0  0  0  0  0  0
  144.5220   69.7640  219.4690 C   0  0  0  0  0  0  0  0  0  0  0  0
  143.4500   70.4770  219.9120 C   0  0  0  0  0  0  0  0  0  0  0  0
  143.5240   71.8400  220.1050 C   0  0  0  0  0  0  0  0  0  0  0  0
  142.4580   72.5440  220.5440 N   0  0  0  0  0  0  0  0  0  0  0  0
  141.4620   76.0790  219.6620 H   0  0  0  0  0  0  0  0  0  0  0  0
  140.0974   77.1282  221.8050 H   0  0  0  0  0  0  0  0  0  0  0  0
  139.5157   77.1084  220.0170 H   0  0  0  0  0  0  0  0  0  0  0  0
  136.6547   76.2533  218.8145 H   0  0  0  0  0  0  0  0  0  0  0  0
  138.2413   75.6209  218.4413 H   0  0  0  0  0  0  0  0  0  0  0  0
  137.3312   73.1911  218.5270 H   0  0  0  0  0  0  0  0  0  0  0  0
  136.5470   73.5330  216.8270 H   0  0  0  0  0  0  0  0  0  0  0  0
  134.8975   74.7006  219.7452 H   0  0  0  0  0  0  0  0  0  0  0  0
  135.2336   72.9939  219.9446 H   0  0  0  0  0  0  0  0  0  0  0  0
  136.0800   74.7536  221.8705 H   0  0  0  0  0  0  0  0  0  0  0  0
  138.7370   73.8650  222.7320 H   0  0  0  0  0  0  0  0  0  0  0  0
  138.7064   71.2355  221.7038 H   0  0  0  0  0  0  0  0  0  0  0  0
  140.4401   72.5901  223.9849 H   0  0  0  0  0  0  0  0  0  0  0  0
  141.1732   71.6969  222.8020 H   0  0  0  0  0  0  0  0  0  0  0  0
  139.9832   69.4693  223.8238 H   0  0  0  0  0  0  0  0  0  0  0  0
  139.8664   68.2413  225.6516 H   0  0  0  0  0  0  0  0  0  0  0  0
  140.6470   68.1162  228.0057 H   0  0  0  0  0  0  0  0  0  0  0  0
  141.3850   70.1429  229.1901 H   0  0  0  0  0  0  0  0  0  0  0  0
  141.3729   72.3775  228.0532 H   0  0  0  0  0  0  0  0  0  0  0  0
  140.5910   72.4746  225.7025 H   0  0  0  0  0  0  0  0  0  0  0  0
  138.0521   71.8353  224.7520 H   0  0  0  0  0  0  0  0  0  0  0  0
  137.4113   70.5019  224.0198 H   0  0  0  0  0  0  0  0  0  0  0  0
  143.7555   75.5980  220.6345 H   0  0  0  0  0  0  0  0  0  0  0  0
  145.7459   74.3614  219.8224 H   0  0  0  0  0  0  0  0  0  0  0  0
  146.7858   72.2825  219.1738 H   0  0  0  0  0  0  0  0  0  0  0  0
  144.4309   68.6776  219.3223 H   0  0  0  0  0  0  0  0  0  0  0  0
  142.5048   69.9544  220.1203 H   0  0  0  0  0  0  0  0  0  0  0  0
  1  2  2  0
  2  3  1  0
  3  4  1  0
  4  5  1  0
  5  6  2  0
  5  7  1  0
  7  8  1  0
  8  9  1  0
  9 10  1  0
  9 11  1  0
 11 12  1  0
 12 13  1  0
 13 14  2  0
 13 15  1  0
 15 16  1  0
 16 17  1  0
 17 18  1  0
 18 19  1  0
 19 20  2  0
 20 21  1  0
 21 22  2  0
 22 23  1  0
 23 24  2  0
 18 25  1  0
  2 26  1  0
 26 27  2  0
 27 28  1  0
 28 29  2  0
 29 30  1  0
 30 31  2  0
 31 32  1  0
 31 33  1  0
 33 34  2  0
 34 35  1  0
 35 36  2  0
 12  7  1  0
 25 16  1  0
 36 26  1  0
 24 19  1  0
 35 29  1  0
  3 37  1  0
  4 38  1  0
  4 39  1  0
  8 40  1  0
  8 41  1  0
  9 42  1  6
 10 43  1  0
 11 44  1  0
 11 45  1  0
 12 46  1  1
 15 47  1  0
 16 48  1  6
 17 49  1  0
 17 50  1  0
 18 51  1  6
 20 52  1  0
 21 53  1  0
 22 54  1  0
 23 55  1  0
 24 56  1  0
 25 57  1  0
 25 58  1  0
 27 59  1  0
 28 60  1  0
 30 61  1  0
 33 62  1  0
 34 63  1  0
M  END
>  <smiles>  (21) 
O=C(NCC(=O)N1C[C@H](O)C[C@H]1C(=O)N[C@H]1C[C@@H](c2ccccc2)C1)c1ccc2cc(F)ccc2n1

>  <score_type>  (21) 
oracle

>  <origin>  (21) 
autodockgpu

>  <m_score__min__energy>  (21) 
-10.06

>  <m_primary>  (21) 
energy

>  <rmsd>  (21) 
8.225591710009594

>  <m_score__min__rmsd>  (21) 
8.225591710009594

>  <meeko>  (21) 
{"free_energy": -7.67, "intermolecular_energy": -10.06, "internal_energy": -3.47, "cluster_size": 1, "cluster_id": 11, "rank_in_cluster": 1}

>  <energy>  (21) 
-7.96

>  <cluster_rmsd>  (21) 
1.22

>  <cluster>  (21) 
5

$$$$

     RDKit          3D

 63 67  0  0  0  0  0  0  0  0999 V2000
  140.1410   74.1180  221.9550 O   0  0  0  0  0  0  0  0  0  0  0  0
  140.5400   75.2690  221.5920 C   0  0  0  0  0  0  0  0  0  0  0  0
  141.8180   75.4780  220.9920 N   0  0  0  0  0  0  0  0  0  0  0  0
  142.7150   74.4080  220.7580 C   0  0  0  0  0  0  0  0  0  0  0  0
  143.5390   74.3970  219.5630 C   0  0  0  0  0  0  0  0  0  0  0  0
  144.7940   74.1130  219.7880 O   0  0  0  0  0  0  0  0  0  0  0  0
  143.1780   74.6540  218.2180 N   0  0  0  0  0  0  0  0  0  0  0  0
  142.4480   73.8380  217.2610 C   0  0  0  0  0  0  0  0  0  0  0  0
  141.8340   74.8980  216.3100 C   0  0  2  0  0  0  0  0  0  0  0  0
  141.4150   74.3300  215.1240 O   0  0  0  0  0  0  0  0  0  0  0  0
  143.0690   75.7720  216.1620 C   0  0  0  0  0  0  0  0  0  0  0  0
  143.5440   75.9260  217.5700 C   0  0  1  0  0  0  0  0  0  0  0  0
  142.8090   77.0760  218.1570 C   0  0  0  0  0  0  0  0  0  0  0  0
  143.0130   77.3320  219.3650 O   0  0  0  0  0  0  0  0  0  0  0  0
  141.9060   77.8900  217.4480 N   0  0  0  0  0  0  0  0  0  0  0  0
  141.2590   78.9690  218.1410 C   0  0  1  0  0  0  0  0  0  0  0  0
  140.7070   78.6430  219.5230 C   0  0  0  0  0  0  0  0  0  0  0  0
  141.0700   80.0680  219.8930 C   0  0  1  0  0  0  0  0  0  0  0  0
  141.5490   80.2700  221.2630 C   0  0  0  0  0  0  0  0  0  0  0  0
  141.3410   81.4910  221.9150 C   0  0  0  0  0  0  0  0  0  0  0  0
  141.8020   81.6480  223.2070 C   0  0  0  0  0  0  0  0  0  0  0  0
  142.4600   80.6200  223.8490 C   0  0  0  0  0  0  0  0  0  0  0  0
  142.6830   79.3950  223.2280 C   0  0  0  0  0  0  0  0  0  0  0  0
  142.2110   79.2660  221.9390 C   0  0  0  0  0  0  0  0  0  0  0  0
  142.1930   79.9400  218.8520 C   0  0  0  0  0  0  0  0  0  0  0  0
  139.6580   76.4350  221.7930 C   0  0  0  0  0  0  0  0  0  0  0  0
  138.5220   76.6210  221.0550 C   0  0  0  0  0  0  0  0  0  0  0  0
  137.6860   77.7180  221.2400 C   0  0  0  0  0  0  0  0  0  0  0  0
  138.0070   78.6530  222.2010 C   0  0  0  0  0  0  0  0  0  0  0  0
  137.1820   79.7520  222.3990 C   0  0  0  0  0  0  0  0  0  0  0  0
  137.5270   80.6710  223.3690 C   0  0  0  0  0  0  0  0  0  0  0  0
  136.7760   81.7680  223.6210 F   0  0  0  0  0  0  0  0  0  0  0  0
  138.6840   80.4760  224.1170 C   0  0  0  0  0  0  0  0  0  0  0  0
  139.4730   79.3870  223.9000 C   0  0  0  0  0  0  0  0  0  0  0  0
  139.1570   78.4500  222.9390 C   0  0  0  0  0  0  0  0  0  0  0  0
  139.9420   77.3720  222.7270 N   0  0  0  0  0  0  0  0  0  0  0  0
  142.0910   76.4680  220.7190 H   0  0  0  0  0  0  0  0  0  0  0  0
  143.4015   74.3762  221.6169 H   0  0  0  0  0  0  0  0  0  0  0  0
  142.0467   73.5468  220.6109 H   0  0  0  0  0  0  0  0  0  0  0  0
  143.1249   73.1621  216.7179 H   0  0  0  0  0  0  0  0  0  0  0  0
  141.6978   73.1827  217.7277 H   0  0  0  0  0  0  0  0  0  0  0  0
  140.9282   75.4188  216.6539 H   0  0  0  0  0  0  0  0  0  0  0  0
  142.2040   73.8190  214.7780 H   0  0  0  0  0  0  0  0  0  0  0  0
  143.8302   75.2784  215.5400 H   0  0  0  0  0  0  0  0  0  0  0  0
  142.8629   76.7325  215.6671 H   0  0  0  0  0  0  0  0  0  0  0  0
  144.6210   76.1211  217.6793 H   0  0  0  0  0  0  0  0  0  0  0  0
  141.7180   77.7040  216.4440 H   0  0  0  0  0  0  0  0  0  0  0  0
  140.6056   79.2744  217.3104 H   0  0  0  0  0  0  0  0  0  0  0  0
  141.2597   77.8662  220.0718 H   0  0  0  0  0  0  0  0  0  0  0  0
  139.6971   78.2336  219.6732 H   0  0  0  0  0  0  0  0  0  0  0  0
  140.3234   80.8757  219.8807 H   0  0  0  0  0  0  0  0  0  0  0  0
  140.8178   82.3136  221.4054 H   0  0  0  0  0  0  0  0  0  0  0  0
  141.6428   82.6028  223.7296 H   0  0  0  0  0  0  0  0  0  0  0  0
  142.8176   80.7724  224.8780 H   0  0  0  0  0  0  0  0  0  0  0  0
  143.2076   78.5736  223.7380 H   0  0  0  0  0  0  0  0  0  0  0  0
  142.3712   78.3091  221.4207 H   0  0  0  0  0  0  0  0  0  0  0  0
  143.1281   79.4981  219.2266 H   0  0  0  0  0  0  0  0  0  0  0  0
  142.6424   80.8098  218.3504 H   0  0  0  0  0  0  0  0  0  0  0  0
  138.2597   75.8773  220.2881 H   0  0  0  0  0  0  0  0  0  0  0  0
  136.7804   77.8376  220.6272 H   0  0  0  0  0  0  0  0  0  0  0  0
  136.2725   79.8874  221.7954 H   0  0  0  0  0  0  0  0  0  0  0  0
  138.9638   81.2071  224.8898 H   0  0  0  0  0  0  0  0  0  0  0  0
  140.3820   79.2522  224.5045 H   0  0  0  0  0  0  0  0  0  0  0  0
  1  2  2  0
  2  3  1  0
  3  4  1  0
  4  5  1  0
  5  6  2  0
  5  7  1  0
  7  8  1  0
  8  9  1  0
  9 10  1  0
  9 11  1  0
 11 12  1  0
 12 13  1  0
 13 14  2  0
 13 15  1  0
 15 16  1  0
 16 17  1  0
 17 18  1  0
 18 19  1  0
 19 20  2  0
 20 21  1  0
 21 22  2  0
 22 23  1  0
 23 24  2  0
 18 25  1  0
  2 26  1  0
 26 27  2  0
 27 28  1  0
 28 29  2  0
 29 30  1  0
 30 31  2  0
 31 32  1  0
 31 33  1  0
 33 34  2  0
 34 35  1  0
 35 36  2  0
 12  7  1  0
 25 16  1  0
 36 26  1  0
 24 19  1  0
 35 29  1  0
  3 37  1  0
  4 38  1  0
  4 39  1  0
  8 40  1  0
  8 41  1  0
  9 42  1  1
 10 43  1  0
 11 44  1  0
 11 45  1  0
 12 46  1  6
 15 47  1  0
 16 48  1  6
 17 49  1  0
 17 50  1  0
 18 51  1  6
 20 52  1  0
 21 53  1  0
 22 54  1  0
 23 55  1  0
 24 56  1  0
 25 57  1  0
 25 58  1  0
 27 59  1  0
 28 60  1  0
 30 61  1  0
 33 62  1  0
 34 63  1  0
M  END
>  <smiles>  (22) 
O=C(NCC(=O)N1C[C@H](O)C[C@H]1C(=O)N[C@H]1C[C@@H](c2ccccc2)C1)c1ccc2cc(F)ccc2n1

>  <score_type>  (22) 
oracle

>  <origin>  (22) 
autodockgpu

>  <m_score__min__energy>  (22) 
-10.06

>  <m_primary>  (22) 
energy

>  <rmsd>  (22) 
6.558772132884947

>  <m_score__min__rmsd>  (22) 
6.558772132884947

>  <meeko>  (22) 
{"free_energy": -6.74, "intermolecular_energy": -9.13, "internal_energy": -4.31, "cluster_size": 1, "cluster_id": 13, "rank_in_cluster": 1}

>  <energy>  (22) 
-7.85

>  <cluster_rmsd>  (22) 
1.19

>  <cluster>  (22) 
5

$$$$

     RDKit          3D

 63 67  0  0  0  0  0  0  0  0999 V2000
  141.3460   72.4590  221.6440 O   0  0  0  0  0  0  0  0  0  0  0  0
  140.3620   72.5700  222.4420 C   0  0  0  0  0  0  0  0  0  0  0  0
  139.3750   73.5910  222.2950 N   0  0  0  0  0  0  0  0  0  0  0  0
  139.4320   74.5370  221.2440 C   0  0  0  0  0  0  0  0  0  0  0  0
  140.4440   75.5780  221.2560 C   0  0  0  0  0  0  0  0  0  0  0  0
  140.8340   75.9230  222.4530 O   0  0  0  0  0  0  0  0  0  0  0  0
  141.0480   76.2590  220.1720 N   0  0  0  0  0  0  0  0  0  0  0  0
  141.3250   77.6740  219.9770 C   0  0  0  0  0  0  0  0  0  0  0  0
  142.5290   77.6520  218.9990 C   0  0  2  0  0  0  0  0  0  0  0  0
  142.7110   78.8790  218.3960 O   0  0  0  0  0  0  0  0  0  0  0  0
  141.9990   76.5840  218.0550 C   0  0  0  0  0  0  0  0  0  0  0  0
  141.5170   75.5200  218.9860 C   0  0  1  0  0  0  0  0  0  0  0  0
  142.6820   74.6540  219.3010 C   0  0  0  0  0  0  0  0  0  0  0  0
  142.6710   73.4890  218.8450 O   0  0  0  0  0  0  0  0  0  0  0  0
  143.7880   75.0550  220.0730 N   0  0  0  0  0  0  0  0  0  0  0  0
  144.8470   74.1130  220.3040 C   0  0  1  0  0  0  0  0  0  0  0  0
  144.4330   72.7740  220.9020 C   0  0  0  0  0  0  0  0  0  0  0  0
  145.5530   72.1740  220.0730 C   0  0  1  0  0  0  0  0  0  0  0  0
  145.2950   70.8390  219.5230 C   0  0  0  0  0  0  0  0  0  0  0  0
  144.0030   70.3020  219.5390 C   0  0  0  0  0  0  0  0  0  0  0  0
  143.7930   69.0450  219.0100 C   0  0  0  0  0  0  0  0  0  0  0  0
  144.8400   68.3230  218.4750 C   0  0  0  0  0  0  0  0  0  0  0  0
  146.1350   68.8290  218.4450 C   0  0  0  0  0  0  0  0  0  0  0  0
  146.3160   70.0880  218.9790 C   0  0  0  0  0  0  0  0  0  0  0  0
  145.2910   73.3170  219.0820 C   0  0  0  0  0  0  0  0  0  0  0  0
  140.2270   71.6150  223.5580 C   0  0  0  0  0  0  0  0  0  0  0  0
  139.6540   70.3840  223.3940 C   0  0  0  0  0  0  0  0  0  0  0  0
  139.5250   69.4790  224.4430 C   0  0  0  0  0  0  0  0  0  0  0  0
  139.9890   69.8280  225.6940 C   0  0  0  0  0  0  0  0  0  0  0  0
  139.8680   68.9340  226.7500 C   0  0  0  0  0  0  0  0  0  0  0  0
  140.3420   69.3100  227.9910 C   0  0  0  0  0  0  0  0  0  0  0  0
  140.2600   68.4980  229.0690 F   0  0  0  0  0  0  0  0  0  0  0  0
  140.9240   70.5650  228.1500 C   0  0  0  0  0  0  0  0  0  0  0  0
  141.0280   71.4190  227.0950 C   0  0  0  0  0  0  0  0  0  0  0  0
  140.5650   71.0750  225.8420 C   0  0  0  0  0  0  0  0  0  0  0  0
  140.6710   71.9250  224.7980 N   0  0  0  0  0  0  0  0  0  0  0  0
  138.5820   73.6300  223.0020 H   0  0  0  0  0  0  0  0  0  0  0  0
  139.5728   73.9685  220.3129 H   0  0  0  0  0  0  0  0  0  0  0  0
  138.4925   75.0976  221.3584 H   0  0  0  0  0  0  0  0  0  0  0  0
  140.4614   78.1900  219.5320 H   0  0  0  0  0  0  0  0  0  0  0  0
  141.5322   78.2122  220.9137 H   0  0  0  0  0  0  0  0  0  0  0  0
  143.5222   77.4504  219.4267 H   0  0  0  0  0  0  0  0  0  0  0  0
  143.6810   79.0970  218.5170 H   0  0  0  0  0  0  0  0  0  0  0  0
  141.1746   76.9741  217.4400 H   0  0  0  0  0  0  0  0  0  0  0  0
  142.7540   76.2245  217.3403 H   0  0  0  0  0  0  0  0  0  0  0  0
  140.7164   74.8799  218.5867 H   0  0  0  0  0  0  0  0  0  0  0  0
  143.8270   76.0170  220.4620 H   0  0  0  0  0  0  0  0  0  0  0  0
  145.5156   74.8067  220.8348 H   0  0  0  0  0  0  0  0  0  0  0  0
  143.4221   72.4368  220.6294 H   0  0  0  0  0  0  0  0  0  0  0  0
  144.3499   72.6125  221.9869 H   0  0  0  0  0  0  0  0  0  0  0  0
  146.5425   71.9644  220.5054 H   0  0  0  0  0  0  0  0  0  0  0  0
  143.1666   70.8738  219.9672 H   0  0  0  0  0  0  0  0  0  0  0  0
  142.7808   68.6143  219.0148 H   0  0  0  0  0  0  0  0  0  0  0  0
  144.6455   67.3222  218.0619 H   0  0  0  0  0  0  0  0  0  0  0  0
  146.9709   68.2555  218.0180 H   0  0  0  0  0  0  0  0  0  0  0  0
  147.3293   70.5161  218.9705 H   0  0  0  0  0  0  0  0  0  0  0  0
  144.5018   73.1205  218.3413 H   0  0  0  0  0  0  0  0  0  0  0  0
  146.0535   73.6818  218.3780 H   0  0  0  0  0  0  0  0  0  0  0  0
  139.2823   70.0996  222.3985 H   0  0  0  0  0  0  0  0  0  0  0  0
  139.0585   68.4968  224.2765 H   0  0  0  0  0  0  0  0  0  0  0  0
  139.4045   67.9476  226.6008 H   0  0  0  0  0  0  0  0  0  0  0  0
  141.3031   70.8690  229.1368 H   0  0  0  0  0  0  0  0  0  0  0  0
  141.4915   72.4052  227.2450 H   0  0  0  0  0  0  0  0  0  0  0  0
  1  2  2  0
  2  3  1  0
  3  4  1  0
  4  5  1  0
  5  6  2  0
  5  7  1  0
  7  8  1  0
  8  9  1  0
  9 10  1  0
  9 11  1  0
 11 12  1  0
 12 13  1  0
 13 14  2  0
 13 15  1  0
 15 16  1  0
 16 17  1  0
 17 18  1  0
 18 19  1  0
 19 20  2  0
 20 21  1  0
 21 22  2  0
 22 23  1  0
 23 24  2  0
 18 25  1  0
  2 26  1  0
 26 27  2  0
 27 28  1  0
 28 29  2  0
 29 30  1  0
 30 31  2  0
 31 32  1  0
 31 33  1  0
 33 34  2  0
 34 35  1  0
 35 36  2  0
 12  7  1  0
 25 16  1  0
 36 26  1  0
 24 19  1  0
 35 29  1  0
  3 37  1  0
  4 38  1  0
  4 39  1  0
  8 40  1  0
  8 41  1  0
  9 42  1  1
 10 43  1  0
 11 44  1  0
 11 45  1  0
 12 46  1  6
 15 47  1  0
 16 48  1  1
 17 49  1  0
 17 50  1  0
 18 51  1  1
 20 52  1  0
 21 53  1  0
 22 54  1  0
 23 55  1  0
 24 56  1  0
 25 57  1  0
 25 58  1  0
 27 59  1  0
 28 60  1  0
 30 61  1  0
 33 62  1  0
 34 63  1  0
M  END
>  <smiles>  (23) 
O=C(NCC(=O)N1C[C@H](O)C[C@H]1C(=O)N[C@H]1C[C@@H](c2ccccc2)C1)c1ccc2cc(F)ccc2n1

>  <score_type>  (23) 
oracle

>  <origin>  (23) 
autodockgpu

>  <m_score__min__energy>  (23) 
-10.06

>  <m_primary>  (23) 
energy

>  <rmsd>  (23) 
5.854909454797383

>  <m_score__min__rmsd>  (23) 
5.854909454797383

>  <meeko>  (23) 
{"free_energy": -8.98, "intermolecular_energy": -11.37, "internal_energy": -2.13, "cluster_size": 7, "cluster_id": 3, "rank_in_cluster": 1}

>  <energy>  (23) 
-8.22

>  <cluster_rmsd>  (23) 
0.0

>  <cluster>  (23) 
6

$$$$

     RDKit          3D

 63 67  0  0  0  0  0  0  0  0999 V2000
  140.0920   73.2880  222.7040 O   0  0  0  0  0  0  0  0  0  0  0  0
  139.4060   72.2170  222.7180 C   0  0  0  0  0  0  0  0  0  0  0  0
  138.4260   71.9280  221.7220 N   0  0  0  0  0  0  0  0  0  0  0  0
  138.1660   72.8180  220.6520 C   0  0  0  0  0  0  0  0  0  0  0  0
  136.9840   73.6600  220.6760 C   0  0  0  0  0  0  0  0  0  0  0  0
  136.3110   73.6600  219.5570 O   0  0  0  0  0  0  0  0  0  0  0  0
  136.4760   74.4680  221.7220 N   0  0  0  0  0  0  0  0  0  0  0  0
  135.8630   74.1020  222.9890 C   0  0  0  0  0  0  0  0  0  0  0  0
  136.1690   75.3340  223.8820 C   0  0  2  0  0  0  0  0  0  0  0  0
  135.3630   75.3580  225.0020 O   0  0  0  0  0  0  0  0  0  0  0  0
  135.8250   76.4080  222.8630 C   0  0  0  0  0  0  0  0  0  0  0  0
  136.5220   75.9380  221.6280 C   0  0  1  0  0  0  0  0  0  0  0  0
  137.9140   76.4520  221.6890 C   0  0  0  0  0  0  0  0  0  0  0  0
  138.1530   77.5330  221.1070 O   0  0  0  0  0  0  0  0  0  0  0  0
  138.9740   75.8060  222.3540 N   0  0  0  0  0  0  0  0  0  0  0  0
  140.2750   76.4140  222.3300 C   0  0  1  0  0  0  0  0  0  0  0  0
  140.7780   76.8680  220.9660 C   0  0  0  0  0  0  0  0  0  0  0  0
  141.4610   78.0000  221.7080 C   0  0  1  0  0  0  0  0  0  0  0  0
  141.5070   79.2870  221.0080 C   0  0  0  0  0  0  0  0  0  0  0  0
  141.7510   79.3370  219.6300 C   0  0  0  0  0  0  0  0  0  0  0  0
  141.7840   80.5640  219.0000 C   0  0  0  0  0  0  0  0  0  0  0  0
  141.5850   81.7270  219.7130 C   0  0  0  0  0  0  0  0  0  0  0  0
  141.3420   81.7110  221.0830 C   0  0  0  0  0  0  0  0  0  0  0  0
  141.3120   80.4710  221.6860 C   0  0  0  0  0  0  0  0  0  0  0  0
  140.3160   77.8850  222.7250 C   0  0  0  0  0  0  0  0  0  0  0  0
  139.6250   71.2340  223.7970 C   0  0  0  0  0  0  0  0  0  0  0  0
  139.3060   69.9130  223.6490 C   0  0  0  0  0  0  0  0  0  0  0  0
  139.5100   68.9800  224.6620 C   0  0  0  0  0  0  0  0  0  0  0  0
  140.0530   69.3970  225.8580 C   0  0  0  0  0  0  0  0  0  0  0  0
  140.2640   68.4770  226.8780 C   0  0  0  0  0  0  0  0  0  0  0  0
  140.8110   68.9220  228.0650 C   0  0  0  0  0  0  0  0  0  0  0  0
  141.0450   68.0900  229.1050 F   0  0  0  0  0  0  0  0  0  0  0  0
  141.1330   70.2680  228.2090 C   0  0  0  0  0  0  0  0  0  0  0  0
  140.9150   71.1450  227.1900 C   0  0  0  0  0  0  0  0  0  0  0  0
  140.3710   70.7350  225.9920 C   0  0  0  0  0  0  0  0  0  0  0  0
  140.1560   71.6070  224.9840 N   0  0  0  0  0  0  0  0  0  0  0  0
  137.8830   71.0170  221.7980 H   0  0  0  0  0  0  0  0  0  0  0  0
  139.0332   73.4910  220.5816 H   0  0  0  0  0  0  0  0  0  0  0  0
  137.9772   72.1434  219.8039 H   0  0  0  0  0  0  0  0  0  0  0  0
  134.7790   73.9522  222.8770 H   0  0  0  0  0  0  0  0  0  0  0  0
  136.2443   73.1566  223.4024 H   0  0  0  0  0  0  0  0  0  0  0  0
  137.1771   75.4038  224.3165 H   0  0  0  0  0  0  0  0  0  0  0  0
  135.8890   74.8990  225.7200 H   0  0  0  0  0  0  0  0  0  0  0  0
  134.7382   76.4684  222.7044 H   0  0  0  0  0  0  0  0  0  0  0  0
  136.1330   77.4164  223.1765 H   0  0  0  0  0  0  0  0  0  0  0  0
  136.0758   76.2799  220.6825 H   0  0  0  0  0  0  0  0  0  0  0  0
  138.8050   74.9090  222.8490 H   0  0  0  0  0  0  0  0  0  0  0  0
  140.7867   75.6303  222.9079 H   0  0  0  0  0  0  0  0  0  0  0  0
  139.9925   77.1817  220.2628 H   0  0  0  0  0  0  0  0  0  0  0  0
  141.3211   76.1971  220.2841 H   0  0  0  0  0  0  0  0  0  0  0  0
  142.5240   77.9484  221.9861 H   0  0  0  0  0  0  0  0  0  0  0  0
  141.9140   78.4115  219.0582 H   0  0  0  0  0  0  0  0  0  0  0  0
  141.9711   80.6148  217.9172 H   0  0  0  0  0  0  0  0  0  0  0  0
  141.6192   82.6918  219.1857 H   0  0  0  0  0  0  0  0  0  0  0  0
  141.1824   82.6374  221.6543 H   0  0  0  0  0  0  0  0  0  0  0  0
  141.1218   80.4244  222.7684 H   0  0  0  0  0  0  0  0  0  0  0  0
  139.4118   78.4602  222.4766 H   0  0  0  0  0  0  0  0  0  0  0  0
  140.4100   78.2195  223.7687 H   0  0  0  0  0  0  0  0  0  0  0  0
  138.8729   69.5753  222.6959 H   0  0  0  0  0  0  0  0  0  0  0  0
  139.2414   67.9242  224.5098 H   0  0  0  0  0  0  0  0  0  0  0  0
  140.0010   67.4175  226.7426 H   0  0  0  0  0  0  0  0  0  0  0  0
  141.5673   70.6268  229.1538 H   0  0  0  0  0  0  0  0  0  0  0  0
  141.1790   72.2041  227.3263 H   0  0  0  0  0  0  0  0  0  0  0  0
  1  2  2  0
  2  3  1  0
  3  4  1  0
  4  5  1  0
  5  6  2  0
  5  7  1  0
  7  8  1  0
  8  9  1  0
  9 10  1  0
  9 11  1  0
 11 12  1  0
 12 13  1  0
 13 14  2  0
 13 15  1  0
 15 16  1  0
 16 17  1  0
 17 18  1  0
 18 19  1  0
 19 20  2  0
 20 21  1  0
 21 22  2  0
 22 23  1  0
 23 24  2  0
 18 25  1  0
  2 26  1  0
 26 27  2  0
 27 28  1  0
 28 29  2  0
 29 30  1  0
 30 31  2  0
 31 32  1  0
 31 33  1  0
 33 34  2  0
 34 35  1  0
 35 36  2  0
 12  7  1  0
 25 16  1  0
 36 26  1  0
 24 19  1  0
 35 29  1  0
  3 37  1  0
  4 38  1  0
  4 39  1  0
  8 40  1  0
  8 41  1  0
  9 42  1  1
 10 43  1  0
 11 44  1  0
 11 45  1  0
 12 46  1  6
 15 47  1  0
 16 48  1  1
 17 49  1  0
 17 50  1  0
 18 51  1  1
 20 52  1  0
 21 53  1  0
 22 54  1  0
 23 55  1  0
 24 56  1  0
 25 57  1  0
 25 58  1  0
 27 59  1  0
 28 60  1  0
 30 61  1  0
 33 62  1  0
 34 63  1  0
M  END
>  <smiles>  (24) 
O=C(NCC(=O)N1C[C@H](O)C[C@H]1C(=O)N[C@H]1C[C@@H](c2ccccc2)C1)c1ccc2cc(F)ccc2n1

>  <score_type>  (24) 
oracle

>  <origin>  (24) 
autodockgpu

>  <m_score__min__energy>  (24) 
-10.06

>  <m_primary>  (24) 
energy

>  <rmsd>  (24) 
3.805578196188097

>  <m_score__min__rmsd>  (24) 
3.805578196188097

>  <meeko>  (24) 
{"free_energy": -8.32, "intermolecular_energy": -10.7, "internal_energy": -2.63, "cluster_size": 4, "cluster_id": 5, "rank_in_cluster": 1}

>  <energy>  (24) 
-8.14

>  <cluster_rmsd>  (24) 
0.96

>  <cluster>  (24) 
6

$$$$

     RDKit          3D

 63 67  0  0  0  0  0  0  0  0999 V2000
  140.0060   73.0750  222.7220 O   0  0  0  0  0  0  0  0  0  0  0  0
  140.2670   71.8390  222.8630 C   0  0  0  0  0  0  0  0  0  0  0  0
  140.4150   70.9600  221.7470 N   0  0  0  0  0  0  0  0  0  0  0  0
  140.2870   71.4200  220.4140 C   0  0  0  0  0  0  0  0  0  0  0  0
  141.4390   71.4160  219.5300 C   0  0  0  0  0  0  0  0  0  0  0  0
  141.2400   70.7820  218.4060 O   0  0  0  0  0  0  0  0  0  0  0  0
  142.7200   71.9880  219.7180 N   0  0  0  0  0  0  0  0  0  0  0  0
  143.9620   71.7920  218.9860 C   0  0  0  0  0  0  0  0  0  0  0  0
  144.7140   73.1260  219.2310 C   0  0  2  0  0  0  0  0  0  0  0  0
  146.0570   73.0090  218.9410 O   0  0  0  0  0  0  0  0  0  0  0  0
  144.4230   73.2490  220.7180 C   0  0  0  0  0  0  0  0  0  0  0  0
  142.9590   72.9580  220.8010 C   0  0  1  0  0  0  0  0  0  0  0  0
  142.2450   74.2380  220.5630 C   0  0  0  0  0  0  0  0  0  0  0  0
  142.2820   74.7100  219.4050 O   0  0  0  0  0  0  0  0  0  0  0  0
  141.5330   74.9490  221.5480 N   0  0  0  0  0  0  0  0  0  0  0  0
  140.8900   76.1800  221.1810 C   0  0  1  0  0  0  0  0  0  0  0  0
  140.3790   77.0370  222.3330 C   0  0  0  0  0  0  0  0  0  0  0  0
  140.7320   78.2310  221.4660 C   0  0  1  0  0  0  0  0  0  0  0  0
  141.2440   79.4070  222.1760 C   0  0  0  0  0  0  0  0  0  0  0  0
  142.1410   79.2580  223.2400 C   0  0  0  0  0  0  0  0  0  0  0  0
  142.6070   80.3850  223.8860 C   0  0  0  0  0  0  0  0  0  0  0  0
  142.1960   81.6420  223.4930 C   0  0  0  0  0  0  0  0  0  0  0  0
  141.3050   81.8230  222.4400 C   0  0  0  0  0  0  0  0  0  0  0  0
  140.8560   80.6790  221.8120 C   0  0  0  0  0  0  0  0  0  0  0  0
  141.8280   77.3380  220.8660 C   0  0  0  0  0  0  0  0  0  0  0  0
  140.4240   71.2840  224.2210 C   0  0  0  0  0  0  0  0  0  0  0  0
  140.7740   72.0660  225.2870 C   0  0  0  0  0  0  0  0  0  0  0  0
  140.9230   71.5500  226.5700 C   0  0  0  0  0  0  0  0  0  0  0  0
  140.7110   70.2040  226.7820 C   0  0  0  0  0  0  0  0  0  0  0  0
  140.8550   69.6740  228.0580 C   0  0  0  0  0  0  0  0  0  0  0  0
  140.6360   68.3240  228.2410 C   0  0  0  0  0  0  0  0  0  0  0  0
  140.7570   67.7330  229.4520 F   0  0  0  0  0  0  0  0  0  0  0  0
  140.2800   67.5340  227.1520 C   0  0  0  0  0  0  0  0  0  0  0  0
  140.1470   68.0830  225.9130 C   0  0  0  0  0  0  0  0  0  0  0  0
  140.3580   69.4280  225.6950 C   0  0  0  0  0  0  0  0  0  0  0  0
  140.2240   69.9680  224.4650 N   0  0  0  0  0  0  0  0  0  0  0  0
  140.6260   69.9360  221.9370 H   0  0  0  0  0  0  0  0  0  0  0  0
  139.5176   70.7963  219.9355 H   0  0  0  0  0  0  0  0  0  0  0  0
  140.0665   72.4907  220.5365 H   0  0  0  0  0  0  0  0  0  0  0  0
  144.5281   70.9379  219.3861 H   0  0  0  0  0  0  0  0  0  0  0  0
  143.8104   71.5649  217.9204 H   0  0  0  0  0  0  0  0  0  0  0  0
  144.4160   73.9911  218.6204 H   0  0  0  0  0  0  0  0  0  0  0  0
  146.3590   73.9300  218.6870 H   0  0  0  0  0  0  0  0  0  0  0  0
  145.0049   72.5163  221.2964 H   0  0  0  0  0  0  0  0  0  0  0  0
  144.6932   74.2316  221.1321 H   0  0  0  0  0  0  0  0  0  0  0  0
  142.6179   72.5539  221.7655 H   0  0  0  0  0  0  0  0  0  0  0  0
  141.4810   74.5810  222.5170 H   0  0  0  0  0  0  0  0  0  0  0  0
  140.2117   75.7462  220.4315 H   0  0  0  0  0  0  0  0  0  0  0  0
  140.9569   76.9535  223.2652 H   0  0  0  0  0  0  0  0  0  0  0  0
  139.3795   76.9010  222.7717 H   0  0  0  0  0  0  0  0  0  0  0  0
  139.9742   78.7479  220.8589 H   0  0  0  0  0  0  0  0  0  0  0  0
  142.4698   78.2572  223.5567 H   0  0  0  0  0  0  0  0  0  0  0  0
  143.3133   80.2800  224.7227 H   0  0  0  0  0  0  0  0  0  0  0  0
  142.5826   82.5234  224.0257 H   0  0  0  0  0  0  0  0  0  0  0  0
  140.9760   82.8242  222.1249 H   0  0  0  0  0  0  0  0  0  0  0  0
  140.1501   80.7879  220.9754 H   0  0  0  0  0  0  0  0  0  0  0  0
  142.7789   77.3315  221.4190 H   0  0  0  0  0  0  0  0  0  0  0  0
  142.2512   77.5061  219.8647 H   0  0  0  0  0  0  0  0  0  0  0  0
  140.9436   73.1406  225.1240 H   0  0  0  0  0  0  0  0  0  0  0  0
  141.2064   72.2074  227.4052 H   0  0  0  0  0  0  0  0  0  0  0  0
  141.1376   70.3170  228.9046 H   0  0  0  0  0  0  0  0  0  0  0  0
  140.1046   66.4573  227.2933 H   0  0  0  0  0  0  0  0  0  0  0  0
  139.8649   67.4390  225.0670 H   0  0  0  0  0  0  0  0  0  0  0  0
  1  2  2  0
  2  3  1  0
  3  4  1  0
  4  5  1  0
  5  6  2  0
  5  7  1  0
  7  8  1  0
  8  9  1  0
  9 10  1  0
  9 11  1  0
 11 12  1  0
 12 13  1  0
 13 14  2  0
 13 15  1  0
 15 16  1  0
 16 17  1  0
 17 18  1  0
 18 19  1  0
 19 20  2  0
 20 21  1  0
 21 22  2  0
 22 23  1  0
 23 24  2  0
 18 25  1  0
  2 26  1  0
 26 27  2  0
 27 28  1  0
 28 29  2  0
 29 30  1  0
 30 31  2  0
 31 32  1  0
 31 33  1  0
 33 34  2  0
 34 35  1  0
 35 36  2  0
 12  7  1  0
 25 16  1  0
 36 26  1  0
 24 19  1  0
 35 29  1  0
  3 37  1  0
  4 38  1  0
  4 39  1  0
  8 40  1  0
  8 41  1  0
  9 42  1  6
 10 43  1  0
 11 44  1  0
 11 45  1  0
 12 46  1  1
 15 47  1  0
 16 48  1  6
 17 49  1  0
 17 50  1  0
 18 51  1  6
 20 52  1  0
 21 53  1  0
 22 54  1  0
 23 55  1  0
 24 56  1  0
 25 57  1  0
 25 58  1  0
 27 59  1  0
 28 60  1  0
 30 61  1  0
 33 62  1  0
 34 63  1  0
M  END
>  <smiles>  (25) 
O=C(NCC(=O)N1C[C@H](O)C[C@H]1C(=O)N[C@H]1C[C@@H](c2ccccc2)C1)c1ccc2cc(F)ccc2n1

>  <score_type>  (25) 
oracle

>  <origin>  (25) 
autodockgpu

>  <m_score__min__energy>  (25) 
-10.06

>  <m_primary>  (25) 
energy

>  <rmsd>  (25) 
4.225788241362397

>  <m_score__min__rmsd>  (25) 
4.225788241362397

>  <meeko>  (25) 
{"free_energy": -10.05, "intermolecular_energy": -12.43, "internal_energy": -2.8, "cluster_size": 5, "cluster_id": 1, "rank_in_cluster": 2}

>  <energy>  (25) 
-8.1

>  <cluster_rmsd>  (25) 
0.87

>  <cluster>  (25) 
6

$$$$

     RDKit          3D

 63 67  0  0  0  0  0  0  0  0999 V2000
  139.7290   72.8740  222.6030 O   0  0  0  0  0  0  0  0  0  0  0  0
  139.1740   71.8360  223.0830 C   0  0  0  0  0  0  0  0  0  0  0  0
  138.0710   71.1980  222.4420 N   0  0  0  0  0  0  0  0  0  0  0  0
  137.5360   71.6810  221.2230 C   0  0  0  0  0  0  0  0  0  0  0  0
  136.3380   72.5010  221.2290 C   0  0  0  0  0  0  0  0  0  0  0  0
  135.4930   72.2110  220.2780 O   0  0  0  0  0  0  0  0  0  0  0  0
  135.9730   73.5540  222.1030 N   0  0  0  0  0  0  0  0  0  0  0  0
  135.7290   73.5540  223.5370 C   0  0  0  0  0  0  0  0  0  0  0  0
  136.0490   75.0180  223.9350 C   0  0  2  0  0  0  0  0  0  0  0  0
  135.5290   75.3290  225.1750 O   0  0  0  0  0  0  0  0  0  0  0  0
  135.3260   75.7000  222.7850 C   0  0  0  0  0  0  0  0  0  0  0  0
  135.7800   74.9230  221.5920 C   0  0  1  0  0  0  0  0  0  0  0  0
  137.0590   75.5270  221.1370 C   0  0  0  0  0  0  0  0  0  0  0  0
  137.0010   76.3570  220.2030 O   0  0  0  0  0  0  0  0  0  0  0  0
  138.3200   75.2300  221.6860 N   0  0  0  0  0  0  0  0  0  0  0  0
  139.4790   75.8860  221.1470 C   0  0  1  0  0  0  0  0  0  0  0  0
  139.4080   77.4050  221.0560 C   0  0  0  0  0  0  0  0  0  0  0  0
  140.8960   77.3900  221.3460 C   0  0  1  0  0  0  0  0  0  0  0  0
  141.3970   78.4930  222.1730 C   0  0  0  0  0  0  0  0  0  0  0  0
  141.4770   78.3560  223.5640 C   0  0  0  0  0  0  0  0  0  0  0  0
  141.9560   79.4120  224.3130 C   0  0  0  0  0  0  0  0  0  0  0  0
  142.3480   80.5860  223.7050 C   0  0  0  0  0  0  0  0  0  0  0  0
  142.2800   80.7530  222.3260 C   0  0  0  0  0  0  0  0  0  0  0  0
  141.7990   79.6820  221.6020 C   0  0  0  0  0  0  0  0  0  0  0  0
  140.6240   76.0970  222.1290 C   0  0  0  0  0  0  0  0  0  0  0  0
  139.6800   71.2660  224.3460 C   0  0  0  0  0  0  0  0  0  0  0  0
  140.6250   71.9030  225.1020 C   0  0  0  0  0  0  0  0  0  0  0  0
  141.1060   71.3720  226.2950 C   0  0  0  0  0  0  0  0  0  0  0  0
  140.6170   70.1600  226.7360 C   0  0  0  0  0  0  0  0  0  0  0  0
  141.0860   69.6170  227.9250 C   0  0  0  0  0  0  0  0  0  0  0  0
  140.5780   68.4040  228.3430 C   0  0  0  0  0  0  0  0  0  0  0  0
  140.9850   67.8090  229.4880 F   0  0  0  0  0  0  0  0  0  0  0  0
  139.6170   67.7610  227.5690 C   0  0  0  0  0  0  0  0  0  0  0  0
  139.1760   68.3190  226.4070 C   0  0  0  0  0  0  0  0  0  0  0  0
  139.6630   69.5290  225.9610 C   0  0  0  0  0  0  0  0  0  0  0  0
  139.2230   70.0800  224.8090 N   0  0  0  0  0  0  0  0  0  0  0  0
  137.6490   70.3370  222.9020 H   0  0  0  0  0  0  0  0  0  0  0  0
  138.3263   72.2775  220.7439 H   0  0  0  0  0  0  0  0  0  0  0  0
  137.2115   70.7641  220.7091 H   0  0  0  0  0  0  0  0  0  0  0  0
  134.6823   73.3013  223.7616 H   0  0  0  0  0  0  0  0  0  0  0  0
  136.3294   72.8112  224.0828 H   0  0  0  0  0  0  0  0  0  0  0  0
  137.1090   75.2885  224.0499 H   0  0  0  0  0  0  0  0  0  0  0  0
  134.6730   74.8130  225.2440 H   0  0  0  0  0  0  0  0  0  0  0  0
  134.2351   75.6324  222.9087 H   0  0  0  0  0  0  0  0  0  0  0  0
  135.5475   76.7749  222.7113 H   0  0  0  0  0  0  0  0  0  0  0  0
  135.0824   74.9254  220.7415 H   0  0  0  0  0  0  0  0  0  0  0  0
  138.4000   74.5480  222.4650 H   0  0  0  0  0  0  0  0  0  0  0  0
  139.5736   75.2532  220.2522 H   0  0  0  0  0  0  0  0  0  0  0  0
  138.7899   77.8875  221.8274 H   0  0  0  0  0  0  0  0  0  0  0  0
  138.9817   77.9247  220.1852 H   0  0  0  0  0  0  0  0  0  0  0  0
  141.6417   77.4630  220.5407 H   0  0  0  0  0  0  0  0  0  0  0  0
  141.1631   77.4217  224.0523 H   0  0  0  0  0  0  0  0  0  0  0  0
  142.0257   79.3160  225.4066 H   0  0  0  0  0  0  0  0  0  0  0  0
  142.7242   81.4117  224.3268 H   0  0  0  0  0  0  0  0  0  0  0  0
  142.5928   81.6884  221.8391 H   0  0  0  0  0  0  0  0  0  0  0  0
  141.7324   79.7819  220.5086 H   0  0  0  0  0  0  0  0  0  0  0  0
  140.3198   76.2411  223.1762 H   0  0  0  0  0  0  0  0  0  0  0  0
  141.3985   75.3379  222.3133 H   0  0  0  0  0  0  0  0  0  0  0  0
  141.0189   72.8695  224.7547 H   0  0  0  0  0  0  0  0  0  0  0  0
  141.8662   71.9118  226.8787 H   0  0  0  0  0  0  0  0  0  0  0  0
  141.8464   70.1428  228.5211 H   0  0  0  0  0  0  0  0  0  0  0  0
  139.2098   66.7936  227.8982 H   0  0  0  0  0  0  0  0  0  0  0  0
  138.4151   67.7927  225.8120 H   0  0  0  0  0  0  0  0  0  0  0  0
  1  2  2  0
  2  3  1  0
  3  4  1  0
  4  5  1  0
  5  6  2  0
  5  7  1  0
  7  8  1  0
  8  9  1  0
  9 10  1  0
  9 11  1  0
 11 12  1  0
 12 13  1  0
 13 14  2  0
 13 15  1  0
 15 16  1  0
 16 17  1  0
 17 18  1  0
 18 19  1  0
 19 20  2  0
 20 21  1  0
 21 22  2  0
 22 23  1  0
 23 24  2  0
 18 25  1  0
  2 26  1  0
 26 27  2  0
 27 28  1  0
 28 29  2  0
 29 30  1  0
 30 31  2  0
 31 32  1  0
 31 33  1  0
 33 34  2  0
 34 35  1  0
 35 36  2  0
 12  7  1  0
 25 16  1  0
 36 26  1  0
 24 19  1  0
 35 29  1  0
  3 37  1  0
  4 38  1  0
  4 39  1  0
  8 40  1  0
  8 41  1  0
  9 42  1  1
 10 43  1  0
 11 44  1  0
 11 45  1  0
 12 46  1  6
 15 47  1  0
 16 48  1  6
 17 49  1  0
 17 50  1  0
 18 51  1  6
 20 52  1  0
 21 53  1  0
 22 54  1  0
 23 55  1  0
 24 56  1  0
 25 57  1  0
 25 58  1  0
 27 59  1  0
 28 60  1  0
 30 61  1  0
 33 62  1  0
 34 63  1  0
M  END
>  <smiles>  (26) 
O=C(NCC(=O)N1C[C@H](O)C[C@H]1C(=O)N[C@H]1C[C@@H](c2ccccc2)C1)c1ccc2cc(F)ccc2n1

>  <score_type>  (26) 
oracle

>  <origin>  (26) 
autodockgpu

>  <m_score__min__energy>  (26) 
-10.06

>  <m_primary>  (26) 
energy

>  <rmsd>  (26) 
4.660882317277758

>  <m_score__min__rmsd>  (26) 
4.660882317277758

>  <meeko>  (26) 
{"free_energy": -8.2, "intermolecular_energy": -10.59, "internal_energy": -3.09, "cluster_size": 4, "cluster_id": 5, "rank_in_cluster": 2}

>  <energy>  (26) 
-8.07

>  <cluster_rmsd>  (26) 
0.95

>  <cluster>  (26) 
6

$$$$

     RDKit          3D

 63 67  0  0  0  0  0  0  0  0999 V2000
  140.1660   73.6740  222.3400 O   0  0  0  0  0  0  0  0  0  0  0  0
  140.4040   72.4300  222.2390 C   0  0  0  0  0  0  0  0  0  0  0  0
  140.8680   71.8400  221.0240 N   0  0  0  0  0  0  0  0  0  0  0  0
  141.0980   72.6130  219.8610 C   0  0  0  0  0  0  0  0  0  0  0  0
  142.0590   73.7020  219.8900 C   0  0  0  0  0  0  0  0  0  0  0  0
  142.8490   73.6830  220.9290 O   0  0  0  0  0  0  0  0  0  0  0  0
  142.2470   74.7610  218.9690 N   0  0  0  0  0  0  0  0  0  0  0  0
  141.8670   74.8790  217.5700 C   0  0  0  0  0  0  0  0  0  0  0  0
  141.7360   76.4130  217.3820 C   0  0  2  0  0  0  0  0  0  0  0  0
  141.7480   76.7610  216.0470 O   0  0  0  0  0  0  0  0  0  0  0  0
  143.0000   76.8130  218.1250 C   0  0  0  0  0  0  0  0  0  0  0  0
  142.9250   76.0030  219.3790 C   0  0  1  0  0  0  0  0  0  0  0  0
  142.1160   76.7790  220.3530 C   0  0  0  0  0  0  0  0  0  0  0  0
  142.0150   78.0110  220.1630 O   0  0  0  0  0  0  0  0  0  0  0  0
  141.4600   76.2220  221.4670 N   0  0  0  0  0  0  0  0  0  0  0  0
  140.7110   77.0900  222.3330 C   0  0  1  0  0  0  0  0  0  0  0  0
  141.4400   78.3320  222.8280 C   0  0  0  0  0  0  0  0  0  0  0  0
  140.0910   79.0220  222.7720 C   0  0  1  0  0  0  0  0  0  0  0  0
  140.1090   80.4310  222.3660 C   0  0  0  0  0  0  0  0  0  0  0  0
  138.9210   81.1690  222.3130 C   0  0  0  0  0  0  0  0  0  0  0  0
  138.9730   82.4940  221.9300 C   0  0  0  0  0  0  0  0  0  0  0  0
  140.1750   83.0850  221.6020 C   0  0  0  0  0  0  0  0  0  0  0  0
  141.3730   82.3780  221.6450 C   0  0  0  0  0  0  0  0  0  0  0  0
  141.2910   81.0570  222.0320 C   0  0  0  0  0  0  0  0  0  0  0  0
  139.7590   78.0490  221.6300 C   0  0  0  0  0  0  0  0  0  0  0  0
  140.1970   71.5580  223.4100 C   0  0  0  0  0  0  0  0  0  0  0  0
  139.4930   70.3880  223.3280 C   0  0  0  0  0  0  0  0  0  0  0  0
  139.2940   69.5600  224.4290 C   0  0  0  0  0  0  0  0  0  0  0  0
  139.8250   69.9250  225.6480 C   0  0  0  0  0  0  0  0  0  0  0  0
  139.6370   69.1080  226.7550 C   0  0  0  0  0  0  0  0  0  0  0  0
  140.1800   69.4980  227.9630 C   0  0  0  0  0  0  0  0  0  0  0  0
  140.0390   68.7580  229.0870 F   0  0  0  0  0  0  0  0  0  0  0  0
  140.8950   70.6890  228.0400 C   0  0  0  0  0  0  0  0  0  0  0  0
  141.0640   71.4680  226.9360 C   0  0  0  0  0  0  0  0  0  0  0  0
  140.5340   71.1090  225.7140 C   0  0  0  0  0  0  0  0  0  0  0  0
  140.7030   71.8840  224.6220 N   0  0  0  0  0  0  0  0  0  0  0  0
  141.0400   70.7920  221.0070 H   0  0  0  0  0  0  0  0  0  0  0  0
  141.4313   71.9164  219.0777 H   0  0  0  0  0  0  0  0  0  0  0  0
  140.1382   73.1274  219.7059 H   0  0  0  0  0  0  0  0  0  0  0  0
  142.6438   74.4633  216.9113 H   0  0  0  0  0  0  0  0  0  0  0  0
  140.9489   74.3279  217.3185 H   0  0  0  0  0  0  0  0  0  0  0  0
  140.8102   76.8871  217.7399 H   0  0  0  0  0  0  0  0  0  0  0  0
  142.2790   76.0450  215.5880 H   0  0  0  0  0  0  0  0  0  0  0  0
  143.8979   76.5580  217.5430 H   0  0  0  0  0  0  0  0  0  0  0  0
  143.0684   77.8949  218.3118 H   0  0  0  0  0  0  0  0  0  0  0  0
  143.8945   75.7782  219.8475 H   0  0  0  0  0  0  0  0  0  0  0  0
  141.5220   75.2010  221.6480 H   0  0  0  0  0  0  0  0  0  0  0  0
  140.3617   76.3065  223.0216 H   0  0  0  0  0  0  0  0  0  0  0  0
  142.1952   78.7332  222.1361 H   0  0  0  0  0  0  0  0  0  0  0  0
  142.0635   78.3282  223.7342 H   0  0  0  0  0  0  0  0  0  0  0  0
  139.4651   79.1383  223.6691 H   0  0  0  0  0  0  0  0  0  0  0  0
  137.9604   80.7002  222.5727 H   0  0  0  0  0  0  0  0  0  0  0  0
  138.0461   83.0847  221.8859 H   0  0  0  0  0  0  0  0  0  0  0  0
  140.1872   84.1423  221.2986 H   0  0  0  0  0  0  0  0  0  0  0  0
  142.3331   82.8474  221.3845 H   0  0  0  0  0  0  0  0  0  0  0  0
  142.2203   80.4701  222.0767 H   0  0  0  0  0  0  0  0  0  0  0  0
  140.0803   78.3761  220.6301 H   0  0  0  0  0  0  0  0  0  0  0  0
  138.7282   77.7752  221.3610 H   0  0  0  0  0  0  0  0  0  0  0  0
  139.0691   70.0910  222.3574 H   0  0  0  0  0  0  0  0  0  0  0  0
  138.7207   68.6267  224.3279 H   0  0  0  0  0  0  0  0  0  0  0  0
  139.0678   68.1704  226.6713 H   0  0  0  0  0  0  0  0  0  0  0  0
  141.3276   71.0041  229.0010 H   0  0  0  0  0  0  0  0  0  0  0  0
  141.6356   72.4040  227.0204 H   0  0  0  0  0  0  0  0  0  0  0  0
  1  2  2  0
  2  3  1  0
  3  4  1  0
  4  5  1  0
  5  6  2  0
  5  7  1  0
  7  8  1  0
  8  9  1  0
  9 10  1  0
  9 11  1  0
 11 12  1  0
 12 13  1  0
 13 14  2  0
 13 15  1  0
 15 16  1  0
 16 17  1  0
 17 18  1  0
 18 19  1  0
 19 20  2  0
 20 21  1  0
 21 22  2  0
 22 23  1  0
 23 24  2  0
 18 25  1  0
  2 26  1  0
 26 27  2  0
 27 28  1  0
 28 29  2  0
 29 30  1  0
 30 31  2  0
 31 32  1  0
 31 33  1  0
 33 34  2  0
 34 35  1  0
 35 36  2  0
 12  7  1  0
 25 16  1  0
 36 26  1  0
 24 19  1  0
 35 29  1  0
  3 37  1  0
  4 38  1  0
  4 39  1  0
  8 40  1  0
  8 41  1  0
  9 42  1  1
 10 43  1  0
 11 44  1  0
 11 45  1  0
 12 46  1  1
 15 47  1  0
 16 48  1  1
 17 49  1  0
 17 50  1  0
 18 51  1  1
 20 52  1  0
 21 53  1  0
 22 54  1  0
 23 55  1  0
 24 56  1  0
 25 57  1  0
 25 58  1  0
 27 59  1  0
 28 60  1  0
 30 61  1  0
 33 62  1  0
 34 63  1  0
M  END
>  <smiles>  (27) 
O=C(NCC(=O)N1C[C@H](O)C[C@H]1C(=O)N[C@H]1C[C@@H](c2ccccc2)C1)c1ccc2cc(F)ccc2n1

>  <score_type>  (27) 
oracle

>  <origin>  (27) 
autodockgpu

>  <m_score__min__energy>  (27) 
-10.06

>  <m_primary>  (27) 
energy

>  <rmsd>  (27) 
2.50134370923831

>  <m_score__min__rmsd>  (27) 
2.50134370923831

>  <meeko>  (27) 
{"free_energy": -8.18, "intermolecular_energy": -10.57, "internal_energy": -3.06, "cluster_size": 4, "cluster_id": 2, "rank_in_cluster": 2}

>  <energy>  (27) 
-7.39

>  <cluster_rmsd>  (27) 
1.5

>  <cluster>  (27) 
6

$$$$

     RDKit          3D

 63 67  0  0  0  0  0  0  0  0999 V2000
  136.4910   73.5520  223.0840 O   0  0  0  0  0  0  0  0  0  0  0  0
  136.0500   74.7070  223.3810 C   0  0  0  0  0  0  0  0  0  0  0  0
  136.4800   75.8840  222.6980 N   0  0  0  0  0  0  0  0  0  0  0  0
  137.4190   75.8310  221.6400 C   0  0  0  0  0  0  0  0  0  0  0  0
  138.8270   76.0710  221.9040 C   0  0  0  0  0  0  0  0  0  0  0  0
  139.0680   76.5410  223.0980 O   0  0  0  0  0  0  0  0  0  0  0  0
  139.9470   75.8740  221.0610 N   0  0  0  0  0  0  0  0  0  0  0  0
  141.1740   76.6420  220.9220 C   0  0  0  0  0  0  0  0  0  0  0  0
  142.1810   75.5820  220.4040 C   0  0  2  0  0  0  0  0  0  0  0  0
  143.2990   76.1740  219.8540 O   0  0  0  0  0  0  0  0  0  0  0  0
  141.2710   74.9300  219.3750 C   0  0  0  0  0  0  0  0  0  0  0  0
  139.9950   74.7350  220.1270 C   0  0  1  0  0  0  0  0  0  0  0  0
  140.1030   73.4390  220.8430 C   0  0  0  0  0  0  0  0  0  0  0  0
  141.0320   72.6720  220.5050 O   0  0  0  0  0  0  0  0  0  0  0  0
  139.2350   73.0200  221.8690 N   0  0  0  0  0  0  0  0  0  0  0  0
  139.4510   71.7360  222.4750 C   0  0  1  0  0  0  0  0  0  0  0  0
  140.7030   71.6030  223.3330 C   0  0  0  0  0  0  0  0  0  0  0  0
  139.8880   70.6580  224.1950 C   0  0  1  0  0  0  0  0  0  0  0  0
  140.1560   70.7160  225.6360 C   0  0  0  0  0  0  0  0  0  0  0  0
  139.7930   69.6500  226.4680 C   0  0  0  0  0  0  0  0  0  0  0  0
  140.0620   69.7350  227.8190 C   0  0  0  0  0  0  0  0  0  0  0  0
  140.6780   70.8500  228.3460 C   0  0  0  0  0  0  0  0  0  0  0  0
  141.0500   71.9260  227.5460 C   0  0  0  0  0  0  0  0  0  0  0  0
  140.7700   71.8140  226.2000 C   0  0  0  0  0  0  0  0  0  0  0  0
  138.6660   71.4790  223.7560 C   0  0  0  0  0  0  0  0  0  0  0  0
  135.0610   74.8440  224.4670 C   0  0  0  0  0  0  0  0  0  0  0  0
  134.4830   73.7580  225.0630 C   0  0  0  0  0  0  0  0  0  0  0  0
  133.5500   73.8800  226.0880 C   0  0  0  0  0  0  0  0  0  0  0  0
  133.1920   75.1390  226.5240 C   0  0  0  0  0  0  0  0  0  0  0  0
  132.2630   75.2770  227.5480 C   0  0  0  0  0  0  0  0  0  0  0  0
  131.9250   76.5490  227.9650 C   0  0  0  0  0  0  0  0  0  0  0  0
  131.0280   76.7670  228.9530 F   0  0  0  0  0  0  0  0  0  0  0  0
  132.5170   77.6500  227.3540 C   0  0  0  0  0  0  0  0  0  0  0  0
  133.4250   77.4820  226.3530 C   0  0  0  0  0  0  0  0  0  0  0  0
  133.7860   76.2260  225.9120 C   0  0  0  0  0  0  0  0  0  0  0  0
  134.6870   76.0630  224.9200 N   0  0  0  0  0  0  0  0  0  0  0  0
  136.0760   76.8190  223.0030 H   0  0  0  0  0  0  0  0  0  0  0  0
  137.3456   74.8252  221.2007 H   0  0  0  0  0  0  0  0  0  0  0  0
  137.1326   76.6829  221.0058 H   0  0  0  0  0  0  0  0  0  0  0  0
  141.0504   77.4598  220.1968 H   0  0  0  0  0  0  0  0  0  0  0  0
  141.4932   77.1287  221.8554 H   0  0  0  0  0  0  0  0  0  0  0  0
  142.6185   74.8978  221.1460 H   0  0  0  0  0  0  0  0  0  0  0  0
  143.4790   76.9830  220.4170 H   0  0  0  0  0  0  0  0  0  0  0  0
  141.1211   75.5885  218.5067 H   0  0  0  0  0  0  0  0  0  0  0  0
  141.6801   73.9939  218.9671 H   0  0  0  0  0  0  0  0  0  0  0  0
  139.0879   74.7042  219.5056 H   0  0  0  0  0  0  0  0  0  0  0  0
  138.4570   73.6360  222.1740 H   0  0  0  0  0  0  0  0  0  0  0  0
  139.3054   71.1417  221.5609 H   0  0  0  0  0  0  0  0  0  0  0  0
  141.0227   72.5287  223.8338 H   0  0  0  0  0  0  0  0  0  0  0  0
  141.6800   71.3234  222.9119 H   0  0  0  0  0  0  0  0  0  0  0  0
  139.9567   69.5664  224.0781 H   0  0  0  0  0  0  0  0  0  0  0  0
  139.3011   68.7587  226.0514 H   0  0  0  0  0  0  0  0  0  0  0  0
  139.7817   68.9038  228.4827 H   0  0  0  0  0  0  0  0  0  0  0  0
  140.8806   70.8901  229.4264 H   0  0  0  0  0  0  0  0  0  0  0  0
  141.5406   72.8173  227.9642 H   0  0  0  0  0  0  0  0  0  0  0  0
  141.0524   72.6473  225.5398 H   0  0  0  0  0  0  0  0  0  0  0  0
  138.4608   72.3720  224.3646 H   0  0  0  0  0  0  0  0  0  0  0  0
  137.6436   71.0732  223.7573 H   0  0  0  0  0  0  0  0  0  0  0  0
  134.7656   72.7518  224.7200 H   0  0  0  0  0  0  0  0  0  0  0  0
  133.1037   72.9843  226.5447 H   0  0  0  0  0  0  0  0  0  0  0  0
  131.8069   74.3922  228.0161 H   0  0  0  0  0  0  0  0  0  0  0  0
  132.2492   78.6651  227.6824 H   0  0  0  0  0  0  0  0  0  0  0  0
  133.8806   78.3676  225.8859 H   0  0  0  0  0  0  0  0  0  0  0  0
  1  2  2  0
  2  3  1  0
  3  4  1  0
  4  5  1  0
  5  6  2  0
  5  7  1  0
  7  8  1  0
  8  9  1  0
  9 10  1  0
  9 11  1  0
 11 12  1  0
 12 13  1  0
 13 14  2  0
 13 15  1  0
 15 16  1  0
 16 17  1  0
 17 18  1  0
 18 19  1  0
 19 20  2  0
 20 21  1  0
 21 22  2  0
 22 23  1  0
 23 24  2  0
 18 25  1  0
  2 26  1  0
 26 27  2  0
 27 28  1  0
 28 29  2  0
 29 30  1  0
 30 31  2  0
 31 32  1  0
 31 33  1  0
 33 34  2  0
 34 35  1  0
 35 36  2  0
 12  7  1  0
 25 16  1  0
 36 26  1  0
 24 19  1  0
 35 29  1  0
  3 37  1  0
  4 38  1  0
  4 39  1  0
  8 40  1  0
  8 41  1  0
  9 42  1  1
 10 43  1  0
 11 44  1  0
 11 45  1  0
 12 46  1  6
 15 47  1  0
 16 48  1  6
 17 49  1  0
 17 50  1  0
 18 51  1  6
 20 52  1  0
 21 53  1  0
 22 54  1  0
 23 55  1  0
 24 56  1  0
 25 57  1  0
 25 58  1  0
 27 59  1  0
 28 60  1  0
 30 61  1  0
 33 62  1  0
 34 63  1  0
M  END
>  <smiles>  (28) 
O=C(NCC(=O)N1C[C@H](O)C[C@H]1C(=O)N[C@H]1C[C@@H](c2ccccc2)C1)c1ccc2cc(F)ccc2n1

>  <score_type>  (28) 
oracle

>  <origin>  (28) 
autodockgpu

>  <m_score__min__energy>  (28) 
-10.06

>  <m_primary>  (28) 
energy

>  <rmsd>  (28) 
8.07475134419834

>  <m_score__min__rmsd>  (28) 
8.07475134419834

>  <meeko>  (28) 
{"free_energy": -7.99, "intermolecular_energy": -10.37, "internal_energy": -3.07, "cluster_size": 1, "cluster_id": 8, "rank_in_cluster": 1}

>  <energy>  (28) 
-7.37

>  <cluster_rmsd>  (28) 
0.84

>  <cluster>  (28) 
6

$$$$

     RDKit          3D

 63 67  0  0  0  0  0  0  0  0999 V2000
  138.9350   75.6510  220.6950 O   0  0  0  0  0  0  0  0  0  0  0  0
  139.8670   75.7700  221.5510 C   0  0  0  0  0  0  0  0  0  0  0  0
  140.6780   74.6660  221.9520 N   0  0  0  0  0  0  0  0  0  0  0  0
  140.4950   73.3710  221.4090 C   0  0  0  0  0  0  0  0  0  0  0  0
  141.2880   72.9410  220.2700 C   0  0  0  0  0  0  0  0  0  0  0  0
  140.6480   72.1530  219.4480 O   0  0  0  0  0  0  0  0  0  0  0  0
  142.6290   73.2480  219.9410 N   0  0  0  0  0  0  0  0  0  0  0  0
  143.6570   72.4400  219.3020 C   0  0  0  0  0  0  0  0  0  0  0  0
  144.5730   73.5090  218.6510 C   0  0  2  0  0  0  0  0  0  0  0  0
  145.8030   72.9820  218.3140 O   0  0  0  0  0  0  0  0  0  0  0  0
  144.6260   74.4690  219.8290 C   0  0  0  0  0  0  0  0  0  0  0  0
  143.1940   74.5750  220.2420 C   0  0  1  0  0  0  0  0  0  0  0  0
  142.5770   75.6400  219.4110 C   0  0  0  0  0  0  0  0  0  0  0  0
  142.1080   75.3030  218.3010 O   0  0  0  0  0  0  0  0  0  0  0  0
  142.4850   76.9930  219.7880 N   0  0  0  0  0  0  0  0  0  0  0  0
  141.8640   77.9210  218.8850 C   0  0  1  0  0  0  0  0  0  0  0  0
  140.6760   78.6990  219.4360 C   0  0  0  0  0  0  0  0  0  0  0  0
  141.1490   79.8430  218.5600 C   0  0  1  0  0  0  0  0  0  0  0  0
  140.9710   81.1880  219.1150 C   0  0  0  0  0  0  0  0  0  0  0  0
  141.2340   81.4380  220.4670 C   0  0  0  0  0  0  0  0  0  0  0  0
  141.0600   82.7170  220.9580 C   0  0  0  0  0  0  0  0  0  0  0  0
  140.6310   83.7350  220.1330 C   0  0  0  0  0  0  0  0  0  0  0  0
  140.3610   83.5180  218.7850 C   0  0  0  0  0  0  0  0  0  0  0  0
  140.5450   82.2320  218.3220 C   0  0  0  0  0  0  0  0  0  0  0  0
  142.5610   79.2700  218.7550 C   0  0  0  0  0  0  0  0  0  0  0  0
  140.1270   77.0900  222.1570 C   0  0  0  0  0  0  0  0  0  0  0  0
  139.1190   77.8730  222.6480 C   0  0  0  0  0  0  0  0  0  0  0  0
  139.3570   79.1180  223.2220 C   0  0  0  0  0  0  0  0  0  0  0  0
  140.6520   79.5850  223.3020 C   0  0  0  0  0  0  0  0  0  0  0  0
  140.9050   80.8250  223.8730 C   0  0  0  0  0  0  0  0  0  0  0  0
  142.2110   81.2670  223.9400 C   0  0  0  0  0  0  0  0  0  0  0  0
  142.5390   82.4630  224.4790 F   0  0  0  0  0  0  0  0  0  0  0  0
  143.2320   80.4650  223.4380 C   0  0  0  0  0  0  0  0  0  0  0  0
  142.9520   79.2530  222.8850 C   0  0  0  0  0  0  0  0  0  0  0  0
  141.6590   78.7820  222.8010 C   0  0  0  0  0  0  0  0  0  0  0  0
  141.3850   77.5790  222.2520 N   0  0  0  0  0  0  0  0  0  0  0  0
  141.4350   74.8340  222.6780 H   0  0  0  0  0  0  0  0  0  0  0  0
  140.6921   72.6557  222.2211 H   0  0  0  0  0  0  0  0  0  0  0  0
  139.4727   73.4090  221.0047 H   0  0  0  0  0  0  0  0  0  0  0  0
  144.2089   71.8419  220.0421 H   0  0  0  0  0  0  0  0  0  0  0  0
  143.2557   71.7113  218.5823 H   0  0  0  0  0  0  0  0  0  0  0  0
  144.2372   73.9490  217.7004 H   0  0  0  0  0  0  0  0  0  0  0  0
  146.4240   73.7650  218.2550 H   0  0  0  0  0  0  0  0  0  0  0  0
  145.2431   74.0616  220.6434 H   0  0  0  0  0  0  0  0  0  0  0  0
  145.0770   75.4400  219.5765 H   0  0  0  0  0  0  0  0  0  0  0  0
  143.0320   74.8335  221.2988 H   0  0  0  0  0  0  0  0  0  0  0  0
  142.8620   77.3020  220.7050 H   0  0  0  0  0  0  0  0  0  0  0  0
  141.7616   77.2224  218.0415 H   0  0  0  0  0  0  0  0  0  0  0  0
  140.7125   78.8971  220.5174 H   0  0  0  0  0  0  0  0  0  0  0  0
  139.6472   78.3116  219.3960 H   0  0  0  0  0  0  0  0  0  0  0  0
  140.7058   80.0344  217.5716 H   0  0  0  0  0  0  0  0  0  0  0  0
  141.5742   80.6277  221.1285 H   0  0  0  0  0  0  0  0  0  0  0  0
  141.2658   82.9257  222.0182 H   0  0  0  0  0  0  0  0  0  0  0  0
  140.4988   84.7440  220.5507 H   0  0  0  0  0  0  0  0  0  0  0  0
  140.0192   84.3285  218.1245 H   0  0  0  0  0  0  0  0  0  0  0  0
  140.3404   82.0280  217.2606 H   0  0  0  0  0  0  0  0  0  0  0  0
  143.0834   79.6143  219.6597 H   0  0  0  0  0  0  0  0  0  0  0  0
  143.3811   79.4512  218.0447 H   0  0  0  0  0  0  0  0  0  0  0  0
  138.0839   77.5058  222.5870 H   0  0  0  0  0  0  0  0  0  0  0  0
  138.5224   79.7222  223.6072 H   0  0  0  0  0  0  0  0  0  0  0  0
  140.0824   81.4420  224.2636 H   0  0  0  0  0  0  0  0  0  0  0  0
  144.2741   80.8136  223.4886 H   0  0  0  0  0  0  0  0  0  0  0  0
  143.7756   78.6358  222.4966 H   0  0  0  0  0  0  0  0  0  0  0  0
  1  2  2  0
  2  3  1  0
  3  4  1  0
  4  5  1  0
  5  6  2  0
  5  7  1  0
  7  8  1  0
  8  9  1  0
  9 10  1  0
  9 11  1  0
 11 12  1  0
 12 13  1  0
 13 14  2  0
 13 15  1  0
 15 16  1  0
 16 17  1  0
 17 18  1  0
 18 19  1  0
 19 20  2  0
 20 21  1  0
 21 22  2  0
 22 23  1  0
 23 24  2  0
 18 25  1  0
  2 26  1  0
 26 27  2  0
 27 28  1  0
 28 29  2  0
 29 30  1  0
 30 31  2  0
 31 32  1  0
 31 33  1  0
 33 34  2  0
 34 35  1  0
 35 36  2  0
 12  7  1  0
 25 16  1  0
 36 26  1  0
 24 19  1  0
 35 29  1  0
  3 37  1  0
  4 38  1  0
  4 39  1  0
  8 40  1  0
  8 41  1  0
  9 42  1  6
 10 43  1  0
 11 44  1  0
 11 45  1  0
 12 46  1  1
 15 47  1  0
 16 48  1  6
 17 49  1  0
 17 50  1  0
 18 51  1  6
 20 52  1  0
 21 53  1  0
 22 54  1  0
 23 55  1  0
 24 56  1  0
 25 57  1  0
 25 58  1  0
 27 59  1  0
 28 60  1  0
 30 61  1  0
 33 62  1  0
 34 63  1  0
M  END
>  <smiles>  (29) 
O=C(NCC(=O)N1C[C@H](O)C[C@H]1C(=O)N[C@H]1C[C@@H](c2ccccc2)C1)c1ccc2cc(F)ccc2n1

>  <score_type>  (29) 
oracle

>  <origin>  (29) 
autodockgpu

>  <m_score__min__energy>  (29) 
-10.06

>  <m_primary>  (29) 
energy

>  <rmsd>  (29) 
6.7586616194604066

>  <m_score__min__rmsd>  (29) 
6.7586616194604066

>  <meeko>  (29) 
{"free_energy": -7.28, "intermolecular_energy": -9.67, "internal_energy": -4.37, "cluster_size": 13, "cluster_id": 6, "rank_in_cluster": 8}

>  <energy>  (29) 
-7.3

>  <cluster_rmsd>  (29) 
1.7

>  <cluster>  (29) 
6

$$$$

     RDKit          3D

 63 67  0  0  0  0  0  0  0  0999 V2000
  139.9890   73.0290  222.8820 O   0  0  0  0  0  0  0  0  0  0  0  0
  140.1800   71.7780  222.9990 C   0  0  0  0  0  0  0  0  0  0  0  0
  140.1500   70.8960  221.8770 N   0  0  0  0  0  0  0  0  0  0  0  0
  139.9150   71.3680  220.5630 C   0  0  0  0  0  0  0  0  0  0  0  0
  141.0050   71.4320  219.6070 C   0  0  0  0  0  0  0  0  0  0  0  0
  140.6650   71.0920  218.3930 O   0  0  0  0  0  0  0  0  0  0  0  0
  142.3570   71.7990  219.8070 N   0  0  0  0  0  0  0  0  0  0  0  0
  143.5660   71.3820  219.1120 C   0  0  0  0  0  0  0  0  0  0  0  0
  144.5170   72.5870  219.3320 C   0  0  2  0  0  0  0  0  0  0  0  0
  145.8290   72.2470  219.0770 O   0  0  0  0  0  0  0  0  0  0  0  0
  144.2210   72.8090  220.8060 C   0  0  0  0  0  0  0  0  0  0  0  0
  142.7290   72.7580  220.8630 C   0  0  1  0  0  0  0  0  0  0  0  0
  142.2330   74.1260  220.5660 C   0  0  0  0  0  0  0  0  0  0  0  0
  142.9020   74.8190  219.7680 O   0  0  0  0  0  0  0  0  0  0  0  0
  141.0680   74.6890  221.1190 N   0  0  0  0  0  0  0  0  0  0  0  0
  140.7040   76.0280  220.7480 C   0  0  1  0  0  0  0  0  0  0  0  0
  140.0510   76.8700  221.8360 C   0  0  0  0  0  0  0  0  0  0  0  0
  140.7600   78.0520  221.2050 C   0  0  1  0  0  0  0  0  0  0  0  0
  141.2390   79.0810  222.1340 C   0  0  0  0  0  0  0  0  0  0  0  0
  140.3320   79.9110  222.8020 C   0  0  0  0  0  0  0  0  0  0  0  0
  140.8160   80.8670  223.6730 C   0  0  0  0  0  0  0  0  0  0  0  0
  142.1720   81.0070  223.8820 C   0  0  0  0  0  0  0  0  0  0  0  0
  143.0990   80.1980  223.2320 C   0  0  0  0  0  0  0  0  0  0  0  0
  142.5880   79.2510  222.3690 C   0  0  0  0  0  0  0  0  0  0  0  0
  141.8390   77.0440  220.7810 C   0  0  0  0  0  0  0  0  0  0  0  0
  140.4420   71.2090  224.3350 C   0  0  0  0  0  0  0  0  0  0  0  0
  140.7970   71.9910  225.3990 C   0  0  0  0  0  0  0  0  0  0  0  0
  141.0440   71.4610  226.6620 C   0  0  0  0  0  0  0  0  0  0  0  0
  140.9270   70.1010  226.8540 C   0  0  0  0  0  0  0  0  0  0  0  0
  141.1690   69.5580  228.1090 C   0  0  0  0  0  0  0  0  0  0  0  0
  141.0430   68.1930  228.2740 C   0  0  0  0  0  0  0  0  0  0  0  0
  141.2640   67.5880  229.4630 F   0  0  0  0  0  0  0  0  0  0  0  0
  140.6810   67.4030  227.1870 C   0  0  0  0  0  0  0  0  0  0  0  0
  140.4500   67.9660  225.9680 C   0  0  0  0  0  0  0  0  0  0  0  0
  140.5670   69.3250  225.7690 C   0  0  0  0  0  0  0  0  0  0  0  0
  140.3360   69.8790  224.5600 N   0  0  0  0  0  0  0  0  0  0  0  0
  140.3100   69.8590  222.0470 H   0  0  0  0  0  0  0  0  0  0  0  0
  139.1463   70.7149  220.1242 H   0  0  0  0  0  0  0  0  0  0  0  0
  139.6537   72.4252  220.7181 H   0  0  0  0  0  0  0  0  0  0  0  0
  143.9806   70.4635  219.5531 H   0  0  0  0  0  0  0  0  0  0  0  0
  143.4001   71.1443  218.0509 H   0  0  0  0  0  0  0  0  0  0  0  0
  144.3733   73.4666  218.6873 H   0  0  0  0  0  0  0  0  0  0  0  0
  145.7890   71.4060  218.5350 H   0  0  0  0  0  0  0  0  0  0  0  0
  144.6672   72.0147  221.4224 H   0  0  0  0  0  0  0  0  0  0  0  0
  144.6367   73.7508  221.1936 H   0  0  0  0  0  0  0  0  0  0  0  0
  142.3104   72.4486  221.8320 H   0  0  0  0  0  0  0  0  0  0  0  0
  140.4890   74.1370  221.7820 H   0  0  0  0  0  0  0  0  0  0  0  0
  140.1737   75.7603  219.8222 H   0  0  0  0  0  0  0  0  0  0  0  0
  140.3698   76.6313  222.8613 H   0  0  0  0  0  0  0  0  0  0  0  0
  138.9661   76.8611  222.0176 H   0  0  0  0  0  0  0  0  0  0  0  0
  140.2478   78.7222  220.4989 H   0  0  0  0  0  0  0  0  0  0  0  0
  139.2499   79.8036  222.6359 H   0  0  0  0  0  0  0  0  0  0  0  0
  140.1126   81.5238  224.2058 H   0  0  0  0  0  0  0  0  0  0  0  0
  142.5299   81.7779  224.5804 H   0  0  0  0  0  0  0  0  0  0  0  0
  144.1809   80.3078  223.3974 H   0  0  0  0  0  0  0  0  0  0  0  0
  143.2947   78.5954  221.8391 H   0  0  0  0  0  0  0  0  0  0  0  0
  142.6175   76.8497  221.5335 H   0  0  0  0  0  0  0  0  0  0  0  0
  142.5117   77.2144  219.9275 H   0  0  0  0  0  0  0  0  0  0  0  0
  140.8906   73.0770  225.2516 H   0  0  0  0  0  0  0  0  0  0  0  0
  141.3289   72.1189  227.4963 H   0  0  0  0  0  0  0  0  0  0  0  0
  141.4551   70.2018  228.9538 H   0  0  0  0  0  0  0  0  0  0  0  0
  140.5805   66.3149  227.3130 H   0  0  0  0  0  0  0  0  0  0  0  0
  140.1637   67.3216  225.1237 H   0  0  0  0  0  0  0  0  0  0  0  0
  1  2  2  0
  2  3  1  0
  3  4  1  0
  4  5  1  0
  5  6  2  0
  5  7  1  0
  7  8  1  0
  8  9  1  0
  9 10  1  0
  9 11  1  0
 11 12  1  0
 12 13  1  0
 13 14  2  0
 13 15  1  0
 15 16  1  0
 16 17  1  0
 17 18  1  0
 18 19  1  0
 19 20  2  0
 20 21  1  0
 21 22  2  0
 22 23  1  0
 23 24  2  0
 18 25  1  0
  2 26  1  0
 26 27  2  0
 27 28  1  0
 28 29  2  0
 29 30  1  0
 30 31  2  0
 31 32  1  0
 31 33  1  0
 33 34  2  0
 34 35  1  0
 35 36  2  0
 12  7  1  0
 25 16  1  0
 36 26  1  0
 24 19  1  0
 35 29  1  0
  3 37  1  0
  4 38  1  0
  4 39  1  0
  8 40  1  0
  8 41  1  0
  9 42  1  6
 10 43  1  0
 11 44  1  0
 11 45  1  0
 12 46  1  1
 15 47  1  0
 16 48  1  6
 17 49  1  0
 17 50  1  0
 18 51  1  6
 20 52  1  0
 21 53  1  0
 22 54  1  0
 23 55  1  0
 24 56  1  0
 25 57  1  0
 25 58  1  0
 27 59  1  0
 28 60  1  0
 30 61  1  0
 33 62  1  0
 34 63  1  0
M  END
>  <smiles>  (30) 
O=C(NCC(=O)N1C[C@H](O)C[C@H]1C(=O)N[C@H]1C[C@@H](c2ccccc2)C1)c1ccc2cc(F)ccc2n1

>  <score_type>  (30) 
oracle

>  <origin>  (30) 
autodockgpu

>  <m_score__min__energy>  (30) 
-10.06

>  <m_primary>  (30) 
energy

>  <rmsd>  (30) 
4.156231254867579

>  <m_score__min__rmsd>  (30) 
4.156231254867579

>  <meeko>  (30) 
{"free_energy": -9.28, "intermolecular_energy": -11.66, "internal_energy": -2.75, "cluster_size": 5, "cluster_id": 1, "rank_in_cluster": 3}

>  <energy>  (30) 
-7.28

>  <cluster_rmsd>  (30) 
1.18

>  <cluster>  (30) 
6

$$$$

     RDKit          3D

 63 67  0  0  0  0  0  0  0  0999 V2000
  140.6260   77.3680  218.7460 O   0  0  0  0  0  0  0  0  0  0  0  0
  141.6630   78.0810  218.9270 C   0  0  0  0  0  0  0  0  0  0  0  0
  142.9500   77.6860  218.4520 N   0  0  0  0  0  0  0  0  0  0  0  0
  143.1420   76.4780  217.7390 C   0  0  0  0  0  0  0  0  0  0  0  0
  142.6340   75.2280  218.2760 C   0  0  0  0  0  0  0  0  0  0  0  0
  141.4220   74.9400  217.8870 O   0  0  0  0  0  0  0  0  0  0  0  0
  143.2570   74.3030  219.1480 N   0  0  0  0  0  0  0  0  0  0  0  0
  144.6570   74.1300  219.5030 C   0  0  0  0  0  0  0  0  0  0  0  0
  144.5720   73.4860  220.9120 C   0  0  2  0  0  0  0  0  0  0  0  0
  145.7690   72.9010  221.2720 O   0  0  0  0  0  0  0  0  0  0  0  0
  143.4730   72.4810  220.6060 C   0  0  0  0  0  0  0  0  0  0  0  0
  142.4590   73.3020  219.8780 C   0  0  1  0  0  0  0  0  0  0  0  0
  141.5880   73.9310  220.9040 C   0  0  0  0  0  0  0  0  0  0  0  0
  141.4170   73.3050  221.9740 O   0  0  0  0  0  0  0  0  0  0  0  0
  140.9480   75.1760  220.7530 N   0  0  0  0  0  0  0  0  0  0  0  0
  140.1290   75.6660  221.8260 C   0  0  1  0  0  0  0  0  0  0  0  0
  140.6480   76.8990  222.5550 C   0  0  0  0  0  0  0  0  0  0  0  0
  139.1930   77.2910  222.7170 C   0  0  1  0  0  0  0  0  0  0  0  0
  138.9050   78.7260  222.6400 C   0  0  0  0  0  0  0  0  0  0  0  0
  139.2320   79.5740  223.7060 C   0  0  0  0  0  0  0  0  0  0  0  0
  138.9500   80.9210  223.6000 C   0  0  0  0  0  0  0  0  0  0  0  0
  138.3540   81.4290  222.4650 C   0  0  0  0  0  0  0  0  0  0  0  0
  138.0170   80.6130  221.3900 C   0  0  0  0  0  0  0  0  0  0  0  0
  138.3100   79.2710  221.5220 C   0  0  0  0  0  0  0  0  0  0  0  0
  138.9520   76.5350  221.4020 C   0  0  0  0  0  0  0  0  0  0  0  0
  141.5430   79.3590  219.6530 C   0  0  0  0  0  0  0  0  0  0  0  0
  141.8930   79.4810  220.9690 C   0  0  0  0  0  0  0  0  0  0  0  0
  141.7830   80.6850  221.6600 C   0  0  0  0  0  0  0  0  0  0  0  0
  141.3060   81.7970  220.9990 C   0  0  0  0  0  0  0  0  0  0  0  0
  141.1920   83.0060  221.6740 C   0  0  0  0  0  0  0  0  0  0  0  0
  140.7130   84.1030  220.9880 C   0  0  0  0  0  0  0  0  0  0  0  0
  140.5710   85.3130  221.5750 F   0  0  0  0  0  0  0  0  0  0  0  0
  140.3590   83.9720  219.6480 C   0  0  0  0  0  0  0  0  0  0  0  0
  140.4830   82.7730  219.0130 C   0  0  0  0  0  0  0  0  0  0  0  0
  140.9580   81.6580  219.6690 C   0  0  0  0  0  0  0  0  0  0  0  0
  141.0790   80.4710  219.0360 N   0  0  0  0  0  0  0  0  0  0  0  0
  143.7760   78.3250  218.6450 H   0  0  0  0  0  0  0  0  0  0  0  0
  142.6734   76.6135  216.7531 H   0  0  0  0  0  0  0  0  0  0  0  0
  144.2329   76.3395  217.7664 H   0  0  0  0  0  0  0  0  0  0  0  0
  145.1675   73.4637  218.7921 H   0  0  0  0  0  0  0  0  0  0  0  0
  145.2320   75.0675  219.4845 H   0  0  0  0  0  0  0  0  0  0  0  0
  144.3726   74.1563  221.7611 H   0  0  0  0  0  0  0  0  0  0  0  0
  145.5280   72.0050  221.6490 H   0  0  0  0  0  0  0  0  0  0  0  0
  143.8494   71.6645  219.9722 H   0  0  0  0  0  0  0  0  0  0  0  0
  143.0700   71.9925  221.5054 H   0  0  0  0  0  0  0  0  0  0  0  0
  141.8154   72.7404  219.1850 H   0  0  0  0  0  0  0  0  0  0  0  0
  141.0740   75.7200  219.8770 H   0  0  0  0  0  0  0  0  0  0  0  0
  140.0003   74.6994  222.3351 H   0  0  0  0  0  0  0  0  0  0  0  0
  141.2471   77.5847  221.9379 H   0  0  0  0  0  0  0  0  0  0  0  0
  141.3394   76.8325  223.4079 H   0  0  0  0  0  0  0  0  0  0  0  0
  138.6391   77.0826  223.6443 H   0  0  0  0  0  0  0  0  0  0  0  0
  139.7063   79.1725  224.6137 H   0  0  0  0  0  0  0  0  0  0  0  0
  139.2035   81.5967  224.4301 H   0  0  0  0  0  0  0  0  0  0  0  0
  138.1397   82.5064  222.4082 H   0  0  0  0  0  0  0  0  0  0  0  0
  137.5423   81.0159  220.4832 H   0  0  0  0  0  0  0  0  0  0  0  0
  138.0548   78.5990  220.6894 H   0  0  0  0  0  0  0  0  0  0  0  0
  139.1136   77.1255  220.4881 H   0  0  0  0  0  0  0  0  0  0  0  0
  137.9725   76.1177  221.1256 H   0  0  0  0  0  0  0  0  0  0  0  0
  142.2749   78.5970  221.5007 H   0  0  0  0  0  0  0  0  0  0  0  0
  142.0729   80.7481  222.7193 H   0  0  0  0  0  0  0  0  0  0  0  0
  141.4777   83.0869  222.7332 H   0  0  0  0  0  0  0  0  0  0  0  0
  139.9760   84.8438  219.0973 H   0  0  0  0  0  0  0  0  0  0  0  0
  140.1978   82.6932  217.9536 H   0  0  0  0  0  0  0  0  0  0  0  0
  1  2  2  0
  2  3  1  0
  3  4  1  0
  4  5  1  0
  5  6  2  0
  5  7  1  0
  7  8  1  0
  8  9  1  0
  9 10  1  0
  9 11  1  0
 11 12  1  0
 12 13  1  0
 13 14  2  0
 13 15  1  0
 15 16  1  0
 16 17  1  0
 17 18  1  0
 18 19  1  0
 19 20  2  0
 20 21  1  0
 21 22  2  0
 22 23  1  0
 23 24  2  0
 18 25  1  0
  2 26  1  0
 26 27  2  0
 27 28  1  0
 28 29  2  0
 29 30  1  0
 30 31  2  0
 31 32  1  0
 31 33  1  0
 33 34  2  0
 34 35  1  0
 35 36  2  0
 12  7  1  0
 25 16  1  0
 36 26  1  0
 24 19  1  0
 35 29  1  0
  3 37  1  0
  4 38  1  0
  4 39  1  0
  8 40  1  0
  8 41  1  0
  9 42  1  1
 10 43  1  0
 11 44  1  0
 11 45  1  0
 12 46  1  6
 15 47  1  0
 16 48  1  1
 17 49  1  0
 17 50  1  0
 18 51  1  1
 20 52  1  0
 21 53  1  0
 22 54  1  0
 23 55  1  0
 24 56  1  0
 25 57  1  0
 25 58  1  0
 27 59  1  0
 28 60  1  0
 30 61  1  0
 33 62  1  0
 34 63  1  0
M  END
>  <smiles>  (31) 
O=C(NCC(=O)N1C[C@H](O)C[C@H]1C(=O)N[C@H]1C[C@@H](c2ccccc2)C1)c1ccc2cc(F)ccc2n1

>  <score_type>  (31) 
oracle

>  <origin>  (31) 
autodockgpu

>  <m_score__min__energy>  (31) 
-10.06

>  <m_primary>  (31) 
energy

>  <rmsd>  (31) 
8.959663222975959

>  <m_score__min__rmsd>  (31) 
8.959663222975959

>  <meeko>  (31) 
{"free_energy": -6.31, "intermolecular_energy": -8.7, "internal_energy": -4.97, "cluster_size": 5, "cluster_id": 12, "rank_in_cluster": 5}

>  <energy>  (31) 
-7.14

>  <cluster_rmsd>  (31) 
1.27

>  <cluster>  (31) 
6

$$$$

     RDKit          3D

 63 67  0  0  0  0  0  0  0  0999 V2000
  139.9730   73.2310  222.7110 O   0  0  0  0  0  0  0  0  0  0  0  0
  139.9280   74.0740  221.7600 C   0  0  0  0  0  0  0  0  0  0  0  0
  140.0370   73.6830  220.3910 N   0  0  0  0  0  0  0  0  0  0  0  0
  140.1930   72.3280  220.0130 C   0  0  0  0  0  0  0  0  0  0  0  0
  141.3700   71.5870  220.4310 C   0  0  0  0  0  0  0  0  0  0  0  0
  141.1090   70.3890  220.8790 O   0  0  0  0  0  0  0  0  0  0  0  0
  142.7300   71.9800  220.4240 N   0  0  0  0  0  0  0  0  0  0  0  0
  143.9270   71.2460  220.0440 C   0  0  0  0  0  0  0  0  0  0  0  0
  144.9010   72.3790  219.6250 C   0  0  2  0  0  0  0  0  0  0  0  0
  146.2060   71.9330  219.5850 O   0  0  0  0  0  0  0  0  0  0  0  0
  144.6170   73.3230  220.7820 C   0  0  0  0  0  0  0  0  0  0  0  0
  143.1240   73.3350  220.8490 C   0  0  1  0  0  0  0  0  0  0  0  0
  142.6510   74.3720  219.8960 C   0  0  0  0  0  0  0  0  0  0  0  0
  142.4560   74.0170  218.7120 O   0  0  0  0  0  0  0  0  0  0  0  0
  142.4110   75.7160  220.2350 N   0  0  0  0  0  0  0  0  0  0  0  0
  141.9580   76.6170  219.2120 C   0  0  1  0  0  0  0  0  0  0  0  0
  140.6290   77.3140  219.4730 C   0  0  0  0  0  0  0  0  0  0  0  0
  141.2190   78.4960  218.7280 C   0  0  1  0  0  0  0  0  0  0  0  0
  140.8340   79.8200  219.2260 C   0  0  0  0  0  0  0  0  0  0  0  0
  141.8030   80.7000  219.7230 C   0  0  0  0  0  0  0  0  0  0  0  0
  141.4090   81.9410  220.1810 C   0  0  0  0  0  0  0  0  0  0  0  0
  140.0810   82.3120  220.1530 C   0  0  0  0  0  0  0  0  0  0  0  0
  139.0940   81.4600  219.6660 C   0  0  0  0  0  0  0  0  0  0  0  0
  139.5170   80.2280  219.2140 C   0  0  0  0  0  0  0  0  0  0  0  0
  142.5800   78.0070  219.2450 C   0  0  0  0  0  0  0  0  0  0  0  0
  139.7570   75.5060  222.0720 C   0  0  0  0  0  0  0  0  0  0  0  0
  138.5320   76.1120  222.0440 C   0  0  0  0  0  0  0  0  0  0  0  0
  138.3640   77.4620  222.3380 C   0  0  0  0  0  0  0  0  0  0  0  0
  139.4670   78.2200  222.6700 C   0  0  0  0  0  0  0  0  0  0  0  0
  139.3140   79.5680  222.9680 C   0  0  0  0  0  0  0  0  0  0  0  0
  140.4360   80.3020  223.2980 C   0  0  0  0  0  0  0  0  0  0  0  0
  140.3710   81.6200  223.5980 F   0  0  0  0  0  0  0  0  0  0  0  0
  141.6790   79.6780  223.3240 C   0  0  0  0  0  0  0  0  0  0  0  0
  141.7960   78.3540  223.0280 C   0  0  0  0  0  0  0  0  0  0  0  0
  140.6970   77.5920  222.6940 C   0  0  0  0  0  0  0  0  0  0  0  0
  140.8170   76.2790  222.4020 N   0  0  0  0  0  0  0  0  0  0  0  0
  139.9980   74.4400  219.6470 H   0  0  0  0  0  0  0  0  0  0  0  0
  139.3205   71.7862  220.4071 H   0  0  0  0  0  0  0  0  0  0  0  0
  140.3042   72.3823  218.9200 H   0  0  0  0  0  0  0  0  0  0  0  0
  144.3271   70.6723  220.8930 H   0  0  0  0  0  0  0  0  0  0  0  0
  143.7518   70.5044  219.2507 H   0  0  0  0  0  0  0  0  0  0  0  0
  144.7696   72.8116  218.6222 H   0  0  0  0  0  0  0  0  0  0  0  0
  146.3660   71.4910  220.4700 H   0  0  0  0  0  0  0  0  0  0  0  0
  145.0515   72.9425  221.7182 H   0  0  0  0  0  0  0  0  0  0  0  0
  145.0522   74.3234  220.6414 H   0  0  0  0  0  0  0  0  0  0  0  0
  142.7043   73.5680  221.8387 H   0  0  0  0  0  0  0  0  0  0  0  0
  142.5610   76.0400  221.2110 H   0  0  0  0  0  0  0  0  0  0  0  0
  142.0966   75.9247  218.3685 H   0  0  0  0  0  0  0  0  0  0  0  0
  140.4031   77.4999  220.5334 H   0  0  0  0  0  0  0  0  0  0  0  0
  139.6633   76.8652  219.1974 H   0  0  0  0  0  0  0  0  0  0  0  0
  141.0052   78.6734  217.6637 H   0  0  0  0  0  0  0  0  0  0  0  0
  142.8628   80.4066  219.7481 H   0  0  0  0  0  0  0  0  0  0  0  0
  142.1618   82.6412  220.5723 H   0  0  0  0  0  0  0  0  0  0  0  0
  139.7945   83.3067  220.5251 H   0  0  0  0  0  0  0  0  0  0  0  0
  138.0341   81.7536  219.6430 H   0  0  0  0  0  0  0  0  0  0  0  0
  138.7613   79.5315  218.8218 H   0  0  0  0  0  0  0  0  0  0  0  0
  142.8568   78.3705  220.2456 H   0  0  0  0  0  0  0  0  0  0  0  0
  143.5290   78.2470  218.7432 H   0  0  0  0  0  0  0  0  0  0  0  0
  137.6486   75.5120  221.7800 H   0  0  0  0  0  0  0  0  0  0  0  0
  137.3638   77.9186  222.3059 H   0  0  0  0  0  0  0  0  0  0  0  0
  138.3209   80.0404  222.9417 H   0  0  0  0  0  0  0  0  0  0  0  0
  142.5754   80.2593  223.5860 H   0  0  0  0  0  0  0  0  0  0  0  0
  142.7893   77.8822  223.0560 H   0  0  0  0  0  0  0  0  0  0  0  0
  1  2  2  0
  2  3  1  0
  3  4  1  0
  4  5  1  0
  5  6  2  0
  5  7  1  0
  7  8  1  0
  8  9  1  0
  9 10  1  0
  9 11  1  0
 11 12  1  0
 12 13  1  0
 13 14  2  0
 13 15  1  0
 15 16  1  0
 16 17  1  0
 17 18  1  0
 18 19  1  0
 19 20  2  0
 20 21  1  0
 21 22  2  0
 22 23  1  0
 23 24  2  0
 18 25  1  0
  2 26  1  0
 26 27  2  0
 27 28  1  0
 28 29  2  0
 29 30  1  0
 30 31  2  0
 31 32  1  0
 31 33  1  0
 33 34  2  0
 34 35  1  0
 35 36  2  0
 12  7  1  0
 25 16  1  0
 36 26  1  0
 24 19  1  0
 35 29  1  0
  3 37  1  0
  4 38  1  0
  4 39  1  0
  8 40  1  0
  8 41  1  0
  9 42  1  6
 10 43  1  0
 11 44  1  0
 11 45  1  0
 12 46  1  1
 15 47  1  0
 16 48  1  6
 17 49  1  0
 17 50  1  0
 18 51  1  6
 20 52  1  0
 21 53  1  0
 22 54  1  0
 23 55  1  0
 24 56  1  0
 25 57  1  0
 25 58  1  0
 27 59  1  0
 28 60  1  0
 30 61  1  0
 33 62  1  0
 34 63  1  0
M  END
>  <smiles>  (32) 
O=C(NCC(=O)N1C[C@H](O)C[C@H]1C(=O)N[C@H]1C[C@@H](c2ccccc2)C1)c1ccc2cc(F)ccc2n1

>  <score_type>  (32) 
oracle

>  <origin>  (32) 
autodockgpu

>  <m_score__min__energy>  (32) 
-10.06

>  <m_primary>  (32) 
energy

>  <rmsd>  (32) 
6.48637403054472

>  <m_score__min__rmsd>  (32) 
6.48637403054472

>  <meeko>  (32) 
{"free_energy": -7.14, "intermolecular_energy": -9.52, "internal_energy": -4.58, "cluster_size": 13, "cluster_id": 6, "rank_in_cluster": 9}

>  <energy>  (32) 
-6.85

>  <cluster_rmsd>  (32) 
1.22

>  <cluster>  (32) 
6

$$$$

     RDKit          3D

 63 67  0  0  0  0  0  0  0  0999 V2000
  138.3420   75.3480  221.5930 O   0  0  0  0  0  0  0  0  0  0  0  0
  139.5420   75.6210  221.9130 C   0  0  0  0  0  0  0  0  0  0  0  0
  140.5910   74.6570  221.8230 N   0  0  0  0  0  0  0  0  0  0  0  0
  140.3550   73.3390  221.3610 C   0  0  0  0  0  0  0  0  0  0  0  0
  141.2260   72.7530  220.3590 C   0  0  0  0  0  0  0  0  0  0  0  0
  140.6480   71.8420  219.6230 O   0  0  0  0  0  0  0  0  0  0  0  0
  142.5880   73.0220  220.0810 N   0  0  0  0  0  0  0  0  0  0  0  0
  143.6040   72.2030  219.4390 C   0  0  0  0  0  0  0  0  0  0  0  0
  144.5780   73.2630  218.8600 C   0  0  2  0  0  0  0  0  0  0  0  0
  145.7980   72.7040  218.5380 O   0  0  0  0  0  0  0  0  0  0  0  0
  144.6290   74.1730  220.0770 C   0  0  0  0  0  0  0  0  0  0  0  0
  143.1900   74.3150  220.4530 C   0  0  1  0  0  0  0  0  0  0  0  0
  142.6370   75.4340  219.6490 C   0  0  0  0  0  0  0  0  0  0  0  0
  142.3010   75.1830  218.4700 O   0  0  0  0  0  0  0  0  0  0  0  0
  142.4660   76.7480  220.1230 N   0  0  0  0  0  0  0  0  0  0  0  0
  141.9210   77.7370  219.2350 C   0  0  1  0  0  0  0  0  0  0  0  0
  140.4480   78.0740  219.4310 C   0  0  0  0  0  0  0  0  0  0  0  0
  140.8210   79.4840  219.0170 C   0  0  1  0  0  0  0  0  0  0  0  0
  140.0960   80.5620  219.6970 C   0  0  0  0  0  0  0  0  0  0  0  0
  138.7090   80.4840  219.8730 C   0  0  0  0  0  0  0  0  0  0  0  0
  138.0570   81.5140  220.5200 C   0  0  0  0  0  0  0  0  0  0  0  0
  138.7570   82.6070  220.9860 C   0  0  0  0  0  0  0  0  0  0  0  0
  140.1340   82.7150  220.8260 C   0  0  0  0  0  0  0  0  0  0  0  0
  140.7600   81.6710  220.1770 C   0  0  0  0  0  0  0  0  0  0  0  0
  142.2010   79.1840  219.6210 C   0  0  0  0  0  0  0  0  0  0  0  0
  139.8710   76.9760  222.3940 C   0  0  0  0  0  0  0  0  0  0  0  0
  138.9040   77.8620  222.7800 C   0  0  0  0  0  0  0  0  0  0  0  0
  139.2070   79.1420  223.2360 C   0  0  0  0  0  0  0  0  0  0  0  0
  140.5270   79.5350  223.3060 C   0  0  0  0  0  0  0  0  0  0  0  0
  140.8450   80.8080  223.7610 C   0  0  0  0  0  0  0  0  0  0  0  0
  142.1740   81.1740  223.8210 C   0  0  0  0  0  0  0  0  0  0  0  0
  142.5650   82.3960  224.2510 F   0  0  0  0  0  0  0  0  0  0  0  0
  143.1530   80.2670  223.4280 C   0  0  0  0  0  0  0  0  0  0  0  0
  142.8090   79.0250  222.9870 C   0  0  0  0  0  0  0  0  0  0  0  0
  141.4910   78.6270  222.9140 C   0  0  0  0  0  0  0  0  0  0  0  0
  141.1550   77.3950  222.4760 N   0  0  0  0  0  0  0  0  0  0  0  0
  141.5700   74.9490  222.1140 H   0  0  0  0  0  0  0  0  0  0  0  0
  140.3976   72.6816  222.2419 H   0  0  0  0  0  0  0  0  0  0  0  0
  139.3908   73.4239  220.8384 H   0  0  0  0  0  0  0  0  0  0  0  0
  144.1110   71.5548  220.1689 H   0  0  0  0  0  0  0  0  0  0  0  0
  143.1985   71.5199  218.6781 H   0  0  0  0  0  0  0  0  0  0  0  0
  144.2879   73.7531  217.9189 H   0  0  0  0  0  0  0  0  0  0  0  0
  145.5850   71.8630  218.0380 H   0  0  0  0  0  0  0  0  0  0  0  0
  145.2065   73.7114  220.8915 H   0  0  0  0  0  0  0  0  0  0  0  0
  145.1212   75.1362  219.8769 H   0  0  0  0  0  0  0  0  0  0  0  0
  143.0050   74.5369  221.5144 H   0  0  0  0  0  0  0  0  0  0  0  0
  142.7320   76.9860  221.0980 H   0  0  0  0  0  0  0  0  0  0  0  0
  142.2967   77.2878  218.3038 H   0  0  0  0  0  0  0  0  0  0  0  0
  140.0829   77.9750  220.4639 H   0  0  0  0  0  0  0  0  0  0  0  0
  139.6427   77.5082  218.9397 H   0  0  0  0  0  0  0  0  0  0  0  0
  140.6769   79.8399  217.9862 H   0  0  0  0  0  0  0  0  0  0  0  0
  138.1473   79.6145  219.5010 H   0  0  0  0  0  0  0  0  0  0  0  0
  136.9679   81.4626  220.6655 H   0  0  0  0  0  0  0  0  0  0  0  0
  138.2120   83.4141  221.4974 H   0  0  0  0  0  0  0  0  0  0  0  0
  140.6941   83.5860  221.1970 H   0  0  0  0  0  0  0  0  0  0  0  0
  141.8493   81.7263  220.0345 H   0  0  0  0  0  0  0  0  0  0  0  0
  142.2877   79.3701  220.7017 H   0  0  0  0  0  0  0  0  0  0  0  0
  143.1138   79.7164  219.3155 H   0  0  0  0  0  0  0  0  0  0  0  0
  137.8497   77.5527  222.7285 H   0  0  0  0  0  0  0  0  0  0  0  0
  138.4039   79.8310  223.5366 H   0  0  0  0  0  0  0  0  0  0  0  0
  140.0546   81.5092  224.0669 H   0  0  0  0  0  0  0  0  0  0  0  0
  144.2136   80.5552  223.4738 H   0  0  0  0  0  0  0  0  0  0  0  0
  143.6002   78.3241  222.6824 H   0  0  0  0  0  0  0  0  0  0  0  0
  1  2  2  0
  2  3  1  0
  3  4  1  0
  4  5  1  0
  5  6  2  0
  5  7  1  0
  7  8  1  0
  8  9  1  0
  9 10  1  0
  9 11  1  0
 11 12  1  0
 12 13  1  0
 13 14  2  0
 13 15  1  0
 15 16  1  0
 16 17  1  0
 17 18  1  0
 18 19  1  0
 19 20  2  0
 20 21  1  0
 21 22  2  0
 22 23  1  0
 23 24  2  0
 18 25  1  0
  2 26  1  0
 26 27  2  0
 27 28  1  0
 28 29  2  0
 29 30  1  0
 30 31  2  0
 31 32  1  0
 31 33  1  0
 33 34  2  0
 34 35  1  0
 35 36  2  0
 12  7  1  0
 25 16  1  0
 36 26  1  0
 24 19  1  0
 35 29  1  0
  3 37  1  0
  4 38  1  0
  4 39  1  0
  8 40  1  0
  8 41  1  0
  9 42  1  6
 10 43  1  0
 11 44  1  0
 11 45  1  0
 12 46  1  1
 15 47  1  0
 16 48  1  6
 17 49  1  0
 17 50  1  0
 18 51  1  6
 20 52  1  0
 21 53  1  0
 22 54  1  0
 23 55  1  0
 24 56  1  0
 25 57  1  0
 25 58  1  0
 27 59  1  0
 28 60  1  0
 30 61  1  0
 33 62  1  0
 34 63  1  0
M  END
>  <smiles>  (33) 
O=C(NCC(=O)N1C[C@H](O)C[C@H]1C(=O)N[C@H]1C[C@@H](c2ccccc2)C1)c1ccc2cc(F)ccc2n1

>  <score_type>  (33) 
oracle

>  <origin>  (33) 
autodockgpu

>  <m_score__min__energy>  (33) 
-10.06

>  <m_primary>  (33) 
energy

>  <rmsd>  (33) 
6.673669956948001

>  <m_score__min__rmsd>  (33) 
6.673669956948001

>  <meeko>  (33) 
{"free_energy": -6.85, "intermolecular_energy": -9.23, "internal_energy": -4.91, "cluster_size": 13, "cluster_id": 6, "rank_in_cluster": 10}

>  <energy>  (33) 
-6.81

>  <cluster_rmsd>  (33) 
1.67

>  <cluster>  (33) 
6

$$$$

     RDKit          3D

 63 67  0  0  0  0  0  0  0  0999 V2000
  139.4760   72.9090  222.2660 O   0  0  0  0  0  0  0  0  0  0  0  0
  138.9220   71.9000  222.8060 C   0  0  0  0  0  0  0  0  0  0  0  0
  137.7240   71.3220  222.2880 N   0  0  0  0  0  0  0  0  0  0  0  0
  137.0870   71.8370  221.1330 C   0  0  0  0  0  0  0  0  0  0  0  0
  136.8380   73.2630  221.0130 C   0  0  0  0  0  0  0  0  0  0  0  0
  137.1120   73.7510  219.8340 O   0  0  0  0  0  0  0  0  0  0  0  0
  136.3550   74.1750  221.9810 N   0  0  0  0  0  0  0  0  0  0  0  0
  135.7400   73.9440  223.2790 C   0  0  0  0  0  0  0  0  0  0  0  0
  136.0800   75.2450  224.0520 C   0  0  2  0  0  0  0  0  0  0  0  0
  135.2810   75.3920  225.1680 O   0  0  0  0  0  0  0  0  0  0  0  0
  135.7560   76.2290  222.9390 C   0  0  0  0  0  0  0  0  0  0  0  0
  136.4350   75.6290  221.7510 C   0  0  1  0  0  0  0  0  0  0  0  0
  137.8390   76.1130  221.7600 C   0  0  0  0  0  0  0  0  0  0  0  0
  138.0530   77.2460  222.2450 O   0  0  0  0  0  0  0  0  0  0  0  0
  138.9360   75.3850  221.2620 N   0  0  0  0  0  0  0  0  0  0  0  0
  140.2440   75.9740  221.3290 C   0  0  1  0  0  0  0  0  0  0  0  0
  140.3540   77.4160  220.8480 C   0  0  0  0  0  0  0  0  0  0  0  0
  141.4160   77.5840  221.9180 C   0  0  1  0  0  0  0  0  0  0  0  0
  141.4490   78.8890  222.5860 C   0  0  0  0  0  0  0  0  0  0  0  0
  140.2580   79.5510  222.9080 C   0  0  0  0  0  0  0  0  0  0  0  0
  140.3240   80.7770  223.5390 C   0  0  0  0  0  0  0  0  0  0  0  0
  141.5420   81.3460  223.8480 C   0  0  0  0  0  0  0  0  0  0  0  0
  142.7420   80.7130  223.5400 C   0  0  0  0  0  0  0  0  0  0  0  0
  142.6470   79.4890  222.9110 C   0  0  0  0  0  0  0  0  0  0  0  0
  140.6510   76.5040  222.6980 C   0  0  0  0  0  0  0  0  0  0  0  0
  139.5290   71.2990  224.0080 C   0  0  0  0  0  0  0  0  0  0  0  0
  140.5730   71.8900  224.6650 C   0  0  0  0  0  0  0  0  0  0  0  0
  141.1510   71.3300  225.8010 C   0  0  0  0  0  0  0  0  0  0  0  0
  140.6570   70.1370  226.2860 C   0  0  0  0  0  0  0  0  0  0  0  0
  141.2220   69.5670  227.4200 C   0  0  0  0  0  0  0  0  0  0  0  0
  140.7070   68.3730  227.8840 C   0  0  0  0  0  0  0  0  0  0  0  0
  141.2040   67.7530  228.9800 F   0  0  0  0  0  0  0  0  0  0  0  0
  139.6460   67.7770  227.2110 C   0  0  0  0  0  0  0  0  0  0  0  0
  139.1120   68.3620  226.1030 C   0  0  0  0  0  0  0  0  0  0  0  0
  139.6020   69.5530  225.6120 C   0  0  0  0  0  0  0  0  0  0  0  0
  139.0710   70.1300  224.5130 N   0  0  0  0  0  0  0  0  0  0  0  0
  137.3090   70.4840  222.7930 H   0  0  0  0  0  0  0  0  0  0  0  0
  137.7101   71.5505  220.2729 H   0  0  0  0  0  0  0  0  0  0  0  0
  136.0754   71.4089  221.1914 H   0  0  0  0  0  0  0  0  0  0  0  0
  134.6521   73.8111  223.1848 H   0  0  0  0  0  0  0  0  0  0  0  0
  136.1009   73.0323  223.7776 H   0  0  0  0  0  0  0  0  0  0  0  0
  137.0921   75.3303  224.4743 H   0  0  0  0  0  0  0  0  0  0  0  0
  134.7830   76.2510  225.0300 H   0  0  0  0  0  0  0  0  0  0  0  0
  134.6701   76.3012  222.7790 H   0  0  0  0  0  0  0  0  0  0  0  0
  136.0894   77.2544  223.1566 H   0  0  0  0  0  0  0  0  0  0  0  0
  135.9917   75.8917  220.7792 H   0  0  0  0  0  0  0  0  0  0  0  0
  138.7910   74.4400  220.8560 H   0  0  0  0  0  0  0  0  0  0  0  0
  140.7761   75.1510  220.8295 H   0  0  0  0  0  0  0  0  0  0  0  0
  139.4488   78.0239  220.9933 H   0  0  0  0  0  0  0  0  0  0  0  0
  140.5323   77.6746  219.7938 H   0  0  0  0  0  0  0  0  0  0  0  0
  142.4883   77.5145  221.6828 H   0  0  0  0  0  0  0  0  0  0  0  0
  139.2848   79.1011  222.6620 H   0  0  0  0  0  0  0  0  0  0  0  0
  139.3951   81.3060  223.7983 H   0  0  0  0  0  0  0  0  0  0  0  0
  141.5651   82.3243  224.3503 H   0  0  0  0  0  0  0  0  0  0  0  0
  143.7147   81.1645  223.7850 H   0  0  0  0  0  0  0  0  0  0  0  0
  143.5783   78.9627  222.6546 H   0  0  0  0  0  0  0  0  0  0  0  0
  139.8229   76.8758  223.3192 H   0  0  0  0  0  0  0  0  0  0  0  0
  141.1260   75.8733  223.4638 H   0  0  0  0  0  0  0  0  0  0  0  0
  140.9701   72.8417  224.2821 H   0  0  0  0  0  0  0  0  0  0  0  0
  141.9901   71.8320  226.3049 H   0  0  0  0  0  0  0  0  0  0  0  0
  142.0610   70.0561  227.9367 H   0  0  0  0  0  0  0  0  0  0  0  0
  139.2344   66.8247  227.5767 H   0  0  0  0  0  0  0  0  0  0  0  0
  138.2713   67.8733  225.5888 H   0  0  0  0  0  0  0  0  0  0  0  0
  1  2  2  0
  2  3  1  0
  3  4  1  0
  4  5  1  0
  5  6  2  0
  5  7  1  0
  7  8  1  0
  8  9  1  0
  9 10  1  0
  9 11  1  0
 11 12  1  0
 12 13  1  0
 13 14  2  0
 13 15  1  0
 15 16  1  0
 16 17  1  0
 17 18  1  0
 18 19  1  0
 19 20  2  0
 20 21  1  0
 21 22  2  0
 22 23  1  0
 23 24  2  0
 18 25  1  0
  2 26  1  0
 26 27  2  0
 27 28  1  0
 28 29  2  0
 29 30  1  0
 30 31  2  0
 31 32  1  0
 31 33  1  0
 33 34  2  0
 34 35  1  0
 35 36  2  0
 12  7  1  0
 25 16  1  0
 36 26  1  0
 24 19  1  0
 35 29  1  0
  3 37  1  0
  4 38  1  0
  4 39  1  0
  8 40  1  0
  8 41  1  0
  9 42  1  1
 10 43  1  0
 11 44  1  0
 11 45  1  0
 12 46  1  6
 15 47  1  0
 16 48  1  6
 17 49  1  0
 17 50  1  0
 18 51  1  6
 20 52  1  0
 21 53  1  0
 22 54  1  0
 23 55  1  0
 24 56  1  0
 25 57  1  0
 25 58  1  0
 27 59  1  0
 28 60  1  0
 30 61  1  0
 33 62  1  0
 34 63  1  0
M  END
>  <smiles>  (34) 
O=C(NCC(=O)N1C[C@H](O)C[C@H]1C(=O)N[C@H]1C[C@@H](c2ccccc2)C1)c1ccc2cc(F)ccc2n1

>  <score_type>  (34) 
oracle

>  <origin>  (34) 
autodockgpu

>  <m_score__min__energy>  (34) 
-10.06

>  <m_primary>  (34) 
energy

>  <rmsd>  (34) 
4.260466871451528

>  <m_score__min__rmsd>  (34) 
4.260466871451528

>  <meeko>  (34) 
{"free_energy": -7.96, "intermolecular_energy": -10.35, "internal_energy": -3.62, "cluster_size": 4, "cluster_id": 5, "rank_in_cluster": 3}

>  <energy>  (34) 
-6.57

>  <cluster_rmsd>  (34) 
1.76

>  <cluster>  (34) 
6

$$$$

     RDKit          3D

 63 67  0  0  0  0  0  0  0  0999 V2000
  138.4870   75.3350  221.4430 O   0  0  0  0  0  0  0  0  0  0  0  0
  139.6660   75.6070  221.8320 C   0  0  0  0  0  0  0  0  0  0  0  0
  140.7210   74.6450  221.7910 N   0  0  0  0  0  0  0  0  0  0  0  0
  140.5140   73.3320  221.3040 C   0  0  0  0  0  0  0  0  0  0  0  0
  141.5840   72.6360  220.6120 C   0  0  0  0  0  0  0  0  0  0  0  0
  141.2560   71.4430  220.1960 O   0  0  0  0  0  0  0  0  0  0  0  0
  142.9060   73.0620  220.3390 N   0  0  0  0  0  0  0  0  0  0  0  0
  144.0380   72.3400  219.7800 C   0  0  0  0  0  0  0  0  0  0  0  0
  144.8810   73.4740  219.1400 C   0  0  2  0  0  0  0  0  0  0  0  0
  146.1720   73.0590  218.8830 O   0  0  0  0  0  0  0  0  0  0  0  0
  144.7800   74.4680  220.2850 C   0  0  0  0  0  0  0  0  0  0  0  0
  143.3240   74.4460  220.6230 C   0  0  1  0  0  0  0  0  0  0  0  0
  142.6520   75.4210  219.7270 C   0  0  0  0  0  0  0  0  0  0  0  0
  142.2230   74.9940  218.6320 O   0  0  0  0  0  0  0  0  0  0  0  0
  142.4680   76.7840  220.0270 N   0  0  0  0  0  0  0  0  0  0  0  0
  141.8030   77.6190  219.0660 C   0  0  1  0  0  0  0  0  0  0  0  0
  140.7130   78.5320  219.6130 C   0  0  0  0  0  0  0  0  0  0  0  0
  141.1470   79.5190  218.5470 C   0  0  1  0  0  0  0  0  0  0  0  0
  141.0880   80.9350  218.9250 C   0  0  0  0  0  0  0  0  0  0  0  0
  141.2730   81.9340  217.9630 C   0  0  0  0  0  0  0  0  0  0  0  0
  141.2070   83.2580  218.3510 C   0  0  0  0  0  0  0  0  0  0  0  0
  140.9670   83.5940  219.6660 C   0  0  0  0  0  0  0  0  0  0  0  0
  140.7800   82.6240  220.6460 C   0  0  0  0  0  0  0  0  0  0  0  0
  140.8490   81.3110  220.2300 C   0  0  0  0  0  0  0  0  0  0  0  0
  142.5440   78.8950  218.6870 C   0  0  0  0  0  0  0  0  0  0  0  0
  139.9650   76.9570  222.3450 C   0  0  0  0  0  0  0  0  0  0  0  0
  138.9810   77.8000  222.7840 C   0  0  0  0  0  0  0  0  0  0  0  0
  139.2560   79.0750  223.2700 C   0  0  0  0  0  0  0  0  0  0  0  0
  140.5640   79.5090  223.3140 C   0  0  0  0  0  0  0  0  0  0  0  0
  140.8530   80.7790  223.7980 C   0  0  0  0  0  0  0  0  0  0  0  0
  142.1720   81.1870  223.8320 C   0  0  0  0  0  0  0  0  0  0  0  0
  142.5350   82.4080  224.2870 F   0  0  0  0  0  0  0  0  0  0  0  0
  143.1670   80.3250  223.3840 C   0  0  0  0  0  0  0  0  0  0  0  0
  142.8510   79.0860  222.9160 C   0  0  0  0  0  0  0  0  0  0  0  0
  141.5460   78.6460  222.8680 C   0  0  0  0  0  0  0  0  0  0  0  0
  141.2360   77.4170  222.4030 N   0  0  0  0  0  0  0  0  0  0  0  0
  141.6820   74.9370  222.1390 H   0  0  0  0  0  0  0  0  0  0  0  0
  140.2403   72.7118  222.1702 H   0  0  0  0  0  0  0  0  0  0  0  0
  139.7548   73.4705  220.5201 H   0  0  0  0  0  0  0  0  0  0  0  0
  144.6045   71.8197  220.5664 H   0  0  0  0  0  0  0  0  0  0  0  0
  143.7468   71.5555  219.0660 H   0  0  0  0  0  0  0  0  0  0  0  0
  144.5554   73.8518  218.1596 H   0  0  0  0  0  0  0  0  0  0  0  0
  146.6840   73.8930  218.6680 H   0  0  0  0  0  0  0  0  0  0  0  0
  145.3897   74.1466  221.1423 H   0  0  0  0  0  0  0  0  0  0  0  0
  145.1486   75.4705  220.0221 H   0  0  0  0  0  0  0  0  0  0  0  0
  143.0826   74.7182  221.6611 H   0  0  0  0  0  0  0  0  0  0  0  0
  142.8100   77.1670  220.9290 H   0  0  0  0  0  0  0  0  0  0  0  0
  141.5851   76.8220  218.3399 H   0  0  0  0  0  0  0  0  0  0  0  0
  140.8672   78.8698  220.6484 H   0  0  0  0  0  0  0  0  0  0  0  0
  139.6689   78.2039  219.7235 H   0  0  0  0  0  0  0  0  0  0  0  0
  140.6155   79.6027  217.5876 H   0  0  0  0  0  0  0  0  0  0  0  0
  141.4681   81.6690  216.9134 H   0  0  0  0  0  0  0  0  0  0  0  0
  141.3474   84.0522  217.6030 H   0  0  0  0  0  0  0  0  0  0  0  0
  140.9221   84.6563  219.9480 H   0  0  0  0  0  0  0  0  0  0  0  0
  140.5875   82.8901  221.6958 H   0  0  0  0  0  0  0  0  0  0  0  0
  140.7054   80.5199  220.9807 H   0  0  0  0  0  0  0  0  0  0  0  0
  143.1695   79.3252  219.4830 H   0  0  0  0  0  0  0  0  0  0  0  0
  143.2963   78.9317  217.8853 H   0  0  0  0  0  0  0  0  0  0  0  0
  137.9359   77.4583  222.7518 H   0  0  0  0  0  0  0  0  0  0  0  0
  138.4405   79.7278  223.6145 H   0  0  0  0  0  0  0  0  0  0  0  0
  140.0493   81.4445  224.1463 H   0  0  0  0  0  0  0  0  0  0  0  0
  144.2186   80.6469  223.4079 H   0  0  0  0  0  0  0  0  0  0  0  0
  143.6556   78.4213  222.5684 H   0  0  0  0  0  0  0  0  0  0  0  0
  1  2  2  0
  2  3  1  0
  3  4  1  0
  4  5  1  0
  5  6  2  0
  5  7  1  0
  7  8  1  0
  8  9  1  0
  9 10  1  0
  9 11  1  0
 11 12  1  0
 12 13  1  0
 13 14  2  0
 13 15  1  0
 15 16  1  0
 16 17  1  0
 17 18  1  0
 18 19  1  0
 19 20  2  0
 20 21  1  0
 21 22  2  0
 22 23  1  0
 23 24  2  0
 18 25  1  0
  2 26  1  0
 26 27  2  0
 27 28  1  0
 28 29  2  0
 29 30  1  0
 30 31  2  0
 31 32  1  0
 31 33  1  0
 33 34  2  0
 34 35  1  0
 35 36  2  0
 12  7  1  0
 25 16  1  0
 36 26  1  0
 24 19  1  0
 35 29  1  0
  3 37  1  0
  4 38  1  0
  4 39  1  0
  8 40  1  0
  8 41  1  0
  9 42  1  6
 10 43  1  0
 11 44  1  0
 11 45  1  0
 12 46  1  1
 15 47  1  0
 16 48  1  6
 17 49  1  0
 17 50  1  0
 18 51  1  6
 20 52  1  0
 21 53  1  0
 22 54  1  0
 23 55  1  0
 24 56  1  0
 25 57  1  0
 25 58  1  0
 27 59  1  0
 28 60  1  0
 30 61  1  0
 33 62  1  0
 34 63  1  0
M  END
>  <smiles>  (35) 
O=C(NCC(=O)N1C[C@H](O)C[C@H]1C(=O)N[C@H]1C[C@@H](c2ccccc2)C1)c1ccc2cc(F)ccc2n1

>  <score_type>  (35) 
oracle

>  <origin>  (35) 
autodockgpu

>  <m_score__min__energy>  (35) 
-10.06

>  <m_primary>  (35) 
energy

>  <rmsd>  (35) 
6.8496717477718425

>  <m_score__min__rmsd>  (35) 
6.8496717477718425

>  <meeko>  (35) 
{"free_energy": -8.14, "intermolecular_energy": -10.52, "internal_energy": -4.19, "cluster_size": 13, "cluster_id": 6, "rank_in_cluster": 2}

>  <energy>  (35) 
-6.5

>  <cluster_rmsd>  (35) 
1.3

>  <cluster>  (35) 
6

$$$$

     RDKit          3D

 63 67  0  0  0  0  0  0  0  0999 V2000
  140.6090   76.8800  218.6020 O   0  0  0  0  0  0  0  0  0  0  0  0
  141.6990   77.5020  218.8030 C   0  0  0  0  0  0  0  0  0  0  0  0
  142.9040   77.1660  218.1140 N   0  0  0  0  0  0  0  0  0  0  0  0
  142.9500   76.1240  217.1570 C   0  0  0  0  0  0  0  0  0  0  0  0
  142.6280   74.7620  217.5480 C   0  0  0  0  0  0  0  0  0  0  0  0
  141.4730   74.3440  217.1060 O   0  0  0  0  0  0  0  0  0  0  0  0
  143.3770   73.8500  218.3300 N   0  0  0  0  0  0  0  0  0  0  0  0
  144.8110   73.7420  218.5460 C   0  0  0  0  0  0  0  0  0  0  0  0
  144.8930   73.0580  219.9360 C   0  0  2  0  0  0  0  0  0  0  0  0
  146.1470   72.5280  220.1640 O   0  0  0  0  0  0  0  0  0  0  0  0
  143.8220   72.0050  219.7040 C   0  0  0  0  0  0  0  0  0  0  0  0
  142.7030   72.7900  219.1010 C   0  0  1  0  0  0  0  0  0  0  0  0
  141.9030   73.3460  220.2220 C   0  0  0  0  0  0  0  0  0  0  0  0
  142.0990   72.8650  221.3600 O   0  0  0  0  0  0  0  0  0  0  0  0
  140.9480   74.3710  220.0890 N   0  0  0  0  0  0  0  0  0  0  0  0
  140.2410   74.8130  221.2590 C   0  0  1  0  0  0  0  0  0  0  0  0
  140.8110   76.0390  221.9610 C   0  0  0  0  0  0  0  0  0  0  0  0
  139.3740   76.3890  222.2940 C   0  0  1  0  0  0  0  0  0  0  0  0
  139.0470   77.8190  222.2900 C   0  0  0  0  0  0  0  0  0  0  0  0
  138.5640   78.4330  221.1280 C   0  0  0  0  0  0  0  0  0  0  0  0
  138.2640   79.7800  221.1590 C   0  0  0  0  0  0  0  0  0  0  0  0
  138.4370   80.5140  222.3130 C   0  0  0  0  0  0  0  0  0  0  0  0
  138.9150   79.9330  223.4830 C   0  0  0  0  0  0  0  0  0  0  0  0
  139.2070   78.5860  223.4250 C   0  0  0  0  0  0  0  0  0  0  0  0
  139.0050   75.6630  220.9920 C   0  0  0  0  0  0  0  0  0  0  0  0
  141.7310   78.6070  219.7780 C   0  0  0  0  0  0  0  0  0  0  0  0
  141.4050   79.8890  219.4320 C   0  0  0  0  0  0  0  0  0  0  0  0
  141.4320   80.9370  220.3480 C   0  0  0  0  0  0  0  0  0  0  0  0
  141.7990   80.6800  221.6520 C   0  0  0  0  0  0  0  0  0  0  0  0
  141.8290   81.7150  222.5770 C   0  0  0  0  0  0  0  0  0  0  0  0
  142.1990   81.4290  223.8760 C   0  0  0  0  0  0  0  0  0  0  0  0
  142.2550   82.3820  224.8350 F   0  0  0  0  0  0  0  0  0  0  0  0
  142.5300   80.1220  224.2220 C   0  0  0  0  0  0  0  0  0  0  0  0
  142.4900   79.1290  223.2910 C   0  0  0  0  0  0  0  0  0  0  0  0
  142.1250   79.3800  221.9860 C   0  0  0  0  0  0  0  0  0  0  0  0
  142.0860   78.3920  221.0660 N   0  0  0  0  0  0  0  0  0  0  0  0
  143.7820   77.7210  218.3360 H   0  0  0  0  0  0  0  0  0  0  0  0
  142.2484   76.3982  216.3554 H   0  0  0  0  0  0  0  0  0  0  0  0
  144.0175   76.0664  216.8980 H   0  0  0  0  0  0  0  0  0  0  0  0
  145.2840   73.1223  217.7699 H   0  0  0  0  0  0  0  0  0  0  0  0
  145.3341   74.7087  218.5024 H   0  0  0  0  0  0  0  0  0  0  0  0
  144.7420   73.6945  220.8203 H   0  0  0  0  0  0  0  0  0  0  0  0
  146.0310   71.8790  220.9190 H   0  0  0  0  0  0  0  0  0  0  0  0
  144.1764   71.2266  219.0123 H   0  0  0  0  0  0  0  0  0  0  0  0
  143.5322   71.4723  220.6217 H   0  0  0  0  0  0  0  0  0  0  0  0
  142.0246   72.2128  218.4555 H   0  0  0  0  0  0  0  0  0  0  0  0
  140.7660   74.7920  219.1570 H   0  0  0  0  0  0  0  0  0  0  0  0
  140.1897   73.8307  221.7514 H   0  0  0  0  0  0  0  0  0  0  0  0
  141.3222   76.7556  221.3014 H   0  0  0  0  0  0  0  0  0  0  0  0
  141.5947   75.9681  222.7296 H   0  0  0  0  0  0  0  0  0  0  0  0
  138.9318   76.1416  223.2704 H   0  0  0  0  0  0  0  0  0  0  0  0
  138.4258   77.8510  220.2049 H   0  0  0  0  0  0  0  0  0  0  0  0
  137.8827   80.2732  220.2528 H   0  0  0  0  0  0  0  0  0  0  0  0
  138.1908   81.5861  222.3085 H   0  0  0  0  0  0  0  0  0  0  0  0
  139.0528   80.5165  224.4053 H   0  0  0  0  0  0  0  0  0  0  0  0
  139.5883   78.0970  224.3336 H   0  0  0  0  0  0  0  0  0  0  0  0
  139.0514   76.2815  220.0836 H   0  0  0  0  0  0  0  0  0  0  0  0
  138.0103   75.2290  220.8126 H   0  0  0  0  0  0  0  0  0  0  0  0
  141.1110   80.0998  218.3932 H   0  0  0  0  0  0  0  0  0  0  0  0
  141.1640   81.9570  220.0355 H   0  0  0  0  0  0  0  0  0  0  0  0
  141.5637   82.7407  222.2812 H   0  0  0  0  0  0  0  0  0  0  0  0
  142.8262   79.8894  225.2555 H   0  0  0  0  0  0  0  0  0  0  0  0
  142.7550   78.1033  223.5873 H   0  0  0  0  0  0  0  0  0  0  0  0
  1  2  2  0
  2  3  1  0
  3  4  1  0
  4  5  1  0
  5  6  2  0
  5  7  1  0
  7  8  1  0
  8  9  1  0
  9 10  1  0
  9 11  1  0
 11 12  1  0
 12 13  1  0
 13 14  2  0
 13 15  1  0
 15 16  1  0
 16 17  1  0
 17 18  1  0
 18 19  1  0
 19 20  2  0
 20 21  1  0
 21 22  2  0
 22 23  1  0
 23 24  2  0
 18 25  1  0
  2 26  1  0
 26 27  2  0
 27 28  1  0
 28 29  2  0
 29 30  1  0
 30 31  2  0
 31 32  1  0
 31 33  1  0
 33 34  2  0
 34 35  1  0
 35 36  2  0
 12  7  1  0
 25 16  1  0
 36 26  1  0
 24 19  1  0
 35 29  1  0
  3 37  1  0
  4 38  1  0
  4 39  1  0
  8 40  1  0
  8 41  1  0
  9 42  1  1
 10 43  1  0
 11 44  1  0
 11 45  1  0
 12 46  1  6
 15 47  1  0
 16 48  1  1
 17 49  1  0
 17 50  1  0
 18 51  1  1
 20 52  1  0
 21 53  1  0
 22 54  1  0
 23 55  1  0
 24 56  1  0
 25 57  1  0
 25 58  1  0
 27 59  1  0
 28 60  1  0
 30 61  1  0
 33 62  1  0
 34 63  1  0
M  END
>  <smiles>  (36) 
O=C(NCC(=O)N1C[C@H](O)C[C@H]1C(=O)N[C@H]1C[C@@H](c2ccccc2)C1)c1ccc2cc(F)ccc2n1

>  <score_type>  (36) 
oracle

>  <origin>  (36) 
autodockgpu

>  <m_score__min__energy>  (36) 
-10.06

>  <m_primary>  (36) 
energy

>  <rmsd>  (36) 
8.097067795215755

>  <m_score__min__rmsd>  (36) 
8.097067795215755

>  <meeko>  (36) 
{"free_energy": -6.57, "intermolecular_energy": -8.96, "internal_energy": -5.28, "cluster_size": 13, "cluster_id": 6, "rank_in_cluster": 12}

>  <energy>  (36) 
-8.18

>  <cluster_rmsd>  (36) 
0.0

>  <cluster>  (36) 
7

$$$$

     RDKit          3D

 63 67  0  0  0  0  0  0  0  0999 V2000
  136.3870   72.9070  221.8810 O   0  0  0  0  0  0  0  0  0  0  0  0
  135.9280   73.7100  222.7530 C   0  0  0  0  0  0  0  0  0  0  0  0
  136.2550   75.0990  222.7540 N   0  0  0  0  0  0  0  0  0  0  0  0
  137.1050   75.6660  221.7740 C   0  0  0  0  0  0  0  0  0  0  0  0
  138.5160   75.8590  222.0580 C   0  0  0  0  0  0  0  0  0  0  0  0
  138.7490   76.6490  223.0710 O   0  0  0  0  0  0  0  0  0  0  0  0
  139.6480   75.3240  221.3980 N   0  0  0  0  0  0  0  0  0  0  0  0
  140.9780   75.8780  221.1980 C   0  0  0  0  0  0  0  0  0  0  0  0
  141.8560   74.6080  221.0470 C   0  0  2  0  0  0  0  0  0  0  0  0
  143.0800   74.9040  220.4820 O   0  0  0  0  0  0  0  0  0  0  0  0
  140.9310   73.8350  220.1210 C   0  0  0  0  0  0  0  0  0  0  0  0
  139.5950   73.9910  220.7720 C   0  0  1  0  0  0  0  0  0  0  0  0
  139.4720   72.9100  221.7830 C   0  0  0  0  0  0  0  0  0  0  0  0
  140.1880   72.9970  222.8060 O   0  0  0  0  0  0  0  0  0  0  0  0
  138.6110   71.8030  221.6670 N   0  0  0  0  0  0  0  0  0  0  0  0
  138.5950   70.8270  222.7210 C   0  0  1  0  0  0  0  0  0  0  0  0
  139.9440   70.4940  223.3460 C   0  0  0  0  0  0  0  0  0  0  0  0
  139.1820   70.3100  224.6440 C   0  0  1  0  0  0  0  0  0  0  0  0
  139.8820   70.7330  225.8610 C   0  0  0  0  0  0  0  0  0  0  0  0
  140.7060   71.8650  225.8480 C   0  0  0  0  0  0  0  0  0  0  0  0
  141.3480   72.2380  227.0120 C   0  0  0  0  0  0  0  0  0  0  0  0
  141.1860   71.5090  228.1700 C   0  0  0  0  0  0  0  0  0  0  0  0
  140.3750   70.3800  228.2150 C   0  0  0  0  0  0  0  0  0  0  0  0
  139.7440   70.0300  227.0390 C   0  0  0  0  0  0  0  0  0  0  0  0
  138.2010   71.3560  224.0940 C   0  0  0  0  0  0  0  0  0  0  0  0
  135.0280   73.1980  223.8030 C   0  0  0  0  0  0  0  0  0  0  0  0
  134.8250   71.8600  223.9950 C   0  0  0  0  0  0  0  0  0  0  0  0
  133.9770   71.3700  224.9850 C   0  0  0  0  0  0  0  0  0  0  0  0
  133.3170   72.2600  225.8040 C   0  0  0  0  0  0  0  0  0  0  0  0
  132.4690   71.7870  226.7970 C   0  0  0  0  0  0  0  0  0  0  0  0
  131.8210   72.7010  227.6040 C   0  0  0  0  0  0  0  0  0  0  0  0
  130.9780   72.3190  228.5910 F   0  0  0  0  0  0  0  0  0  0  0  0
  132.0320   74.0610  227.4030 C   0  0  0  0  0  0  0  0  0  0  0  0
  132.8700   74.4950  226.4210 C   0  0  0  0  0  0  0  0  0  0  0  0
  133.5330   73.6090  225.5980 C   0  0  0  0  0  0  0  0  0  0  0  0
  134.3630   74.0430  224.6260 N   0  0  0  0  0  0  0  0  0  0  0  0
  135.8430   75.7140  223.5170 H   0  0  0  0  0  0  0  0  0  0  0  0
  137.0457   75.0162  220.8884 H   0  0  0  0  0  0  0  0  0  0  0  0
  136.7251   76.6935  221.6750 H   0  0  0  0  0  0  0  0  0  0  0  0
  141.0173   76.4979  220.2901 H   0  0  0  0  0  0  0  0  0  0  0  0
  141.3031   76.5394  222.0146 H   0  0  0  0  0  0  0  0  0  0  0  0
  142.1441   74.0827  221.9695 H   0  0  0  0  0  0  0  0  0  0  0  0
  143.3250   75.8100  220.8330 H   0  0  0  0  0  0  0  0  0  0  0  0
  140.9311   74.2687  219.1101 H   0  0  0  0  0  0  0  0  0  0  0  0
  141.2288   72.7842  219.9897 H   0  0  0  0  0  0  0  0  0  0  0  0
  138.7341   73.9175  220.0913 H   0  0  0  0  0  0  0  0  0  0  0  0
  138.0020   71.7060  220.8320 H   0  0  0  0  0  0  0  0  0  0  0  0
  138.0007   70.0741  222.1826 H   0  0  0  0  0  0  0  0  0  0  0  0
  140.6709   71.3196  223.3478 H   0  0  0  0  0  0  0  0  0  0  0  0
  140.6088   69.7189  222.9369 H   0  0  0  0  0  0  0  0  0  0  0  0
  138.8707   69.3148  224.9944 H   0  0  0  0  0  0  0  0  0  0  0  0
  140.8397   72.4480  224.9249 H   0  0  0  0  0  0  0  0  0  0  0  0
  141.9960   73.1269  227.0150 H   0  0  0  0  0  0  0  0  0  0  0  0
  141.7115   71.8281  229.0821 H   0  0  0  0  0  0  0  0  0  0  0  0
  140.2437   69.7973  229.1387 H   0  0  0  0  0  0  0  0  0  0  0  0
  139.0954   69.1416  227.0414 H   0  0  0  0  0  0  0  0  0  0  0  0
  138.4782   72.4027  224.2877 H   0  0  0  0  0  0  0  0  0  0  0  0
  137.1553   71.4258  224.4281 H   0  0  0  0  0  0  0  0  0  0  0  0
  135.3500   71.1450  223.3445 H   0  0  0  0  0  0  0  0  0  0  0  0
  133.8359   70.2864  225.1115 H   0  0  0  0  0  0  0  0  0  0  0  0
  132.3167   70.7067  226.9376 H   0  0  0  0  0  0  0  0  0  0  0  0
  131.5173   74.7928  228.0430 H   0  0  0  0  0  0  0  0  0  0  0  0
  133.0212   75.5756  226.2813 H   0  0  0  0  0  0  0  0  0  0  0  0
  1  2  2  0
  2  3  1  0
  3  4  1  0
  4  5  1  0
  5  6  2  0
  5  7  1  0
  7  8  1  0
  8  9  1  0
  9 10  1  0
  9 11  1  0
 11 12  1  0
 12 13  1  0
 13 14  2  0
 13 15  1  0
 15 16  1  0
 16 17  1  0
 17 18  1  0
 18 19  1  0
 19 20  2  0
 20 21  1  0
 21 22  2  0
 22 23  1  0
 23 24  2  0
 18 25  1  0
  2 26  1  0
 26 27  2  0
 27 28  1  0
 28 29  2  0
 29 30  1  0
 30 31  2  0
 31 32  1  0
 31 33  1  0
 33 34  2  0
 34 35  1  0
 35 36  2  0
 12  7  1  0
 25 16  1  0
 36 26  1  0
 24 19  1  0
 35 29  1  0
  3 37  1  0
  4 38  1  0
  4 39  1  0
  8 40  1  0
  8 41  1  0
  9 42  1  1
 10 43  1  0
 11 44  1  0
 11 45  1  0
 12 46  1  6
 15 47  1  0
 16 48  1  6
 17 49  1  0
 17 50  1  0
 18 51  1  1
 20 52  1  0
 21 53  1  0
 22 54  1  0
 23 55  1  0
 24 56  1  0
 25 57  1  0
 25 58  1  0
 27 59  1  0
 28 60  1  0
 30 61  1  0
 33 62  1  0
 34 63  1  0
M  END
>  <smiles>  (37) 
O=C(NCC(=O)N1C[C@H](O)C[C@H]1C(=O)N[C@H]1C[C@@H](c2ccccc2)C1)c1ccc2cc(F)ccc2n1

>  <score_type>  (37) 
oracle

>  <origin>  (37) 
autodockgpu

>  <m_score__min__energy>  (37) 
-10.06

>  <m_primary>  (37) 
energy

>  <rmsd>  (37) 
7.4560534758310295

>  <m_score__min__rmsd>  (37) 
7.4560534758310295

>  <meeko>  (37) 
{"free_energy": -7.83, "intermolecular_energy": -10.21, "internal_energy": -3.03, "cluster_size": 2, "cluster_id": 7, "rank_in_cluster": 2}

>  <energy>  (37) 
-7.83

>  <cluster_rmsd>  (37) 
1.8

>  <cluster>  (37) 
7

$$$$

     RDKit          3D

 63 67  0  0  0  0  0  0  0  0999 V2000
  141.3470   72.2450  221.4380 O   0  0  0  0  0  0  0  0  0  0  0  0
  140.4540   72.4990  222.3060 C   0  0  0  0  0  0  0  0  0  0  0  0
  139.6270   73.6600  222.2300 N   0  0  0  0  0  0  0  0  0  0  0  0
  139.7490   74.5940  221.1740 C   0  0  0  0  0  0  0  0  0  0  0  0
  140.5130   75.8140  221.3650 C   0  0  0  0  0  0  0  0  0  0  0  0
  140.8200   76.0550  222.6110 O   0  0  0  0  0  0  0  0  0  0  0  0
  140.9560   76.7580  220.4090 N   0  0  0  0  0  0  0  0  0  0  0  0
  141.0530   78.2080  220.4820 C   0  0  0  0  0  0  0  0  0  0  0  0
  142.1800   78.5240  219.4640 C   0  0  2  0  0  0  0  0  0  0  0  0
  142.1760   79.8560  219.1050 O   0  0  0  0  0  0  0  0  0  0  0  0
  141.7130   77.5950  218.3550 C   0  0  0  0  0  0  0  0  0  0  0  0
  141.4240   76.3220  219.0810 C   0  0  1  0  0  0  0  0  0  0  0  0
  142.7000   75.5670  219.1660 C   0  0  0  0  0  0  0  0  0  0  0  0
  143.6560   75.9760  218.4690 O   0  0  0  0  0  0  0  0  0  0  0  0
  142.9030   74.4320  219.9720 N   0  0  0  0  0  0  0  0  0  0  0  0
  144.1900   73.7940  219.9560 C   0  0  1  0  0  0  0  0  0  0  0  0
  144.3310   72.5480  220.8220 C   0  0  0  0  0  0  0  0  0  0  0  0
  145.2760   72.0360  219.7520 C   0  0  1  0  0  0  0  0  0  0  0  0
  145.2250   70.5940  219.4910 C   0  0  0  0  0  0  0  0  0  0  0  0
  146.3480   69.9230  218.9950 C   0  0  0  0  0  0  0  0  0  0  0  0
  146.2680   68.5640  218.7630 C   0  0  0  0  0  0  0  0  0  0  0  0
  145.1000   67.8750  219.0120 C   0  0  0  0  0  0  0  0  0  0  0  0
  143.9660   68.5140  219.5040 C   0  0  0  0  0  0  0  0  0  0  0  0
  144.0750   69.8710  219.7280 C   0  0  0  0  0  0  0  0  0  0  0  0
  144.4490   72.8770  218.7680 C   0  0  0  0  0  0  0  0  0  0  0  0
  140.2580   71.5680  223.4340 C   0  0  0  0  0  0  0  0  0  0  0  0
  139.6290   70.3640  223.2790 C   0  0  0  0  0  0  0  0  0  0  0  0
  139.4420   69.4810  224.3390 C   0  0  0  0  0  0  0  0  0  0  0  0
  139.9060   69.8260  225.5910 C   0  0  0  0  0  0  0  0  0  0  0  0
  139.7280   68.9540  226.6570 C   0  0  0  0  0  0  0  0  0  0  0  0
  140.2030   69.3250  227.8990 C   0  0  0  0  0  0  0  0  0  0  0  0
  140.0670   68.5330  228.9870 F   0  0  0  0  0  0  0  0  0  0  0  0
  140.8410   70.5520  228.0500 C   0  0  0  0  0  0  0  0  0  0  0  0
  141.0010   71.3850  226.9840 C   0  0  0  0  0  0  0  0  0  0  0  0
  140.5390   71.0460  225.7300 C   0  0  0  0  0  0  0  0  0  0  0  0
  140.7000   71.8740  224.6760 N   0  0  0  0  0  0  0  0  0  0  0  0
  138.9040   73.8150  222.9940 H   0  0  0  0  0  0  0  0  0  0  0  0
  140.2103   74.0600  220.3302 H   0  0  0  0  0  0  0  0  0  0  0  0
  138.7201   74.9597  221.0414 H   0  0  0  0  0  0  0  0  0  0  0  0
  140.1065   78.6845  220.1870 H   0  0  0  0  0  0  0  0  0  0  0  0
  141.2616   78.5818  221.4953 H   0  0  0  0  0  0  0  0  0  0  0  0
  143.2172   78.3732  219.7977 H   0  0  0  0  0  0  0  0  0  0  0  0
  141.2460   80.1820  219.2890 H   0  0  0  0  0  0  0  0  0  0  0  0
  140.8079   77.9858  217.8670 H   0  0  0  0  0  0  0  0  0  0  0  0
  142.4527   77.4759  217.5497 H   0  0  0  0  0  0  0  0  0  0  0  0
  140.6772   75.6722  218.6014 H   0  0  0  0  0  0  0  0  0  0  0  0
  142.1300   74.0710  220.5640 H   0  0  0  0  0  0  0  0  0  0  0  0
  144.7802   74.7032  220.1430 H   0  0  0  0  0  0  0  0  0  0  0  0
  143.4084   71.9618  220.9452 H   0  0  0  0  0  0  0  0  0  0  0  0
  144.6127   72.5963  221.8842 H   0  0  0  0  0  0  0  0  0  0  0  0
  146.3675   72.1257  219.8552 H   0  0  0  0  0  0  0  0  0  0  0  0
  147.2808   70.4698  218.7928 H   0  0  0  0  0  0  0  0  0  0  0  0
  147.1454   68.0255  218.3755 H   0  0  0  0  0  0  0  0  0  0  0  0
  145.0637   66.7931  218.8168 H   0  0  0  0  0  0  0  0  0  0  0  0
  143.0329   67.9667  219.7036 H   0  0  0  0  0  0  0  0  0  0  0  0
  143.1960   70.4057  220.1171 H   0  0  0  0  0  0  0  0  0  0  0  0
  143.5574   72.3768  218.3618 H   0  0  0  0  0  0  0  0  0  0  0  0
  144.8514   73.2411  217.8112 H   0  0  0  0  0  0  0  0  0  0  0  0
  139.2578   70.0833  222.2823 H   0  0  0  0  0  0  0  0  0  0  0  0
  138.9306   68.5202  224.1799 H   0  0  0  0  0  0  0  0  0  0  0  0
  139.2197   67.9889  226.5149 H   0  0  0  0  0  0  0  0  0  0  0  0
  141.2194   70.8521  229.0383 H   0  0  0  0  0  0  0  0  0  0  0  0
  141.5101   72.3496  227.1269 H   0  0  0  0  0  0  0  0  0  0  0  0
  1  2  2  0
  2  3  1  0
  3  4  1  0
  4  5  1  0
  5  6  2  0
  5  7  1  0
  7  8  1  0
  8  9  1  0
  9 10  1  0
  9 11  1  0
 11 12  1  0
 12 13  1  0
 13 14  2  0
 13 15  1  0
 15 16  1  0
 16 17  1  0
 17 18  1  0
 18 19  1  0
 19 20  2  0
 20 21  1  0
 21 22  2  0
 22 23  1  0
 23 24  2  0
 18 25  1  0
  2 26  1  0
 26 27  2  0
 27 28  1  0
 28 29  2  0
 29 30  1  0
 30 31  2  0
 31 32  1  0
 31 33  1  0
 33 34  2  0
 34 35  1  0
 35 36  2  0
 12  7  1  0
 25 16  1  0
 36 26  1  0
 24 19  1  0
 35 29  1  0
  3 37  1  0
  4 38  1  0
  4 39  1  0
  8 40  1  0
  8 41  1  0
  9 42  1  1
 10 43  1  0
 11 44  1  0
 11 45  1  0
 12 46  1  6
 15 47  1  0
 16 48  1  1
 17 49  1  0
 17 50  1  0
 18 51  1  1
 20 52  1  0
 21 53  1  0
 22 54  1  0
 23 55  1  0
 24 56  1  0
 25 57  1  0
 25 58  1  0
 27 59  1  0
 28 60  1  0
 30 61  1  0
 33 62  1  0
 34 63  1  0
M  END
>  <smiles>  (38) 
O=C(NCC(=O)N1C[C@H](O)C[C@H]1C(=O)N[C@H]1C[C@@H](c2ccccc2)C1)c1ccc2cc(F)ccc2n1

>  <score_type>  (38) 
oracle

>  <origin>  (38) 
autodockgpu

>  <m_score__min__energy>  (38) 
-10.06

>  <m_primary>  (38) 
energy

>  <rmsd>  (38) 
6.203228822417699

>  <m_score__min__rmsd>  (38) 
6.203228822417699

>  <meeko>  (38) 
{"free_energy": -8.51, "intermolecular_energy": -10.89, "internal_energy": -2.83, "cluster_size": 7, "cluster_id": 3, "rank_in_cluster": 3}

>  <energy>  (38) 
-7.99

>  <cluster_rmsd>  (38) 
0.0

>  <cluster>  (38) 
8

$$$$

     RDKit          3D

 63 67  0  0  0  0  0  0  0  0999 V2000
  142.6800   76.8720  219.1200 O   0  0  0  0  0  0  0  0  0  0  0  0
  142.2280   77.6200  218.1970 C   0  0  0  0  0  0  0  0  0  0  0  0
  141.9030   77.1170  216.9010 N   0  0  0  0  0  0  0  0  0  0  0  0
  142.0580   75.7490  216.5720 C   0  0  0  0  0  0  0  0  0  0  0  0
  141.8030   74.7270  217.5720 C   0  0  0  0  0  0  0  0  0  0  0  0
  140.5620   74.3240  217.6130 O   0  0  0  0  0  0  0  0  0  0  0  0
  142.6960   74.1260  218.4910 N   0  0  0  0  0  0  0  0  0  0  0  0
  144.1500   74.1410  218.5490 C   0  0  0  0  0  0  0  0  0  0  0  0
  144.4310   73.9190  220.0590 C   0  0  2  0  0  0  0  0  0  0  0  0
  145.7370   73.5300  220.2760 O   0  0  0  0  0  0  0  0  0  0  0  0
  143.4200   72.8080  220.2890 C   0  0  0  0  0  0  0  0  0  0  0  0
  142.1880   73.3290  219.6230 C   0  0  1  0  0  0  0  0  0  0  0  0
  141.4770   74.1730  220.6170 C   0  0  0  0  0  0  0  0  0  0  0  0
  141.4560   73.7710  221.8010 O   0  0  0  0  0  0  0  0  0  0  0  0
  140.8310   75.3870  220.3150 N   0  0  0  0  0  0  0  0  0  0  0  0
  140.1760   76.1020  221.3740 C   0  0  1  0  0  0  0  0  0  0  0  0
  141.0590   76.5310  222.5390 C   0  0  0  0  0  0  0  0  0  0  0  0
  140.1670   77.7530  222.6340 C   0  0  1  0  0  0  0  0  0  0  0  0
  140.8340   79.0030  223.0110 C   0  0  0  0  0  0  0  0  0  0  0  0
  140.0920   80.0800  223.5110 C   0  0  0  0  0  0  0  0  0  0  0  0
  140.7500   81.2420  223.8590 C   0  0  0  0  0  0  0  0  0  0  0  0
  142.1180   81.3460  223.7180 C   0  0  0  0  0  0  0  0  0  0  0  0
  142.8830   80.2940  223.2240 C   0  0  0  0  0  0  0  0  0  0  0  0
  142.1990   79.1450  222.8850 C   0  0  0  0  0  0  0  0  0  0  0  0
  139.9600   77.5890  221.1210 C   0  0  0  0  0  0  0  0  0  0  0  0
  142.0290   79.0570  218.4640 C   0  0  0  0  0  0  0  0  0  0  0  0
  142.7890   80.0190  217.8580 C   0  0  0  0  0  0  0  0  0  0  0  0
  142.6060   81.3760  218.1050 C   0  0  0  0  0  0  0  0  0  0  0  0
  141.6250   81.7720  218.9900 C   0  0  0  0  0  0  0  0  0  0  0  0
  141.4300   83.1230  219.2450 C   0  0  0  0  0  0  0  0  0  0  0  0
  140.4400   83.4910  220.1340 C   0  0  0  0  0  0  0  0  0  0  0  0
  140.1900   84.7850  220.4370 F   0  0  0  0  0  0  0  0  0  0  0  0
  139.6710   82.5070  220.7480 C   0  0  0  0  0  0  0  0  0  0  0  0
  139.8860   81.1900  220.4760 C   0  0  0  0  0  0  0  0  0  0  0  0
  140.8660   80.7880  219.5930 C   0  0  0  0  0  0  0  0  0  0  0  0
  141.0760   79.4810  219.3260 N   0  0  0  0  0  0  0  0  0  0  0  0
  141.5360   77.7990  216.1730 H   0  0  0  0  0  0  0  0  0  0  0  0
  141.3791   75.5461  215.7307 H   0  0  0  0  0  0  0  0  0  0  0  0
  143.1380   75.6553  216.3852 H   0  0  0  0  0  0  0  0  0  0  0  0
  144.5800   73.3308  217.9418 H   0  0  0  0  0  0  0  0  0  0  0  0
  144.5941   75.0661  218.1528 H   0  0  0  0  0  0  0  0  0  0  0  0
  144.3308   74.7896  220.7239 H   0  0  0  0  0  0  0  0  0  0  0  0
  146.2990   74.1660  219.7440 H   0  0  0  0  0  0  0  0  0  0  0  0
  143.7531   71.8683  219.8241 H   0  0  0  0  0  0  0  0  0  0  0  0
  143.2702   72.5727  221.3530 H   0  0  0  0  0  0  0  0  0  0  0  0
  141.4875   72.5576  219.2705 H   0  0  0  0  0  0  0  0  0  0  0  0
  140.8340   75.7480  219.3420 H   0  0  0  0  0  0  0  0  0  0  0  0
  139.3435   75.3947  221.5033 H   0  0  0  0  0  0  0  0  0  0  0  0
  142.1060   76.7406  222.2746 H   0  0  0  0  0  0  0  0  0  0  0  0
  141.2568   75.8769  223.4010 H   0  0  0  0  0  0  0  0  0  0  0  0
  139.3382   77.8080  223.3552 H   0  0  0  0  0  0  0  0  0  0  0  0
  139.0007   80.0010  223.6247 H   0  0  0  0  0  0  0  0  0  0  0  0
  140.1773   82.0945  224.2531 H   0  0  0  0  0  0  0  0  0  0  0  0
  142.6167   82.2840  224.0032 H   0  0  0  0  0  0  0  0  0  0  0  0
  143.9741   80.3742  223.1099 H   0  0  0  0  0  0  0  0  0  0  0  0
  142.7754   78.2945  222.4921 H   0  0  0  0  0  0  0  0  0  0  0  0
  140.7225   78.0705  220.4911 H   0  0  0  0  0  0  0  0  0  0  0  0
  139.0775   77.9816  220.5946 H   0  0  0  0  0  0  0  0  0  0  0  0
  143.5723   79.7091  217.1506 H   0  0  0  0  0  0  0  0  0  0  0  0
  143.2358   82.1237  217.6007 H   0  0  0  0  0  0  0  0  0  0  0  0
  142.0510   83.8837  218.7493 H   0  0  0  0  0  0  0  0  0  0  0  0
  138.8828   82.7954  221.4591 H   0  0  0  0  0  0  0  0  0  0  0  0
  139.2641   80.4300  220.9717 H   0  0  0  0  0  0  0  0  0  0  0  0
  1  2  2  0
  2  3  1  0
  3  4  1  0
  4  5  1  0
  5  6  2  0
  5  7  1  0
  7  8  1  0
  8  9  1  0
  9 10  1  0
  9 11  1  0
 11 12  1  0
 12 13  1  0
 13 14  2  0
 13 15  1  0
 15 16  1  0
 16 17  1  0
 17 18  1  0
 18 19  1  0
 19 20  2  0
 20 21  1  0
 21 22  2  0
 22 23  1  0
 23 24  2  0
 18 25  1  0
  2 26  1  0
 26 27  2  0
 27 28  1  0
 28 29  2  0
 29 30  1  0
 30 31  2  0
 31 32  1  0
 31 33  1  0
 33 34  2  0
 34 35  1  0
 35 36  2  0
 12  7  1  0
 25 16  1  0
 36 26  1  0
 24 19  1  0
 35 29  1  0
  3 37  1  0
  4 38  1  0
  4 39  1  0
  8 40  1  0
  8 41  1  0
  9 42  1  1
 10 43  1  0
 11 44  1  0
 11 45  1  0
 12 46  1  6
 15 47  1  0
 16 48  1  1
 17 49  1  0
 17 50  1  0
 18 51  1  1
 20 52  1  0
 21 53  1  0
 22 54  1  0
 23 55  1  0
 24 56  1  0
 25 57  1  0
 25 58  1  0
 27 59  1  0
 28 60  1  0
 30 61  1  0
 33 62  1  0
 34 63  1  0
M  END
>  <smiles>  (39) 
O=C(NCC(=O)N1C[C@H](O)C[C@H]1C(=O)N[C@H]1C[C@@H](c2ccccc2)C1)c1ccc2cc(F)ccc2n1

>  <score_type>  (39) 
oracle

>  <origin>  (39) 
autodockgpu

>  <m_score__min__energy>  (39) 
-10.06

>  <m_primary>  (39) 
energy

>  <rmsd>  (39) 
8.916203189289002

>  <m_score__min__rmsd>  (39) 
8.916203189289002

>  <meeko>  (39) 
{"free_energy": -6.66, "intermolecular_energy": -9.05, "internal_energy": -4.63, "cluster_size": 5, "cluster_id": 12, "rank_in_cluster": 4}

>  <energy>  (39) 
-7.86

>  <cluster_rmsd>  (39) 
0.0

>  <cluster>  (39) 
9

$$$$

     RDKit          3D

 63 67  0  0  0  0  0  0  0  0999 V2000
  141.5560   72.9460  221.5980 O   0  0  0  0  0  0  0  0  0  0  0  0
  140.5390   72.9730  222.3590 C   0  0  0  0  0  0  0  0  0  0  0  0
  139.5990   74.0470  222.3360 N   0  0  0  0  0  0  0  0  0  0  0  0
  139.7430   75.1440  221.4520 C   0  0  0  0  0  0  0  0  0  0  0  0
  139.5350   76.4980  221.9330 C   0  0  0  0  0  0  0  0  0  0  0  0
  138.3980   76.6710  222.5490 O   0  0  0  0  0  0  0  0  0  0  0  0
  140.3760   77.6310  221.8220 N   0  0  0  0  0  0  0  0  0  0  0  0
  141.0360   78.4260  222.8470 C   0  0  0  0  0  0  0  0  0  0  0  0
  142.2570   79.0100  222.0890 C   0  0  2  0  0  0  0  0  0  0  0  0
  142.8050   80.0810  222.7650 O   0  0  0  0  0  0  0  0  0  0  0  0
  141.5310   79.4030  220.8130 C   0  0  0  0  0  0  0  0  0  0  0  0
  140.7150   78.1910  220.5020 C   0  0  1  0  0  0  0  0  0  0  0  0
  141.5790   77.2720  219.7180 C   0  0  0  0  0  0  0  0  0  0  0  0
  141.6000   77.4230  218.4760 O   0  0  0  0  0  0  0  0  0  0  0  0
  142.3700   76.2510  220.2760 N   0  0  0  0  0  0  0  0  0  0  0  0
  143.1570   75.4290  219.4000 C   0  0  1  0  0  0  0  0  0  0  0  0
  144.0740   74.4170  220.0750 C   0  0  0  0  0  0  0  0  0  0  0  0
  143.7950   73.5220  218.8830 C   0  0  1  0  0  0  0  0  0  0  0  0
  143.7050   72.0870  219.1690 C   0  0  0  0  0  0  0  0  0  0  0  0
  142.4610   71.4820  219.3820 C   0  0  0  0  0  0  0  0  0  0  0  0
  142.4100   70.1280  219.6460 C   0  0  0  0  0  0  0  0  0  0  0  0
  143.5660   69.3790  219.7010 C   0  0  0  0  0  0  0  0  0  0  0  0
  144.8180   69.9500  219.4940 C   0  0  0  0  0  0  0  0  0  0  0  0
  144.8390   71.3040  219.2320 C   0  0  0  0  0  0  0  0  0  0  0  0
  142.4330   74.2280  218.8050 C   0  0  0  0  0  0  0  0  0  0  0  0
  140.3130   71.8610  223.3030 C   0  0  0  0  0  0  0  0  0  0  0  0
  139.7200   70.6910  222.9160 C   0  0  0  0  0  0  0  0  0  0  0  0
  139.5050   69.6380  223.8000 C   0  0  0  0  0  0  0  0  0  0  0  0
  139.9020   69.7730  225.1140 C   0  0  0  0  0  0  0  0  0  0  0  0
  139.6950   68.7300  226.0080 C   0  0  0  0  0  0  0  0  0  0  0  0
  140.1040   68.8910  227.3170 C   0  0  0  0  0  0  0  0  0  0  0  0
  139.9370   67.9240  228.2470 F   0  0  0  0  0  0  0  0  0  0  0  0
  140.7060   70.0850  227.7030 C   0  0  0  0  0  0  0  0  0  0  0  0
  140.8960   71.0890  226.8030 C   0  0  0  0  0  0  0  0  0  0  0  0
  140.5000   70.9600  225.4890 C   0  0  0  0  0  0  0  0  0  0  0  0
  140.6900   71.9580  224.5990 N   0  0  0  0  0  0  0  0  0  0  0  0
  138.7740   74.0100  223.0050 H   0  0  0  0  0  0  0  0  0  0  0  0
  140.7692   75.1014  221.0581 H   0  0  0  0  0  0  0  0  0  0  0  0
  138.9195   75.0012  220.7368 H   0  0  0  0  0  0  0  0  0  0  0  0
  140.3769   79.2264  223.2144 H   0  0  0  0  0  0  0  0  0  0  0  0
  141.3121   77.8461  223.7400 H   0  0  0  0  0  0  0  0  0  0  0  0
  143.1263   78.3505  221.9499 H   0  0  0  0  0  0  0  0  0  0  0  0
  143.7490   80.1500  222.4380 H   0  0  0  0  0  0  0  0  0  0  0  0
  140.8883   80.2803  220.9783 H   0  0  0  0  0  0  0  0  0  0  0  0
  142.2122   79.6872  219.9974 H   0  0  0  0  0  0  0  0  0  0  0  0
  139.8032   78.3814  219.9169 H   0  0  0  0  0  0  0  0  0  0  0  0
  142.3760   76.1030  221.3040 H   0  0  0  0  0  0  0  0  0  0  0  0
  143.5499   76.2499  218.7822 H   0  0  0  0  0  0  0  0  0  0  0  0
  143.7103   74.0322  221.0392 H   0  0  0  0  0  0  0  0  0  0  0  0
  145.0950   74.6691  220.3974 H   0  0  0  0  0  0  0  0  0  0  0  0
  144.4919   73.4573  218.0344 H   0  0  0  0  0  0  0  0  0  0  0  0
  141.5369   72.0771  219.3396 H   0  0  0  0  0  0  0  0  0  0  0  0
  141.4376   69.6421  219.8141 H   0  0  0  0  0  0  0  0  0  0  0  0
  143.4969   68.3020  219.9141 H   0  0  0  0  0  0  0  0  0  0  0  0
  145.7413   69.3536  219.5370 H   0  0  0  0  0  0  0  0  0  0  0  0
  145.8135   71.7859  219.0641 H   0  0  0  0  0  0  0  0  0  0  0  0
  141.6464   73.7956  219.4408 H   0  0  0  0  0  0  0  0  0  0  0  0
  141.8445   74.2865  217.8775 H   0  0  0  0  0  0  0  0  0  0  0  0
  139.4018   70.5783  221.8691 H   0  0  0  0  0  0  0  0  0  0  0  0
  139.0248   68.7103  223.4554 H   0  0  0  0  0  0  0  0  0  0  0  0
  139.2156   67.7959  225.6801 H   0  0  0  0  0  0  0  0  0  0  0  0
  141.0314   70.2189  228.7452 H   0  0  0  0  0  0  0  0  0  0  0  0
  141.3757   72.0228  227.1315 H   0  0  0  0  0  0  0  0  0  0  0  0
  1  2  2  0
  2  3  1  0
  3  4  1  0
  4  5  1  0
  5  6  2  0
  5  7  1  0
  7  8  1  0
  8  9  1  0
  9 10  1  0
  9 11  1  0
 11 12  1  0
 12 13  1  0
 13 14  2  0
 13 15  1  0
 15 16  1  0
 16 17  1  0
 17 18  1  0
 18 19  1  0
 19 20  2  0
 20 21  1  0
 21 22  2  0
 22 23  1  0
 23 24  2  0
 18 25  1  0
  2 26  1  0
 26 27  2  0
 27 28  1  0
 28 29  2  0
 29 30  1  0
 30 31  2  0
 31 32  1  0
 31 33  1  0
 33 34  2  0
 34 35  1  0
 35 36  2  0
 12  7  1  0
 25 16  1  0
 36 26  1  0
 24 19  1  0
 35 29  1  0
  3 37  1  0
  4 38  1  0
  4 39  1  0
  8 40  1  0
  8 41  1  0
  9 42  1  6
 10 43  1  0
 11 44  1  0
 11 45  1  0
 12 46  1  6
 15 47  1  0
 16 48  1  6
 17 49  1  0
 17 50  1  0
 18 51  1  6
 20 52  1  0
 21 53  1  0
 22 54  1  0
 23 55  1  0
 24 56  1  0
 25 57  1  0
 25 58  1  0
 27 59  1  0
 28 60  1  0
 30 61  1  0
 33 62  1  0
 34 63  1  0
M  END
>  <smiles>  (40) 
O=C(NCC(=O)N1C[C@H](O)C[C@H]1C(=O)N[C@H]1C[C@@H](c2ccccc2)C1)c1ccc2cc(F)ccc2n1

>  <score_type>  (40) 
oracle

>  <origin>  (40) 
autodockgpu

>  <m_score__min__energy>  (40) 
-10.06

>  <m_primary>  (40) 
energy

>  <rmsd>  (40) 
5.432860127217182

>  <m_score__min__rmsd>  (40) 
5.432860127217182

>  <meeko>  (40) 
{"free_energy": -8.67, "intermolecular_energy": -11.05, "internal_energy": -2.59, "cluster_size": 7, "cluster_id": 3, "rank_in_cluster": 2}

>  <energy>  (40) 
-7.84

>  <cluster_rmsd>  (40) 
0.0

>  <cluster>  (40) 
10

$$$$

     RDKit          3D

 63 67  0  0  0  0  0  0  0  0999 V2000
  141.3170   72.1890  221.4660 O   0  0  0  0  0  0  0  0  0  0  0  0
  140.3670   72.4130  222.2800 C   0  0  0  0  0  0  0  0  0  0  0  0
  139.4650   73.5070  222.1150 N   0  0  0  0  0  0  0  0  0  0  0  0
  139.5720   74.4030  221.0230 C   0  0  0  0  0  0  0  0  0  0  0  0
  140.7580   75.2270  220.8720 C   0  0  0  0  0  0  0  0  0  0  0  0
  141.4330   75.3900  221.9780 O   0  0  0  0  0  0  0  0  0  0  0  0
  141.2660   75.8690  219.7180 N   0  0  0  0  0  0  0  0  0  0  0  0
  140.8930   75.7380  218.3180 C   0  0  0  0  0  0  0  0  0  0  0  0
  141.3010   77.1130  217.7280 C   0  0  2  0  0  0  0  0  0  0  0  0
  141.3780   77.0680  216.3510 O   0  0  0  0  0  0  0  0  0  0  0  0
  142.6560   77.2270  218.4080 C   0  0  0  0  0  0  0  0  0  0  0  0
  142.3540   76.8570  219.8240 C   0  0  1  0  0  0  0  0  0  0  0  0
  141.9110   78.0950  220.5150 C   0  0  0  0  0  0  0  0  0  0  0  0
  141.7220   79.1100  219.8080 O   0  0  0  0  0  0  0  0  0  0  0  0
  141.6910   78.1990  221.9010 N   0  0  0  0  0  0  0  0  0  0  0  0
  141.2660   79.4610  222.4400 C   0  0  1  0  0  0  0  0  0  0  0  0
  139.9160   79.9750  221.9550 C   0  0  0  0  0  0  0  0  0  0  0  0
  139.7570   80.5650  223.3430 C   0  0  1  0  0  0  0  0  0  0  0  0
  138.3970   80.5520  223.8910 C   0  0  0  0  0  0  0  0  0  0  0  0
  138.0860   81.2970  225.0340 C   0  0  0  0  0  0  0  0  0  0  0  0
  136.7950   81.2670  225.5220 C   0  0  0  0  0  0  0  0  0  0  0  0
  135.8240   80.5130  224.8970 C   0  0  0  0  0  0  0  0  0  0  0  0
  136.1020   79.7610  223.7600 C   0  0  0  0  0  0  0  0  0  0  0  0
  137.3990   79.8110  223.2930 C   0  0  0  0  0  0  0  0  0  0  0  0
  140.6330   79.3990  223.8250 C   0  0  0  0  0  0  0  0  0  0  0  0
  140.1830   71.5190  223.4390 C   0  0  0  0  0  0  0  0  0  0  0  0
  139.5420   70.3160  223.3320 C   0  0  0  0  0  0  0  0  0  0  0  0
  139.3650   69.4670  224.4200 C   0  0  0  0  0  0  0  0  0  0  0  0
  139.8540   69.8460  225.6530 C   0  0  0  0  0  0  0  0  0  0  0  0
  139.6870   69.0080  226.7490 C   0  0  0  0  0  0  0  0  0  0  0  0
  140.1870   69.4120  227.9710 C   0  0  0  0  0  0  0  0  0  0  0  0
  140.0630   68.6540  229.0840 F   0  0  0  0  0  0  0  0  0  0  0  0
  140.8380   70.6370  228.0720 C   0  0  0  0  0  0  0  0  0  0  0  0
  140.9860   71.4360  226.9800 C   0  0  0  0  0  0  0  0  0  0  0  0
  140.5000   71.0630  225.7450 C   0  0  0  0  0  0  0  0  0  0  0  0
  140.6490   71.8580  224.6630 N   0  0  0  0  0  0  0  0  0  0  0  0
  138.6970   73.6410  222.8370 H   0  0  0  0  0  0  0  0  0  0  0  0
  139.4865   73.7991  220.1075 H   0  0  0  0  0  0  0  0  0  0  0  0
  138.7778   75.1379  221.2209 H   0  0  0  0  0  0  0  0  0  0  0  0
  141.4460   74.9190  217.8349 H   0  0  0  0  0  0  0  0  0  0  0  0
  139.8301   75.4967  218.1696 H   0  0  0  0  0  0  0  0  0  0  0  0
  140.6169   77.9574  217.8982 H   0  0  0  0  0  0  0  0  0  0  0  0
  142.2430   77.5150  216.1150 H   0  0  0  0  0  0  0  0  0  0  0  0
  143.3814   76.5298  217.9633 H   0  0  0  0  0  0  0  0  0  0  0  0
  143.1086   78.2246  218.3078 H   0  0  0  0  0  0  0  0  0  0  0  0
  143.2019   76.4399  220.3872 H   0  0  0  0  0  0  0  0  0  0  0  0
  141.8360   77.3730  222.5130 H   0  0  0  0  0  0  0  0  0  0  0  0
  142.2022   80.0027  222.2396 H   0  0  0  0  0  0  0  0  0  0  0  0
  139.1871   79.1926  221.6972 H   0  0  0  0  0  0  0  0  0  0  0  0
  139.8077   80.5781  221.0414 H   0  0  0  0  0  0  0  0  0  0  0  0
  139.9872   81.6204  223.5507 H   0  0  0  0  0  0  0  0  0  0  0  0
  138.8587   81.8976  225.5362 H   0  0  0  0  0  0  0  0  0  0  0  0
  136.5382   81.8504  226.4185 H   0  0  0  0  0  0  0  0  0  0  0  0
  134.8037   80.5060  225.3080 H   0  0  0  0  0  0  0  0  0  0  0  0
  135.3290   79.1588  223.2602 H   0  0  0  0  0  0  0  0  0  0  0  0
  137.6512   79.2282  222.3948 H   0  0  0  0  0  0  0  0  0  0  0  0
  140.0899   78.4689  224.0485 H   0  0  0  0  0  0  0  0  0  0  0  0
  141.2231   79.4406  224.7524 H   0  0  0  0  0  0  0  0  0  0  0  0
  139.1522   70.0083  222.3505 H   0  0  0  0  0  0  0  0  0  0  0  0
  138.8423   68.5068  224.2987 H   0  0  0  0  0  0  0  0  0  0  0  0
  139.1678   68.0438  226.6452 H   0  0  0  0  0  0  0  0  0  0  0  0
  141.2371   70.9632  229.0438 H   0  0  0  0  0  0  0  0  0  0  0  0
  141.5047   72.4003  227.0852 H   0  0  0  0  0  0  0  0  0  0  0  0
  1  2  2  0
  2  3  1  0
  3  4  1  0
  4  5  1  0
  5  6  2  0
  5  7  1  0
  7  8  1  0
  8  9  1  0
  9 10  1  0
  9 11  1  0
 11 12  1  0
 12 13  1  0
 13 14  2  0
 13 15  1  0
 15 16  1  0
 16 17  1  0
 17 18  1  0
 18 19  1  0
 19 20  2  0
 20 21  1  0
 21 22  2  0
 22 23  1  0
 23 24  2  0
 18 25  1  0
  2 26  1  0
 26 27  2  0
 27 28  1  0
 28 29  2  0
 29 30  1  0
 30 31  2  0
 31 32  1  0
 31 33  1  0
 33 34  2  0
 34 35  1  0
 35 36  2  0
 12  7  1  0
 25 16  1  0
 36 26  1  0
 24 19  1  0
 35 29  1  0
  3 37  1  0
  4 38  1  0
  4 39  1  0
  8 40  1  0
  8 41  1  0
  9 42  1  6
 10 43  1  0
 11 44  1  0
 11 45  1  0
 12 46  1  1
 15 47  1  0
 16 48  1  1
 17 49  1  0
 17 50  1  0
 18 51  1  6
 20 52  1  0
 21 53  1  0
 22 54  1  0
 23 55  1  0
 24 56  1  0
 25 57  1  0
 25 58  1  0
 27 59  1  0
 28 60  1  0
 30 61  1  0
 33 62  1  0
 34 63  1  0
M  END
>  <smiles>  (41) 
O=C(NCC(=O)N1C[C@H](O)C[C@H]1C(=O)N[C@H]1C[C@@H](c2ccccc2)C1)c1ccc2cc(F)ccc2n1

>  <score_type>  (41) 
oracle

>  <origin>  (41) 
autodockgpu

>  <m_score__min__energy>  (41) 
-10.06

>  <m_primary>  (41) 
energy

>  <rmsd>  (41) 
2.1530278952209208

>  <m_score__min__rmsd>  (41) 
2.1530278952209208

>  <meeko>  (41) 
{"free_energy": -9.1, "intermolecular_energy": -11.49, "internal_energy": -2.33, "cluster_size": 4, "cluster_id": 2, "rank_in_cluster": 1}

>  <energy>  (41) 
-7.67

>  <cluster_rmsd>  (41) 
0.0

>  <cluster>  (41) 
11

$$$$

     RDKit          3D

 63 67  0  0  0  0  0  0  0  0999 V2000
  138.5870   75.5370  221.4740 O   0  0  0  0  0  0  0  0  0  0  0  0
  139.7720   75.8270  221.8310 C   0  0  0  0  0  0  0  0  0  0  0  0
  140.8440   74.8890  221.7430 N   0  0  0  0  0  0  0  0  0  0  0  0
  140.6490   73.5790  221.2420 C   0  0  0  0  0  0  0  0  0  0  0  0
  141.6940   72.5810  221.3880 C   0  0  0  0  0  0  0  0  0  0  0  0
  141.3300   71.5300  222.0710 O   0  0  0  0  0  0  0  0  0  0  0  0
  143.0250   72.5950  220.9070 N   0  0  0  0  0  0  0  0  0  0  0  0
  143.8710   71.5130  220.4280 C   0  0  0  0  0  0  0  0  0  0  0  0
  144.8500   72.2460  219.4730 C   0  0  2  0  0  0  0  0  0  0  0  0
  145.9620   71.4750  219.2020 O   0  0  0  0  0  0  0  0  0  0  0  0
  145.1430   73.4410  220.3650 C   0  0  0  0  0  0  0  0  0  0  0  0
  143.7840   73.8560  220.8290 C   0  0  1  0  0  0  0  0  0  0  0  0
  143.2300   74.7710  219.7980 C   0  0  0  0  0  0  0  0  0  0  0  0
  143.3830   74.4440  218.5990 O   0  0  0  0  0  0  0  0  0  0  0  0
  142.5500   75.9700  220.0790 N   0  0  0  0  0  0  0  0  0  0  0  0
  142.0680   76.7640  218.9830 C   0  0  1  0  0  0  0  0  0  0  0  0
  141.0050   77.8000  219.3230 C   0  0  0  0  0  0  0  0  0  0  0  0
  141.6360   78.6550  218.2410 C   0  0  1  0  0  0  0  0  0  0  0  0
  141.6540   80.0980  218.4970 C   0  0  0  0  0  0  0  0  0  0  0  0
  141.0940   80.6180  219.6700 C   0  0  0  0  0  0  0  0  0  0  0  0
  141.1300   81.9820  219.8810 C   0  0  0  0  0  0  0  0  0  0  0  0
  141.7050   82.8230  218.9530 C   0  0  0  0  0  0  0  0  0  0  0  0
  142.2690   82.3380  217.7770 C   0  0  0  0  0  0  0  0  0  0  0  0
  142.2200   80.9720  217.5920 C   0  0  0  0  0  0  0  0  0  0  0  0
  142.9510   77.9430  218.5940 C   0  0  0  0  0  0  0  0  0  0  0  0
  140.0590   77.1760  222.3560 C   0  0  0  0  0  0  0  0  0  0  0  0
  139.0660   78.0090  222.7930 C   0  0  0  0  0  0  0  0  0  0  0  0
  139.3300   79.2820  223.2900 C   0  0  0  0  0  0  0  0  0  0  0  0
  140.6340   79.7240  223.3470 C   0  0  0  0  0  0  0  0  0  0  0  0
  140.9130   80.9920  223.8420 C   0  0  0  0  0  0  0  0  0  0  0  0
  142.2280   81.4090  223.8890 C   0  0  0  0  0  0  0  0  0  0  0  0
  142.5810   82.6280  224.3550 F   0  0  0  0  0  0  0  0  0  0  0  0
  143.2320   80.5550  223.4420 C   0  0  0  0  0  0  0  0  0  0  0  0
  142.9280   79.3180  222.9630 C   0  0  0  0  0  0  0  0  0  0  0  0
  141.6250   78.8700  222.9020 C   0  0  0  0  0  0  0  0  0  0  0  0
  141.3270   77.6420  222.4270 N   0  0  0  0  0  0  0  0  0  0  0  0
  141.8090   75.1950  222.0660 H   0  0  0  0  0  0  0  0  0  0  0  0
  139.7552   73.1779  221.7422 H   0  0  0  0  0  0  0  0  0  0  0  0
  140.5955   73.7307  220.1538 H   0  0  0  0  0  0  0  0  0  0  0  0
  144.4104   71.0335  221.2581 H   0  0  0  0  0  0  0  0  0  0  0  0
  143.3099   70.7018  219.9410 H   0  0  0  0  0  0  0  0  0  0  0  0
  144.4819   72.4910  218.4658 H   0  0  0  0  0  0  0  0  0  0  0  0
  146.2750   71.1340  220.0900 H   0  0  0  0  0  0  0  0  0  0  0  0
  145.7800   73.1534  221.2145 H   0  0  0  0  0  0  0  0  0  0  0  0
  145.6884   74.2443  219.8480 H   0  0  0  0  0  0  0  0  0  0  0  0
  143.7624   74.3813  221.7952 H   0  0  0  0  0  0  0  0  0  0  0  0
  142.4050   76.2660  221.0640 H   0  0  0  0  0  0  0  0  0  0  0  0
  141.8658   75.9241  218.3021 H   0  0  0  0  0  0  0  0  0  0  0  0
  141.0707   78.2154  220.3394 H   0  0  0  0  0  0  0  0  0  0  0  0
  139.9313   77.5612  219.3346 H   0  0  0  0  0  0  0  0  0  0  0  0
  141.2239   78.6939  217.2219 H   0  0  0  0  0  0  0  0  0  0  0  0
  140.6324   79.9501  220.4122 H   0  0  0  0  0  0  0  0  0  0  0  0
  140.6950   82.4020  220.7999 H   0  0  0  0  0  0  0  0  0  0  0  0
  141.7185   83.9057  219.1469 H   0  0  0  0  0  0  0  0  0  0  0  0
  142.7289   83.0075  217.0352 H   0  0  0  0  0  0  0  0  0  0  0  0
  142.6565   80.5564  216.6718 H   0  0  0  0  0  0  0  0  0  0  0  0
  143.5181   78.3941  219.4216 H   0  0  0  0  0  0  0  0  0  0  0  0
  143.7881   77.8524  217.8861 H   0  0  0  0  0  0  0  0  0  0  0  0
  138.0234   77.6610  222.7502 H   0  0  0  0  0  0  0  0  0  0  0  0
  138.5079   79.9273  223.6331 H   0  0  0  0  0  0  0  0  0  0  0  0
  140.1027   81.6499  224.1892 H   0  0  0  0  0  0  0  0  0  0  0  0
  144.2814   80.8831  223.4762 H   0  0  0  0  0  0  0  0  0  0  0  0
  143.7394   78.6609  222.6168 H   0  0  0  0  0  0  0  0  0  0  0  0
  1  2  2  0
  2  3  1  0
  3  4  1  0
  4  5  1  0
  5  6  2  0
  5  7  1  0
  7  8  1  0
  8  9  1  0
  9 10  1  0
  9 11  1  0
 11 12  1  0
 12 13  1  0
 13 14  2  0
 13 15  1  0
 15 16  1  0
 16 17  1  0
 17 18  1  0
 18 19  1  0
 19 20  2  0
 20 21  1  0
 21 22  2  0
 22 23  1  0
 23 24  2  0
 18 25  1  0
  2 26  1  0
 26 27  2  0
 27 28  1  0
 28 29  2  0
 29 30  1  0
 30 31  2  0
 31 32  1  0
 31 33  1  0
 33 34  2  0
 34 35  1  0
 35 36  2  0
 12  7  1  0
 25 16  1  0
 36 26  1  0
 24 19  1  0
 35 29  1  0
  3 37  1  0
  4 38  1  0
  4 39  1  0
  8 40  1  0
  8 41  1  0
  9 42  1  6
 10 43  1  0
 11 44  1  0
 11 45  1  0
 12 46  1  1
 15 47  1  0
 16 48  1  6
 17 49  1  0
 17 50  1  0
 18 51  1  6
 20 52  1  0
 21 53  1  0
 22 54  1  0
 23 55  1  0
 24 56  1  0
 25 57  1  0
 25 58  1  0
 27 59  1  0
 28 60  1  0
 30 61  1  0
 33 62  1  0
 34 63  1  0
M  END
>  <smiles>  (42) 
O=C(NCC(=O)N1C[C@H](O)C[C@H]1C(=O)N[C@H]1C[C@@H](c2ccccc2)C1)c1ccc2cc(F)ccc2n1

>  <score_type>  (42) 
oracle

>  <origin>  (42) 
autodockgpu

>  <m_score__min__energy>  (42) 
-10.06

>  <m_primary>  (42) 
energy

>  <rmsd>  (42) 
7.096374613105835

>  <m_score__min__rmsd>  (42) 
7.096374613105835

>  <meeko>  (42) 
{"free_energy": -8.22, "intermolecular_energy": -10.61, "internal_energy": -3.85, "cluster_size": 13, "cluster_id": 6, "rank_in_cluster": 1}

>  <energy>  (42) 
-7.54

>  <cluster_rmsd>  (42) 
0.0

>  <cluster>  (42) 
12

$$$$

     RDKit          3D

 63 67  0  0  0  0  0  0  0  0999 V2000
  143.0550   77.1200  219.4320 O   0  0  0  0  0  0  0  0  0  0  0  0
  142.9160   77.7220  218.3200 C   0  0  0  0  0  0  0  0  0  0  0  0
  143.2030   77.0900  217.0730 N   0  0  0  0  0  0  0  0  0  0  0  0
  143.6520   75.7490  217.0020 C   0  0  0  0  0  0  0  0  0  0  0  0
  142.9940   74.7190  217.7860 C   0  0  0  0  0  0  0  0  0  0  0  0
  141.7600   74.4880  217.4260 O   0  0  0  0  0  0  0  0  0  0  0  0
  143.4930   73.9540  218.8670 N   0  0  0  0  0  0  0  0  0  0  0  0
  144.8560   73.7450  219.3300 C   0  0  0  0  0  0  0  0  0  0  0  0
  144.6580   73.4250  220.8350 C   0  0  2  0  0  0  0  0  0  0  0  0
  145.7800   72.8330  221.3770 O   0  0  0  0  0  0  0  0  0  0  0  0
  143.4820   72.4740  220.6830 C   0  0  0  0  0  0  0  0  0  0  0  0
  142.5770   73.2020  219.7430 C   0  0  1  0  0  0  0  0  0  0  0  0
  141.7310   74.1060  220.5630 C   0  0  0  0  0  0  0  0  0  0  0  0
  141.4480   73.7330  221.7230 O   0  0  0  0  0  0  0  0  0  0  0  0
  141.2310   75.3460  220.1230 N   0  0  0  0  0  0  0  0  0  0  0  0
  140.4190   76.1210  221.0200 C   0  0  1  0  0  0  0  0  0  0  0  0
  141.0500   76.4690  222.3620 C   0  0  0  0  0  0  0  0  0  0  0  0
  140.2710   77.7680  222.2750 C   0  0  1  0  0  0  0  0  0  0  0  0
  140.9430   78.9530  222.8170 C   0  0  0  0  0  0  0  0  0  0  0  0
  142.3410   79.0290  222.8370 C   0  0  0  0  0  0  0  0  0  0  0  0
  142.9430   80.1600  223.3500 C   0  0  0  0  0  0  0  0  0  0  0  0
  142.1820   81.2020  223.8390 C   0  0  0  0  0  0  0  0  0  0  0  0
  140.7920   81.1570  223.8330 C   0  0  0  0  0  0  0  0  0  0  0  0
  140.2170   80.0150  223.3130 C   0  0  0  0  0  0  0  0  0  0  0  0
  140.3990   77.6200  220.7520 C   0  0  0  0  0  0  0  0  0  0  0  0
  142.4440   79.1190  218.3090 C   0  0  0  0  0  0  0  0  0  0  0  0
  142.2510   79.8100  217.1450 C   0  0  0  0  0  0  0  0  0  0  0  0
  141.8040   81.1280  217.1280 C   0  0  0  0  0  0  0  0  0  0  0  0
  141.5440   81.7650  218.3230 C   0  0  0  0  0  0  0  0  0  0  0  0
  141.0970   83.0800  218.3210 C   0  0  0  0  0  0  0  0  0  0  0  0
  140.8430   83.6930  219.5320 C   0  0  0  0  0  0  0  0  0  0  0  0
  140.4080   84.9700  219.6140 F   0  0  0  0  0  0  0  0  0  0  0  0
  141.0420   82.9840  220.7130 C   0  0  0  0  0  0  0  0  0  0  0  0
  141.4810   81.6950  220.6810 C   0  0  0  0  0  0  0  0  0  0  0  0
  141.7440   81.0530  219.4900 C   0  0  0  0  0  0  0  0  0  0  0  0
  142.1790   79.7750  219.4630 N   0  0  0  0  0  0  0  0  0  0  0  0
  143.0730   77.6540  216.1810 H   0  0  0  0  0  0  0  0  0  0  0  0
  143.5741   75.4438  215.9481 H   0  0  0  0  0  0  0  0  0  0  0  0
  144.6588   75.7966  217.4426 H   0  0  0  0  0  0  0  0  0  0  0  0
  145.3291   72.9027  218.8040 H   0  0  0  0  0  0  0  0  0  0  0  0
  145.5159   74.6064  219.1494 H   0  0  0  0  0  0  0  0  0  0  0  0
  144.4905   74.2747  221.5132 H   0  0  0  0  0  0  0  0  0  0  0  0
  145.4710   71.9510  221.7370 H   0  0  0  0  0  0  0  0  0  0  0  0
  143.8041   71.5127  220.2562 H   0  0  0  0  0  0  0  0  0  0  0  0
  143.0010   72.2246  221.6403 H   0  0  0  0  0  0  0  0  0  0  0  0
  141.9100   72.5611  219.1477 H   0  0  0  0  0  0  0  0  0  0  0  0
  141.4510   75.6850  219.1670 H   0  0  0  0  0  0  0  0  0  0  0  0
  139.5187   75.4935  220.9448 H   0  0  0  0  0  0  0  0  0  0  0  0
  142.1440   76.5820  222.3450 H   0  0  0  0  0  0  0  0  0  0  0  0
  140.9889   75.8012  223.2340 H   0  0  0  0  0  0  0  0  0  0  0  0
  139.3082   77.8997  222.7904 H   0  0  0  0  0  0  0  0  0  0  0  0
  142.9506   78.1994  222.4495 H   0  0  0  0  0  0  0  0  0  0  0  0
  144.0405   80.2315  223.3693 H   0  0  0  0  0  0  0  0  0  0  0  0
  142.6877   82.0910  224.2439 H   0  0  0  0  0  0  0  0  0  0  0  0
  140.1836   81.9869  224.2217 H   0  0  0  0  0  0  0  0  0  0  0  0
  139.1192   79.9485  223.2932 H   0  0  0  0  0  0  0  0  0  0  0  0
  141.3242   78.0289  220.3198 H   0  0  0  0  0  0  0  0  0  0  0  0
  139.6975   78.0897  220.0468 H   0  0  0  0  0  0  0  0  0  0  0  0
  142.4562   79.3067  216.1887 H   0  0  0  0  0  0  0  0  0  0  0  0
  141.6599   81.6549  216.1732 H   0  0  0  0  0  0  0  0  0  0  0  0
  140.9485   83.6215  217.3751 H   0  0  0  0  0  0  0  0  0  0  0  0
  140.8431   83.4686  221.6803 H   0  0  0  0  0  0  0  0  0  0  0  0
  141.6290   81.1540  221.6273 H   0  0  0  0  0  0  0  0  0  0  0  0
  1  2  2  0
  2  3  1  0
  3  4  1  0
  4  5  1  0
  5  6  2  0
  5  7  1  0
  7  8  1  0
  8  9  1  0
  9 10  1  0
  9 11  1  0
 11 12  1  0
 12 13  1  0
 13 14  2  0
 13 15  1  0
 15 16  1  0
 16 17  1  0
 17 18  1  0
 18 19  1  0
 19 20  2  0
 20 21  1  0
 21 22  2  0
 22 23  1  0
 23 24  2  0
 18 25  1  0
  2 26  1  0
 26 27  2  0
 27 28  1  0
 28 29  2  0
 29 30  1  0
 30 31  2  0
 31 32  1  0
 31 33  1  0
 33 34  2  0
 34 35  1  0
 35 36  2  0
 12  7  1  0
 25 16  1  0
 36 26  1  0
 24 19  1  0
 35 29  1  0
  3 37  1  0
  4 38  1  0
  4 39  1  0
  8 40  1  0
  8 41  1  0
  9 42  1  1
 10 43  1  0
 11 44  1  0
 11 45  1  0
 12 46  1  6
 15 47  1  0
 16 48  1  1
 17 49  1  0
 17 50  1  0
 18 51  1  6
 20 52  1  0
 21 53  1  0
 22 54  1  0
 23 55  1  0
 24 56  1  0
 25 57  1  0
 25 58  1  0
 27 59  1  0
 28 60  1  0
 30 61  1  0
 33 62  1  0
 34 63  1  0
M  END
>  <smiles>  (43) 
O=C(NCC(=O)N1C[C@H](O)C[C@H]1C(=O)N[C@H]1C[C@@H](c2ccccc2)C1)c1ccc2cc(F)ccc2n1

>  <score_type>  (43) 
oracle

>  <origin>  (43) 
autodockgpu

>  <m_score__min__energy>  (43) 
-10.06

>  <m_primary>  (43) 
energy

>  <rmsd>  (43) 
9.246943937416017

>  <m_score__min__rmsd>  (43) 
9.246943937416017

>  <meeko>  (43) 
{"free_energy": -7.54, "intermolecular_energy": -9.93, "internal_energy": -4.52, "cluster_size": 5, "cluster_id": 12, "rank_in_cluster": 1}

>  <energy>  (43) 
-7.28

>  <cluster_rmsd>  (43) 
0.74

>  <cluster>  (43) 
12

$$$$

     RDKit          3D

 63 67  0  0  0  0  0  0  0  0999 V2000
  141.5290   78.3280  217.1760 O   0  0  0  0  0  0  0  0  0  0  0  0
  141.8970   77.9640  218.3380 C   0  0  0  0  0  0  0  0  0  0  0  0
  142.3250   76.6310  218.6170 N   0  0  0  0  0  0  0  0  0  0  0  0
  142.3740   75.6370  217.6100 C   0  0  0  0  0  0  0  0  0  0  0  0
  142.4840   74.2360  217.9760 C   0  0  0  0  0  0  0  0  0  0  0  0
  141.7290   73.4440  217.2650 O   0  0  0  0  0  0  0  0  0  0  0  0
  143.2750   73.6270  218.9790 N   0  0  0  0  0  0  0  0  0  0  0  0
  144.6900   73.7690  219.2870 C   0  0  0  0  0  0  0  0  0  0  0  0
  144.7450   73.4190  220.7970 C   0  0  2  0  0  0  0  0  0  0  0  0
  146.0320   73.1300  221.2010 O   0  0  0  0  0  0  0  0  0  0  0  0
  143.8350   72.2020  220.7530 C   0  0  0  0  0  0  0  0  0  0  0  0
  142.6790   72.6750  219.9330 C   0  0  1  0  0  0  0  0  0  0  0  0
  141.7290   73.3430  220.8600 C   0  0  0  0  0  0  0  0  0  0  0  0
  141.4050   72.7210  221.8960 O   0  0  0  0  0  0  0  0  0  0  0  0
  141.1760   74.6200  220.6500 N   0  0  0  0  0  0  0  0  0  0  0  0
  140.2650   75.1470  221.6270 C   0  0  1  0  0  0  0  0  0  0  0  0
  140.7200   76.4050  222.3560 C   0  0  0  0  0  0  0  0  0  0  0  0
  139.2560   76.8010  222.3740 C   0  0  1  0  0  0  0  0  0  0  0  0
  138.9790   78.2320  222.2210 C   0  0  0  0  0  0  0  0  0  0  0  0
  138.6580   78.7630  220.9660 C   0  0  0  0  0  0  0  0  0  0  0  0
  138.3990   80.1140  220.8570 C   0  0  0  0  0  0  0  0  0  0  0  0
  138.4570   80.9340  221.9640 C   0  0  0  0  0  0  0  0  0  0  0  0
  138.7740   80.4370  223.2240 C   0  0  0  0  0  0  0  0  0  0  0  0
  139.0260   79.0840  223.3050 C   0  0  0  0  0  0  0  0  0  0  0  0
  139.1320   75.9990  221.0700 C   0  0  0  0  0  0  0  0  0  0  0  0
  141.8830   78.9440  219.4400 C   0  0  0  0  0  0  0  0  0  0  0  0
  141.5550   80.2570  219.2380 C   0  0  0  0  0  0  0  0  0  0  0  0
  141.5390   81.1870  220.2730 C   0  0  0  0  0  0  0  0  0  0  0  0
  141.8630   80.7770  221.5490 C   0  0  0  0  0  0  0  0  0  0  0  0
  141.8500   81.6940  222.5930 C   0  0  0  0  0  0  0  0  0  0  0  0
  142.1770   81.2560  223.8610 C   0  0  0  0  0  0  0  0  0  0  0  0
  142.1890   82.0860  224.9280 F   0  0  0  0  0  0  0  0  0  0  0  0
  142.5090   79.9190  224.0580 C   0  0  0  0  0  0  0  0  0  0  0  0
  142.5120   79.0440  223.0150 C   0  0  0  0  0  0  0  0  0  0  0  0
  142.1910   79.4480  221.7370 C   0  0  0  0  0  0  0  0  0  0  0  0
  142.1950   78.5780  220.7040 N   0  0  0  0  0  0  0  0  0  0  0  0
  142.6120   76.3930  219.6120 H   0  0  0  0  0  0  0  0  0  0  0  0
  141.4523   75.7390  217.0183 H   0  0  0  0  0  0  0  0  0  0  0  0
  143.3276   75.8404  217.1008 H   0  0  0  0  0  0  0  0  0  0  0  0
  145.2974   73.0687  218.6948 H   0  0  0  0  0  0  0  0  0  0  0  0
  145.0901   74.7670  219.0546 H   0  0  0  0  0  0  0  0  0  0  0  0
  144.4459   74.2040  221.5072 H   0  0  0  0  0  0  0  0  0  0  0  0
  145.9970   72.1970  221.5630 H   0  0  0  0  0  0  0  0  0  0  0  0
  144.3378   71.3497  220.2726 H   0  0  0  0  0  0  0  0  0  0  0  0
  143.5408   71.8449  221.7510 H   0  0  0  0  0  0  0  0  0  0  0  0
  142.1318   71.8838  219.3995 H   0  0  0  0  0  0  0  0  0  0  0  0
  141.4290   75.1620  219.8010 H   0  0  0  0  0  0  0  0  0  0  0  0
  140.0888   74.1986  222.1557 H   0  0  0  0  0  0  0  0  0  0  0  0
  141.3731   77.0694  221.7712 H   0  0  0  0  0  0  0  0  0  0  0  0
  141.3328   76.3690  223.2688 H   0  0  0  0  0  0  0  0  0  0  0  0
  138.6213   76.6247  223.2549 H   0  0  0  0  0  0  0  0  0  0  0  0
  138.6129   78.1128  220.0799 H   0  0  0  0  0  0  0  0  0  0  0  0
  138.1435   80.5415  219.8762 H   0  0  0  0  0  0  0  0  0  0  0  0
  138.2474   82.0076  221.8479 H   0  0  0  0  0  0  0  0  0  0  0  0
  138.8211   81.0889  224.1088 H   0  0  0  0  0  0  0  0  0  0  0  0
  139.2785   78.6604  224.2883 H   0  0  0  0  0  0  0  0  0  0  0  0
  139.3753   76.5575  220.1541 H   0  0  0  0  0  0  0  0  0  0  0  0
  138.1803   75.5708  220.7223 H   0  0  0  0  0  0  0  0  0  0  0  0
  141.2949   80.5889  218.2220 H   0  0  0  0  0  0  0  0  0  0  0  0
  141.2714   82.2356  220.0758 H   0  0  0  0  0  0  0  0  0  0  0  0
  141.5849   82.7463  222.4131 H   0  0  0  0  0  0  0  0  0  0  0  0
  142.7715   79.5658  225.0661 H   0  0  0  0  0  0  0  0  0  0  0  0
  142.7763   77.9917  223.1962 H   0  0  0  0  0  0  0  0  0  0  0  0
  1  2  2  0
  2  3  1  0
  3  4  1  0
  4  5  1  0
  5  6  2  0
  5  7  1  0
  7  8  1  0
  8  9  1  0
  9 10  1  0
  9 11  1  0
 11 12  1  0
 12 13  1  0
 13 14  2  0
 13 15  1  0
 15 16  1  0
 16 17  1  0
 17 18  1  0
 18 19  1  0
 19 20  2  0
 20 21  1  0
 21 22  2  0
 22 23  1  0
 23 24  2  0
 18 25  1  0
  2 26  1  0
 26 27  2  0
 27 28  1  0
 28 29  2  0
 29 30  1  0
 30 31  2  0
 31 32  1  0
 31 33  1  0
 33 34  2  0
 34 35  1  0
 35 36  2  0
 12  7  1  0
 25 16  1  0
 36 26  1  0
 24 19  1  0
 35 29  1  0
  3 37  1  0
  4 38  1  0
  4 39  1  0
  8 40  1  0
  8 41  1  0
  9 42  1  1
 10 43  1  0
 11 44  1  0
 11 45  1  0
 12 46  1  6
 15 47  1  0
 16 48  1  1
 17 49  1  0
 17 50  1  0
 18 51  1  1
 20 52  1  0
 21 53  1  0
 22 54  1  0
 23 55  1  0
 24 56  1  0
 25 57  1  0
 25 58  1  0
 27 59  1  0
 28 60  1  0
 30 61  1  0
 33 62  1  0
 34 63  1  0
M  END
>  <smiles>  (44) 
O=C(NCC(=O)N1C[C@H](O)C[C@H]1C(=O)N[C@H]1C[C@@H](c2ccccc2)C1)c1ccc2cc(F)ccc2n1

>  <score_type>  (44) 
oracle

>  <origin>  (44) 
autodockgpu

>  <m_score__min__energy>  (44) 
-10.06

>  <m_primary>  (44) 
energy

>  <rmsd>  (44) 
8.045447405123468

>  <m_score__min__rmsd>  (44) 
8.045447405123468

>  <meeko>  (44) 
{"free_energy": -6.81, "intermolecular_energy": -9.2, "internal_energy": -4.3, "cluster_size": 13, "cluster_id": 6, "rank_in_cluster": 11}

>  <energy>  (44) 
-7.25

>  <cluster_rmsd>  (44) 
0.51

>  <cluster>  (44) 
12

$$$$

     RDKit          3D

 63 67  0  0  0  0  0  0  0  0999 V2000
  140.3530   73.0530  222.5730 O   0  0  0  0  0  0  0  0  0  0  0  0
  140.0320   73.8800  221.6620 C   0  0  0  0  0  0  0  0  0  0  0  0
  139.9760   73.5110  220.2850 N   0  0  0  0  0  0  0  0  0  0  0  0
  140.2660   72.1940  219.8530 C   0  0  0  0  0  0  0  0  0  0  0  0
  141.5530   71.8910  219.2550 C   0  0  0  0  0  0  0  0  0  0  0  0
  141.5170   70.9170  218.3860 O   0  0  0  0  0  0  0  0  0  0  0  0
  142.8150   72.4900  219.4840 N   0  0  0  0  0  0  0  0  0  0  0  0
  144.1500   72.0690  219.0880 C   0  0  0  0  0  0  0  0  0  0  0  0
  144.9270   73.4100  219.0350 C   0  0  2  0  0  0  0  0  0  0  0  0
  146.2920   73.2040  219.0440 O   0  0  0  0  0  0  0  0  0  0  0  0
  144.3940   74.0020  220.3300 C   0  0  0  0  0  0  0  0  0  0  0  0
  142.9230   73.7550  220.2320 C   0  0  1  0  0  0  0  0  0  0  0  0
  142.3380   74.8940  219.4790 C   0  0  0  0  0  0  0  0  0  0  0  0
  142.0320   74.6950  218.2830 O   0  0  0  0  0  0  0  0  0  0  0  0
  142.1060   76.1720  220.0210 N   0  0  0  0  0  0  0  0  0  0  0  0
  141.5360   77.1870  219.1780 C   0  0  1  0  0  0  0  0  0  0  0  0
  140.2470   77.8260  219.6790 C   0  0  0  0  0  0  0  0  0  0  0  0
  140.7450   79.1000  219.0230 C   0  0  1  0  0  0  0  0  0  0  0  0
  140.4230   80.3470  219.7240 C   0  0  0  0  0  0  0  0  0  0  0  0
  141.4350   81.1050  220.3250 C   0  0  0  0  0  0  0  0  0  0  0  0
  141.0990   82.2760  220.9740 C   0  0  0  0  0  0  0  0  0  0  0  0
  139.7860   82.6950  221.0340 C   0  0  0  0  0  0  0  0  0  0  0  0
  138.7580   81.9640  220.4480 C   0  0  0  0  0  0  0  0  0  0  0  0
  139.1230   80.7990  219.8050 C   0  0  0  0  0  0  0  0  0  0  0  0
  142.1580   78.5710  219.3110 C   0  0  0  0  0  0  0  0  0  0  0  0
  139.7070   75.2710  222.0320 C   0  0  0  0  0  0  0  0  0  0  0  0
  138.4230   75.7410  222.0240 C   0  0  0  0  0  0  0  0  0  0  0  0
  138.1090   77.0520  222.3720 C   0  0  0  0  0  0  0  0  0  0  0  0
  139.1230   77.9100  222.7410 C   0  0  0  0  0  0  0  0  0  0  0  0
  138.8240   79.2200  223.0930 C   0  0  0  0  0  0  0  0  0  0  0  0
  139.8590   80.0580  223.4600 C   0  0  0  0  0  0  0  0  0  0  0  0
  139.6510   81.3460  223.8140 F   0  0  0  0  0  0  0  0  0  0  0  0
  141.1630   79.5720  223.4660 C   0  0  0  0  0  0  0  0  0  0  0  0
  141.4230   78.2820  223.1160 C   0  0  0  0  0  0  0  0  0  0  0  0
  140.4140   77.4190  222.7450 C   0  0  0  0  0  0  0  0  0  0  0  0
  140.6760   76.1410  222.4000 N   0  0  0  0  0  0  0  0  0  0  0  0
  139.7080   74.2550  219.5740 H   0  0  0  0  0  0  0  0  0  0  0  0
  140.1639   71.5420  220.7330 H   0  0  0  0  0  0  0  0  0  0  0  0
  139.5604   72.0402  219.0232 H   0  0  0  0  0  0  0  0  0  0  0  0
  144.5875   71.3859  219.8310 H   0  0  0  0  0  0  0  0  0  0  0  0
  144.1697   71.5146  218.1381 H   0  0  0  0  0  0  0  0  0  0  0  0
  144.7896   74.0358  218.1409 H   0  0  0  0  0  0  0  0  0  0  0  0
  146.7020   74.1170  219.0040 H   0  0  0  0  0  0  0  0  0  0  0  0
  144.8233   73.4911  221.2045 H   0  0  0  0  0  0  0  0  0  0  0  0
  144.6476   75.0647  220.4576 H   0  0  0  0  0  0  0  0  0  0  0  0
  142.3980   73.6803  221.1957 H   0  0  0  0  0  0  0  0  0  0  0  0
  142.3460   76.3670  221.0120 H   0  0  0  0  0  0  0  0  0  0  0  0
  141.5743   76.6076  218.2438 H   0  0  0  0  0  0  0  0  0  0  0  0
  140.1485   77.8755  220.7735 H   0  0  0  0  0  0  0  0  0  0  0  0
  139.2553   77.4006  219.4654 H   0  0  0  0  0  0  0  0  0  0  0  0
  140.4058   79.4043  218.0218 H   0  0  0  0  0  0  0  0  0  0  0  0
  142.4825   80.7723  220.2807 H   0  0  0  0  0  0  0  0  0  0  0  0
  141.8859   82.8810  221.4480 H   0  0  0  0  0  0  0  0  0  0  0  0
  139.5459   83.6314  221.5588 H   0  0  0  0  0  0  0  0  0  0  0  0
  137.7105   82.2967  220.4946 H   0  0  0  0  0  0  0  0  0  0  0  0
  138.3333   80.1977  219.3309 H   0  0  0  0  0  0  0  0  0  0  0  0
  142.5516   78.8115  220.3096 H   0  0  0  0  0  0  0  0  0  0  0  0
  143.0409   78.8854  218.7351 H   0  0  0  0  0  0  0  0  0  0  0  0
  137.6100   75.0597  221.7325 H   0  0  0  0  0  0  0  0  0  0  0  0
  137.0652   77.3987  222.3527 H   0  0  0  0  0  0  0  0  0  0  0  0
  137.7855   79.5823  223.0798 H   0  0  0  0  0  0  0  0  0  0  0  0
  141.9909   80.2357  223.7560 H   0  0  0  0  0  0  0  0  0  0  0  0
  142.4617   77.9203  223.1296 H   0  0  0  0  0  0  0  0  0  0  0  0
  1  2  2  0
  2  3  1  0
  3  4  1  0
  4  5  1  0
  5  6  2  0
  5  7  1  0
  7  8  1  0
  8  9  1  0
  9 10  1  0
  9 11  1  0
 11 12  1  0
 12 13  1  0
 13 14  2  0
 13 15  1  0
 15 16  1  0
 16 17  1  0
 17 18  1  0
 18 19  1  0
 19 20  2  0
 20 21  1  0
 21 22  2  0
 22 23  1  0
 23 24  2  0
 18 25  1  0
  2 26  1  0
 26 27  2  0
 27 28  1  0
 28 29  2  0
 29 30  1  0
 30 31  2  0
 31 32  1  0
 31 33  1  0
 33 34  2  0
 34 35  1  0
 35 36  2  0
 12  7  1  0
 25 16  1  0
 36 26  1  0
 24 19  1  0
 35 29  1  0
  3 37  1  0
  4 38  1  0
  4 39  1  0
  8 40  1  0
  8 41  1  0
  9 42  1  6
 10 43  1  0
 11 44  1  0
 11 45  1  0
 12 46  1  1
 15 47  1  0
 16 48  1  6
 17 49  1  0
 17 50  1  0
 18 51  1  6
 20 52  1  0
 21 53  1  0
 22 54  1  0
 23 55  1  0
 24 56  1  0
 25 57  1  0
 25 58  1  0
 27 59  1  0
 28 60  1  0
 30 61  1  0
 33 62  1  0
 34 63  1  0
M  END
>  <smiles>  (45) 
O=C(NCC(=O)N1C[C@H](O)C[C@H]1C(=O)N[C@H]1C[C@@H](c2ccccc2)C1)c1ccc2cc(F)ccc2n1

>  <score_type>  (45) 
oracle

>  <origin>  (45) 
autodockgpu

>  <m_score__min__energy>  (45) 
-10.06

>  <m_primary>  (45) 
energy

>  <rmsd>  (45) 
6.19858960364733

>  <m_score__min__rmsd>  (45) 
6.19858960364733

>  <meeko>  (45) 
{"free_energy": -7.3, "intermolecular_energy": -9.68, "internal_energy": -4.53, "cluster_size": 13, "cluster_id": 6, "rank_in_cluster": 7}

>  <energy>  (45) 
-6.66

>  <cluster_rmsd>  (45) 
1.0

>  <cluster>  (45) 
12

$$$$

     RDKit          3D

 63 67  0  0  0  0  0  0  0  0999 V2000
  143.0380   76.8840  219.5610 O   0  0  0  0  0  0  0  0  0  0  0  0
  142.9040   77.5800  218.5060 C   0  0  0  0  0  0  0  0  0  0  0  0
  143.1120   77.0350  217.2030 N   0  0  0  0  0  0  0  0  0  0  0  0
  143.4730   75.6790  217.0110 C   0  0  0  0  0  0  0  0  0  0  0  0
  142.8720   74.6440  217.8330 C   0  0  0  0  0  0  0  0  0  0  0  0
  141.6260   74.3890  217.5370 O   0  0  0  0  0  0  0  0  0  0  0  0
  143.4380   73.8940  218.8920 N   0  0  0  0  0  0  0  0  0  0  0  0
  144.8230   73.7440  219.3120 C   0  0  0  0  0  0  0  0  0  0  0  0
  144.6850   73.4030  220.8190 C   0  0  2  0  0  0  0  0  0  0  0  0
  145.8480   72.8590  221.3220 O   0  0  0  0  0  0  0  0  0  0  0  0
  143.5500   72.4000  220.6940 C   0  0  0  0  0  0  0  0  0  0  0  0
  142.5850   73.0940  219.7880 C   0  0  1  0  0  0  0  0  0  0  0  0
  141.7230   73.9510  220.6410 C   0  0  0  0  0  0  0  0  0  0  0  0
  141.4710   73.5430  221.7960 O   0  0  0  0  0  0  0  0  0  0  0  0
  141.1760   75.1830  220.2370 N   0  0  0  0  0  0  0  0  0  0  0  0
  140.3540   75.9110  221.1630 C   0  0  1  0  0  0  0  0  0  0  0  0
  141.0440   76.3990  222.4310 C   0  0  0  0  0  0  0  0  0  0  0  0
  140.1180   77.5970  222.3510 C   0  0  1  0  0  0  0  0  0  0  0  0
  140.6900   78.8770  222.7800 C   0  0  0  0  0  0  0  0  0  0  0  0
  142.0410   78.9660  223.1390 C   0  0  0  0  0  0  0  0  0  0  0  0
  142.5500   80.1860  223.5360 C   0  0  0  0  0  0  0  0  0  0  0  0
  141.7430   81.3040  223.5810 C   0  0  0  0  0  0  0  0  0  0  0  0
  140.3980   81.2480  223.2310 C   0  0  0  0  0  0  0  0  0  0  0  0
  139.9160   80.0170  222.8380 C   0  0  0  0  0  0  0  0  0  0  0  0
  140.1420   77.3830  220.8310 C   0  0  0  0  0  0  0  0  0  0  0  0
  142.5200   79.0000  218.6210 C   0  0  0  0  0  0  0  0  0  0  0  0
  141.9710   79.5120  219.7650 C   0  0  0  0  0  0  0  0  0  0  0  0
  141.6080   80.8500  219.8810 C   0  0  0  0  0  0  0  0  0  0  0  0
  141.8070   81.6960  218.8100 C   0  0  0  0  0  0  0  0  0  0  0  0
  141.4510   83.0340  218.9110 C   0  0  0  0  0  0  0  0  0  0  0  0
  141.6630   83.8580  217.8240 C   0  0  0  0  0  0  0  0  0  0  0  0
  141.3420   85.1720  217.8430 F   0  0  0  0  0  0  0  0  0  0  0  0
  142.2220   83.3310  216.6640 C   0  0  0  0  0  0  0  0  0  0  0  0
  142.5610   82.0140  216.5950 C   0  0  0  0  0  0  0  0  0  0  0  0
  142.3630   81.1630  217.6630 C   0  0  0  0  0  0  0  0  0  0  0  0
  142.7010   79.8580  217.5910 N   0  0  0  0  0  0  0  0  0  0  0  0
  142.9900   77.6750  216.3640 H   0  0  0  0  0  0  0  0  0  0  0  0
  143.2354   75.4322  215.9657 H   0  0  0  0  0  0  0  0  0  0  0  0
  144.5318   75.6549  217.3084 H   0  0  0  0  0  0  0  0  0  0  0  0
  145.3179   72.9286  218.7641 H   0  0  0  0  0  0  0  0  0  0  0  0
  145.4373   74.6360  219.1199 H   0  0  0  0  0  0  0  0  0  0  0  0
  144.4991   74.2391  221.5092 H   0  0  0  0  0  0  0  0  0  0  0  0
  145.6050   71.9340  221.6210 H   0  0  0  0  0  0  0  0  0  0  0  0
  143.9024   71.4579  220.2488 H   0  0  0  0  0  0  0  0  0  0  0  0
  143.1103   72.1206  221.6628 H   0  0  0  0  0  0  0  0  0  0  0  0
  141.9307   72.4279  219.2065 H   0  0  0  0  0  0  0  0  0  0  0  0
  141.3700   75.5500  219.2850 H   0  0  0  0  0  0  0  0  0  0  0  0
  139.5284   75.1847  221.1914 H   0  0  0  0  0  0  0  0  0  0  0  0
  142.1133   76.6307  222.3175 H   0  0  0  0  0  0  0  0  0  0  0  0
  141.1276   75.7769  223.3343 H   0  0  0  0  0  0  0  0  0  0  0  0
  139.1901   77.6485  222.9395 H   0  0  0  0  0  0  0  0  0  0  0  0
  142.6870   78.0764  223.1050 H   0  0  0  0  0  0  0  0  0  0  0  0
  143.6097   80.2677  223.8193 H   0  0  0  0  0  0  0  0  0  0  0  0
  142.1741   82.2639  223.9017 H   0  0  0  0  0  0  0  0  0  0  0  0
  139.7529   82.1383  223.2658 H   0  0  0  0  0  0  0  0  0  0  0  0
  138.8557   79.9402  222.5552 H   0  0  0  0  0  0  0  0  0  0  0  0
  140.9777   77.8676  220.3049 H   0  0  0  0  0  0  0  0  0  0  0  0
  139.3384   77.7343  220.1671 H   0  0  0  0  0  0  0  0  0  0  0  0
  141.8111   78.8423  220.6229 H   0  0  0  0  0  0  0  0  0  0  0  0
  141.1677   81.2285  220.8153 H   0  0  0  0  0  0  0  0  0  0  0  0
  141.0093   83.4292  219.8377 H   0  0  0  0  0  0  0  0  0  0  0  0
  142.3916   83.9839  215.7951 H   0  0  0  0  0  0  0  0  0  0  0  0
  143.0023   81.6199  215.6677 H   0  0  0  0  0  0  0  0  0  0  0  0
  1  2  2  0
  2  3  1  0
  3  4  1  0
  4  5  1  0
  5  6  2  0
  5  7  1  0
  7  8  1  0
  8  9  1  0
  9 10  1  0
  9 11  1  0
 11 12  1  0
 12 13  1  0
 13 14  2  0
 13 15  1  0
 15 16  1  0
 16 17  1  0
 17 18  1  0
 18 19  1  0
 19 20  2  0
 20 21  1  0
 21 22  2  0
 22 23  1  0
 23 24  2  0
 18 25  1  0
  2 26  1  0
 26 27  2  0
 27 28  1  0
 28 29  2  0
 29 30  1  0
 30 31  2  0
 31 32  1  0
 31 33  1  0
 33 34  2  0
 34 35  1  0
 35 36  2  0
 12  7  1  0
 25 16  1  0
 36 26  1  0
 24 19  1  0
 35 29  1  0
  3 37  1  0
  4 38  1  0
  4 39  1  0
  8 40  1  0
  8 41  1  0
  9 42  1  1
 10 43  1  0
 11 44  1  0
 11 45  1  0
 12 46  1  6
 15 47  1  0
 16 48  1  1
 17 49  1  0
 17 50  1  0
 18 51  1  1
 20 52  1  0
 21 53  1  0
 22 54  1  0
 23 55  1  0
 24 56  1  0
 25 57  1  0
 25 58  1  0
 27 59  1  0
 28 60  1  0
 30 61  1  0
 33 62  1  0
 34 63  1  0
M  END
>  <smiles>  (46) 
O=C(NCC(=O)N1C[C@H](O)C[C@H]1C(=O)N[C@H]1C[C@@H](c2ccccc2)C1)c1ccc2cc(F)ccc2n1

>  <score_type>  (46) 
oracle

>  <origin>  (46) 
autodockgpu

>  <m_score__min__energy>  (46) 
-10.06

>  <m_primary>  (46) 
energy

>  <rmsd>  (46) 
9.505921786486706

>  <m_score__min__rmsd>  (46) 
9.505921786486706

>  <meeko>  (46) 
{"free_energy": -7.28, "intermolecular_energy": -9.67, "internal_energy": -4.53, "cluster_size": 5, "cluster_id": 12, "rank_in_cluster": 2}

>  <energy>  (46) 
-6.31

>  <cluster_rmsd>  (46) 
1.41

>  <cluster>  (46) 
12

$$$$

     RDKit          3D

 63 67  0  0  0  0  0  0  0  0999 V2000
  138.8210   77.6120  221.3850 O   0  0  0  0  0  0  0  0  0  0  0  0
  139.2020   76.4430  221.7090 C   0  0  0  0  0  0  0  0  0  0  0  0
  138.4140   75.5880  222.5370 N   0  0  0  0  0  0  0  0  0  0  0  0
  137.1530   75.9920  223.0390 C   0  0  0  0  0  0  0  0  0  0  0  0
  136.0900   75.0180  223.2060 C   0  0  0  0  0  0  0  0  0  0  0  0
  135.8290   74.7280  224.4520 O   0  0  0  0  0  0  0  0  0  0  0  0
  135.3200   74.3490  222.2240 N   0  0  0  0  0  0  0  0  0  0  0  0
  134.9490   74.7500  220.8760 C   0  0  0  0  0  0  0  0  0  0  0  0
  134.7370   73.3880  220.1630 C   0  0  2  0  0  0  0  0  0  0  0  0
  134.0250   73.5370  218.9910 O   0  0  0  0  0  0  0  0  0  0  0  0
  133.9500   72.7050  221.2700 C   0  0  0  0  0  0  0  0  0  0  0  0
  134.7460   73.0190  222.4940 C   0  0  1  0  0  0  0  0  0  0  0  0
  135.7980   71.9770  222.6110 C   0  0  0  0  0  0  0  0  0  0  0  0
  135.6750   70.9550  221.9000 O   0  0  0  0  0  0  0  0  0  0  0  0
  136.9160   72.0650  223.4610 N   0  0  0  0  0  0  0  0  0  0  0  0
  137.8580   70.9800  223.4780 C   0  0  1  0  0  0  0  0  0  0  0  0
  139.2380   71.3000  224.0400 C   0  0  0  0  0  0  0  0  0  0  0  0
  139.2440   69.8750  224.5590 C   0  0  1  0  0  0  0  0  0  0  0  0
  139.8960   69.6710  225.8560 C   0  0  0  0  0  0  0  0  0  0  0  0
  140.3580   70.7640  226.5980 C   0  0  0  0  0  0  0  0  0  0  0  0
  140.9650   70.5380  227.8170 C   0  0  0  0  0  0  0  0  0  0  0  0
  141.1170   69.2550  228.3000 C   0  0  0  0  0  0  0  0  0  0  0  0
  140.6690   68.1480  227.5870 C   0  0  0  0  0  0  0  0  0  0  0  0
  140.0660   68.4030  226.3730 C   0  0  0  0  0  0  0  0  0  0  0  0
  137.7160   70.0110  224.6440 C   0  0  0  0  0  0  0  0  0  0  0  0
  140.5010   75.9450  221.2180 C   0  0  0  0  0  0  0  0  0  0  0  0
  141.3870   76.7540  220.5620 C   0  0  0  0  0  0  0  0  0  0  0  0
  142.6140   76.2910  220.0970 C   0  0  0  0  0  0  0  0  0  0  0  0
  142.9550   74.9700  220.3020 C   0  0  0  0  0  0  0  0  0  0  0  0
  144.1770   74.4940  219.8450 C   0  0  0  0  0  0  0  0  0  0  0  0
  144.4930   73.1680  220.0650 C   0  0  0  0  0  0  0  0  0  0  0  0
  145.6610   72.6280  219.6490 F   0  0  0  0  0  0  0  0  0  0  0  0
  143.5870   72.3500  220.7330 C   0  0  0  0  0  0  0  0  0  0  0  0
  142.3960   72.8470  221.1700 C   0  0  0  0  0  0  0  0  0  0  0  0
  142.0490   74.1660  220.9670 C   0  0  0  0  0  0  0  0  0  0  0  0
  140.8680   74.6550  221.4020 N   0  0  0  0  0  0  0  0  0  0  0  0
  138.7960   74.6260  222.7750 H   0  0  0  0  0  0  0  0  0  0  0  0
  137.3335   76.4371  224.0286 H   0  0  0  0  0  0  0  0  0  0  0  0
  136.7673   76.6526  222.2485 H   0  0  0  0  0  0  0  0  0  0  0  0
  134.0236   75.3446  220.8793 H   0  0  0  0  0  0  0  0  0  0  0  0
  135.7006   75.3872  220.3870 H   0  0  0  0  0  0  0  0  0  0  0  0
  135.6354   72.8509  219.8246 H   0  0  0  0  0  0  0  0  0  0  0  0
  134.5910   74.1210  218.4060 H   0  0  0  0  0  0  0  0  0  0  0  0
  132.9329   73.1173  221.3438 H   0  0  0  0  0  0  0  0  0  0  0  0
  133.8185   71.6255  221.1046 H   0  0  0  0  0  0  0  0  0  0  0  0
  134.1723   73.0283  223.4325 H   0  0  0  0  0  0  0  0  0  0  0  0
  137.0480   72.9030  224.0600 H   0  0  0  0  0  0  0  0  0  0  0  0
  137.7120   70.6737  222.4317 H   0  0  0  0  0  0  0  0  0  0  0  0
  139.2533   72.0773  224.8182 H   0  0  0  0  0  0  0  0  0  0  0  0
  140.0495   71.7049  223.4175 H   0  0  0  0  0  0  0  0  0  0  0  0
  139.7491   69.0641  224.0137 H   0  0  0  0  0  0  0  0  0  0  0  0
  140.2391   71.7884  226.2153 H   0  0  0  0  0  0  0  0  0  0  0  0
  141.3311   71.3897  228.4091 H   0  0  0  0  0  0  0  0  0  0  0  0
  141.6051   69.1034  229.2741 H   0  0  0  0  0  0  0  0  0  0  0  0
  140.7892   67.1241  227.9707 H   0  0  0  0  0  0  0  0  0  0  0  0
  139.7005   67.5485  225.7846 H   0  0  0  0  0  0  0  0  0  0  0  0
  137.3385   70.4556  225.5766 H   0  0  0  0  0  0  0  0  0  0  0  0
  137.0385   69.1447  224.6196 H   0  0  0  0  0  0  0  0  0  0  0  0
  141.1203   77.8082  220.3960 H   0  0  0  0  0  0  0  0  0  0  0  0
  143.3031   76.9694  219.5728 H   0  0  0  0  0  0  0  0  0  0  0  0
  144.8780   75.1589  219.3192 H   0  0  0  0  0  0  0  0  0  0  0  0
  143.8345   71.2929  220.9098 H   0  0  0  0  0  0  0  0  0  0  0  0
  141.6959   72.1814  221.6963 H   0  0  0  0  0  0  0  0  0  0  0  0
  1  2  2  0
  2  3  1  0
  3  4  1  0
  4  5  1  0
  5  6  2  0
  5  7  1  0
  7  8  1  0
  8  9  1  0
  9 10  1  0
  9 11  1  0
 11 12  1  0
 12 13  1  0
 13 14  2  0
 13 15  1  0
 15 16  1  0
 16 17  1  0
 17 18  1  0
 18 19  1  0
 19 20  2  0
 20 21  1  0
 21 22  2  0
 22 23  1  0
 23 24  2  0
 18 25  1  0
  2 26  1  0
 26 27  2  0
 27 28  1  0
 28 29  2  0
 29 30  1  0
 30 31  2  0
 31 32  1  0
 31 33  1  0
 33 34  2  0
 34 35  1  0
 35 36  2  0
 12  7  1  0
 25 16  1  0
 36 26  1  0
 24 19  1  0
 35 29  1  0
  3 37  1  0
  4 38  1  0
  4 39  1  0
  8 40  1  0
  8 41  1  0
  9 42  1  6
 10 43  1  0
 11 44  1  0
 11 45  1  0
 12 46  1  1
 15 47  1  0
 16 48  1  6
 17 49  1  0
 17 50  1  0
 18 51  1  6
 20 52  1  0
 21 53  1  0
 22 54  1  0
 23 55  1  0
 24 56  1  0
 25 57  1  0
 25 58  1  0
 27 59  1  0
 28 60  1  0
 30 61  1  0
 33 62  1  0
 34 63  1  0
M  END
>  <smiles>  (47) 
O=C(NCC(=O)N1C[C@H](O)C[C@H]1C(=O)N[C@H]1C[C@@H](c2ccccc2)C1)c1ccc2cc(F)ccc2n1

>  <score_type>  (47) 
oracle

>  <origin>  (47) 
autodockgpu

>  <m_score__min__energy>  (47) 
-10.06

>  <m_primary>  (47) 
energy

>  <rmsd>  (47) 
8.751944669438526

>  <m_score__min__rmsd>  (47) 
8.751944669438526

>  <meeko>  (47) 
{"free_energy": -7.86, "intermolecular_energy": -10.25, "internal_energy": -2.79, "cluster_size": 1, "cluster_id": 9, "rank_in_cluster": 1}

>  <energy>  (47) 
-6.74

>  <cluster_rmsd>  (47) 
0.0

>  <cluster>  (47) 
13

$$$$

     RDKit          3D

 63 67  0  0  0  0  0  0  0  0999 V2000
  139.5790   72.8740  222.1850 O   0  0  0  0  0  0  0  0  0  0  0  0
  139.0030   71.8730  222.7160 C   0  0  0  0  0  0  0  0  0  0  0  0
  137.8310   71.2830  222.1540 N   0  0  0  0  0  0  0  0  0  0  0  0
  137.2470   71.7760  220.9630 C   0  0  0  0  0  0  0  0  0  0  0  0
  136.8590   73.1710  220.8650 C   0  0  0  0  0  0  0  0  0  0  0  0
  136.9770   73.6710  219.6650 O   0  0  0  0  0  0  0  0  0  0  0  0
  136.3860   74.0460  221.8730 N   0  0  0  0  0  0  0  0  0  0  0  0
  135.8050   73.7650  223.1760 C   0  0  0  0  0  0  0  0  0  0  0  0
  136.1450   75.0460  223.9830 C   0  0  2  0  0  0  0  0  0  0  0  0
  135.3710   75.1460  225.1200 O   0  0  0  0  0  0  0  0  0  0  0  0
  135.7830   76.0590  222.9100 C   0  0  0  0  0  0  0  0  0  0  0  0
  136.4420   75.5070  221.6870 C   0  0  1  0  0  0  0  0  0  0  0  0
  137.8400   76.0100  221.6800 C   0  0  0  0  0  0  0  0  0  0  0  0
  138.0470   77.1380  222.1800 O   0  0  0  0  0  0  0  0  0  0  0  0
  138.9370   75.3050  221.1510 N   0  0  0  0  0  0  0  0  0  0  0  0
  140.2380   75.9120  221.2060 C   0  0  1  0  0  0  0  0  0  0  0  0
  140.3230   77.3570  220.7330 C   0  0  0  0  0  0  0  0  0  0  0  0
  141.3960   77.5330  221.7900 C   0  0  1  0  0  0  0  0  0  0  0  0
  141.4210   78.8340  222.4650 C   0  0  0  0  0  0  0  0  0  0  0  0
  140.2260   79.4830  222.7990 C   0  0  0  0  0  0  0  0  0  0  0  0
  140.2840   80.7060  223.4370 C   0  0  0  0  0  0  0  0  0  0  0  0
  141.4980   81.2840  223.7420 C   0  0  0  0  0  0  0  0  0  0  0  0
  142.7030   80.6640  223.4230 C   0  0  0  0  0  0  0  0  0  0  0  0
  142.6150   79.4440  222.7870 C   0  0  0  0  0  0  0  0  0  0  0  0
  140.6560   76.4380  222.5730 C   0  0  0  0  0  0  0  0  0  0  0  0
  139.5570   71.2960  223.9560 C   0  0  0  0  0  0  0  0  0  0  0  0
  140.5480   71.9160  224.6650 C   0  0  0  0  0  0  0  0  0  0  0  0
  141.0740   71.3780  225.8350 C   0  0  0  0  0  0  0  0  0  0  0  0
  140.5820   70.1770  226.3030 C   0  0  0  0  0  0  0  0  0  0  0  0
  141.0960   69.6280  227.4710 C   0  0  0  0  0  0  0  0  0  0  0  0
  140.5840   68.4260  227.9160 C   0  0  0  0  0  0  0  0  0  0  0  0
  141.0330   67.8260  229.0420 F   0  0  0  0  0  0  0  0  0  0  0  0
  139.5760   67.8000  227.1900 C   0  0  0  0  0  0  0  0  0  0  0  0
  139.0920   68.3650  226.0480 C   0  0  0  0  0  0  0  0  0  0  0  0
  139.5800   69.5640  225.5760 C   0  0  0  0  0  0  0  0  0  0  0  0
  139.0980   70.1200  224.4440 N   0  0  0  0  0  0  0  0  0  0  0  0
  137.3960   70.4530  222.6550 H   0  0  0  0  0  0  0  0  0  0  0  0
  137.9702   71.5907  220.1551 H   0  0  0  0  0  0  0  0  0  0  0  0
  136.2855   71.2437  220.9155 H   0  0  0  0  0  0  0  0  0  0  0  0
  134.7172   73.6193  223.1024 H   0  0  0  0  0  0  0  0  0  0  0  0
  136.1900   72.8433  223.6366 H   0  0  0  0  0  0  0  0  0  0  0  0
  137.1651   75.1324  224.3854 H   0  0  0  0  0  0  0  0  0  0  0  0
  135.0330   76.0890  225.1320 H   0  0  0  0  0  0  0  0  0  0  0  0
  134.6928   76.1212  222.7773 H   0  0  0  0  0  0  0  0  0  0  0  0
  136.1086   77.0813  223.1528 H   0  0  0  0  0  0  0  0  0  0  0  0
  135.9734   75.7945  220.7342 H   0  0  0  0  0  0  0  0  0  0  0  0
  138.7970   74.3650  220.7330 H   0  0  0  0  0  0  0  0  0  0  0  0
  140.7744   75.0992  220.6945 H   0  0  0  0  0  0  0  0  0  0  0  0
  139.4118   77.9520  220.8935 H   0  0  0  0  0  0  0  0  0  0  0  0
  140.4845   77.6240  219.6782 H   0  0  0  0  0  0  0  0  0  0  0  0
  142.4660   77.4795  221.5406 H   0  0  0  0  0  0  0  0  0  0  0  0
  139.2556   79.0253  222.5567 H   0  0  0  0  0  0  0  0  0  0  0  0
  139.3517   81.2248  223.7048 H   0  0  0  0  0  0  0  0  0  0  0  0
  141.5149   82.2595  224.2501 H   0  0  0  0  0  0  0  0  0  0  0  0
  143.6729   81.1228  223.6653 H   0  0  0  0  0  0  0  0  0  0  0  0
  143.5497   78.9283  222.5215 H   0  0  0  0  0  0  0  0  0  0  0  0
  139.8314   76.7947  223.2077 H   0  0  0  0  0  0  0  0  0  0  0  0
  141.1494   75.8087  223.3283 H   0  0  0  0  0  0  0  0  0  0  0  0
  140.9434   72.8743  224.2972 H   0  0  0  0  0  0  0  0  0  0  0  0
  141.8720   71.9034  226.3801 H   0  0  0  0  0  0  0  0  0  0  0  0
  141.8937   70.1401  228.0291 H   0  0  0  0  0  0  0  0  0  0  0  0
  139.1662   66.8412  227.5404 H   0  0  0  0  0  0  0  0  0  0  0  0
  138.2940   67.8524  225.4908 H   0  0  0  0  0  0  0  0  0  0  0  0
  1  2  2  0
  2  3  1  0
  3  4  1  0
  4  5  1  0
  5  6  2  0
  5  7  1  0
  7  8  1  0
  8  9  1  0
  9 10  1  0
  9 11  1  0
 11 12  1  0
 12 13  1  0
 13 14  2  0
 13 15  1  0
 15 16  1  0
 16 17  1  0
 17 18  1  0
 18 19  1  0
 19 20  2  0
 20 21  1  0
 21 22  2  0
 22 23  1  0
 23 24  2  0
 18 25  1  0
  2 26  1  0
 26 27  2  0
 27 28  1  0
 28 29  2  0
 29 30  1  0
 30 31  2  0
 31 32  1  0
 31 33  1  0
 33 34  2  0
 34 35  1  0
 35 36  2  0
 12  7  1  0
 25 16  1  0
 36 26  1  0
 24 19  1  0
 35 29  1  0
  3 37  1  0
  4 38  1  0
  4 39  1  0
  8 40  1  0
  8 41  1  0
  9 42  1  1
 10 43  1  0
 11 44  1  0
 11 45  1  0
 12 46  1  6
 15 47  1  0
 16 48  1  6
 17 49  1  0
 17 50  1  0
 18 51  1  6
 20 52  1  0
 21 53  1  0
 22 54  1  0
 23 55  1  0
 24 56  1  0
 25 57  1  0
 25 58  1  0
 27 59  1  0
 28 60  1  0
 30 61  1  0
 33 62  1  0
 34 63  1  0
M  END
>  <smiles>  (48) 
O=C(NCC(=O)N1C[C@H](O)C[C@H]1C(=O)N[C@H]1C[C@@H](c2ccccc2)C1)c1ccc2cc(F)ccc2n1

>  <score_type>  (48) 
oracle

>  <origin>  (48) 
autodockgpu

>  <m_score__min__energy>  (48) 
-10.06

>  <m_primary>  (48) 
energy

>  <rmsd>  (48) 
4.2586491881825985

>  <m_score__min__rmsd>  (48) 
4.2586491881825985

>  <meeko>  (48) 
{"free_energy": -7.85, "intermolecular_energy": -10.24, "internal_energy": -3.61, "cluster_size": 4, "cluster_id": 5, "rank_in_cluster": 4}

>  <energy>  (48) 
-6.41

>  <cluster_rmsd>  (48) 
0.0

>  <cluster>  (48) 
14

$$$$

     RDKit          3D

 63 67  0  0  0  0  0  0  0  0999 V2000
  140.6170   72.3370  221.3860 O   0  0  0  0  0  0  0  0  0  0  0  0
  139.6900   72.3140  222.2560 C   0  0  0  0  0  0  0  0  0  0  0  0
  138.5170   73.1180  222.1390 N   0  0  0  0  0  0  0  0  0  0  0  0
  138.3130   73.9830  221.0370 C   0  0  0  0  0  0  0  0  0  0  0  0
  139.4130   74.7800  220.5250 C   0  0  0  0  0  0  0  0  0  0  0  0
  139.9510   74.3020  219.4360 O   0  0  0  0  0  0  0  0  0  0  0  0
  139.9740   75.9750  221.0370 N   0  0  0  0  0  0  0  0  0  0  0  0
  139.7870   76.6360  222.3190 C   0  0  0  0  0  0  0  0  0  0  0  0
  141.1120   77.4240  222.4910 C   0  0  2  0  0  0  0  0  0  0  0  0
  140.9940   78.4070  223.4520 O   0  0  0  0  0  0  0  0  0  0  0  0
  141.2050   77.9690  221.0750 C   0  0  0  0  0  0  0  0  0  0  0  0
  140.9200   76.7680  220.2320 C   0  0  1  0  0  0  0  0  0  0  0  0
  142.2090   76.0560  220.0350 C   0  0  0  0  0  0  0  0  0  0  0  0
  143.1880   76.7360  219.6540 O   0  0  0  0  0  0  0  0  0  0  0  0
  142.3990   74.6780  220.2490 N   0  0  0  0  0  0  0  0  0  0  0  0
  143.7010   74.1160  220.0160 C   0  0  1  0  0  0  0  0  0  0  0  0
  144.0830   72.9280  220.8900 C   0  0  0  0  0  0  0  0  0  0  0  0
  144.8450   72.4160  219.6830 C   0  0  1  0  0  0  0  0  0  0  0  0
  144.8420   70.9620  219.4960 C   0  0  0  0  0  0  0  0  0  0  0  0
  145.9980   70.3000  219.0630 C   0  0  0  0  0  0  0  0  0  0  0  0
  145.9640   68.9300  218.9000 C   0  0  0  0  0  0  0  0  0  0  0  0
  144.8100   68.2190  219.1570 C   0  0  0  0  0  0  0  0  0  0  0  0
  143.6460   68.8470  219.5880 C   0  0  0  0  0  0  0  0  0  0  0  0
  143.7090   70.2160  219.7440 C   0  0  0  0  0  0  0  0  0  0  0  0
  143.7950   73.1540  218.8390 C   0  0  0  0  0  0  0  0  0  0  0  0
  139.8240   71.4310  223.4300 C   0  0  0  0  0  0  0  0  0  0  0  0
  139.4710   70.1100  223.3880 C   0  0  0  0  0  0  0  0  0  0  0  0
  139.5950   69.2710  224.4910 C   0  0  0  0  0  0  0  0  0  0  0  0
  140.0920   69.7820  225.6710 C   0  0  0  0  0  0  0  0  0  0  0  0
  140.2230   68.9570  226.7800 C   0  0  0  0  0  0  0  0  0  0  0  0
  140.7250   69.4950  227.9490 C   0  0  0  0  0  0  0  0  0  0  0  0
  140.8810   68.7570  229.0720 F   0  0  0  0  0  0  0  0  0  0  0  0
  141.0820   70.8390  227.9850 C   0  0  0  0  0  0  0  0  0  0  0  0
  140.9420   71.6230  226.8800 C   0  0  0  0  0  0  0  0  0  0  0  0
  140.4450   71.1180  225.6980 C   0  0  0  0  0  0  0  0  0  0  0  0
  140.3080   71.8980  224.6040 N   0  0  0  0  0  0  0  0  0  0  0  0
  137.7850   73.0560  222.9070 H   0  0  0  0  0  0  0  0  0  0  0  0
  137.9596   73.3576  220.2039 H   0  0  0  0  0  0  0  0  0  0  0  0
  137.6181   74.7377  221.4340 H   0  0  0  0  0  0  0  0  0  0  0  0
  138.9219   77.3149  222.2931 H   0  0  0  0  0  0  0  0  0  0  0  0
  139.5829   75.9385  223.1448 H   0  0  0  0  0  0  0  0  0  0  0  0
  141.9911   76.8607  222.8371 H   0  0  0  0  0  0  0  0  0  0  0  0
  140.1580   78.9090  223.2220 H   0  0  0  0  0  0  0  0  0  0  0  0
  140.4571   78.7575  220.9051 H   0  0  0  0  0  0  0  0  0  0  0  0
  142.1771   78.4334  220.8527 H   0  0  0  0  0  0  0  0  0  0  0  0
  140.4975   76.9850  219.2398 H   0  0  0  0  0  0  0  0  0  0  0  0
  141.6070   74.0880  220.5690 H   0  0  0  0  0  0  0  0  0  0  0  0
  144.2538   75.0664  220.0505 H   0  0  0  0  0  0  0  0  0  0  0  0
  143.2405   72.2967  221.2088 H   0  0  0  0  0  0  0  0  0  0  0  0
  144.5530   73.0485  221.8772 H   0  0  0  0  0  0  0  0  0  0  0  0
  145.9281   72.5744  219.5746 H   0  0  0  0  0  0  0  0  0  0  0  0
  146.9195   70.8639  218.8559 H   0  0  0  0  0  0  0  0  0  0  0  0
  146.8663   68.3995  218.5617 H   0  0  0  0  0  0  0  0  0  0  0  0
  144.8103   67.1279  219.0176 H   0  0  0  0  0  0  0  0  0  0  0  0
  142.7247   68.2821  219.7934 H   0  0  0  0  0  0  0  0  0  0  0  0
  142.8052   70.7420  220.0852 H   0  0  0  0  0  0  0  0  0  0  0  0
  142.8789   72.5821  218.6296 H   0  0  0  0  0  0  0  0  0  0  0  0
  143.9869   73.4894  217.8091 H   0  0  0  0  0  0  0  0  0  0  0  0
  139.0750   69.6964  222.4488 H   0  0  0  0  0  0  0  0  0  0  0  0
  139.3002   68.2135  224.4224 H   0  0  0  0  0  0  0  0  0  0  0  0
  139.9331   67.8971  226.7288 H   0  0  0  0  0  0  0  0  0  0  0  0
  141.4809   71.2724  228.9140 H   0  0  0  0  0  0  0  0  0  0  0  0
  141.2321   72.6828  226.9323 H   0  0  0  0  0  0  0  0  0  0  0  0
  1  2  2  0
  2  3  1  0
  3  4  1  0
  4  5  1  0
  5  6  2  0
  5  7  1  0
  7  8  1  0
  8  9  1  0
  9 10  1  0
  9 11  1  0
 11 12  1  0
 12 13  1  0
 13 14  2  0
 13 15  1  0
 15 16  1  0
 16 17  1  0
 17 18  1  0
 18 19  1  0
 19 20  2  0
 20 21  1  0
 21 22  2  0
 22 23  1  0
 23 24  2  0
 18 25  1  0
  2 26  1  0
 26 27  2  0
 27 28  1  0
 28 29  2  0
 29 30  1  0
 30 31  2  0
 31 32  1  0
 31 33  1  0
 33 34  2  0
 34 35  1  0
 35 36  2  0
 12  7  1  0
 25 16  1  0
 36 26  1  0
 24 19  1  0
 35 29  1  0
  3 37  1  0
  4 38  1  0
  4 39  1  0
  8 40  1  0
  8 41  1  0
  9 42  1  1
 10 43  1  0
 11 44  1  0
 11 45  1  0
 12 46  1  6
 15 47  1  0
 16 48  1  6
 17 49  1  0
 17 50  1  0
 18 51  1  1
 20 52  1  0
 21 53  1  0
 22 54  1  0
 23 55  1  0
 24 56  1  0
 25 57  1  0
 25 58  1  0
 27 59  1  0
 28 60  1  0
 30 61  1  0
 33 62  1  0
 34 63  1  0
M  END
>  <smiles>  (49) 
O=C(NCC(=O)N1C[C@H](O)C[C@H]1C(=O)N[C@H]1C[C@@H](c2ccccc2)C1)c1ccc2cc(F)ccc2n1

>  <score_type>  (49) 
oracle

>  <origin>  (49) 
autodockgpu

>  <m_score__min__energy>  (49) 
-10.06

>  <m_primary>  (49) 
energy

>  <rmsd>  (49) 
6.006333179875764

>  <m_score__min__rmsd>  (49) 
6.006333179875764

>  <meeko>  (49) 
{"free_energy": -8.17, "intermolecular_energy": -10.56, "internal_energy": -3.33, "cluster_size": 7, "cluster_id": 3, "rank_in_cluster": 6}

>  <energy>  (49) 
-6.37

>  <cluster_rmsd>  (49) 
0.0

>  <cluster>  (49) 
15

$$$$

     RDKit          3D

 63 67  0  0  0  0  0  0  0  0999 V2000
  138.5460   75.2330  221.2510 O   0  0  0  0  0  0  0  0  0  0  0  0
  139.6570   75.4970  221.8100 C   0  0  0  0  0  0  0  0  0  0  0  0
  140.6880   74.5190  221.9540 N   0  0  0  0  0  0  0  0  0  0  0  0
  140.5340   73.1980  221.4700 C   0  0  0  0  0  0  0  0  0  0  0  0
  141.2360   72.7760  220.2700 C   0  0  0  0  0  0  0  0  0  0  0  0
  140.4950   72.1000  219.4350 O   0  0  0  0  0  0  0  0  0  0  0  0
  142.5840   72.9880  219.8950 N   0  0  0  0  0  0  0  0  0  0  0  0
  143.5120   72.1320  219.1740 C   0  0  0  0  0  0  0  0  0  0  0  0
  144.4880   73.1540  218.5330 C   0  0  2  0  0  0  0  0  0  0  0  0
  145.6540   72.5450  218.1170 O   0  0  0  0  0  0  0  0  0  0  0  0
  144.6700   74.0460  219.7500 C   0  0  0  0  0  0  0  0  0  0  0  0
  143.2700   74.2480  220.2320 C   0  0  1  0  0  0  0  0  0  0  0  0
  142.7100   75.4000  219.4800 C   0  0  0  0  0  0  0  0  0  0  0  0
  142.4970   75.2390  218.2570 O   0  0  0  0  0  0  0  0  0  0  0  0
  142.4050   76.6510  220.0480 N   0  0  0  0  0  0  0  0  0  0  0  0
  141.8700   77.6820  219.2030 C   0  0  1  0  0  0  0  0  0  0  0  0
  140.4010   78.0240  219.4120 C   0  0  0  0  0  0  0  0  0  0  0  0
  140.7870   79.4470  219.0590 C   0  0  1  0  0  0  0  0  0  0  0  0
  140.0710   80.5020  219.7830 C   0  0  0  0  0  0  0  0  0  0  0  0
  138.6900   80.4090  219.9900 C   0  0  0  0  0  0  0  0  0  0  0  0
  138.0460   81.4170  220.6790 C   0  0  0  0  0  0  0  0  0  0  0  0
  138.7500   82.5030  221.1560 C   0  0  0  0  0  0  0  0  0  0  0  0
  140.1220   82.6250  220.9660 C   0  0  0  0  0  0  0  0  0  0  0  0
  140.7400   81.6030  220.2760 C   0  0  0  0  0  0  0  0  0  0  0  0
  142.1630   79.1090  219.6500 C   0  0  0  0  0  0  0  0  0  0  0  0
  139.8980   76.8550  222.3330 C   0  0  0  0  0  0  0  0  0  0  0  0
  138.8740   77.6700  222.7310 C   0  0  0  0  0  0  0  0  0  0  0  0
  139.0940   78.9530  223.2260 C   0  0  0  0  0  0  0  0  0  0  0  0
  140.3870   79.4230  223.3220 C   0  0  0  0  0  0  0  0  0  0  0  0
  140.6220   80.7000  223.8150 C   0  0  0  0  0  0  0  0  0  0  0  0
  141.9270   81.1450  223.9010 C   0  0  0  0  0  0  0  0  0  0  0  0
  142.2380   82.3750  224.3680 F   0  0  0  0  0  0  0  0  0  0  0  0
  142.9630   80.3100  223.4940 C   0  0  0  0  0  0  0  0  0  0  0  0
  142.7000   79.0620  223.0150 C   0  0  0  0  0  0  0  0  0  0  0  0
  141.4090   78.5870  222.9160 C   0  0  0  0  0  0  0  0  0  0  0  0
  141.1530   77.3490  222.4410 N   0  0  0  0  0  0  0  0  0  0  0  0
  141.5890   74.8050  222.4380 H   0  0  0  0  0  0  0  0  0  0  0  0
  140.8546   72.5245  222.2785 H   0  0  0  0  0  0  0  0  0  0  0  0
  139.4765   73.1613  221.1695 H   0  0  0  0  0  0  0  0  0  0  0  0
  144.0412   71.4539  219.8597 H   0  0  0  0  0  0  0  0  0  0  0  0
  143.0215   71.4760  218.4398 H   0  0  0  0  0  0  0  0  0  0  0  0
  144.1519   73.6674  217.6201 H   0  0  0  0  0  0  0  0  0  0  0  0
  145.3750   71.8680  217.4330 H   0  0  0  0  0  0  0  0  0  0  0  0
  145.2839   73.5493  220.5158 H   0  0  0  0  0  0  0  0  0  0  0  0
  145.1901   74.9882  219.5226 H   0  0  0  0  0  0  0  0  0  0  0  0
  143.1742   74.4659  221.3059 H   0  0  0  0  0  0  0  0  0  0  0  0
  142.5670   76.8140  221.0610 H   0  0  0  0  0  0  0  0  0  0  0  0
  142.2426   77.2691  218.2540 H   0  0  0  0  0  0  0  0  0  0  0  0
  140.0339   77.8843  220.4395 H   0  0  0  0  0  0  0  0  0  0  0  0
  139.5911   77.4872  218.8963 H   0  0  0  0  0  0  0  0  0  0  0  0
  140.6470   79.8480  218.0443 H   0  0  0  0  0  0  0  0  0  0  0  0
  138.1258   79.5450  219.6091 H   0  0  0  0  0  0  0  0  0  0  0  0
  136.9611   81.3536  220.8492 H   0  0  0  0  0  0  0  0  0  0  0  0
  138.2122   83.2929  221.7008 H   0  0  0  0  0  0  0  0  0  0  0  0
  140.6846   83.4906  221.3458 H   0  0  0  0  0  0  0  0  0  0  0  0
  141.8253   81.6695  220.1098 H   0  0  0  0  0  0  0  0  0  0  0  0
  142.2506   79.2485  220.7376 H   0  0  0  0  0  0  0  0  0  0  0  0
  143.0809   79.6453  219.3676 H   0  0  0  0  0  0  0  0  0  0  0  0
  137.8410   77.2991  222.6575 H   0  0  0  0  0  0  0  0  0  0  0  0
  138.2475   79.5833  223.5363 H   0  0  0  0  0  0  0  0  0  0  0  0
  139.7871   81.3431  224.1302 H   0  0  0  0  0  0  0  0  0  0  0  0
  144.0035   80.6606  223.5596 H   0  0  0  0  0  0  0  0  0  0  0  0
  143.5354   78.4193  222.7004 H   0  0  0  0  0  0  0  0  0  0  0  0
  1  2  2  0
  2  3  1  0
  3  4  1  0
  4  5  1  0
  5  6  2  0
  5  7  1  0
  7  8  1  0
  8  9  1  0
  9 10  1  0
  9 11  1  0
 11 12  1  0
 12 13  1  0
 13 14  2  0
 13 15  1  0
 15 16  1  0
 16 17  1  0
 17 18  1  0
 18 19  1  0
 19 20  2  0
 20 21  1  0
 21 22  2  0
 22 23  1  0
 23 24  2  0
 18 25  1  0
  2 26  1  0
 26 27  2  0
 27 28  1  0
 28 29  2  0
 29 30  1  0
 30 31  2  0
 31 32  1  0
 31 33  1  0
 33 34  2  0
 34 35  1  0
 35 36  2  0
 12  7  1  0
 25 16  1  0
 36 26  1  0
 24 19  1  0
 35 29  1  0
  3 37  1  0
  4 38  1  0
  4 39  1  0
  8 40  1  0
  8 41  1  0
  9 42  1  6
 10 43  1  0
 11 44  1  0
 11 45  1  0
 12 46  1  1
 15 47  1  0
 16 48  1  6
 17 49  1  0
 17 50  1  0
 18 51  1  6
 20 52  1  0
 21 53  1  0
 22 54  1  0
 23 55  1  0
 24 56  1  0
 25 57  1  0
 25 58  1  0
 27 59  1  0
 28 60  1  0
 30 61  1  0
 33 62  1  0
 34 63  1  0
M  END
>  <smiles>  (50) 
O=C(NCC(=O)N1C[C@H](O)C[C@H]1C(=O)N[C@H]1C[C@@H](c2ccccc2)C1)c1ccc2cc(F)ccc2n1

>  <score_type>  (50) 
oracle

>  <origin>  (50) 
autodockgpu

>  <m_score__min__energy>  (50) 
-10.06

>  <m_primary>  (50) 
energy

>  <rmsd>  (50) 
6.620951320598187

>  <m_score__min__rmsd>  (50) 
6.620951320598187

>  <meeko>  (50) 
{"free_energy": -6.5, "intermolecular_energy": -8.88, "internal_energy": -4.94, "cluster_size": 13, "cluster_id": 6, "rank_in_cluster": 13}

>  <energy>  (50) 
-6.22

>  <cluster_rmsd>  (50) 
0.0

>  <cluster>  (50) 
16

$$$$
