
     RDKit          3D

 53 56  0  0  0  0  0  0  0  0999 V2000
  141.1100   71.3940  221.3480 O   0  0  0  0  0  0  0  0  0  0  0  0
  140.5830   72.0120  222.3360 C   0  0  0  0  0  0  0  0  0  0  0  0
  140.2620   73.3750  222.2320 N   0  0  0  0  0  0  0  0  0  0  0  0
  140.5010   74.1650  221.0150 C   0  0  0  0  0  0  0  0  0  0  0  0
  140.6000   75.5740  221.4190 C   0  0  0  0  0  0  0  0  0  0  0  0
  139.9890   75.9460  222.4740 O   0  0  0  0  0  0  0  0  0  0  0  0
  141.3230   76.5770  220.7330 N   0  0  0  0  0  0  0  0  0  0  0  0
  141.4750   77.9490  221.1870 C   0  0  0  0  0  0  0  0  0  0  0  0
  141.0850   78.6450  219.8680 C   0  0  2  0  0  0  0  0  0  0  0  0
  139.8480   78.2180  219.4810 F   0  0  0  0  0  0  0  0  0  0  0  0
  142.1130   77.9380  218.9640 C   0  0  0  0  0  0  0  0  0  0  0  0
  142.0550   76.5130  219.4700 C   0  0  1  0  0  0  0  0  0  0  0  0
  143.3990   75.9050  219.7200 C   0  0  0  0  0  0  0  0  0  0  0  0
  143.3910   74.5320  220.0810 N   0  0  0  0  0  0  0  0  0  0  0  0
  144.7280   74.1710  220.6060 C   0  0  0  0  0  0  0  0  0  0  0  0
  144.6000   72.6770  220.7990 C   0  0  0  0  0  0  0  0  0  0  0  0
  143.6690   72.2550  219.7060 C   0  0  0  0  0  0  0  0  0  0  0  0
  143.2950   73.5790  219.0050 C   0  0  0  0  0  0  0  0  0  0  0  0
  140.3080   71.2990  223.5940 C   0  0  0  0  0  0  0  0  0  0  0  0
  139.6370   70.0890  223.5300 C   0  0  0  0  0  0  0  0  0  0  0  0
  139.4050   69.4590  224.7480 C   0  0  0  0  0  0  0  0  0  0  0  0
  139.8120   69.9970  225.9490 C   0  0  0  0  0  0  0  0  0  0  0  0
  139.5980   69.3990  227.1670 C   0  0  0  0  0  0  0  0  0  0  0  0
  140.0390   69.9990  228.3470 C   0  0  0  0  0  0  0  0  0  0  0  0
  140.6990   71.2090  228.3020 C   0  0  0  0  0  0  0  0  0  0  0  0
  140.9260   71.8230  227.1020 C   0  0  0  0  0  0  0  0  0  0  0  0
  140.4790   71.2080  225.9490 C   0  0  0  0  0  0  0  0  0  0  0  0
  140.7020   71.8140  224.7700 N   0  0  0  0  0  0  0  0  0  0  0  0
  139.8310   73.8400  223.0680 H   0  0  0  0  0  0  0  0  0  0  0  0
  141.4381   73.8443  220.5364 H   0  0  0  0  0  0  0  0  0  0  0  0
  139.6829   74.0242  220.2933 H   0  0  0  0  0  0  0  0  0  0  0  0
  140.7876   78.1960  222.0094 H   0  0  0  0  0  0  0  0  0  0  0  0
  142.4559   78.2167  221.6067 H   0  0  0  0  0  0  0  0  0  0  0  0
  141.0726   79.7448  219.8812 H   0  0  0  0  0  0  0  0  0  0  0  0
  141.8210   77.9977  217.9051 H   0  0  0  0  0  0  0  0  0  0  0  0
  143.1186   78.3818  219.0070 H   0  0  0  0  0  0  0  0  0  0  0  0
  141.5784   75.8795  218.7074 H   0  0  0  0  0  0  0  0  0  0  0  0
  143.9949   76.0104  218.8014 H   0  0  0  0  0  0  0  0  0  0  0  0
  143.8175   76.4420  220.5840 H   0  0  0  0  0  0  0  0  0  0  0  0
  145.5200   74.4136  219.8822 H   0  0  0  0  0  0  0  0  0  0  0  0
  145.0049   74.7134  221.5221 H   0  0  0  0  0  0  0  0  0  0  0  0
  145.5772   72.1831  220.6940 H   0  0  0  0  0  0  0  0  0  0  0  0
  144.2317   72.4071  221.7997 H   0  0  0  0  0  0  0  0  0  0  0  0
  144.1712   71.5702  219.0068 H   0  0  0  0  0  0  0  0  0  0  0  0
  142.7901   71.7118  220.0835 H   0  0  0  0  0  0  0  0  0  0  0  0
  144.0034   73.8166  218.1977 H   0  0  0  0  0  0  0  0  0  0  0  0
  142.3074   73.5582  218.5210 H   0  0  0  0  0  0  0  0  0  0  0  0
  139.3080   69.6533  222.5750 H   0  0  0  0  0  0  0  0  0  0  0  0
  138.8764   68.4944  224.7525 H   0  0  0  0  0  0  0  0  0  0  0  0
  139.0719   68.4341  227.2127 H   0  0  0  0  0  0  0  0  0  0  0  0
  139.8600   69.5064  229.3141 H   0  0  0  0  0  0  0  0  0  0  0  0
  141.0436   71.6811  229.2339 H   0  0  0  0  0  0  0  0  0  0  0  0
  141.4538   72.7870  227.0556 H   0  0  0  0  0  0  0  0  0  0  0  0
  1  2  2  0
  2  3  1  0
  3  4  1  0
  4  5  1  0
  5  6  2  0
  5  7  1  0
  7  8  1  0
  8  9  1  0
  9 10  1  0
  9 11  1  0
 11 12  1  0
 12 13  1  0
 13 14  1  0
 14 15  1  0
 15 16  1  0
 16 17  1  0
 17 18  1  0
  2 19  1  0
 19 20  2  0
 20 21  1  0
 21 22  2  0
 22 23  1  0
 23 24  2  0
 24 25  1  0
 25 26  2  0
 26 27  1  0
 27 28  2  0
 12  7  1  0
 18 14  1  0
 28 19  1  0
 27 22  1  0
  3 29  1  0
  4 30  1  0
  4 31  1  0
  8 32  1  0
  8 33  1  0
  9 34  1  1
 11 35  1  0
 11 36  1  0
 12 37  1  6
 13 38  1  0
 13 39  1  0
 15 40  1  0
 15 41  1  0
 16 42  1  0
 16 43  1  0
 17 44  1  0
 17 45  1  0
 18 46  1  0
 18 47  1  0
 20 48  1  0
 21 49  1  0
 23 50  1  0
 24 51  1  0
 25 52  1  0
 26 53  1  0
M  END
>  <smiles>  (1) 
O=C(NCC(=O)N1C[C@H](F)C[C@H]1CN1CCCC1)c1ccc2ccccc2n1

>  <score_type>  (1) 
oracle

>  <origin>  (1) 
autodockgpu

>  <m_score__min__energy>  (1) 
-8.4100000000000001

>  <m_primary>  (1) 
energy

>  <rmsd>  (1) 
4.20139144118632

>  <m_score__min__rmsd>  (1) 
4.20139144118632

>  <meeko>  (1) 
{"free_energy": -7.67, "intermolecular_energy": -9.46, "internal_energy": -2.37, "cluster_size": 16, "cluster_id": 3, "rank_in_cluster": 9}

>  <energy>  (1) 
-8.41

>  <cluster_rmsd>  (1) 
0.0

>  <cluster>  (1) 
1

$$$$

     RDKit          3D

 53 56  0  0  0  0  0  0  0  0999 V2000
  139.9000   70.9360  221.1830 O   0  0  0  0  0  0  0  0  0  0  0  0
  139.8260   71.6230  222.2590 C   0  0  0  0  0  0  0  0  0  0  0  0
  139.7010   73.0210  222.2020 N   0  0  0  0  0  0  0  0  0  0  0  0
  139.6460   73.7700  220.9380 C   0  0  0  0  0  0  0  0  0  0  0  0
  140.1700   75.1170  221.2030 C   0  0  0  0  0  0  0  0  0  0  0  0
  139.9650   75.6310  222.3520 O   0  0  0  0  0  0  0  0  0  0  0  0
  140.8930   75.9130  220.2860 N   0  0  0  0  0  0  0  0  0  0  0  0
  140.9370   75.6930  218.8490 C   0  0  0  0  0  0  0  0  0  0  0  0
  142.4670   75.7650  218.6780 C   0  0  2  0  0  0  0  0  0  0  0  0
  143.0560   74.8470  219.4980 F   0  0  0  0  0  0  0  0  0  0  0  0
  142.6700   77.1480  219.3250 C   0  0  0  0  0  0  0  0  0  0  0  0
  141.7370   77.0840  220.5140 C   0  0  1  0  0  0  0  0  0  0  0  0
  140.8620   78.2890  220.6630 C   0  0  0  0  0  0  0  0  0  0  0  0
  141.0210   79.0140  221.8730 N   0  0  0  0  0  0  0  0  0  0  0  0
  142.1900   79.9130  221.7380 C   0  0  0  0  0  0  0  0  0  0  0  0
  142.3100   80.4890  223.1300 C   0  0  0  0  0  0  0  0  0  0  0  0
  141.8420   79.3780  224.0170 C   0  0  0  0  0  0  0  0  0  0  0  0
  141.4340   78.2620  223.0300 C   0  0  0  0  0  0  0  0  0  0  0  0
  139.8730   70.9550  223.5690 C   0  0  0  0  0  0  0  0  0  0  0  0
  139.3960   69.6580  223.6630 C   0  0  0  0  0  0  0  0  0  0  0  0
  139.4640   69.0760  224.9240 C   0  0  0  0  0  0  0  0  0  0  0  0
  139.9740   69.7390  226.0190 C   0  0  0  0  0  0  0  0  0  0  0  0
  140.0550   69.1910  227.2760 C   0  0  0  0  0  0  0  0  0  0  0  0
  140.5830   69.9200  228.3420 C   0  0  0  0  0  0  0  0  0  0  0  0
  141.0320   71.2080  228.1430 C   0  0  0  0  0  0  0  0  0  0  0  0
  140.9630   71.7760  226.9020 C   0  0  0  0  0  0  0  0  0  0  0  0
  140.4350   71.0330  225.8630 C   0  0  0  0  0  0  0  0  0  0  0  0
  140.3680   71.5920  224.6430 N   0  0  0  0  0  0  0  0  0  0  0  0
  139.6440   73.5430  223.1100 H   0  0  0  0  0  0  0  0  0  0  0  0
  140.2628   73.2695  220.1771 H   0  0  0  0  0  0  0  0  0  0  0  0
  138.6138   73.8216  220.5614 H   0  0  0  0  0  0  0  0  0  0  0  0
  140.5299   74.7118  218.5634 H   0  0  0  0  0  0  0  0  0  0  0  0
  140.3455   76.3859  218.2325 H   0  0  0  0  0  0  0  0  0  0  0  0
  142.8529   75.6046  217.6605 H   0  0  0  0  0  0  0  0  0  0  0  0
  143.7132   77.2901  219.6437 H   0  0  0  0  0  0  0  0  0  0  0  0
  142.4630   77.9881  218.6458 H   0  0  0  0  0  0  0  0  0  0  0  0
  142.3342   77.0335  221.4364 H   0  0  0  0  0  0  0  0  0  0  0  0
  141.0798   78.9712  219.8281 H   0  0  0  0  0  0  0  0  0  0  0  0
  139.8284   77.9126  220.6701 H   0  0  0  0  0  0  0  0  0  0  0  0
  143.0944   79.3525  221.4587 H   0  0  0  0  0  0  0  0  0  0  0  0
  142.0739   80.6745  220.9528 H   0  0  0  0  0  0  0  0  0  0  0  0
  143.3529   80.7571  223.3547 H   0  0  0  0  0  0  0  0  0  0  0  0
  141.7264   81.4123  223.2604 H   0  0  0  0  0  0  0  0  0  0  0  0
  142.6520   79.0381  224.6791 H   0  0  0  0  0  0  0  0  0  0  0  0
  141.0173   79.6818  224.6785 H   0  0  0  0  0  0  0  0  0  0  0  0
  142.2853   77.6059  222.7960 H   0  0  0  0  0  0  0  0  0  0  0  0
  140.6554   77.5904  223.4207 H   0  0  0  0  0  0  0  0  0  0  0  0
  138.9884   69.1214  222.7935 H   0  0  0  0  0  0  0  0  0  0  0  0
  139.0967   68.0471  225.0523 H   0  0  0  0  0  0  0  0  0  0  0  0
  139.6989   68.1639  227.4443 H   0  0  0  0  0  0  0  0  0  0  0  0
  140.6410   69.4664  229.3424 H   0  0  0  0  0  0  0  0  0  0  0  0
  141.4471   71.7803  228.9857 H   0  0  0  0  0  0  0  0  0  0  0  0
  141.3201   72.8027  226.7335 H   0  0  0  0  0  0  0  0  0  0  0  0
  1  2  2  0
  2  3  1  0
  3  4  1  0
  4  5  1  0
  5  6  2  0
  5  7  1  0
  7  8  1  0
  8  9  1  0
  9 10  1  0
  9 11  1  0
 11 12  1  0
 12 13  1  0
 13 14  1  0
 14 15  1  0
 15 16  1  0
 16 17  1  0
 17 18  1  0
  2 19  1  0
 19 20  2  0
 20 21  1  0
 21 22  2  0
 22 23  1  0
 23 24  2  0
 24 25  1  0
 25 26  2  0
 26 27  1  0
 27 28  2  0
 12  7  1  0
 18 14  1  0
 28 19  1  0
 27 22  1  0
  3 29  1  0
  4 30  1  0
  4 31  1  0
  8 32  1  0
  8 33  1  0
  9 34  1  6
 11 35  1  0
 11 36  1  0
 12 37  1  1
 13 38  1  0
 13 39  1  0
 15 40  1  0
 15 41  1  0
 16 42  1  0
 16 43  1  0
 17 44  1  0
 17 45  1  0
 18 46  1  0
 18 47  1  0
 20 48  1  0
 21 49  1  0
 23 50  1  0
 24 51  1  0
 25 52  1  0
 26 53  1  0
M  END
>  <smiles>  (2) 
O=C(NCC(=O)N1C[C@H](F)C[C@H]1CN1CCCC1)c1ccc2ccccc2n1

>  <score_type>  (2) 
oracle

>  <origin>  (2) 
autodockgpu

>  <m_score__min__energy>  (2) 
-8.4100000000000001

>  <m_primary>  (2) 
energy

>  <rmsd>  (2) 
2.1718880044911466

>  <m_score__min__rmsd>  (2) 
2.1718880044911466

>  <meeko>  (2) 
{"free_energy": -8.25, "intermolecular_energy": -10.04, "internal_energy": -2.04, "cluster_size": 30, "cluster_id": 1, "rank_in_cluster": 10}

>  <energy>  (2) 
-8.41

>  <cluster_rmsd>  (2) 
0.33

>  <cluster>  (2) 
1

$$$$

     RDKit          3D

 53 56  0  0  0  0  0  0  0  0999 V2000
  139.8590   71.1250  221.1760 O   0  0  0  0  0  0  0  0  0  0  0  0
  139.8410   71.8160  222.2520 C   0  0  0  0  0  0  0  0  0  0  0  0
  139.7770   73.2170  222.1950 N   0  0  0  0  0  0  0  0  0  0  0  0
  139.7240   73.9670  220.9310 C   0  0  0  0  0  0  0  0  0  0  0  0
  140.4240   75.2410  221.1480 C   0  0  0  0  0  0  0  0  0  0  0  0
  140.4900   75.7020  222.3340 O   0  0  0  0  0  0  0  0  0  0  0  0
  141.0430   76.0200  220.1430 N   0  0  0  0  0  0  0  0  0  0  0  0
  140.7140   75.9630  218.7280 C   0  0  0  0  0  0  0  0  0  0  0  0
  142.1510   75.8220  218.1900 C   0  0  2  0  0  0  0  0  0  0  0  0
  142.7440   74.7370  218.7660 F   0  0  0  0  0  0  0  0  0  0  0  0
  142.7370   77.0750  218.8690 C   0  0  0  0  0  0  0  0  0  0  0  0
  142.1080   77.0150  220.2440 C   0  0  1  0  0  0  0  0  0  0  0  0
  141.5150   78.3130  220.6950 C   0  0  0  0  0  0  0  0  0  0  0  0
  142.0800   78.8650  221.8750 N   0  0  0  0  0  0  0  0  0  0  0  0
  141.1520   78.6260  223.0040 C   0  0  0  0  0  0  0  0  0  0  0  0
  141.8150   79.3890  224.1270 C   0  0  0  0  0  0  0  0  0  0  0  0
  142.4720   80.5420  223.4350 C   0  0  0  0  0  0  0  0  0  0  0  0
  142.1670   80.3020  221.9410 C   0  0  0  0  0  0  0  0  0  0  0  0
  139.8900   71.1470  223.5620 C   0  0  0  0  0  0  0  0  0  0  0  0
  139.4010   69.8550  223.6590 C   0  0  0  0  0  0  0  0  0  0  0  0
  139.4720   69.2730  224.9200 C   0  0  0  0  0  0  0  0  0  0  0  0
  139.9950   69.9310  226.0110 C   0  0  0  0  0  0  0  0  0  0  0  0
  140.0790   69.3820  227.2680 C   0  0  0  0  0  0  0  0  0  0  0  0
  140.6220   70.1060  228.3300 C   0  0  0  0  0  0  0  0  0  0  0  0
  141.0830   71.3900  228.1280 C   0  0  0  0  0  0  0  0  0  0  0  0
  141.0110   71.9580  226.8870 C   0  0  0  0  0  0  0  0  0  0  0  0
  140.4690   71.2200  225.8520 C   0  0  0  0  0  0  0  0  0  0  0  0
  140.3990   71.7800  224.6320 N   0  0  0  0  0  0  0  0  0  0  0  0
  139.7640   73.7430  223.1030 H   0  0  0  0  0  0  0  0  0  0  0  0
  140.2212   73.3956  220.1333 H   0  0  0  0  0  0  0  0  0  0  0  0
  138.6818   74.1427  220.6263 H   0  0  0  0  0  0  0  0  0  0  0  0
  140.0870   75.0942  218.4790 H   0  0  0  0  0  0  0  0  0  0  0  0
  140.1261   76.8037  218.3309 H   0  0  0  0  0  0  0  0  0  0  0  0
  142.2568   75.7237  217.0995 H   0  0  0  0  0  0  0  0  0  0  0  0
  143.8340   77.0202  218.9292 H   0  0  0  0  0  0  0  0  0  0  0  0
  142.5286   78.0097  218.3277 H   0  0  0  0  0  0  0  0  0  0  0  0
  142.8838   76.7680  220.9837 H   0  0  0  0  0  0  0  0  0  0  0  0
  141.6431   79.0445  219.8835 H   0  0  0  0  0  0  0  0  0  0  0  0
  140.4634   78.0977  220.9353 H   0  0  0  0  0  0  0  0  0  0  0  0
  140.1497   79.0245  222.7880 H   0  0  0  0  0  0  0  0  0  0  0  0
  140.9922   77.5608  223.2271 H   0  0  0  0  0  0  0  0  0  0  0  0
  141.0695   79.7418  224.8549 H   0  0  0  0  0  0  0  0  0  0  0  0
  142.5261   78.7738  224.6979 H   0  0  0  0  0  0  0  0  0  0  0  0
  142.0436   81.4970  223.7733 H   0  0  0  0  0  0  0  0  0  0  0  0
  143.5504   80.6026  223.6431 H   0  0  0  0  0  0  0  0  0  0  0  0
  141.2174   80.7730  221.6471 H   0  0  0  0  0  0  0  0  0  0  0  0
  142.9193   80.7304  221.2624 H   0  0  0  0  0  0  0  0  0  0  0  0
  138.9824   69.3222  222.7924 H   0  0  0  0  0  0  0  0  0  0  0  0
  139.0960   68.2476  225.0511 H   0  0  0  0  0  0  0  0  0  0  0  0
  139.7135   68.3587  227.4391 H   0  0  0  0  0  0  0  0  0  0  0  0
  140.6825   69.6519  229.3301 H   0  0  0  0  0  0  0  0  0  0  0  0
  141.5096   71.9583  228.9677 H   0  0  0  0  0  0  0  0  0  0  0  0
  141.3768   72.9811  226.7156 H   0  0  0  0  0  0  0  0  0  0  0  0
  1  2  2  0
  2  3  1  0
  3  4  1  0
  4  5  1  0
  5  6  2  0
  5  7  1  0
  7  8  1  0
  8  9  1  0
  9 10  1  0
  9 11  1  0
 11 12  1  0
 12 13  1  0
 13 14  1  0
 14 15  1  0
 15 16  1  0
 16 17  1  0
 17 18  1  0
  2 19  1  0
 19 20  2  0
 20 21  1  0
 21 22  2  0
 22 23  1  0
 23 24  2  0
 24 25  1  0
 25 26  2  0
 26 27  1  0
 27 28  2  0
 12  7  1  0
 18 14  1  0
 28 19  1  0
 27 22  1  0
  3 29  1  0
  4 30  1  0
  4 31  1  0
  8 32  1  0
  8 33  1  0
  9 34  1  6
 11 35  1  0
 11 36  1  0
 12 37  1  1
 13 38  1  0
 13 39  1  0
 15 40  1  0
 15 41  1  0
 16 42  1  0
 16 43  1  0
 17 44  1  0
 17 45  1  0
 18 46  1  0
 18 47  1  0
 20 48  1  0
 21 49  1  0
 23 50  1  0
 24 51  1  0
 25 52  1  0
 26 53  1  0
M  END
>  <smiles>  (3) 
O=C(NCC(=O)N1C[C@H](F)C[C@H]1CN1CCCC1)c1ccc2ccccc2n1

>  <score_type>  (3) 
oracle

>  <origin>  (3) 
autodockgpu

>  <m_score__min__energy>  (3) 
-8.4100000000000001

>  <m_primary>  (3) 
energy

>  <rmsd>  (3) 
1.7704965939231758

>  <m_score__min__rmsd>  (3) 
1.7704965939231758

>  <meeko>  (3) 
{"free_energy": -8.21, "intermolecular_energy": -10.0, "internal_energy": -2.0, "cluster_size": 30, "cluster_id": 1, "rank_in_cluster": 17}

>  <energy>  (3) 
-8.35

>  <cluster_rmsd>  (3) 
0.65

>  <cluster>  (3) 
1

$$$$

     RDKit          3D

 53 56  0  0  0  0  0  0  0  0999 V2000
  139.9040   71.2150  221.1690 O   0  0  0  0  0  0  0  0  0  0  0  0
  139.8470   71.8900  222.2530 C   0  0  0  0  0  0  0  0  0  0  0  0
  139.7410   73.2900  222.2140 N   0  0  0  0  0  0  0  0  0  0  0  0
  139.6880   74.0550  220.9600 C   0  0  0  0  0  0  0  0  0  0  0  0
  140.4510   75.2940  221.1690 C   0  0  0  0  0  0  0  0  0  0  0  0
  140.5720   75.7370  222.3580 O   0  0  0  0  0  0  0  0  0  0  0  0
  141.0760   76.0560  220.1550 N   0  0  0  0  0  0  0  0  0  0  0  0
  140.7560   75.9740  218.7400 C   0  0  0  0  0  0  0  0  0  0  0  0
  142.1970   75.8260  218.2130 C   0  0  2  0  0  0  0  0  0  0  0  0
  142.7880   74.7510  218.8120 F   0  0  0  0  0  0  0  0  0  0  0  0
  142.7770   77.0900  218.8740 C   0  0  0  0  0  0  0  0  0  0  0  0
  142.1390   77.0530  220.2460 C   0  0  1  0  0  0  0  0  0  0  0  0
  141.5420   78.3580  220.6710 C   0  0  0  0  0  0  0  0  0  0  0  0
  142.0770   78.9150  221.8620 N   0  0  0  0  0  0  0  0  0  0  0  0
  141.1400   78.6430  222.9770 C   0  0  0  0  0  0  0  0  0  0  0  0
  141.7680   79.4140  224.1150 C   0  0  0  0  0  0  0  0  0  0  0  0
  142.4030   80.5900  223.4410 C   0  0  0  0  0  0  0  0  0  0  0  0
  142.1240   80.3530  221.9410 C   0  0  0  0  0  0  0  0  0  0  0  0
  139.8930   71.2050  223.5550 C   0  0  0  0  0  0  0  0  0  0  0  0
  139.4080   69.9100  223.6340 C   0  0  0  0  0  0  0  0  0  0  0  0
  139.4760   69.3110  224.8870 C   0  0  0  0  0  0  0  0  0  0  0  0
  139.9930   69.9570  225.9890 C   0  0  0  0  0  0  0  0  0  0  0  0
  140.0740   69.3930  227.2390 C   0  0  0  0  0  0  0  0  0  0  0  0
  140.6100   70.1050  228.3120 C   0  0  0  0  0  0  0  0  0  0  0  0
  141.0670   71.3930  228.1280 C   0  0  0  0  0  0  0  0  0  0  0  0
  140.9980   71.9760  226.8940 C   0  0  0  0  0  0  0  0  0  0  0  0
  140.4630   71.2500  225.8480 C   0  0  0  0  0  0  0  0  0  0  0  0
  140.3960   71.8260  224.6350 N   0  0  0  0  0  0  0  0  0  0  0  0
  139.6980   73.8020  223.1290 H   0  0  0  0  0  0  0  0  0  0  0  0
  140.1367   73.4702  220.1435 H   0  0  0  0  0  0  0  0  0  0  0  0
  138.6468   74.2812  220.6865 H   0  0  0  0  0  0  0  0  0  0  0  0
  140.1319   75.1000  218.5023 H   0  0  0  0  0  0  0  0  0  0  0  0
  140.1693   76.8068  218.3249 H   0  0  0  0  0  0  0  0  0  0  0  0
  142.3096   75.7096  217.1250 H   0  0  0  0  0  0  0  0  0  0  0  0
  143.8736   77.0373  218.9423 H   0  0  0  0  0  0  0  0  0  0  0  0
  142.5712   78.0151  218.3155 H   0  0  0  0  0  0  0  0  0  0  0  0
  142.9102   76.8195  220.9948 H   0  0  0  0  0  0  0  0  0  0  0  0
  141.6975   79.0827  219.8582 H   0  0  0  0  0  0  0  0  0  0  0  0
  140.4827   78.1510  220.8834 H   0  0  0  0  0  0  0  0  0  0  0  0
  140.1307   79.0172  222.7505 H   0  0  0  0  0  0  0  0  0  0  0  0
  141.0049   77.5723  223.1898 H   0  0  0  0  0  0  0  0  0  0  0  0
  141.0040   79.7407  224.8358 H   0  0  0  0  0  0  0  0  0  0  0  0
  142.4878   78.8131  224.6902 H   0  0  0  0  0  0  0  0  0  0  0  0
  141.9445   81.5304  223.7806 H   0  0  0  0  0  0  0  0  0  0  0  0
  143.4765   80.6785  223.6642 H   0  0  0  0  0  0  0  0  0  0  0  0
  141.1657   80.8003  221.6383 H   0  0  0  0  0  0  0  0  0  0  0  0
  142.8735   80.8068  221.2760 H   0  0  0  0  0  0  0  0  0  0  0  0
  138.9943   69.3874  222.7590 H   0  0  0  0  0  0  0  0  0  0  0  0
  139.1030   68.2827  225.0030 H   0  0  0  0  0  0  0  0  0  0  0  0
  139.7114   68.3664  227.3958 H   0  0  0  0  0  0  0  0  0  0  0  0
  140.6682   69.6384  229.3064 H   0  0  0  0  0  0  0  0  0  0  0  0
  141.4880   71.9524  228.9764 H   0  0  0  0  0  0  0  0  0  0  0  0
  141.3611   73.0024  226.7370 H   0  0  0  0  0  0  0  0  0  0  0  0
  1  2  2  0
  2  3  1  0
  3  4  1  0
  4  5  1  0
  5  6  2  0
  5  7  1  0
  7  8  1  0
  8  9  1  0
  9 10  1  0
  9 11  1  0
 11 12  1  0
 12 13  1  0
 13 14  1  0
 14 15  1  0
 15 16  1  0
 16 17  1  0
 17 18  1  0
  2 19  1  0
 19 20  2  0
 20 21  1  0
 21 22  2  0
 22 23  1  0
 23 24  2  0
 24 25  1  0
 25 26  2  0
 26 27  1  0
 27 28  2  0
 12  7  1  0
 18 14  1  0
 28 19  1  0
 27 22  1  0
  3 29  1  0
  4 30  1  0
  4 31  1  0
  8 32  1  0
  8 33  1  0
  9 34  1  6
 11 35  1  0
 11 36  1  0
 12 37  1  1
 13 38  1  0
 13 39  1  0
 15 40  1  0
 15 41  1  0
 16 42  1  0
 16 43  1  0
 17 44  1  0
 17 45  1  0
 18 46  1  0
 18 47  1  0
 20 48  1  0
 21 49  1  0
 23 50  1  0
 24 51  1  0
 25 52  1  0
 26 53  1  0
M  END
>  <smiles>  (4) 
O=C(NCC(=O)N1C[C@H](F)C[C@H]1CN1CCCC1)c1ccc2ccccc2n1

>  <score_type>  (4) 
oracle

>  <origin>  (4) 
autodockgpu

>  <m_score__min__energy>  (4) 
-8.4100000000000001

>  <m_primary>  (4) 
energy

>  <rmsd>  (4) 
1.777486720240833

>  <m_score__min__rmsd>  (4) 
1.777486720240833

>  <meeko>  (4) 
{"free_energy": -8.21, "intermolecular_energy": -10.0, "internal_energy": -1.96, "cluster_size": 30, "cluster_id": 1, "rank_in_cluster": 16}

>  <energy>  (4) 
-8.33

>  <cluster_rmsd>  (4) 
0.6

>  <cluster>  (4) 
1

$$$$

     RDKit          3D

 53 56  0  0  0  0  0  0  0  0999 V2000
  140.9380   71.4550  221.3460 O   0  0  0  0  0  0  0  0  0  0  0  0
  140.4090   72.0120  222.3680 C   0  0  0  0  0  0  0  0  0  0  0  0
  139.9860   73.3500  222.3100 N   0  0  0  0  0  0  0  0  0  0  0  0
  140.1150   74.1790  221.1020 C   0  0  0  0  0  0  0  0  0  0  0  0
  140.0690   75.5850  221.5290 C   0  0  0  0  0  0  0  0  0  0  0  0
  139.6430   75.8490  222.7010 O   0  0  0  0  0  0  0  0  0  0  0  0
  140.4610   76.6950  220.7460 N   0  0  0  0  0  0  0  0  0  0  0  0
  140.0970   76.8990  219.3540 C   0  0  0  0  0  0  0  0  0  0  0  0
  141.5070   77.2120  218.8170 C   0  0  2  0  0  0  0  0  0  0  0  0
  142.3470   76.1820  219.1280 F   0  0  0  0  0  0  0  0  0  0  0  0
  141.8300   78.3690  219.7810 C   0  0  0  0  0  0  0  0  0  0  0  0
  141.2850   77.8500  221.0940 C   0  0  1  0  0  0  0  0  0  0  0  0
  140.4400   78.8410  221.8320 C   0  0  0  0  0  0  0  0  0  0  0  0
  141.1060   79.5740  222.8490 N   0  0  0  0  0  0  0  0  0  0  0  0
  141.0610   81.0140  222.5050 C   0  0  0  0  0  0  0  0  0  0  0  0
  141.9240   81.6260  223.5840 C   0  0  0  0  0  0  0  0  0  0  0  0
  142.9440   80.5680  223.8670 C   0  0  0  0  0  0  0  0  0  0  0  0
  142.5330   79.4000  222.9450 C   0  0  0  0  0  0  0  0  0  0  0  0
  140.2400   71.2550  223.6190 C   0  0  0  0  0  0  0  0  0  0  0  0
  139.6090   70.0230  223.5610 C   0  0  0  0  0  0  0  0  0  0  0  0
  139.4770   69.3520  224.7720 C   0  0  0  0  0  0  0  0  0  0  0  0
  139.9410   69.8720  225.9610 C   0  0  0  0  0  0  0  0  0  0  0  0
  139.8250   69.2330  227.1720 C   0  0  0  0  0  0  0  0  0  0  0  0
  140.3180   69.8180  228.3390 C   0  0  0  0  0  0  0  0  0  0  0  0
  140.9310   71.0520  228.2890 C   0  0  0  0  0  0  0  0  0  0  0  0
  141.0590   71.7070  227.0960 C   0  0  0  0  0  0  0  0  0  0  0  0
  140.5620   71.1070  225.9560 C   0  0  0  0  0  0  0  0  0  0  0  0
  140.6890   71.7530  224.7830 N   0  0  0  0  0  0  0  0  0  0  0  0
  139.5570   73.7650  223.1730 H   0  0  0  0  0  0  0  0  0  0  0  0
  141.0718   73.9688  220.6017 H   0  0  0  0  0  0  0  0  0  0  0  0
  139.3036   73.9611  220.3920 H   0  0  0  0  0  0  0  0  0  0  0  0
  139.6668   75.9953  218.8976 H   0  0  0  0  0  0  0  0  0  0  0  0
  139.3236   77.6567  219.1598 H   0  0  0  0  0  0  0  0  0  0  0  0
  141.5879   77.3977  217.7358 H   0  0  0  0  0  0  0  0  0  0  0  0
  142.9137   78.5476  219.8413 H   0  0  0  0  0  0  0  0  0  0  0  0
  141.3999   79.3338  219.4740 H   0  0  0  0  0  0  0  0  0  0  0  0
  142.1253   77.6156  221.7641 H   0  0  0  0  0  0  0  0  0  0  0  0
  140.0437   79.5602  221.1001 H   0  0  0  0  0  0  0  0  0  0  0  0
  139.6622   78.2541  222.3425 H   0  0  0  0  0  0  0  0  0  0  0  0
  141.4812   81.1987  221.5053 H   0  0  0  0  0  0  0  0  0  0  0  0
  140.0424   81.4275  222.4662 H   0  0  0  0  0  0  0  0  0  0  0  0
  142.4048   82.5481  223.2255 H   0  0  0  0  0  0  0  0  0  0  0  0
  141.3494   81.9132  224.4770 H   0  0  0  0  0  0  0  0  0  0  0  0
  143.9554   80.9236  223.6209 H   0  0  0  0  0  0  0  0  0  0  0  0
  142.9737   80.2805  224.9283 H   0  0  0  0  0  0  0  0  0  0  0  0
  143.0120   79.4835  221.9583 H   0  0  0  0  0  0  0  0  0  0  0  0
  142.8323   78.4120  223.3248 H   0  0  0  0  0  0  0  0  0  0  0  0
  139.2356   69.6018  222.6159 H   0  0  0  0  0  0  0  0  0  0  0  0
  138.9836   68.3689  224.7812 H   0  0  0  0  0  0  0  0  0  0  0  0
  139.3375   68.2482  227.2221 H   0  0  0  0  0  0  0  0  0  0  0  0
  140.2174   69.2936  229.3007 H   0  0  0  0  0  0  0  0  0  0  0  0
  141.3179   71.5104  229.2111 H   0  0  0  0  0  0  0  0  0  0  0  0
  141.5476   72.6912  227.0452 H   0  0  0  0  0  0  0  0  0  0  0  0
  1  2  2  0
  2  3  1  0
  3  4  1  0
  4  5  1  0
  5  6  2  0
  5  7  1  0
  7  8  1  0
  8  9  1  0
  9 10  1  0
  9 11  1  0
 11 12  1  0
 12 13  1  0
 13 14  1  0
 14 15  1  0
 15 16  1  0
 16 17  1  0
 17 18  1  0
  2 19  1  0
 19 20  2  0
 20 21  1  0
 21 22  2  0
 22 23  1  0
 23 24  2  0
 24 25  1  0
 25 26  2  0
 26 27  1  0
 27 28  2  0
 12  7  1  0
 18 14  1  0
 28 19  1  0
 27 22  1  0
  3 29  1  0
  4 30  1  0
  4 31  1  0
  8 32  1  0
  8 33  1  0
  9 34  1  6
 11 35  1  0
 11 36  1  0
 12 37  1  1
 13 38  1  0
 13 39  1  0
 15 40  1  0
 15 41  1  0
 16 42  1  0
 16 43  1  0
 17 44  1  0
 17 45  1  0
 18 46  1  0
 18 47  1  0
 20 48  1  0
 21 49  1  0
 23 50  1  0
 24 51  1  0
 25 52  1  0
 26 53  1  0
M  END
>  <smiles>  (5) 
O=C(NCC(=O)N1C[C@H](F)C[C@H]1CN1CCCC1)c1ccc2ccccc2n1

>  <score_type>  (5) 
oracle

>  <origin>  (5) 
autodockgpu

>  <m_score__min__energy>  (5) 
-8.4100000000000001

>  <m_primary>  (5) 
energy

>  <rmsd>  (5) 
2.178655609914446

>  <m_score__min__rmsd>  (5) 
2.178655609914446

>  <meeko>  (5) 
{"free_energy": -8.41, "intermolecular_energy": -10.2, "internal_energy": -1.87, "cluster_size": 30, "cluster_id": 1, "rank_in_cluster": 2}

>  <energy>  (5) 
-8.3

>  <cluster_rmsd>  (5) 
1.1

>  <cluster>  (5) 
1

$$$$

     RDKit          3D

 53 56  0  0  0  0  0  0  0  0999 V2000
  140.2760   71.1930  221.1680 O   0  0  0  0  0  0  0  0  0  0  0  0
  140.0610   71.8740  222.2290 C   0  0  0  0  0  0  0  0  0  0  0  0
  139.8690   73.2630  222.1550 N   0  0  0  0  0  0  0  0  0  0  0  0
  139.8980   74.0100  220.8890 C   0  0  0  0  0  0  0  0  0  0  0  0
  140.4340   75.3470  221.1810 C   0  0  0  0  0  0  0  0  0  0  0  0
  140.5360   75.7060  222.3990 O   0  0  0  0  0  0  0  0  0  0  0  0
  140.8560   76.2910  220.2170 N   0  0  0  0  0  0  0  0  0  0  0  0
  140.6380   76.1700  218.7850 C   0  0  0  0  0  0  0  0  0  0  0  0
  142.0830   76.4620  218.3330 C   0  0  2  0  0  0  0  0  0  0  0  0
  142.9320   75.5830  218.9410 F   0  0  0  0  0  0  0  0  0  0  0  0
  142.2410   77.8160  219.0490 C   0  0  0  0  0  0  0  0  0  0  0  0
  141.5800   77.5490  220.3840 C   0  0  1  0  0  0  0  0  0  0  0  0
  140.6120   78.6110  220.8030 C   0  0  0  0  0  0  0  0  0  0  0  0
  140.9950   79.3740  221.9370 N   0  0  0  0  0  0  0  0  0  0  0  0
  142.1950   80.1710  221.5920 C   0  0  0  0  0  0  0  0  0  0  0  0
  142.5540   80.7950  222.9200 C   0  0  0  0  0  0  0  0  0  0  0  0
  142.1390   79.7650  223.9230 C   0  0  0  0  0  0  0  0  0  0  0  0
  141.5140   78.6430  223.0650 C   0  0  0  0  0  0  0  0  0  0  0  0
  140.0160   71.2070  223.5400 C   0  0  0  0  0  0  0  0  0  0  0  0
  139.4310   69.9540  223.6200 C   0  0  0  0  0  0  0  0  0  0  0  0
  139.4160   69.3700  224.8820 C   0  0  0  0  0  0  0  0  0  0  0  0
  139.9460   69.9920  225.9910 C   0  0  0  0  0  0  0  0  0  0  0  0
  139.9470   69.4420  227.2500 C   0  0  0  0  0  0  0  0  0  0  0  0
  140.5020   70.1280  228.3310 C   0  0  0  0  0  0  0  0  0  0  0  0
  141.0610   71.3740  228.1450 C   0  0  0  0  0  0  0  0  0  0  0  0
  141.0740   71.9420  226.9020 C   0  0  0  0  0  0  0  0  0  0  0  0
  140.5170   71.2430  225.8490 C   0  0  0  0  0  0  0  0  0  0  0  0
  140.5310   71.8040  224.6270 N   0  0  0  0  0  0  0  0  0  0  0  0
  139.6970   73.7800  223.0520 H   0  0  0  0  0  0  0  0  0  0  0  0
  140.5451   73.4955  220.1634 H   0  0  0  0  0  0  0  0  0  0  0  0
  138.8891   74.0815  220.4565 H   0  0  0  0  0  0  0  0  0  0  0  0
  140.3050   75.1621  218.4963 H   0  0  0  0  0  0  0  0  0  0  0  0
  139.8549   76.8125  218.3561 H   0  0  0  0  0  0  0  0  0  0  0  0
  142.2741   76.4206  217.2505 H   0  0  0  0  0  0  0  0  0  0  0  0
  143.3015   78.0798  219.1744 H   0  0  0  0  0  0  0  0  0  0  0  0
  141.8012   78.6610  218.4990 H   0  0  0  0  0  0  0  0  0  0  0  0
  142.3515   77.5218  221.1676 H   0  0  0  0  0  0  0  0  0  0  0  0
  140.4809   79.3026  219.9577 H   0  0  0  0  0  0  0  0  0  0  0  0
  139.6909   78.0833  221.0912 H   0  0  0  0  0  0  0  0  0  0  0  0
  143.0071   79.5290  221.2201 H   0  0  0  0  0  0  0  0  0  0  0  0
  142.0233   80.9047  220.7906 H   0  0  0  0  0  0  0  0  0  0  0  0
  143.6349   80.9891  222.9822 H   0  0  0  0  0  0  0  0  0  0  0  0
  142.0629   81.7662  223.0799 H   0  0  0  0  0  0  0  0  0  0  0  0
  143.0088   79.3912  224.4831 H   0  0  0  0  0  0  0  0  0  0  0  0
  141.4421   80.1620  224.6758 H   0  0  0  0  0  0  0  0  0  0  0  0
  142.2732   77.9116  222.7509 H   0  0  0  0  0  0  0  0  0  0  0  0
  140.7526   78.0534  223.5967 H   0  0  0  0  0  0  0  0  0  0  0  0
  139.0044   69.4517  222.7393 H   0  0  0  0  0  0  0  0  0  0  0  0
  138.9640   68.3740  224.9991 H   0  0  0  0  0  0  0  0  0  0  0  0
  139.5043   68.4475  227.4080 H   0  0  0  0  0  0  0  0  0  0  0  0
  140.4933   69.6738  229.3328 H   0  0  0  0  0  0  0  0  0  0  0  0
  141.4977   71.9125  228.9990 H   0  0  0  0  0  0  0  0  0  0  0  0
  141.5189   72.9354  226.7434 H   0  0  0  0  0  0  0  0  0  0  0  0
  1  2  2  0
  2  3  1  0
  3  4  1  0
  4  5  1  0
  5  6  2  0
  5  7  1  0
  7  8  1  0
  8  9  1  0
  9 10  1  0
  9 11  1  0
 11 12  1  0
 12 13  1  0
 13 14  1  0
 14 15  1  0
 15 16  1  0
 16 17  1  0
 17 18  1  0
  2 19  1  0
 19 20  2  0
 20 21  1  0
 21 22  2  0
 22 23  1  0
 23 24  2  0
 24 25  1  0
 25 26  2  0
 26 27  1  0
 27 28  2  0
 12  7  1  0
 18 14  1  0
 28 19  1  0
 27 22  1  0
  3 29  1  0
  4 30  1  0
  4 31  1  0
  8 32  1  0
  8 33  1  0
  9 34  1  6
 11 35  1  0
 11 36  1  0
 12 37  1  1
 13 38  1  0
 13 39  1  0
 15 40  1  0
 15 41  1  0
 16 42  1  0
 16 43  1  0
 17 44  1  0
 17 45  1  0
 18 46  1  0
 18 47  1  0
 20 48  1  0
 21 49  1  0
 23 50  1  0
 24 51  1  0
 25 52  1  0
 26 53  1  0
M  END
>  <smiles>  (6) 
O=C(NCC(=O)N1C[C@H](F)C[C@H]1CN1CCCC1)c1ccc2ccccc2n1

>  <score_type>  (6) 
oracle

>  <origin>  (6) 
autodockgpu

>  <m_score__min__energy>  (6) 
-8.4100000000000001

>  <m_primary>  (6) 
energy

>  <rmsd>  (6) 
2.1457643079580055

>  <m_score__min__rmsd>  (6) 
2.1457643079580055

>  <meeko>  (6) 
{"free_energy": -8.15, "intermolecular_energy": -9.94, "internal_energy": -2.02, "cluster_size": 30, "cluster_id": 1, "rank_in_cluster": 18}

>  <energy>  (6) 
-8.29

>  <cluster_rmsd>  (6) 
0.39

>  <cluster>  (6) 
1

$$$$

     RDKit          3D

 53 56  0  0  0  0  0  0  0  0999 V2000
  139.7310   71.0900  221.2220 O   0  0  0  0  0  0  0  0  0  0  0  0
  139.7410   71.7650  222.3080 C   0  0  0  0  0  0  0  0  0  0  0  0
  139.6600   73.1660  222.2740 N   0  0  0  0  0  0  0  0  0  0  0  0
  139.5590   73.9340  221.0240 C   0  0  0  0  0  0  0  0  0  0  0  0
  140.2120   75.2310  221.2510 C   0  0  0  0  0  0  0  0  0  0  0  0
  140.0980   75.7740  222.3990 O   0  0  0  0  0  0  0  0  0  0  0  0
  140.9700   75.9470  220.2970 N   0  0  0  0  0  0  0  0  0  0  0  0
  141.0430   75.6240  218.8820 C   0  0  0  0  0  0  0  0  0  0  0  0
  142.5770   75.6590  218.7420 C   0  0  2  0  0  0  0  0  0  0  0  0
  143.1310   74.7920  219.6390 F   0  0  0  0  0  0  0  0  0  0  0  0
  142.7910   77.0810  219.2940 C   0  0  0  0  0  0  0  0  0  0  0  0
  141.8300   77.1170  220.4620 C   0  0  1  0  0  0  0  0  0  0  0  0
  140.9730   78.3440  220.5030 C   0  0  0  0  0  0  0  0  0  0  0  0
  141.0490   79.1020  221.7010 N   0  0  0  0  0  0  0  0  0  0  0  0
  142.1580   80.0760  221.5790 C   0  0  0  0  0  0  0  0  0  0  0  0
  142.1990   80.6850  222.9610 C   0  0  0  0  0  0  0  0  0  0  0  0
  141.7830   79.5620  223.8580 C   0  0  0  0  0  0  0  0  0  0  0  0
  141.4800   78.4020  222.8850 C   0  0  0  0  0  0  0  0  0  0  0  0
  139.8400   71.0780  223.6060 C   0  0  0  0  0  0  0  0  0  0  0  0
  139.4170   69.7610  223.6860 C   0  0  0  0  0  0  0  0  0  0  0  0
  139.5330   69.1620  224.9350 C   0  0  0  0  0  0  0  0  0  0  0  0
  140.0360   69.8270  226.0320 C   0  0  0  0  0  0  0  0  0  0  0  0
  140.1630   69.2630  227.2780 C   0  0  0  0  0  0  0  0  0  0  0  0
  140.6810   69.9950  228.3460 C   0  0  0  0  0  0  0  0  0  0  0  0
  141.0740   71.3040  228.1610 C   0  0  0  0  0  0  0  0  0  0  0  0
  140.9580   71.8880  226.9310 C   0  0  0  0  0  0  0  0  0  0  0  0
  140.4420   71.1410  225.8900 C   0  0  0  0  0  0  0  0  0  0  0  0
  140.3290   71.7180  224.6800 N   0  0  0  0  0  0  0  0  0  0  0  0
  139.6730   73.6780  223.1900 H   0  0  0  0  0  0  0  0  0  0  0  0
  140.0658   73.3953  220.2098 H   0  0  0  0  0  0  0  0  0  0  0  0
  138.5060   74.0740  220.7382 H   0  0  0  0  0  0  0  0  0  0  0  0
  140.6253   74.6314  218.6577 H   0  0  0  0  0  0  0  0  0  0  0  0
  140.4781   76.2806  218.2039 H   0  0  0  0  0  0  0  0  0  0  0  0
  142.9822   75.4205  217.7475 H   0  0  0  0  0  0  0  0  0  0  0  0
  143.8291   77.2279  219.6267 H   0  0  0  0  0  0  0  0  0  0  0  0
  142.6153   77.8742  218.5524 H   0  0  0  0  0  0  0  0  0  0  0  0
  142.4049   77.1223  221.3998 H   0  0  0  0  0  0  0  0  0  0  0  0
  141.2741   78.9959  219.6697 H   0  0  0  0  0  0  0  0  0  0  0  0
  139.9339   77.9894  220.4350 H   0  0  0  0  0  0  0  0  0  0  0  0
  143.1058   79.5733  221.3361 H   0  0  0  0  0  0  0  0  0  0  0  0
  142.0131   80.8128  220.7752 H   0  0  0  0  0  0  0  0  0  0  0  0
  143.2144   81.0284  223.2080 H   0  0  0  0  0  0  0  0  0  0  0  0
  141.5504   81.5683  223.0562 H   0  0  0  0  0  0  0  0  0  0  0  0
  142.5953   79.2914  224.5487 H   0  0  0  0  0  0  0  0  0  0  0  0
  140.9211   79.8213  224.4904 H   0  0  0  0  0  0  0  0  0  0  0  0
  142.3803   77.8015  222.6877 H   0  0  0  0  0  0  0  0  0  0  0  0
  140.7385   77.6860  223.2690 H   0  0  0  0  0  0  0  0  0  0  0  0
  139.0144   69.2229  222.8152 H   0  0  0  0  0  0  0  0  0  0  0  0
  139.2108   68.1168  225.0521 H   0  0  0  0  0  0  0  0  0  0  0  0
  139.8519   68.2197  227.4356 H   0  0  0  0  0  0  0  0  0  0  0  0
  140.7763   69.5278  229.3373 H   0  0  0  0  0  0  0  0  0  0  0  0
  141.4817   71.8792  229.0054 H   0  0  0  0  0  0  0  0  0  0  0  0
  141.2690   72.9312  226.7732 H   0  0  0  0  0  0  0  0  0  0  0  0
  1  2  2  0
  2  3  1  0
  3  4  1  0
  4  5  1  0
  5  6  2  0
  5  7  1  0
  7  8  1  0
  8  9  1  0
  9 10  1  0
  9 11  1  0
 11 12  1  0
 12 13  1  0
 13 14  1  0
 14 15  1  0
 15 16  1  0
 16 17  1  0
 17 18  1  0
  2 19  1  0
 19 20  2  0
 20 21  1  0
 21 22  2  0
 22 23  1  0
 23 24  2  0
 24 25  1  0
 25 26  2  0
 26 27  1  0
 27 28  2  0
 12  7  1  0
 18 14  1  0
 28 19  1  0
 27 22  1  0
  3 29  1  0
  4 30  1  0
  4 31  1  0
  8 32  1  0
  8 33  1  0
  9 34  1  6
 11 35  1  0
 11 36  1  0
 12 37  1  1
 13 38  1  0
 13 39  1  0
 15 40  1  0
 15 41  1  0
 16 42  1  0
 16 43  1  0
 17 44  1  0
 17 45  1  0
 18 46  1  0
 18 47  1  0
 20 48  1  0
 21 49  1  0
 23 50  1  0
 24 51  1  0
 25 52  1  0
 26 53  1  0
M  END
>  <smiles>  (7) 
O=C(NCC(=O)N1C[C@H](F)C[C@H]1CN1CCCC1)c1ccc2ccccc2n1

>  <score_type>  (7) 
oracle

>  <origin>  (7) 
autodockgpu

>  <m_score__min__energy>  (7) 
-8.4100000000000001

>  <m_primary>  (7) 
energy

>  <rmsd>  (7) 
2.1596871874552837

>  <m_score__min__rmsd>  (7) 
2.1596871874552837

>  <meeko>  (7) 
{"free_energy": -8.25, "intermolecular_energy": -10.04, "internal_energy": -2.02, "cluster_size": 30, "cluster_id": 1, "rank_in_cluster": 12}

>  <energy>  (7) 
-8.27

>  <cluster_rmsd>  (7) 
0.46

>  <cluster>  (7) 
1

$$$$

     RDKit          3D

 53 56  0  0  0  0  0  0  0  0999 V2000
  140.8810   71.4390  221.2790 O   0  0  0  0  0  0  0  0  0  0  0  0
  140.4270   72.0600  222.3000 C   0  0  0  0  0  0  0  0  0  0  0  0
  140.1040   73.4240  222.2170 N   0  0  0  0  0  0  0  0  0  0  0  0
  140.2580   74.2110  220.9850 C   0  0  0  0  0  0  0  0  0  0  0  0
  140.8460   75.5040  221.3610 C   0  0  0  0  0  0  0  0  0  0  0  0
  140.7770   75.8690  222.5800 O   0  0  0  0  0  0  0  0  0  0  0  0
  141.4920   76.4010  220.4790 N   0  0  0  0  0  0  0  0  0  0  0  0
  141.4680   77.8490  220.6030 C   0  0  0  0  0  0  0  0  0  0  0  0
  141.0770   78.1730  219.1480 C   0  0  2  0  0  0  0  0  0  0  0  0
  139.9170   77.5250  218.8380 F   0  0  0  0  0  0  0  0  0  0  0  0
  142.2230   77.4040  218.4630 C   0  0  0  0  0  0  0  0  0  0  0  0
  142.2930   76.1370  219.2870 C   0  0  1  0  0  0  0  0  0  0  0  0
  143.6800   75.7660  219.7100 C   0  0  0  0  0  0  0  0  0  0  0  0
  143.8030   74.5180  220.3760 N   0  0  0  0  0  0  0  0  0  0  0  0
  145.2410   74.2300  220.5850 C   0  0  0  0  0  0  0  0  0  0  0  0
  145.2040   72.8310  221.1560 C   0  0  0  0  0  0  0  0  0  0  0  0
  144.0160   72.2070  220.4940 C   0  0  0  0  0  0  0  0  0  0  0  0
  143.4340   73.3440  219.6270 C   0  0  0  0  0  0  0  0  0  0  0  0
  140.2410   71.3490  223.5760 C   0  0  0  0  0  0  0  0  0  0  0  0
  139.5720   70.1360  223.5600 C   0  0  0  0  0  0  0  0  0  0  0  0
  139.4240   69.5090  224.7920 C   0  0  0  0  0  0  0  0  0  0  0  0
  139.9090   70.0520  225.9620 C   0  0  0  0  0  0  0  0  0  0  0  0
  139.7800   69.4570  227.1940 C   0  0  0  0  0  0  0  0  0  0  0  0
  140.2950   70.0630  228.3400 C   0  0  0  0  0  0  0  0  0  0  0  0
  140.9460   71.2750  228.2470 C   0  0  0  0  0  0  0  0  0  0  0  0
  141.0890   71.8870  227.0330 C   0  0  0  0  0  0  0  0  0  0  0  0
  140.5690   71.2660  225.9150 C   0  0  0  0  0  0  0  0  0  0  0  0
  140.7100   71.8700  224.7210 N   0  0  0  0  0  0  0  0  0  0  0  0
  139.7350   73.8910  223.0810 H   0  0  0  0  0  0  0  0  0  0  0  0
  140.9226   73.6854  220.2835 H   0  0  0  0  0  0  0  0  0  0  0  0
  139.2854   74.3550  220.4917 H   0  0  0  0  0  0  0  0  0  0  0  0
  140.7138   78.1943  221.3254 H   0  0  0  0  0  0  0  0  0  0  0  0
  142.3896   78.3204  220.9752 H   0  0  0  0  0  0  0  0  0  0  0  0
  140.9446   79.2372  218.9032 H   0  0  0  0  0  0  0  0  0  0  0  0
  141.9838   77.1839  217.4121 H   0  0  0  0  0  0  0  0  0  0  0  0
  143.1706   77.9615  218.4279 H   0  0  0  0  0  0  0  0  0  0  0  0
  141.9299   75.2942  218.6805 H   0  0  0  0  0  0  0  0  0  0  0  0
  144.3114   75.7334  218.8099 H   0  0  0  0  0  0  0  0  0  0  0  0
  143.9873   76.5293  220.4400 H   0  0  0  0  0  0  0  0  0  0  0  0
  145.7961   74.2593  219.6358 H   0  0  0  0  0  0  0  0  0  0  0  0
  145.7488   74.9593  221.2333 H   0  0  0  0  0  0  0  0  0  0  0  0
  146.1243   72.2819  220.9079 H   0  0  0  0  0  0  0  0  0  0  0  0
  145.1335   72.8211  222.2537 H   0  0  0  0  0  0  0  0  0  0  0  0
  144.3194   71.3543  219.8689 H   0  0  0  0  0  0  0  0  0  0  0  0
  143.2880   71.8094  221.2165 H   0  0  0  0  0  0  0  0  0  0  0  0
  143.8863   73.3523  218.6243 H   0  0  0  0  0  0  0  0  0  0  0  0
  142.3519   73.2550  219.4508 H   0  0  0  0  0  0  0  0  0  0  0  0
  139.1821   69.6962  222.6302 H   0  0  0  0  0  0  0  0  0  0  0  0
  138.8999   68.5428  224.8345 H   0  0  0  0  0  0  0  0  0  0  0  0
  139.2635   68.4894  227.2776 H   0  0  0  0  0  0  0  0  0  0  0  0
  140.1817   69.5737  229.3186 H   0  0  0  0  0  0  0  0  0  0  0  0
  141.3514   71.7507  229.1522 H   0  0  0  0  0  0  0  0  0  0  0  0
  141.6073   72.8536  226.9487 H   0  0  0  0  0  0  0  0  0  0  0  0
  1  2  2  0
  2  3  1  0
  3  4  1  0
  4  5  1  0
  5  6  2  0
  5  7  1  0
  7  8  1  0
  8  9  1  0
  9 10  1  0
  9 11  1  0
 11 12  1  0
 12 13  1  0
 13 14  1  0
 14 15  1  0
 15 16  1  0
 16 17  1  0
 17 18  1  0
  2 19  1  0
 19 20  2  0
 20 21  1  0
 21 22  2  0
 22 23  1  0
 23 24  2  0
 24 25  1  0
 25 26  2  0
 26 27  1  0
 27 28  2  0
 12  7  1  0
 18 14  1  0
 28 19  1  0
 27 22  1  0
  3 29  1  0
  4 30  1  0
  4 31  1  0
  8 32  1  0
  8 33  1  0
  9 34  1  1
 11 35  1  0
 11 36  1  0
 12 37  1  6
 13 38  1  0
 13 39  1  0
 15 40  1  0
 15 41  1  0
 16 42  1  0
 16 43  1  0
 17 44  1  0
 17 45  1  0
 18 46  1  0
 18 47  1  0
 20 48  1  0
 21 49  1  0
 23 50  1  0
 24 51  1  0
 25 52  1  0
 26 53  1  0
M  END
>  <smiles>  (8) 
O=C(NCC(=O)N1C[C@H](F)C[C@H]1CN1CCCC1)c1ccc2ccccc2n1

>  <score_type>  (8) 
oracle

>  <origin>  (8) 
autodockgpu

>  <m_score__min__energy>  (8) 
-8.4100000000000001

>  <m_primary>  (8) 
energy

>  <rmsd>  (8) 
4.20531826411391

>  <m_score__min__rmsd>  (8) 
4.20531826411391

>  <meeko>  (8) 
{"free_energy": -7.79, "intermolecular_energy": -9.58, "internal_energy": -2.28, "cluster_size": 16, "cluster_id": 3, "rank_in_cluster": 3}

>  <energy>  (8) 
-8.27

>  <cluster_rmsd>  (8) 
0.91

>  <cluster>  (8) 
1

$$$$

     RDKit          3D

 53 56  0  0  0  0  0  0  0  0999 V2000
  140.2550   71.1090  221.2530 O   0  0  0  0  0  0  0  0  0  0  0  0
  140.0080   71.7090  222.3550 C   0  0  0  0  0  0  0  0  0  0  0  0
  139.7720   73.0920  222.3750 N   0  0  0  0  0  0  0  0  0  0  0  0
  139.7900   73.9260  221.1630 C   0  0  0  0  0  0  0  0  0  0  0  0
  139.7840   75.3300  221.5960 C   0  0  0  0  0  0  0  0  0  0  0  0
  139.2720   75.6120  222.7290 O   0  0  0  0  0  0  0  0  0  0  0  0
  140.3030   76.4190  220.8600 N   0  0  0  0  0  0  0  0  0  0  0  0
  140.1340   76.6100  219.4290 C   0  0  0  0  0  0  0  0  0  0  0  0
  141.6110   76.8850  219.0830 C   0  0  2  0  0  0  0  0  0  0  0  0
  142.3780   75.8430  219.5180 F   0  0  0  0  0  0  0  0  0  0  0  0
  141.8270   78.0500  220.0680 C   0  0  0  0  0  0  0  0  0  0  0  0
  141.0980   77.5620  221.3020 C   0  0  1  0  0  0  0  0  0  0  0  0
  140.1850   78.5820  221.9060 C   0  0  0  0  0  0  0  0  0  0  0  0
  140.7980   79.4990  222.8000 N   0  0  0  0  0  0  0  0  0  0  0  0
  141.0460   80.7700  222.0810 C   0  0  0  0  0  0  0  0  0  0  0  0
  141.8210   81.5670  223.1040 C   0  0  0  0  0  0  0  0  0  0  0  0
  142.5960   80.5290  223.8530 C   0  0  0  0  0  0  0  0  0  0  0  0
  142.1440   79.1970  223.2160 C   0  0  0  0  0  0  0  0  0  0  0  0
  139.9690   70.9520  223.6170 C   0  0  0  0  0  0  0  0  0  0  0  0
  139.4830   69.6550  223.5910 C   0  0  0  0  0  0  0  0  0  0  0  0
  139.4700   68.9870  224.8110 C   0  0  0  0  0  0  0  0  0  0  0  0
  139.9110   69.5700  225.9780 C   0  0  0  0  0  0  0  0  0  0  0  0
  139.9100   68.9360  227.1980 C   0  0  0  0  0  0  0  0  0  0  0  0
  140.3720   69.5870  228.3430 C   0  0  0  0  0  0  0  0  0  0  0  0
  140.8370   70.8820  228.2610 C   0  0  0  0  0  0  0  0  0  0  0  0
  140.8480   71.5340  227.0600 C   0  0  0  0  0  0  0  0  0  0  0  0
  140.3850   70.8680  225.9420 C   0  0  0  0  0  0  0  0  0  0  0  0
  140.3970   71.5100  224.7610 N   0  0  0  0  0  0  0  0  0  0  0  0
  139.5730   73.5410  223.3020 H   0  0  0  0  0  0  0  0  0  0  0  0
  140.6968   73.7173  220.5763 H   0  0  0  0  0  0  0  0  0  0  0  0
  138.9163   73.7108  220.5303 H   0  0  0  0  0  0  0  0  0  0  0  0
  139.7483   75.7090  218.9296 H   0  0  0  0  0  0  0  0  0  0  0  0
  139.4114   77.3810  219.1234 H   0  0  0  0  0  0  0  0  0  0  0  0
  141.8410   77.0518  218.0203 H   0  0  0  0  0  0  0  0  0  0  0  0
  142.8964   78.2071  220.2721 H   0  0  0  0  0  0  0  0  0  0  0  0
  141.4641   79.0187  219.6939 H   0  0  0  0  0  0  0  0  0  0  0  0
  141.8340   77.3197  222.0828 H   0  0  0  0  0  0  0  0  0  0  0  0
  139.7324   79.1592  221.0863 H   0  0  0  0  0  0  0  0  0  0  0  0
  139.4564   78.0170  222.5060 H   0  0  0  0  0  0  0  0  0  0  0  0
  141.6404   80.6041  221.1704 H   0  0  0  0  0  0  0  0  0  0  0  0
  140.1287   81.2684  221.7343 H   0  0  0  0  0  0  0  0  0  0  0  0
  142.4971   82.2824  222.6131 H   0  0  0  0  0  0  0  0  0  0  0  0
  141.1705   82.1663  223.7580 H   0  0  0  0  0  0  0  0  0  0  0  0
  143.6780   80.6782  223.7222 H   0  0  0  0  0  0  0  0  0  0  0  0
  142.4143   80.5640  224.9373 H   0  0  0  0  0  0  0  0  0  0  0  0
  142.7768   78.9311  222.3564 H   0  0  0  0  0  0  0  0  0  0  0  0
  142.2126   78.3363  223.8975 H   0  0  0  0  0  0  0  0  0  0  0  0
  139.1292   69.1825  222.6628 H   0  0  0  0  0  0  0  0  0  0  0  0
  139.0932   67.9541  224.8449 H   0  0  0  0  0  0  0  0  0  0  0  0
  139.5404   67.9026  227.2727 H   0  0  0  0  0  0  0  0  0  0  0  0
  140.3650   69.0660  229.3118 H   0  0  0  0  0  0  0  0  0  0  0  0
  141.2004   71.3923  229.1652 H   0  0  0  0  0  0  0  0  0  0  0  0
  141.2178   72.5673  226.9852 H   0  0  0  0  0  0  0  0  0  0  0  0
  1  2  2  0
  2  3  1  0
  3  4  1  0
  4  5  1  0
  5  6  2  0
  5  7  1  0
  7  8  1  0
  8  9  1  0
  9 10  1  0
  9 11  1  0
 11 12  1  0
 12 13  1  0
 13 14  1  0
 14 15  1  0
 15 16  1  0
 16 17  1  0
 17 18  1  0
  2 19  1  0
 19 20  2  0
 20 21  1  0
 21 22  2  0
 22 23  1  0
 23 24  2  0
 24 25  1  0
 25 26  2  0
 26 27  1  0
 27 28  2  0
 12  7  1  0
 18 14  1  0
 28 19  1  0
 27 22  1  0
  3 29  1  0
  4 30  1  0
  4 31  1  0
  8 32  1  0
  8 33  1  0
  9 34  1  6
 11 35  1  0
 11 36  1  0
 12 37  1  1
 13 38  1  0
 13 39  1  0
 15 40  1  0
 15 41  1  0
 16 42  1  0
 16 43  1  0
 17 44  1  0
 17 45  1  0
 18 46  1  0
 18 47  1  0
 20 48  1  0
 21 49  1  0
 23 50  1  0
 24 51  1  0
 25 52  1  0
 26 53  1  0
M  END
>  <smiles>  (9) 
O=C(NCC(=O)N1C[C@H](F)C[C@H]1CN1CCCC1)c1ccc2ccccc2n1

>  <score_type>  (9) 
oracle

>  <origin>  (9) 
autodockgpu

>  <m_score__min__energy>  (9) 
-8.4100000000000001

>  <m_primary>  (9) 
energy

>  <rmsd>  (9) 
2.087517360340196

>  <m_score__min__rmsd>  (9) 
2.087517360340196

>  <meeko>  (9) 
{"free_energy": -8.27, "intermolecular_energy": -10.06, "internal_energy": -1.96, "cluster_size": 30, "cluster_id": 1, "rank_in_cluster": 7}

>  <energy>  (9) 
-8.27

>  <cluster_rmsd>  (9) 
0.2

>  <cluster>  (9) 
1

$$$$

     RDKit          3D

 53 56  0  0  0  0  0  0  0  0999 V2000
  140.0280   71.1430  221.1890 O   0  0  0  0  0  0  0  0  0  0  0  0
  139.9050   71.8200  222.2670 C   0  0  0  0  0  0  0  0  0  0  0  0
  139.7660   73.2160  222.2180 N   0  0  0  0  0  0  0  0  0  0  0  0
  139.7500   73.9760  220.9590 C   0  0  0  0  0  0  0  0  0  0  0  0
  140.3300   75.2980  221.2380 C   0  0  0  0  0  0  0  0  0  0  0  0
  140.3020   75.7320  222.4360 O   0  0  0  0  0  0  0  0  0  0  0  0
  140.9290   76.1500  220.2820 N   0  0  0  0  0  0  0  0  0  0  0  0
  140.8560   75.9640  218.8420 C   0  0  0  0  0  0  0  0  0  0  0  0
  142.3590   76.1180  218.5400 C   0  0  2  0  0  0  0  0  0  0  0  0
  143.0640   75.2140  219.2800 F   0  0  0  0  0  0  0  0  0  0  0  0
  142.5510   77.4950  219.2030 C   0  0  0  0  0  0  0  0  0  0  0  0
  141.7310   77.3570  220.4670 C   0  0  1  0  0  0  0  0  0  0  0  0
  140.8150   78.5120  220.7230 C   0  0  0  0  0  0  0  0  0  0  0  0
  141.0130   79.1870  221.9560 N   0  0  0  0  0  0  0  0  0  0  0  0
  142.1960   80.0700  221.8310 C   0  0  0  0  0  0  0  0  0  0  0  0
  142.3560   80.5880  223.2410 C   0  0  0  0  0  0  0  0  0  0  0  0
  141.8850   79.4530  224.0940 C   0  0  0  0  0  0  0  0  0  0  0  0
  141.4360   78.3830  223.0750 C   0  0  0  0  0  0  0  0  0  0  0  0
  139.9110   71.1390  223.5720 C   0  0  0  0  0  0  0  0  0  0  0  0
  139.3830   69.8610  223.6490 C   0  0  0  0  0  0  0  0  0  0  0  0
  139.4140   69.2660  224.9050 C   0  0  0  0  0  0  0  0  0  0  0  0
  139.9350   69.9010  226.0120 C   0  0  0  0  0  0  0  0  0  0  0  0
  139.9810   69.3390  227.2650 C   0  0  0  0  0  0  0  0  0  0  0  0
  140.5230   70.0390  228.3440 C   0  0  0  0  0  0  0  0  0  0  0  0
  141.0240   71.3110  228.1610 C   0  0  0  0  0  0  0  0  0  0  0  0
  140.9910   71.8910  226.9240 C   0  0  0  0  0  0  0  0  0  0  0  0
  140.4480   71.1770  225.8730 C   0  0  0  0  0  0  0  0  0  0  0  0
  140.4170   71.7490  224.6560 N   0  0  0  0  0  0  0  0  0  0  0  0
  139.6690   73.7290  223.1280 H   0  0  0  0  0  0  0  0  0  0  0  0
  140.3492   73.4553  220.1975 H   0  0  0  0  0  0  0  0  0  0  0  0
  138.7232   74.0744  220.5769 H   0  0  0  0  0  0  0  0  0  0  0  0
  140.4739   74.9697  218.5675 H   0  0  0  0  0  0  0  0  0  0  0  0
  140.1788   76.6389  218.2980 H   0  0  0  0  0  0  0  0  0  0  0  0
  142.6596   75.9997  217.4885 H   0  0  0  0  0  0  0  0  0  0  0  0
  143.6101   77.6829  219.4330 H   0  0  0  0  0  0  0  0  0  0  0  0
  142.2442   78.3384  218.5670 H   0  0  0  0  0  0  0  0  0  0  0  0
  142.4086   77.3165  221.3326 H   0  0  0  0  0  0  0  0  0  0  0  0
  140.9539   79.2412  219.9113 H   0  0  0  0  0  0  0  0  0  0  0  0
  139.8008   78.0887  220.7698 H   0  0  0  0  0  0  0  0  0  0  0  0
  143.0836   79.5050  221.5103 H   0  0  0  0  0  0  0  0  0  0  0  0
  142.0776   80.8640  221.0790 H   0  0  0  0  0  0  0  0  0  0  0  0
  143.4084   80.8273  223.4534 H   0  0  0  0  0  0  0  0  0  0  0  0
  141.7933   81.5162  223.4195 H   0  0  0  0  0  0  0  0  0  0  0  0
  142.7015   79.0734  224.7258 H   0  0  0  0  0  0  0  0  0  0  0  0
  141.0795   79.7465  224.7832 H   0  0  0  0  0  0  0  0  0  0  0  0
  142.2699   77.7212  222.7980 H   0  0  0  0  0  0  0  0  0  0  0  0
  140.6535   77.7106  223.4565 H   0  0  0  0  0  0  0  0  0  0  0  0
  138.9648   69.3482  222.7703 H   0  0  0  0  0  0  0  0  0  0  0  0
  139.0075   68.2503  225.0198 H   0  0  0  0  0  0  0  0  0  0  0  0
  139.5856   68.3243  227.4197 H   0  0  0  0  0  0  0  0  0  0  0  0
  140.5506   69.5758  229.3413 H   0  0  0  0  0  0  0  0  0  0  0  0
  141.4513   71.8601  229.0130 H   0  0  0  0  0  0  0  0  0  0  0  0
  141.3883   72.9048  226.7683 H   0  0  0  0  0  0  0  0  0  0  0  0
  1  2  2  0
  2  3  1  0
  3  4  1  0
  4  5  1  0
  5  6  2  0
  5  7  1  0
  7  8  1  0
  8  9  1  0
  9 10  1  0
  9 11  1  0
 11 12  1  0
 12 13  1  0
 13 14  1  0
 14 15  1  0
 15 16  1  0
 16 17  1  0
 17 18  1  0
  2 19  1  0
 19 20  2  0
 20 21  1  0
 21 22  2  0
 22 23  1  0
 23 24  2  0
 24 25  1  0
 25 26  2  0
 26 27  1  0
 27 28  2  0
 12  7  1  0
 18 14  1  0
 28 19  1  0
 27 22  1  0
  3 29  1  0
  4 30  1  0
  4 31  1  0
  8 32  1  0
  8 33  1  0
  9 34  1  6
 11 35  1  0
 11 36  1  0
 12 37  1  1
 13 38  1  0
 13 39  1  0
 15 40  1  0
 15 41  1  0
 16 42  1  0
 16 43  1  0
 17 44  1  0
 17 45  1  0
 18 46  1  0
 18 47  1  0
 20 48  1  0
 21 49  1  0
 23 50  1  0
 24 51  1  0
 25 52  1  0
 26 53  1  0
M  END
>  <smiles>  (10) 
O=C(NCC(=O)N1C[C@H](F)C[C@H]1CN1CCCC1)c1ccc2ccccc2n1

>  <score_type>  (10) 
oracle

>  <origin>  (10) 
autodockgpu

>  <m_score__min__energy>  (10) 
-8.4100000000000001

>  <m_primary>  (10) 
energy

>  <rmsd>  (10) 
2.187154422573068

>  <m_score__min__rmsd>  (10) 
2.187154422573068

>  <meeko>  (10) 
{"free_energy": -8.24, "intermolecular_energy": -10.03, "internal_energy": -2.04, "cluster_size": 30, "cluster_id": 1, "rank_in_cluster": 13}

>  <energy>  (10) 
-8.25

>  <cluster_rmsd>  (10) 
1.04

>  <cluster>  (10) 
1

$$$$

     RDKit          3D

 53 56  0  0  0  0  0  0  0  0999 V2000
  140.0430   71.3090  221.1640 O   0  0  0  0  0  0  0  0  0  0  0  0
  139.8860   71.9620  222.2520 C   0  0  0  0  0  0  0  0  0  0  0  0
  139.7000   73.3530  222.2260 N   0  0  0  0  0  0  0  0  0  0  0  0
  139.6730   74.1350  220.9810 C   0  0  0  0  0  0  0  0  0  0  0  0
  140.5860   75.2730  221.1570 C   0  0  0  0  0  0  0  0  0  0  0  0
  140.8650   75.6480  222.3430 O   0  0  0  0  0  0  0  0  0  0  0  0
  141.1980   76.0050  220.1130 N   0  0  0  0  0  0  0  0  0  0  0  0
  141.2260   75.5960  218.7180 C   0  0  0  0  0  0  0  0  0  0  0  0
  142.7350   75.7970  218.4780 C   0  0  2  0  0  0  0  0  0  0  0  0
  143.4390   75.0630  219.3880 F   0  0  0  0  0  0  0  0  0  0  0  0
  142.8100   77.2690  218.9260 C   0  0  0  0  0  0  0  0  0  0  0  0
  141.9200   77.2740  220.1500 C   0  0  1  0  0  0  0  0  0  0  0  0
  140.9280   78.3940  220.1730 C   0  0  0  0  0  0  0  0  0  0  0  0
  140.8680   79.1330  221.3840 N   0  0  0  0  0  0  0  0  0  0  0  0
  142.2050   79.1140  222.0200 C   0  0  0  0  0  0  0  0  0  0  0  0
  141.9380   79.7990  223.3410 C   0  0  0  0  0  0  0  0  0  0  0  0
  140.5310   79.4070  223.6670 C   0  0  0  0  0  0  0  0  0  0  0  0
  140.0900   78.5610  222.4530 C   0  0  0  0  0  0  0  0  0  0  0  0
  139.8990   71.2590  223.5460 C   0  0  0  0  0  0  0  0  0  0  0  0
  139.3940   69.9700  223.5980 C   0  0  0  0  0  0  0  0  0  0  0  0
  139.4310   69.3550  224.8440 C   0  0  0  0  0  0  0  0  0  0  0  0
  139.9380   69.9780  225.9630 C   0  0  0  0  0  0  0  0  0  0  0  0
  139.9890   69.3960  227.2070 C   0  0  0  0  0  0  0  0  0  0  0  0
  140.5160   70.0870  228.2990 C   0  0  0  0  0  0  0  0  0  0  0  0
  140.9950   71.3700  228.1400 C   0  0  0  0  0  0  0  0  0  0  0  0
  140.9560   71.9700  226.9130 C   0  0  0  0  0  0  0  0  0  0  0  0
  140.4290   71.2660  225.8490 C   0  0  0  0  0  0  0  0  0  0  0  0
  140.3920   71.8580  224.6420 N   0  0  0  0  0  0  0  0  0  0  0  0
  139.5750   73.8470  223.1440 H   0  0  0  0  0  0  0  0  0  0  0  0
  140.0070   73.5119  220.1383 H   0  0  0  0  0  0  0  0  0  0  0  0
  138.6530   74.4853  220.7644 H   0  0  0  0  0  0  0  0  0  0  0  0
  140.9165   74.5492  218.5825 H   0  0  0  0  0  0  0  0  0  0  0  0
  140.5489   76.1348  218.0389 H   0  0  0  0  0  0  0  0  0  0  0  0
  143.1081   75.5385  217.4760 H   0  0  0  0  0  0  0  0  0  0  0  0
  143.8407   77.5568  219.1807 H   0  0  0  0  0  0  0  0  0  0  0  0
  142.4992   77.9840  218.1500 H   0  0  0  0  0  0  0  0  0  0  0  0
  142.5431   77.4094  221.0463 H   0  0  0  0  0  0  0  0  0  0  0  0
  141.1859   79.0918  219.3627 H   0  0  0  0  0  0  0  0  0  0  0  0
  139.9400   77.9246  220.0565 H   0  0  0  0  0  0  0  0  0  0  0  0
  142.5614   78.0841  222.1693 H   0  0  0  0  0  0  0  0  0  0  0  0
  142.9874   79.6010  221.4194 H   0  0  0  0  0  0  0  0  0  0  0  0
  142.6336   79.4427  224.1151 H   0  0  0  0  0  0  0  0  0  0  0  0
  142.0756   80.8892  223.2909 H   0  0  0  0  0  0  0  0  0  0  0  0
  140.4947   78.8128  224.5920 H   0  0  0  0  0  0  0  0  0  0  0  0
  139.8778   80.2753  223.8385 H   0  0  0  0  0  0  0  0  0  0  0  0
  140.3329   77.4981  222.5984 H   0  0  0  0  0  0  0  0  0  0  0  0
  139.0055   78.5831  222.2703 H   0  0  0  0  0  0  0  0  0  0  0  0
  138.9890   69.4648  222.7088 H   0  0  0  0  0  0  0  0  0  0  0  0
  139.0403   68.3312  224.9401 H   0  0  0  0  0  0  0  0  0  0  0  0
  139.6096   68.3726  227.3437 H   0  0  0  0  0  0  0  0  0  0  0  0
  140.5493   69.6072  229.2883 H   0  0  0  0  0  0  0  0  0  0  0  0
  141.4095   71.9119  229.0029 H   0  0  0  0  0  0  0  0  0  0  0  0
  141.3367   72.9929  226.7759 H   0  0  0  0  0  0  0  0  0  0  0  0
  1  2  2  0
  2  3  1  0
  3  4  1  0
  4  5  1  0
  5  6  2  0
  5  7  1  0
  7  8  1  0
  8  9  1  0
  9 10  1  0
  9 11  1  0
 11 12  1  0
 12 13  1  0
 13 14  1  0
 14 15  1  0
 15 16  1  0
 16 17  1  0
 17 18  1  0
  2 19  1  0
 19 20  2  0
 20 21  1  0
 21 22  2  0
 22 23  1  0
 23 24  2  0
 24 25  1  0
 25 26  2  0
 26 27  1  0
 27 28  2  0
 12  7  1  0
 18 14  1  0
 28 19  1  0
 27 22  1  0
  3 29  1  0
  4 30  1  0
  4 31  1  0
  8 32  1  0
  8 33  1  0
  9 34  1  6
 11 35  1  0
 11 36  1  0
 12 37  1  1
 13 38  1  0
 13 39  1  0
 15 40  1  0
 15 41  1  0
 16 42  1  0
 16 43  1  0
 17 44  1  0
 17 45  1  0
 18 46  1  0
 18 47  1  0
 20 48  1  0
 21 49  1  0
 23 50  1  0
 24 51  1  0
 25 52  1  0
 26 53  1  0
M  END
>  <smiles>  (11) 
O=C(NCC(=O)N1C[C@H](F)C[C@H]1CN1CCCC1)c1ccc2ccccc2n1

>  <score_type>  (11) 
oracle

>  <origin>  (11) 
autodockgpu

>  <m_score__min__energy>  (11) 
-8.4100000000000001

>  <m_primary>  (11) 
energy

>  <rmsd>  (11) 
2.145052189887131

>  <m_score__min__rmsd>  (11) 
2.145052189887131

>  <meeko>  (11) 
{"free_energy": -7.99, "intermolecular_energy": -9.78, "internal_energy": -1.99, "cluster_size": 30, "cluster_id": 1, "rank_in_cluster": 25}

>  <energy>  (11) 
-8.25

>  <cluster_rmsd>  (11) 
0.52

>  <cluster>  (11) 
1

$$$$

     RDKit          3D

 53 56  0  0  0  0  0  0  0  0999 V2000
  141.0520   71.5110  221.3580 O   0  0  0  0  0  0  0  0  0  0  0  0
  140.4990   72.1130  222.3420 C   0  0  0  0  0  0  0  0  0  0  0  0
  140.1340   73.4650  222.2340 N   0  0  0  0  0  0  0  0  0  0  0  0
  140.3520   74.2590  221.0160 C   0  0  0  0  0  0  0  0  0  0  0  0
  140.6700   75.6310  221.4380 C   0  0  0  0  0  0  0  0  0  0  0  0
  140.2820   76.0150  222.5900 O   0  0  0  0  0  0  0  0  0  0  0  0
  141.3810   76.5830  220.6720 N   0  0  0  0  0  0  0  0  0  0  0  0
  141.5000   77.9930  221.0030 C   0  0  0  0  0  0  0  0  0  0  0  0
  141.1110   78.5600  219.6240 C   0  0  2  0  0  0  0  0  0  0  0  0
  139.8870   78.0750  219.2650 F   0  0  0  0  0  0  0  0  0  0  0  0
  142.1620   77.7970  218.7950 C   0  0  0  0  0  0  0  0  0  0  0  0
  142.1270   76.4220  219.4270 C   0  0  1  0  0  0  0  0  0  0  0  0
  143.4810   75.8670  219.7420 C   0  0  0  0  0  0  0  0  0  0  0  0
  143.4990   74.5220  220.1950 N   0  0  0  0  0  0  0  0  0  0  0  0
  144.8970   74.1430  220.5050 C   0  0  0  0  0  0  0  0  0  0  0  0
  144.7640   72.6710  220.8220 C   0  0  0  0  0  0  0  0  0  0  0  0
  143.6440   72.2160  219.9390 C   0  0  0  0  0  0  0  0  0  0  0  0
  143.1900   73.5060  219.2220 C   0  0  0  0  0  0  0  0  0  0  0  0
  140.2420   71.3940  223.6000 C   0  0  0  0  0  0  0  0  0  0  0  0
  139.5520   70.1940  223.5410 C   0  0  0  0  0  0  0  0  0  0  0  0
  139.3380   69.5570  224.7590 C   0  0  0  0  0  0  0  0  0  0  0  0
  139.7800   70.0790  225.9550 C   0  0  0  0  0  0  0  0  0  0  0  0
  139.5840   69.4740  227.1730 C   0  0  0  0  0  0  0  0  0  0  0  0
  140.0600   70.0590  228.3470 C   0  0  0  0  0  0  0  0  0  0  0  0
  140.7370   71.2590  228.2970 C   0  0  0  0  0  0  0  0  0  0  0  0
  140.9450   71.8800  227.0970 C   0  0  0  0  0  0  0  0  0  0  0  0
  140.4640   71.2810  225.9500 C   0  0  0  0  0  0  0  0  0  0  0  0
  140.6700   71.8930  224.7700 N   0  0  0  0  0  0  0  0  0  0  0  0
  139.6830   73.9170  223.0670 H   0  0  0  0  0  0  0  0  0  0  0  0
  141.1889   73.8396  220.4383 H   0  0  0  0  0  0  0  0  0  0  0  0
  139.4561   74.2462  220.3779 H   0  0  0  0  0  0  0  0  0  0  0  0
  140.7985   78.2977  221.7936 H   0  0  0  0  0  0  0  0  0  0  0  0
  142.4705   78.3178  221.4063 H   0  0  0  0  0  0  0  0  0  0  0  0
  141.0771   79.6562  219.5396 H   0  0  0  0  0  0  0  0  0  0  0  0
  141.8794   77.7555  217.7327 H   0  0  0  0  0  0  0  0  0  0  0  0
  143.1580   78.2637  218.8055 H   0  0  0  0  0  0  0  0  0  0  0  0
  141.6708   75.7129  218.7205 H   0  0  0  0  0  0  0  0  0  0  0  0
  144.0922   75.9256  218.8293 H   0  0  0  0  0  0  0  0  0  0  0  0
  143.8694   76.4717  220.5747 H   0  0  0  0  0  0  0  0  0  0  0  0
  145.5562   74.3070  219.6398 H   0  0  0  0  0  0  0  0  0  0  0  0
  145.3448   74.7320  221.3190 H   0  0  0  0  0  0  0  0  0  0  0  0
  145.6937   72.1333  220.5844 H   0  0  0  0  0  0  0  0  0  0  0  0
  144.5698   72.4810  221.8879 H   0  0  0  0  0  0  0  0  0  0  0  0
  143.9965   71.4682  219.2134 H   0  0  0  0  0  0  0  0  0  0  0  0
  142.8303   71.7333  220.5001 H   0  0  0  0  0  0  0  0  0  0  0  0
  143.7525   73.6628  218.2898 H   0  0  0  0  0  0  0  0  0  0  0  0
  142.1327   73.4930  218.9188 H   0  0  0  0  0  0  0  0  0  0  0  0
  139.1956   69.7712  222.5901 H   0  0  0  0  0  0  0  0  0  0  0  0
  138.7953   68.6002  224.7676 H   0  0  0  0  0  0  0  0  0  0  0  0
  139.0450   68.5164  227.2232 H   0  0  0  0  0  0  0  0  0  0  0  0
  139.8948   69.5618  229.3142 H   0  0  0  0  0  0  0  0  0  0  0  0
  141.1105   71.7176  229.2244 H   0  0  0  0  0  0  0  0  0  0  0  0
  141.4845   72.8373  227.0464 H   0  0  0  0  0  0  0  0  0  0  0  0
  1  2  2  0
  2  3  1  0
  3  4  1  0
  4  5  1  0
  5  6  2  0
  5  7  1  0
  7  8  1  0
  8  9  1  0
  9 10  1  0
  9 11  1  0
 11 12  1  0
 12 13  1  0
 13 14  1  0
 14 15  1  0
 15 16  1  0
 16 17  1  0
 17 18  1  0
  2 19  1  0
 19 20  2  0
 20 21  1  0
 21 22  2  0
 22 23  1  0
 23 24  2  0
 24 25  1  0
 25 26  2  0
 26 27  1  0
 27 28  2  0
 12  7  1  0
 18 14  1  0
 28 19  1  0
 27 22  1  0
  3 29  1  0
  4 30  1  0
  4 31  1  0
  8 32  1  0
  8 33  1  0
  9 34  1  1
 11 35  1  0
 11 36  1  0
 12 37  1  6
 13 38  1  0
 13 39  1  0
 15 40  1  0
 15 41  1  0
 16 42  1  0
 16 43  1  0
 17 44  1  0
 17 45  1  0
 18 46  1  0
 18 47  1  0
 20 48  1  0
 21 49  1  0
 23 50  1  0
 24 51  1  0
 25 52  1  0
 26 53  1  0
M  END
>  <smiles>  (12) 
O=C(NCC(=O)N1C[C@H](F)C[C@H]1CN1CCCC1)c1ccc2ccccc2n1

>  <score_type>  (12) 
oracle

>  <origin>  (12) 
autodockgpu

>  <m_score__min__energy>  (12) 
-8.4100000000000001

>  <m_primary>  (12) 
energy

>  <rmsd>  (12) 
4.206044307737183

>  <m_score__min__rmsd>  (12) 
4.206044307737183

>  <meeko>  (12) 
{"free_energy": -7.83, "intermolecular_energy": -9.62, "internal_energy": -2.33, "cluster_size": 16, "cluster_id": 3, "rank_in_cluster": 2}

>  <energy>  (12) 
-8.25

>  <cluster_rmsd>  (12) 
1.09

>  <cluster>  (12) 
1

$$$$

     RDKit          3D

 53 56  0  0  0  0  0  0  0  0999 V2000
  140.2630   71.2060  221.1710 O   0  0  0  0  0  0  0  0  0  0  0  0
  140.1130   71.8900  222.2410 C   0  0  0  0  0  0  0  0  0  0  0  0
  140.0030   73.2880  222.1830 N   0  0  0  0  0  0  0  0  0  0  0  0
  140.0500   74.0440  220.9210 C   0  0  0  0  0  0  0  0  0  0  0  0
  140.8270   75.2650  221.1710 C   0  0  0  0  0  0  0  0  0  0  0  0
  141.0320   75.6170  222.3790 O   0  0  0  0  0  0  0  0  0  0  0  0
  141.3800   76.1050  220.1770 N   0  0  0  0  0  0  0  0  0  0  0  0
  141.1010   77.5250  220.0400 C   0  0  0  0  0  0  0  0  0  0  0  0
  140.7780   77.5250  218.5330 C   0  0  2  0  0  0  0  0  0  0  0  0
  139.7740   76.6360  218.2860 F   0  0  0  0  0  0  0  0  0  0  0  0
  142.0890   76.8740  218.0530 C   0  0  0  0  0  0  0  0  0  0  0  0
  142.3080   75.7960  219.0910 C   0  0  1  0  0  0  0  0  0  0  0  0
  143.6990   75.7580  219.6410 C   0  0  0  0  0  0  0  0  0  0  0  0
  144.2990   74.4720  219.6980 N   0  0  0  0  0  0  0  0  0  0  0  0
  143.2470   73.4690  219.9810 C   0  0  0  0  0  0  0  0  0  0  0  0
  144.0540   72.2030  220.1560 C   0  0  0  0  0  0  0  0  0  0  0  0
  145.3420   72.6810  220.7500 C   0  0  0  0  0  0  0  0  0  0  0  0
  145.1750   74.2150  220.8120 C   0  0  0  0  0  0  0  0  0  0  0  0
  140.0550   71.2150  223.5480 C   0  0  0  0  0  0  0  0  0  0  0  0
  139.4840   69.9540  223.6120 C   0  0  0  0  0  0  0  0  0  0  0  0
  139.4560   69.3640  224.8710 C   0  0  0  0  0  0  0  0  0  0  0  0
  139.9620   69.9860  225.9910 C   0  0  0  0  0  0  0  0  0  0  0  0
  139.9490   69.4290  227.2480 C   0  0  0  0  0  0  0  0  0  0  0  0
  140.4790   70.1160  228.3400 C   0  0  0  0  0  0  0  0  0  0  0  0
  141.0260   71.3700  228.1700 C   0  0  0  0  0  0  0  0  0  0  0  0
  141.0510   71.9450  226.9300 C   0  0  0  0  0  0  0  0  0  0  0  0
  140.5190   71.2450  225.8650 C   0  0  0  0  0  0  0  0  0  0  0  0
  140.5450   71.8120  224.6460 N   0  0  0  0  0  0  0  0  0  0  0  0
  139.8810   73.8070  223.0860 H   0  0  0  0  0  0  0  0  0  0  0  0
  140.5365   73.4418  220.1395 H   0  0  0  0  0  0  0  0  0  0  0  0
  139.0347   74.2923  220.5782 H   0  0  0  0  0  0  0  0  0  0  0  0
  140.2440   77.8438  220.6515 H   0  0  0  0  0  0  0  0  0  0  0  0
  141.8964   78.2109  220.3671 H   0  0  0  0  0  0  0  0  0  0  0  0
  140.4862   78.4917  218.0967 H   0  0  0  0  0  0  0  0  0  0  0  0
  141.9755   76.4426  217.0475 H   0  0  0  0  0  0  0  0  0  0  0  0
  142.9274   77.5807  217.9661 H   0  0  0  0  0  0  0  0  0  0  0  0
  142.1440   74.8124  218.6266 H   0  0  0  0  0  0  0  0  0  0  0  0
  144.3310   76.3991  219.0089 H   0  0  0  0  0  0  0  0  0  0  0  0
  143.6212   76.1014  220.6831 H   0  0  0  0  0  0  0  0  0  0  0  0
  142.6933   73.7193  220.8979 H   0  0  0  0  0  0  0  0  0  0  0  0
  142.4797   73.3993  219.1958 H   0  0  0  0  0  0  0  0  0  0  0  0
  143.5444   71.5041  220.8356 H   0  0  0  0  0  0  0  0  0  0  0  0
  144.1974   71.6557  219.2127 H   0  0  0  0  0  0  0  0  0  0  0  0
  145.4881   72.2621  221.7566 H   0  0  0  0  0  0  0  0  0  0  0  0
  146.2201   72.3730  220.1634 H   0  0  0  0  0  0  0  0  0  0  0  0
  144.7153   74.5279  221.7611 H   0  0  0  0  0  0  0  0  0  0  0  0
  146.1264   74.7647  220.7610 H   0  0  0  0  0  0  0  0  0  0  0  0
  139.0780   69.4508  222.7220 H   0  0  0  0  0  0  0  0  0  0  0  0
  139.0130   68.3627  224.9764 H   0  0  0  0  0  0  0  0  0  0  0  0
  139.5151   68.4288  227.3943 H   0  0  0  0  0  0  0  0  0  0  0  0
  140.4605   69.6562  229.3391 H   0  0  0  0  0  0  0  0  0  0  0  0
  141.4430   71.9088  229.0336 H   0  0  0  0  0  0  0  0  0  0  0  0
  141.4859   72.9447  226.7835 H   0  0  0  0  0  0  0  0  0  0  0  0
  1  2  2  0
  2  3  1  0
  3  4  1  0
  4  5  1  0
  5  6  2  0
  5  7  1  0
  7  8  1  0
  8  9  1  0
  9 10  1  0
  9 11  1  0
 11 12  1  0
 12 13  1  0
 13 14  1  0
 14 15  1  0
 15 16  1  0
 16 17  1  0
 17 18  1  0
  2 19  1  0
 19 20  2  0
 20 21  1  0
 21 22  2  0
 22 23  1  0
 23 24  2  0
 24 25  1  0
 25 26  2  0
 26 27  1  0
 27 28  2  0
 12  7  1  0
 18 14  1  0
 28 19  1  0
 27 22  1  0
  3 29  1  0
  4 30  1  0
  4 31  1  0
  8 32  1  0
  8 33  1  0
  9 34  1  6
 11 35  1  0
 11 36  1  0
 12 37  1  6
 13 38  1  0
 13 39  1  0
 15 40  1  0
 15 41  1  0
 16 42  1  0
 16 43  1  0
 17 44  1  0
 17 45  1  0
 18 46  1  0
 18 47  1  0
 20 48  1  0
 21 49  1  0
 23 50  1  0
 24 51  1  0
 25 52  1  0
 26 53  1  0
M  END
>  <smiles>  (13) 
O=C(NCC(=O)N1C[C@H](F)C[C@H]1CN1CCCC1)c1ccc2ccccc2n1

>  <score_type>  (13) 
oracle

>  <origin>  (13) 
autodockgpu

>  <m_score__min__energy>  (13) 
-8.4100000000000001

>  <m_primary>  (13) 
energy

>  <rmsd>  (13) 
4.009235378020042

>  <m_score__min__rmsd>  (13) 
4.009235378020042

>  <meeko>  (13) 
{"free_energy": -7.49, "intermolecular_energy": -9.28, "internal_energy": -2.28, "cluster_size": 16, "cluster_id": 3, "rank_in_cluster": 15}

>  <energy>  (13) 
-8.24

>  <cluster_rmsd>  (13) 
0.97

>  <cluster>  (13) 
1

$$$$

     RDKit          3D

 53 56  0  0  0  0  0  0  0  0999 V2000
  140.2060   71.0600  221.2770 O   0  0  0  0  0  0  0  0  0  0  0  0
  139.9710   71.6620  222.3800 C   0  0  0  0  0  0  0  0  0  0  0  0
  139.7340   73.0450  222.3980 N   0  0  0  0  0  0  0  0  0  0  0  0
  139.7370   73.8750  221.1840 C   0  0  0  0  0  0  0  0  0  0  0  0
  139.7510   75.2810  221.6130 C   0  0  0  0  0  0  0  0  0  0  0  0
  139.1680   75.5860  222.7050 O   0  0  0  0  0  0  0  0  0  0  0  0
  140.3620   76.3470  220.9150 N   0  0  0  0  0  0  0  0  0  0  0  0
  140.3210   76.5280  219.4740 C   0  0  0  0  0  0  0  0  0  0  0  0
  141.8290   76.7570  219.2530 C   0  0  2  0  0  0  0  0  0  0  0  0
  142.5250   75.6990  219.7590 F   0  0  0  0  0  0  0  0  0  0  0  0
  141.9950   77.9250  220.2440 C   0  0  0  0  0  0  0  0  0  0  0  0
  141.1500   77.4720  221.4140 C   0  0  1  0  0  0  0  0  0  0  0  0
  140.2180   78.5230  221.9310 C   0  0  0  0  0  0  0  0  0  0  0  0
  140.7990   79.4750  222.8100 N   0  0  0  0  0  0  0  0  0  0  0  0
  141.0880   80.7120  222.0470 C   0  0  0  0  0  0  0  0  0  0  0  0
  141.8230   81.5490  223.0670 C   0  0  0  0  0  0  0  0  0  0  0  0
  142.5560   80.5410  223.8950 C   0  0  0  0  0  0  0  0  0  0  0  0
  142.1230   79.1840  223.2980 C   0  0  0  0  0  0  0  0  0  0  0  0
  139.9480   70.9080  223.6440 C   0  0  0  0  0  0  0  0  0  0  0  0
  139.4750   69.6060  223.6250 C   0  0  0  0  0  0  0  0  0  0  0  0
  139.4760   68.9420  224.8460 C   0  0  0  0  0  0  0  0  0  0  0  0
  139.9180   69.5330  226.0100 C   0  0  0  0  0  0  0  0  0  0  0  0
  139.9320   68.9030  227.2310 C   0  0  0  0  0  0  0  0  0  0  0  0
  140.3940   69.5620  228.3710 C   0  0  0  0  0  0  0  0  0  0  0  0
  140.8450   70.8620  228.2830 C   0  0  0  0  0  0  0  0  0  0  0  0
  140.8430   71.5100  227.0800 C   0  0  0  0  0  0  0  0  0  0  0  0
  140.3800   70.8360  225.9670 C   0  0  0  0  0  0  0  0  0  0  0  0
  140.3780   71.4750  224.7830 N   0  0  0  0  0  0  0  0  0  0  0  0
  139.5460   73.4970  223.3270 H   0  0  0  0  0  0  0  0  0  0  0  0
  140.6311   73.6568  220.5815 H   0  0  0  0  0  0  0  0  0  0  0  0
  138.8500   73.6656  220.5681 H   0  0  0  0  0  0  0  0  0  0  0  0
  139.9528   75.6333  218.9505 H   0  0  0  0  0  0  0  0  0  0  0  0
  139.6500   77.3162  219.1020 H   0  0  0  0  0  0  0  0  0  0  0  0
  142.1529   76.9065  218.2125 H   0  0  0  0  0  0  0  0  0  0  0  0
  143.0474   78.0528  220.5376 H   0  0  0  0  0  0  0  0  0  0  0  0
  141.6943   78.8999  219.8327 H   0  0  0  0  0  0  0  0  0  0  0  0
  141.8103   77.2183  222.2564 H   0  0  0  0  0  0  0  0  0  0  0  0
  139.8064   79.0658  221.0673 H   0  0  0  0  0  0  0  0  0  0  0  0
  139.4586   77.9898  222.5218 H   0  0  0  0  0  0  0  0  0  0  0  0
  141.7206   80.5026  221.1718 H   0  0  0  0  0  0  0  0  0  0  0  0
  140.1906   81.1996  221.6384 H   0  0  0  0  0  0  0  0  0  0  0  0
  142.5257   82.2379  222.5755 H   0  0  0  0  0  0  0  0  0  0  0  0
  141.1489   82.1806  223.6642 H   0  0  0  0  0  0  0  0  0  0  0  0
  143.6438   80.6783  223.8063 H   0  0  0  0  0  0  0  0  0  0  0  0
  142.3262   80.6252  224.9674 H   0  0  0  0  0  0  0  0  0  0  0  0
  142.7911   78.8768  222.4799 H   0  0  0  0  0  0  0  0  0  0  0  0
  142.1554   78.3538  224.0190 H   0  0  0  0  0  0  0  0  0  0  0  0
  139.1204   69.1271  222.7004 H   0  0  0  0  0  0  0  0  0  0  0  0
  139.1101   67.9054  224.8848 H   0  0  0  0  0  0  0  0  0  0  0  0
  139.5744   67.8658  227.3109 H   0  0  0  0  0  0  0  0  0  0  0  0
  140.3984   69.0436  229.3412 H   0  0  0  0  0  0  0  0  0  0  0  0
  141.2074   71.3789  229.1838 H   0  0  0  0  0  0  0  0  0  0  0  0
  141.2025   72.5465  226.9997 H   0  0  0  0  0  0  0  0  0  0  0  0
  1  2  2  0
  2  3  1  0
  3  4  1  0
  4  5  1  0
  5  6  2  0
  5  7  1  0
  7  8  1  0
  8  9  1  0
  9 10  1  0
  9 11  1  0
 11 12  1  0
 12 13  1  0
 13 14  1  0
 14 15  1  0
 15 16  1  0
 16 17  1  0
 17 18  1  0
  2 19  1  0
 19 20  2  0
 20 21  1  0
 21 22  2  0
 22 23  1  0
 23 24  2  0
 24 25  1  0
 25 26  2  0
 26 27  1  0
 27 28  2  0
 12  7  1  0
 18 14  1  0
 28 19  1  0
 27 22  1  0
  3 29  1  0
  4 30  1  0
  4 31  1  0
  8 32  1  0
  8 33  1  0
  9 34  1  6
 11 35  1  0
 11 36  1  0
 12 37  1  1
 13 38  1  0
 13 39  1  0
 15 40  1  0
 15 41  1  0
 16 42  1  0
 16 43  1  0
 17 44  1  0
 17 45  1  0
 18 46  1  0
 18 47  1  0
 20 48  1  0
 21 49  1  0
 23 50  1  0
 24 51  1  0
 25 52  1  0
 26 53  1  0
M  END
>  <smiles>  (14) 
O=C(NCC(=O)N1C[C@H](F)C[C@H]1CN1CCCC1)c1ccc2ccccc2n1

>  <score_type>  (14) 
oracle

>  <origin>  (14) 
autodockgpu

>  <m_score__min__energy>  (14) 
-8.4100000000000001

>  <m_primary>  (14) 
energy

>  <rmsd>  (14) 
2.1258935318349352

>  <m_score__min__rmsd>  (14) 
2.1258935318349352

>  <meeko>  (14) 
{"free_energy": -8.25, "intermolecular_energy": -10.04, "internal_energy": -1.92, "cluster_size": 30, "cluster_id": 1, "rank_in_cluster": 11}

>  <energy>  (14) 
-8.22

>  <cluster_rmsd>  (14) 
1.05

>  <cluster>  (14) 
1

$$$$

     RDKit          3D

 53 56  0  0  0  0  0  0  0  0999 V2000
  137.9400   70.9160  221.9370 O   0  0  0  0  0  0  0  0  0  0  0  0
  138.7290   71.3810  222.8290 C   0  0  0  0  0  0  0  0  0  0  0  0
  139.2420   72.6830  222.7170 N   0  0  0  0  0  0  0  0  0  0  0  0
  138.9150   73.5800  221.5970 C   0  0  0  0  0  0  0  0  0  0  0  0
  139.9310   74.6400  221.5740 C   0  0  0  0  0  0  0  0  0  0  0  0
  141.0780   74.3910  222.0710 O   0  0  0  0  0  0  0  0  0  0  0  0
  139.7530   75.9380  221.0410 N   0  0  0  0  0  0  0  0  0  0  0  0
  138.5840   76.3770  220.2970 C   0  0  0  0  0  0  0  0  0  0  0  0
  139.3260   77.0060  219.1030 C   0  0  2  0  0  0  0  0  0  0  0  0
  140.1470   76.0730  218.5390 F   0  0  0  0  0  0  0  0  0  0  0  0
  140.2190   77.9660  219.9120 C   0  0  0  0  0  0  0  0  0  0  0  0
  140.6330   77.1030  221.0840 C   0  0  1  0  0  0  0  0  0  0  0  0
  140.4820   77.7750  222.4130 C   0  0  0  0  0  0  0  0  0  0  0  0
  141.0330   79.0800  222.5040 N   0  0  0  0  0  0  0  0  0  0  0  0
  142.1800   79.0470  223.4420 C   0  0  0  0  0  0  0  0  0  0  0  0
  142.5500   80.5090  223.5410 C   0  0  0  0  0  0  0  0  0  0  0  0
  141.2420   81.2200  223.3870 C   0  0  0  0  0  0  0  0  0  0  0  0
  140.2260   80.0800  223.1540 C   0  0  0  0  0  0  0  0  0  0  0  0
  139.1090   70.5520  223.9840 C   0  0  0  0  0  0  0  0  0  0  0  0
  138.8040   69.2010  223.9530 C   0  0  0  0  0  0  0  0  0  0  0  0
  139.1860   68.4670  225.0700 C   0  0  0  0  0  0  0  0  0  0  0  0
  139.8290   69.0370  226.1460 C   0  0  0  0  0  0  0  0  0  0  0  0
  140.2200   68.3380  227.2630 C   0  0  0  0  0  0  0  0  0  0  0  0
  140.8680   68.9800  228.3190 C   0  0  0  0  0  0  0  0  0  0  0  0
  141.1260   70.3330  228.2510 C   0  0  0  0  0  0  0  0  0  0  0  0
  140.7490   71.0500  227.1510 C   0  0  0  0  0  0  0  0  0  0  0  0
  140.1080   70.3910  226.1200 C   0  0  0  0  0  0  0  0  0  0  0  0
  139.7370   71.0980  225.0380 N   0  0  0  0  0  0  0  0  0  0  0  0
  139.8860   73.0220  223.4730 H   0  0  0  0  0  0  0  0  0  0  0  0
  138.9329   73.0211  220.6498 H   0  0  0  0  0  0  0  0  0  0  0  0
  137.9093   74.0078  221.7221 H   0  0  0  0  0  0  0  0  0  0  0  0
  137.9411   75.5372  219.9945 H   0  0  0  0  0  0  0  0  0  0  0  0
  137.8835   77.0330  220.8346 H   0  0  0  0  0  0  0  0  0  0  0  0
  138.6970   77.4277  218.3052 H   0  0  0  0  0  0  0  0  0  0  0  0
  141.0921   78.2885  219.3257 H   0  0  0  0  0  0  0  0  0  0  0  0
  139.7141   78.8981  220.2056 H   0  0  0  0  0  0  0  0  0  0  0  0
  141.7020   76.8604  220.9922 H   0  0  0  0  0  0  0  0  0  0  0  0
  139.4074   77.8445  222.6375 H   0  0  0  0  0  0  0  0  0  0  0  0
  141.0456   77.1586  223.1288 H   0  0  0  0  0  0  0  0  0  0  0  0
  141.8835   78.6429  224.4212 H   0  0  0  0  0  0  0  0  0  0  0  0
  143.0067   78.4028  223.1079 H   0  0  0  0  0  0  0  0  0  0  0  0
  143.0050   80.7328  224.5172 H   0  0  0  0  0  0  0  0  0  0  0  0
  143.2903   80.8123  222.7861 H   0  0  0  0  0  0  0  0  0  0  0  0
  140.9941   81.7854  224.2974 H   0  0  0  0  0  0  0  0  0  0  0  0
  141.2516   81.9543  222.5680 H   0  0  0  0  0  0  0  0  0  0  0  0
  139.8197   79.7074  224.1059 H   0  0  0  0  0  0  0  0  0  0  0  0
  139.3463   80.3859  222.5686 H   0  0  0  0  0  0  0  0  0  0  0  0
  138.2912   68.7376  223.0973 H   0  0  0  0  0  0  0  0  0  0  0  0
  138.9662   67.3895  225.0953 H   0  0  0  0  0  0  0  0  0  0  0  0
  140.0195   67.2582  227.3253 H   0  0  0  0  0  0  0  0  0  0  0  0
  141.1733   68.4063  229.2065 H   0  0  0  0  0  0  0  0  0  0  0  0
  141.6369   70.8364  229.0850 H   0  0  0  0  0  0  0  0  0  0  0  0
  140.9516   72.1293  227.0876 H   0  0  0  0  0  0  0  0  0  0  0  0
  1  2  2  0
  2  3  1  0
  3  4  1  0
  4  5  1  0
  5  6  2  0
  5  7  1  0
  7  8  1  0
  8  9  1  0
  9 10  1  0
  9 11  1  0
 11 12  1  0
 12 13  1  0
 13 14  1  0
 14 15  1  0
 15 16  1  0
 16 17  1  0
 17 18  1  0
  2 19  1  0
 19 20  2  0
 20 21  1  0
 21 22  2  0
 22 23  1  0
 23 24  2  0
 24 25  1  0
 25 26  2  0
 26 27  1  0
 27 28  2  0
 12  7  1  0
 18 14  1  0
 28 19  1  0
 27 22  1  0
  3 29  1  0
  4 30  1  0
  4 31  1  0
  8 32  1  0
  8 33  1  0
  9 34  1  6
 11 35  1  0
 11 36  1  0
 12 37  1  6
 13 38  1  0
 13 39  1  0
 15 40  1  0
 15 41  1  0
 16 42  1  0
 16 43  1  0
 17 44  1  0
 17 45  1  0
 18 46  1  0
 18 47  1  0
 20 48  1  0
 21 49  1  0
 23 50  1  0
 24 51  1  0
 25 52  1  0
 26 53  1  0
M  END
>  <smiles>  (15) 
O=C(NCC(=O)N1C[C@H](F)C[C@H]1CN1CCCC1)c1ccc2ccccc2n1

>  <score_type>  (15) 
oracle

>  <origin>  (15) 
autodockgpu

>  <m_score__min__energy>  (15) 
-8.4100000000000001

>  <m_primary>  (15) 
energy

>  <rmsd>  (15) 
1.9429433286405642

>  <m_score__min__rmsd>  (15) 
1.9429433286405642

>  <meeko>  (15) 
{"free_energy": -7.74, "intermolecular_energy": -9.53, "internal_energy": -1.91, "cluster_size": 30, "cluster_id": 1, "rank_in_cluster": 29}

>  <energy>  (15) 
-8.22

>  <cluster_rmsd>  (15) 
0.22

>  <cluster>  (15) 
1

$$$$

     RDKit          3D

 53 56  0  0  0  0  0  0  0  0999 V2000
  139.8390   71.1470  221.2200 O   0  0  0  0  0  0  0  0  0  0  0  0
  139.8120   71.8290  222.3020 C   0  0  0  0  0  0  0  0  0  0  0  0
  139.7030   73.2280  222.2580 N   0  0  0  0  0  0  0  0  0  0  0  0
  139.6150   73.9860  221.0000 C   0  0  0  0  0  0  0  0  0  0  0  0
  140.4000   75.2160  221.1730 C   0  0  0  0  0  0  0  0  0  0  0  0
  140.4740   75.7280  222.3380 O   0  0  0  0  0  0  0  0  0  0  0  0
  141.0930   75.8990  220.1480 N   0  0  0  0  0  0  0  0  0  0  0  0
  140.8050   75.7810  218.7290 C   0  0  0  0  0  0  0  0  0  0  0  0
  142.2460   75.5270  218.2470 C   0  0  2  0  0  0  0  0  0  0  0  0
  142.7570   74.4450  218.9020 F   0  0  0  0  0  0  0  0  0  0  0  0
  142.8850   76.7810  218.8750 C   0  0  0  0  0  0  0  0  0  0  0  0
  142.2120   76.8350  220.2300 C   0  0  1  0  0  0  0  0  0  0  0  0
  141.6840   78.1890  220.5880 C   0  0  0  0  0  0  0  0  0  0  0  0
  141.7000   78.5040  221.9730 N   0  0  0  0  0  0  0  0  0  0  0  0
  140.3540   78.9810  222.3680 C   0  0  0  0  0  0  0  0  0  0  0  0
  140.5770   79.4080  223.8000 C   0  0  0  0  0  0  0  0  0  0  0  0
  141.9920   79.8950  223.8110 C   0  0  0  0  0  0  0  0  0  0  0  0
  142.4810   79.6480  222.3680 C   0  0  0  0  0  0  0  0  0  0  0  0
  139.8950   71.1510  223.6060 C   0  0  0  0  0  0  0  0  0  0  0  0
  139.4080   69.8580  223.7070 C   0  0  0  0  0  0  0  0  0  0  0  0
  139.5130   69.2670  224.9610 C   0  0  0  0  0  0  0  0  0  0  0  0
  140.0640   69.9190  226.0430 C   0  0  0  0  0  0  0  0  0  0  0  0
  140.1820   69.3620  227.2930 C   0  0  0  0  0  0  0  0  0  0  0  0
  140.7510   70.0790  228.3460 C   0  0  0  0  0  0  0  0  0  0  0  0
  141.2060   71.3640  228.1400 C   0  0  0  0  0  0  0  0  0  0  0  0
  141.1020   71.9400  226.9050 C   0  0  0  0  0  0  0  0  0  0  0  0
  140.5330   71.2090  225.8800 C   0  0  0  0  0  0  0  0  0  0  0  0
  140.4310   71.7770  224.6660 N   0  0  0  0  0  0  0  0  0  0  0  0
  139.6850   73.7450  223.1700 H   0  0  0  0  0  0  0  0  0  0  0  0
  140.0271   73.3901  220.1723 H   0  0  0  0  0  0  0  0  0  0  0  0
  138.5677   74.2236  220.7619 H   0  0  0  0  0  0  0  0  0  0  0  0
  140.1352   74.9371  218.5072 H   0  0  0  0  0  0  0  0  0  0  0  0
  140.2809   76.6308  218.2673 H   0  0  0  0  0  0  0  0  0  0  0  0
  142.3774   75.3604  217.1677 H   0  0  0  0  0  0  0  0  0  0  0  0
  143.9745   76.6667  218.9746 H   0  0  0  0  0  0  0  0  0  0  0  0
  142.7491   77.6939  218.2766 H   0  0  0  0  0  0  0  0  0  0  0  0
  142.9485   76.5855  221.0080 H   0  0  0  0  0  0  0  0  0  0  0  0
  142.2921   78.9400  220.0624 H   0  0  0  0  0  0  0  0  0  0  0  0
  140.6251   78.1892  220.2900 H   0  0  0  0  0  0  0  0  0  0  0  0
  140.0317   79.8279  221.7444 H   0  0  0  0  0  0  0  0  0  0  0  0
  139.5641   78.2247  222.2496 H   0  0  0  0  0  0  0  0  0  0  0  0
  139.8830   80.2138  224.0813 H   0  0  0  0  0  0  0  0  0  0  0  0
  140.4016   78.5941  224.5189 H   0  0  0  0  0  0  0  0  0  0  0  0
  142.0356   80.9653  224.0612 H   0  0  0  0  0  0  0  0  0  0  0  0
  142.6111   79.3827  224.5622 H   0  0  0  0  0  0  0  0  0  0  0  0
  142.2735   80.5145  221.7229 H   0  0  0  0  0  0  0  0  0  0  0  0
  143.5667   79.4890  222.2911 H   0  0  0  0  0  0  0  0  0  0  0  0
  138.9657   69.3316  222.8483 H   0  0  0  0  0  0  0  0  0  0  0  0
  139.1422   68.2400  225.0947 H   0  0  0  0  0  0  0  0  0  0  0  0
  139.8230   68.3367  227.4662 H   0  0  0  0  0  0  0  0  0  0  0  0
  140.8367   69.6186  229.3413 H   0  0  0  0  0  0  0  0  0  0  0  0
  141.6539   71.9272  228.9719 H   0  0  0  0  0  0  0  0  0  0  0  0
  141.4637   72.9641  226.7307 H   0  0  0  0  0  0  0  0  0  0  0  0
  1  2  2  0
  2  3  1  0
  3  4  1  0
  4  5  1  0
  5  6  2  0
  5  7  1  0
  7  8  1  0
  8  9  1  0
  9 10  1  0
  9 11  1  0
 11 12  1  0
 12 13  1  0
 13 14  1  0
 14 15  1  0
 15 16  1  0
 16 17  1  0
 17 18  1  0
  2 19  1  0
 19 20  2  0
 20 21  1  0
 21 22  2  0
 22 23  1  0
 23 24  2  0
 24 25  1  0
 25 26  2  0
 26 27  1  0
 27 28  2  0
 12  7  1  0
 18 14  1  0
 28 19  1  0
 27 22  1  0
  3 29  1  0
  4 30  1  0
  4 31  1  0
  8 32  1  0
  8 33  1  0
  9 34  1  6
 11 35  1  0
 11 36  1  0
 12 37  1  1
 13 38  1  0
 13 39  1  0
 15 40  1  0
 15 41  1  0
 16 42  1  0
 16 43  1  0
 17 44  1  0
 17 45  1  0
 18 46  1  0
 18 47  1  0
 20 48  1  0
 21 49  1  0
 23 50  1  0
 24 51  1  0
 25 52  1  0
 26 53  1  0
M  END
>  <smiles>  (16) 
O=C(NCC(=O)N1C[C@H](F)C[C@H]1CN1CCCC1)c1ccc2ccccc2n1

>  <score_type>  (16) 
oracle

>  <origin>  (16) 
autodockgpu

>  <m_score__min__energy>  (16) 
-8.4100000000000001

>  <m_primary>  (16) 
energy

>  <rmsd>  (16) 
1.8693291377787624

>  <m_score__min__rmsd>  (16) 
1.8693291377787624

>  <meeko>  (16) 
{"free_energy": -8.03, "intermolecular_energy": -9.82, "internal_energy": -1.97, "cluster_size": 30, "cluster_id": 1, "rank_in_cluster": 22}

>  <energy>  (16) 
-8.21

>  <cluster_rmsd>  (16) 
1.06

>  <cluster>  (16) 
1

$$$$

     RDKit          3D

 53 56  0  0  0  0  0  0  0  0999 V2000
  141.3520   71.5390  221.5580 O   0  0  0  0  0  0  0  0  0  0  0  0
  140.5660   71.9610  222.4730 C   0  0  0  0  0  0  0  0  0  0  0  0
  139.9390   73.2110  222.3500 N   0  0  0  0  0  0  0  0  0  0  0  0
  140.1350   74.0960  221.1920 C   0  0  0  0  0  0  0  0  0  0  0  0
  139.8600   75.4700  221.6380 C   0  0  0  0  0  0  0  0  0  0  0  0
  139.1640   75.6360  222.6930 O   0  0  0  0  0  0  0  0  0  0  0  0
  140.3030   76.6470  220.9940 N   0  0  0  0  0  0  0  0  0  0  0  0
  139.9430   77.0390  219.6410 C   0  0  0  0  0  0  0  0  0  0  0  0
  141.3650   77.3470  219.1320 C   0  0  2  0  0  0  0  0  0  0  0  0
  142.1540   76.2470  219.3050 F   0  0  0  0  0  0  0  0  0  0  0  0
  141.7490   78.3590  220.2280 C   0  0  0  0  0  0  0  0  0  0  0  0
  141.1840   77.7090  221.4730 C   0  0  1  0  0  0  0  0  0  0  0  0
  140.3930   78.6410  222.3360 C   0  0  0  0  0  0  0  0  0  0  0  0
  141.1550   79.4540  223.2160 N   0  0  0  0  0  0  0  0  0  0  0  0
  140.9570   80.8740  222.8430 C   0  0  0  0  0  0  0  0  0  0  0  0
  141.9310   81.5810  223.7580 C   0  0  0  0  0  0  0  0  0  0  0  0
  143.0540   80.6030  223.9070 C   0  0  0  0  0  0  0  0  0  0  0  0
  142.5880   79.3760  223.0930 C   0  0  0  0  0  0  0  0  0  0  0  0
  140.3110   71.1390  223.6670 C   0  0  0  0  0  0  0  0  0  0  0  0
  139.5970   69.9630  223.5150 C   0  0  0  0  0  0  0  0  0  0  0  0
  139.3860   69.2260  224.6760 C   0  0  0  0  0  0  0  0  0  0  0  0
  139.8540   69.6340  225.9060 C   0  0  0  0  0  0  0  0  0  0  0  0
  139.6630   68.9280  227.0690 C   0  0  0  0  0  0  0  0  0  0  0  0
  140.1650   69.3990  228.2830 C   0  0  0  0  0  0  0  0  0  0  0  0
  140.8650   70.5870  228.3270 C   0  0  0  0  0  0  0  0  0  0  0  0
  141.0700   71.3060  227.1830 C   0  0  0  0  0  0  0  0  0  0  0  0
  140.5610   70.8180  225.9950 C   0  0  0  0  0  0  0  0  0  0  0  0
  140.7640   71.5270  224.8710 N   0  0  0  0  0  0  0  0  0  0  0  0
  139.3020   73.5160  223.1260 H   0  0  0  0  0  0  0  0  0  0  0  0
  141.1709   74.0182  220.8303 H   0  0  0  0  0  0  0  0  0  0  0  0
  139.4631   73.8129  220.3683 H   0  0  0  0  0  0  0  0  0  0  0  0
  139.4666   76.2206  219.0813 H   0  0  0  0  0  0  0  0  0  0  0  0
  139.2071   77.8515  219.5496 H   0  0  0  0  0  0  0  0  0  0  0  0
  141.4505   77.6607  218.0812 H   0  0  0  0  0  0  0  0  0  0  0  0
  142.8405   78.4756  220.2989 H   0  0  0  0  0  0  0  0  0  0  0  0
  141.3661   79.3741  220.0464 H   0  0  0  0  0  0  0  0  0  0  0  0
  142.0142   77.3532  222.1008 H   0  0  0  0  0  0  0  0  0  0  0  0
  139.8147   79.3049  221.6766 H   0  0  0  0  0  0  0  0  0  0  0  0
  139.7698   78.0019  222.9787 H   0  0  0  0  0  0  0  0  0  0  0  0
  141.2051   81.0473  221.7854 H   0  0  0  0  0  0  0  0  0  0  0  0
  139.9182   81.2191  222.9511 H   0  0  0  0  0  0  0  0  0  0  0  0
  142.2852   82.5184  223.3043 H   0  0  0  0  0  0  0  0  0  0  0  0
  141.4817   81.8632  224.7216 H   0  0  0  0  0  0  0  0  0  0  0  0
  143.9879   81.0138  223.4958 H   0  0  0  0  0  0  0  0  0  0  0  0
  143.2674   80.3588  224.9581 H   0  0  0  0  0  0  0  0  0  0  0  0
  142.9026   79.4522  222.0417 H   0  0  0  0  0  0  0  0  0  0  0  0
  143.0100   78.4245  223.4488 H   0  0  0  0  0  0  0  0  0  0  0  0
  139.2196   69.6315  222.5364 H   0  0  0  0  0  0  0  0  0  0  0  0
  138.8246   68.2824  224.6095 H   0  0  0  0  0  0  0  0  0  0  0  0
  139.1071   67.9791  227.0430 H   0  0  0  0  0  0  0  0  0  0  0  0
  140.0024   68.8225  229.2056 H   0  0  0  0  0  0  0  0  0  0  0  0
  141.2591   70.9564  229.2852 H   0  0  0  0  0  0  0  0  0  0  0  0
  141.6285   72.2533  227.2076 H   0  0  0  0  0  0  0  0  0  0  0  0
  1  2  2  0
  2  3  1  0
  3  4  1  0
  4  5  1  0
  5  6  2  0
  5  7  1  0
  7  8  1  0
  8  9  1  0
  9 10  1  0
  9 11  1  0
 11 12  1  0
 12 13  1  0
 13 14  1  0
 14 15  1  0
 15 16  1  0
 16 17  1  0
 17 18  1  0
  2 19  1  0
 19 20  2  0
 20 21  1  0
 21 22  2  0
 22 23  1  0
 23 24  2  0
 24 25  1  0
 25 26  2  0
 26 27  1  0
 27 28  2  0
 12  7  1  0
 18 14  1  0
 28 19  1  0
 27 22  1  0
  3 29  1  0
  4 30  1  0
  4 31  1  0
  8 32  1  0
  8 33  1  0
  9 34  1  6
 11 35  1  0
 11 36  1  0
 12 37  1  1
 13 38  1  0
 13 39  1  0
 15 40  1  0
 15 41  1  0
 16 42  1  0
 16 43  1  0
 17 44  1  0
 17 45  1  0
 18 46  1  0
 18 47  1  0
 20 48  1  0
 21 49  1  0
 23 50  1  0
 24 51  1  0
 25 52  1  0
 26 53  1  0
M  END
>  <smiles>  (17) 
O=C(NCC(=O)N1C[C@H](F)C[C@H]1CN1CCCC1)c1ccc2ccccc2n1

>  <score_type>  (17) 
oracle

>  <origin>  (17) 
autodockgpu

>  <m_score__min__energy>  (17) 
-8.4100000000000001

>  <m_primary>  (17) 
energy

>  <rmsd>  (17) 
2.2498709790265563

>  <m_score__min__rmsd>  (17) 
2.2498709790265563

>  <meeko>  (17) 
{"free_energy": -8.41, "intermolecular_energy": -10.2, "internal_energy": -1.75, "cluster_size": 30, "cluster_id": 1, "rank_in_cluster": 1}

>  <energy>  (17) 
-8.21

>  <cluster_rmsd>  (17) 
1.06

>  <cluster>  (17) 
1

$$$$

     RDKit          3D

 53 56  0  0  0  0  0  0  0  0999 V2000
  140.1840   71.3410  221.1840 O   0  0  0  0  0  0  0  0  0  0  0  0
  139.9730   71.9890  222.2650 C   0  0  0  0  0  0  0  0  0  0  0  0
  139.7490   73.3750  222.2310 N   0  0  0  0  0  0  0  0  0  0  0  0
  139.7380   74.1550  220.9840 C   0  0  0  0  0  0  0  0  0  0  0  0
  140.6790   75.2700  221.1570 C   0  0  0  0  0  0  0  0  0  0  0  0
  141.0130   75.6040  222.3410 O   0  0  0  0  0  0  0  0  0  0  0  0
  141.2610   76.0240  220.1120 N   0  0  0  0  0  0  0  0  0  0  0  0
  141.0020   75.8190  218.6970 C   0  0  0  0  0  0  0  0  0  0  0  0
  142.4680   75.7830  218.2230 C   0  0  2  0  0  0  0  0  0  0  0  0
  143.1410   74.8160  218.9110 F   0  0  0  0  0  0  0  0  0  0  0  0
  142.8960   77.1410  218.8130 C   0  0  0  0  0  0  0  0  0  0  0  0
  142.2160   77.1280  220.1650 C   0  0  1  0  0  0  0  0  0  0  0  0
  141.4780   78.3910  220.4830 C   0  0  0  0  0  0  0  0  0  0  0  0
  141.9950   79.1450  221.5690 N   0  0  0  0  0  0  0  0  0  0  0  0
  141.4270   78.6150  222.8300 C   0  0  0  0  0  0  0  0  0  0  0  0
  141.9480   79.5990  223.8510 C   0  0  0  0  0  0  0  0  0  0  0  0
  142.0090   80.8930  223.1010 C   0  0  0  0  0  0  0  0  0  0  0  0
  141.5610   80.5150  221.6720 C   0  0  0  0  0  0  0  0  0  0  0  0
  139.9660   71.2880  223.5590 C   0  0  0  0  0  0  0  0  0  0  0  0
  139.4080   70.0210  223.6170 C   0  0  0  0  0  0  0  0  0  0  0  0
  139.4280   69.4060  224.8640 C   0  0  0  0  0  0  0  0  0  0  0  0
  139.9670   70.0090  225.9780 C   0  0  0  0  0  0  0  0  0  0  0  0
  140.0020   69.4270  227.2230 C   0  0  0  0  0  0  0  0  0  0  0  0
  140.5650   70.0960  228.3100 C   0  0  0  0  0  0  0  0  0  0  0  0
  141.0960   71.3570  228.1470 C   0  0  0  0  0  0  0  0  0  0  0  0
  141.0740   71.9580  226.9190 C   0  0  0  0  0  0  0  0  0  0  0  0
  140.5110   71.2750  225.8590 C   0  0  0  0  0  0  0  0  0  0  0  0
  140.4900   71.8670  224.6520 N   0  0  0  0  0  0  0  0  0  0  0  0
  139.5810   73.8650  223.1430 H   0  0  0  0  0  0  0  0  0  0  0  0
  140.0548   73.5224  220.1417 H   0  0  0  0  0  0  0  0  0  0  0  0
  138.7265   74.5294  220.7681 H   0  0  0  0  0  0  0  0  0  0  0  0
  140.4759   74.8731  218.5010 H   0  0  0  0  0  0  0  0  0  0  0  0
  140.3517   76.5602  218.2096 H   0  0  0  0  0  0  0  0  0  0  0  0
  142.6300   75.6071  217.1493 H   0  0  0  0  0  0  0  0  0  0  0  0
  143.9893   77.2046  218.9166 H   0  0  0  0  0  0  0  0  0  0  0  0
  142.6197   78.0023  218.1870 H   0  0  0  0  0  0  0  0  0  0  0  0
  142.9794   77.0224  220.9499 H   0  0  0  0  0  0  0  0  0  0  0  0
  141.4978   79.0295  219.5875 H   0  0  0  0  0  0  0  0  0  0  0  0
  140.4666   78.0814  220.7852 H   0  0  0  0  0  0  0  0  0  0  0  0
  140.3273   78.6129  222.8026 H   0  0  0  0  0  0  0  0  0  0  0  0
  141.7079   77.5719  223.0376 H   0  0  0  0  0  0  0  0  0  0  0  0
  141.2623   79.6746  224.7078 H   0  0  0  0  0  0  0  0  0  0  0  0
  142.9216   79.3031  224.2688 H   0  0  0  0  0  0  0  0  0  0  0  0
  141.3260   81.6338  223.5423 H   0  0  0  0  0  0  0  0  0  0  0  0
  143.0089   81.3508  223.1251 H   0  0  0  0  0  0  0  0  0  0  0  0
  140.4696   80.5970  221.5614 H   0  0  0  0  0  0  0  0  0  0  0  0
  141.9764   81.1695  220.8915 H   0  0  0  0  0  0  0  0  0  0  0  0
  138.9760   69.5320  222.7314 H   0  0  0  0  0  0  0  0  0  0  0  0
  138.9966   68.3991  224.9641 H   0  0  0  0  0  0  0  0  0  0  0  0
  139.5806   68.4207  227.3639 H   0  0  0  0  0  0  0  0  0  0  0  0
  140.5851   69.6158  229.2994 H   0  0  0  0  0  0  0  0  0  0  0  0
  141.5386   71.8814  229.0067 H   0  0  0  0  0  0  0  0  0  0  0  0
  141.4958   72.9641  226.7784 H   0  0  0  0  0  0  0  0  0  0  0  0
  1  2  2  0
  2  3  1  0
  3  4  1  0
  4  5  1  0
  5  6  2  0
  5  7  1  0
  7  8  1  0
  8  9  1  0
  9 10  1  0
  9 11  1  0
 11 12  1  0
 12 13  1  0
 13 14  1  0
 14 15  1  0
 15 16  1  0
 16 17  1  0
 17 18  1  0
  2 19  1  0
 19 20  2  0
 20 21  1  0
 21 22  2  0
 22 23  1  0
 23 24  2  0
 24 25  1  0
 25 26  2  0
 26 27  1  0
 27 28  2  0
 12  7  1  0
 18 14  1  0
 28 19  1  0
 27 22  1  0
  3 29  1  0
  4 30  1  0
  4 31  1  0
  8 32  1  0
  8 33  1  0
  9 34  1  6
 11 35  1  0
 11 36  1  0
 12 37  1  1
 13 38  1  0
 13 39  1  0
 15 40  1  0
 15 41  1  0
 16 42  1  0
 16 43  1  0
 17 44  1  0
 17 45  1  0
 18 46  1  0
 18 47  1  0
 20 48  1  0
 21 49  1  0
 23 50  1  0
 24 51  1  0
 25 52  1  0
 26 53  1  0
M  END
>  <smiles>  (18) 
O=C(NCC(=O)N1C[C@H](F)C[C@H]1CN1CCCC1)c1ccc2ccccc2n1

>  <score_type>  (18) 
oracle

>  <origin>  (18) 
autodockgpu

>  <m_score__min__energy>  (18) 
-8.4100000000000001

>  <m_primary>  (18) 
energy

>  <rmsd>  (18) 
1.7751721050813345

>  <m_score__min__rmsd>  (18) 
1.7751721050813345

>  <meeko>  (18) 
{"free_energy": -8.3, "intermolecular_energy": -10.09, "internal_energy": -1.78, "cluster_size": 30, "cluster_id": 1, "rank_in_cluster": 5}

>  <energy>  (18) 
-8.15

>  <cluster_rmsd>  (18) 
0.94

>  <cluster>  (18) 
1

$$$$

     RDKit          3D

 53 56  0  0  0  0  0  0  0  0999 V2000
  137.2990   76.4630  222.1800 O   0  0  0  0  0  0  0  0  0  0  0  0
  138.5650   76.5110  222.3570 C   0  0  0  0  0  0  0  0  0  0  0  0
  139.3490   75.3570  222.1970 N   0  0  0  0  0  0  0  0  0  0  0  0
  138.7870   74.0500  221.8250 C   0  0  0  0  0  0  0  0  0  0  0  0
  139.7590   73.0240  222.2250 C   0  0  0  0  0  0  0  0  0  0  0  0
  140.9830   73.3620  222.3400 O   0  0  0  0  0  0  0  0  0  0  0  0
  139.4600   71.6700  222.5000 N   0  0  0  0  0  0  0  0  0  0  0  0
  139.4610   70.6030  221.5130 C   0  0  0  0  0  0  0  0  0  0  0  0
  138.0840   70.0030  221.8590 C   0  0  2  0  0  0  0  0  0  0  0  0
  137.1320   70.9760  221.7670 F   0  0  0  0  0  0  0  0  0  0  0  0
  138.3470   69.7640  223.3580 C   0  0  0  0  0  0  0  0  0  0  0  0
  139.0870   71.0230  223.7550 C   0  0  1  0  0  0  0  0  0  0  0  0
  140.3260   70.7700  224.5550 C   0  0  0  0  0  0  0  0  0  0  0  0
  140.1640   70.8170  225.9650 N   0  0  0  0  0  0  0  0  0  0  0  0
  141.1070   71.8160  226.5190 C   0  0  0  0  0  0  0  0  0  0  0  0
  140.9180   71.6390  228.0070 C   0  0  0  0  0  0  0  0  0  0  0  0
  140.6060   70.1830  228.1570 C   0  0  0  0  0  0  0  0  0  0  0  0
  140.5890   69.6570  226.7050 C   0  0  0  0  0  0  0  0  0  0  0  0
  139.2120   77.7790  222.7310 C   0  0  0  0  0  0  0  0  0  0  0  0
  138.4060   78.8470  223.0900 C   0  0  0  0  0  0  0  0  0  0  0  0
  139.0700   80.0190  223.4340 C   0  0  0  0  0  0  0  0  0  0  0  0
  140.4440   80.1220  223.4210 C   0  0  0  0  0  0  0  0  0  0  0  0
  141.1290   81.2660  223.7560 C   0  0  0  0  0  0  0  0  0  0  0  0
  142.5230   81.3010  223.7220 C   0  0  0  0  0  0  0  0  0  0  0  0
  143.2340   80.1800  223.3490 C   0  0  0  0  0  0  0  0  0  0  0  0
  142.5760   79.0300  223.0120 C   0  0  0  0  0  0  0  0  0  0  0  0
  141.1960   79.0220  223.0540 C   0  0  0  0  0  0  0  0  0  0  0  0
  140.5500   77.8900  222.7230 N   0  0  0  0  0  0  0  0  0  0  0  0
  140.3830   75.4450  222.3530 H   0  0  0  0  0  0  0  0  0  0  0  0
  137.8329   73.8883  222.3481 H   0  0  0  0  0  0  0  0  0  0  0  0
  138.5960   74.0032  220.7427 H   0  0  0  0  0  0  0  0  0  0  0  0
  139.5033   70.9863  220.4828 H   0  0  0  0  0  0  0  0  0  0  0  0
  140.3153   69.9108  221.5460 H   0  0  0  0  0  0  0  0  0  0  0  0
  137.7545   69.1509  221.2463 H   0  0  0  0  0  0  0  0  0  0  0  0
  137.4053   69.6613  223.9171 H   0  0  0  0  0  0  0  0  0  0  0  0
  138.9038   68.8388  223.5675 H   0  0  0  0  0  0  0  0  0  0  0  0
  138.4362   71.6339  224.3978 H   0  0  0  0  0  0  0  0  0  0  0  0
  140.7021   69.7707  224.2903 H   0  0  0  0  0  0  0  0  0  0  0  0
  141.0195   71.5860  224.3035 H   0  0  0  0  0  0  0  0  0  0  0  0
  142.1424   71.5968  226.2192 H   0  0  0  0  0  0  0  0  0  0  0  0
  140.9211   72.8419  226.1684 H   0  0  0  0  0  0  0  0  0  0  0  0
  141.8365   71.9011  228.5525 H   0  0  0  0  0  0  0  0  0  0  0  0
  140.1288   72.2873  228.4155 H   0  0  0  0  0  0  0  0  0  0  0  0
  141.3820   69.6751  228.7485 H   0  0  0  0  0  0  0  0  0  0  0  0
  139.6577   70.0039  228.6849 H   0  0  0  0  0  0  0  0  0  0  0  0
  141.5896   69.3270  226.3888 H   0  0  0  0  0  0  0  0  0  0  0  0
  139.9407   68.7801  226.5611 H   0  0  0  0  0  0  0  0  0  0  0  0
  137.3086   78.7723  223.1021 H   0  0  0  0  0  0  0  0  0  0  0  0
  138.4761   80.8971  223.7276 H   0  0  0  0  0  0  0  0  0  0  0  0
  140.5705   82.1654  224.0547 H   0  0  0  0  0  0  0  0  0  0  0  0
  143.0559   82.2243  223.9932 H   0  0  0  0  0  0  0  0  0  0  0  0
  144.3332   80.2111  223.3225 H   0  0  0  0  0  0  0  0  0  0  0  0
  143.1341   78.1303  222.7137 H   0  0  0  0  0  0  0  0  0  0  0  0
  1  2  2  0
  2  3  1  0
  3  4  1  0
  4  5  1  0
  5  6  2  0
  5  7  1  0
  7  8  1  0
  8  9  1  0
  9 10  1  0
  9 11  1  0
 11 12  1  0
 12 13  1  0
 13 14  1  0
 14 15  1  0
 15 16  1  0
 16 17  1  0
 17 18  1  0
  2 19  1  0
 19 20  2  0
 20 21  1  0
 21 22  2  0
 22 23  1  0
 23 24  2  0
 24 25  1  0
 25 26  2  0
 26 27  1  0
 27 28  2  0
 12  7  1  0
 18 14  1  0
 28 19  1  0
 27 22  1  0
  3 29  1  0
  4 30  1  0
  4 31  1  0
  8 32  1  0
  8 33  1  0
  9 34  1  6
 11 35  1  0
 11 36  1  0
 12 37  1  1
 13 38  1  0
 13 39  1  0
 15 40  1  0
 15 41  1  0
 16 42  1  0
 16 43  1  0
 17 44  1  0
 17 45  1  0
 18 46  1  0
 18 47  1  0
 20 48  1  0
 21 49  1  0
 23 50  1  0
 24 51  1  0
 25 52  1  0
 26 53  1  0
M  END
>  <smiles>  (19) 
O=C(NCC(=O)N1C[C@H](F)C[C@H]1CN1CCCC1)c1ccc2ccccc2n1

>  <score_type>  (19) 
oracle

>  <origin>  (19) 
autodockgpu

>  <m_score__min__energy>  (19) 
-8.4100000000000001

>  <m_primary>  (19) 
energy

>  <rmsd>  (19) 
9.16784844777164

>  <m_score__min__rmsd>  (19) 
9.16784844777164

>  <meeko>  (19) 
{"free_energy": -7.93, "intermolecular_energy": -9.72, "internal_energy": -2.05, "cluster_size": 4, "cluster_id": 2, "rank_in_cluster": 1}

>  <energy>  (19) 
-8.1

>  <cluster_rmsd>  (19) 
1.1

>  <cluster>  (19) 
1

$$$$

     RDKit          3D

 53 56  0  0  0  0  0  0  0  0999 V2000
  140.9410   71.4150  221.2900 O   0  0  0  0  0  0  0  0  0  0  0  0
  140.4970   72.0470  222.3090 C   0  0  0  0  0  0  0  0  0  0  0  0
  140.2150   73.4190  222.2280 N   0  0  0  0  0  0  0  0  0  0  0  0
  140.4040   74.2050  220.9990 C   0  0  0  0  0  0  0  0  0  0  0  0
  140.7480   75.5760  221.4030 C   0  0  0  0  0  0  0  0  0  0  0  0
  140.3920   75.9730  222.5610 O   0  0  0  0  0  0  0  0  0  0  0  0
  141.4510   76.5140  220.6130 N   0  0  0  0  0  0  0  0  0  0  0  0
  141.5230   77.9400  220.8840 C   0  0  0  0  0  0  0  0  0  0  0  0
  141.1520   78.4350  219.4730 C   0  0  2  0  0  0  0  0  0  0  0  0
  139.9520   77.9000  219.1080 F   0  0  0  0  0  0  0  0  0  0  0  0
  142.2440   77.6680  218.7040 C   0  0  0  0  0  0  0  0  0  0  0  0
  142.2310   76.3210  219.3930 C   0  0  1  0  0  0  0  0  0  0  0  0
  143.5910   75.8180  219.7650 C   0  0  0  0  0  0  0  0  0  0  0  0
  143.6340   74.4990  220.2870 N   0  0  0  0  0  0  0  0  0  0  0  0
  145.0490   74.1190  220.5070 C   0  0  0  0  0  0  0  0  0  0  0  0
  144.9290   72.6680  220.9120 C   0  0  0  0  0  0  0  0  0  0  0  0
  143.7400   72.1810  220.1450 C   0  0  0  0  0  0  0  0  0  0  0  0
  143.2410   73.4360  219.3960 C   0  0  0  0  0  0  0  0  0  0  0  0
  140.2790   71.3380  223.5810 C   0  0  0  0  0  0  0  0  0  0  0  0
  139.6210   70.1190  223.5490 C   0  0  0  0  0  0  0  0  0  0  0  0
  139.4420   69.4940  224.7780 C   0  0  0  0  0  0  0  0  0  0  0  0
  139.8870   70.0450  225.9600 C   0  0  0  0  0  0  0  0  0  0  0  0
  139.7260   69.4520  227.1890 C   0  0  0  0  0  0  0  0  0  0  0  0
  140.2010   70.0660  228.3480 C   0  0  0  0  0  0  0  0  0  0  0  0
  140.8440   71.2840  228.2710 C   0  0  0  0  0  0  0  0  0  0  0  0
  141.0180   71.8930  227.0600 C   0  0  0  0  0  0  0  0  0  0  0  0
  140.5370   71.2650  225.9280 C   0  0  0  0  0  0  0  0  0  0  0  0
  140.7090   71.8660  224.7380 N   0  0  0  0  0  0  0  0  0  0  0  0
  139.8530   73.8950  223.0900 H   0  0  0  0  0  0  0  0  0  0  0  0
  141.2189   73.7742  220.3987 H   0  0  0  0  0  0  0  0  0  0  0  0
  139.4889   74.1978  220.3886 H   0  0  0  0  0  0  0  0  0  0  0  0
  140.7944   78.2586  221.6440 H   0  0  0  0  0  0  0  0  0  0  0  0
  142.4741   78.3097  221.2947 H   0  0  0  0  0  0  0  0  0  0  0  0
  141.0892   79.5250  219.3391 H   0  0  0  0  0  0  0  0  0  0  0  0
  141.9899   77.5735  217.6379 H   0  0  0  0  0  0  0  0  0  0  0  0
  143.2262   78.1631  218.7190 H   0  0  0  0  0  0  0  0  0  0  0  0
  141.8122   75.5707  218.7062 H   0  0  0  0  0  0  0  0  0  0  0  0
  144.2208   75.8462  218.8636 H   0  0  0  0  0  0  0  0  0  0  0  0
  143.9442   76.4741  220.5741 H   0  0  0  0  0  0  0  0  0  0  0  0
  145.6396   74.2286  219.5855 H   0  0  0  0  0  0  0  0  0  0  0  0
  145.5643   74.7445  221.2508 H   0  0  0  0  0  0  0  0  0  0  0  0
  145.8327   72.1069  220.6320 H   0  0  0  0  0  0  0  0  0  0  0  0
  144.8173   72.5372  221.9985 H   0  0  0  0  0  0  0  0  0  0  0  0
  144.0285   71.3911  219.4360 H   0  0  0  0  0  0  0  0  0  0  0  0
  142.9688   71.7396  220.7935 H   0  0  0  0  0  0  0  0  0  0  0  0
  143.7299   73.5361  218.4157 H   0  0  0  0  0  0  0  0  0  0  0  0
  142.1632   73.4197  219.1765 H   0  0  0  0  0  0  0  0  0  0  0  0
  139.2624   69.6733  222.6094 H   0  0  0  0  0  0  0  0  0  0  0  0
  138.9257   68.5231  224.8079 H   0  0  0  0  0  0  0  0  0  0  0  0
  139.2157   68.4801  227.2599 H   0  0  0  0  0  0  0  0  0  0  0  0
  140.0627   69.5784  229.3243 H   0  0  0  0  0  0  0  0  0  0  0  0
  141.2175   71.7662  229.1864 H   0  0  0  0  0  0  0  0  0  0  0  0
  141.5307   72.8636  226.9884 H   0  0  0  0  0  0  0  0  0  0  0  0
  1  2  2  0
  2  3  1  0
  3  4  1  0
  4  5  1  0
  5  6  2  0
  5  7  1  0
  7  8  1  0
  8  9  1  0
  9 10  1  0
  9 11  1  0
 11 12  1  0
 12 13  1  0
 13 14  1  0
 14 15  1  0
 15 16  1  0
 16 17  1  0
 17 18  1  0
  2 19  1  0
 19 20  2  0
 20 21  1  0
 21 22  2  0
 22 23  1  0
 23 24  2  0
 24 25  1  0
 25 26  2  0
 26 27  1  0
 27 28  2  0
 12  7  1  0
 18 14  1  0
 28 19  1  0
 27 22  1  0
  3 29  1  0
  4 30  1  0
  4 31  1  0
  8 32  1  0
  8 33  1  0
  9 34  1  1
 11 35  1  0
 11 36  1  0
 12 37  1  6
 13 38  1  0
 13 39  1  0
 15 40  1  0
 15 41  1  0
 16 42  1  0
 16 43  1  0
 17 44  1  0
 17 45  1  0
 18 46  1  0
 18 47  1  0
 20 48  1  0
 21 49  1  0
 23 50  1  0
 24 51  1  0
 25 52  1  0
 26 53  1  0
M  END
>  <smiles>  (20) 
O=C(NCC(=O)N1C[C@H](F)C[C@H]1CN1CCCC1)c1ccc2ccccc2n1

>  <score_type>  (20) 
oracle

>  <origin>  (20) 
autodockgpu

>  <m_score__min__energy>  (20) 
-8.4100000000000001

>  <m_primary>  (20) 
energy

>  <rmsd>  (20) 
4.222285509048634

>  <m_score__min__rmsd>  (20) 
4.222285509048634

>  <meeko>  (20) 
{"free_energy": -7.78, "intermolecular_energy": -9.57, "internal_energy": -2.37, "cluster_size": 16, "cluster_id": 3, "rank_in_cluster": 5}

>  <energy>  (20) 
-8.08

>  <cluster_rmsd>  (20) 
0.61

>  <cluster>  (20) 
1

$$$$

     RDKit          3D

 53 56  0  0  0  0  0  0  0  0999 V2000
  140.4400   71.4060  221.2410 O   0  0  0  0  0  0  0  0  0  0  0  0
  140.1300   72.0120  222.3230 C   0  0  0  0  0  0  0  0  0  0  0  0
  139.8230   73.3820  222.3080 N   0  0  0  0  0  0  0  0  0  0  0  0
  139.8340   74.1930  221.0810 C   0  0  0  0  0  0  0  0  0  0  0  0
  140.2530   75.5510  221.4570 C   0  0  0  0  0  0  0  0  0  0  0  0
  140.2020   75.8820  222.6860 O   0  0  0  0  0  0  0  0  0  0  0  0
  140.7160   76.5440  220.5640 N   0  0  0  0  0  0  0  0  0  0  0  0
  140.4500   76.5650  219.1350 C   0  0  0  0  0  0  0  0  0  0  0  0
  141.8980   76.7930  218.6600 C   0  0  2  0  0  0  0  0  0  0  0  0
  142.6970   75.8060  219.1610 F   0  0  0  0  0  0  0  0  0  0  0  0
  142.1760   78.0640  219.4840 C   0  0  0  0  0  0  0  0  0  0  0  0
  141.5350   77.7280  220.8130 C   0  0  1  0  0  0  0  0  0  0  0  0
  140.6600   78.8150  221.3550 C   0  0  0  0  0  0  0  0  0  0  0  0
  141.3370   79.8640  222.0300 N   0  0  0  0  0  0  0  0  0  0  0  0
  142.5290   79.3040  222.7080 C   0  0  0  0  0  0  0  0  0  0  0  0
  143.0410   80.4940  223.4850 C   0  0  0  0  0  0  0  0  0  0  0  0
  141.7990   81.2510  223.8370 C   0  0  0  0  0  0  0  0  0  0  0  0
  140.6680   80.4410  223.1680 C   0  0  0  0  0  0  0  0  0  0  0  0
  140.0950   71.2770  223.5980 C   0  0  0  0  0  0  0  0  0  0  0  0
  139.5510   70.0030  223.6070 C   0  0  0  0  0  0  0  0  0  0  0  0
  139.5430   69.3560  224.8370 C   0  0  0  0  0  0  0  0  0  0  0  0
  140.0420   69.9370  225.9830 C   0  0  0  0  0  0  0  0  0  0  0  0
  140.0480   69.3230  227.2120 C   0  0  0  0  0  0  0  0  0  0  0  0
  140.5690   69.9700  228.3330 C   0  0  0  0  0  0  0  0  0  0  0  0
  141.0880   71.2420  228.2170 C   0  0  0  0  0  0  0  0  0  0  0  0
  141.0940   71.8740  227.0050 C   0  0  0  0  0  0  0  0  0  0  0  0
  140.5710   71.2120  225.9120 C   0  0  0  0  0  0  0  0  0  0  0  0
  140.5780   71.8350  224.7200 N   0  0  0  0  0  0  0  0  0  0  0  0
  139.5750   73.8370  223.2210 H   0  0  0  0  0  0  0  0  0  0  0  0
  140.5430   73.7679  220.3554 H   0  0  0  0  0  0  0  0  0  0  0  0
  138.8373   74.2082  220.6159 H   0  0  0  0  0  0  0  0  0  0  0  0
  140.0362   75.6124  218.7727 H   0  0  0  0  0  0  0  0  0  0  0  0
  139.7044   77.2965  218.7901 H   0  0  0  0  0  0  0  0  0  0  0  0
  142.0543   76.8341  217.5719 H   0  0  0  0  0  0  0  0  0  0  0  0
  143.2562   78.2394  219.5949 H   0  0  0  0  0  0  0  0  0  0  0  0
  141.7846   78.9835  219.0242 H   0  0  0  0  0  0  0  0  0  0  0  0
  142.3243   77.5773  221.5642 H   0  0  0  0  0  0  0  0  0  0  0  0
  140.1059   79.2557  220.5131 H   0  0  0  0  0  0  0  0  0  0  0  0
  140.0158   78.3373  222.1079 H   0  0  0  0  0  0  0  0  0  0  0  0
  142.2545   78.4771  223.3795 H   0  0  0  0  0  0  0  0  0  0  0  0
  143.2698   78.8752  222.0171 H   0  0  0  0  0  0  0  0  0  0  0  0
  143.5731   80.1706  224.3918 H   0  0  0  0  0  0  0  0  0  0  0  0
  143.7601   81.0985  222.9128 H   0  0  0  0  0  0  0  0  0  0  0  0
  141.6602   81.2898  224.9275 H   0  0  0  0  0  0  0  0  0  0  0  0
  141.8294   82.2970  223.4978 H   0  0  0  0  0  0  0  0  0  0  0  0
  140.2837   79.6613  223.8420 H   0  0  0  0  0  0  0  0  0  0  0  0
  139.7893   81.0470  222.9024 H   0  0  0  0  0  0  0  0  0  0  0  0
  139.1502   69.5326  222.6970 H   0  0  0  0  0  0  0  0  0  0  0  0
  139.1223   68.3415  224.8983 H   0  0  0  0  0  0  0  0  0  0  0  0
  139.6366   68.3079  227.3136 H   0  0  0  0  0  0  0  0  0  0  0  0
  140.5657   69.4648  229.3101 H   0  0  0  0  0  0  0  0  0  0  0  0
  141.4984   71.7497  229.1023 H   0  0  0  0  0  0  0  0  0  0  0  0
  141.5067   72.8885  226.9026 H   0  0  0  0  0  0  0  0  0  0  0  0
  1  2  2  0
  2  3  1  0
  3  4  1  0
  4  5  1  0
  5  6  2  0
  5  7  1  0
  7  8  1  0
  8  9  1  0
  9 10  1  0
  9 11  1  0
 11 12  1  0
 12 13  1  0
 13 14  1  0
 14 15  1  0
 15 16  1  0
 16 17  1  0
 17 18  1  0
  2 19  1  0
 19 20  2  0
 20 21  1  0
 21 22  2  0
 22 23  1  0
 23 24  2  0
 24 25  1  0
 25 26  2  0
 26 27  1  0
 27 28  2  0
 12  7  1  0
 18 14  1  0
 28 19  1  0
 27 22  1  0
  3 29  1  0
  4 30  1  0
  4 31  1  0
  8 32  1  0
  8 33  1  0
  9 34  1  6
 11 35  1  0
 11 36  1  0
 12 37  1  1
 13 38  1  0
 13 39  1  0
 15 40  1  0
 15 41  1  0
 16 42  1  0
 16 43  1  0
 17 44  1  0
 17 45  1  0
 18 46  1  0
 18 47  1  0
 20 48  1  0
 21 49  1  0
 23 50  1  0
 24 51  1  0
 25 52  1  0
 26 53  1  0
M  END
>  <smiles>  (21) 
O=C(NCC(=O)N1C[C@H](F)C[C@H]1CN1CCCC1)c1ccc2ccccc2n1

>  <score_type>  (21) 
oracle

>  <origin>  (21) 
autodockgpu

>  <m_score__min__energy>  (21) 
-8.4100000000000001

>  <m_primary>  (21) 
energy

>  <rmsd>  (21) 
2.086420595335749

>  <m_score__min__rmsd>  (21) 
2.086420595335749

>  <meeko>  (21) 
{"free_energy": -8.35, "intermolecular_energy": -10.14, "internal_energy": -1.93, "cluster_size": 30, "cluster_id": 1, "rank_in_cluster": 3}

>  <energy>  (21) 
-8.06

>  <cluster_rmsd>  (21) 
0.89

>  <cluster>  (21) 
1

$$$$

     RDKit          3D

 53 56  0  0  0  0  0  0  0  0999 V2000
  139.7530   71.1740  221.2120 O   0  0  0  0  0  0  0  0  0  0  0  0
  139.7790   71.8520  222.2960 C   0  0  0  0  0  0  0  0  0  0  0  0
  139.7320   73.2550  222.2570 N   0  0  0  0  0  0  0  0  0  0  0  0
  139.6510   74.0200  221.0040 C   0  0  0  0  0  0  0  0  0  0  0  0
  140.4130   75.2610  221.1980 C   0  0  0  0  0  0  0  0  0  0  0  0
  140.4580   75.7680  222.3660 O   0  0  0  0  0  0  0  0  0  0  0  0
  141.1150   75.9610  220.1890 N   0  0  0  0  0  0  0  0  0  0  0  0
  140.8680   75.8300  218.7630 C   0  0  0  0  0  0  0  0  0  0  0  0
  142.3290   75.6160  218.3210 C   0  0  2  0  0  0  0  0  0  0  0  0
  142.8520   74.5500  218.9940 F   0  0  0  0  0  0  0  0  0  0  0  0
  142.9150   76.8880  218.9620 C   0  0  0  0  0  0  0  0  0  0  0  0
  142.2040   76.9280  220.2970 C   0  0  1  0  0  0  0  0  0  0  0  0
  141.6290   78.2680  220.6370 C   0  0  0  0  0  0  0  0  0  0  0  0
  141.6780   78.6240  222.0100 N   0  0  0  0  0  0  0  0  0  0  0  0
  140.3640   79.1820  222.4040 C   0  0  0  0  0  0  0  0  0  0  0  0
  140.6260   79.6400  223.8200 C   0  0  0  0  0  0  0  0  0  0  0  0
  142.0640   80.0540  223.8010 C   0  0  0  0  0  0  0  0  0  0  0  0
  142.5230   79.7370  222.3610 C   0  0  0  0  0  0  0  0  0  0  0  0
  139.8590   71.1680  223.5960 C   0  0  0  0  0  0  0  0  0  0  0  0
  139.4070   69.8610  223.6800 C   0  0  0  0  0  0  0  0  0  0  0  0
  139.5060   69.2630  224.9310 C   0  0  0  0  0  0  0  0  0  0  0  0
  140.0200   69.9220  226.0270 C   0  0  0  0  0  0  0  0  0  0  0  0
  140.1320   69.3590  227.2760 C   0  0  0  0  0  0  0  0  0  0  0  0
  140.6630   70.0840  228.3430 C   0  0  0  0  0  0  0  0  0  0  0  0
  141.0850   71.3830  228.1540 C   0  0  0  0  0  0  0  0  0  0  0  0
  140.9850   71.9650  226.9220 C   0  0  0  0  0  0  0  0  0  0  0  0
  140.4550   71.2260  225.8820 C   0  0  0  0  0  0  0  0  0  0  0  0
  140.3580   71.8000  224.6700 N   0  0  0  0  0  0  0  0  0  0  0  0
  139.7550   73.7700  223.1710 H   0  0  0  0  0  0  0  0  0  0  0  0
  140.0855   73.4370  220.1786 H   0  0  0  0  0  0  0  0  0  0  0  0
  138.6038   74.2423  220.7512 H   0  0  0  0  0  0  0  0  0  0  0  0
  140.2289   74.9664  218.5269 H   0  0  0  0  0  0  0  0  0  0  0  0
  140.3320   76.6625  218.2838 H   0  0  0  0  0  0  0  0  0  0  0  0
  142.4946   75.4509  217.2461 H   0  0  0  0  0  0  0  0  0  0  0  0
  144.0040   76.8039  219.0922 H   0  0  0  0  0  0  0  0  0  0  0  0
  142.7704   77.7950  218.3567 H   0  0  0  0  0  0  0  0  0  0  0  0
  142.9263   76.7021  221.0953 H   0  0  0  0  0  0  0  0  0  0  0  0
  142.1849   79.0290  220.0697 H   0  0  0  0  0  0  0  0  0  0  0  0
  140.5615   78.2129  220.3775 H   0  0  0  0  0  0  0  0  0  0  0  0
  140.0785   80.0253  221.7580 H   0  0  0  0  0  0  0  0  0  0  0  0
  139.5347   78.4646  222.3173 H   0  0  0  0  0  0  0  0  0  0  0  0
  139.9774   80.4884  224.0838 H   0  0  0  0  0  0  0  0  0  0  0  0
  140.4183   78.8581  224.5653 H   0  0  0  0  0  0  0  0  0  0  0  0
  142.1649   81.1280  224.0164 H   0  0  0  0  0  0  0  0  0  0  0  0
  142.6650   79.5344  224.5618 H   0  0  0  0  0  0  0  0  0  0  0  0
  142.3539   80.5929  221.6910 H   0  0  0  0  0  0  0  0  0  0  0  0
  143.5979   79.5185  222.2783 H   0  0  0  0  0  0  0  0  0  0  0  0
  138.9949   69.3290  222.8098 H   0  0  0  0  0  0  0  0  0  0  0  0
  139.1613   68.2253  225.0507 H   0  0  0  0  0  0  0  0  0  0  0  0
  139.7985   68.3231  227.4363 H   0  0  0  0  0  0  0  0  0  0  0  0
  140.7451   69.6188  229.3364 H   0  0  0  0  0  0  0  0  0  0  0  0
  141.5032   71.9522  228.9973 H   0  0  0  0  0  0  0  0  0  0  0  0
  141.3195   73.0005  226.7615 H   0  0  0  0  0  0  0  0  0  0  0  0
  1  2  2  0
  2  3  1  0
  3  4  1  0
  4  5  1  0
  5  6  2  0
  5  7  1  0
  7  8  1  0
  8  9  1  0
  9 10  1  0
  9 11  1  0
 11 12  1  0
 12 13  1  0
 13 14  1  0
 14 15  1  0
 15 16  1  0
 16 17  1  0
 17 18  1  0
  2 19  1  0
 19 20  2  0
 20 21  1  0
 21 22  2  0
 22 23  1  0
 23 24  2  0
 24 25  1  0
 25 26  2  0
 26 27  1  0
 27 28  2  0
 12  7  1  0
 18 14  1  0
 28 19  1  0
 27 22  1  0
  3 29  1  0
  4 30  1  0
  4 31  1  0
  8 32  1  0
  8 33  1  0
  9 34  1  6
 11 35  1  0
 11 36  1  0
 12 37  1  1
 13 38  1  0
 13 39  1  0
 15 40  1  0
 15 41  1  0
 16 42  1  0
 16 43  1  0
 17 44  1  0
 17 45  1  0
 18 46  1  0
 18 47  1  0
 20 48  1  0
 21 49  1  0
 23 50  1  0
 24 51  1  0
 25 52  1  0
 26 53  1  0
M  END
>  <smiles>  (22) 
O=C(NCC(=O)N1C[C@H](F)C[C@H]1CN1CCCC1)c1ccc2ccccc2n1

>  <score_type>  (22) 
oracle

>  <origin>  (22) 
autodockgpu

>  <m_score__min__energy>  (22) 
-8.4100000000000001

>  <m_primary>  (22) 
energy

>  <rmsd>  (22) 
1.8776738542779796

>  <m_score__min__rmsd>  (22) 
1.8776738542779796

>  <meeko>  (22) 
{"free_energy": -8.02, "intermolecular_energy": -9.81, "internal_energy": -2.0, "cluster_size": 30, "cluster_id": 1, "rank_in_cluster": 23}

>  <energy>  (22) 
-8.03

>  <cluster_rmsd>  (22) 
1.1

>  <cluster>  (22) 
1

$$$$

     RDKit          3D

 53 56  0  0  0  0  0  0  0  0999 V2000
  141.0680   71.5300  221.3580 O   0  0  0  0  0  0  0  0  0  0  0  0
  140.5100   72.1160  222.3480 C   0  0  0  0  0  0  0  0  0  0  0  0
  140.1290   73.4640  222.2540 N   0  0  0  0  0  0  0  0  0  0  0  0
  140.3370   74.2730  221.0430 C   0  0  0  0  0  0  0  0  0  0  0  0
  140.6840   75.6330  221.4790 C   0  0  0  0  0  0  0  0  0  0  0  0
  140.3440   75.9990  222.6510 O   0  0  0  0  0  0  0  0  0  0  0  0
  141.3750   76.5930  220.7030 N   0  0  0  0  0  0  0  0  0  0  0  0
  141.5010   78.0000  221.0440 C   0  0  0  0  0  0  0  0  0  0  0  0
  141.0760   78.5790  219.6800 C   0  0  2  0  0  0  0  0  0  0  0  0
  139.8440   78.0960  219.3480 F   0  0  0  0  0  0  0  0  0  0  0  0
  142.1070   77.8250  218.8190 C   0  0  0  0  0  0  0  0  0  0  0  0
  142.0890   76.4440  219.4380 C   0  0  1  0  0  0  0  0  0  0  0  0
  143.4510   75.8880  219.7150 C   0  0  0  0  0  0  0  0  0  0  0  0
  143.4800   74.5460  220.1790 N   0  0  0  0  0  0  0  0  0  0  0  0
  144.8800   74.1840  220.5000 C   0  0  0  0  0  0  0  0  0  0  0  0
  144.7610   72.7140  220.8280 C   0  0  0  0  0  0  0  0  0  0  0  0
  143.6500   72.2400  219.9420 C   0  0  0  0  0  0  0  0  0  0  0  0
  143.1870   73.5190  219.2120 C   0  0  0  0  0  0  0  0  0  0  0  0
  140.2640   71.3820  223.6000 C   0  0  0  0  0  0  0  0  0  0  0  0
  139.5730   70.1830  223.5330 C   0  0  0  0  0  0  0  0  0  0  0  0
  139.3690   69.5320  224.7450 C   0  0  0  0  0  0  0  0  0  0  0  0
  139.8210   70.0400  225.9430 C   0  0  0  0  0  0  0  0  0  0  0  0
  139.6350   69.4210  227.1560 C   0  0  0  0  0  0  0  0  0  0  0  0
  140.1200   69.9920  228.3330 C   0  0  0  0  0  0  0  0  0  0  0  0
  140.7970   71.1920  228.2910 C   0  0  0  0  0  0  0  0  0  0  0  0
  140.9950   71.8270  227.0970 C   0  0  0  0  0  0  0  0  0  0  0  0
  140.5050   71.2420  225.9470 C   0  0  0  0  0  0  0  0  0  0  0  0
  140.7010   71.8680  224.7730 N   0  0  0  0  0  0  0  0  0  0  0  0
  139.6750   73.9030  223.0920 H   0  0  0  0  0  0  0  0  0  0  0  0
  141.1564   73.8494  220.4437 H   0  0  0  0  0  0  0  0  0  0  0  0
  139.4295   74.2834  220.4215 H   0  0  0  0  0  0  0  0  0  0  0  0
  140.8196   78.2966  221.8550 H   0  0  0  0  0  0  0  0  0  0  0  0
  142.4811   78.3224  221.4255 H   0  0  0  0  0  0  0  0  0  0  0  0
  141.0382   79.6758  219.6057 H   0  0  0  0  0  0  0  0  0  0  0  0
  141.7987   77.7933  217.7635 H   0  0  0  0  0  0  0  0  0  0  0  0
  143.1025   78.2928  218.8103 H   0  0  0  0  0  0  0  0  0  0  0  0
  141.6161   75.7413  218.7361 H   0  0  0  0  0  0  0  0  0  0  0  0
  144.0333   75.9372  218.7830 H   0  0  0  0  0  0  0  0  0  0  0  0
  143.8669   76.4987  220.5299 H   0  0  0  0  0  0  0  0  0  0  0  0
  145.5424   74.3480  219.6373 H   0  0  0  0  0  0  0  0  0  0  0  0
  145.3168   74.7841  221.3118 H   0  0  0  0  0  0  0  0  0  0  0  0
  145.6976   72.1843  220.5997 H   0  0  0  0  0  0  0  0  0  0  0  0
  144.5631   72.5303  221.8943 H   0  0  0  0  0  0  0  0  0  0  0  0
  144.0142   71.4899  219.2246 H   0  0  0  0  0  0  0  0  0  0  0  0
  142.8381   71.7536  220.5025 H   0  0  0  0  0  0  0  0  0  0  0  0
  143.7533   73.6741  218.2818 H   0  0  0  0  0  0  0  0  0  0  0  0
  142.1317   73.4927  218.9027 H   0  0  0  0  0  0  0  0  0  0  0  0
  139.2083   69.7715  222.5803 H   0  0  0  0  0  0  0  0  0  0  0  0
  138.8262   68.5753  224.7470 H   0  0  0  0  0  0  0  0  0  0  0  0
  139.0966   68.4627  227.1994 H   0  0  0  0  0  0  0  0  0  0  0  0
  139.9619   69.4839  229.2957 H   0  0  0  0  0  0  0  0  0  0  0  0
  141.1787   71.6395  229.2205 H   0  0  0  0  0  0  0  0  0  0  0  0
  141.5340   72.7849  227.0535 H   0  0  0  0  0  0  0  0  0  0  0  0
  1  2  2  0
  2  3  1  0
  3  4  1  0
  4  5  1  0
  5  6  2  0
  5  7  1  0
  7  8  1  0
  8  9  1  0
  9 10  1  0
  9 11  1  0
 11 12  1  0
 12 13  1  0
 13 14  1  0
 14 15  1  0
 15 16  1  0
 16 17  1  0
 17 18  1  0
  2 19  1  0
 19 20  2  0
 20 21  1  0
 21 22  2  0
 22 23  1  0
 23 24  2  0
 24 25  1  0
 25 26  2  0
 26 27  1  0
 27 28  2  0
 12  7  1  0
 18 14  1  0
 28 19  1  0
 27 22  1  0
  3 29  1  0
  4 30  1  0
  4 31  1  0
  8 32  1  0
  8 33  1  0
  9 34  1  1
 11 35  1  0
 11 36  1  0
 12 37  1  6
 13 38  1  0
 13 39  1  0
 15 40  1  0
 15 41  1  0
 16 42  1  0
 16 43  1  0
 17 44  1  0
 17 45  1  0
 18 46  1  0
 18 47  1  0
 20 48  1  0
 21 49  1  0
 23 50  1  0
 24 51  1  0
 25 52  1  0
 26 53  1  0
M  END
>  <smiles>  (23) 
O=C(NCC(=O)N1C[C@H](F)C[C@H]1CN1CCCC1)c1ccc2ccccc2n1

>  <score_type>  (23) 
oracle

>  <origin>  (23) 
autodockgpu

>  <m_score__min__energy>  (23) 
-8.4100000000000001

>  <m_primary>  (23) 
energy

>  <rmsd>  (23) 
4.196511198855253

>  <m_score__min__rmsd>  (23) 
4.196511198855253

>  <meeko>  (23) 
{"free_energy": -7.83, "intermolecular_energy": -9.62, "internal_energy": -2.33, "cluster_size": 16, "cluster_id": 3, "rank_in_cluster": 1}

>  <energy>  (23) 
-8.02

>  <cluster_rmsd>  (23) 
1.08

>  <cluster>  (23) 
1

$$$$

     RDKit          3D

 53 56  0  0  0  0  0  0  0  0999 V2000
  139.8920   71.1590  221.1540 O   0  0  0  0  0  0  0  0  0  0  0  0
  139.8400   71.8370  222.2360 C   0  0  0  0  0  0  0  0  0  0  0  0
  139.7550   73.2380  222.1940 N   0  0  0  0  0  0  0  0  0  0  0  0
  139.7180   74.0010  220.9370 C   0  0  0  0  0  0  0  0  0  0  0  0
  140.5000   75.2280  221.1460 C   0  0  0  0  0  0  0  0  0  0  0  0
  140.6820   75.6340  222.3400 O   0  0  0  0  0  0  0  0  0  0  0  0
  141.0800   76.0160  220.1260 N   0  0  0  0  0  0  0  0  0  0  0  0
  141.1000   75.6660  218.7160 C   0  0  0  0  0  0  0  0  0  0  0  0
  142.6010   75.9110  218.4650 C   0  0  2  0  0  0  0  0  0  0  0  0
  143.3330   75.1570  219.3350 F   0  0  0  0  0  0  0  0  0  0  0  0
  142.6470   77.3650  218.9720 C   0  0  0  0  0  0  0  0  0  0  0  0
  141.7740   77.2990  220.2060 C   0  0  1  0  0  0  0  0  0  0  0  0
  140.7570   78.3940  220.2860 C   0  0  0  0  0  0  0  0  0  0  0  0
  140.7820   79.1650  221.4780 N   0  0  0  0  0  0  0  0  0  0  0  0
  142.1730   79.2110  221.9860 C   0  0  0  0  0  0  0  0  0  0  0  0
  142.0050   79.9250  223.3070 C   0  0  0  0  0  0  0  0  0  0  0  0
  140.6500   79.4950  223.7750 C   0  0  0  0  0  0  0  0  0  0  0  0
  140.1290   78.5990  222.6310 C   0  0  0  0  0  0  0  0  0  0  0  0
  139.8720   71.1540  223.5400 C   0  0  0  0  0  0  0  0  0  0  0  0
  139.3440   69.8760  223.6250 C   0  0  0  0  0  0  0  0  0  0  0  0
  139.4000   69.2790  224.8790 C   0  0  0  0  0  0  0  0  0  0  0  0
  139.9440   69.9110  225.9760 C   0  0  0  0  0  0  0  0  0  0  0  0
  140.0150   69.3470  227.2270 C   0  0  0  0  0  0  0  0  0  0  0  0
  140.5800   70.0440  228.2960 C   0  0  0  0  0  0  0  0  0  0  0  0
  141.0780   71.3160  228.1050 C   0  0  0  0  0  0  0  0  0  0  0  0
  141.0210   71.8980  226.8700 C   0  0  0  0  0  0  0  0  0  0  0  0
  140.4560   71.1870  225.8290 C   0  0  0  0  0  0  0  0  0  0  0  0
  140.4010   71.7610  224.6150 N   0  0  0  0  0  0  0  0  0  0  0  0
  139.7150   73.7530  223.1070 H   0  0  0  0  0  0  0  0  0  0  0  0
  140.1599   73.4072  220.1233 H   0  0  0  0  0  0  0  0  0  0  0  0
  138.6815   74.2429  220.6592 H   0  0  0  0  0  0  0  0  0  0  0  0
  140.8123   74.6188  218.5410 H   0  0  0  0  0  0  0  0  0  0  0  0
  140.4025   76.2174  218.0683 H   0  0  0  0  0  0  0  0  0  0  0  0
  142.9674   75.7022  217.4490 H   0  0  0  0  0  0  0  0  0  0  0  0
  143.6739   77.6671  219.2253 H   0  0  0  0  0  0  0  0  0  0  0  0
  142.3087   78.1031  218.2299 H   0  0  0  0  0  0  0  0  0  0  0  0
  142.4058   77.4116  221.0994 H   0  0  0  0  0  0  0  0  0  0  0  0
  140.9245   79.0748  219.4384 H   0  0  0  0  0  0  0  0  0  0  0  0
  139.7758   77.8970  220.2681 H   0  0  0  0  0  0  0  0  0  0  0  0
  142.5797   78.1989  222.1282 H   0  0  0  0  0  0  0  0  0  0  0  0
  142.8775   79.7066  221.3019 H   0  0  0  0  0  0  0  0  0  0  0  0
  142.7826   79.6161  224.0211 H   0  0  0  0  0  0  0  0  0  0  0  0
  142.0966   81.0173  223.2150 H   0  0  0  0  0  0  0  0  0  0  0  0
  140.7223   78.9276  224.7146 H   0  0  0  0  0  0  0  0  0  0  0  0
  139.9842   80.3451  223.9848 H   0  0  0  0  0  0  0  0  0  0  0  0
  140.4234   77.5498  222.7808 H   0  0  0  0  0  0  0  0  0  0  0  0
  139.0321   78.5789  222.5511 H   0  0  0  0  0  0  0  0  0  0  0  0
  138.9075   69.3653  222.7540 H   0  0  0  0  0  0  0  0  0  0  0  0
  138.9947   68.2636  225.0003 H   0  0  0  0  0  0  0  0  0  0  0  0
  139.6213   68.3326  227.3881 H   0  0  0  0  0  0  0  0  0  0  0  0
  140.6282   69.5786  229.2915 H   0  0  0  0  0  0  0  0  0  0  0  0
  141.5223   71.8635  228.9493 H   0  0  0  0  0  0  0  0  0  0  0  0
  141.4167   72.9115  226.7081 H   0  0  0  0  0  0  0  0  0  0  0  0
  1  2  2  0
  2  3  1  0
  3  4  1  0
  4  5  1  0
  5  6  2  0
  5  7  1  0
  7  8  1  0
  8  9  1  0
  9 10  1  0
  9 11  1  0
 11 12  1  0
 12 13  1  0
 13 14  1  0
 14 15  1  0
 15 16  1  0
 16 17  1  0
 17 18  1  0
  2 19  1  0
 19 20  2  0
 20 21  1  0
 21 22  2  0
 22 23  1  0
 23 24  2  0
 24 25  1  0
 25 26  2  0
 26 27  1  0
 27 28  2  0
 12  7  1  0
 18 14  1  0
 28 19  1  0
 27 22  1  0
  3 29  1  0
  4 30  1  0
  4 31  1  0
  8 32  1  0
  8 33  1  0
  9 34  1  6
 11 35  1  0
 11 36  1  0
 12 37  1  1
 13 38  1  0
 13 39  1  0
 15 40  1  0
 15 41  1  0
 16 42  1  0
 16 43  1  0
 17 44  1  0
 17 45  1  0
 18 46  1  0
 18 47  1  0
 20 48  1  0
 21 49  1  0
 23 50  1  0
 24 51  1  0
 25 52  1  0
 26 53  1  0
M  END
>  <smiles>  (24) 
O=C(NCC(=O)N1C[C@H](F)C[C@H]1CN1CCCC1)c1ccc2ccccc2n1

>  <score_type>  (24) 
oracle

>  <origin>  (24) 
autodockgpu

>  <m_score__min__energy>  (24) 
-8.4100000000000001

>  <m_primary>  (24) 
energy

>  <rmsd>  (24) 
2.11531870938628

>  <m_score__min__rmsd>  (24) 
2.11531870938628

>  <meeko>  (24) 
{"free_energy": -7.98, "intermolecular_energy": -9.77, "internal_energy": -2.11, "cluster_size": 30, "cluster_id": 1, "rank_in_cluster": 27}

>  <energy>  (24) 
-8.0

>  <cluster_rmsd>  (24) 
0.46

>  <cluster>  (24) 
1

$$$$

     RDKit          3D

 53 56  0  0  0  0  0  0  0  0999 V2000
  140.5680   71.1620  221.1920 O   0  0  0  0  0  0  0  0  0  0  0  0
  140.3100   71.8370  222.2470 C   0  0  0  0  0  0  0  0  0  0  0  0
  140.1510   73.2300  222.1780 N   0  0  0  0  0  0  0  0  0  0  0  0
  140.2660   73.9890  220.9230 C   0  0  0  0  0  0  0  0  0  0  0  0
  140.9590   75.2470  221.2340 C   0  0  0  0  0  0  0  0  0  0  0  0
  140.6730   75.8440  222.3230 O   0  0  0  0  0  0  0  0  0  0  0  0
  141.9330   75.8710  220.4210 N   0  0  0  0  0  0  0  0  0  0  0  0
  142.0890   77.3080  220.2650 C   0  0  0  0  0  0  0  0  0  0  0  0
  142.1370   77.3430  218.7250 C   0  0  2  0  0  0  0  0  0  0  0  0
  141.0140   76.7500  218.2260 F   0  0  0  0  0  0  0  0  0  0  0  0
  143.2960   76.3450  218.5440 C   0  0  0  0  0  0  0  0  0  0  0  0
  142.9670   75.2840  219.5720 C   0  0  1  0  0  0  0  0  0  0  0  0
  144.1300   74.8910  220.4280 C   0  0  0  0  0  0  0  0  0  0  0  0
  144.3920   73.4970  220.4990 N   0  0  0  0  0  0  0  0  0  0  0  0
  145.1980   73.1040  219.3200 C   0  0  0  0  0  0  0  0  0  0  0  0
  145.2610   71.6010  219.4650 C   0  0  0  0  0  0  0  0  0  0  0  0
  143.9530   71.2500  220.1020 C   0  0  0  0  0  0  0  0  0  0  0  0
  143.2670   72.6160  220.3200 C   0  0  0  0  0  0  0  0  0  0  0  0
  140.1770   71.1580  223.5460 C   0  0  0  0  0  0  0  0  0  0  0  0
  139.5740   69.9120  223.5780 C   0  0  0  0  0  0  0  0  0  0  0  0
  139.4760   69.3170  224.8310 C   0  0  0  0  0  0  0  0  0  0  0  0
  139.9460   69.9210  225.9760 C   0  0  0  0  0  0  0  0  0  0  0  0
  139.8640   69.3590  227.2270 C   0  0  0  0  0  0  0  0  0  0  0  0
  140.3620   70.0280  228.3460 C   0  0  0  0  0  0  0  0  0  0  0  0
  140.9460   71.2690  228.2070 C   0  0  0  0  0  0  0  0  0  0  0  0
  141.0400   71.8490  226.9730 C   0  0  0  0  0  0  0  0  0  0  0  0
  140.5390   71.1670  225.8810 C   0  0  0  0  0  0  0  0  0  0  0  0
  140.6330   71.7390  224.6680 N   0  0  0  0  0  0  0  0  0  0  0  0
  139.9400   73.7430  223.0690 H   0  0  0  0  0  0  0  0  0  0  0  0
  140.8450   73.4126  220.1864 H   0  0  0  0  0  0  0  0  0  0  0  0
  139.2719   74.1877  220.4960 H   0  0  0  0  0  0  0  0  0  0  0  0
  141.2329   77.8679  220.6695 H   0  0  0  0  0  0  0  0  0  0  0  0
  142.9422   77.7641  220.7885 H   0  0  0  0  0  0  0  0  0  0  0  0
  142.2283   78.3363  218.2613 H   0  0  0  0  0  0  0  0  0  0  0  0
  143.3062   75.9257  217.5271 H   0  0  0  0  0  0  0  0  0  0  0  0
  144.2911   76.7948  218.6763 H   0  0  0  0  0  0  0  0  0  0  0  0
  142.6535   74.3656  219.0540 H   0  0  0  0  0  0  0  0  0  0  0  0
  145.0278   75.3849  220.0279 H   0  0  0  0  0  0  0  0  0  0  0  0
  143.8719   75.2028  221.4508 H   0  0  0  0  0  0  0  0  0  0  0  0
  144.7013   73.3940  218.3824 H   0  0  0  0  0  0  0  0  0  0  0  0
  146.1859   73.5861  219.2791 H   0  0  0  0  0  0  0  0  0  0  0  0
  145.3614   71.1162  218.4827 H   0  0  0  0  0  0  0  0  0  0  0  0
  146.1261   71.2660  220.0561 H   0  0  0  0  0  0  0  0  0  0  0  0
  143.3524   70.6123  219.4367 H   0  0  0  0  0  0  0  0  0  0  0  0
  144.0752   70.6830  221.0366 H   0  0  0  0  0  0  0  0  0  0  0  0
  142.6688   72.9061  219.4436 H   0  0  0  0  0  0  0  0  0  0  0  0
  142.5606   72.6255  221.1631 H   0  0  0  0  0  0  0  0  0  0  0  0
  139.1958   69.4229  222.6682 H   0  0  0  0  0  0  0  0  0  0  0  0
  139.0051   68.3261  224.9107 H   0  0  0  0  0  0  0  0  0  0  0  0
  139.3999   68.3691  227.3482 H   0  0  0  0  0  0  0  0  0  0  0  0
  140.2884   69.5642  229.3407 H   0  0  0  0  0  0  0  0  0  0  0  0
  141.3372   71.7936  229.0912 H   0  0  0  0  0  0  0  0  0  0  0  0
  141.5050   72.8385  226.8518 H   0  0  0  0  0  0  0  0  0  0  0  0
  1  2  2  0
  2  3  1  0
  3  4  1  0
  4  5  1  0
  5  6  2  0
  5  7  1  0
  7  8  1  0
  8  9  1  0
  9 10  1  0
  9 11  1  0
 11 12  1  0
 12 13  1  0
 13 14  1  0
 14 15  1  0
 15 16  1  0
 16 17  1  0
 17 18  1  0
  2 19  1  0
 19 20  2  0
 20 21  1  0
 21 22  2  0
 22 23  1  0
 23 24  2  0
 24 25  1  0
 25 26  2  0
 26 27  1  0
 27 28  2  0
 12  7  1  0
 18 14  1  0
 28 19  1  0
 27 22  1  0
  3 29  1  0
  4 30  1  0
  4 31  1  0
  8 32  1  0
  8 33  1  0
  9 34  1  1
 11 35  1  0
 11 36  1  0
 12 37  1  6
 13 38  1  0
 13 39  1  0
 15 40  1  0
 15 41  1  0
 16 42  1  0
 16 43  1  0
 17 44  1  0
 17 45  1  0
 18 46  1  0
 18 47  1  0
 20 48  1  0
 21 49  1  0
 23 50  1  0
 24 51  1  0
 25 52  1  0
 26 53  1  0
M  END
>  <smiles>  (25) 
O=C(NCC(=O)N1C[C@H](F)C[C@H]1CN1CCCC1)c1ccc2ccccc2n1

>  <score_type>  (25) 
oracle

>  <origin>  (25) 
autodockgpu

>  <m_score__min__energy>  (25) 
-8.4100000000000001

>  <m_primary>  (25) 
energy

>  <rmsd>  (25) 
4.532893792835468

>  <m_score__min__rmsd>  (25) 
4.532893792835468

>  <meeko>  (25) 
{"free_energy": -7.54, "intermolecular_energy": -9.33, "internal_energy": -2.2, "cluster_size": 16, "cluster_id": 3, "rank_in_cluster": 12}

>  <energy>  (25) 
-7.99

>  <cluster_rmsd>  (25) 
1.09

>  <cluster>  (25) 
1

$$$$

     RDKit          3D

 53 56  0  0  0  0  0  0  0  0999 V2000
  139.0980   70.9230  221.3100 O   0  0  0  0  0  0  0  0  0  0  0  0
  139.5160   71.5710  222.3300 C   0  0  0  0  0  0  0  0  0  0  0  0
  139.8540   72.9290  222.2200 N   0  0  0  0  0  0  0  0  0  0  0  0
  139.7530   73.6810  220.9600 C   0  0  0  0  0  0  0  0  0  0  0  0
  140.4090   74.9790  221.1700 C   0  0  0  0  0  0  0  0  0  0  0  0
  140.3870   75.4870  222.3380 O   0  0  0  0  0  0  0  0  0  0  0  0
  141.0760   75.7330  220.1770 N   0  0  0  0  0  0  0  0  0  0  0  0
  140.8610   75.5960  218.7460 C   0  0  0  0  0  0  0  0  0  0  0  0
  142.3390   75.4860  218.3260 C   0  0  2  0  0  0  0  0  0  0  0  0
  142.9240   74.4540  218.9990 F   0  0  0  0  0  0  0  0  0  0  0  0
  142.8260   76.7910  218.9840 C   0  0  0  0  0  0  0  0  0  0  0  0
  142.0950   76.7720  220.3080 C   0  0  1  0  0  0  0  0  0  0  0  0
  141.4230   78.0660  220.6470 C   0  0  0  0  0  0  0  0  0  0  0  0
  141.5020   78.4560  222.0100 N   0  0  0  0  0  0  0  0  0  0  0  0
  140.1670   78.9260  222.4480 C   0  0  0  0  0  0  0  0  0  0  0  0
  140.4510   79.4340  223.8420 C   0  0  0  0  0  0  0  0  0  0  0  0
  141.8520   79.9510  223.7550 C   0  0  0  0  0  0  0  0  0  0  0  0
  142.2740   79.6360  222.3030 C   0  0  0  0  0  0  0  0  0  0  0  0
  139.6470   70.8970  223.6320 C   0  0  0  0  0  0  0  0  0  0  0  0
  139.2110   69.5870  223.7400 C   0  0  0  0  0  0  0  0  0  0  0  0
  139.3590   69.0000  224.9920 C   0  0  0  0  0  0  0  0  0  0  0  0
  139.9040   69.6710  226.0650 C   0  0  0  0  0  0  0  0  0  0  0  0
  140.0630   69.1190  227.3130 C   0  0  0  0  0  0  0  0  0  0  0  0
  140.6230   69.8570  228.3560 C   0  0  0  0  0  0  0  0  0  0  0  0
  141.0250   71.1590  228.1440 C   0  0  0  0  0  0  0  0  0  0  0  0
  140.8780   71.7300  226.9110 C   0  0  0  0  0  0  0  0  0  0  0  0
  140.3210   70.9790  225.8960 C   0  0  0  0  0  0  0  0  0  0  0  0
  140.1770   71.5430  224.6830 N   0  0  0  0  0  0  0  0  0  0  0  0
  140.1910   73.4200  223.0840 H   0  0  0  0  0  0  0  0  0  0  0  0
  140.2577   73.1308  220.1522 H   0  0  0  0  0  0  0  0  0  0  0  0
  138.7001   73.8195  220.6733 H   0  0  0  0  0  0  0  0  0  0  0  0
  140.2864   74.6924  218.4942 H   0  0  0  0  0  0  0  0  0  0  0  0
  140.2767   76.3935  218.2637 H   0  0  0  0  0  0  0  0  0  0  0  0
  142.5318   75.3404  217.2529 H   0  0  0  0  0  0  0  0  0  0  0  0
  143.9162   76.7816  219.1299 H   0  0  0  0  0  0  0  0  0  0  0  0
  142.6275   77.6902  218.3823 H   0  0  0  0  0  0  0  0  0  0  0  0
  142.8198   76.5906  221.1154 H   0  0  0  0  0  0  0  0  0  0  0  0
  141.8865   78.8579  220.0403 H   0  0  0  0  0  0  0  0  0  0  0  0
  140.3538   77.9157  220.4369 H   0  0  0  0  0  0  0  0  0  0  0  0
  139.7943   79.7313  221.7979 H   0  0  0  0  0  0  0  0  0  0  0  0
  139.3901   78.1482  222.4105 H   0  0  0  0  0  0  0  0  0  0  0  0
  139.7527   80.2386  224.1157 H   0  0  0  0  0  0  0  0  0  0  0  0
  140.3316   78.6562  224.6107 H   0  0  0  0  0  0  0  0  0  0  0  0
  141.8822   81.0340  223.9452 H   0  0  0  0  0  0  0  0  0  0  0  0
  142.5201   79.4940  224.4998 H   0  0  0  0  0  0  0  0  0  0  0  0
  142.0136   80.4615  221.6242 H   0  0  0  0  0  0  0  0  0  0  0  0
  143.3580   79.4960  222.1791 H   0  0  0  0  0  0  0  0  0  0  0  0
  138.7747   69.0445  222.8884 H   0  0  0  0  0  0  0  0  0  0  0  0
  139.0283   67.9601  225.1311 H   0  0  0  0  0  0  0  0  0  0  0  0
  139.7445   68.0815  227.4922 H   0  0  0  0  0  0  0  0  0  0  0  0
  140.7441   69.3997  229.3491 H   0  0  0  0  0  0  0  0  0  0  0  0
  141.4647   71.7390  228.9687 H   0  0  0  0  0  0  0  0  0  0  0  0
  141.1972   72.7672  226.7313 H   0  0  0  0  0  0  0  0  0  0  0  0
  1  2  2  0
  2  3  1  0
  3  4  1  0
  4  5  1  0
  5  6  2  0
  5  7  1  0
  7  8  1  0
  8  9  1  0
  9 10  1  0
  9 11  1  0
 11 12  1  0
 12 13  1  0
 13 14  1  0
 14 15  1  0
 15 16  1  0
 16 17  1  0
 17 18  1  0
  2 19  1  0
 19 20  2  0
 20 21  1  0
 21 22  2  0
 22 23  1  0
 23 24  2  0
 24 25  1  0
 25 26  2  0
 26 27  1  0
 27 28  2  0
 12  7  1  0
 18 14  1  0
 28 19  1  0
 27 22  1  0
  3 29  1  0
  4 30  1  0
  4 31  1  0
  8 32  1  0
  8 33  1  0
  9 34  1  6
 11 35  1  0
 11 36  1  0
 12 37  1  1
 13 38  1  0
 13 39  1  0
 15 40  1  0
 15 41  1  0
 16 42  1  0
 16 43  1  0
 17 44  1  0
 17 45  1  0
 18 46  1  0
 18 47  1  0
 20 48  1  0
 21 49  1  0
 23 50  1  0
 24 51  1  0
 25 52  1  0
 26 53  1  0
M  END
>  <smiles>  (26) 
O=C(NCC(=O)N1C[C@H](F)C[C@H]1CN1CCCC1)c1ccc2ccccc2n1

>  <score_type>  (26) 
oracle

>  <origin>  (26) 
autodockgpu

>  <m_score__min__energy>  (26) 
-8.4100000000000001

>  <m_primary>  (26) 
energy

>  <rmsd>  (26) 
1.8071916106440797

>  <m_score__min__rmsd>  (26) 
1.8071916106440797

>  <meeko>  (26) 
{"free_energy": -7.66, "intermolecular_energy": -9.45, "internal_energy": -2.11, "cluster_size": 30, "cluster_id": 1, "rank_in_cluster": 30}

>  <energy>  (26) 
-7.98

>  <cluster_rmsd>  (26) 
1.12

>  <cluster>  (26) 
1

$$$$

     RDKit          3D

 53 56  0  0  0  0  0  0  0  0999 V2000
  141.1080   71.3110  221.3440 O   0  0  0  0  0  0  0  0  0  0  0  0
  140.6020   71.9480  222.3310 C   0  0  0  0  0  0  0  0  0  0  0  0
  140.3220   73.3190  222.2240 N   0  0  0  0  0  0  0  0  0  0  0  0
  140.5820   74.0980  221.0040 C   0  0  0  0  0  0  0  0  0  0  0  0
  140.6520   75.5130  221.3930 C   0  0  0  0  0  0  0  0  0  0  0  0
  140.0150   75.8880  222.4310 O   0  0  0  0  0  0  0  0  0  0  0  0
  141.3750   76.5180  220.7100 N   0  0  0  0  0  0  0  0  0  0  0  0
  141.4940   77.8990  221.1490 C   0  0  0  0  0  0  0  0  0  0  0  0
  141.1240   78.5710  219.8130 C   0  0  2  0  0  0  0  0  0  0  0  0
  139.9030   78.1190  219.4030 F   0  0  0  0  0  0  0  0  0  0  0  0
  142.1830   77.8690  218.9420 C   0  0  0  0  0  0  0  0  0  0  0  0
  142.1360   76.4500  219.4650 C   0  0  1  0  0  0  0  0  0  0  0  0
  143.4840   75.8670  219.7550 C   0  0  0  0  0  0  0  0  0  0  0  0
  143.4870   74.5080  220.1630 N   0  0  0  0  0  0  0  0  0  0  0  0
  144.8560   74.1440  220.5970 C   0  0  0  0  0  0  0  0  0  0  0  0
  144.7250   72.6600  220.8510 C   0  0  0  0  0  0  0  0  0  0  0  0
  143.7070   72.2150  219.8480 C   0  0  0  0  0  0  0  0  0  0  0  0
  143.2970   73.5200  219.1320 C   0  0  0  0  0  0  0  0  0  0  0  0
  140.3100   71.2470  223.5920 C   0  0  0  0  0  0  0  0  0  0  0  0
  139.6440   70.0330  223.5300 C   0  0  0  0  0  0  0  0  0  0  0  0
  139.3940   69.4160  224.7500 C   0  0  0  0  0  0  0  0  0  0  0  0
  139.7800   69.9680  225.9520 C   0  0  0  0  0  0  0  0  0  0  0  0
  139.5480   69.3820  227.1730 C   0  0  0  0  0  0  0  0  0  0  0  0
  139.9670   69.9970  228.3540 C   0  0  0  0  0  0  0  0  0  0  0  0
  140.6230   71.2080  228.3060 C   0  0  0  0  0  0  0  0  0  0  0  0
  140.8670   71.8110  227.1040 C   0  0  0  0  0  0  0  0  0  0  0  0
  140.4420   71.1820  225.9510 C   0  0  0  0  0  0  0  0  0  0  0  0
  140.6820   71.7760  224.7690 N   0  0  0  0  0  0  0  0  0  0  0  0
  139.9080   73.8000  223.0600 H   0  0  0  0  0  0  0  0  0  0  0  0
  141.5353   73.7843  220.5536 H   0  0  0  0  0  0  0  0  0  0  0  0
  139.7846   73.9377  220.2634 H   0  0  0  0  0  0  0  0  0  0  0  0
  140.7836   78.1453  221.9519 H   0  0  0  0  0  0  0  0  0  0  0  0
  142.4604   78.1883  221.5876 H   0  0  0  0  0  0  0  0  0  0  0  0
  141.0942   79.6706  219.8117 H   0  0  0  0  0  0  0  0  0  0  0  0
  141.9143   77.9105  217.8761 H   0  0  0  0  0  0  0  0  0  0  0  0
  143.1803   78.3293  219.0019 H   0  0  0  0  0  0  0  0  0  0  0  0
  141.6873   75.7998  218.6996 H   0  0  0  0  0  0  0  0  0  0  0  0
  144.0918   75.9480  218.8418 H   0  0  0  0  0  0  0  0  0  0  0  0
  143.8834   76.4385  220.6058 H   0  0  0  0  0  0  0  0  0  0  0  0
  145.5931   74.3501  219.8069 H   0  0  0  0  0  0  0  0  0  0  0  0
  145.2087   74.7125  221.4702 H   0  0  0  0  0  0  0  0  0  0  0  0
  145.6851   72.1483  220.6885 H   0  0  0  0  0  0  0  0  0  0  0  0
  144.4318   72.4296  221.8859 H   0  0  0  0  0  0  0  0  0  0  0  0
  144.1450   71.4992  219.1368 H   0  0  0  0  0  0  0  0  0  0  0  0
  142.8531   71.6983  220.3105 H   0  0  0  0  0  0  0  0  0  0  0  0
  143.9442   73.7191  218.2652 H   0  0  0  0  0  0  0  0  0  0  0  0
  142.2748   73.4975  218.7262 H   0  0  0  0  0  0  0  0  0  0  0  0
  139.3326   69.5857  222.5745 H   0  0  0  0  0  0  0  0  0  0  0  0
  138.8678   68.4500  224.7562 H   0  0  0  0  0  0  0  0  0  0  0  0
  139.0251   68.4154  227.2204 H   0  0  0  0  0  0  0  0  0  0  0  0
  139.7734   69.5147  229.3235 H   0  0  0  0  0  0  0  0  0  0  0  0
  140.9513   71.6909  229.2382 H   0  0  0  0  0  0  0  0  0  0  0  0
  141.3909   72.7770  227.0563 H   0  0  0  0  0  0  0  0  0  0  0  0
  1  2  2  0
  2  3  1  0
  3  4  1  0
  4  5  1  0
  5  6  2  0
  5  7  1  0
  7  8  1  0
  8  9  1  0
  9 10  1  0
  9 11  1  0
 11 12  1  0
 12 13  1  0
 13 14  1  0
 14 15  1  0
 15 16  1  0
 16 17  1  0
 17 18  1  0
  2 19  1  0
 19 20  2  0
 20 21  1  0
 21 22  2  0
 22 23  1  0
 23 24  2  0
 24 25  1  0
 25 26  2  0
 26 27  1  0
 27 28  2  0
 12  7  1  0
 18 14  1  0
 28 19  1  0
 27 22  1  0
  3 29  1  0
  4 30  1  0
  4 31  1  0
  8 32  1  0
  8 33  1  0
  9 34  1  1
 11 35  1  0
 11 36  1  0
 12 37  1  6
 13 38  1  0
 13 39  1  0
 15 40  1  0
 15 41  1  0
 16 42  1  0
 16 43  1  0
 17 44  1  0
 17 45  1  0
 18 46  1  0
 18 47  1  0
 20 48  1  0
 21 49  1  0
 23 50  1  0
 24 51  1  0
 25 52  1  0
 26 53  1  0
M  END
>  <smiles>  (27) 
O=C(NCC(=O)N1C[C@H](F)C[C@H]1CN1CCCC1)c1ccc2ccccc2n1

>  <score_type>  (27) 
oracle

>  <origin>  (27) 
autodockgpu

>  <m_score__min__energy>  (27) 
-8.4100000000000001

>  <m_primary>  (27) 
energy

>  <rmsd>  (27) 
4.221698416131576

>  <m_score__min__rmsd>  (27) 
4.221698416131576

>  <meeko>  (27) 
{"free_energy": -7.68, "intermolecular_energy": -9.47, "internal_energy": -2.37, "cluster_size": 16, "cluster_id": 3, "rank_in_cluster": 8}

>  <energy>  (27) 
-7.98

>  <cluster_rmsd>  (27) 
1.07

>  <cluster>  (27) 
1

$$$$

     RDKit          3D

 53 56  0  0  0  0  0  0  0  0999 V2000
  140.7390   71.4320  221.3560 O   0  0  0  0  0  0  0  0  0  0  0  0
  140.2960   71.9930  222.4160 C   0  0  0  0  0  0  0  0  0  0  0  0
  139.9230   73.3460  222.4020 N   0  0  0  0  0  0  0  0  0  0  0  0
  140.0110   74.1890  221.2000 C   0  0  0  0  0  0  0  0  0  0  0  0
  139.5960   75.5460  221.5840 C   0  0  0  0  0  0  0  0  0  0  0  0
  138.8560   75.6840  222.6120 O   0  0  0  0  0  0  0  0  0  0  0  0
  139.9480   76.7360  220.9070 N   0  0  0  0  0  0  0  0  0  0  0  0
  139.2930   77.2340  219.7090 C   0  0  0  0  0  0  0  0  0  0  0  0
  140.5620   77.4930  218.8740 C   0  0  2  0  0  0  0  0  0  0  0  0
  141.2890   76.3410  218.7900 F   0  0  0  0  0  0  0  0  0  0  0  0
  141.2780   78.4080  219.8860 C   0  0  0  0  0  0  0  0  0  0  0  0
  140.9940   77.7120  221.2000 C   0  0  1  0  0  0  0  0  0  0  0  0
  140.5110   78.6300  222.2780 C   0  0  0  0  0  0  0  0  0  0  0  0
  141.3510   79.7400  222.5590 N   0  0  0  0  0  0  0  0  0  0  0  0
  142.5740   79.2510  223.2360 C   0  0  0  0  0  0  0  0  0  0  0  0
  143.2760   80.5410  223.5930 C   0  0  0  0  0  0  0  0  0  0  0  0
  142.1550   81.4980  223.8480 C   0  0  0  0  0  0  0  0  0  0  0  0
  140.8850   80.6700  223.5560 C   0  0  0  0  0  0  0  0  0  0  0  0
  140.1750   71.2230  223.6650 C   0  0  0  0  0  0  0  0  0  0  0  0
  139.5970   69.9660  223.6080 C   0  0  0  0  0  0  0  0  0  0  0  0
  139.5080   69.2840  224.8160 C   0  0  0  0  0  0  0  0  0  0  0  0
  139.9630   69.8170  226.0030 C   0  0  0  0  0  0  0  0  0  0  0  0
  139.8900   69.1680  227.2120 C   0  0  0  0  0  0  0  0  0  0  0  0
  140.3710   69.7670  228.3760 C   0  0  0  0  0  0  0  0  0  0  0  0
  140.9300   71.0270  228.3250 C   0  0  0  0  0  0  0  0  0  0  0  0
  141.0160   71.6920  227.1340 C   0  0  0  0  0  0  0  0  0  0  0  0
  140.5310   71.0770  225.9960 C   0  0  0  0  0  0  0  0  0  0  0  0
  140.6160   71.7340  224.8260 N   0  0  0  0  0  0  0  0  0  0  0  0
  139.5650   73.7640  223.2950 H   0  0  0  0  0  0  0  0  0  0  0  0
  141.0453   74.2038  220.8259 H   0  0  0  0  0  0  0  0  0  0  0  0
  139.3643   73.7961  220.4016 H   0  0  0  0  0  0  0  0  0  0  0  0
  138.6357   76.4818  219.2484 H   0  0  0  0  0  0  0  0  0  0  0  0
  138.6173   78.0913  219.8451 H   0  0  0  0  0  0  0  0  0  0  0  0
  140.4057   77.8689  217.8521 H   0  0  0  0  0  0  0  0  0  0  0  0
  142.3585   78.4566  219.6854 H   0  0  0  0  0  0  0  0  0  0  0  0
  140.9364   79.4532  219.8562 H   0  0  0  0  0  0  0  0  0  0  0  0
  141.9259   77.2687  221.5809 H   0  0  0  0  0  0  0  0  0  0  0  0
  139.5267   79.0178  221.9767 H   0  0  0  0  0  0  0  0  0  0  0  0
  140.4884   78.0283  223.1986 H   0  0  0  0  0  0  0  0  0  0  0  0
  142.3265   78.6689  224.1359 H   0  0  0  0  0  0  0  0  0  0  0  0
  143.1811   78.5734  222.6177 H   0  0  0  0  0  0  0  0  0  0  0  0
  143.8954   80.4140  224.4931 H   0  0  0  0  0  0  0  0  0  0  0  0
  143.9591   80.8865  222.8031 H   0  0  0  0  0  0  0  0  0  0  0  0
  142.1653   81.8433  224.8923 H   0  0  0  0  0  0  0  0  0  0  0  0
  142.2220   82.4042  223.2281 H   0  0  0  0  0  0  0  0  0  0  0  0
  140.5344   80.1460  224.4574 H   0  0  0  0  0  0  0  0  0  0  0  0
  140.0280   81.2766  223.2280 H   0  0  0  0  0  0  0  0  0  0  0  0
  139.2309   69.5338  222.6650 H   0  0  0  0  0  0  0  0  0  0  0  0
  139.0572   68.2806  224.8250 H   0  0  0  0  0  0  0  0  0  0  0  0
  139.4463   68.1627  227.2624 H   0  0  0  0  0  0  0  0  0  0  0  0
  140.3045   69.2340  229.3359 H   0  0  0  0  0  0  0  0  0  0  0  0
  141.3074   71.4976  229.2448 H   0  0  0  0  0  0  0  0  0  0  0  0
  141.4622   72.6961  227.0827 H   0  0  0  0  0  0  0  0  0  0  0  0
  1  2  2  0
  2  3  1  0
  3  4  1  0
  4  5  1  0
  5  6  2  0
  5  7  1  0
  7  8  1  0
  8  9  1  0
  9 10  1  0
  9 11  1  0
 11 12  1  0
 12 13  1  0
 13 14  1  0
 14 15  1  0
 15 16  1  0
 16 17  1  0
 17 18  1  0
  2 19  1  0
 19 20  2  0
 20 21  1  0
 21 22  2  0
 22 23  1  0
 23 24  2  0
 24 25  1  0
 25 26  2  0
 26 27  1  0
 27 28  2  0
 12  7  1  0
 18 14  1  0
 28 19  1  0
 27 22  1  0
  3 29  1  0
  4 30  1  0
  4 31  1  0
  8 32  1  0
  8 33  1  0
  9 34  1  6
 11 35  1  0
 11 36  1  0
 12 37  1  1
 13 38  1  0
 13 39  1  0
 15 40  1  0
 15 41  1  0
 16 42  1  0
 16 43  1  0
 17 44  1  0
 17 45  1  0
 18 46  1  0
 18 47  1  0
 20 48  1  0
 21 49  1  0
 23 50  1  0
 24 51  1  0
 25 52  1  0
 26 53  1  0
M  END
>  <smiles>  (28) 
O=C(NCC(=O)N1C[C@H](F)C[C@H]1CN1CCCC1)c1ccc2ccccc2n1

>  <score_type>  (28) 
oracle

>  <origin>  (28) 
autodockgpu

>  <m_score__min__energy>  (28) 
-8.4100000000000001

>  <m_primary>  (28) 
energy

>  <rmsd>  (28) 
2.2399836340159243

>  <m_score__min__rmsd>  (28) 
2.2399836340159243

>  <meeko>  (28) 
{"free_energy": -8.0, "intermolecular_energy": -9.79, "internal_energy": -1.86, "cluster_size": 30, "cluster_id": 1, "rank_in_cluster": 24}

>  <energy>  (28) 
-7.96

>  <cluster_rmsd>  (28) 
1.09

>  <cluster>  (28) 
1

$$$$

     RDKit          3D

 53 56  0  0  0  0  0  0  0  0999 V2000
  140.1290   71.2530  221.1650 O   0  0  0  0  0  0  0  0  0  0  0  0
  140.0250   71.9340  222.2410 C   0  0  0  0  0  0  0  0  0  0  0  0
  139.9370   73.3340  222.1910 N   0  0  0  0  0  0  0  0  0  0  0  0
  139.9560   74.0940  220.9320 C   0  0  0  0  0  0  0  0  0  0  0  0
  140.6200   75.3760  221.2030 C   0  0  0  0  0  0  0  0  0  0  0  0
  140.8640   75.6880  222.4150 O   0  0  0  0  0  0  0  0  0  0  0  0
  141.0220   76.3160  220.2260 N   0  0  0  0  0  0  0  0  0  0  0  0
  140.6800   76.2450  218.8150 C   0  0  0  0  0  0  0  0  0  0  0  0
  142.0990   76.4580  218.2510 C   0  0  2  0  0  0  0  0  0  0  0  0
  142.9360   75.5130  218.7690 F   0  0  0  0  0  0  0  0  0  0  0  0
  142.4020   77.7810  218.9790 C   0  0  0  0  0  0  0  0  0  0  0  0
  141.8350   77.5220  220.3580 C   0  0  1  0  0  0  0  0  0  0  0  0
  140.9750   78.6320  220.8770 C   0  0  0  0  0  0  0  0  0  0  0  0
  141.6520   79.6310  221.6240 N   0  0  0  0  0  0  0  0  0  0  0  0
  142.1990   79.0160  222.8560 C   0  0  0  0  0  0  0  0  0  0  0  0
  142.7450   80.2160  223.5940 C   0  0  0  0  0  0  0  0  0  0  0  0
  141.8180   81.3250  223.2070 C   0  0  0  0  0  0  0  0  0  0  0  0
  140.8360   80.6600  222.2180 C   0  0  0  0  0  0  0  0  0  0  0  0
  139.9980   71.2550  223.5470 C   0  0  0  0  0  0  0  0  0  0  0  0
  139.4250   69.9960  223.6210 C   0  0  0  0  0  0  0  0  0  0  0  0
  139.4270   69.4020  224.8780 C   0  0  0  0  0  0  0  0  0  0  0  0
  139.9630   70.0180  225.9880 C   0  0  0  0  0  0  0  0  0  0  0  0
  139.9800   69.4570  227.2420 C   0  0  0  0  0  0  0  0  0  0  0  0
  140.5400   70.1380  228.3230 C   0  0  0  0  0  0  0  0  0  0  0  0
  141.0870   71.3910  228.1430 C   0  0  0  0  0  0  0  0  0  0  0  0
  141.0830   71.9700  226.9050 C   0  0  0  0  0  0  0  0  0  0  0  0
  140.5220   71.2760  225.8520 C   0  0  0  0  0  0  0  0  0  0  0  0
  140.5190   71.8470  224.6340 N   0  0  0  0  0  0  0  0  0  0  0  0
  139.8530   73.8520  223.1000 H   0  0  0  0  0  0  0  0  0  0  0  0
  140.5133   73.5367  220.1647 H   0  0  0  0  0  0  0  0  0  0  0  0
  138.9333   74.2570  220.5611 H   0  0  0  0  0  0  0  0  0  0  0  0
  140.2607   75.2674  218.5348 H   0  0  0  0  0  0  0  0  0  0  0  0
  139.9070   76.9453  218.4656 H   0  0  0  0  0  0  0  0  0  0  0  0
  142.1981   76.4326  217.1558 H   0  0  0  0  0  0  0  0  0  0  0  0
  143.4840   77.9741  219.0221 H   0  0  0  0  0  0  0  0  0  0  0  0
  141.9751   78.6659  218.4843 H   0  0  0  0  0  0  0  0  0  0  0  0
  142.6635   77.4269  221.0753 H   0  0  0  0  0  0  0  0  0  0  0  0
  140.4949   79.1198  220.0159 H   0  0  0  0  0  0  0  0  0  0  0  0
  140.2646   78.1632  221.5738 H   0  0  0  0  0  0  0  0  0  0  0  0
  141.4100   78.5154  223.4365 H   0  0  0  0  0  0  0  0  0  0  0  0
  142.9497   78.2351  222.6648 H   0  0  0  0  0  0  0  0  0  0  0  0
  142.7250   80.0499  224.6812 H   0  0  0  0  0  0  0  0  0  0  0  0
  143.7938   80.4303  223.3407 H   0  0  0  0  0  0  0  0  0  0  0  0
  141.2842   81.7138  224.0867 H   0  0  0  0  0  0  0  0  0  0  0  0
  142.3451   82.1848  222.7679 H   0  0  0  0  0  0  0  0  0  0  0  0
  139.9711   80.2293  222.7437 H   0  0  0  0  0  0  0  0  0  0  0  0
  140.4052   81.3592  221.4862 H   0  0  0  0  0  0  0  0  0  0  0  0
  138.9951   69.4972  222.7399 H   0  0  0  0  0  0  0  0  0  0  0  0
  138.9836   68.4017  224.9908 H   0  0  0  0  0  0  0  0  0  0  0  0
  139.5464   68.4578  227.3956 H   0  0  0  0  0  0  0  0  0  0  0  0
  140.5452   69.6747  229.3207 H   0  0  0  0  0  0  0  0  0  0  0  0
  141.5275   71.9256  228.9975 H   0  0  0  0  0  0  0  0  0  0  0  0
  141.5179   72.9686  226.7509 H   0  0  0  0  0  0  0  0  0  0  0  0
  1  2  2  0
  2  3  1  0
  3  4  1  0
  4  5  1  0
  5  6  2  0
  5  7  1  0
  7  8  1  0
  8  9  1  0
  9 10  1  0
  9 11  1  0
 11 12  1  0
 12 13  1  0
 13 14  1  0
 14 15  1  0
 15 16  1  0
 16 17  1  0
 17 18  1  0
  2 19  1  0
 19 20  2  0
 20 21  1  0
 21 22  2  0
 22 23  1  0
 23 24  2  0
 24 25  1  0
 25 26  2  0
 26 27  1  0
 27 28  2  0
 12  7  1  0
 18 14  1  0
 28 19  1  0
 27 22  1  0
  3 29  1  0
  4 30  1  0
  4 31  1  0
  8 32  1  0
  8 33  1  0
  9 34  1  6
 11 35  1  0
 11 36  1  0
 12 37  1  1
 13 38  1  0
 13 39  1  0
 15 40  1  0
 15 41  1  0
 16 42  1  0
 16 43  1  0
 17 44  1  0
 17 45  1  0
 18 46  1  0
 18 47  1  0
 20 48  1  0
 21 49  1  0
 23 50  1  0
 24 51  1  0
 25 52  1  0
 26 53  1  0
M  END
>  <smiles>  (29) 
O=C(NCC(=O)N1C[C@H](F)C[C@H]1CN1CCCC1)c1ccc2ccccc2n1

>  <score_type>  (29) 
oracle

>  <origin>  (29) 
autodockgpu

>  <m_score__min__energy>  (29) 
-8.4100000000000001

>  <m_primary>  (29) 
energy

>  <rmsd>  (29) 
1.857839608741728

>  <m_score__min__rmsd>  (29) 
1.857839608741728

>  <meeko>  (29) 
{"free_energy": -8.06, "intermolecular_energy": -9.85, "internal_energy": -1.97, "cluster_size": 30, "cluster_id": 1, "rank_in_cluster": 21}

>  <energy>  (29) 
-7.74

>  <cluster_rmsd>  (29) 
1.27

>  <cluster>  (29) 
1

$$$$

     RDKit          3D

 53 56  0  0  0  0  0  0  0  0999 V2000
  140.5090   71.1800  221.2810 O   0  0  0  0  0  0  0  0  0  0  0  0
  140.1680   71.7700  222.3640 C   0  0  0  0  0  0  0  0  0  0  0  0
  139.8750   73.1430  222.3640 N   0  0  0  0  0  0  0  0  0  0  0  0
  139.9370   73.9760  221.1530 C   0  0  0  0  0  0  0  0  0  0  0  0
  139.8600   75.3790  221.5830 C   0  0  0  0  0  0  0  0  0  0  0  0
  139.3090   75.6410  222.7020 O   0  0  0  0  0  0  0  0  0  0  0  0
  140.3470   76.4890  220.8550 N   0  0  0  0  0  0  0  0  0  0  0  0
  140.1450   76.7030  219.4320 C   0  0  0  0  0  0  0  0  0  0  0  0
  141.6090   77.0050  219.0600 C   0  0  2  0  0  0  0  0  0  0  0  0
  142.4000   75.9670  219.4590 F   0  0  0  0  0  0  0  0  0  0  0  0
  141.8310   78.1550  220.0610 C   0  0  0  0  0  0  0  0  0  0  0  0
  141.1360   77.6350  221.3010 C   0  0  1  0  0  0  0  0  0  0  0  0
  140.2210   78.6300  221.9440 C   0  0  0  0  0  0  0  0  0  0  0  0
  140.8410   79.5410  222.8390 N   0  0  0  0  0  0  0  0  0  0  0  0
  141.0160   80.8410  222.1500 C   0  0  0  0  0  0  0  0  0  0  0  0
  141.8070   81.6340  223.1640 C   0  0  0  0  0  0  0  0  0  0  0  0
  142.6470   80.6010  223.8470 C   0  0  0  0  0  0  0  0  0  0  0  0
  142.2130   79.2740  223.1880 C   0  0  0  0  0  0  0  0  0  0  0  0
  140.0800   71.0120  223.6230 C   0  0  0  0  0  0  0  0  0  0  0  0
  139.5540   69.7310  223.5830 C   0  0  0  0  0  0  0  0  0  0  0  0
  139.4950   69.0620  224.8000 C   0  0  0  0  0  0  0  0  0  0  0  0
  139.9290   69.6280  225.9790 C   0  0  0  0  0  0  0  0  0  0  0  0
  139.8840   68.9930  227.1960 C   0  0  0  0  0  0  0  0  0  0  0  0
  140.3420   69.6270  228.3520 C   0  0  0  0  0  0  0  0  0  0  0  0
  140.8490   70.9070  228.2830 C   0  0  0  0  0  0  0  0  0  0  0  0
  140.9050   71.5600  227.0840 C   0  0  0  0  0  0  0  0  0  0  0  0
  140.4450   70.9110  225.9550 C   0  0  0  0  0  0  0  0  0  0  0  0
  140.5010   71.5550  224.7760 N   0  0  0  0  0  0  0  0  0  0  0  0
  139.6000   73.5830  223.2750 H   0  0  0  0  0  0  0  0  0  0  0  0
  140.8829   73.7968  220.6209 H   0  0  0  0  0  0  0  0  0  0  0  0
  139.1099   73.7322  220.4700 H   0  0  0  0  0  0  0  0  0  0  0  0
  139.7613   75.8056  218.9246 H   0  0  0  0  0  0  0  0  0  0  0  0
  139.4054   77.4690  219.1559 H   0  0  0  0  0  0  0  0  0  0  0  0
  141.8128   77.1941  217.9957 H   0  0  0  0  0  0  0  0  0  0  0  0
  142.9024   78.3231  220.2447 H   0  0  0  0  0  0  0  0  0  0  0  0
  141.4471   79.1252  219.7126 H   0  0  0  0  0  0  0  0  0  0  0  0
  141.8928   77.3902  222.0608 H   0  0  0  0  0  0  0  0  0  0  0  0
  139.7401   79.2138  221.1453 H   0  0  0  0  0  0  0  0  0  0  0  0
  139.5154   78.0435  222.5507 H   0  0  0  0  0  0  0  0  0  0  0  0
  141.5763   80.7227  221.2108 H   0  0  0  0  0  0  0  0  0  0  0  0
  140.0687   81.3175  221.8576 H   0  0  0  0  0  0  0  0  0  0  0  0
  142.4375   82.3865  222.6678 H   0  0  0  0  0  0  0  0  0  0  0  0
  141.1658   82.1914  223.8627 H   0  0  0  0  0  0  0  0  0  0  0  0
  143.7169   80.7912  223.6762 H   0  0  0  0  0  0  0  0  0  0  0  0
  142.5102   80.5971  224.9385 H   0  0  0  0  0  0  0  0  0  0  0  0
  142.8166   79.0565  222.2945 H   0  0  0  0  0  0  0  0  0  0  0  0
  142.3400   78.3961  223.8385 H   0  0  0  0  0  0  0  0  0  0  0  0
  139.2048   69.2719  222.6464 H   0  0  0  0  0  0  0  0  0  0  0  0
  139.0860   68.0411  224.8228 H   0  0  0  0  0  0  0  0  0  0  0  0
  139.4817   67.9712  227.2605 H   0  0  0  0  0  0  0  0  0  0  0  0
  140.2983   69.1047  229.3191 H   0  0  0  0  0  0  0  0  0  0  0  0
  141.2095   71.4041  229.1957 H   0  0  0  0  0  0  0  0  0  0  0  0
  141.3081   72.5814  227.0193 H   0  0  0  0  0  0  0  0  0  0  0  0
  1  2  2  0
  2  3  1  0
  3  4  1  0
  4  5  1  0
  5  6  2  0
  5  7  1  0
  7  8  1  0
  8  9  1  0
  9 10  1  0
  9 11  1  0
 11 12  1  0
 12 13  1  0
 13 14  1  0
 14 15  1  0
 15 16  1  0
 16 17  1  0
 17 18  1  0
  2 19  1  0
 19 20  2  0
 20 21  1  0
 21 22  2  0
 22 23  1  0
 23 24  2  0
 24 25  1  0
 25 26  2  0
 26 27  1  0
 27 28  2  0
 12  7  1  0
 18 14  1  0
 28 19  1  0
 27 22  1  0
  3 29  1  0
  4 30  1  0
  4 31  1  0
  8 32  1  0
  8 33  1  0
  9 34  1  6
 11 35  1  0
 11 36  1  0
 12 37  1  1
 13 38  1  0
 13 39  1  0
 15 40  1  0
 15 41  1  0
 16 42  1  0
 16 43  1  0
 17 44  1  0
 17 45  1  0
 18 46  1  0
 18 47  1  0
 20 48  1  0
 21 49  1  0
 23 50  1  0
 24 51  1  0
 25 52  1  0
 26 53  1  0
M  END
>  <smiles>  (30) 
O=C(NCC(=O)N1C[C@H](F)C[C@H]1CN1CCCC1)c1ccc2ccccc2n1

>  <score_type>  (30) 
oracle

>  <origin>  (30) 
autodockgpu

>  <m_score__min__energy>  (30) 
-8.4100000000000001

>  <m_primary>  (30) 
energy

>  <rmsd>  (30) 
2.124181561427911

>  <m_score__min__rmsd>  (30) 
2.124181561427911

>  <meeko>  (30) 
{"free_energy": -8.29, "intermolecular_energy": -10.08, "internal_energy": -1.93, "cluster_size": 30, "cluster_id": 1, "rank_in_cluster": 6}

>  <energy>  (30) 
-7.66

>  <cluster_rmsd>  (30) 
1.18

>  <cluster>  (30) 
1

$$$$

     RDKit          3D

 53 56  0  0  0  0  0  0  0  0999 V2000
  141.0540   71.3670  221.4230 O   0  0  0  0  0  0  0  0  0  0  0  0
  140.4720   71.9130  222.4220 C   0  0  0  0  0  0  0  0  0  0  0  0
  140.0550   73.2520  222.3580 N   0  0  0  0  0  0  0  0  0  0  0  0
  140.2520   74.0960  221.1700 C   0  0  0  0  0  0  0  0  0  0  0  0
  139.8620   75.4650  221.5350 C   0  0  0  0  0  0  0  0  0  0  0  0
  139.0450   75.6250  222.5000 O   0  0  0  0  0  0  0  0  0  0  0  0
  140.3170   76.6460  220.9040 N   0  0  0  0  0  0  0  0  0  0  0  0
  140.0510   77.0030  219.5200 C   0  0  0  0  0  0  0  0  0  0  0  0
  141.4980   77.3470  219.1160 C   0  0  2  0  0  0  0  0  0  0  0  0
  142.3040   76.2770  219.3700 F   0  0  0  0  0  0  0  0  0  0  0  0
  141.7650   78.3890  220.2180 C   0  0  0  0  0  0  0  0  0  0  0  0
  141.1260   77.7430  221.4280 C   0  0  1  0  0  0  0  0  0  0  0  0
  140.2420   78.6640  222.2100 C   0  0  0  0  0  0  0  0  0  0  0  0
  140.9120   79.5390  223.1050 N   0  0  0  0  0  0  0  0  0  0  0  0
  141.1060   80.8460  222.4360 C   0  0  0  0  0  0  0  0  0  0  0  0
  141.9460   81.5970  223.4440 C   0  0  0  0  0  0  0  0  0  0  0  0
  142.7730   80.5270  224.0860 C   0  0  0  0  0  0  0  0  0  0  0  0
  142.2840   79.2260  223.4140 C   0  0  0  0  0  0  0  0  0  0  0  0
  140.2350   71.1410  223.6530 C   0  0  0  0  0  0  0  0  0  0  0  0
  139.5570   69.9370  223.5530 C   0  0  0  0  0  0  0  0  0  0  0  0
  139.3600   69.2500  224.7460 C   0  0  0  0  0  0  0  0  0  0  0  0
  139.8080   69.7290  225.9580 C   0  0  0  0  0  0  0  0  0  0  0  0
  139.6300   69.0740  227.1520 C   0  0  0  0  0  0  0  0  0  0  0  0
  140.1100   69.6170  228.3450 C   0  0  0  0  0  0  0  0  0  0  0  0
  140.7740   70.8250  228.3360 C   0  0  0  0  0  0  0  0  0  0  0  0
  140.9650   71.4960  227.1610 C   0  0  0  0  0  0  0  0  0  0  0  0
  140.4790   70.9370  225.9950 C   0  0  0  0  0  0  0  0  0  0  0  0
  140.6680   71.5980  224.8390 N   0  0  0  0  0  0  0  0  0  0  0  0
  139.5820   73.6580  223.2020 H   0  0  0  0  0  0  0  0  0  0  0  0
  141.3085   74.0747  220.8645 H   0  0  0  0  0  0  0  0  0  0  0  0
  139.6454   73.7303  220.3284 H   0  0  0  0  0  0  0  0  0  0  0  0
  139.6443   76.1604  218.9415 H   0  0  0  0  0  0  0  0  0  0  0  0
  139.3001   77.7900  219.3564 H   0  0  0  0  0  0  0  0  0  0  0  0
  141.6548   77.6451  218.0688 H   0  0  0  0  0  0  0  0  0  0  0  0
  142.8437   78.5416  220.3700 H   0  0  0  0  0  0  0  0  0  0  0  0
  141.3664   79.3881  219.9879 H   0  0  0  0  0  0  0  0  0  0  0  0
  141.9162   77.4247  222.1239 H   0  0  0  0  0  0  0  0  0  0  0  0
  139.6757   79.2788  221.4949 H   0  0  0  0  0  0  0  0  0  0  0  0
  139.6096   78.0172  222.8359 H   0  0  0  0  0  0  0  0  0  0  0  0
  141.6381   80.7301  221.4803 H   0  0  0  0  0  0  0  0  0  0  0  0
  140.1655   81.3545  222.1776 H   0  0  0  0  0  0  0  0  0  0  0  0
  142.5853   82.3404  222.9454 H   0  0  0  0  0  0  0  0  0  0  0  0
  141.3394   82.1591  224.1693 H   0  0  0  0  0  0  0  0  0  0  0  0
  143.8433   80.6898  223.8910 H   0  0  0  0  0  0  0  0  0  0  0  0
  142.6639   80.5060  225.1804 H   0  0  0  0  0  0  0  0  0  0  0  0
  142.8585   79.0083  222.5015 H   0  0  0  0  0  0  0  0  0  0  0  0
  142.4014   78.3325  224.0448 H   0  0  0  0  0  0  0  0  0  0  0  0
  139.1966   69.5483  222.5891 H   0  0  0  0  0  0  0  0  0  0  0  0
  138.8266   68.2883  224.7213 H   0  0  0  0  0  0  0  0  0  0  0  0
  139.1023   68.1090  227.1684 H   0  0  0  0  0  0  0  0  0  0  0  0
  139.9583   69.0804  229.2932 H   0  0  0  0  0  0  0  0  0  0  0  0
  141.1513   71.2502  229.2777 H   0  0  0  0  0  0  0  0  0  0  0  0
  141.4942   72.4602  227.1440 H   0  0  0  0  0  0  0  0  0  0  0  0
  1  2  2  0
  2  3  1  0
  3  4  1  0
  4  5  1  0
  5  6  2  0
  5  7  1  0
  7  8  1  0
  8  9  1  0
  9 10  1  0
  9 11  1  0
 11 12  1  0
 12 13  1  0
 13 14  1  0
 14 15  1  0
 15 16  1  0
 16 17  1  0
 17 18  1  0
  2 19  1  0
 19 20  2  0
 20 21  1  0
 21 22  2  0
 22 23  1  0
 23 24  2  0
 24 25  1  0
 25 26  2  0
 26 27  1  0
 27 28  2  0
 12  7  1  0
 18 14  1  0
 28 19  1  0
 27 22  1  0
  3 29  1  0
  4 30  1  0
  4 31  1  0
  8 32  1  0
  8 33  1  0
  9 34  1  6
 11 35  1  0
 11 36  1  0
 12 37  1  1
 13 38  1  0
 13 39  1  0
 15 40  1  0
 15 41  1  0
 16 42  1  0
 16 43  1  0
 17 44  1  0
 17 45  1  0
 18 46  1  0
 18 47  1  0
 20 48  1  0
 21 49  1  0
 23 50  1  0
 24 51  1  0
 25 52  1  0
 26 53  1  0
M  END
>  <smiles>  (31) 
O=C(NCC(=O)N1C[C@H](F)C[C@H]1CN1CCCC1)c1ccc2ccccc2n1

>  <score_type>  (31) 
oracle

>  <origin>  (31) 
autodockgpu

>  <m_score__min__energy>  (31) 
-8.4100000000000001

>  <m_primary>  (31) 
energy

>  <rmsd>  (31) 
2.300697869473778

>  <m_score__min__rmsd>  (31) 
2.300697869473778

>  <meeko>  (31) 
{"free_energy": -8.22, "intermolecular_energy": -10.01, "internal_energy": -1.84, "cluster_size": 30, "cluster_id": 1, "rank_in_cluster": 15}

>  <energy>  (31) 
-7.93

>  <cluster_rmsd>  (31) 
0.0

>  <cluster>  (31) 
2

$$$$

     RDKit          3D

 53 56  0  0  0  0  0  0  0  0999 V2000
  141.1260   71.2990  221.3220 O   0  0  0  0  0  0  0  0  0  0  0  0
  140.6140   71.9320  222.3070 C   0  0  0  0  0  0  0  0  0  0  0  0
  140.3290   73.3020  222.2020 N   0  0  0  0  0  0  0  0  0  0  0  0
  140.5900   74.0840  220.9840 C   0  0  0  0  0  0  0  0  0  0  0  0
  140.6270   75.5010  221.3710 C   0  0  0  0  0  0  0  0  0  0  0  0
  139.9590   75.8670  222.3930 O   0  0  0  0  0  0  0  0  0  0  0  0
  141.3490   76.5170  220.7040 N   0  0  0  0  0  0  0  0  0  0  0  0
  141.4920   77.8830  221.1780 C   0  0  0  0  0  0  0  0  0  0  0  0
  141.1050   78.5960  219.8680 C   0  0  2  0  0  0  0  0  0  0  0  0
  139.8730   78.1690  219.4690 F   0  0  0  0  0  0  0  0  0  0  0  0
  142.1410   77.9080  218.9590 C   0  0  0  0  0  0  0  0  0  0  0  0
  142.0870   76.4760  219.4440 C   0  0  1  0  0  0  0  0  0  0  0  0
  143.4340   75.8700  219.6920 C   0  0  0  0  0  0  0  0  0  0  0  0
  143.4280   74.5030  220.0750 N   0  0  0  0  0  0  0  0  0  0  0  0
  144.7880   74.1300  220.5290 C   0  0  0  0  0  0  0  0  0  0  0  0
  144.6510   72.6420  220.7520 C   0  0  0  0  0  0  0  0  0  0  0  0
  143.6530   72.2170  219.7210 C   0  0  0  0  0  0  0  0  0  0  0  0
  143.2570   73.5360  219.0210 C   0  0  0  0  0  0  0  0  0  0  0  0
  140.3190   71.2270  223.5660 C   0  0  0  0  0  0  0  0  0  0  0  0
  139.6460   70.0190  223.5000 C   0  0  0  0  0  0  0  0  0  0  0  0
  139.3940   69.3980  224.7190 C   0  0  0  0  0  0  0  0  0  0  0  0
  139.7850   69.9420  225.9220 C   0  0  0  0  0  0  0  0  0  0  0  0
  139.5520   69.3530  227.1410 C   0  0  0  0  0  0  0  0  0  0  0  0
  139.9770   69.9600  228.3230 C   0  0  0  0  0  0  0  0  0  0  0  0
  140.6410   71.1680  228.2800 C   0  0  0  0  0  0  0  0  0  0  0  0
  140.8860   71.7740  227.0790 C   0  0  0  0  0  0  0  0  0  0  0  0
  140.4550   71.1520  225.9240 C   0  0  0  0  0  0  0  0  0  0  0  0
  140.6970   71.7490  224.7440 N   0  0  0  0  0  0  0  0  0  0  0  0
  139.9090   73.7800  223.0370 H   0  0  0  0  0  0  0  0  0  0  0  0
  141.5552   73.7883  220.5470 H   0  0  0  0  0  0  0  0  0  0  0  0
  139.8058   73.9068  220.2332 H   0  0  0  0  0  0  0  0  0  0  0  0
  140.7995   78.1148  222.0006 H   0  0  0  0  0  0  0  0  0  0  0  0
  142.4697   78.1493  221.6060 H   0  0  0  0  0  0  0  0  0  0  0  0
  141.0868   79.6955  219.8973 H   0  0  0  0  0  0  0  0  0  0  0  0
  141.8542   77.9818  217.8996 H   0  0  0  0  0  0  0  0  0  0  0  0
  143.1441   78.3561  219.0132 H   0  0  0  0  0  0  0  0  0  0  0  0
  141.6166   75.8522  218.6697 H   0  0  0  0  0  0  0  0  0  0  0  0
  144.0217   75.9601  218.7666 H   0  0  0  0  0  0  0  0  0  0  0  0
  143.8606   76.4204  220.5435 H   0  0  0  0  0  0  0  0  0  0  0  0
  145.5407   74.3504  219.7578 H   0  0  0  0  0  0  0  0  0  0  0  0
  145.1238   74.6816  221.4195 H   0  0  0  0  0  0  0  0  0  0  0  0
  145.6138   72.1325  220.5989 H   0  0  0  0  0  0  0  0  0  0  0  0
  144.3371   72.3924  221.7763 H   0  0  0  0  0  0  0  0  0  0  0  0
  144.1048   71.5145  219.0052 H   0  0  0  0  0  0  0  0  0  0  0  0
  142.7900   71.6925  220.1570 H   0  0  0  0  0  0  0  0  0  0  0  0
  143.9209   73.7512  218.1707 H   0  0  0  0  0  0  0  0  0  0  0  0
  142.2432   73.5224  218.5944 H   0  0  0  0  0  0  0  0  0  0  0  0
  139.3302   69.5777  222.5432 H   0  0  0  0  0  0  0  0  0  0  0  0
  138.8619   68.4353  224.7220 H   0  0  0  0  0  0  0  0  0  0  0  0
  139.0231   68.3895  227.1857 H   0  0  0  0  0  0  0  0  0  0  0  0
  139.7822   69.4744  229.2906 H   0  0  0  0  0  0  0  0  0  0  0  0
  140.9741   71.6449  229.2136 H   0  0  0  0  0  0  0  0  0  0  0  0
  141.4155   72.7371  227.0339 H   0  0  0  0  0  0  0  0  0  0  0  0
  1  2  2  0
  2  3  1  0
  3  4  1  0
  4  5  1  0
  5  6  2  0
  5  7  1  0
  7  8  1  0
  8  9  1  0
  9 10  1  0
  9 11  1  0
 11 12  1  0
 12 13  1  0
 13 14  1  0
 14 15  1  0
 15 16  1  0
 16 17  1  0
 17 18  1  0
  2 19  1  0
 19 20  2  0
 20 21  1  0
 21 22  2  0
 22 23  1  0
 23 24  2  0
 24 25  1  0
 25 26  2  0
 26 27  1  0
 27 28  2  0
 12  7  1  0
 18 14  1  0
 28 19  1  0
 27 22  1  0
  3 29  1  0
  4 30  1  0
  4 31  1  0
  8 32  1  0
  8 33  1  0
  9 34  1  1
 11 35  1  0
 11 36  1  0
 12 37  1  6
 13 38  1  0
 13 39  1  0
 15 40  1  0
 15 41  1  0
 16 42  1  0
 16 43  1  0
 17 44  1  0
 17 45  1  0
 18 46  1  0
 18 47  1  0
 20 48  1  0
 21 49  1  0
 23 50  1  0
 24 51  1  0
 25 52  1  0
 26 53  1  0
M  END
>  <smiles>  (32) 
O=C(NCC(=O)N1C[C@H](F)C[C@H]1CN1CCCC1)c1ccc2ccccc2n1

>  <score_type>  (32) 
oracle

>  <origin>  (32) 
autodockgpu

>  <m_score__min__energy>  (32) 
-8.4100000000000001

>  <m_primary>  (32) 
energy

>  <rmsd>  (32) 
4.2167745260336185

>  <m_score__min__rmsd>  (32) 
4.2167745260336185

>  <meeko>  (32) 
{"free_energy": -7.64, "intermolecular_energy": -9.43, "internal_energy": -2.35, "cluster_size": 16, "cluster_id": 3, "rank_in_cluster": 10}

>  <energy>  (32) 
-7.89

>  <cluster_rmsd>  (32) 
0.3

>  <cluster>  (32) 
2

$$$$

     RDKit          3D

 53 56  0  0  0  0  0  0  0  0999 V2000
  141.1300   71.5130  221.4220 O   0  0  0  0  0  0  0  0  0  0  0  0
  140.5000   72.0240  222.4100 C   0  0  0  0  0  0  0  0  0  0  0  0
  140.0400   73.3500  222.3510 N   0  0  0  0  0  0  0  0  0  0  0  0
  140.2450   74.2180  221.1810 C   0  0  0  0  0  0  0  0  0  0  0  0
  139.8200   75.5720  221.5610 C   0  0  0  0  0  0  0  0  0  0  0  0
  139.0480   75.7060  222.5670 O   0  0  0  0  0  0  0  0  0  0  0  0
  140.1930   76.7660  220.9010 N   0  0  0  0  0  0  0  0  0  0  0  0
  139.7290   77.1670  219.5840 C   0  0  0  0  0  0  0  0  0  0  0  0
  141.1040   77.5070  218.9770 C   0  0  2  0  0  0  0  0  0  0  0  0
  141.9230   76.4210  219.0780 F   0  0  0  0  0  0  0  0  0  0  0  0
  141.5490   78.5130  220.0560 C   0  0  0  0  0  0  0  0  0  0  0  0
  141.0880   77.8380  221.3290 C   0  0  1  0  0  0  0  0  0  0  0  0
  140.3440   78.7450  222.2590 C   0  0  0  0  0  0  0  0  0  0  0  0
  141.1510   79.4950  223.1560 N   0  0  0  0  0  0  0  0  0  0  0  0
  140.9810   80.9360  222.8570 C   0  0  0  0  0  0  0  0  0  0  0  0
  141.9970   81.5730  223.7760 C   0  0  0  0  0  0  0  0  0  0  0  0
  143.0970   80.5610  223.8480 C   0  0  0  0  0  0  0  0  0  0  0  0
  142.5780   79.3870  222.9890 C   0  0  0  0  0  0  0  0  0  0  0  0
  140.2510   71.2270  223.6220 C   0  0  0  0  0  0  0  0  0  0  0  0
  139.5670   70.0290  223.4910 C   0  0  0  0  0  0  0  0  0  0  0  0
  139.3600   69.3170  224.6670 C   0  0  0  0  0  0  0  0  0  0  0  0
  139.8030   69.7660  225.8920 C   0  0  0  0  0  0  0  0  0  0  0  0
  139.6140   69.0860  227.0710 C   0  0  0  0  0  0  0  0  0  0  0  0
  140.0890   69.6000  228.2780 C   0  0  0  0  0  0  0  0  0  0  0  0
  140.7590   70.8050  228.3000 C   0  0  0  0  0  0  0  0  0  0  0  0
  140.9600   71.5000  227.1410 C   0  0  0  0  0  0  0  0  0  0  0  0
  140.4790   70.9700  225.9600 C   0  0  0  0  0  0  0  0  0  0  0  0
  140.6780   71.6560  224.8200 N   0  0  0  0  0  0  0  0  0  0  0  0
  139.5280   73.7270  223.1860 H   0  0  0  0  0  0  0  0  0  0  0  0
  141.3079   74.2228  220.8976 H   0  0  0  0  0  0  0  0  0  0  0  0
  139.6640   73.8549  220.3204 H   0  0  0  0  0  0  0  0  0  0  0  0
  139.2274   76.3467  219.0497 H   0  0  0  0  0  0  0  0  0  0  0  0
  138.9745   77.9670  219.5571 H   0  0  0  0  0  0  0  0  0  0  0  0
  141.1067   77.8342  217.9268 H   0  0  0  0  0  0  0  0  0  0  0  0
  142.6405   78.6490  220.0490 H   0  0  0  0  0  0  0  0  0  0  0  0
  141.1361   79.5229  219.9163 H   0  0  0  0  0  0  0  0  0  0  0  0
  141.9680   77.4903  221.8900 H   0  0  0  0  0  0  0  0  0  0  0  0
  139.7649   79.4545  221.6497 H   0  0  0  0  0  0  0  0  0  0  0  0
  139.7220   78.0902  222.8870 H   0  0  0  0  0  0  0  0  0  0  0  0
  141.2049   81.1539  221.8023 H   0  0  0  0  0  0  0  0  0  0  0  0
  139.9550   81.3015  223.0110 H   0  0  0  0  0  0  0  0  0  0  0  0
  142.3640   82.5216  223.3570 H   0  0  0  0  0  0  0  0  0  0  0  0
  141.5811   81.8203  224.7639 H   0  0  0  0  0  0  0  0  0  0  0  0
  144.0307   80.9675  223.4321 H   0  0  0  0  0  0  0  0  0  0  0  0
  143.3306   80.2608  224.8802 H   0  0  0  0  0  0  0  0  0  0  0  0
  142.8663   79.5067  221.9342 H   0  0  0  0  0  0  0  0  0  0  0  0
  142.9845   78.4090  223.2862 H   0  0  0  0  0  0  0  0  0  0  0  0
  139.2099   69.6639  222.5167 H   0  0  0  0  0  0  0  0  0  0  0  0
  138.8221   68.3588  224.6176 H   0  0  0  0  0  0  0  0  0  0  0  0
  139.0812   68.1237  227.0631 H   0  0  0  0  0  0  0  0  0  0  0  0
  139.9288   69.0433  229.2131 H   0  0  0  0  0  0  0  0  0  0  0  0
  141.1326   71.2077  229.2530 H   0  0  0  0  0  0  0  0  0  0  0  0
  141.4939   72.4617  227.1485 H   0  0  0  0  0  0  0  0  0  0  0  0
  1  2  2  0
  2  3  1  0
  3  4  1  0
  4  5  1  0
  5  6  2  0
  5  7  1  0
  7  8  1  0
  8  9  1  0
  9 10  1  0
  9 11  1  0
 11 12  1  0
 12 13  1  0
 13 14  1  0
 14 15  1  0
 15 16  1  0
 16 17  1  0
 17 18  1  0
  2 19  1  0
 19 20  2  0
 20 21  1  0
 21 22  2  0
 22 23  1  0
 23 24  2  0
 24 25  1  0
 25 26  2  0
 26 27  1  0
 27 28  2  0
 12  7  1  0
 18 14  1  0
 28 19  1  0
 27 22  1  0
  3 29  1  0
  4 30  1  0
  4 31  1  0
  8 32  1  0
  8 33  1  0
  9 34  1  6
 11 35  1  0
 11 36  1  0
 12 37  1  1
 13 38  1  0
 13 39  1  0
 15 40  1  0
 15 41  1  0
 16 42  1  0
 16 43  1  0
 17 44  1  0
 17 45  1  0
 18 46  1  0
 18 47  1  0
 20 48  1  0
 21 49  1  0
 23 50  1  0
 24 51  1  0
 25 52  1  0
 26 53  1  0
M  END
>  <smiles>  (33) 
O=C(NCC(=O)N1C[C@H](F)C[C@H]1CN1CCCC1)c1ccc2ccccc2n1

>  <score_type>  (33) 
oracle

>  <origin>  (33) 
autodockgpu

>  <m_score__min__energy>  (33) 
-8.4100000000000001

>  <m_primary>  (33) 
energy

>  <rmsd>  (33) 
2.2456351542200754

>  <m_score__min__rmsd>  (33) 
2.2456351542200754

>  <meeko>  (33) 
{"free_energy": -8.27, "intermolecular_energy": -10.06, "internal_energy": -1.81, "cluster_size": 30, "cluster_id": 1, "rank_in_cluster": 9}

>  <energy>  (33) 
-7.87

>  <cluster_rmsd>  (33) 
0.28

>  <cluster>  (33) 
2

$$$$

     RDKit          3D

 53 56  0  0  0  0  0  0  0  0999 V2000
  137.3160   76.4260  222.2140 O   0  0  0  0  0  0  0  0  0  0  0  0
  138.5810   76.4800  222.3940 C   0  0  0  0  0  0  0  0  0  0  0  0
  139.3670   75.3240  222.2710 N   0  0  0  0  0  0  0  0  0  0  0  0
  138.8070   74.0060  221.9350 C   0  0  0  0  0  0  0  0  0  0  0  0
  139.8730   73.0140  222.1310 C   0  0  0  0  0  0  0  0  0  0  0  0
  141.0820   73.3790  221.9530 O   0  0  0  0  0  0  0  0  0  0  0  0
  139.6810   71.6640  222.5060 N   0  0  0  0  0  0  0  0  0  0  0  0
  139.9010   70.5210  221.6360 C   0  0  0  0  0  0  0  0  0  0  0  0
  138.5610   69.8060  221.8950 C   0  0  2  0  0  0  0  0  0  0  0  0
  137.5330   70.6560  221.6080 F   0  0  0  0  0  0  0  0  0  0  0  0
  138.6740   69.7300  223.4290 C   0  0  0  0  0  0  0  0  0  0  0  0
  139.2340   71.0930  223.7740 C   0  0  1  0  0  0  0  0  0  0  0  0
  140.3930   71.0490  224.7190 C   0  0  0  0  0  0  0  0  0  0  0  0
  140.0580   71.0610  226.0990 N   0  0  0  0  0  0  0  0  0  0  0  0
  141.1090   71.7980  226.8380 C   0  0  0  0  0  0  0  0  0  0  0  0
  140.6890   71.5940  228.2750 C   0  0  0  0  0  0  0  0  0  0  0  0
  140.0560   70.2380  228.2730 C   0  0  0  0  0  0  0  0  0  0  0  0
  140.1220   69.8000  226.7930 C   0  0  0  0  0  0  0  0  0  0  0  0
  139.2260   77.7590  222.7340 C   0  0  0  0  0  0  0  0  0  0  0  0
  138.4170   78.8390  223.0480 C   0  0  0  0  0  0  0  0  0  0  0  0
  139.0790   80.0220  223.3610 C   0  0  0  0  0  0  0  0  0  0  0  0
  140.4530   80.1230  223.3610 C   0  0  0  0  0  0  0  0  0  0  0  0
  141.1350   81.2760  223.6660 C   0  0  0  0  0  0  0  0  0  0  0  0
  142.5300   81.3090  223.6470 C   0  0  0  0  0  0  0  0  0  0  0  0
  143.2440   80.1750  223.3200 C   0  0  0  0  0  0  0  0  0  0  0  0
  142.5880   79.0160  223.0140 C   0  0  0  0  0  0  0  0  0  0  0  0
  141.2070   79.0100  223.0390 C   0  0  0  0  0  0  0  0  0  0  0  0
  140.5640   77.8680  222.7380 N   0  0  0  0  0  0  0  0  0  0  0  0
  140.4010   75.4170  222.4280 H   0  0  0  0  0  0  0  0  0  0  0  0
  137.9564   73.7794  222.5946 H   0  0  0  0  0  0  0  0  0  0  0  0
  138.4471   73.9899  220.8957 H   0  0  0  0  0  0  0  0  0  0  0  0
  140.0218   70.8143  220.5827 H   0  0  0  0  0  0  0  0  0  0  0  0
  140.8108   69.9329  221.8264 H   0  0  0  0  0  0  0  0  0  0  0  0
  138.3903   68.8722  221.3392 H   0  0  0  0  0  0  0  0  0  0  0  0
  137.6897   69.5733  223.8945 H   0  0  0  0  0  0  0  0  0  0  0  0
  139.2933   68.8939  223.7861 H   0  0  0  0  0  0  0  0  0  0  0  0
  138.4566   71.6827  224.2819 H   0  0  0  0  0  0  0  0  0  0  0  0
  140.9608   70.1290  224.5162 H   0  0  0  0  0  0  0  0  0  0  0  0
  140.9643   71.9717  224.5391 H   0  0  0  0  0  0  0  0  0  0  0  0
  142.1046   71.3703  226.6486 H   0  0  0  0  0  0  0  0  0  0  0  0
  141.1944   72.8557  226.5481 H   0  0  0  0  0  0  0  0  0  0  0  0
  141.5608   71.6185  228.9453 H   0  0  0  0  0  0  0  0  0  0  0  0
  140.0092   72.3802  228.6351 H   0  0  0  0  0  0  0  0  0  0  0  0
  140.6189   69.5423  228.9126 H   0  0  0  0  0  0  0  0  0  0  0  0
  139.0291   70.2484  228.6672 H   0  0  0  0  0  0  0  0  0  0  0  0
  141.0620   69.2720  226.5749 H   0  0  0  0  0  0  0  0  0  0  0  0
  139.3268   69.0967  226.5049 H   0  0  0  0  0  0  0  0  0  0  0  0
  137.3195   78.7657  223.0498 H   0  0  0  0  0  0  0  0  0  0  0  0
  138.4830   80.9100  223.6181 H   0  0  0  0  0  0  0  0  0  0  0  0
  140.5741   82.1851  223.9286 H   0  0  0  0  0  0  0  0  0  0  0  0
  143.0608   82.2405  223.8931 H   0  0  0  0  0  0  0  0  0  0  0  0
  144.3435   80.2037  223.3055 H   0  0  0  0  0  0  0  0  0  0  0  0
  143.1484   78.1062  222.7530 H   0  0  0  0  0  0  0  0  0  0  0  0
  1  2  2  0
  2  3  1  0
  3  4  1  0
  4  5  1  0
  5  6  2  0
  5  7  1  0
  7  8  1  0
  8  9  1  0
  9 10  1  0
  9 11  1  0
 11 12  1  0
 12 13  1  0
 13 14  1  0
 14 15  1  0
 15 16  1  0
 16 17  1  0
 17 18  1  0
  2 19  1  0
 19 20  2  0
 20 21  1  0
 21 22  2  0
 22 23  1  0
 23 24  2  0
 24 25  1  0
 25 26  2  0
 26 27  1  0
 27 28  2  0
 12  7  1  0
 18 14  1  0
 28 19  1  0
 27 22  1  0
  3 29  1  0
  4 30  1  0
  4 31  1  0
  8 32  1  0
  8 33  1  0
  9 34  1  6
 11 35  1  0
 11 36  1  0
 12 37  1  1
 13 38  1  0
 13 39  1  0
 15 40  1  0
 15 41  1  0
 16 42  1  0
 16 43  1  0
 17 44  1  0
 17 45  1  0
 18 46  1  0
 18 47  1  0
 20 48  1  0
 21 49  1  0
 23 50  1  0
 24 51  1  0
 25 52  1  0
 26 53  1  0
M  END
>  <smiles>  (34) 
O=C(NCC(=O)N1C[C@H](F)C[C@H]1CN1CCCC1)c1ccc2ccccc2n1

>  <score_type>  (34) 
oracle

>  <origin>  (34) 
autodockgpu

>  <m_score__min__energy>  (34) 
-8.4100000000000001

>  <m_primary>  (34) 
energy

>  <rmsd>  (34) 
9.200725935892942

>  <m_score__min__rmsd>  (34) 
9.200725935892942

>  <meeko>  (34) 
{"free_energy": -7.87, "intermolecular_energy": -9.66, "internal_energy": -2.02, "cluster_size": 4, "cluster_id": 2, "rank_in_cluster": 3}

>  <energy>  (34) 
-7.86

>  <cluster_rmsd>  (34) 
0.26

>  <cluster>  (34) 
2

$$$$

     RDKit          3D

 53 56  0  0  0  0  0  0  0  0999 V2000
  140.0260   71.1560  221.1970 O   0  0  0  0  0  0  0  0  0  0  0  0
  139.9050   71.8210  222.2820 C   0  0  0  0  0  0  0  0  0  0  0  0
  139.7470   73.2160  222.2460 N   0  0  0  0  0  0  0  0  0  0  0  0
  139.7090   73.9870  220.9940 C   0  0  0  0  0  0  0  0  0  0  0  0
  140.4430   75.2390  221.2280 C   0  0  0  0  0  0  0  0  0  0  0  0
  140.5300   75.6760  222.4220 O   0  0  0  0  0  0  0  0  0  0  0  0
  141.0720   76.0200  220.2320 N   0  0  0  0  0  0  0  0  0  0  0  0
  141.0440   75.7300  218.8080 C   0  0  0  0  0  0  0  0  0  0  0  0
  142.5570   75.8630  218.5420 C   0  0  2  0  0  0  0  0  0  0  0  0
  143.2360   75.0160  219.3680 F   0  0  0  0  0  0  0  0  0  0  0  0
  142.7290   77.2850  219.1090 C   0  0  0  0  0  0  0  0  0  0  0  0
  141.8700   77.2380  220.3540 C   0  0  1  0  0  0  0  0  0  0  0  0
  140.9480   78.4080  220.4970 C   0  0  0  0  0  0  0  0  0  0  0  0
  141.0400   79.1120  221.7260 N   0  0  0  0  0  0  0  0  0  0  0  0
  142.1600   80.0780  221.6380 C   0  0  0  0  0  0  0  0  0  0  0  0
  142.2180   80.6260  223.0450 C   0  0  0  0  0  0  0  0  0  0  0  0
  141.7930   79.4700  223.8960 C   0  0  0  0  0  0  0  0  0  0  0  0
  141.4700   78.3570  222.8750 C   0  0  0  0  0  0  0  0  0  0  0  0
  139.9320   71.1300  223.5810 C   0  0  0  0  0  0  0  0  0  0  0  0
  139.4240   69.8440  223.6510 C   0  0  0  0  0  0  0  0  0  0  0  0
  139.4740   69.2390  224.9030 C   0  0  0  0  0  0  0  0  0  0  0  0
  139.9960   69.8710  226.0100 C   0  0  0  0  0  0  0  0  0  0  0  0
  140.0610   69.3000  227.2580 C   0  0  0  0  0  0  0  0  0  0  0  0
  140.6020   69.9990  228.3380 C   0  0  0  0  0  0  0  0  0  0  0  0
  141.0830   71.2790  228.1610 C   0  0  0  0  0  0  0  0  0  0  0  0
  141.0310   71.8690  226.9290 C   0  0  0  0  0  0  0  0  0  0  0  0
  140.4890   71.1560  225.8780 C   0  0  0  0  0  0  0  0  0  0  0  0
  140.4390   71.7380  224.6660 N   0  0  0  0  0  0  0  0  0  0  0  0
  139.6520   73.7200  223.1620 H   0  0  0  0  0  0  0  0  0  0  0  0
  140.1882   73.4154  220.1855 H   0  0  0  0  0  0  0  0  0  0  0  0
  138.6706   74.1946  220.6964 H   0  0  0  0  0  0  0  0  0  0  0  0
  140.6693   74.7181  218.5946 H   0  0  0  0  0  0  0  0  0  0  0  0
  140.3852   76.3633  218.1957 H   0  0  0  0  0  0  0  0  0  0  0  0
  142.8911   75.6690  217.5121 H   0  0  0  0  0  0  0  0  0  0  0  0
  143.7806   77.4910  219.3574 H   0  0  0  0  0  0  0  0  0  0  0  0
  142.4424   78.0794  218.4041 H   0  0  0  0  0  0  0  0  0  0  0  0
  142.5204   77.2606  221.2408 H   0  0  0  0  0  0  0  0  0  0  0  0
  141.1693   79.1152  219.6840 H   0  0  0  0  0  0  0  0  0  0  0  0
  139.9289   77.9955  220.4609 H   0  0  0  0  0  0  0  0  0  0  0  0
  143.1000   79.5755  221.3663 H   0  0  0  0  0  0  0  0  0  0  0  0
  142.0181   80.8507  220.8680 H   0  0  0  0  0  0  0  0  0  0  0  0
  143.2394   80.9453  223.2994 H   0  0  0  0  0  0  0  0  0  0  0  0
  141.5816   81.5125  223.1829 H   0  0  0  0  0  0  0  0  0  0  0  0
  142.6057   79.1598  224.5692 H   0  0  0  0  0  0  0  0  0  0  0  0
  140.9382   79.7121  224.5447 H   0  0  0  0  0  0  0  0  0  0  0  0
  142.3619   77.7554  222.6457 H   0  0  0  0  0  0  0  0  0  0  0  0
  140.7223   77.6338  223.2326 H   0  0  0  0  0  0  0  0  0  0  0  0
  139.0067   69.3322  222.7713 H   0  0  0  0  0  0  0  0  0  0  0  0
  139.0818   68.2172  225.0129 H   0  0  0  0  0  0  0  0  0  0  0  0
  139.6816   68.2784  227.4079 H   0  0  0  0  0  0  0  0  0  0  0  0
  140.6447   69.5284  229.3313 H   0  0  0  0  0  0  0  0  0  0  0  0
  141.5099   71.8271  229.0138 H   0  0  0  0  0  0  0  0  0  0  0  0
  141.4126   72.8896  226.7781 H   0  0  0  0  0  0  0  0  0  0  0  0
  1  2  2  0
  2  3  1  0
  3  4  1  0
  4  5  1  0
  5  6  2  0
  5  7  1  0
  7  8  1  0
  8  9  1  0
  9 10  1  0
  9 11  1  0
 11 12  1  0
 12 13  1  0
 13 14  1  0
 14 15  1  0
 15 16  1  0
 16 17  1  0
 17 18  1  0
  2 19  1  0
 19 20  2  0
 20 21  1  0
 21 22  2  0
 22 23  1  0
 23 24  2  0
 24 25  1  0
 25 26  2  0
 26 27  1  0
 27 28  2  0
 12  7  1  0
 18 14  1  0
 28 19  1  0
 27 22  1  0
  3 29  1  0
  4 30  1  0
  4 31  1  0
  8 32  1  0
  8 33  1  0
  9 34  1  6
 11 35  1  0
 11 36  1  0
 12 37  1  1
 13 38  1  0
 13 39  1  0
 15 40  1  0
 15 41  1  0
 16 42  1  0
 16 43  1  0
 17 44  1  0
 17 45  1  0
 18 46  1  0
 18 47  1  0
 20 48  1  0
 21 49  1  0
 23 50  1  0
 24 51  1  0
 25 52  1  0
 26 53  1  0
M  END
>  <smiles>  (35) 
O=C(NCC(=O)N1C[C@H](F)C[C@H]1CN1CCCC1)c1ccc2ccccc2n1

>  <score_type>  (35) 
oracle

>  <origin>  (35) 
autodockgpu

>  <m_score__min__energy>  (35) 
-8.4100000000000001

>  <m_primary>  (35) 
energy

>  <rmsd>  (35) 
2.1682720675502276

>  <m_score__min__rmsd>  (35) 
2.1682720675502276

>  <meeko>  (35) 
{"free_energy": -8.22, "intermolecular_energy": -10.01, "internal_energy": -1.97, "cluster_size": 30, "cluster_id": 1, "rank_in_cluster": 14}

>  <energy>  (35) 
-7.83

>  <cluster_rmsd>  (35) 
0.0

>  <cluster>  (35) 
3

$$$$

     RDKit          3D

 53 56  0  0  0  0  0  0  0  0999 V2000
  141.0080   71.4330  221.3300 O   0  0  0  0  0  0  0  0  0  0  0  0
  140.4910   72.0550  222.3210 C   0  0  0  0  0  0  0  0  0  0  0  0
  140.1640   73.4160  222.2140 N   0  0  0  0  0  0  0  0  0  0  0  0
  140.3850   74.1990  220.9890 C   0  0  0  0  0  0  0  0  0  0  0  0
  140.6260   75.5910  221.3960 C   0  0  0  0  0  0  0  0  0  0  0  0
  140.1530   75.9860  222.5110 O   0  0  0  0  0  0  0  0  0  0  0  0
  141.3490   76.5510  220.6510 N   0  0  0  0  0  0  0  0  0  0  0  0
  141.4470   77.9610  220.9890 C   0  0  0  0  0  0  0  0  0  0  0  0
  141.0890   78.5290  219.6010 C   0  0  2  0  0  0  0  0  0  0  0  0
  139.8800   78.0340  219.2090 F   0  0  0  0  0  0  0  0  0  0  0  0
  142.1690   77.7780  218.8000 C   0  0  0  0  0  0  0  0  0  0  0  0
  142.1290   76.4010  219.4260 C   0  0  1  0  0  0  0  0  0  0  0  0
  143.4790   75.8560  219.7770 C   0  0  0  0  0  0  0  0  0  0  0  0
  143.4970   74.5090  220.2250 N   0  0  0  0  0  0  0  0  0  0  0  0
  144.8940   74.1310  220.5390 C   0  0  0  0  0  0  0  0  0  0  0  0
  144.7620   72.6580  220.8510 C   0  0  0  0  0  0  0  0  0  0  0  0
  143.6460   72.2050  219.9620 C   0  0  0  0  0  0  0  0  0  0  0  0
  143.1930   73.4960  219.2470 C   0  0  0  0  0  0  0  0  0  0  0  0
  140.2350   71.3470  223.5860 C   0  0  0  0  0  0  0  0  0  0  0  0
  139.5540   70.1420  223.5390 C   0  0  0  0  0  0  0  0  0  0  0  0
  139.3400   69.5180  224.7630 C   0  0  0  0  0  0  0  0  0  0  0  0
  139.7750   70.0560  225.9540 C   0  0  0  0  0  0  0  0  0  0  0  0
  139.5790   69.4640  227.1790 C   0  0  0  0  0  0  0  0  0  0  0  0
  140.0460   70.0650  228.3480 C   0  0  0  0  0  0  0  0  0  0  0  0
  140.7140   71.2700  228.2860 C   0  0  0  0  0  0  0  0  0  0  0  0
  140.9220   71.8790  227.0800 C   0  0  0  0  0  0  0  0  0  0  0  0
  140.4490   71.2630  225.9380 C   0  0  0  0  0  0  0  0  0  0  0  0
  140.6550   71.8630  224.7530 N   0  0  0  0  0  0  0  0  0  0  0  0
  139.7420   73.8840  223.0520 H   0  0  0  0  0  0  0  0  0  0  0  0
  141.2585   73.8092  220.4458 H   0  0  0  0  0  0  0  0  0  0  0  0
  139.5119   74.1341  220.3231 H   0  0  0  0  0  0  0  0  0  0  0  0
  140.7224   78.2572  221.7618 H   0  0  0  0  0  0  0  0  0  0  0  0
  142.4037   78.2930  221.4185 H   0  0  0  0  0  0  0  0  0  0  0  0
  141.0467   79.6250  219.5176 H   0  0  0  0  0  0  0  0  0  0  0  0
  141.9166   77.7376  217.7301 H   0  0  0  0  0  0  0  0  0  0  0  0
  143.1601   78.2535  218.8402 H   0  0  0  0  0  0  0  0  0  0  0  0
  141.6984   75.6912  218.7043 H   0  0  0  0  0  0  0  0  0  0  0  0
  144.1150   75.9240  218.8821 H   0  0  0  0  0  0  0  0  0  0  0  0
  143.8379   76.4604  220.6231 H   0  0  0  0  0  0  0  0  0  0  0  0
  145.5562   74.2986  219.6768 H   0  0  0  0  0  0  0  0  0  0  0  0
  145.3379   74.7181  221.3565 H   0  0  0  0  0  0  0  0  0  0  0  0
  145.6933   72.1222  220.6152 H   0  0  0  0  0  0  0  0  0  0  0  0
  144.5642   72.4640  221.9155 H   0  0  0  0  0  0  0  0  0  0  0  0
  144.0023   71.4598  219.2356 H   0  0  0  0  0  0  0  0  0  0  0  0
  142.8305   71.7201  220.5187 H   0  0  0  0  0  0  0  0  0  0  0  0
  143.7589   73.6566  218.3175 H   0  0  0  0  0  0  0  0  0  0  0  0
  142.1370   73.4826  218.9391 H   0  0  0  0  0  0  0  0  0  0  0  0
  139.2040   69.7055  222.5919 H   0  0  0  0  0  0  0  0  0  0  0  0
  138.8029   68.5582  224.7808 H   0  0  0  0  0  0  0  0  0  0  0  0
  139.0466   68.5032  227.2383 H   0  0  0  0  0  0  0  0  0  0  0  0
  139.8813   69.5774  229.3202 H   0  0  0  0  0  0  0  0  0  0  0  0
  141.0804   71.7423  229.2094 H   0  0  0  0  0  0  0  0  0  0  0  0
  141.4549   72.8395  227.0204 H   0  0  0  0  0  0  0  0  0  0  0  0
  1  2  2  0
  2  3  1  0
  3  4  1  0
  4  5  1  0
  5  6  2  0
  5  7  1  0
  7  8  1  0
  8  9  1  0
  9 10  1  0
  9 11  1  0
 11 12  1  0
 12 13  1  0
 13 14  1  0
 14 15  1  0
 15 16  1  0
 16 17  1  0
 17 18  1  0
  2 19  1  0
 19 20  2  0
 20 21  1  0
 21 22  2  0
 22 23  1  0
 23 24  2  0
 24 25  1  0
 25 26  2  0
 26 27  1  0
 27 28  2  0
 12  7  1  0
 18 14  1  0
 28 19  1  0
 27 22  1  0
  3 29  1  0
  4 30  1  0
  4 31  1  0
  8 32  1  0
  8 33  1  0
  9 34  1  1
 11 35  1  0
 11 36  1  0
 12 37  1  6
 13 38  1  0
 13 39  1  0
 15 40  1  0
 15 41  1  0
 16 42  1  0
 16 43  1  0
 17 44  1  0
 17 45  1  0
 18 46  1  0
 18 47  1  0
 20 48  1  0
 21 49  1  0
 23 50  1  0
 24 51  1  0
 25 52  1  0
 26 53  1  0
M  END
>  <smiles>  (36) 
O=C(NCC(=O)N1C[C@H](F)C[C@H]1CN1CCCC1)c1ccc2ccccc2n1

>  <score_type>  (36) 
oracle

>  <origin>  (36) 
autodockgpu

>  <m_score__min__energy>  (36) 
-8.4100000000000001

>  <m_primary>  (36) 
energy

>  <rmsd>  (36) 
4.1989694516821015

>  <m_score__min__rmsd>  (36) 
4.1989694516821015

>  <meeko>  (36) 
{"free_energy": -7.77, "intermolecular_energy": -9.56, "internal_energy": -2.36, "cluster_size": 16, "cluster_id": 3, "rank_in_cluster": 6}

>  <energy>  (36) 
-7.83

>  <cluster_rmsd>  (36) 
0.05

>  <cluster>  (36) 
3

$$$$

     RDKit          3D

 53 56  0  0  0  0  0  0  0  0999 V2000
  137.1450   76.2410  222.3680 O   0  0  0  0  0  0  0  0  0  0  0  0
  138.4170   76.3630  222.4190 C   0  0  0  0  0  0  0  0  0  0  0  0
  139.2470   75.2530  222.1980 N   0  0  0  0  0  0  0  0  0  0  0  0
  138.7270   73.9100  221.9000 C   0  0  0  0  0  0  0  0  0  0  0  0
  139.8130   72.9520  222.1530 C   0  0  0  0  0  0  0  0  0  0  0  0
  141.0150   73.3460  222.0010 O   0  0  0  0  0  0  0  0  0  0  0  0
  139.6450   71.6080  222.5570 N   0  0  0  0  0  0  0  0  0  0  0  0
  139.8180   70.4530  221.6910 C   0  0  0  0  0  0  0  0  0  0  0  0
  138.4970   69.7390  222.0360 C   0  0  2  0  0  0  0  0  0  0  0  0
  137.4520   70.5840  221.7970 F   0  0  0  0  0  0  0  0  0  0  0  0
  138.6980   69.6850  223.5620 C   0  0  0  0  0  0  0  0  0  0  0  0
  139.2730   71.0530  223.8560 C   0  0  1  0  0  0  0  0  0  0  0  0
  140.4850   71.0240  224.7340 C   0  0  0  0  0  0  0  0  0  0  0  0
  140.2290   70.9010  226.1250 N   0  0  0  0  0  0  0  0  0  0  0  0
  141.0770   71.8740  226.8530 C   0  0  0  0  0  0  0  0  0  0  0  0
  140.8010   71.5180  228.2950 C   0  0  0  0  0  0  0  0  0  0  0  0
  140.5600   70.0410  228.2590 C   0  0  0  0  0  0  0  0  0  0  0  0
  140.6670   69.6850  226.7600 C   0  0  0  0  0  0  0  0  0  0  0  0
  139.0240   77.6720  222.7120 C   0  0  0  0  0  0  0  0  0  0  0  0
  138.1840   78.7510  222.9340 C   0  0  0  0  0  0  0  0  0  0  0  0
  138.8110   79.9620  223.2060 C   0  0  0  0  0  0  0  0  0  0  0  0
  140.1820   80.0910  223.2530 C   0  0  0  0  0  0  0  0  0  0  0  0
  140.8310   81.2730  223.5190 C   0  0  0  0  0  0  0  0  0  0  0  0
  142.2240   81.3340  223.5510 C   0  0  0  0  0  0  0  0  0  0  0  0
  142.9710   80.1990  223.3150 C   0  0  0  0  0  0  0  0  0  0  0  0
  142.3490   79.0110  223.0490 C   0  0  0  0  0  0  0  0  0  0  0  0
  140.9690   78.9780  223.0220 C   0  0  0  0  0  0  0  0  0  0  0  0
  140.3590   77.8090  222.7600 N   0  0  0  0  0  0  0  0  0  0  0  0
  140.2850   75.4000  222.2510 H   0  0  0  0  0  0  0  0  0  0  0  0
  137.8689   73.6861  222.5508 H   0  0  0  0  0  0  0  0  0  0  0  0
  138.3894   73.8473  220.8550 H   0  0  0  0  0  0  0  0  0  0  0  0
  139.8775   70.7320  220.6286 H   0  0  0  0  0  0  0  0  0  0  0  0
  140.7388   69.8693  221.8370 H   0  0  0  0  0  0  0  0  0  0  0  0
  138.2971   68.7972  221.5039 H   0  0  0  0  0  0  0  0  0  0  0  0
  137.7424   69.5329  224.0852 H   0  0  0  0  0  0  0  0  0  0  0  0
  139.3392   68.8553  223.8943 H   0  0  0  0  0  0  0  0  0  0  0  0
  138.5244   71.6479  224.3998 H   0  0  0  0  0  0  0  0  0  0  0  0
  141.1057   70.1694  224.4267 H   0  0  0  0  0  0  0  0  0  0  0  0
  140.9768   71.9991  224.6024 H   0  0  0  0  0  0  0  0  0  0  0  0
  142.1404   71.7405  226.6053 H   0  0  0  0  0  0  0  0  0  0  0  0
  140.8577   72.9234  226.6065 H   0  0  0  0  0  0  0  0  0  0  0  0
  141.6662   71.7584  228.9304 H   0  0  0  0  0  0  0  0  0  0  0  0
  139.9524   72.0771  228.7160 H   0  0  0  0  0  0  0  0  0  0  0  0
  141.3222   69.5055  228.8440 H   0  0  0  0  0  0  0  0  0  0  0  0
  139.5903   69.7581  228.6946 H   0  0  0  0  0  0  0  0  0  0  0  0
  141.7027   69.4405  226.4813 H   0  0  0  0  0  0  0  0  0  0  0  0
  140.0782   68.8011  226.4736 H   0  0  0  0  0  0  0  0  0  0  0  0
  137.0888   78.6557  222.8974 H   0  0  0  0  0  0  0  0  0  0  0  0
  138.1891   80.8504  223.3906 H   0  0  0  0  0  0  0  0  0  0  0  0
  140.2437   82.1834  223.7093 H   0  0  0  0  0  0  0  0  0  0  0  0
  142.7274   82.2884  223.7647 H   0  0  0  0  0  0  0  0  0  0  0  0
  144.0695   80.2497  223.3409 H   0  0  0  0  0  0  0  0  0  0  0  0
  142.9360   78.1000  222.8603 H   0  0  0  0  0  0  0  0  0  0  0  0
  1  2  2  0
  2  3  1  0
  3  4  1  0
  4  5  1  0
  5  6  2  0
  5  7  1  0
  7  8  1  0
  8  9  1  0
  9 10  1  0
  9 11  1  0
 11 12  1  0
 12 13  1  0
 13 14  1  0
 14 15  1  0
 15 16  1  0
 16 17  1  0
 17 18  1  0
  2 19  1  0
 19 20  2  0
 20 21  1  0
 21 22  2  0
 22 23  1  0
 23 24  2  0
 24 25  1  0
 25 26  2  0
 26 27  1  0
 27 28  2  0
 12  7  1  0
 18 14  1  0
 28 19  1  0
 27 22  1  0
  3 29  1  0
  4 30  1  0
  4 31  1  0
  8 32  1  0
  8 33  1  0
  9 34  1  6
 11 35  1  0
 11 36  1  0
 12 37  1  1
 13 38  1  0
 13 39  1  0
 15 40  1  0
 15 41  1  0
 16 42  1  0
 16 43  1  0
 17 44  1  0
 17 45  1  0
 18 46  1  0
 18 47  1  0
 20 48  1  0
 21 49  1  0
 23 50  1  0
 24 51  1  0
 25 52  1  0
 26 53  1  0
M  END
>  <smiles>  (37) 
O=C(NCC(=O)N1C[C@H](F)C[C@H]1CN1CCCC1)c1ccc2ccccc2n1

>  <score_type>  (37) 
oracle

>  <origin>  (37) 
autodockgpu

>  <m_score__min__energy>  (37) 
-8.4100000000000001

>  <m_primary>  (37) 
energy

>  <rmsd>  (37) 
9.19844994266005

>  <m_score__min__rmsd>  (37) 
9.19844994266005

>  <meeko>  (37) 
{"free_energy": -7.89, "intermolecular_energy": -9.68, "internal_energy": -2.05, "cluster_size": 4, "cluster_id": 2, "rank_in_cluster": 2}

>  <energy>  (37) 
-7.79

>  <cluster_rmsd>  (37) 
0.36

>  <cluster>  (37) 
3

$$$$

     RDKit          3D

 53 56  0  0  0  0  0  0  0  0999 V2000
  141.2920   71.4810  221.4620 O   0  0  0  0  0  0  0  0  0  0  0  0
  140.6460   72.0490  222.4070 C   0  0  0  0  0  0  0  0  0  0  0  0
  140.2400   73.3870  222.2860 N   0  0  0  0  0  0  0  0  0  0  0  0
  140.5190   74.2060  221.0970 C   0  0  0  0  0  0  0  0  0  0  0  0
  140.4560   75.6150  221.5090 C   0  0  0  0  0  0  0  0  0  0  0  0
  139.6810   75.9310  222.4700 O   0  0  0  0  0  0  0  0  0  0  0  0
  141.1890   76.6750  220.9270 N   0  0  0  0  0  0  0  0  0  0  0  0
  141.4220   77.9650  221.5540 C   0  0  0  0  0  0  0  0  0  0  0  0
  141.0000   78.8500  220.3650 C   0  0  2  0  0  0  0  0  0  0  0  0
  139.7290   78.5260  219.9900 F   0  0  0  0  0  0  0  0  0  0  0  0
  141.9510   78.2370  219.3190 C   0  0  0  0  0  0  0  0  0  0  0  0
  141.8550   76.7590  219.6300 C   0  0  1  0  0  0  0  0  0  0  0  0
  143.1820   76.0730  219.7230 C   0  0  0  0  0  0  0  0  0  0  0  0
  143.1320   74.6690  219.9260 N   0  0  0  0  0  0  0  0  0  0  0  0
  144.4200   74.2250  220.5060 C   0  0  0  0  0  0  0  0  0  0  0  0
  144.2610   72.7220  220.5190 C   0  0  0  0  0  0  0  0  0  0  0  0
  143.4120   72.4430  219.3190 C   0  0  0  0  0  0  0  0  0  0  0  0
  143.1080   73.8440  218.7450 C   0  0  0  0  0  0  0  0  0  0  0  0
  140.3230   71.3040  223.6350 C   0  0  0  0  0  0  0  0  0  0  0  0
  139.6150   70.1190  223.5170 C   0  0  0  0  0  0  0  0  0  0  0  0
  139.3380   69.4570  224.7080 C   0  0  0  0  0  0  0  0  0  0  0  0
  139.7370   69.9420  225.9350 C   0  0  0  0  0  0  0  0  0  0  0  0
  139.4780   69.3110  227.1280 C   0  0  0  0  0  0  0  0  0  0  0  0
  139.9120   69.8590  228.3360 C   0  0  0  0  0  0  0  0  0  0  0  0
  140.6110   71.0470  228.3440 C   0  0  0  0  0  0  0  0  0  0  0  0
  140.8820   71.6930  227.1710 C   0  0  0  0  0  0  0  0  0  0  0  0
  140.4400   71.1310  225.9890 C   0  0  0  0  0  0  0  0  0  0  0  0
  140.7080   71.7670  224.8350 N   0  0  0  0  0  0  0  0  0  0  0  0
  139.7120   73.8120  223.0880 H   0  0  0  0  0  0  0  0  0  0  0  0
  141.5206   73.9729  220.7065 H   0  0  0  0  0  0  0  0  0  0  0  0
  139.7858   74.0004  220.3032 H   0  0  0  0  0  0  0  0  0  0  0  0
  140.7862   78.1212  222.4379 H   0  0  0  0  0  0  0  0  0  0  0  0
  142.4327   78.1362  221.9529 H   0  0  0  0  0  0  0  0  0  0  0  0
  141.0366   79.9371  220.5288 H   0  0  0  0  0  0  0  0  0  0  0  0
  141.6108   78.4525  218.2954 H   0  0  0  0  0  0  0  0  0  0  0  0
  142.9760   78.6335  219.3669 H   0  0  0  0  0  0  0  0  0  0  0  0
  141.3145   76.2549  218.8152 H   0  0  0  0  0  0  0  0  0  0  0  0
  143.7267   76.2606  218.7860 H   0  0  0  0  0  0  0  0  0  0  0  0
  143.6750   76.4892  220.6139 H   0  0  0  0  0  0  0  0  0  0  0  0
  145.2681   74.5312  219.8760 H   0  0  0  0  0  0  0  0  0  0  0  0
  144.6313   74.6559  221.4958 H   0  0  0  0  0  0  0  0  0  0  0  0
  145.2379   72.2238  220.4324 H   0  0  0  0  0  0  0  0  0  0  0  0
  143.8141   72.3494  221.4525 H   0  0  0  0  0  0  0  0  0  0  0  0
  143.9585   71.8303  218.5869 H   0  0  0  0  0  0  0  0  0  0  0  0
  142.5005   71.8790  219.5662 H   0  0  0  0  0  0  0  0  0  0  0  0
  143.8790   74.1558  218.0250 H   0  0  0  0  0  0  0  0  0  0  0  0
  142.1605   73.8970  218.1887 H   0  0  0  0  0  0  0  0  0  0  0  0
  139.2920   69.7262  222.5416 H   0  0  0  0  0  0  0  0  0  0  0  0
  138.7792   68.5103  224.6695 H   0  0  0  0  0  0  0  0  0  0  0  0
  138.9216   68.3621  227.1309 H   0  0  0  0  0  0  0  0  0  0  0  0
  139.6960   69.3423  229.2828 H   0  0  0  0  0  0  0  0  0  0  0  0
  140.9517   71.4763  229.2977 H   0  0  0  0  0  0  0  0  0  0  0  0
  141.4404   72.6407  227.1679 H   0  0  0  0  0  0  0  0  0  0  0  0
  1  2  2  0
  2  3  1  0
  3  4  1  0
  4  5  1  0
  5  6  2  0
  5  7  1  0
  7  8  1  0
  8  9  1  0
  9 10  1  0
  9 11  1  0
 11 12  1  0
 12 13  1  0
 13 14  1  0
 14 15  1  0
 15 16  1  0
 16 17  1  0
 17 18  1  0
  2 19  1  0
 19 20  2  0
 20 21  1  0
 21 22  2  0
 22 23  1  0
 23 24  2  0
 24 25  1  0
 25 26  2  0
 26 27  1  0
 27 28  2  0
 12  7  1  0
 18 14  1  0
 28 19  1  0
 27 22  1  0
  3 29  1  0
  4 30  1  0
  4 31  1  0
  8 32  1  0
  8 33  1  0
  9 34  1  1
 11 35  1  0
 11 36  1  0
 12 37  1  6
 13 38  1  0
 13 39  1  0
 15 40  1  0
 15 41  1  0
 16 42  1  0
 16 43  1  0
 17 44  1  0
 17 45  1  0
 18 46  1  0
 18 47  1  0
 20 48  1  0
 21 49  1  0
 23 50  1  0
 24 51  1  0
 25 52  1  0
 26 53  1  0
M  END
>  <smiles>  (38) 
O=C(NCC(=O)N1C[C@H](F)C[C@H]1CN1CCCC1)c1ccc2ccccc2n1

>  <score_type>  (38) 
oracle

>  <origin>  (38) 
autodockgpu

>  <m_score__min__energy>  (38) 
-8.4100000000000001

>  <m_primary>  (38) 
energy

>  <rmsd>  (38) 
4.163766480290523

>  <m_score__min__rmsd>  (38) 
4.163766480290523

>  <meeko>  (38) 
{"free_energy": -7.54, "intermolecular_energy": -9.33, "internal_energy": -2.27, "cluster_size": 16, "cluster_id": 3, "rank_in_cluster": 13}

>  <energy>  (38) 
-7.78

>  <cluster_rmsd>  (38) 
0.11

>  <cluster>  (38) 
3

$$$$

     RDKit          3D

 53 56  0  0  0  0  0  0  0  0999 V2000
  140.6800   71.4830  221.2760 O   0  0  0  0  0  0  0  0  0  0  0  0
  140.2680   72.0820  222.3280 C   0  0  0  0  0  0  0  0  0  0  0  0
  139.9140   73.4390  222.2810 N   0  0  0  0  0  0  0  0  0  0  0  0
  139.9890   74.2450  221.0530 C   0  0  0  0  0  0  0  0  0  0  0  0
  140.3270   75.6190  221.4500 C   0  0  0  0  0  0  0  0  0  0  0  0
  140.2450   75.9310  222.6830 O   0  0  0  0  0  0  0  0  0  0  0  0
  140.7420   76.6490  220.5750 N   0  0  0  0  0  0  0  0  0  0  0  0
  140.4690   76.6860  219.1480 C   0  0  0  0  0  0  0  0  0  0  0  0
  141.9040   76.9850  218.6720 C   0  0  2  0  0  0  0  0  0  0  0  0
  142.7470   76.0250  219.1510 F   0  0  0  0  0  0  0  0  0  0  0  0
  142.1300   78.2510  219.5200 C   0  0  0  0  0  0  0  0  0  0  0  0
  141.5100   77.8620  220.8450 C   0  0  1  0  0  0  0  0  0  0  0  0
  140.5910   78.8990  221.4100 C   0  0  0  0  0  0  0  0  0  0  0  0
  141.0940   79.6160  222.5280 N   0  0  0  0  0  0  0  0  0  0  0  0
  141.1710   81.0530  222.1760 C   0  0  0  0  0  0  0  0  0  0  0  0
  141.8500   81.6410  223.3910 C   0  0  0  0  0  0  0  0  0  0  0  0
  142.7580   80.5470  223.8570 C   0  0  0  0  0  0  0  0  0  0  0  0
  142.4710   79.3850  222.8800 C   0  0  0  0  0  0  0  0  0  0  0  0
  140.1610   71.3510  223.6020 C   0  0  0  0  0  0  0  0  0  0  0  0
  139.5710   70.0980  223.5930 C   0  0  0  0  0  0  0  0  0  0  0  0
  139.4980   69.4540  224.8230 C   0  0  0  0  0  0  0  0  0  0  0  0
  139.9780   70.0180  225.9840 C   0  0  0  0  0  0  0  0  0  0  0  0
  139.9210   69.4070  227.2140 C   0  0  0  0  0  0  0  0  0  0  0  0
  140.4280   70.0360  228.3510 C   0  0  0  0  0  0  0  0  0  0  0  0
  140.9970   71.2880  228.2520 C   0  0  0  0  0  0  0  0  0  0  0  0
  141.0670   71.9170  227.0410 C   0  0  0  0  0  0  0  0  0  0  0  0
  140.5570   71.2720  225.9300 C   0  0  0  0  0  0  0  0  0  0  0  0
  140.6270   71.8920  224.7390 N   0  0  0  0  0  0  0  0  0  0  0  0
  139.5810   73.8890  223.1690 H   0  0  0  0  0  0  0  0  0  0  0  0
  140.7669   73.8439  220.3867 H   0  0  0  0  0  0  0  0  0  0  0  0
  139.0309   74.2209  220.5131 H   0  0  0  0  0  0  0  0  0  0  0  0
  140.0947   75.7236  218.7688 H   0  0  0  0  0  0  0  0  0  0  0  0
  139.6913   77.3914  218.8201 H   0  0  0  0  0  0  0  0  0  0  0  0
  142.0537   77.0531  217.5844 H   0  0  0  0  0  0  0  0  0  0  0  0
  143.2021   78.4711  219.6305 H   0  0  0  0  0  0  0  0  0  0  0  0
  141.6967   79.1611  219.0796 H   0  0  0  0  0  0  0  0  0  0  0  0
  142.3079   77.7313  221.5908 H   0  0  0  0  0  0  0  0  0  0  0  0
  140.3682   79.6247  220.6140 H   0  0  0  0  0  0  0  0  0  0  0  0
  139.7067   78.3544  221.7727 H   0  0  0  0  0  0  0  0  0  0  0  0
  141.7717   81.2099  221.2679 H   0  0  0  0  0  0  0  0  0  0  0  0
  140.1942   81.5066  221.9521 H   0  0  0  0  0  0  0  0  0  0  0  0
  142.4249   82.5395  223.1222 H   0  0  0  0  0  0  0  0  0  0  0  0
  141.1360   81.9597  224.1647 H   0  0  0  0  0  0  0  0  0  0  0  0
  143.8109   80.8593  223.7953 H   0  0  0  0  0  0  0  0  0  0  0  0
  142.5851   80.2706  224.9076 H   0  0  0  0  0  0  0  0  0  0  0  0
  143.1229   79.4375  221.9955 H   0  0  0  0  0  0  0  0  0  0  0  0
  142.6554   78.3900  223.3113 H   0  0  0  0  0  0  0  0  0  0  0  0
  139.1843   69.6409  222.6702 H   0  0  0  0  0  0  0  0  0  0  0  0
  139.0391   68.4554  224.8706 H   0  0  0  0  0  0  0  0  0  0  0  0
  139.4692   68.4080  227.3029 H   0  0  0  0  0  0  0  0  0  0  0  0
  140.3738   69.5327  229.3276 H   0  0  0  0  0  0  0  0  0  0  0  0
  141.3957   71.7819  229.1504 H   0  0  0  0  0  0  0  0  0  0  0  0
  141.5197   72.9156  226.9522 H   0  0  0  0  0  0  0  0  0  0  0  0
  1  2  2  0
  2  3  1  0
  3  4  1  0
  4  5  1  0
  5  6  2  0
  5  7  1  0
  7  8  1  0
  8  9  1  0
  9 10  1  0
  9 11  1  0
 11 12  1  0
 12 13  1  0
 13 14  1  0
 14 15  1  0
 15 16  1  0
 16 17  1  0
 17 18  1  0
  2 19  1  0
 19 20  2  0
 20 21  1  0
 21 22  2  0
 22 23  1  0
 23 24  2  0
 24 25  1  0
 25 26  2  0
 26 27  1  0
 27 28  2  0
 12  7  1  0
 18 14  1  0
 28 19  1  0
 27 22  1  0
  3 29  1  0
  4 30  1  0
  4 31  1  0
  8 32  1  0
  8 33  1  0
  9 34  1  6
 11 35  1  0
 11 36  1  0
 12 37  1  1
 13 38  1  0
 13 39  1  0
 15 40  1  0
 15 41  1  0
 16 42  1  0
 16 43  1  0
 17 44  1  0
 17 45  1  0
 18 46  1  0
 18 47  1  0
 20 48  1  0
 21 49  1  0
 23 50  1  0
 24 51  1  0
 25 52  1  0
 26 53  1  0
M  END
>  <smiles>  (39) 
O=C(NCC(=O)N1C[C@H](F)C[C@H]1CN1CCCC1)c1ccc2ccccc2n1

>  <score_type>  (39) 
oracle

>  <origin>  (39) 
autodockgpu

>  <m_score__min__energy>  (39) 
-8.4100000000000001

>  <m_primary>  (39) 
energy

>  <rmsd>  (39) 
2.1589554889907

>  <m_score__min__rmsd>  (39) 
2.1589554889907

>  <meeko>  (39) 
{"free_energy": -8.33, "intermolecular_energy": -10.12, "internal_energy": -1.91, "cluster_size": 30, "cluster_id": 1, "rank_in_cluster": 4}

>  <energy>  (39) 
-7.78

>  <cluster_rmsd>  (39) 
0.16

>  <cluster>  (39) 
3

$$$$

     RDKit          3D

 53 56  0  0  0  0  0  0  0  0999 V2000
  137.1040   76.2880  222.4590 O   0  0  0  0  0  0  0  0  0  0  0  0
  138.3780   76.3980  222.4620 C   0  0  0  0  0  0  0  0  0  0  0  0
  139.1890   75.2820  222.2020 N   0  0  0  0  0  0  0  0  0  0  0  0
  138.6450   73.9460  221.9130 C   0  0  0  0  0  0  0  0  0  0  0  0
  139.6840   72.9660  222.2610 C   0  0  0  0  0  0  0  0  0  0  0  0
  140.8930   73.3620  222.3290 O   0  0  0  0  0  0  0  0  0  0  0  0
  139.4630   71.5960  222.5330 N   0  0  0  0  0  0  0  0  0  0  0  0
  139.5760   70.5270  221.5540 C   0  0  0  0  0  0  0  0  0  0  0  0
  138.2280   69.8380  221.8470 C   0  0  2  0  0  0  0  0  0  0  0  0
  137.2190   70.7460  221.7100 F   0  0  0  0  0  0  0  0  0  0  0  0
  138.4430   69.6240  223.3580 C   0  0  0  0  0  0  0  0  0  0  0  0
  139.0810   70.9320  223.7760 C   0  0  1  0  0  0  0  0  0  0  0  0
  140.3000   70.7640  224.6280 C   0  0  0  0  0  0  0  0  0  0  0  0
  140.1190   71.0260  226.0120 N   0  0  0  0  0  0  0  0  0  0  0  0
  141.2900   71.7850  226.5100 C   0  0  0  0  0  0  0  0  0  0  0  0
  141.0170   71.8500  227.9950 C   0  0  0  0  0  0  0  0  0  0  0  0
  140.3030   70.5670  228.2830 C   0  0  0  0  0  0  0  0  0  0  0  0
  140.1780   69.8930  226.9000 C   0  0  0  0  0  0  0  0  0  0  0  0
  139.0070   77.6990  222.7410 C   0  0  0  0  0  0  0  0  0  0  0  0
  138.1860   78.7870  222.9870 C   0  0  0  0  0  0  0  0  0  0  0  0
  138.8330   79.9900  223.2440 C   0  0  0  0  0  0  0  0  0  0  0  0
  140.2060   80.1040  223.2570 C   0  0  0  0  0  0  0  0  0  0  0  0
  140.8750   81.2770  223.5080 C   0  0  0  0  0  0  0  0  0  0  0  0
  142.2700   81.3220  223.5060 C   0  0  0  0  0  0  0  0  0  0  0  0
  142.9970   80.1790  223.2490 C   0  0  0  0  0  0  0  0  0  0  0  0
  142.3550   78.9990  222.9970 C   0  0  0  0  0  0  0  0  0  0  0  0
  140.9740   78.9820  223.0050 C   0  0  0  0  0  0  0  0  0  0  0  0
  140.3440   77.8200  222.7570 N   0  0  0  0  0  0  0  0  0  0  0  0
  140.2290   75.4200  222.2160 H   0  0  0  0  0  0  0  0  0  0  0  0
  137.7427   73.7683  222.5166 H   0  0  0  0  0  0  0  0  0  0  0  0
  138.3680   73.8596  220.8519 H   0  0  0  0  0  0  0  0  0  0  0  0
  139.6358   70.9079  220.5238 H   0  0  0  0  0  0  0  0  0  0  0  0
  140.4722   69.8933  221.6271 H   0  0  0  0  0  0  0  0  0  0  0  0
  137.9817   68.9633  221.2271 H   0  0  0  0  0  0  0  0  0  0  0  0
  137.4875   69.4616  223.8782 H   0  0  0  0  0  0  0  0  0  0  0  0
  139.0504   68.7388  223.5976 H   0  0  0  0  0  0  0  0  0  0  0  0
  138.3651   71.5021  224.3863 H   0  0  0  0  0  0  0  0  0  0  0  0
  140.6471   69.7256  224.5222 H   0  0  0  0  0  0  0  0  0  0  0  0
  141.0236   71.5117  224.2710 H   0  0  0  0  0  0  0  0  0  0  0  0
  142.2295   71.2529  226.2997 H   0  0  0  0  0  0  0  0  0  0  0  0
  141.4110   72.7715  226.0387 H   0  0  0  0  0  0  0  0  0  0  0  0
  141.9565   71.9119  228.5638 H   0  0  0  0  0  0  0  0  0  0  0  0
  140.4317   72.7362  228.2816 H   0  0  0  0  0  0  0  0  0  0  0  0
  140.8875   69.9401  228.9725 H   0  0  0  0  0  0  0  0  0  0  0  0
  139.3283   70.7237  228.7682 H   0  0  0  0  0  0  0  0  0  0  0  0
  141.0527   69.2620  226.6836 H   0  0  0  0  0  0  0  0  0  0  0  0
  139.3123   69.2198  226.8141 H   0  0  0  0  0  0  0  0  0  0  0  0
  137.0892   78.7041  222.9794 H   0  0  0  0  0  0  0  0  0  0  0  0
  138.2258   80.8850  223.4446 H   0  0  0  0  0  0  0  0  0  0  0  0
  140.3032   82.1940  223.7135 H   0  0  0  0  0  0  0  0  0  0  0  0
  142.7897   82.2699  223.7096 H   0  0  0  0  0  0  0  0  0  0  0  0
  144.0963   80.2169  223.2468 H   0  0  0  0  0  0  0  0  0  0  0  0
  142.9265   78.0817  222.7920 H   0  0  0  0  0  0  0  0  0  0  0  0
  1  2  2  0
  2  3  1  0
  3  4  1  0
  4  5  1  0
  5  6  2  0
  5  7  1  0
  7  8  1  0
  8  9  1  0
  9 10  1  0
  9 11  1  0
 11 12  1  0
 12 13  1  0
 13 14  1  0
 14 15  1  0
 15 16  1  0
 16 17  1  0
 17 18  1  0
  2 19  1  0
 19 20  2  0
 20 21  1  0
 21 22  2  0
 22 23  1  0
 23 24  2  0
 24 25  1  0
 25 26  2  0
 26 27  1  0
 27 28  2  0
 12  7  1  0
 18 14  1  0
 28 19  1  0
 27 22  1  0
  3 29  1  0
  4 30  1  0
  4 31  1  0
  8 32  1  0
  8 33  1  0
  9 34  1  6
 11 35  1  0
 11 36  1  0
 12 37  1  1
 13 38  1  0
 13 39  1  0
 15 40  1  0
 15 41  1  0
 16 42  1  0
 16 43  1  0
 17 44  1  0
 17 45  1  0
 18 46  1  0
 18 47  1  0
 20 48  1  0
 21 49  1  0
 23 50  1  0
 24 51  1  0
 25 52  1  0
 26 53  1  0
M  END
>  <smiles>  (40) 
O=C(NCC(=O)N1C[C@H](F)C[C@H]1CN1CCCC1)c1ccc2ccccc2n1

>  <score_type>  (40) 
oracle

>  <origin>  (40) 
autodockgpu

>  <m_score__min__energy>  (40) 
-8.4100000000000001

>  <m_primary>  (40) 
energy

>  <rmsd>  (40) 
9.17319208122981

>  <m_score__min__rmsd>  (40) 
9.17319208122981

>  <meeko>  (40) 
{"free_energy": -7.86, "intermolecular_energy": -9.65, "internal_energy": -2.08, "cluster_size": 4, "cluster_id": 2, "rank_in_cluster": 4}

>  <energy>  (40) 
-7.77

>  <cluster_rmsd>  (40) 
0.09

>  <cluster>  (40) 
3

$$$$

     RDKit          3D

 53 56  0  0  0  0  0  0  0  0999 V2000
  140.7790   71.2990  221.2130 O   0  0  0  0  0  0  0  0  0  0  0  0
  140.3840   71.9680  222.2290 C   0  0  0  0  0  0  0  0  0  0  0  0
  140.1190   73.3420  222.1160 N   0  0  0  0  0  0  0  0  0  0  0  0
  140.2710   74.0870  220.8570 C   0  0  0  0  0  0  0  0  0  0  0  0
  140.7670   75.4280  221.1980 C   0  0  0  0  0  0  0  0  0  0  0  0
  140.6260   75.8390  222.3970 O   0  0  0  0  0  0  0  0  0  0  0  0
  141.3980   76.3230  220.3040 N   0  0  0  0  0  0  0  0  0  0  0  0
  141.2360   77.7680  220.3230 C   0  0  0  0  0  0  0  0  0  0  0  0
  140.9320   77.9590  218.8240 C   0  0  2  0  0  0  0  0  0  0  0  0
  139.8620   77.1860  218.4780 F   0  0  0  0  0  0  0  0  0  0  0  0
  142.1930   77.2600  218.2800 C   0  0  0  0  0  0  0  0  0  0  0  0
  142.3100   76.0600  219.1950 C   0  0  1  0  0  0  0  0  0  0  0  0
  143.6880   75.8490  219.7410 C   0  0  0  0  0  0  0  0  0  0  0  0
  144.1470   74.5060  219.7400 N   0  0  0  0  0  0  0  0  0  0  0  0
  143.5440   73.7980  218.5870 C   0  0  0  0  0  0  0  0  0  0  0  0
  144.0030   72.3760  218.8110 C   0  0  0  0  0  0  0  0  0  0  0  0
  144.0630   72.2520  220.3020 C   0  0  0  0  0  0  0  0  0  0  0  0
  143.6780   73.6590  220.8070 C   0  0  0  0  0  0  0  0  0  0  0  0
  140.2040   71.3020  223.5290 C   0  0  0  0  0  0  0  0  0  0  0  0
  139.5350   70.0890  223.5590 C   0  0  0  0  0  0  0  0  0  0  0  0
  139.3940   69.5050  224.8130 C   0  0  0  0  0  0  0  0  0  0  0  0
  139.8860   70.0880  225.9600 C   0  0  0  0  0  0  0  0  0  0  0  0
  139.7630   69.5360  227.2130 C   0  0  0  0  0  0  0  0  0  0  0  0
  140.2850   70.1810  228.3340 C   0  0  0  0  0  0  0  0  0  0  0  0
  140.9350   71.3890  228.1960 C   0  0  0  0  0  0  0  0  0  0  0  0
  141.0710   71.9590  226.9610 C   0  0  0  0  0  0  0  0  0  0  0  0
  140.5450   71.3000  225.8670 C   0  0  0  0  0  0  0  0  0  0  0  0
  140.6800   71.8610  224.6530 N   0  0  0  0  0  0  0  0  0  0  0  0
  139.7970   73.8500  222.9760 H   0  0  0  0  0  0  0  0  0  0  0  0
  140.9910   73.5751  220.2016 H   0  0  0  0  0  0  0  0  0  0  0  0
  139.3104   74.1514  220.3250 H   0  0  0  0  0  0  0  0  0  0  0  0
  140.4003   78.0868  220.9632 H   0  0  0  0  0  0  0  0  0  0  0  0
  142.0801   78.3469  220.7258 H   0  0  0  0  0  0  0  0  0  0  0  0
  140.7239   78.9878  218.4949 H   0  0  0  0  0  0  0  0  0  0  0  0
  142.0583   76.9519  217.2327 H   0  0  0  0  0  0  0  0  0  0  0  0
  143.0868   77.9011  218.2744 H   0  0  0  0  0  0  0  0  0  0  0  0
  142.0711   75.1494  218.6261 H   0  0  0  0  0  0  0  0  0  0  0  0
  144.3869   76.4464  219.1371 H   0  0  0  0  0  0  0  0  0  0  0  0
  143.6437   76.1520  220.7975 H   0  0  0  0  0  0  0  0  0  0  0  0
  142.4465   73.8703  218.6040 H   0  0  0  0  0  0  0  0  0  0  0  0
  143.8411   74.2097  217.6112 H   0  0  0  0  0  0  0  0  0  0  0  0
  143.2835   71.6603  218.3867 H   0  0  0  0  0  0  0  0  0  0  0  0
  144.9662   72.1581  218.3264 H   0  0  0  0  0  0  0  0  0  0  0  0
  143.3473   71.4978  220.6612 H   0  0  0  0  0  0  0  0  0  0  0  0
  145.0507   71.9277  220.6614 H   0  0  0  0  0  0  0  0  0  0  0  0
  142.5899   73.7508  220.9398 H   0  0  0  0  0  0  0  0  0  0  0  0
  144.1074   73.9079  221.7887 H   0  0  0  0  0  0  0  0  0  0  0  0
  139.1399   69.6172  222.6472 H   0  0  0  0  0  0  0  0  0  0  0  0
  138.8698   68.5412  224.8921 H   0  0  0  0  0  0  0  0  0  0  0  0
  139.2459   68.5726  227.3331 H   0  0  0  0  0  0  0  0  0  0  0  0
  140.1780   69.7254  229.3295 H   0  0  0  0  0  0  0  0  0  0  0  0
  141.3453   71.8955  229.0821 H   0  0  0  0  0  0  0  0  0  0  0  0
  141.5885   72.9222  226.8410 H   0  0  0  0  0  0  0  0  0  0  0  0
  1  2  2  0
  2  3  1  0
  3  4  1  0
  4  5  1  0
  5  6  2  0
  5  7  1  0
  7  8  1  0
  8  9  1  0
  9 10  1  0
  9 11  1  0
 11 12  1  0
 12 13  1  0
 13 14  1  0
 14 15  1  0
 15 16  1  0
 16 17  1  0
 17 18  1  0
  2 19  1  0
 19 20  2  0
 20 21  1  0
 21 22  2  0
 22 23  1  0
 23 24  2  0
 24 25  1  0
 25 26  2  0
 26 27  1  0
 27 28  2  0
 12  7  1  0
 18 14  1  0
 28 19  1  0
 27 22  1  0
  3 29  1  0
  4 30  1  0
  4 31  1  0
  8 32  1  0
  8 33  1  0
  9 34  1  1
 11 35  1  0
 11 36  1  0
 12 37  1  6
 13 38  1  0
 13 39  1  0
 15 40  1  0
 15 41  1  0
 16 42  1  0
 16 43  1  0
 17 44  1  0
 17 45  1  0
 18 46  1  0
 18 47  1  0
 20 48  1  0
 21 49  1  0
 23 50  1  0
 24 51  1  0
 25 52  1  0
 26 53  1  0
M  END
>  <smiles>  (41) 
O=C(NCC(=O)N1C[C@H](F)C[C@H]1CN1CCCC1)c1ccc2ccccc2n1

>  <score_type>  (41) 
oracle

>  <origin>  (41) 
autodockgpu

>  <m_score__min__energy>  (41) 
-8.4100000000000001

>  <m_primary>  (41) 
energy

>  <rmsd>  (41) 
4.111061722581325

>  <m_score__min__rmsd>  (41) 
4.111061722581325

>  <meeko>  (41) 
{"free_energy": -7.13, "intermolecular_energy": -8.92, "internal_energy": -2.4, "cluster_size": 16, "cluster_id": 3, "rank_in_cluster": 16}

>  <energy>  (41) 
-7.75

>  <cluster_rmsd>  (41) 
0.65

>  <cluster>  (41) 
3

$$$$

     RDKit          3D

 53 56  0  0  0  0  0  0  0  0999 V2000
  139.6110   71.2170  221.1370 O   0  0  0  0  0  0  0  0  0  0  0  0
  139.7340   71.8650  222.2320 C   0  0  0  0  0  0  0  0  0  0  0  0
  139.8170   73.2660  222.2230 N   0  0  0  0  0  0  0  0  0  0  0  0
  139.7660   74.0650  220.9890 C   0  0  0  0  0  0  0  0  0  0  0  0
  140.6710   75.2090  221.1700 C   0  0  0  0  0  0  0  0  0  0  0  0
  141.0970   75.4650  222.3430 O   0  0  0  0  0  0  0  0  0  0  0  0
  141.1220   76.0700  220.1430 N   0  0  0  0  0  0  0  0  0  0  0  0
  140.9800   75.8110  218.7200 C   0  0  0  0  0  0  0  0  0  0  0  0
  142.4390   76.0960  218.3130 C   0  0  2  0  0  0  0  0  0  0  0  0
  143.2740   75.3000  219.0420 F   0  0  0  0  0  0  0  0  0  0  0  0
  142.5320   77.5150  218.9060 C   0  0  0  0  0  0  0  0  0  0  0  0
  141.8090   77.3560  220.2260 C   0  0  1  0  0  0  0  0  0  0  0  0
  140.8000   78.4270  220.4950 C   0  0  0  0  0  0  0  0  0  0  0  0
  140.9540   79.1170  221.7260 N   0  0  0  0  0  0  0  0  0  0  0  0
  142.1430   79.9970  221.6330 C   0  0  0  0  0  0  0  0  0  0  0  0
  142.2520   80.5330  223.0420 C   0  0  0  0  0  0  0  0  0  0  0  0
  141.7490   79.4080  223.8910 C   0  0  0  0  0  0  0  0  0  0  0  0
  141.3360   78.3270  222.8690 C   0  0  0  0  0  0  0  0  0  0  0  0
  139.7930   71.1460  223.5150 C   0  0  0  0  0  0  0  0  0  0  0  0
  139.2910   69.8560  223.5690 C   0  0  0  0  0  0  0  0  0  0  0  0
  139.3720   69.2240  224.8050 C   0  0  0  0  0  0  0  0  0  0  0  0
  139.9160   69.8350  225.9140 C   0  0  0  0  0  0  0  0  0  0  0  0
  140.0110   69.2370  227.1470 C   0  0  0  0  0  0  0  0  0  0  0  0
  140.5740   69.9140  228.2290 C   0  0  0  0  0  0  0  0  0  0  0  0
  141.0460   71.2000  228.0710 C   0  0  0  0  0  0  0  0  0  0  0  0
  140.9640   71.8160  226.8530 C   0  0  0  0  0  0  0  0  0  0  0  0
  140.4020   71.1240  225.7980 C   0  0  0  0  0  0  0  0  0  0  0  0
  140.3220   71.7320  224.6010 N   0  0  0  0  0  0  0  0  0  0  0  0
  139.9180   73.7560  223.1460 H   0  0  0  0  0  0  0  0  0  0  0  0
  140.0947   73.4570  220.1333 H   0  0  0  0  0  0  0  0  0  0  0  0
  138.7401   74.4083  220.7900 H   0  0  0  0  0  0  0  0  0  0  0  0
  140.6830   74.7725  218.5116 H   0  0  0  0  0  0  0  0  0  0  0  0
  140.2067   76.3911  218.1951 H   0  0  0  0  0  0  0  0  0  0  0  0
  142.6855   75.9587  217.2498 H   0  0  0  0  0  0  0  0  0  0  0  0
  143.5790   77.8162  219.0581 H   0  0  0  0  0  0  0  0  0  0  0  0
  142.1036   78.2940  218.2582 H   0  0  0  0  0  0  0  0  0  0  0  0
  142.5393   77.4212  221.0460 H   0  0  0  0  0  0  0  0  0  0  0  0
  140.8649   79.1654  219.6823 H   0  0  0  0  0  0  0  0  0  0  0  0
  139.8272   77.9170  220.5545 H   0  0  0  0  0  0  0  0  0  0  0  0
  143.0407   79.4267  221.3523 H   0  0  0  0  0  0  0  0  0  0  0  0
  142.0539   80.7814  220.8670 H   0  0  0  0  0  0  0  0  0  0  0  0
  143.2961   80.7746  223.2898 H   0  0  0  0  0  0  0  0  0  0  0  0
  141.6842   81.4637  223.1885 H   0  0  0  0  0  0  0  0  0  0  0  0
  142.5417   79.0351  224.5562 H   0  0  0  0  0  0  0  0  0  0  0  0
  140.9195   79.7101  224.5473 H   0  0  0  0  0  0  0  0  0  0  0  0
  142.1787   77.6617  222.6300 H   0  0  0  0  0  0  0  0  0  0  0  0
  140.5394   77.6600  223.2302 H   0  0  0  0  0  0  0  0  0  0  0  0
  138.8551   69.3619  222.6882 H   0  0  0  0  0  0  0  0  0  0  0  0
  138.9874   68.1979  224.9011 H   0  0  0  0  0  0  0  0  0  0  0  0
  139.6383   68.2110  227.2829 H   0  0  0  0  0  0  0  0  0  0  0  0
  140.6416   69.4211  229.2101 H   0  0  0  0  0  0  0  0  0  0  0  0
  141.4892   71.7312  228.9262 H   0  0  0  0  0  0  0  0  0  0  0  0
  141.3379   72.8414  226.7162 H   0  0  0  0  0  0  0  0  0  0  0  0
  1  2  2  0
  2  3  1  0
  3  4  1  0
  4  5  1  0
  5  6  2  0
  5  7  1  0
  7  8  1  0
  8  9  1  0
  9 10  1  0
  9 11  1  0
 11 12  1  0
 12 13  1  0
 13 14  1  0
 14 15  1  0
 15 16  1  0
 16 17  1  0
 17 18  1  0
  2 19  1  0
 19 20  2  0
 20 21  1  0
 21 22  2  0
 22 23  1  0
 23 24  2  0
 24 25  1  0
 25 26  2  0
 26 27  1  0
 27 28  2  0
 12  7  1  0
 18 14  1  0
 28 19  1  0
 27 22  1  0
  3 29  1  0
  4 30  1  0
  4 31  1  0
  8 32  1  0
  8 33  1  0
  9 34  1  6
 11 35  1  0
 11 36  1  0
 12 37  1  1
 13 38  1  0
 13 39  1  0
 15 40  1  0
 15 41  1  0
 16 42  1  0
 16 43  1  0
 17 44  1  0
 17 45  1  0
 18 46  1  0
 18 47  1  0
 20 48  1  0
 21 49  1  0
 23 50  1  0
 24 51  1  0
 25 52  1  0
 26 53  1  0
M  END
>  <smiles>  (42) 
O=C(NCC(=O)N1C[C@H](F)C[C@H]1CN1CCCC1)c1ccc2ccccc2n1

>  <score_type>  (42) 
oracle

>  <origin>  (42) 
autodockgpu

>  <m_score__min__energy>  (42) 
-8.4100000000000001

>  <m_primary>  (42) 
energy

>  <rmsd>  (42) 
2.1240851282186464

>  <m_score__min__rmsd>  (42) 
2.1240851282186464

>  <meeko>  (42) 
{"free_energy": -7.96, "intermolecular_energy": -9.75, "internal_energy": -2.1, "cluster_size": 30, "cluster_id": 1, "rank_in_cluster": 28}

>  <energy>  (42) 
-7.68

>  <cluster_rmsd>  (42) 
0.17

>  <cluster>  (42) 
3

$$$$

     RDKit          3D

 53 56  0  0  0  0  0  0  0  0999 V2000
  141.3650   71.5220  221.4710 O   0  0  0  0  0  0  0  0  0  0  0  0
  140.6830   72.0610  222.4090 C   0  0  0  0  0  0  0  0  0  0  0  0
  140.2310   73.3840  222.2900 N   0  0  0  0  0  0  0  0  0  0  0  0
  140.5000   74.2200  221.1100 C   0  0  0  0  0  0  0  0  0  0  0  0
  140.3960   75.6240  221.5340 C   0  0  0  0  0  0  0  0  0  0  0  0
  139.5990   75.9120  222.4860 O   0  0  0  0  0  0  0  0  0  0  0  0
  141.1120   76.7060  220.9730 N   0  0  0  0  0  0  0  0  0  0  0  0
  141.3370   77.9830  221.6320 C   0  0  0  0  0  0  0  0  0  0  0  0
  140.8950   78.8930  220.4700 C   0  0  2  0  0  0  0  0  0  0  0  0
  139.6230   78.5650  220.0990 F   0  0  0  0  0  0  0  0  0  0  0  0
  141.8420   78.3180  219.4000 C   0  0  0  0  0  0  0  0  0  0  0  0
  141.7650   76.8320  219.6730 C   0  0  1  0  0  0  0  0  0  0  0  0
  143.1000   76.1580  219.7360 C   0  0  0  0  0  0  0  0  0  0  0  0
  143.0660   74.7520  219.9320 N   0  0  0  0  0  0  0  0  0  0  0  0
  144.3820   74.3130  220.4520 C   0  0  0  0  0  0  0  0  0  0  0  0
  144.2330   72.8090  220.4640 C   0  0  0  0  0  0  0  0  0  0  0  0
  143.3340   72.5320  219.3000 C   0  0  0  0  0  0  0  0  0  0  0  0
  142.9960   73.9340  218.7480 C   0  0  0  0  0  0  0  0  0  0  0  0
  140.3670   71.2960  223.6270 C   0  0  0  0  0  0  0  0  0  0  0  0
  139.6510   70.1180  223.4950 C   0  0  0  0  0  0  0  0  0  0  0  0
  139.3810   69.4370  224.6770 C   0  0  0  0  0  0  0  0  0  0  0  0
  139.7950   69.8970  225.9080 C   0  0  0  0  0  0  0  0  0  0  0  0
  139.5450   69.2480  227.0920 C   0  0  0  0  0  0  0  0  0  0  0  0
  139.9950   69.7710  228.3050 C   0  0  0  0  0  0  0  0  0  0  0  0
  140.7010   70.9540  228.3270 C   0  0  0  0  0  0  0  0  0  0  0  0
  140.9650   71.6190  227.1630 C   0  0  0  0  0  0  0  0  0  0  0  0
  140.5080   71.0810  225.9760 C   0  0  0  0  0  0  0  0  0  0  0  0
  140.7670   71.7360  224.8310 N   0  0  0  0  0  0  0  0  0  0  0  0
  139.6750   73.7840  223.0850 H   0  0  0  0  0  0  0  0  0  0  0  0
  141.5111   74.0165  220.7274 H   0  0  0  0  0  0  0  0  0  0  0  0
  139.7805   74.0021  220.3070 H   0  0  0  0  0  0  0  0  0  0  0  0
  140.7074   78.1095  222.5251 H   0  0  0  0  0  0  0  0  0  0  0  0
  142.3492   78.1551  222.0267 H   0  0  0  0  0  0  0  0  0  0  0  0
  140.9221   79.9760  220.6609 H   0  0  0  0  0  0  0  0  0  0  0  0
  141.4896   78.5562  218.3856 H   0  0  0  0  0  0  0  0  0  0  0  0
  142.8631   78.7243  219.4487 H   0  0  0  0  0  0  0  0  0  0  0  0
  141.2224   76.3441  218.8499 H   0  0  0  0  0  0  0  0  0  0  0  0
  143.6245   76.3557  218.7895 H   0  0  0  0  0  0  0  0  0  0  0  0
  143.6071   76.5740  220.6190 H   0  0  0  0  0  0  0  0  0  0  0  0
  145.1993   74.6278  219.7865 H   0  0  0  0  0  0  0  0  0  0  0  0
  144.6345   74.7402  221.4337 H   0  0  0  0  0  0  0  0  0  0  0  0
  145.2081   72.3172  220.3322 H   0  0  0  0  0  0  0  0  0  0  0  0
  143.8298   72.4282  221.4140 H   0  0  0  0  0  0  0  0  0  0  0  0
  143.8519   71.9272  218.5410 H   0  0  0  0  0  0  0  0  0  0  0  0
  142.4376   71.9609  219.5835 H   0  0  0  0  0  0  0  0  0  0  0  0
  143.7328   74.2553  217.9971 H   0  0  0  0  0  0  0  0  0  0  0  0
  142.0250   73.9838  218.2335 H   0  0  0  0  0  0  0  0  0  0  0  0
  139.3166   69.7442  222.5160 H   0  0  0  0  0  0  0  0  0  0  0  0
  138.8152   68.4950  224.6273 H   0  0  0  0  0  0  0  0  0  0  0  0
  138.9823   68.3029  227.0842 H   0  0  0  0  0  0  0  0  0  0  0  0
  139.7859   69.2383  229.2444 H   0  0  0  0  0  0  0  0  0  0  0  0
  141.0533   71.3644  229.2848 H   0  0  0  0  0  0  0  0  0  0  0  0
  141.5296   72.5630  227.1712 H   0  0  0  0  0  0  0  0  0  0  0  0
  1  2  2  0
  2  3  1  0
  3  4  1  0
  4  5  1  0
  5  6  2  0
  5  7  1  0
  7  8  1  0
  8  9  1  0
  9 10  1  0
  9 11  1  0
 11 12  1  0
 12 13  1  0
 13 14  1  0
 14 15  1  0
 15 16  1  0
 16 17  1  0
 17 18  1  0
  2 19  1  0
 19 20  2  0
 20 21  1  0
 21 22  2  0
 22 23  1  0
 23 24  2  0
 24 25  1  0
 25 26  2  0
 26 27  1  0
 27 28  2  0
 12  7  1  0
 18 14  1  0
 28 19  1  0
 27 22  1  0
  3 29  1  0
  4 30  1  0
  4 31  1  0
  8 32  1  0
  8 33  1  0
  9 34  1  1
 11 35  1  0
 11 36  1  0
 12 37  1  6
 13 38  1  0
 13 39  1  0
 15 40  1  0
 15 41  1  0
 16 42  1  0
 16 43  1  0
 17 44  1  0
 17 45  1  0
 18 46  1  0
 18 47  1  0
 20 48  1  0
 21 49  1  0
 23 50  1  0
 24 51  1  0
 25 52  1  0
 26 53  1  0
M  END
>  <smiles>  (43) 
O=C(NCC(=O)N1C[C@H](F)C[C@H]1CN1CCCC1)c1ccc2ccccc2n1

>  <score_type>  (43) 
oracle

>  <origin>  (43) 
autodockgpu

>  <m_score__min__energy>  (43) 
-8.4100000000000001

>  <m_primary>  (43) 
energy

>  <rmsd>  (43) 
4.131238969721694

>  <m_score__min__rmsd>  (43) 
4.131238969721694

>  <meeko>  (43) 
{"free_energy": -7.52, "intermolecular_energy": -9.31, "internal_energy": -2.24, "cluster_size": 16, "cluster_id": 3, "rank_in_cluster": 14}

>  <energy>  (43) 
-7.67

>  <cluster_rmsd>  (43) 
0.16

>  <cluster>  (43) 
3

$$$$

     RDKit          3D

 53 56  0  0  0  0  0  0  0  0999 V2000
  139.6620   71.1600  221.2130 O   0  0  0  0  0  0  0  0  0  0  0  0
  139.7740   71.8450  222.2860 C   0  0  0  0  0  0  0  0  0  0  0  0
  139.8240   73.2470  222.2340 N   0  0  0  0  0  0  0  0  0  0  0  0
  139.7510   74.0050  220.9750 C   0  0  0  0  0  0  0  0  0  0  0  0
  140.5040   75.2520  221.1700 C   0  0  0  0  0  0  0  0  0  0  0  0
  140.6350   75.7020  222.3550 O   0  0  0  0  0  0  0  0  0  0  0  0
  141.1100   76.0150  220.1450 N   0  0  0  0  0  0  0  0  0  0  0  0
  140.7760   75.9220  218.7330 C   0  0  0  0  0  0  0  0  0  0  0  0
  142.2120   75.7860  218.1920 C   0  0  2  0  0  0  0  0  0  0  0  0
  142.8200   74.7210  218.7900 F   0  0  0  0  0  0  0  0  0  0  0  0
  142.7860   77.0600  218.8400 C   0  0  0  0  0  0  0  0  0  0  0  0
  142.1630   77.0240  220.2190 C   0  0  1  0  0  0  0  0  0  0  0  0
  141.5570   78.3250  220.6430 C   0  0  0  0  0  0  0  0  0  0  0  0
  142.0970   78.8930  221.8270 N   0  0  0  0  0  0  0  0  0  0  0  0
  141.1760   78.6090  222.9530 C   0  0  0  0  0  0  0  0  0  0  0  0
  141.8050   79.3920  224.0820 C   0  0  0  0  0  0  0  0  0  0  0  0
  142.4160   80.5750  223.3990 C   0  0  0  0  0  0  0  0  0  0  0  0
  142.1240   80.3310  221.9030 C   0  0  0  0  0  0  0  0  0  0  0  0
  139.8540   71.1680  223.5910 C   0  0  0  0  0  0  0  0  0  0  0  0
  139.4030   69.8610  223.6820 C   0  0  0  0  0  0  0  0  0  0  0  0
  139.5020   69.2710  224.9370 C   0  0  0  0  0  0  0  0  0  0  0  0
  140.0140   69.9360  226.0290 C   0  0  0  0  0  0  0  0  0  0  0  0
  140.1250   69.3810  227.2810 C   0  0  0  0  0  0  0  0  0  0  0  0
  140.6550   70.1120  228.3450 C   0  0  0  0  0  0  0  0  0  0  0  0
  141.0760   71.4110  228.1490 C   0  0  0  0  0  0  0  0  0  0  0  0
  140.9770   71.9860  226.9130 C   0  0  0  0  0  0  0  0  0  0  0  0
  140.4480   71.2400  225.8770 C   0  0  0  0  0  0  0  0  0  0  0  0
  140.3520   71.8080  224.6620 N   0  0  0  0  0  0  0  0  0  0  0  0
  139.9170   73.7670  223.1400 H   0  0  0  0  0  0  0  0  0  0  0  0
  140.1972   73.4200  220.1573 H   0  0  0  0  0  0  0  0  0  0  0  0
  138.7051   74.2195  220.7103 H   0  0  0  0  0  0  0  0  0  0  0  0
  140.1585   75.0403  218.5065 H   0  0  0  0  0  0  0  0  0  0  0  0
  140.1765   76.7465  218.3196 H   0  0  0  0  0  0  0  0  0  0  0  0
  142.3144   75.6647  217.1035 H   0  0  0  0  0  0  0  0  0  0  0  0
  143.8838   77.0190  218.8968 H   0  0  0  0  0  0  0  0  0  0  0  0
  142.5647   77.9798  218.2787 H   0  0  0  0  0  0  0  0  0  0  0  0
  142.9444   76.8029  220.9610 H   0  0  0  0  0  0  0  0  0  0  0  0
  141.6983   79.0473  219.8255 H   0  0  0  0  0  0  0  0  0  0  0  0
  140.5017   78.1087  220.8655 H   0  0  0  0  0  0  0  0  0  0  0  0
  140.1587   78.9674  222.7368 H   0  0  0  0  0  0  0  0  0  0  0  0
  141.0591   77.5369  223.1694 H   0  0  0  0  0  0  0  0  0  0  0  0
  141.0441   79.7097  224.8101 H   0  0  0  0  0  0  0  0  0  0  0  0
  142.5395   78.8029  224.6507 H   0  0  0  0  0  0  0  0  0  0  0  0
  141.9482   81.5097  223.7418 H   0  0  0  0  0  0  0  0  0  0  0  0
  143.4905   80.6789  223.6103 H   0  0  0  0  0  0  0  0  0  0  0  0
  141.1560   80.7638  221.6101 H   0  0  0  0  0  0  0  0  0  0  0  0
  142.8596   80.7943  221.2290 H   0  0  0  0  0  0  0  0  0  0  0  0
  138.9920   69.3234  222.8148 H   0  0  0  0  0  0  0  0  0  0  0  0
  139.1583   68.2336  225.0626 H   0  0  0  0  0  0  0  0  0  0  0  0
  139.7914   68.3460  227.4469 H   0  0  0  0  0  0  0  0  0  0  0  0
  140.7371   69.6520  229.3408 H   0  0  0  0  0  0  0  0  0  0  0  0
  141.4924   71.9855  228.9896 H   0  0  0  0  0  0  0  0  0  0  0  0
  141.3113   73.0206  226.7464 H   0  0  0  0  0  0  0  0  0  0  0  0
  1  2  2  0
  2  3  1  0
  3  4  1  0
  4  5  1  0
  5  6  2  0
  5  7  1  0
  7  8  1  0
  8  9  1  0
  9 10  1  0
  9 11  1  0
 11 12  1  0
 12 13  1  0
 13 14  1  0
 14 15  1  0
 15 16  1  0
 16 17  1  0
 17 18  1  0
  2 19  1  0
 19 20  2  0
 20 21  1  0
 21 22  2  0
 22 23  1  0
 23 24  2  0
 24 25  1  0
 25 26  2  0
 26 27  1  0
 27 28  2  0
 12  7  1  0
 18 14  1  0
 28 19  1  0
 27 22  1  0
  3 29  1  0
  4 30  1  0
  4 31  1  0
  8 32  1  0
  8 33  1  0
  9 34  1  6
 11 35  1  0
 11 36  1  0
 12 37  1  1
 13 38  1  0
 13 39  1  0
 15 40  1  0
 15 41  1  0
 16 42  1  0
 16 43  1  0
 17 44  1  0
 17 45  1  0
 18 46  1  0
 18 47  1  0
 20 48  1  0
 21 49  1  0
 23 50  1  0
 24 51  1  0
 25 52  1  0
 26 53  1  0
M  END
>  <smiles>  (44) 
O=C(NCC(=O)N1C[C@H](F)C[C@H]1CN1CCCC1)c1ccc2ccccc2n1

>  <score_type>  (44) 
oracle

>  <origin>  (44) 
autodockgpu

>  <m_score__min__energy>  (44) 
-8.4100000000000001

>  <m_primary>  (44) 
energy

>  <rmsd>  (44) 
1.7772577162176524

>  <m_score__min__rmsd>  (44) 
1.7772577162176524

>  <meeko>  (44) 
{"free_energy": -8.1, "intermolecular_energy": -9.89, "internal_energy": -2.06, "cluster_size": 30, "cluster_id": 1, "rank_in_cluster": 19}

>  <energy>  (44) 
-7.64

>  <cluster_rmsd>  (44) 
0.19

>  <cluster>  (44) 
3

$$$$

     RDKit          3D

 53 56  0  0  0  0  0  0  0  0999 V2000
  139.4020   71.0260  221.2170 O   0  0  0  0  0  0  0  0  0  0  0  0
  139.6290   71.7080  222.2740 C   0  0  0  0  0  0  0  0  0  0  0  0
  139.7950   73.1000  222.2010 N   0  0  0  0  0  0  0  0  0  0  0  0
  139.7190   73.8510  220.9390 C   0  0  0  0  0  0  0  0  0  0  0  0
  140.4090   75.1320  221.1480 C   0  0  0  0  0  0  0  0  0  0  0  0
  140.4810   75.5940  222.3340 O   0  0  0  0  0  0  0  0  0  0  0  0
  141.0110   75.9150  220.1370 N   0  0  0  0  0  0  0  0  0  0  0  0
  140.7080   75.8170  218.7190 C   0  0  0  0  0  0  0  0  0  0  0  0
  142.1580   75.7260  218.2060 C   0  0  2  0  0  0  0  0  0  0  0  0
  142.7860   74.6780  218.8140 F   0  0  0  0  0  0  0  0  0  0  0  0
  142.6810   77.0150  218.8690 C   0  0  0  0  0  0  0  0  0  0  0  0
  142.0320   76.9550  220.2350 C   0  0  1  0  0  0  0  0  0  0  0  0
  141.3800   78.2360  220.6500 C   0  0  0  0  0  0  0  0  0  0  0  0
  141.9730   78.8930  221.7600 N   0  0  0  0  0  0  0  0  0  0  0  0
  141.2000   78.5600  222.9790 C   0  0  0  0  0  0  0  0  0  0  0  0
  141.8560   79.4370  224.0200 C   0  0  0  0  0  0  0  0  0  0  0  0
  142.2770   80.6500  223.2510 C   0  0  0  0  0  0  0  0  0  0  0  0
  141.8660   80.3290  221.7970 C   0  0  0  0  0  0  0  0  0  0  0  0
  139.7210   71.0370  223.5810 C   0  0  0  0  0  0  0  0  0  0  0  0
  139.2330   69.7450  223.6930 C   0  0  0  0  0  0  0  0  0  0  0  0
  139.3460   69.1610  224.9490 C   0  0  0  0  0  0  0  0  0  0  0  0
  139.9060   69.8170  226.0230 C   0  0  0  0  0  0  0  0  0  0  0  0
  140.0310   69.2660  227.2760 C   0  0  0  0  0  0  0  0  0  0  0  0
  140.6090   69.9880  228.3210 C   0  0  0  0  0  0  0  0  0  0  0  0
  141.0640   71.2710  228.1050 C   0  0  0  0  0  0  0  0  0  0  0  0
  140.9520   71.8410  226.8680 C   0  0  0  0  0  0  0  0  0  0  0  0
  140.3750   71.1060  225.8510 C   0  0  0  0  0  0  0  0  0  0  0  0
  140.2650   71.6680  224.6340 N   0  0  0  0  0  0  0  0  0  0  0  0
  139.9800   73.6170  223.0950 H   0  0  0  0  0  0  0  0  0  0  0  0
  140.2117   73.2853  220.1345 H   0  0  0  0  0  0  0  0  0  0  0  0
  138.6712   74.0170  220.6481 H   0  0  0  0  0  0  0  0  0  0  0  0
  140.1218   74.9180  218.4777 H   0  0  0  0  0  0  0  0  0  0  0  0
  140.0923   76.6246  218.2963 H   0  0  0  0  0  0  0  0  0  0  0  0
  142.2852   75.6113  217.1194 H   0  0  0  0  0  0  0  0  0  0  0  0
  143.7782   77.0067  218.9476 H   0  0  0  0  0  0  0  0  0  0  0  0
  142.4437   77.9298  218.3061 H   0  0  0  0  0  0  0  0  0  0  0  0
  142.8042   76.7539  220.9922 H   0  0  0  0  0  0  0  0  0  0  0  0
  141.4104   78.9248  219.7929 H   0  0  0  0  0  0  0  0  0  0  0  0
  140.3617   77.9671  220.9675 H   0  0  0  0  0  0  0  0  0  0  0  0
  140.1360   78.8116  222.8581 H   0  0  0  0  0  0  0  0  0  0  0  0
  141.2117   77.4894  223.2315 H   0  0  0  0  0  0  0  0  0  0  0  0
  141.1425   79.7041  224.8134 H   0  0  0  0  0  0  0  0  0  0  0  0
  142.6975   78.9405  224.5255 H   0  0  0  0  0  0  0  0  0  0  0  0
  141.7543   81.5462  223.6167 H   0  0  0  0  0  0  0  0  0  0  0  0
  143.3514   80.8639  223.3508 H   0  0  0  0  0  0  0  0  0  0  0  0
  140.8364   80.6576  221.5919 H   0  0  0  0  0  0  0  0  0  0  0  0
  142.4832   80.8372  221.0415 H   0  0  0  0  0  0  0  0  0  0  0  0
  138.7839   69.2144  222.8405 H   0  0  0  0  0  0  0  0  0  0  0  0
  138.9740   68.1356  225.0909 H   0  0  0  0  0  0  0  0  0  0  0  0
  139.6708   68.2426  227.4574 H   0  0  0  0  0  0  0  0  0  0  0  0
  140.7016   69.5328  229.3181 H   0  0  0  0  0  0  0  0  0  0  0  0
  141.5187   71.8379  228.9308 H   0  0  0  0  0  0  0  0  0  0  0  0
  141.3138   72.8638  226.6861 H   0  0  0  0  0  0  0  0  0  0  0  0
  1  2  2  0
  2  3  1  0
  3  4  1  0
  4  5  1  0
  5  6  2  0
  5  7  1  0
  7  8  1  0
  8  9  1  0
  9 10  1  0
  9 11  1  0
 11 12  1  0
 12 13  1  0
 13 14  1  0
 14 15  1  0
 15 16  1  0
 16 17  1  0
 17 18  1  0
  2 19  1  0
 19 20  2  0
 20 21  1  0
 21 22  2  0
 22 23  1  0
 23 24  2  0
 24 25  1  0
 25 26  2  0
 26 27  1  0
 27 28  2  0
 12  7  1  0
 18 14  1  0
 28 19  1  0
 27 22  1  0
  3 29  1  0
  4 30  1  0
  4 31  1  0
  8 32  1  0
  8 33  1  0
  9 34  1  6
 11 35  1  0
 11 36  1  0
 12 37  1  1
 13 38  1  0
 13 39  1  0
 15 40  1  0
 15 41  1  0
 16 42  1  0
 16 43  1  0
 17 44  1  0
 17 45  1  0
 18 46  1  0
 18 47  1  0
 20 48  1  0
 21 49  1  0
 23 50  1  0
 24 51  1  0
 25 52  1  0
 26 53  1  0
M  END
>  <smiles>  (45) 
O=C(NCC(=O)N1C[C@H](F)C[C@H]1CN1CCCC1)c1ccc2ccccc2n1

>  <score_type>  (45) 
oracle

>  <origin>  (45) 
autodockgpu

>  <m_score__min__energy>  (45) 
-8.4100000000000001

>  <m_primary>  (45) 
energy

>  <rmsd>  (45) 
1.6890371203131087

>  <m_score__min__rmsd>  (45) 
1.6890371203131087

>  <meeko>  (45) 
{"free_energy": -7.98, "intermolecular_energy": -9.77, "internal_energy": -2.09, "cluster_size": 30, "cluster_id": 1, "rank_in_cluster": 26}

>  <energy>  (45) 
-7.64

>  <cluster_rmsd>  (45) 
0.25

>  <cluster>  (45) 
3

$$$$

     RDKit          3D

 53 56  0  0  0  0  0  0  0  0999 V2000
  141.1930   71.8160  221.5180 O   0  0  0  0  0  0  0  0  0  0  0  0
  140.3480   72.1770  222.4070 C   0  0  0  0  0  0  0  0  0  0  0  0
  139.5490   73.3140  222.2080 N   0  0  0  0  0  0  0  0  0  0  0  0
  139.6240   74.1450  220.9970 C   0  0  0  0  0  0  0  0  0  0  0  0
  139.2480   75.5130  221.3800 C   0  0  0  0  0  0  0  0  0  0  0  0
  138.2810   75.6690  222.1960 O   0  0  0  0  0  0  0  0  0  0  0  0
  139.8690   76.6960  220.9180 N   0  0  0  0  0  0  0  0  0  0  0  0
  139.3320   77.5680  219.8880 C   0  0  0  0  0  0  0  0  0  0  0  0
  140.6070   77.6790  219.0290 C   0  0  2  0  0  0  0  0  0  0  0  0
  141.0230   76.4290  218.6750 F   0  0  0  0  0  0  0  0  0  0  0  0
  141.5500   78.1730  220.1430 C   0  0  0  0  0  0  0  0  0  0  0  0
  141.1310   77.3140  221.3170 C   0  0  1  0  0  0  0  0  0  0  0  0
  140.9150   78.0830  222.5820 C   0  0  0  0  0  0  0  0  0  0  0  0
  141.4940   79.3780  222.6170 N   0  0  0  0  0  0  0  0  0  0  0  0
  142.2160   79.5430  223.9000 C   0  0  0  0  0  0  0  0  0  0  0  0
  142.6370   80.9930  223.8430 C   0  0  0  0  0  0  0  0  0  0  0  0
  141.5330   81.6560  223.0800 C   0  0  0  0  0  0  0  0  0  0  0  0
  140.5860   80.4930  222.7120 C   0  0  0  0  0  0  0  0  0  0  0  0
  140.2060   71.4020  223.6500 C   0  0  0  0  0  0  0  0  0  0  0  0
  139.5810   70.1680  223.5880 C   0  0  0  0  0  0  0  0  0  0  0  0
  139.4750   69.4800  224.7920 C   0  0  0  0  0  0  0  0  0  0  0  0
  139.9580   69.9860  225.9790 C   0  0  0  0  0  0  0  0  0  0  0  0
  139.8680   69.3310  227.1830 C   0  0  0  0  0  0  0  0  0  0  0  0
  140.3800   69.9030  228.3490 C   0  0  0  0  0  0  0  0  0  0  0  0
  140.9860   71.1400  228.3030 C   0  0  0  0  0  0  0  0  0  0  0  0
  141.0880   71.8120  227.1170 C   0  0  0  0  0  0  0  0  0  0  0  0
  140.5730   71.2240  225.9780 C   0  0  0  0  0  0  0  0  0  0  0  0
  140.6750   71.8860  224.8120 N   0  0  0  0  0  0  0  0  0  0  0  0
  138.8690   73.5710  222.9650 H   0  0  0  0  0  0  0  0  0  0  0  0
  140.6484   74.1346  220.5965 H   0  0  0  0  0  0  0  0  0  0  0  0
  138.9489   73.7597  220.2186 H   0  0  0  0  0  0  0  0  0  0  0  0
  138.4980   77.1045  219.3407 H   0  0  0  0  0  0  0  0  0  0  0  0
  138.8940   78.5162  220.2332 H   0  0  0  0  0  0  0  0  0  0  0  0
  140.5263   78.2796  218.1110 H   0  0  0  0  0  0  0  0  0  0  0  0
  142.6040   78.0018  219.8790 H   0  0  0  0  0  0  0  0  0  0  0  0
  141.4781   79.2534  220.3370 H   0  0  0  0  0  0  0  0  0  0  0  0
  141.9318   76.5933  221.5393 H   0  0  0  0  0  0  0  0  0  0  0  0
  139.8306   78.1926  222.7308 H   0  0  0  0  0  0  0  0  0  0  0  0
  141.4158   77.5072  223.3743 H   0  0  0  0  0  0  0  0  0  0  0  0
  141.5541   79.3530  224.7578 H   0  0  0  0  0  0  0  0  0  0  0  0
  143.0552   78.8435  224.0284 H   0  0  0  0  0  0  0  0  0  0  0  0
  142.7230   81.4161  224.8547 H   0  0  0  0  0  0  0  0  0  0  0  0
  143.6218   81.1317  223.3729 H   0  0  0  0  0  0  0  0  0  0  0  0
  141.0161   82.3988  223.7054 H   0  0  0  0  0  0  0  0  0  0  0  0
  141.8961   82.2031  222.1975 H   0  0  0  0  0  0  0  0  0  0  0  0
  139.8332   80.3283  223.4970 H   0  0  0  0  0  0  0  0  0  0  0  0
  140.0067   80.6696  221.7937 H   0  0  0  0  0  0  0  0  0  0  0  0
  139.1922   69.7571  222.6446 H   0  0  0  0  0  0  0  0  0  0  0  0
  138.9869   68.4942  224.7968 H   0  0  0  0  0  0  0  0  0  0  0  0
  139.3863   68.3431  227.2290 H   0  0  0  0  0  0  0  0  0  0  0  0
  140.2997   69.3658  229.3055 H   0  0  0  0  0  0  0  0  0  0  0  0
  141.3888   71.5879  229.2234 H   0  0  0  0  0  0  0  0  0  0  0  0
  141.5698   72.7998  227.0706 H   0  0  0  0  0  0  0  0  0  0  0  0
  1  2  2  0
  2  3  1  0
  3  4  1  0
  4  5  1  0
  5  6  2  0
  5  7  1  0
  7  8  1  0
  8  9  1  0
  9 10  1  0
  9 11  1  0
 11 12  1  0
 12 13  1  0
 13 14  1  0
 14 15  1  0
 15 16  1  0
 16 17  1  0
 17 18  1  0
  2 19  1  0
 19 20  2  0
 20 21  1  0
 21 22  2  0
 22 23  1  0
 23 24  2  0
 24 25  1  0
 25 26  2  0
 26 27  1  0
 27 28  2  0
 12  7  1  0
 18 14  1  0
 28 19  1  0
 27 22  1  0
  3 29  1  0
  4 30  1  0
  4 31  1  0
  8 32  1  0
  8 33  1  0
  9 34  1  6
 11 35  1  0
 11 36  1  0
 12 37  1  1
 13 38  1  0
 13 39  1  0
 15 40  1  0
 15 41  1  0
 16 42  1  0
 16 43  1  0
 17 44  1  0
 17 45  1  0
 18 46  1  0
 18 47  1  0
 20 48  1  0
 21 49  1  0
 23 50  1  0
 24 51  1  0
 25 52  1  0
 26 53  1  0
M  END
>  <smiles>  (46) 
O=C(NCC(=O)N1C[C@H](F)C[C@H]1CN1CCCC1)c1ccc2ccccc2n1

>  <score_type>  (46) 
oracle

>  <origin>  (46) 
autodockgpu

>  <m_score__min__energy>  (46) 
-8.4100000000000001

>  <m_primary>  (46) 
energy

>  <rmsd>  (46) 
2.161950730450627

>  <m_score__min__rmsd>  (46) 
2.161950730450627

>  <meeko>  (46) 
{"free_energy": -8.08, "intermolecular_energy": -9.87, "internal_energy": -1.7, "cluster_size": 30, "cluster_id": 1, "rank_in_cluster": 20}

>  <energy>  (46) 
-7.54

>  <cluster_rmsd>  (46) 
0.86

>  <cluster>  (46) 
3

$$$$

     RDKit          3D

 53 56  0  0  0  0  0  0  0  0999 V2000
  141.0200   71.4120  221.3230 O   0  0  0  0  0  0  0  0  0  0  0  0
  140.5270   72.0360  222.3250 C   0  0  0  0  0  0  0  0  0  0  0  0
  140.2210   73.4030  222.2300 N   0  0  0  0  0  0  0  0  0  0  0  0
  140.4390   74.1900  221.0070 C   0  0  0  0  0  0  0  0  0  0  0  0
  140.7260   75.5710  221.4190 C   0  0  0  0  0  0  0  0  0  0  0  0
  140.3220   75.9580  222.5650 O   0  0  0  0  0  0  0  0  0  0  0  0
  141.4210   76.5310  220.6490 N   0  0  0  0  0  0  0  0  0  0  0  0
  141.5120   77.9460  220.9700 C   0  0  0  0  0  0  0  0  0  0  0  0
  141.1180   78.4950  219.5840 C   0  0  2  0  0  0  0  0  0  0  0  0
  139.9060   77.9830  219.2240 F   0  0  0  0  0  0  0  0  0  0  0  0
  142.1880   77.7470  218.7670 C   0  0  0  0  0  0  0  0  0  0  0  0
  142.1770   76.3760  219.4080 C   0  0  1  0  0  0  0  0  0  0  0  0
  143.5390   75.8500  219.7350 C   0  0  0  0  0  0  0  0  0  0  0  0
  143.5770   74.5230  220.2380 N   0  0  0  0  0  0  0  0  0  0  0  0
  144.9870   74.1570  220.5100 C   0  0  0  0  0  0  0  0  0  0  0  0
  144.8690   72.6990  220.8880 C   0  0  0  0  0  0  0  0  0  0  0  0
  143.7180   72.2090  220.0660 C   0  0  0  0  0  0  0  0  0  0  0  0
  143.2340   73.4700  219.3170 C   0  0  0  0  0  0  0  0  0  0  0  0
  140.2760   71.3260  223.5890 C   0  0  0  0  0  0  0  0  0  0  0  0
  139.6250   70.1040  223.5380 C   0  0  0  0  0  0  0  0  0  0  0  0
  139.4140   69.4780  224.7620 C   0  0  0  0  0  0  0  0  0  0  0  0
  139.8240   70.0290  225.9560 C   0  0  0  0  0  0  0  0  0  0  0  0
  139.6320   69.4350  227.1800 C   0  0  0  0  0  0  0  0  0  0  0  0
  140.0730   70.0500  228.3520 C   0  0  0  0  0  0  0  0  0  0  0  0
  140.7130   71.2700  228.2930 C   0  0  0  0  0  0  0  0  0  0  0  0
  140.9180   71.8810  227.0880 C   0  0  0  0  0  0  0  0  0  0  0  0
  140.4700   71.2510  225.9430 C   0  0  0  0  0  0  0  0  0  0  0  0
  140.6730   71.8540  224.7580 N   0  0  0  0  0  0  0  0  0  0  0  0
  139.8190   73.8730  223.0770 H   0  0  0  0  0  0  0  0  0  0  0  0
  141.2905   73.7810  220.4434 H   0  0  0  0  0  0  0  0  0  0  0  0
  139.5511   74.1545  220.3586 H   0  0  0  0  0  0  0  0  0  0  0  0
  140.8014   78.2434  221.7552 H   0  0  0  0  0  0  0  0  0  0  0  0
  142.4743   78.2923  221.3750 H   0  0  0  0  0  0  0  0  0  0  0  0
  141.0624   79.5896  219.4901 H   0  0  0  0  0  0  0  0  0  0  0  0
  141.9123   77.6925  217.7035 H   0  0  0  0  0  0  0  0  0  0  0  0
  143.1745   78.2334  218.7803 H   0  0  0  0  0  0  0  0  0  0  0  0
  141.7392   75.6537  218.7033 H   0  0  0  0  0  0  0  0  0  0  0  0
  144.1441   75.8819  218.8169 H   0  0  0  0  0  0  0  0  0  0  0  0
  143.9242   76.4902  220.5423 H   0  0  0  0  0  0  0  0  0  0  0  0
  145.6131   74.2879  219.6151 H   0  0  0  0  0  0  0  0  0  0  0  0
  145.4637   74.7772  221.2833 H   0  0  0  0  0  0  0  0  0  0  0  0
  145.7904   72.1532  220.6367 H   0  0  0  0  0  0  0  0  0  0  0  0
  144.7149   72.5504  221.9670 H   0  0  0  0  0  0  0  0  0  0  0  0
  144.0450   71.4340  219.3572 H   0  0  0  0  0  0  0  0  0  0  0  0
  142.9271   71.7475  220.6755 H   0  0  0  0  0  0  0  0  0  0  0  0
  143.7606   73.5912  218.3589 H   0  0  0  0  0  0  0  0  0  0  0  0
  142.1661   73.4443  219.0544 H   0  0  0  0  0  0  0  0  0  0  0  0
  139.2955   69.6567  222.5886 H   0  0  0  0  0  0  0  0  0  0  0  0
  138.9000   68.5056  224.7771 H   0  0  0  0  0  0  0  0  0  0  0  0
  139.1236   68.4612  227.2366 H   0  0  0  0  0  0  0  0  0  0  0  0
  139.9100   69.5613  229.3239 H   0  0  0  0  0  0  0  0  0  0  0  0
  141.0595   71.7528  229.2186 H   0  0  0  0  0  0  0  0  0  0  0  0
  141.4288   72.8536  227.0309 H   0  0  0  0  0  0  0  0  0  0  0  0
  1  2  2  0
  2  3  1  0
  3  4  1  0
  4  5  1  0
  5  6  2  0
  5  7  1  0
  7  8  1  0
  8  9  1  0
  9 10  1  0
  9 11  1  0
 11 12  1  0
 12 13  1  0
 13 14  1  0
 14 15  1  0
 15 16  1  0
 16 17  1  0
 17 18  1  0
  2 19  1  0
 19 20  2  0
 20 21  1  0
 21 22  2  0
 22 23  1  0
 23 24  2  0
 24 25  1  0
 25 26  2  0
 26 27  1  0
 27 28  2  0
 12  7  1  0
 18 14  1  0
 28 19  1  0
 27 22  1  0
  3 29  1  0
  4 30  1  0
  4 31  1  0
  8 32  1  0
  8 33  1  0
  9 34  1  1
 11 35  1  0
 11 36  1  0
 12 37  1  6
 13 38  1  0
 13 39  1  0
 15 40  1  0
 15 41  1  0
 16 42  1  0
 16 43  1  0
 17 44  1  0
 17 45  1  0
 18 46  1  0
 18 47  1  0
 20 48  1  0
 21 49  1  0
 23 50  1  0
 24 51  1  0
 25 52  1  0
 26 53  1  0
M  END
>  <smiles>  (47) 
O=C(NCC(=O)N1C[C@H](F)C[C@H]1CN1CCCC1)c1ccc2ccccc2n1

>  <score_type>  (47) 
oracle

>  <origin>  (47) 
autodockgpu

>  <m_score__min__energy>  (47) 
-8.4100000000000001

>  <m_primary>  (47) 
energy

>  <rmsd>  (47) 
4.214965613276122

>  <m_score__min__rmsd>  (47) 
4.214965613276122

>  <meeko>  (47) 
{"free_energy": -7.78, "intermolecular_energy": -9.57, "internal_energy": -2.38, "cluster_size": 16, "cluster_id": 3, "rank_in_cluster": 4}

>  <energy>  (47) 
-7.54

>  <cluster_rmsd>  (47) 
0.41

>  <cluster>  (47) 
3

$$$$

     RDKit          3D

 53 56  0  0  0  0  0  0  0  0999 V2000
  140.6060   71.2100  221.2300 O   0  0  0  0  0  0  0  0  0  0  0  0
  140.2910   71.8830  222.2710 C   0  0  0  0  0  0  0  0  0  0  0  0
  140.0800   73.2690  222.1840 N   0  0  0  0  0  0  0  0  0  0  0  0
  140.2030   74.0210  220.9270 C   0  0  0  0  0  0  0  0  0  0  0  0
  140.7540   75.3430  221.2590 C   0  0  0  0  0  0  0  0  0  0  0  0
  140.5930   75.7860  222.4430 O   0  0  0  0  0  0  0  0  0  0  0  0
  141.4600   76.1850  220.3700 N   0  0  0  0  0  0  0  0  0  0  0  0
  141.2800   77.6240  220.2690 C   0  0  0  0  0  0  0  0  0  0  0  0
  141.1260   77.7040  218.7370 C   0  0  2  0  0  0  0  0  0  0  0  0
  140.1050   76.8880  218.3430 F   0  0  0  0  0  0  0  0  0  0  0  0
  142.4430   76.9930  218.3720 C   0  0  0  0  0  0  0  0  0  0  0  0
  142.4830   75.8620  219.3780 C   0  0  1  0  0  0  0  0  0  0  0  0
  143.8010   75.7170  220.0720 C   0  0  0  0  0  0  0  0  0  0  0  0
  144.4110   74.4400  219.9650 N   0  0  0  0  0  0  0  0  0  0  0  0
  143.4590   73.4150  220.4540 C   0  0  0  0  0  0  0  0  0  0  0  0
  144.2970   72.1590  220.4150 C   0  0  0  0  0  0  0  0  0  0  0  0
  145.6810   72.6430  220.7150 C   0  0  0  0  0  0  0  0  0  0  0  0
  145.5170   74.1730  220.8480 C   0  0  0  0  0  0  0  0  0  0  0  0
  140.1460   71.2100  223.5720 C   0  0  0  0  0  0  0  0  0  0  0  0
  139.5090   69.9810  223.6080 C   0  0  0  0  0  0  0  0  0  0  0  0
  139.4010   69.3910  224.8620 C   0  0  0  0  0  0  0  0  0  0  0  0
  139.8930   69.9840  226.0040 C   0  0  0  0  0  0  0  0  0  0  0  0
  139.8020   69.4260  227.2570 C   0  0  0  0  0  0  0  0  0  0  0  0
  140.3230   70.0820  228.3730 C   0  0  0  0  0  0  0  0  0  0  0  0
  140.9400   71.3060  228.2280 C   0  0  0  0  0  0  0  0  0  0  0  0
  141.0440   71.8820  226.9930 C   0  0  0  0  0  0  0  0  0  0  0  0
  140.5200   71.2120  225.9050 C   0  0  0  0  0  0  0  0  0  0  0  0
  140.6230   71.7790  224.6900 N   0  0  0  0  0  0  0  0  0  0  0  0
  139.8230   73.7790  223.0640 H   0  0  0  0  0  0  0  0  0  0  0  0
  140.8792   73.4939  220.2379 H   0  0  0  0  0  0  0  0  0  0  0  0
  139.2238   74.1200  220.4357 H   0  0  0  0  0  0  0  0  0  0  0  0
  140.3804   77.9711  220.7984 H   0  0  0  0  0  0  0  0  0  0  0  0
  142.0726   78.2455  220.7112 H   0  0  0  0  0  0  0  0  0  0  0  0
  140.9400   78.7031  218.3161 H   0  0  0  0  0  0  0  0  0  0  0  0
  142.4173   76.6097  217.3413 H   0  0  0  0  0  0  0  0  0  0  0  0
  143.3250   77.6493  218.4090 H   0  0  0  0  0  0  0  0  0  0  0  0
  142.3144   74.9092  218.8549 H   0  0  0  0  0  0  0  0  0  0  0  0
  144.4919   76.4593  219.6457 H   0  0  0  0  0  0  0  0  0  0  0  0
  143.5963   75.8650  221.1426 H   0  0  0  0  0  0  0  0  0  0  0  0
  143.1225   73.6386  221.4771 H   0  0  0  0  0  0  0  0  0  0  0  0
  142.5360   73.3493  219.8593 H   0  0  0  0  0  0  0  0  0  0  0  0
  143.9601   71.4395  221.1758 H   0  0  0  0  0  0  0  0  0  0  0  0
  144.2301   71.6331  219.4512 H   0  0  0  0  0  0  0  0  0  0  0  0
  146.0539   72.2061  221.6531 H   0  0  0  0  0  0  0  0  0  0  0  0
  146.4077   72.3594  219.9394 H   0  0  0  0  0  0  0  0  0  0  0  0
  145.2790   74.4598  221.8829 H   0  0  0  0  0  0  0  0  0  0  0  0
  146.4273   74.7374  220.5975 H   0  0  0  0  0  0  0  0  0  0  0  0
  139.1131   69.5014  222.7007 H   0  0  0  0  0  0  0  0  0  0  0  0
  138.9037   68.4134  224.9457 H   0  0  0  0  0  0  0  0  0  0  0  0
  139.3119   68.4492  227.3816 H   0  0  0  0  0  0  0  0  0  0  0  0
  140.2413   69.6221  229.3689 H   0  0  0  0  0  0  0  0  0  0  0  0
  141.3501   71.8209  229.1093 H   0  0  0  0  0  0  0  0  0  0  0  0
  141.5347   72.8586  226.8682 H   0  0  0  0  0  0  0  0  0  0  0  0
  1  2  2  0
  2  3  1  0
  3  4  1  0
  4  5  1  0
  5  6  2  0
  5  7  1  0
  7  8  1  0
  8  9  1  0
  9 10  1  0
  9 11  1  0
 11 12  1  0
 12 13  1  0
 13 14  1  0
 14 15  1  0
 15 16  1  0
 16 17  1  0
 17 18  1  0
  2 19  1  0
 19 20  2  0
 20 21  1  0
 21 22  2  0
 22 23  1  0
 23 24  2  0
 24 25  1  0
 25 26  2  0
 26 27  1  0
 27 28  2  0
 12  7  1  0
 18 14  1  0
 28 19  1  0
 27 22  1  0
  3 29  1  0
  4 30  1  0
  4 31  1  0
  8 32  1  0
  8 33  1  0
  9 34  1  6
 11 35  1  0
 11 36  1  0
 12 37  1  6
 13 38  1  0
 13 39  1  0
 15 40  1  0
 15 41  1  0
 16 42  1  0
 16 43  1  0
 17 44  1  0
 17 45  1  0
 18 46  1  0
 18 47  1  0
 20 48  1  0
 21 49  1  0
 23 50  1  0
 24 51  1  0
 25 52  1  0
 26 53  1  0
M  END
>  <smiles>  (48) 
O=C(NCC(=O)N1C[C@H](F)C[C@H]1CN1CCCC1)c1ccc2ccccc2n1

>  <score_type>  (48) 
oracle

>  <origin>  (48) 
autodockgpu

>  <m_score__min__energy>  (48) 
-8.4100000000000001

>  <m_primary>  (48) 
energy

>  <rmsd>  (48) 
4.122019088490967

>  <m_score__min__rmsd>  (48) 
4.122019088490967

>  <meeko>  (48) 
{"free_energy": -7.75, "intermolecular_energy": -9.54, "internal_energy": -2.22, "cluster_size": 16, "cluster_id": 3, "rank_in_cluster": 7}

>  <energy>  (48) 
-7.52

>  <cluster_rmsd>  (48) 
0.47

>  <cluster>  (48) 
3

$$$$

     RDKit          3D

 53 56  0  0  0  0  0  0  0  0999 V2000
  141.2320   71.3060  221.4250 O   0  0  0  0  0  0  0  0  0  0  0  0
  140.6750   71.9300  222.3910 C   0  0  0  0  0  0  0  0  0  0  0  0
  140.3910   73.3010  222.2830 N   0  0  0  0  0  0  0  0  0  0  0  0
  140.7060   74.0920  221.0830 C   0  0  0  0  0  0  0  0  0  0  0  0
  140.6640   75.5090  221.4690 C   0  0  0  0  0  0  0  0  0  0  0  0
  139.9690   75.8400  222.4850 O   0  0  0  0  0  0  0  0  0  0  0  0
  141.3350   76.5620  220.8050 N   0  0  0  0  0  0  0  0  0  0  0  0
  141.4510   77.9200  221.3090 C   0  0  0  0  0  0  0  0  0  0  0  0
  141.0040   78.6520  220.0280 C   0  0  2  0  0  0  0  0  0  0  0  0
  139.7730   78.1970  219.6550 F   0  0  0  0  0  0  0  0  0  0  0  0
  142.0320   78.0170  219.0720 C   0  0  0  0  0  0  0  0  0  0  0  0
  142.0350   76.5720  219.5240 C   0  0  1  0  0  0  0  0  0  0  0  0
  143.4050   76.0020  219.7170 C   0  0  0  0  0  0  0  0  0  0  0  0
  143.4500   74.6450  220.1300 N   0  0  0  0  0  0  0  0  0  0  0  0
  144.8280   74.3250  220.5670 C   0  0  0  0  0  0  0  0  0  0  0  0
  144.7430   72.8390  220.8250 C   0  0  0  0  0  0  0  0  0  0  0  0
  143.7420   72.3590  219.8210 C   0  0  0  0  0  0  0  0  0  0  0  0
  143.2920   73.6490  219.1000 C   0  0  0  0  0  0  0  0  0  0  0  0
  140.3250   71.2160  223.6300 C   0  0  0  0  0  0  0  0  0  0  0  0
  139.5890   70.0470  223.5290 C   0  0  0  0  0  0  0  0  0  0  0  0
  139.2870   69.4140  224.7300 C   0  0  0  0  0  0  0  0  0  0  0  0
  139.6900   69.9120  225.9500 C   0  0  0  0  0  0  0  0  0  0  0  0
  139.4080   69.3100  227.1530 C   0  0  0  0  0  0  0  0  0  0  0  0
  139.8480   69.8690  228.3530 C   0  0  0  0  0  0  0  0  0  0  0  0
  140.5760   71.0390  228.3450 C   0  0  0  0  0  0  0  0  0  0  0  0
  140.8700   71.6570  227.1620 C   0  0  0  0  0  0  0  0  0  0  0  0
  140.4230   71.0830  225.9870 C   0  0  0  0  0  0  0  0  0  0  0  0
  140.7130   71.6920  224.8240 N   0  0  0  0  0  0  0  0  0  0  0  0
  139.9330   73.7710  223.1010 H   0  0  0  0  0  0  0  0  0  0  0  0
  141.7091   73.8322  220.7137 H   0  0  0  0  0  0  0  0  0  0  0  0
  139.9826   73.8859  220.2803 H   0  0  0  0  0  0  0  0  0  0  0  0
  140.7764   78.1106  222.1567 H   0  0  0  0  0  0  0  0  0  0  0  0
  142.4324   78.2059  221.7154 H   0  0  0  0  0  0  0  0  0  0  0  0
  140.9546   79.7494  220.0846 H   0  0  0  0  0  0  0  0  0  0  0  0
  141.7110   78.1068  218.0237 H   0  0  0  0  0  0  0  0  0  0  0  0
  143.0227   78.4938  219.1072 H   0  0  0  0  0  0  0  0  0  0  0  0
  141.5601   75.9520  218.7494 H   0  0  0  0  0  0  0  0  0  0  0  0
  143.9435   76.0833  218.7613 H   0  0  0  0  0  0  0  0  0  0  0  0
  143.8606   76.5813  220.5336 H   0  0  0  0  0  0  0  0  0  0  0  0
  145.5597   74.5517  219.7775 H   0  0  0  0  0  0  0  0  0  0  0  0
  145.1613   74.9066  221.4392 H   0  0  0  0  0  0  0  0  0  0  0  0
  145.7191   72.3573  220.6664 H   0  0  0  0  0  0  0  0  0  0  0  0
  144.4544   72.6027  221.8598 H   0  0  0  0  0  0  0  0  0  0  0  0
  144.2043   71.6556  219.1128 H   0  0  0  0  0  0  0  0  0  0  0  0
  142.9040   71.8166  220.2830 H   0  0  0  0  0  0  0  0  0  0  0  0
  143.9339   73.8661  218.2335 H   0  0  0  0  0  0  0  0  0  0  0  0
  142.2719   73.5938  218.6922 H   0  0  0  0  0  0  0  0  0  0  0  0
  139.2634   69.6441  222.5586 H   0  0  0  0  0  0  0  0  0  0  0  0
  138.7048   68.4811  224.7051 H   0  0  0  0  0  0  0  0  0  0  0  0
  138.8280   68.3755  227.1698 H   0  0  0  0  0  0  0  0  0  0  0  0
  139.6134   69.3749  229.3074 H   0  0  0  0  0  0  0  0  0  0  0  0
  140.9214   71.4767  229.2932 H   0  0  0  0  0  0  0  0  0  0  0  0
  141.4501   72.5915  227.1454 H   0  0  0  0  0  0  0  0  0  0  0  0
  1  2  2  0
  2  3  1  0
  3  4  1  0
  4  5  1  0
  5  6  2  0
  5  7  1  0
  7  8  1  0
  8  9  1  0
  9 10  1  0
  9 11  1  0
 11 12  1  0
 12 13  1  0
 13 14  1  0
 14 15  1  0
 15 16  1  0
 16 17  1  0
 17 18  1  0
  2 19  1  0
 19 20  2  0
 20 21  1  0
 21 22  2  0
 22 23  1  0
 23 24  2  0
 24 25  1  0
 25 26  2  0
 26 27  1  0
 27 28  2  0
 12  7  1  0
 18 14  1  0
 28 19  1  0
 27 22  1  0
  3 29  1  0
  4 30  1  0
  4 31  1  0
  8 32  1  0
  8 33  1  0
  9 34  1  1
 11 35  1  0
 11 36  1  0
 12 37  1  6
 13 38  1  0
 13 39  1  0
 15 40  1  0
 15 41  1  0
 16 42  1  0
 16 43  1  0
 17 44  1  0
 17 45  1  0
 18 46  1  0
 18 47  1  0
 20 48  1  0
 21 49  1  0
 23 50  1  0
 24 51  1  0
 25 52  1  0
 26 53  1  0
M  END
>  <smiles>  (49) 
O=C(NCC(=O)N1C[C@H](F)C[C@H]1CN1CCCC1)c1ccc2ccccc2n1

>  <score_type>  (49) 
oracle

>  <origin>  (49) 
autodockgpu

>  <m_score__min__energy>  (49) 
-8.4100000000000001

>  <m_primary>  (49) 
energy

>  <rmsd>  (49) 
4.195166618472747

>  <m_score__min__rmsd>  (49) 
4.195166618472747

>  <meeko>  (49) 
{"free_energy": -7.64, "intermolecular_energy": -9.43, "internal_energy": -2.3, "cluster_size": 16, "cluster_id": 3, "rank_in_cluster": 11}

>  <energy>  (49) 
-7.49

>  <cluster_rmsd>  (49) 
0.7

>  <cluster>  (49) 
3

$$$$

     RDKit          3D

 53 56  0  0  0  0  0  0  0  0999 V2000
  140.0950   71.2310  221.1950 O   0  0  0  0  0  0  0  0  0  0  0  0
  139.9420   71.9000  222.2740 C   0  0  0  0  0  0  0  0  0  0  0  0
  139.7610   73.2920  222.2280 N   0  0  0  0  0  0  0  0  0  0  0  0
  139.7350   74.0560  220.9720 C   0  0  0  0  0  0  0  0  0  0  0  0
  140.3430   75.3660  221.2420 C   0  0  0  0  0  0  0  0  0  0  0  0
  140.3510   75.7930  222.4430 O   0  0  0  0  0  0  0  0  0  0  0  0
  140.9290   76.2150  220.2760 N   0  0  0  0  0  0  0  0  0  0  0  0
  140.7170   76.1130  218.8420 C   0  0  0  0  0  0  0  0  0  0  0  0
  142.1960   76.1570  218.4120 C   0  0  2  0  0  0  0  0  0  0  0  0
  142.8800   75.1590  219.0440 F   0  0  0  0  0  0  0  0  0  0  0  0
  142.5640   77.4760  219.1170 C   0  0  0  0  0  0  0  0  0  0  0  0
  141.8470   77.3400  220.4430 C   0  0  1  0  0  0  0  0  0  0  0  0
  141.0600   78.5520  220.8330 C   0  0  0  0  0  0  0  0  0  0  0  0
  141.7340   79.4700  221.6810 N   0  0  0  0  0  0  0  0  0  0  0  0
  141.7420   78.9260  223.0590 C   0  0  0  0  0  0  0  0  0  0  0  0
  142.3470   80.0650  223.8460 C   0  0  0  0  0  0  0  0  0  0  0  0
  141.8770   81.2880  223.1220 C   0  0  0  0  0  0  0  0  0  0  0  0
  141.0750   80.7270  221.9280 C   0  0  0  0  0  0  0  0  0  0  0  0
  139.9550   71.2160  223.5780 C   0  0  0  0  0  0  0  0  0  0  0  0
  139.4260   69.9380  223.6540 C   0  0  0  0  0  0  0  0  0  0  0  0
  139.4640   69.3400  224.9080 C   0  0  0  0  0  0  0  0  0  0  0  0
  139.9930   69.9700  226.0130 C   0  0  0  0  0  0  0  0  0  0  0  0
  140.0450   69.4060  227.2650 C   0  0  0  0  0  0  0  0  0  0  0  0
  140.5950   70.1010  228.3420 C   0  0  0  0  0  0  0  0  0  0  0  0
  141.0970   71.3730  228.1600 C   0  0  0  0  0  0  0  0  0  0  0  0
  141.0570   71.9560  226.9240 C   0  0  0  0  0  0  0  0  0  0  0  0
  140.5060   71.2460  225.8750 C   0  0  0  0  0  0  0  0  0  0  0  0
  140.4680   71.8220  224.6600 N   0  0  0  0  0  0  0  0  0  0  0  0
  139.6400   73.7990  223.1390 H   0  0  0  0  0  0  0  0  0  0  0  0
  140.3103   73.5268  220.1980 H   0  0  0  0  0  0  0  0  0  0  0  0
  138.7028   74.1739  220.6104 H   0  0  0  0  0  0  0  0  0  0  0  0
  140.2269   75.1701  218.5579 H   0  0  0  0  0  0  0  0  0  0  0  0
  140.0576   76.8705  218.3931 H   0  0  0  0  0  0  0  0  0  0  0  0
  142.3936   76.0701  217.3334 H   0  0  0  0  0  0  0  0  0  0  0  0
  143.6514   77.5628  219.2585 H   0  0  0  0  0  0  0  0  0  0  0  0
  142.2782   78.3745  218.5504 H   0  0  0  0  0  0  0  0  0  0  0  0
  142.5907   77.1980  221.2410 H   0  0  0  0  0  0  0  0  0  0  0  0
  140.7786   79.0844  219.9125 H   0  0  0  0  0  0  0  0  0  0  0  0
  140.2002   78.1816  221.4105 H   0  0  0  0  0  0  0  0  0  0  0  0
  140.7226   78.6992  223.4046 H   0  0  0  0  0  0  0  0  0  0  0  0
  142.2925   77.9788  223.1575 H   0  0  0  0  0  0  0  0  0  0  0  0
  141.9838   80.0604  224.8843 H   0  0  0  0  0  0  0  0  0  0  0  0
  143.4434   80.0032  223.9096 H   0  0  0  0  0  0  0  0  0  0  0  0
  141.2356   81.9039  223.7695 H   0  0  0  0  0  0  0  0  0  0  0  0
  142.7055   81.9399  222.8079 H   0  0  0  0  0  0  0  0  0  0  0  0
  140.0179   80.5776  222.1928 H   0  0  0  0  0  0  0  0  0  0  0  0
  141.0585   81.3955  221.0546 H   0  0  0  0  0  0  0  0  0  0  0  0
  139.0021   69.4281  222.7763 H   0  0  0  0  0  0  0  0  0  0  0  0
  139.0561   68.3249  225.0226 H   0  0  0  0  0  0  0  0  0  0  0  0
  139.6473   68.3922  227.4200 H   0  0  0  0  0  0  0  0  0  0  0  0
  140.6285   69.6344  229.3375 H   0  0  0  0  0  0  0  0  0  0  0  0
  141.5302   71.9192  229.0109 H   0  0  0  0  0  0  0  0  0  0  0  0
  141.4553   72.9694  226.7681 H   0  0  0  0  0  0  0  0  0  0  0  0
  1  2  2  0
  2  3  1  0
  3  4  1  0
  4  5  1  0
  5  6  2  0
  5  7  1  0
  7  8  1  0
  8  9  1  0
  9 10  1  0
  9 11  1  0
 11 12  1  0
 12 13  1  0
 13 14  1  0
 14 15  1  0
 15 16  1  0
 16 17  1  0
 17 18  1  0
  2 19  1  0
 19 20  2  0
 20 21  1  0
 21 22  2  0
 22 23  1  0
 23 24  2  0
 24 25  1  0
 25 26  2  0
 26 27  1  0
 27 28  2  0
 12  7  1  0
 18 14  1  0
 28 19  1  0
 27 22  1  0
  3 29  1  0
  4 30  1  0
  4 31  1  0
  8 32  1  0
  8 33  1  0
  9 34  1  6
 11 35  1  0
 11 36  1  0
 12 37  1  1
 13 38  1  0
 13 39  1  0
 15 40  1  0
 15 41  1  0
 16 42  1  0
 16 43  1  0
 17 44  1  0
 17 45  1  0
 18 46  1  0
 18 47  1  0
 20 48  1  0
 21 49  1  0
 23 50  1  0
 24 51  1  0
 25 52  1  0
 26 53  1  0
M  END
>  <smiles>  (50) 
O=C(NCC(=O)N1C[C@H](F)C[C@H]1CN1CCCC1)c1ccc2ccccc2n1

>  <score_type>  (50) 
oracle

>  <origin>  (50) 
autodockgpu

>  <m_score__min__energy>  (50) 
-8.4100000000000001

>  <m_primary>  (50) 
energy

>  <rmsd>  (50) 
1.7694583946103999

>  <m_score__min__rmsd>  (50) 
1.7694583946103999

>  <meeko>  (50) 
{"free_energy": -8.27, "intermolecular_energy": -10.06, "internal_energy": -1.94, "cluster_size": 30, "cluster_id": 1, "rank_in_cluster": 8}

>  <energy>  (50) 
-7.13

>  <cluster_rmsd>  (50) 
0.59

>  <cluster>  (50) 
3

$$$$
