
     RDKit          3D

 61 65  0  0  0  0  0  0  0  0999 V2000
  139.0370   71.0420  221.5580 O   0  0  0  0  0  0  0  0  0  0  0  0
  139.7000   71.3760  222.5810 C   0  0  0  0  0  0  0  0  0  0  0  0
  140.4210   72.6390  222.5280 N   0  0  0  0  0  0  0  0  0  0  0  0
  140.2950   73.3630  221.3110 C   0  0  0  0  0  0  0  0  0  0  0  0
  140.9490   74.6450  221.1390 C   0  0  0  0  0  0  0  0  0  0  0  0
  141.0590   75.3280  222.2530 O   0  0  0  0  0  0  0  0  0  0  0  0
  141.4780   75.2560  219.9650 N   0  0  0  0  0  0  0  0  0  0  0  0
  141.4130   74.8580  218.5940 C   0  0  0  0  0  0  0  0  0  0  0  0
  142.0450   75.9480  217.7730 C   0  0  0  0  0  0  0  0  0  0  0  0
  142.8510   76.7350  218.7550 C   0  0  0  0  0  0  0  0  0  0  0  0
  142.2430   76.5140  220.0900 C   0  0  1  0  0  0  0  0  0  0  0  0
  141.4350   77.6430  220.6290 C   0  0  0  0  0  0  0  0  0  0  0  0
  141.4290   77.7500  222.0700 N   0  0  0  0  0  0  0  0  0  0  0  0
  140.5010   78.6590  222.6670 C   0  0  0  0  0  0  0  0  0  0  0  0
  139.1540   78.3940  222.7250 C   0  0  0  0  0  0  0  0  0  0  0  0
  138.2680   79.2960  223.3110 C   0  0  0  0  0  0  0  0  0  0  0  0
  138.7070   80.4850  223.8530 C   0  0  0  0  0  0  0  0  0  0  0  0
  137.7200   81.3690  224.4450 C   0  0  0  0  0  0  0  0  0  0  0  0
  137.0570   82.3500  223.7570 C   0  0  0  0  0  0  0  0  0  0  0  0
  136.1520   83.1440  224.3460 N   0  0  0  0  0  0  0  0  0  0  0  0
  135.8540   83.0070  225.6500 C   0  0  0  0  0  0  0  0  0  0  0  0
  136.5190   82.0210  226.3470 C   0  0  0  0  0  0  0  0  0  0  0  0
  137.4380   81.2160  225.7490 N   0  0  0  0  0  0  0  0  0  0  0  0
  140.0510   80.7600  223.7990 C   0  0  0  0  0  0  0  0  0  0  0  0
  140.9160   79.8650  223.2200 C   0  0  0  0  0  0  0  0  0  0  0  0
  139.7680   70.5630  223.7870 C   0  0  0  0  0  0  0  0  0  0  0  0
  139.2030   69.3050  223.7260 C   0  0  0  0  0  0  0  0  0  0  0  0
  139.2610   68.5190  224.8660 C   0  0  0  0  0  0  0  0  0  0  0  0
  139.8630   68.9750  226.0300 C   0  0  0  0  0  0  0  0  0  0  0  0
  139.9200   68.1870  227.1730 C   0  0  0  0  0  0  0  0  0  0  0  0
  140.5280   68.6710  228.3200 C   0  0  0  0  0  0  0  0  0  0  0  0
  140.6010   67.9210  229.4600 F   0  0  0  0  0  0  0  0  0  0  0  0
  141.0670   69.9410  228.2900 C   0  0  0  0  0  0  0  0  0  0  0  0
  141.0230   70.7480  227.1640 C   0  0  0  0  0  0  0  0  0  0  0  0
  140.4120   70.2420  226.0360 C   0  0  0  0  0  0  0  0  0  0  0  0
  140.3520   71.0040  224.9160 N   0  0  0  0  0  0  0  0  0  0  0  0
  140.9370   72.8620  223.3750 H   0  0  0  0  0  0  0  0  0  0  0  0
  140.6764   72.7069  220.5147 H   0  0  0  0  0  0  0  0  0  0  0  0
  139.2278   73.6293  221.2948 H   0  0  0  0  0  0  0  0  0  0  0  0
  141.9611   73.9151  218.4509 H   0  0  0  0  0  0  0  0  0  0  0  0
  140.3686   74.6997  218.2870 H   0  0  0  0  0  0  0  0  0  0  0  0
  142.6917   75.5215  216.9920 H   0  0  0  0  0  0  0  0  0  0  0  0
  141.2988   76.5664  217.2526 H   0  0  0  0  0  0  0  0  0  0  0  0
  143.8945   76.3869  218.7527 H   0  0  0  0  0  0  0  0  0  0  0  0
  142.8516   77.8040  218.4957 H   0  0  0  0  0  0  0  0  0  0  0  0
  143.0361   76.4461  220.8492 H   0  0  0  0  0  0  0  0  0  0  0  0
  141.8391   78.5799  220.2180 H   0  0  0  0  0  0  0  0  0  0  0  0
  140.3945   77.4504  220.3284 H   0  0  0  0  0  0  0  0  0  0  0  0
  142.0500   77.2180  222.7110 H   0  0  0  0  0  0  0  0  0  0  0  0
  138.7687   77.4545  222.3020 H   0  0  0  0  0  0  0  0  0  0  0  0
  137.1954   79.0540  223.3417 H   0  0  0  0  0  0  0  0  0  0  0  0
  137.2739   82.4907  222.6878 H   0  0  0  0  0  0  0  0  0  0  0  0
  135.1113   83.6541  226.1396 H   0  0  0  0  0  0  0  0  0  0  0  0
  136.3005   81.8814  227.4160 H   0  0  0  0  0  0  0  0  0  0  0  0
  140.4358   81.7002  224.2209 H   0  0  0  0  0  0  0  0  0  0  0  0
  141.9872   80.1137  223.1924 H   0  0  0  0  0  0  0  0  0  0  0  0
  138.7240   68.9395  222.8057 H   0  0  0  0  0  0  0  0  0  0  0  0
  138.8201   67.5114  224.8476 H   0  0  0  0  0  0  0  0  0  0  0  0
  139.4820   67.1780  227.1672 H   0  0  0  0  0  0  0  0  0  0  0  0
  141.5519   70.3292  229.1978 H   0  0  0  0  0  0  0  0  0  0  0  0
  141.4604   71.7573  227.1699 H   0  0  0  0  0  0  0  0  0  0  0  0
  1  2  2  0
  2  3  1  0
  3  4  1  0
  4  5  1  0
  5  6  2  0
  5  7  1  0
  7  8  1  0
  8  9  1  0
  9 10  1  0
 10 11  1  0
 11 12  1  0
 12 13  1  0
 13 14  1  0
 14 15  2  0
 15 16  1  0
 16 17  2  0
 17 18  1  0
 18 19  2  0
 19 20  1  0
 20 21  2  0
 21 22  1  0
 22 23  2  0
 17 24  1  0
 24 25  2  0
  2 26  1  0
 26 27  2  0
 27 28  1  0
 28 29  2  0
 29 30  1  0
 30 31  2  0
 31 32  1  0
 31 33  1  0
 33 34  2  0
 34 35  1  0
 35 36  2  0
 11  7  1  0
 25 14  1  0
 36 26  1  0
 23 18  1  0
 35 29  1  0
  3 37  1  0
  4 38  1  0
  4 39  1  0
  8 40  1  0
  8 41  1  0
  9 42  1  0
  9 43  1  0
 10 44  1  0
 10 45  1  0
 11 46  1  1
 12 47  1  0
 12 48  1  0
 13 49  1  0
 15 50  1  0
 16 51  1  0
 19 52  1  0
 21 53  1  0
 22 54  1  0
 24 55  1  0
 25 56  1  0
 27 57  1  0
 28 58  1  0
 30 59  1  0
 33 60  1  0
 34 61  1  0
M  END
