
     RDKit          3D

 67 71  0  0  0  0  0  0  0  0999 V2000
  140.2500   74.0710  221.9830 O   0  0  0  0  0  0  0  0  0  0  0  0
  141.3000   74.6250  221.5680 C   0  0  0  0  0  0  0  0  0  0  0  0
  141.3740   76.0490  221.7100 N   0  0  0  0  0  0  0  0  0  0  0  0
  140.2470   76.7200  222.3160 C   0  0  0  0  0  0  0  0  0  0  0  0
  140.2020   78.1720  221.9990 C   0  0  0  0  0  0  0  0  0  0  0  0
  139.7910   78.4860  220.8610 O   0  0  0  0  0  0  0  0  0  0  0  0
  140.6240   79.0800  222.9970 N   0  0  0  0  0  0  0  0  0  0  0  0
  141.9450   78.9170  223.6610 C   0  0  0  0  0  0  0  0  0  0  0  0
  142.4770   80.3640  223.6830 C   0  0  0  0  0  0  0  0  0  0  0  0
  141.9150   81.1720  222.5200 C   0  0  0  0  0  0  0  0  0  0  0  0
  140.4120   81.4040  222.6520 C   0  0  0  0  0  0  0  0  0  0  0  0
  139.8790   80.2300  223.4520 C   0  0  1  0  0  0  0  0  0  0  0  0
  138.4310   80.0990  223.4950 C   0  0  0  0  0  0  0  0  0  0  0  0
  137.7090   80.1720  224.5190 O   0  0  0  0  0  0  0  0  0  0  0  0
  137.7500   79.8640  222.2610 N   0  0  0  0  0  0  0  0  0  0  0  0
  136.3230   79.7200  222.1310 C   0  0  0  0  0  0  0  0  0  0  0  0
  135.8970   78.5330  222.9060 C   0  0  0  0  0  0  0  0  0  0  0  0
  134.8190   78.7330  223.7790 C   0  0  0  0  0  0  0  0  0  0  0  0
  134.3230   77.7050  224.5520 C   0  0  0  0  0  0  0  0  0  0  0  0
  134.8940   76.4520  224.4700 C   0  0  0  0  0  0  0  0  0  0  0  0
  134.3330   75.4030  225.3120 C   0  0  0  0  0  0  0  0  0  0  0  0
  133.4460   75.8140  226.2980 C   0  0  0  0  0  0  0  0  0  0  0  0
  132.8550   74.8820  227.1570 C   0  0  0  0  0  0  0  0  0  0  0  0
  133.1680   73.5830  227.0020 N   0  0  0  0  0  0  0  0  0  0  0  0
  134.0310   73.1910  226.0420 C   0  0  0  0  0  0  0  0  0  0  0  0
  134.6410   74.0670  225.1700 C   0  0  0  0  0  0  0  0  0  0  0  0
  135.9550   76.2530  223.6110 C   0  0  0  0  0  0  0  0  0  0  0  0
  136.4660   77.2900  222.8210 C   0  0  0  0  0  0  0  0  0  0  0  0
  142.3740   73.8490  220.9770 C   0  0  0  0  0  0  0  0  0  0  0  0
  143.5230   74.5000  220.5850 C   0  0  0  0  0  0  0  0  0  0  0  0
  144.6040   73.8640  220.0150 C   0  0  0  0  0  0  0  0  0  0  0  0
  144.5310   72.5130  219.8280 C   0  0  0  0  0  0  0  0  0  0  0  0
  145.5890   71.8220  219.2580 C   0  0  0  0  0  0  0  0  0  0  0  0
  145.5190   70.4590  219.0670 C   0  0  0  0  0  0  0  0  0  0  0  0
  144.3780   69.7920  219.4530 C   0  0  0  0  0  0  0  0  0  0  0  0
  143.3240   70.4920  220.0210 C   0  0  0  0  0  0  0  0  0  0  0  0
  143.3610   71.8560  220.2280 C   0  0  0  0  0  0  0  0  0  0  0  0
  142.3290   72.5220  220.7820 N   0  0  0  0  0  0  0  0  0  0  0  0
  142.2340   76.5280  221.3710 H   0  0  0  0  0  0  0  0  0  0  0  0
  139.3212   76.2517  221.9506 H   0  0  0  0  0  0  0  0  0  0  0  0
  140.3509   76.6223  223.4067 H   0  0  0  0  0  0  0  0  0  0  0  0
  141.8331   78.5173  224.6797 H   0  0  0  0  0  0  0  0  0  0  0  0
  142.6126   78.2080  223.1495 H   0  0  0  0  0  0  0  0  0  0  0  0
  142.1808   80.8415  224.6287 H   0  0  0  0  0  0  0  0  0  0  0  0
  143.5728   80.3351  223.5915 H   0  0  0  0  0  0  0  0  0  0  0  0
  142.4225   82.1474  222.4883 H   0  0  0  0  0  0  0  0  0  0  0  0
  142.0886   80.6002  221.5965 H   0  0  0  0  0  0  0  0  0  0  0  0
  140.2155   82.3482  223.1810 H   0  0  0  0  0  0  0  0  0  0  0  0
  139.9263   81.4759  221.6676 H   0  0  0  0  0  0  0  0  0  0  0  0
  140.0488   80.3795  224.5285 H   0  0  0  0  0  0  0  0  0  0  0  0
  138.3150   79.7860  221.3650 H   0  0  0  0  0  0  0  0  0  0  0  0
  135.8225   80.6178  222.5227 H   0  0  0  0  0  0  0  0  0  0  0  0
  136.0522   79.5953  221.0722 H   0  0  0  0  0  0  0  0  0  0  0  0
  134.3596   79.7300  223.8488 H   0  0  0  0  0  0  0  0  0  0  0  0
  133.4760   77.8830  225.2309 H   0  0  0  0  0  0  0  0  0  0  0  0
  133.2060   76.8822  226.4044 H   0  0  0  0  0  0  0  0  0  0  0  0
  132.1519   75.2031  227.9397 H   0  0  0  0  0  0  0  0  0  0  0  0
  134.2592   72.1188  225.9506 H   0  0  0  0  0  0  0  0  0  0  0  0
  135.3408   73.7164  224.3971 H   0  0  0  0  0  0  0  0  0  0  0  0
  136.4112   75.2542  223.5450 H   0  0  0  0  0  0  0  0  0  0  0  0
  137.3122   77.1090  222.1419 H   0  0  0  0  0  0  0  0  0  0  0  0
  143.5806   75.5881  220.7355 H   0  0  0  0  0  0  0  0  0  0  0  0
  145.5006   74.4283  219.7188 H   0  0  0  0  0  0  0  0  0  0  0  0
  146.4946   72.3678  218.9547 H   0  0  0  0  0  0  0  0  0  0  0  0
  146.3600   69.9135  218.6141 H   0  0  0  0  0  0  0  0  0  0  0  0
  144.3024   68.7038  219.3109 H   0  0  0  0  0  0  0  0  0  0  0  0
  142.4218   69.9375  220.3186 H   0  0  0  0  0  0  0  0  0  0  0  0
  1  2  2  0
  2  3  1  0
  3  4  1  0
  4  5  1  0
  5  6  2  0
  5  7  1  0
  7  8  1  0
  8  9  1  0
  9 10  1  0
 10 11  1  0
 11 12  1  0
 12 13  1  0
 13 14  2  0
 13 15  1  0
 15 16  1  0
 16 17  1  0
 17 18  2  0
 18 19  1  0
 19 20  2  0
 20 21  1  0
 21 22  2  0
 22 23  1  0
 23 24  2  0
 24 25  1  0
 25 26  2  0
 20 27  1  0
 27 28  2  0
  2 29  1  0
 29 30  2  0
 30 31  1  0
 31 32  2  0
 32 33  1  0
 33 34  2  0
 34 35  1  0
 35 36  2  0
 36 37  1  0
 37 38  2  0
 12  7  1  0
 28 17  1  0
 38 29  1  0
 26 21  1  0
 37 32  1  0
  3 39  1  0
  4 40  1  0
  4 41  1  0
  8 42  1  0
  8 43  1  0
  9 44  1  0
  9 45  1  0
 10 46  1  0
 10 47  1  0
 11 48  1  0
 11 49  1  0
 12 50  1  1
 15 51  1  0
 16 52  1  0
 16 53  1  0
 18 54  1  0
 19 55  1  0
 22 56  1  0
 23 57  1  0
 25 58  1  0
 26 59  1  0
 27 60  1  0
 28 61  1  0
 30 62  1  0
 31 63  1  0
 33 64  1  0
 34 65  1  0
 35 66  1  0
 36 67  1  0
M  END
>  <smiles>  (1) 
O=C(NCC(=O)N1CCCC[C@H]1C(=O)NCc1ccc(-c2ccncc2)cc1)c1ccc2ccccc2n1

>  <score_type>  (1) 
oracle

>  <origin>  (1) 
autodockgpu

>  <m_score__min__energy>  (1) 
-10.5

>  <m_primary>  (1) 
energy

>  <rmsd>  (1) 
6.952067392885693

>  <m_score__min__rmsd>  (1) 
6.952067392885693

>  <meeko>  (1) 
{"free_energy": -9.07, "intermolecular_energy": -11.45, "internal_energy": -2.76, "cluster_size": 1, "cluster_id": 4, "rank_in_cluster": 1}

>  <energy>  (1) 
-10.5

>  <cluster_rmsd>  (1) 
0.0

>  <cluster>  (1) 
1

$$$$

     RDKit          3D

 67 71  0  0  0  0  0  0  0  0999 V2000
  138.0210   76.0970  223.2580 O   0  0  0  0  0  0  0  0  0  0  0  0
  136.7730   76.2170  223.1520 C   0  0  0  0  0  0  0  0  0  0  0  0
  136.3000   77.1710  222.1950 N   0  0  0  0  0  0  0  0  0  0  0  0
  137.2850   77.9050  221.4350 C   0  0  0  0  0  0  0  0  0  0  0  0
  138.1940   77.0190  220.6610 C   0  0  0  0  0  0  0  0  0  0  0  0
  137.6600   76.0870  220.0220 O   0  0  0  0  0  0  0  0  0  0  0  0
  139.5800   77.2940  220.7040 N   0  0  0  0  0  0  0  0  0  0  0  0
  140.1030   78.6200  220.2820 C   0  0  0  0  0  0  0  0  0  0  0  0
  141.1320   78.9290  221.3880 C   0  0  0  0  0  0  0  0  0  0  0  0
  140.7450   78.2580  222.7000 C   0  0  0  0  0  0  0  0  0  0  0  0
  140.8400   76.7370  222.6190 C   0  0  0  0  0  0  0  0  0  0  0  0
  140.6010   76.3820  221.1640 C   0  0  1  0  0  0  0  0  0  0  0  0
  140.3950   74.9700  220.8830 C   0  0  0  0  0  0  0  0  0  0  0  0
  141.2080   74.1980  220.3200 O   0  0  0  0  0  0  0  0  0  0  0  0
  139.1500   74.3900  221.2790 N   0  0  0  0  0  0  0  0  0  0  0  0
  138.7940   73.0090  221.0820 C   0  0  0  0  0  0  0  0  0  0  0  0
  139.0360   72.2770  222.3460 C   0  0  0  0  0  0  0  0  0  0  0  0
  140.3400   72.3560  222.8530 C   0  0  0  0  0  0  0  0  0  0  0  0
  140.6930   71.7220  224.0250 C   0  0  0  0  0  0  0  0  0  0  0  0
  139.7480   70.9950  224.7190 C   0  0  0  0  0  0  0  0  0  0  0  0
  140.1760   70.3430  225.9510 C   0  0  0  0  0  0  0  0  0  0  0  0
  140.6480   71.1770  226.9560 C   0  0  0  0  0  0  0  0  0  0  0  0
  141.0820   70.6470  228.1760 C   0  0  0  0  0  0  0  0  0  0  0  0
  141.0310   69.3130  228.3450 N   0  0  0  0  0  0  0  0  0  0  0  0
  140.5720   68.5100  227.3640 C   0  0  0  0  0  0  0  0  0  0  0  0
  140.1320   68.9800  226.1450 C   0  0  0  0  0  0  0  0  0  0  0  0
  138.4640   70.9170  224.2230 C   0  0  0  0  0  0  0  0  0  0  0  0
  138.0950   71.5560  223.0330 C   0  0  0  0  0  0  0  0  0  0  0  0
  135.8730   75.4240  223.9670 C   0  0  0  0  0  0  0  0  0  0  0  0
  135.8230   74.0620  223.7630 C   0  0  0  0  0  0  0  0  0  0  0  0
  135.0070   73.2130  224.4790 C   0  0  0  0  0  0  0  0  0  0  0  0
  134.2030   73.7530  225.4430 C   0  0  0  0  0  0  0  0  0  0  0  0
  133.3630   72.9450  226.1930 C   0  0  0  0  0  0  0  0  0  0  0  0
  132.5510   73.4850  227.1660 C   0  0  0  0  0  0  0  0  0  0  0  0
  132.5880   74.8450  227.3830 C   0  0  0  0  0  0  0  0  0  0  0  0
  133.4320   75.6450  226.6280 C   0  0  0  0  0  0  0  0  0  0  0  0
  134.2590   75.1370  225.6460 C   0  0  0  0  0  0  0  0  0  0  0  0
  135.0740   75.9270  224.9200 N   0  0  0  0  0  0  0  0  0  0  0  0
  135.2690   77.2880  222.0930 H   0  0  0  0  0  0  0  0  0  0  0  0
  136.7621   78.5713  220.7331 H   0  0  0  0  0  0  0  0  0  0  0  0
  137.9022   78.4685  222.1502 H   0  0  0  0  0  0  0  0  0  0  0  0
  140.5836   78.5636  219.2941 H   0  0  0  0  0  0  0  0  0  0  0  0
  139.3239   79.3892  220.1752 H   0  0  0  0  0  0  0  0  0  0  0  0
  142.1194   78.5601  221.0733 H   0  0  0  0  0  0  0  0  0  0  0  0
  141.1585   80.0172  221.5465 H   0  0  0  0  0  0  0  0  0  0  0  0
  141.4200   78.6135  223.4924 H   0  0  0  0  0  0  0  0  0  0  0  0
  139.6992   78.5201  222.9180 H   0  0  0  0  0  0  0  0  0  0  0  0
  141.8373   76.3986  222.9365 H   0  0  0  0  0  0  0  0  0  0  0  0
  140.1062   76.2510  223.2789 H   0  0  0  0  0  0  0  0  0  0  0  0
  141.5168   76.5216  220.5708 H   0  0  0  0  0  0  0  0  0  0  0  0
  138.4220   75.0010  221.7530 H   0  0  0  0  0  0  0  0  0  0  0  0
  137.7312   72.9351  220.8080 H   0  0  0  0  0  0  0  0  0  0  0  0
  139.4000   72.5751  220.2730 H   0  0  0  0  0  0  0  0  0  0  0  0
  141.0972   72.9356  222.3047 H   0  0  0  0  0  0  0  0  0  0  0  0
  141.7227   71.7954  224.4049 H   0  0  0  0  0  0  0  0  0  0  0  0
  140.6810   72.2641  226.7915 H   0  0  0  0  0  0  0  0  0  0  0  0
  141.4551   71.3035  228.9759 H   0  0  0  0  0  0  0  0  0  0  0  0
  140.5474   67.4253  227.5454 H   0  0  0  0  0  0  0  0  0  0  0  0
  139.7632   68.2987  225.3641 H   0  0  0  0  0  0  0  0  0  0  0  0
  137.7101   70.3379  224.7764 H   0  0  0  0  0  0  0  0  0  0  0  0
  137.0647   71.4803  222.6552 H   0  0  0  0  0  0  0  0  0  0  0  0
  136.4699   73.6287  222.9860 H   0  0  0  0  0  0  0  0  0  0  0  0
  135.0030   72.1311  224.2801 H   0  0  0  0  0  0  0  0  0  0  0  0
  133.3445   71.8606  226.0093 H   0  0  0  0  0  0  0  0  0  0  0  0
  131.8847   72.8416  227.7593 H   0  0  0  0  0  0  0  0  0  0  0  0
  131.9478   75.2963  228.1554 H   0  0  0  0  0  0  0  0  0  0  0  0
  133.4432   76.7282  226.8191 H   0  0  0  0  0  0  0  0  0  0  0  0
  1  2  2  0
  2  3  1  0
  3  4  1  0
  4  5  1  0
  5  6  2  0
  5  7  1  0
  7  8  1  0
  8  9  1  0
  9 10  1  0
 10 11  1  0
 11 12  1  0
 12 13  1  0
 13 14  2  0
 13 15  1  0
 15 16  1  0
 16 17  1  0
 17 18  2  0
 18 19  1  0
 19 20  2  0
 20 21  1  0
 21 22  2  0
 22 23  1  0
 23 24  2  0
 24 25  1  0
 25 26  2  0
 20 27  1  0
 27 28  2  0
  2 29  1  0
 29 30  2  0
 30 31  1  0
 31 32  2  0
 32 33  1  0
 33 34  2  0
 34 35  1  0
 35 36  2  0
 36 37  1  0
 37 38  2  0
 12  7  1  0
 28 17  1  0
 38 29  1  0
 26 21  1  0
 37 32  1  0
  3 39  1  0
  4 40  1  0
  4 41  1  0
  8 42  1  0
  8 43  1  0
  9 44  1  0
  9 45  1  0
 10 46  1  0
 10 47  1  0
 11 48  1  0
 11 49  1  0
 12 50  1  6
 15 51  1  0
 16 52  1  0
 16 53  1  0
 18 54  1  0
 19 55  1  0
 22 56  1  0
 23 57  1  0
 25 58  1  0
 26 59  1  0
 27 60  1  0
 28 61  1  0
 30 62  1  0
 31 63  1  0
 33 64  1  0
 34 65  1  0
 35 66  1  0
 36 67  1  0
M  END
>  <smiles>  (2) 
O=C(NCC(=O)N1CCCC[C@H]1C(=O)NCc1ccc(-c2ccncc2)cc1)c1ccc2ccccc2n1

>  <score_type>  (2) 
oracle

>  <origin>  (2) 
autodockgpu

>  <m_score__min__energy>  (2) 
-10.5

>  <m_primary>  (2) 
energy

>  <rmsd>  (2) 
7.088857057470303

>  <m_score__min__rmsd>  (2) 
7.088857057470303

>  <meeko>  (2) 
{"free_energy": -8.13, "intermolecular_energy": -10.51, "internal_energy": -4.05, "cluster_size": 9, "cluster_id": 3, "rank_in_cluster": 8}

>  <energy>  (2) 
-10.43

>  <cluster_rmsd>  (2) 
0.14

>  <cluster>  (2) 
1

$$$$

     RDKit          3D

 67 71  0  0  0  0  0  0  0  0999 V2000
  141.3200   72.6640  221.8800 O   0  0  0  0  0  0  0  0  0  0  0  0
  140.2940   72.5910  222.6050 C   0  0  0  0  0  0  0  0  0  0  0  0
  139.2470   73.5280  222.3310 N   0  0  0  0  0  0  0  0  0  0  0  0
  139.4530   74.4670  221.2520 C   0  0  0  0  0  0  0  0  0  0  0  0
  140.3380   75.5990  221.6340 C   0  0  0  0  0  0  0  0  0  0  0  0
  141.5100   75.3110  221.9590 O   0  0  0  0  0  0  0  0  0  0  0  0
  139.7940   76.9030  221.6000 N   0  0  0  0  0  0  0  0  0  0  0  0
  138.4730   77.1900  222.2210 C   0  0  0  0  0  0  0  0  0  0  0  0
  138.7430   78.5170  222.9580 C   0  0  0  0  0  0  0  0  0  0  0  0
  140.2060   78.6280  223.3680 C   0  0  0  0  0  0  0  0  0  0  0  0
  141.1340   78.7610  222.1640 C   0  0  0  0  0  0  0  0  0  0  0  0
  140.4300   78.0610  221.0170 C   0  0  1  0  0  0  0  0  0  0  0  0
  141.2310   77.8390  219.8230 C   0  0  0  0  0  0  0  0  0  0  0  0
  140.9800   78.2640  218.6700 O   0  0  0  0  0  0  0  0  0  0  0  0
  142.4230   77.0620  219.9610 N   0  0  0  0  0  0  0  0  0  0  0  0
  143.3280   76.7590  218.8830 C   0  0  0  0  0  0  0  0  0  0  0  0
  143.6100   75.3060  218.9000 C   0  0  0  0  0  0  0  0  0  0  0  0
  144.4280   74.8590  219.9470 C   0  0  0  0  0  0  0  0  0  0  0  0
  144.7600   73.5270  220.0770 C   0  0  0  0  0  0  0  0  0  0  0  0
  144.2810   72.6120  219.1640 C   0  0  0  0  0  0  0  0  0  0  0  0
  144.6660   71.2170  219.3480 C   0  0  0  0  0  0  0  0  0  0  0  0
  143.6840   70.3680  219.8410 C   0  0  0  0  0  0  0  0  0  0  0  0
  143.9560   69.0120  220.0520 C   0  0  0  0  0  0  0  0  0  0  0  0
  145.1900   68.5580  219.7660 N   0  0  0  0  0  0  0  0  0  0  0  0
  146.1390   69.3890  219.2890 C   0  0  0  0  0  0  0  0  0  0  0  0
  145.9240   70.7320  219.0620 C   0  0  0  0  0  0  0  0  0  0  0  0
  143.4760   73.0490  218.1340 C   0  0  0  0  0  0  0  0  0  0  0  0
  143.1320   74.3990  217.9910 C   0  0  0  0  0  0  0  0  0  0  0  0
  140.1930   71.6030  223.6620 C   0  0  0  0  0  0  0  0  0  0  0  0
  139.5720   70.4030  223.3890 C   0  0  0  0  0  0  0  0  0  0  0  0
  139.4210   69.3940  224.3150 C   0  0  0  0  0  0  0  0  0  0  0  0
  139.9150   69.5950  225.5730 C   0  0  0  0  0  0  0  0  0  0  0  0
  139.7910   68.6140  226.5440 C   0  0  0  0  0  0  0  0  0  0  0  0
  140.2880   68.8130  227.8140 C   0  0  0  0  0  0  0  0  0  0  0  0
  140.9110   70.0060  228.1040 C   0  0  0  0  0  0  0  0  0  0  0  0
  141.0310   70.9820  227.1260 C   0  0  0  0  0  0  0  0  0  0  0  0
  140.5460   70.8150  225.8440 C   0  0  0  0  0  0  0  0  0  0  0  0
  140.6690   71.7730  224.9050 N   0  0  0  0  0  0  0  0  0  0  0  0
  138.3890   73.4870  222.9210 H   0  0  0  0  0  0  0  0  0  0  0  0
  139.9098   73.9342  220.4049 H   0  0  0  0  0  0  0  0  0  0  0  0
  138.4718   74.8884  220.9880 H   0  0  0  0  0  0  0  0  0  0  0  0
  137.6905   77.3097  221.4572 H   0  0  0  0  0  0  0  0  0  0  0  0
  138.1088   76.3858  222.8772 H   0  0  0  0  0  0  0  0  0  0  0  0
  138.4918   79.3556  222.2919 H   0  0  0  0  0  0  0  0  0  0  0  0
  138.1223   78.5454  223.8657 H   0  0  0  0  0  0  0  0  0  0  0  0
  140.3280   79.5137  224.0088 H   0  0  0  0  0  0  0  0  0  0  0  0
  140.4774   77.7060  223.9031 H   0  0  0  0  0  0  0  0  0  0  0  0
  141.2976   79.8216  221.9223 H   0  0  0  0  0  0  0  0  0  0  0  0
  142.1205   78.3171  222.3635 H   0  0  0  0  0  0  0  0  0  0  0  0
  139.6684   78.7149  220.5672 H   0  0  0  0  0  0  0  0  0  0  0  0
  142.6790   76.6720  220.9150 H   0  0  0  0  0  0  0  0  0  0  0  0
  142.8677   77.0363  217.9232 H   0  0  0  0  0  0  0  0  0  0  0  0
  144.2629   77.3255  219.0056 H   0  0  0  0  0  0  0  0  0  0  0  0
  144.8124   75.5847  220.6789 H   0  0  0  0  0  0  0  0  0  0  0  0
  145.4039   73.1962  220.9052 H   0  0  0  0  0  0  0  0  0  0  0  0
  142.6835   70.7651  220.0676 H   0  0  0  0  0  0  0  0  0  0  0  0
  143.1815   68.3348  220.4414 H   0  0  0  0  0  0  0  0  0  0  0  0
  147.1343   68.9748  219.0701 H   0  0  0  0  0  0  0  0  0  0  0  0
  146.7184   71.3850  218.6714 H   0  0  0  0  0  0  0  0  0  0  0  0
  143.0939   72.3186  217.4056 H   0  0  0  0  0  0  0  0  0  0  0  0
  142.4879   74.7262  217.1615 H   0  0  0  0  0  0  0  0  0  0  0  0
  139.1751   70.2421  222.3758 H   0  0  0  0  0  0  0  0  0  0  0  0
  138.9170   68.4531  224.0490 H   0  0  0  0  0  0  0  0  0  0  0  0
  139.2903   67.6659  226.2983 H   0  0  0  0  0  0  0  0  0  0  0  0
  140.1886   68.0323  228.5825 H   0  0  0  0  0  0  0  0  0  0  0  0
  141.3137   70.1851  229.1118 H   0  0  0  0  0  0  0  0  0  0  0  0
  141.5326   71.9270  227.3818 H   0  0  0  0  0  0  0  0  0  0  0  0
  1  2  2  0
  2  3  1  0
  3  4  1  0
  4  5  1  0
  5  6  2  0
  5  7  1  0
  7  8  1  0
  8  9  1  0
  9 10  1  0
 10 11  1  0
 11 12  1  0
 12 13  1  0
 13 14  2  0
 13 15  1  0
 15 16  1  0
 16 17  1  0
 17 18  2  0
 18 19  1  0
 19 20  2  0
 20 21  1  0
 21 22  2  0
 22 23  1  0
 23 24  2  0
 24 25  1  0
 25 26  2  0
 20 27  1  0
 27 28  2  0
  2 29  1  0
 29 30  2  0
 30 31  1  0
 31 32  2  0
 32 33  1  0
 33 34  2  0
 34 35  1  0
 35 36  2  0
 36 37  1  0
 37 38  2  0
 12  7  1  0
 28 17  1  0
 38 29  1  0
 26 21  1  0
 37 32  1  0
  3 39  1  0
  4 40  1  0
  4 41  1  0
  8 42  1  0
  8 43  1  0
  9 44  1  0
  9 45  1  0
 10 46  1  0
 10 47  1  0
 11 48  1  0
 11 49  1  0
 12 50  1  6
 15 51  1  0
 16 52  1  0
 16 53  1  0
 18 54  1  0
 19 55  1  0
 22 56  1  0
 23 57  1  0
 25 58  1  0
 26 59  1  0
 27 60  1  0
 28 61  1  0
 30 62  1  0
 31 63  1  0
 33 64  1  0
 34 65  1  0
 35 66  1  0
 36 67  1  0
M  END
>  <smiles>  (3) 
O=C(NCC(=O)N1CCCC[C@H]1C(=O)NCc1ccc(-c2ccncc2)cc1)c1ccc2ccccc2n1

>  <score_type>  (3) 
oracle

>  <origin>  (3) 
autodockgpu

>  <m_score__min__energy>  (3) 
-10.5

>  <m_primary>  (3) 
energy

>  <rmsd>  (3) 
4.984114438181496

>  <m_score__min__rmsd>  (3) 
4.984114438181496

>  <meeko>  (3) 
{"free_energy": -10.26, "intermolecular_energy": -12.64, "internal_energy": -3.09, "cluster_size": 5, "cluster_id": 1, "rank_in_cluster": 3}

>  <energy>  (3) 
-10.26

>  <cluster_rmsd>  (3) 
0.48

>  <cluster>  (3) 
1

$$$$

     RDKit          3D

 67 71  0  0  0  0  0  0  0  0999 V2000
  139.8630   73.4720  222.5510 O   0  0  0  0  0  0  0  0  0  0  0  0
  139.8820   72.2160  222.5090 C   0  0  0  0  0  0  0  0  0  0  0  0
  139.8260   71.6170  221.2090 N   0  0  0  0  0  0  0  0  0  0  0  0
  139.7580   72.5000  220.0670 C   0  0  0  0  0  0  0  0  0  0  0  0
  141.0940   72.8070  219.4940 C   0  0  0  0  0  0  0  0  0  0  0  0
  141.2030   72.7330  218.2510 O   0  0  0  0  0  0  0  0  0  0  0  0
  142.1320   73.1550  220.3870 N   0  0  0  0  0  0  0  0  0  0  0  0
  143.0480   72.1160  220.9290 C   0  0  0  0  0  0  0  0  0  0  0  0
  144.4240   72.8010  220.8080 C   0  0  0  0  0  0  0  0  0  0  0  0
  144.4400   73.7990  219.6560 C   0  0  0  0  0  0  0  0  0  0  0  0
  143.5310   74.9970  219.9190 C   0  0  0  0  0  0  0  0  0  0  0  0
  142.4340   74.4930  220.8390 C   0  0  1  0  0  0  0  0  0  0  0  0
  141.3070   75.3920  221.0300 C   0  0  0  0  0  0  0  0  0  0  0  0
  141.0390   76.0350  222.0730 O   0  0  0  0  0  0  0  0  0  0  0  0
  140.4080   75.5700  219.9340 N   0  0  0  0  0  0  0  0  0  0  0  0
  139.2530   76.4290  219.9570 C   0  0  0  0  0  0  0  0  0  0  0  0
  138.3060   75.9160  220.9720 C   0  0  0  0  0  0  0  0  0  0  0  0
  138.1130   76.7370  222.0920 C   0  0  0  0  0  0  0  0  0  0  0  0
  137.2520   76.3750  223.1060 C   0  0  0  0  0  0  0  0  0  0  0  0
  136.5630   75.1830  223.0230 C   0  0  0  0  0  0  0  0  0  0  0  0
  135.6680   74.8490  224.1250 C   0  0  0  0  0  0  0  0  0  0  0  0
  135.3870   73.5010  224.3010 C   0  0  0  0  0  0  0  0  0  0  0  0
  134.5390   73.0790  225.3300 C   0  0  0  0  0  0  0  0  0  0  0  0
  134.0060   74.0130  226.1400 N   0  0  0  0  0  0  0  0  0  0  0  0
  134.2830   75.3200  225.9610 C   0  0  0  0  0  0  0  0  0  0  0  0
  135.1110   75.7890  224.9640 C   0  0  0  0  0  0  0  0  0  0  0  0
  136.7500   74.3750  221.9220 C   0  0  0  0  0  0  0  0  0  0  0  0
  137.6220   74.7320  220.8860 C   0  0  0  0  0  0  0  0  0  0  0  0
  139.9550   71.4260  223.7230 C   0  0  0  0  0  0  0  0  0  0  0  0
  139.4980   70.1270  223.6960 C   0  0  0  0  0  0  0  0  0  0  0  0
  139.5200   69.2870  224.7880 C   0  0  0  0  0  0  0  0  0  0  0  0
  140.0240   69.7710  225.9620 C   0  0  0  0  0  0  0  0  0  0  0  0
  140.0700   68.9690  227.0920 C   0  0  0  0  0  0  0  0  0  0  0  0
  140.5770   69.4530  228.2780 C   0  0  0  0  0  0  0  0  0  0  0  0
  141.0390   70.7500  228.3240 C   0  0  0  0  0  0  0  0  0  0  0  0
  140.9880   71.5440  227.1880 C   0  0  0  0  0  0  0  0  0  0  0  0
  140.4880   71.0910  225.9840 C   0  0  0  0  0  0  0  0  0  0  0  0
  140.4450   71.8750  224.8890 N   0  0  0  0  0  0  0  0  0  0  0  0
  139.8380   70.5770  221.1500 H   0  0  0  0  0  0  0  0  0  0  0  0
  139.1440   72.0219  219.2896 H   0  0  0  0  0  0  0  0  0  0  0  0
  139.3191   73.4490  220.4088 H   0  0  0  0  0  0  0  0  0  0  0  0
  142.8098   71.8815  221.9770 H   0  0  0  0  0  0  0  0  0  0  0  0
  142.9858   71.1531  220.4009 H   0  0  0  0  0  0  0  0  0  0  0  0
  144.6452   73.3313  221.7460 H   0  0  0  0  0  0  0  0  0  0  0  0
  145.1829   72.0291  220.6125 H   0  0  0  0  0  0  0  0  0  0  0  0
  145.4694   74.1597  219.5139 H   0  0  0  0  0  0  0  0  0  0  0  0
  144.0690   73.2841  218.7576 H   0  0  0  0  0  0  0  0  0  0  0  0
  144.0958   75.8064  220.4047 H   0  0  0  0  0  0  0  0  0  0  0  0
  143.1186   75.4039  218.9840 H   0  0  0  0  0  0  0  0  0  0  0  0
  142.7802   74.4615  221.8826 H   0  0  0  0  0  0  0  0  0  0  0  0
  140.5850   75.0430  219.0280 H   0  0  0  0  0  0  0  0  0  0  0  0
  139.5576   77.4533  220.2179 H   0  0  0  0  0  0  0  0  0  0  0  0
  138.7736   76.4423  218.9671 H   0  0  0  0  0  0  0  0  0  0  0  0
  138.6595   77.6890  222.1631 H   0  0  0  0  0  0  0  0  0  0  0  0
  137.1152   77.0333  223.9766 H   0  0  0  0  0  0  0  0  0  0  0  0
  135.8353   72.7580  223.6250 H   0  0  0  0  0  0  0  0  0  0  0  0
  134.3135   72.0120  225.4737 H   0  0  0  0  0  0  0  0  0  0  0  0
  133.8250   76.0493  226.6454 H   0  0  0  0  0  0  0  0  0  0  0  0
  135.3172   76.8628  224.8439 H   0  0  0  0  0  0  0  0  0  0  0  0
  136.1998   73.4248  221.8554 H   0  0  0  0  0  0  0  0  0  0  0  0
  137.7557   74.0718  220.0164 H   0  0  0  0  0  0  0  0  0  0  0  0
  139.0929   69.7385  222.7500 H   0  0  0  0  0  0  0  0  0  0  0  0
  139.1426   68.2562  224.7166 H   0  0  0  0  0  0  0  0  0  0  0  0
  139.6977   67.9352  227.0410 H   0  0  0  0  0  0  0  0  0  0  0  0
  140.6123   68.8146  229.1731 H   0  0  0  0  0  0  0  0  0  0  0  0
  141.4481   71.1556  229.2611 H   0  0  0  0  0  0  0  0  0  0  0  0
  141.3613   72.5769  227.2491 H   0  0  0  0  0  0  0  0  0  0  0  0
  1  2  2  0
  2  3  1  0
  3  4  1  0
  4  5  1  0
  5  6  2  0
  5  7  1  0
  7  8  1  0
  8  9  1  0
  9 10  1  0
 10 11  1  0
 11 12  1  0
 12 13  1  0
 13 14  2  0
 13 15  1  0
 15 16  1  0
 16 17  1  0
 17 18  2  0
 18 19  1  0
 19 20  2  0
 20 21  1  0
 21 22  2  0
 22 23  1  0
 23 24  2  0
 24 25  1  0
 25 26  2  0
 20 27  1  0
 27 28  2  0
  2 29  1  0
 29 30  2  0
 30 31  1  0
 31 32  2  0
 32 33  1  0
 33 34  2  0
 34 35  1  0
 35 36  2  0
 36 37  1  0
 37 38  2  0
 12  7  1  0
 28 17  1  0
 38 29  1  0
 26 21  1  0
 37 32  1  0
  3 39  1  0
  4 40  1  0
  4 41  1  0
  8 42  1  0
  8 43  1  0
  9 44  1  0
  9 45  1  0
 10 46  1  0
 10 47  1  0
 11 48  1  0
 11 49  1  0
 12 50  1  1
 15 51  1  0
 16 52  1  0
 16 53  1  0
 18 54  1  0
 19 55  1  0
 22 56  1  0
 23 57  1  0
 25 58  1  0
 26 59  1  0
 27 60  1  0
 28 61  1  0
 30 62  1  0
 31 63  1  0
 33 64  1  0
 34 65  1  0
 35 66  1  0
 36 67  1  0
M  END
>  <smiles>  (4) 
O=C(NCC(=O)N1CCCC[C@H]1C(=O)NCc1ccc(-c2ccncc2)cc1)c1ccc2ccccc2n1

>  <score_type>  (4) 
oracle

>  <origin>  (4) 
autodockgpu

>  <m_score__min__energy>  (4) 
-10.5

>  <m_primary>  (4) 
energy

>  <rmsd>  (4) 
4.1706462955604655

>  <m_score__min__rmsd>  (4) 
4.1706462955604655

>  <meeko>  (4) 
{"free_energy": -9.04, "intermolecular_energy": -11.42, "internal_energy": -3.36, "cluster_size": 9, "cluster_id": 3, "rank_in_cluster": 2}

>  <energy>  (4) 
-9.33

>  <cluster_rmsd>  (4) 
1.11

>  <cluster>  (4) 
1

$$$$

     RDKit          3D

 67 71  0  0  0  0  0  0  0  0999 V2000
  139.4090   74.5390  222.3250 O   0  0  0  0  0  0  0  0  0  0  0  0
  140.1310   75.3750  221.7230 C   0  0  0  0  0  0  0  0  0  0  0  0
  140.8080   74.9110  220.5500 N   0  0  0  0  0  0  0  0  0  0  0  0
  140.6040   73.5360  220.1580 C   0  0  0  0  0  0  0  0  0  0  0  0
  141.7220   72.9970  219.3400 C   0  0  0  0  0  0  0  0  0  0  0  0
  141.4230   72.1550  218.4650 O   0  0  0  0  0  0  0  0  0  0  0  0
  143.0260   73.4700  219.6090 N   0  0  0  0  0  0  0  0  0  0  0  0
  143.7540   73.0340  220.8300 C   0  0  0  0  0  0  0  0  0  0  0  0
  145.1660   72.7490  220.2800 C   0  0  0  0  0  0  0  0  0  0  0  0
  145.1110   72.3330  218.8160 C   0  0  0  0  0  0  0  0  0  0  0  0
  144.6610   73.4740  217.9080 C   0  0  0  0  0  0  0  0  0  0  0  0
  143.7820   74.3660  218.7660 C   0  0  1  0  0  0  0  0  0  0  0  0
  143.0320   75.3890  218.0540 C   0  0  0  0  0  0  0  0  0  0  0  0
  141.7830   75.4610  217.9570 O   0  0  0  0  0  0  0  0  0  0  0  0
  143.7740   76.4170  217.3960 N   0  0  0  0  0  0  0  0  0  0  0  0
  143.1840   77.5030  216.6580 C   0  0  0  0  0  0  0  0  0  0  0  0
  142.5740   78.4480  217.6190 C   0  0  0  0  0  0  0  0  0  0  0  0
  142.2010   79.6930  217.0940 C   0  0  0  0  0  0  0  0  0  0  0  0
  141.6160   80.6590  217.8850 C   0  0  0  0  0  0  0  0  0  0  0  0
  141.3910   80.4020  219.2210 C   0  0  0  0  0  0  0  0  0  0  0  0
  140.7730   81.4600  220.0120 C   0  0  0  0  0  0  0  0  0  0  0  0
  139.4310   81.2900  220.3250 C   0  0  0  0  0  0  0  0  0  0  0  0
  138.7490   82.2500  221.0800 C   0  0  0  0  0  0  0  0  0  0  0  0
  139.4270   83.3370  221.4910 N   0  0  0  0  0  0  0  0  0  0  0  0
  140.7310   83.4950  221.1820 C   0  0  0  0  0  0  0  0  0  0  0  0
  141.4490   82.5810  220.4430 C   0  0  0  0  0  0  0  0  0  0  0  0
  141.7560   79.1780  219.7400 C   0  0  0  0  0  0  0  0  0  0  0  0
  142.3500   78.1890  218.9460 C   0  0  0  0  0  0  0  0  0  0  0  0
  140.2630   76.7360  222.2070 C   0  0  0  0  0  0  0  0  0  0  0  0
  139.1210   77.4370  222.5300 C   0  0  0  0  0  0  0  0  0  0  0  0
  139.1280   78.7320  223.0000 C   0  0  0  0  0  0  0  0  0  0  0  0
  140.3340   79.3560  223.1520 C   0  0  0  0  0  0  0  0  0  0  0  0
  140.3990   80.6590  223.6200 C   0  0  0  0  0  0  0  0  0  0  0  0
  141.6130   81.2920  223.7750 C   0  0  0  0  0  0  0  0  0  0  0  0
  142.7640   80.6060  223.4570 C   0  0  0  0  0  0  0  0  0  0  0  0
  142.6890   79.3030  222.9890 C   0  0  0  0  0  0  0  0  0  0  0  0
  141.4900   78.6390  222.8230 C   0  0  0  0  0  0  0  0  0  0  0  0
  141.4330   77.3720  222.3670 N   0  0  0  0  0  0  0  0  0  0  0  0
  141.4140   75.5870  220.0380 H   0  0  0  0  0  0  0  0  0  0  0  0
  140.5057   72.9228  221.0659 H   0  0  0  0  0  0  0  0  0  0  0  0
  139.6948   73.4998  219.5400 H   0  0  0  0  0  0  0  0  0  0  0  0
  143.7742   73.8304  221.5885 H   0  0  0  0  0  0  0  0  0  0  0  0
  143.2938   72.1722  221.3355 H   0  0  0  0  0  0  0  0  0  0  0  0
  145.7777   73.6586  220.3722 H   0  0  0  0  0  0  0  0  0  0  0  0
  145.6073   71.9255  220.8607 H   0  0  0  0  0  0  0  0  0  0  0  0
  146.1135   72.0057  218.5030 H   0  0  0  0  0  0  0  0  0  0  0  0
  144.3767   71.5191  218.7240 H   0  0  0  0  0  0  0  0  0  0  0  0
  145.5318   74.0357  217.5391 H   0  0  0  0  0  0  0  0  0  0  0  0
  144.1190   73.0996  217.0271 H   0  0  0  0  0  0  0  0  0  0  0  0
  144.3921   75.0354  219.3903 H   0  0  0  0  0  0  0  0  0  0  0  0
  144.8350   76.3990  217.4410 H   0  0  0  0  0  0  0  0  0  0  0  0
  143.9598   78.0183  216.0727 H   0  0  0  0  0  0  0  0  0  0  0  0
  142.4169   77.1179  215.9701 H   0  0  0  0  0  0  0  0  0  0  0  0
  142.3787   79.9037  216.0291 H   0  0  0  0  0  0  0  0  0  0  0  0
  141.3303   81.6293  217.4527 H   0  0  0  0  0  0  0  0  0  0  0  0
  138.8994   80.3924  219.9762 H   0  0  0  0  0  0  0  0  0  0  0  0
  137.6860   82.1196  221.3312 H   0  0  0  0  0  0  0  0  0  0  0  0
  141.2464   84.3991  221.5382 H   0  0  0  0  0  0  0  0  0  0  0  0
  142.5120   82.7384  220.2078 H   0  0  0  0  0  0  0  0  0  0  0  0
  141.5759   78.9728  220.8056 H   0  0  0  0  0  0  0  0  0  0  0  0
  142.6325   77.2189  219.3809 H   0  0  0  0  0  0  0  0  0  0  0  0
  138.1503   76.9346  222.4056 H   0  0  0  0  0  0  0  0  0  0  0  0
  138.1889   79.2492  223.2460 H   0  0  0  0  0  0  0  0  0  0  0  0
  139.4710   81.1938  223.8705 H   0  0  0  0  0  0  0  0  0  0  0  0
  141.6619   82.3264  224.1460 H   0  0  0  0  0  0  0  0  0  0  0  0
  143.7437   81.0922  223.5744 H   0  0  0  0  0  0  0  0  0  0  0  0
  143.6225   78.7771  222.7399 H   0  0  0  0  0  0  0  0  0  0  0  0
  1  2  2  0
  2  3  1  0
  3  4  1  0
  4  5  1  0
  5  6  2  0
  5  7  1  0
  7  8  1  0
  8  9  1  0
  9 10  1  0
 10 11  1  0
 11 12  1  0
 12 13  1  0
 13 14  2  0
 13 15  1  0
 15 16  1  0
 16 17  1  0
 17 18  2  0
 18 19  1  0
 19 20  2  0
 20 21  1  0
 21 22  2  0
 22 23  1  0
 23 24  2  0
 24 25  1  0
 25 26  2  0
 20 27  1  0
 27 28  2  0
  2 29  1  0
 29 30  2  0
 30 31  1  0
 31 32  2  0
 32 33  1  0
 33 34  2  0
 34 35  1  0
 35 36  2  0
 36 37  1  0
 37 38  2  0
 12  7  1  0
 28 17  1  0
 38 29  1  0
 26 21  1  0
 37 32  1  0
  3 39  1  0
  4 40  1  0
  4 41  1  0
  8 42  1  0
  8 43  1  0
  9 44  1  0
  9 45  1  0
 10 46  1  0
 10 47  1  0
 11 48  1  0
 11 49  1  0
 12 50  1  1
 15 51  1  0
 16 52  1  0
 16 53  1  0
 18 54  1  0
 19 55  1  0
 22 56  1  0
 23 57  1  0
 25 58  1  0
 26 59  1  0
 27 60  1  0
 28 61  1  0
 30 62  1  0
 31 63  1  0
 33 64  1  0
 34 65  1  0
 35 66  1  0
 36 67  1  0
M  END
>  <smiles>  (5) 
O=C(NCC(=O)N1CCCC[C@H]1C(=O)NCc1ccc(-c2ccncc2)cc1)c1ccc2ccccc2n1

>  <score_type>  (5) 
oracle

>  <origin>  (5) 
autodockgpu

>  <m_score__min__energy>  (5) 
-10.5

>  <m_primary>  (5) 
energy

>  <rmsd>  (5) 
6.884340634911102

>  <m_score__min__rmsd>  (5) 
6.884340634911102

>  <meeko>  (5) 
{"free_energy": -7.83, "intermolecular_energy": -10.22, "internal_energy": -4.45, "cluster_size": 12, "cluster_id": 11, "rank_in_cluster": 1}

>  <energy>  (5) 
-9.18

>  <cluster_rmsd>  (5) 
1.61

>  <cluster>  (5) 
1

$$$$

     RDKit          3D

 67 71  0  0  0  0  0  0  0  0999 V2000
  141.1740   72.3040  221.9220 O   0  0  0  0  0  0  0  0  0  0  0  0
  140.1720   72.2500  222.6800 C   0  0  0  0  0  0  0  0  0  0  0  0
  139.0960   73.1480  222.3850 N   0  0  0  0  0  0  0  0  0  0  0  0
  139.2490   74.0280  221.2500 C   0  0  0  0  0  0  0  0  0  0  0  0
  140.0140   75.2610  221.5740 C   0  0  0  0  0  0  0  0  0  0  0  0
  141.1680   75.1030  222.0260 O   0  0  0  0  0  0  0  0  0  0  0  0
  139.3850   76.5060  221.3480 N   0  0  0  0  0  0  0  0  0  0  0  0
  137.9550   76.7080  221.7010 C   0  0  0  0  0  0  0  0  0  0  0  0
  137.9790   78.0940  222.3750 C   0  0  0  0  0  0  0  0  0  0  0  0
  139.3290   78.3610  223.0310 C   0  0  0  0  0  0  0  0  0  0  0  0
  140.4490   78.5070  222.0040 C   0  0  0  0  0  0  0  0  0  0  0  0
  140.0250   77.6810  220.8040 C   0  0  1  0  0  0  0  0  0  0  0  0
  141.0470   77.4630  219.7930 C   0  0  0  0  0  0  0  0  0  0  0  0
  140.9580   77.7470  218.5740 O   0  0  0  0  0  0  0  0  0  0  0  0
  142.2770   76.8690  220.2110 N   0  0  0  0  0  0  0  0  0  0  0  0
  143.3890   76.5960  219.3390 C   0  0  0  0  0  0  0  0  0  0  0  0
  143.7990   75.1860  219.5260 C   0  0  0  0  0  0  0  0  0  0  0  0
  143.2010   74.2600  218.6600 C   0  0  0  0  0  0  0  0  0  0  0  0
  143.5030   72.9160  218.7290 C   0  0  0  0  0  0  0  0  0  0  0  0
  144.4110   72.4680  219.6660 C   0  0  0  0  0  0  0  0  0  0  0  0
  144.6900   71.0370  219.6960 C   0  0  0  0  0  0  0  0  0  0  0  0
  145.9710   70.6530  219.3240 C   0  0  0  0  0  0  0  0  0  0  0  0
  146.3370   69.3020  219.3200 C   0  0  0  0  0  0  0  0  0  0  0  0
  145.4160   68.3920  219.6860 N   0  0  0  0  0  0  0  0  0  0  0  0
  144.1730   68.7730  220.0460 C   0  0  0  0  0  0  0  0  0  0  0  0
  143.7620   70.0890  220.0670 C   0  0  0  0  0  0  0  0  0  0  0  0
  145.0010   73.3770  220.5180 C   0  0  0  0  0  0  0  0  0  0  0  0
  144.7020   74.7440  220.4570 C   0  0  0  0  0  0  0  0  0  0  0  0
  140.1250   71.3220  223.7940 C   0  0  0  0  0  0  0  0  0  0  0  0
  139.5420   70.0890  223.6030 C   0  0  0  0  0  0  0  0  0  0  0  0
  139.4430   69.1310  224.5880 C   0  0  0  0  0  0  0  0  0  0  0  0
  139.9510   69.4210  225.8230 C   0  0  0  0  0  0  0  0  0  0  0  0
  139.8790   68.4950  226.8510 C   0  0  0  0  0  0  0  0  0  0  0  0
  140.3900   68.7840  228.0970 C   0  0  0  0  0  0  0  0  0  0  0  0
  140.9760   70.0120  228.3060 C   0  0  0  0  0  0  0  0  0  0  0  0
  141.0440   70.9330  227.2710 C   0  0  0  0  0  0  0  0  0  0  0  0
  140.5430   70.6760  226.0110 C   0  0  0  0  0  0  0  0  0  0  0  0
  140.6160   71.5820  225.0160 N   0  0  0  0  0  0  0  0  0  0  0  0
  138.2570   73.1220  223.0030 H   0  0  0  0  0  0  0  0  0  0  0  0
  139.7790   73.4850  220.4536 H   0  0  0  0  0  0  0  0  0  0  0  0
  138.2419   74.3374  220.9336 H   0  0  0  0  0  0  0  0  0  0  0  0
  137.3193   76.7119  220.8033 H   0  0  0  0  0  0  0  0  0  0  0  0
  137.5412   75.9135  222.3394 H   0  0  0  0  0  0  0  0  0  0  0  0
  137.7896   78.8665  221.6152 H   0  0  0  0  0  0  0  0  0  0  0  0
  137.2014   78.1183  223.1526 H   0  0  0  0  0  0  0  0  0  0  0  0
  139.2612   79.2900  223.6161 H   0  0  0  0  0  0  0  0  0  0  0  0
  139.5690   77.5008  223.6732 H   0  0  0  0  0  0  0  0  0  0  0  0
  140.5705   79.5622  221.7182 H   0  0  0  0  0  0  0  0  0  0  0  0
  141.4136   78.1658  222.4079 H   0  0  0  0  0  0  0  0  0  0  0  0
  139.3106   78.2362  220.1784 H   0  0  0  0  0  0  0  0  0  0  0  0
  142.4020   76.6020  221.2320 H   0  0  0  0  0  0  0  0  0  0  0  0
  143.0891   76.7594  218.2934 H   0  0  0  0  0  0  0  0  0  0  0  0
  144.2277   77.2666  219.5774 H   0  0  0  0  0  0  0  0  0  0  0  0
  142.4767   74.6122  217.9107 H   0  0  0  0  0  0  0  0  0  0  0  0
  143.0225   72.2052  218.0406 H   0  0  0  0  0  0  0  0  0  0  0  0
  146.7052   71.4174  219.0297 H   0  0  0  0  0  0  0  0  0  0  0  0
  147.3506   68.9925  219.0255 H   0  0  0  0  0  0  0  0  0  0  0  0
  143.4516   67.9953  220.3372 H   0  0  0  0  0  0  0  0  0  0  0  0
  142.7410   70.3687  220.3660 H   0  0  0  0  0  0  0  0  0  0  0  0
  145.7252   73.0196  221.2649 H   0  0  0  0  0  0  0  0  0  0  0  0
  145.1849   75.4523  221.1463 H   0  0  0  0  0  0  0  0  0  0  0  0
  139.1327   69.8562  222.6089 H   0  0  0  0  0  0  0  0  0  0  0  0
  138.9682   68.1595  224.3860 H   0  0  0  0  0  0  0  0  0  0  0  0
  139.4082   67.5175  226.6700 H   0  0  0  0  0  0  0  0  0  0  0  0
  140.3309   68.0464  228.9109 H   0  0  0  0  0  0  0  0  0  0  0  0
  141.3903   70.2629  229.2937 H   0  0  0  0  0  0  0  0  0  0  0  0
  141.5165   71.9078  227.4623 H   0  0  0  0  0  0  0  0  0  0  0  0
  1  2  2  0
  2  3  1  0
  3  4  1  0
  4  5  1  0
  5  6  2  0
  5  7  1  0
  7  8  1  0
  8  9  1  0
  9 10  1  0
 10 11  1  0
 11 12  1  0
 12 13  1  0
 13 14  2  0
 13 15  1  0
 15 16  1  0
 16 17  1  0
 17 18  2  0
 18 19  1  0
 19 20  2  0
 20 21  1  0
 21 22  2  0
 22 23  1  0
 23 24  2  0
 24 25  1  0
 25 26  2  0
 20 27  1  0
 27 28  2  0
  2 29  1  0
 29 30  2  0
 30 31  1  0
 31 32  2  0
 32 33  1  0
 33 34  2  0
 34 35  1  0
 35 36  2  0
 36 37  1  0
 37 38  2  0
 12  7  1  0
 28 17  1  0
 38 29  1  0
 26 21  1  0
 37 32  1  0
  3 39  1  0
  4 40  1  0
  4 41  1  0
  8 42  1  0
  8 43  1  0
  9 44  1  0
  9 45  1  0
 10 46  1  0
 10 47  1  0
 11 48  1  0
 11 49  1  0
 12 50  1  6
 15 51  1  0
 16 52  1  0
 16 53  1  0
 18 54  1  0
 19 55  1  0
 22 56  1  0
 23 57  1  0
 25 58  1  0
 26 59  1  0
 27 60  1  0
 28 61  1  0
 30 62  1  0
 31 63  1  0
 33 64  1  0
 34 65  1  0
 35 66  1  0
 36 67  1  0
M  END
>  <smiles>  (6) 
O=C(NCC(=O)N1CCCC[C@H]1C(=O)NCc1ccc(-c2ccncc2)cc1)c1ccc2ccccc2n1

>  <score_type>  (6) 
oracle

>  <origin>  (6) 
autodockgpu

>  <m_score__min__energy>  (6) 
-10.5

>  <m_primary>  (6) 
energy

>  <rmsd>  (6) 
4.901321543199354

>  <m_score__min__rmsd>  (6) 
4.901321543199354

>  <meeko>  (6) 
{"free_energy": -10.5, "intermolecular_energy": -12.89, "internal_energy": -3.1, "cluster_size": 5, "cluster_id": 1, "rank_in_cluster": 1}

>  <energy>  (6) 
-9.31

>  <cluster_rmsd>  (6) 
0.0

>  <cluster>  (6) 
2

$$$$

     RDKit          3D

 67 71  0  0  0  0  0  0  0  0999 V2000
  137.7370   70.1020  221.8970 O   0  0  0  0  0  0  0  0  0  0  0  0
  138.2730   70.8750  222.7310 C   0  0  0  0  0  0  0  0  0  0  0  0
  138.2700   72.2700  222.4050 N   0  0  0  0  0  0  0  0  0  0  0  0
  137.6540   72.6660  221.1600 C   0  0  0  0  0  0  0  0  0  0  0  0
  137.4730   74.1380  221.0490 C   0  0  0  0  0  0  0  0  0  0  0  0
  138.4040   74.7800  220.5170 O   0  0  0  0  0  0  0  0  0  0  0  0
  136.2730   74.6950  221.5470 N   0  0  0  0  0  0  0  0  0  0  0  0
  134.9590   74.0820  221.2190 C   0  0  0  0  0  0  0  0  0  0  0  0
  134.2380   74.1110  222.5810 C   0  0  0  0  0  0  0  0  0  0  0  0
  135.2370   74.0410  223.7300 C   0  0  0  0  0  0  0  0  0  0  0  0
  136.1000   75.2960  223.8220 C   0  0  0  0  0  0  0  0  0  0  0  0
  136.1810   75.8480  222.4100 C   0  0  1  0  0  0  0  0  0  0  0  0
  137.1580   76.9060  222.2000 C   0  0  0  0  0  0  0  0  0  0  0  0
  136.9060   78.1050  221.9270 O   0  0  0  0  0  0  0  0  0  0  0  0
  138.5400   76.5630  222.3110 N   0  0  0  0  0  0  0  0  0  0  0  0
  139.6270   77.4920  222.1420 C   0  0  0  0  0  0  0  0  0  0  0  0
  140.7450   76.7910  221.4720 C   0  0  0  0  0  0  0  0  0  0  0  0
  140.8800   75.4300  221.7800 C   0  0  0  0  0  0  0  0  0  0  0  0
  141.8780   74.6630  221.2170 C   0  0  0  0  0  0  0  0  0  0  0  0
  142.7640   75.2400  220.3320 C   0  0  0  0  0  0  0  0  0  0  0  0
  143.8010   74.3840  219.7690 C   0  0  0  0  0  0  0  0  0  0  0  0
  143.7620   74.1930  218.3940 C   0  0  0  0  0  0  0  0  0  0  0  0
  144.7140   73.3880  217.7600 C   0  0  0  0  0  0  0  0  0  0  0  0
  145.6630   72.8070  218.5160 N   0  0  0  0  0  0  0  0  0  0  0  0
  145.6940   72.9960  219.8510 C   0  0  0  0  0  0  0  0  0  0  0  0
  144.7820   73.7790  220.5250 C   0  0  0  0  0  0  0  0  0  0  0  0
  142.6330   76.5780  220.0260 C   0  0  0  0  0  0  0  0  0  0  0  0
  141.6230   77.3670  220.5920 C   0  0  0  0  0  0  0  0  0  0  0  0
  138.8610   70.3660  223.9550 C   0  0  0  0  0  0  0  0  0  0  0  0
  138.8360   69.0080  224.1860 C   0  0  0  0  0  0  0  0  0  0  0  0
  139.3650   68.4160  225.3120 C   0  0  0  0  0  0  0  0  0  0  0  0
  139.9460   69.2210  226.2510 C   0  0  0  0  0  0  0  0  0  0  0  0
  140.4950   68.6780  227.4020 C   0  0  0  0  0  0  0  0  0  0  0  0
  141.0810   69.4860  228.3520 C   0  0  0  0  0  0  0  0  0  0  0  0
  141.1140   70.8460  228.1370 C   0  0  0  0  0  0  0  0  0  0  0  0
  140.5630   71.3800  226.9820 C   0  0  0  0  0  0  0  0  0  0  0  0
  139.9690   70.6000  226.0110 C   0  0  0  0  0  0  0  0  0  0  0  0
  139.4380   71.1330  224.8930 N   0  0  0  0  0  0  0  0  0  0  0  0
  138.7110   72.9290  223.0820 H   0  0  0  0  0  0  0  0  0  0  0  0
  138.2904   72.3265  220.3295 H   0  0  0  0  0  0  0  0  0  0  0  0
  136.6555   72.2059  221.1235 H   0  0  0  0  0  0  0  0  0  0  0  0
  134.4177   74.6765  220.4683 H   0  0  0  0  0  0  0  0  0  0  0  0
  135.0377   73.0756  220.7820 H   0  0  0  0  0  0  0  0  0  0  0  0
  133.6608   75.0439  222.6626 H   0  0  0  0  0  0  0  0  0  0  0  0
  133.5712   73.2383  222.6430 H   0  0  0  0  0  0  0  0  0  0  0  0
  134.6839   73.9217  224.6733 H   0  0  0  0  0  0  0  0  0  0  0  0
  135.9039   73.1859  223.5455 H   0  0  0  0  0  0  0  0  0  0  0  0
  135.6352   76.0318  224.4947 H   0  0  0  0  0  0  0  0  0  0  0  0
  137.0981   75.0717  224.2265 H   0  0  0  0  0  0  0  0  0  0  0  0
  135.2780   76.4249  222.1614 H   0  0  0  0  0  0  0  0  0  0  0  0
  138.8080   75.5600  222.5340 H   0  0  0  0  0  0  0  0  0  0  0  0
  139.2974   78.3401  221.5239 H   0  0  0  0  0  0  0  0  0  0  0  0
  139.9535   77.8717  223.1214 H   0  0  0  0  0  0  0  0  0  0  0  0
  140.1755   74.9646  222.4851 H   0  0  0  0  0  0  0  0  0  0  0  0
  141.9668   73.5968  221.4725 H   0  0  0  0  0  0  0  0  0  0  0  0
  142.9754   74.6791  217.7982 H   0  0  0  0  0  0  0  0  0  0  0  0
  144.6874   73.2339  216.6712 H   0  0  0  0  0  0  0  0  0  0  0  0
  146.4867   72.5005  220.4307 H   0  0  0  0  0  0  0  0  0  0  0  0
  144.8345   73.9148  221.6153 H   0  0  0  0  0  0  0  0  0  0  0  0
  143.3396   77.0378  219.3194 H   0  0  0  0  0  0  0  0  0  0  0  0
  141.5363   78.4327  220.3338 H   0  0  0  0  0  0  0  0  0  0  0  0
  138.3679   68.3607  223.4298 H   0  0  0  0  0  0  0  0  0  0  0  0
  139.3209   67.3257  225.4512 H   0  0  0  0  0  0  0  0  0  0  0  0
  140.4625   67.5897  227.5589 H   0  0  0  0  0  0  0  0  0  0  0  0
  141.5145   69.0527  229.2654 H   0  0  0  0  0  0  0  0  0  0  0  0
  141.5778   71.5091  228.8821 H   0  0  0  0  0  0  0  0  0  0  0  0
  140.6010   72.4693  226.8338 H   0  0  0  0  0  0  0  0  0  0  0  0
  1  2  2  0
  2  3  1  0
  3  4  1  0
  4  5  1  0
  5  6  2  0
  5  7  1  0
  7  8  1  0
  8  9  1  0
  9 10  1  0
 10 11  1  0
 11 12  1  0
 12 13  1  0
 13 14  2  0
 13 15  1  0
 15 16  1  0
 16 17  1  0
 17 18  2  0
 18 19  1  0
 19 20  2  0
 20 21  1  0
 21 22  2  0
 22 23  1  0
 23 24  2  0
 24 25  1  0
 25 26  2  0
 20 27  1  0
 27 28  2  0
  2 29  1  0
 29 30  2  0
 30 31  1  0
 31 32  2  0
 32 33  1  0
 33 34  2  0
 34 35  1  0
 35 36  2  0
 36 37  1  0
 37 38  2  0
 12  7  1  0
 28 17  1  0
 38 29  1  0
 26 21  1  0
 37 32  1  0
  3 39  1  0
  4 40  1  0
  4 41  1  0
  8 42  1  0
  8 43  1  0
  9 44  1  0
  9 45  1  0
 10 46  1  0
 10 47  1  0
 11 48  1  0
 11 49  1  0
 12 50  1  6
 15 51  1  0
 16 52  1  0
 16 53  1  0
 18 54  1  0
 19 55  1  0
 22 56  1  0
 23 57  1  0
 25 58  1  0
 26 59  1  0
 27 60  1  0
 28 61  1  0
 30 62  1  0
 31 63  1  0
 33 64  1  0
 34 65  1  0
 35 66  1  0
 36 67  1  0
M  END
>  <smiles>  (7) 
O=C(NCC(=O)N1CCCC[C@H]1C(=O)NCc1ccc(-c2ccncc2)cc1)c1ccc2ccccc2n1

>  <score_type>  (7) 
oracle

>  <origin>  (7) 
autodockgpu

>  <m_score__min__energy>  (7) 
-10.5

>  <m_primary>  (7) 
energy

>  <rmsd>  (7) 
4.767515965546661

>  <m_score__min__rmsd>  (7) 
4.767515965546661

>  <meeko>  (7) 
{"free_energy": -9.04, "intermolecular_energy": -11.43, "internal_energy": -2.89, "cluster_size": 2, "cluster_id": 2, "rank_in_cluster": 2}

>  <energy>  (7) 
-9.04

>  <cluster_rmsd>  (7) 
0.86

>  <cluster>  (7) 
2

$$$$

     RDKit          3D

 67 71  0  0  0  0  0  0  0  0999 V2000
  142.4560   77.1670  217.5880 O   0  0  0  0  0  0  0  0  0  0  0  0
  141.6630   77.1580  218.5640 C   0  0  0  0  0  0  0  0  0  0  0  0
  140.6910   76.1060  218.5910 N   0  0  0  0  0  0  0  0  0  0  0  0
  140.7070   75.1510  217.5080 C   0  0  0  0  0  0  0  0  0  0  0  0
  140.7320   73.7420  217.9810 C   0  0  0  0  0  0  0  0  0  0  0  0
  139.7050   73.0610  217.7740 O   0  0  0  0  0  0  0  0  0  0  0  0
  141.9050   73.2810  218.6220 N   0  0  0  0  0  0  0  0  0  0  0  0
  142.8890   72.4410  217.8900 C   0  0  0  0  0  0  0  0  0  0  0  0
  144.2320   73.0680  218.3170 C   0  0  0  0  0  0  0  0  0  0  0  0
  144.0660   74.5470  218.6460 C   0  0  0  0  0  0  0  0  0  0  0  0
  143.2200   74.7680  219.8970 C   0  0  0  0  0  0  0  0  0  0  0  0
  142.2850   73.5750  219.9830 C   0  0  1  0  0  0  0  0  0  0  0  0
  141.2100   73.6840  220.9570 C   0  0  0  0  0  0  0  0  0  0  0  0
  141.2070   74.4070  221.9820 O   0  0  0  0  0  0  0  0  0  0  0  0
  140.0380   72.8960  220.7400 N   0  0  0  0  0  0  0  0  0  0  0  0
  138.8850   72.8950  221.6020 C   0  0  0  0  0  0  0  0  0  0  0  0
  139.1420   71.9720  222.7300 C   0  0  0  0  0  0  0  0  0  0  0  0
  140.2950   72.2370  223.4810 C   0  0  0  0  0  0  0  0  0  0  0  0
  140.6420   71.4540  224.5620 C   0  0  0  0  0  0  0  0  0  0  0  0
  139.8430   70.3870  224.9160 C   0  0  0  0  0  0  0  0  0  0  0  0
  140.2590   69.5900  226.0650 C   0  0  0  0  0  0  0  0  0  0  0  0
  140.5930   70.2950  227.2130 C   0  0  0  0  0  0  0  0  0  0  0  0
  141.0050   69.6210  228.3680 C   0  0  0  0  0  0  0  0  0  0  0  0
  141.0680   68.2770  228.3320 N   0  0  0  0  0  0  0  0  0  0  0  0
  140.7430   67.6000  227.2120 C   0  0  0  0  0  0  0  0  0  0  0  0
  140.3310   68.2140  226.0490 C   0  0  0  0  0  0  0  0  0  0  0  0
  138.7080   70.1250  224.1790 C   0  0  0  0  0  0  0  0  0  0  0  0
  138.3450   70.9130  223.0800 C   0  0  0  0  0  0  0  0  0  0  0  0
  141.7400   78.1690  219.6010 C   0  0  0  0  0  0  0  0  0  0  0  0
  141.8340   79.4920  219.2290 C   0  0  0  0  0  0  0  0  0  0  0  0
  141.9110   80.5340  220.1270 C   0  0  0  0  0  0  0  0  0  0  0  0
  141.8930   80.2370  221.4610 C   0  0  0  0  0  0  0  0  0  0  0  0
  141.9680   81.2460  222.4090 C   0  0  0  0  0  0  0  0  0  0  0  0
  141.9500   80.9520  223.7540 C   0  0  0  0  0  0  0  0  0  0  0  0
  141.8560   79.6340  224.1440 C   0  0  0  0  0  0  0  0  0  0  0  0
  141.7820   78.6320  223.1890 C   0  0  0  0  0  0  0  0  0  0  0  0
  141.7960   78.8920  221.8340 C   0  0  0  0  0  0  0  0  0  0  0  0
  141.7230   77.9060  220.9170 N   0  0  0  0  0  0  0  0  0  0  0  0
  140.0220   76.0810  219.3900 H   0  0  0  0  0  0  0  0  0  0  0  0
  139.8057   75.2998  216.8952 H   0  0  0  0  0  0  0  0  0  0  0  0
  141.6271   75.3220  216.9300 H   0  0  0  0  0  0  0  0  0  0  0  0
  142.8237   71.3877  218.2005 H   0  0  0  0  0  0  0  0  0  0  0  0
  142.7343   72.4264  216.8010 H   0  0  0  0  0  0  0  0  0  0  0  0
  144.6075   72.5418  219.2070 H   0  0  0  0  0  0  0  0  0  0  0  0
  144.9433   72.9728  217.4833 H   0  0  0  0  0  0  0  0  0  0  0  0
  145.0607   74.9875  218.8087 H   0  0  0  0  0  0  0  0  0  0  0  0
  143.5498   75.0251  217.8005 H   0  0  0  0  0  0  0  0  0  0  0  0
  143.8616   74.8164  220.7892 H   0  0  0  0  0  0  0  0  0  0  0  0
  142.6628   75.7150  219.8456 H   0  0  0  0  0  0  0  0  0  0  0  0
  142.7967   72.7049  220.4201 H   0  0  0  0  0  0  0  0  0  0  0  0
  139.9920   72.2600  219.8910 H   0  0  0  0  0  0  0  0  0  0  0  0
  138.7084   73.9104  221.9864 H   0  0  0  0  0  0  0  0  0  0  0  0
  137.9965   72.5674  221.0422 H   0  0  0  0  0  0  0  0  0  0  0  0
  140.9361   73.0865  223.2028 H   0  0  0  0  0  0  0  0  0  0  0  0
  141.5512   71.6793  225.1388 H   0  0  0  0  0  0  0  0  0  0  0  0
  140.5333   71.3934  227.2149 H   0  0  0  0  0  0  0  0  0  0  0  0
  141.2703   70.1746  229.2808 H   0  0  0  0  0  0  0  0  0  0  0  0
  140.8101   66.5022  227.2274 H   0  0  0  0  0  0  0  0  0  0  0  0
  140.0721   67.6336  225.1512 H   0  0  0  0  0  0  0  0  0  0  0  0
  138.0705   69.2743  224.4617 H   0  0  0  0  0  0  0  0  0  0  0  0
  137.4344   70.6858  222.5063 H   0  0  0  0  0  0  0  0  0  0  0  0
  141.8484   79.7298  218.1551 H   0  0  0  0  0  0  0  0  0  0  0  0
  141.9848   81.5753  219.7802 H   0  0  0  0  0  0  0  0  0  0  0  0
  142.0428   82.2938  222.0827 H   0  0  0  0  0  0  0  0  0  0  0  0
  142.0096   81.7549  224.5035 H   0  0  0  0  0  0  0  0  0  0  0  0
  141.8397   79.3768  225.2134 H   0  0  0  0  0  0  0  0  0  0  0  0
  141.7091   77.5871  223.5251 H   0  0  0  0  0  0  0  0  0  0  0  0
  1  2  2  0
  2  3  1  0
  3  4  1  0
  4  5  1  0
  5  6  2  0
  5  7  1  0
  7  8  1  0
  8  9  1  0
  9 10  1  0
 10 11  1  0
 11 12  1  0
 12 13  1  0
 13 14  2  0
 13 15  1  0
 15 16  1  0
 16 17  1  0
 17 18  2  0
 18 19  1  0
 19 20  2  0
 20 21  1  0
 21 22  2  0
 22 23  1  0
 23 24  2  0
 24 25  1  0
 25 26  2  0
 20 27  1  0
 27 28  2  0
  2 29  1  0
 29 30  2  0
 30 31  1  0
 31 32  2  0
 32 33  1  0
 33 34  2  0
 34 35  1  0
 35 36  2  0
 36 37  1  0
 37 38  2  0
 12  7  1  0
 28 17  1  0
 38 29  1  0
 26 21  1  0
 37 32  1  0
  3 39  1  0
  4 40  1  0
  4 41  1  0
  8 42  1  0
  8 43  1  0
  9 44  1  0
  9 45  1  0
 10 46  1  0
 10 47  1  0
 11 48  1  0
 11 49  1  0
 12 50  1  1
 15 51  1  0
 16 52  1  0
 16 53  1  0
 18 54  1  0
 19 55  1  0
 22 56  1  0
 23 57  1  0
 25 58  1  0
 26 59  1  0
 27 60  1  0
 28 61  1  0
 30 62  1  0
 31 63  1  0
 33 64  1  0
 34 65  1  0
 35 66  1  0
 36 67  1  0
M  END
>  <smiles>  (8) 
O=C(NCC(=O)N1CCCC[C@H]1C(=O)NCc1ccc(-c2ccncc2)cc1)c1ccc2ccccc2n1

>  <score_type>  (8) 
oracle

>  <origin>  (8) 
autodockgpu

>  <m_score__min__energy>  (8) 
-10.5

>  <m_primary>  (8) 
energy

>  <rmsd>  (8) 
8.57236617146454

>  <m_score__min__rmsd>  (8) 
8.57236617146454

>  <meeko>  (8) 
{"free_energy": -8.58, "intermolecular_energy": -10.97, "internal_energy": -3.01, "cluster_size": 1, "cluster_id": 7, "rank_in_cluster": 1}

>  <energy>  (8) 
-9.07

>  <cluster_rmsd>  (8) 
0.0

>  <cluster>  (8) 
3

$$$$

     RDKit          3D

 67 71  0  0  0  0  0  0  0  0999 V2000
  139.8470   74.7750  218.3790 O   0  0  0  0  0  0  0  0  0  0  0  0
  140.6210   75.2890  219.2270 C   0  0  0  0  0  0  0  0  0  0  0  0
  141.0230   74.4540  220.3180 N   0  0  0  0  0  0  0  0  0  0  0  0
  140.5150   73.1020  220.3500 C   0  0  0  0  0  0  0  0  0  0  0  0
  140.1120   72.6690  221.7140 C   0  0  0  0  0  0  0  0  0  0  0  0
  140.5590   73.3370  222.6710 O   0  0  0  0  0  0  0  0  0  0  0  0
  139.2630   71.5440  221.8260 N   0  0  0  0  0  0  0  0  0  0  0  0
  139.7560   70.1840  221.4840 C   0  0  0  0  0  0  0  0  0  0  0  0
  139.1980   69.3350  222.6430 C   0  0  0  0  0  0  0  0  0  0  0  0
  139.0420   70.1700  223.9080 C   0  0  0  0  0  0  0  0  0  0  0  0
  137.9570   71.2340  223.7670 C   0  0  0  0  0  0  0  0  0  0  0  0
  137.8950   71.5710  222.2880 C   0  0  1  0  0  0  0  0  0  0  0  0
  137.1060   72.7420  221.9390 C   0  0  0  0  0  0  0  0  0  0  0  0
  136.0100   72.7440  221.3280 O   0  0  0  0  0  0  0  0  0  0  0  0
  137.6150   74.0220  222.3200 N   0  0  0  0  0  0  0  0  0  0  0  0
  136.9550   75.2740  222.0580 C   0  0  0  0  0  0  0  0  0  0  0  0
  137.9130   76.3730  222.3100 C   0  0  0  0  0  0  0  0  0  0  0  0
  139.2690   76.0240  222.2410 C   0  0  0  0  0  0  0  0  0  0  0  0
  140.2610   76.9590  222.4500 C   0  0  0  0  0  0  0  0  0  0  0  0
  139.9190   78.2650  222.7310 C   0  0  0  0  0  0  0  0  0  0  0  0
  141.0080   79.2100  222.9470 C   0  0  0  0  0  0  0  0  0  0  0  0
  140.6790   80.3890  223.6020 C   0  0  0  0  0  0  0  0  0  0  0  0
  141.6540   81.3600  223.8550 C   0  0  0  0  0  0  0  0  0  0  0  0
  142.9130   81.1200  223.4470 N   0  0  0  0  0  0  0  0  0  0  0  0
  143.2250   79.9730  222.8090 C   0  0  0  0  0  0  0  0  0  0  0  0
  142.3040   78.9840  222.5350 C   0  0  0  0  0  0  0  0  0  0  0  0
  138.5860   78.6110  222.7980 C   0  0  0  0  0  0  0  0  0  0  0  0
  137.5700   77.6700  222.5880 C   0  0  0  0  0  0  0  0  0  0  0  0
  141.0730   76.6610  219.0940 C   0  0  0  0  0  0  0  0  0  0  0  0
  142.2910   76.9010  218.4960 C   0  0  0  0  0  0  0  0  0  0  0  0
  142.8170   78.1620  218.3170 C   0  0  0  0  0  0  0  0  0  0  0  0
  142.0900   79.2320  218.7560 C   0  0  0  0  0  0  0  0  0  0  0  0
  142.5710   80.5230  218.6000 C   0  0  0  0  0  0  0  0  0  0  0  0
  141.8420   81.6050  219.0420 C   0  0  0  0  0  0  0  0  0  0  0  0
  140.6220   81.3830  219.6410 C   0  0  0  0  0  0  0  0  0  0  0  0
  140.1490   80.0880  219.7920 C   0  0  0  0  0  0  0  0  0  0  0  0
  140.8530   78.9830  219.3610 C   0  0  0  0  0  0  0  0  0  0  0  0
  140.3800   77.7300  219.5150 N   0  0  0  0  0  0  0  0  0  0  0  0
  141.6620   74.8610  221.0340 H   0  0  0  0  0  0  0  0  0  0  0  0
  139.6382   73.0404  219.6886 H   0  0  0  0  0  0  0  0  0  0  0  0
  141.3252   72.4363  220.0176 H   0  0  0  0  0  0  0  0  0  0  0  0
  139.3581   69.8473  220.5153 H   0  0  0  0  0  0  0  0  0  0  0  0
  140.8493   70.1239  221.3789 H   0  0  0  0  0  0  0  0  0  0  0  0
  138.2155   68.9336  222.3539 H   0  0  0  0  0  0  0  0  0  0  0  0
  139.9041   68.5170  222.8488 H   0  0  0  0  0  0  0  0  0  0  0  0
  138.7779   69.5033  224.7421 H   0  0  0  0  0  0  0  0  0  0  0  0
  139.9968   70.6841  224.0929 H   0  0  0  0  0  0  0  0  0  0  0  0
  136.9888   70.8412  224.1109 H   0  0  0  0  0  0  0  0  0  0  0  0
  138.1814   72.1229  224.3749 H   0  0  0  0  0  0  0  0  0  0  0  0
  137.3044   70.8229  221.7388 H   0  0  0  0  0  0  0  0  0  0  0  0
  138.5430   74.0770  222.8340 H   0  0  0  0  0  0  0  0  0  0  0  0
  136.6219   75.3054  221.0101 H   0  0  0  0  0  0  0  0  0  0  0  0
  136.0781   75.3815  222.7133 H   0  0  0  0  0  0  0  0  0  0  0  0
  139.5472   74.9839  222.0157 H   0  0  0  0  0  0  0  0  0  0  0  0
  141.3193   76.6646  222.3928 H   0  0  0  0  0  0  0  0  0  0  0  0
  139.6418   80.5614  223.9252 H   0  0  0  0  0  0  0  0  0  0  0  0
  141.3976   82.2953  224.3740 H   0  0  0  0  0  0  0  0  0  0  0  0
  144.2668   79.8189  222.4913 H   0  0  0  0  0  0  0  0  0  0  0  0
  142.5897   78.0590  222.0127 H   0  0  0  0  0  0  0  0  0  0  0  0
  138.3134   79.6529  223.0222 H   0  0  0  0  0  0  0  0  0  0  0  0
  136.5126   77.9678  222.6454 H   0  0  0  0  0  0  0  0  0  0  0  0
  142.8754   76.0388  218.1422 H   0  0  0  0  0  0  0  0  0  0  0  0
  143.7952   78.3031  217.8340 H   0  0  0  0  0  0  0  0  0  0  0  0
  143.5462   80.6851  218.1176 H   0  0  0  0  0  0  0  0  0  0  0  0
  142.2274   82.6279  218.9187 H   0  0  0  0  0  0  0  0  0  0  0  0
  140.0226   82.2328  219.9997 H   0  0  0  0  0  0  0  0  0  0  0  0
  139.1726   79.9360  220.2752 H   0  0  0  0  0  0  0  0  0  0  0  0
  1  2  2  0
  2  3  1  0
  3  4  1  0
  4  5  1  0
  5  6  2  0
  5  7  1  0
  7  8  1  0
  8  9  1  0
  9 10  1  0
 10 11  1  0
 11 12  1  0
 12 13  1  0
 13 14  2  0
 13 15  1  0
 15 16  1  0
 16 17  1  0
 17 18  2  0
 18 19  1  0
 19 20  2  0
 20 21  1  0
 21 22  2  0
 22 23  1  0
 23 24  2  0
 24 25  1  0
 25 26  2  0
 20 27  1  0
 27 28  2  0
  2 29  1  0
 29 30  2  0
 30 31  1  0
 31 32  2  0
 32 33  1  0
 33 34  2  0
 34 35  1  0
 35 36  2  0
 36 37  1  0
 37 38  2  0
 12  7  1  0
 28 17  1  0
 38 29  1  0
 26 21  1  0
 37 32  1  0
  3 39  1  0
  4 40  1  0
  4 41  1  0
  8 42  1  0
  8 43  1  0
  9 44  1  0
  9 45  1  0
 10 46  1  0
 10 47  1  0
 11 48  1  0
 11 49  1  0
 12 50  1  6
 15 51  1  0
 16 52  1  0
 16 53  1  0
 18 54  1  0
 19 55  1  0
 22 56  1  0
 23 57  1  0
 25 58  1  0
 26 59  1  0
 27 60  1  0
 28 61  1  0
 30 62  1  0
 31 63  1  0
 33 64  1  0
 34 65  1  0
 35 66  1  0
 36 67  1  0
M  END
>  <smiles>  (9) 
O=C(NCC(=O)N1CCCC[C@H]1C(=O)NCc1ccc(-c2ccncc2)cc1)c1ccc2ccccc2n1

>  <score_type>  (9) 
oracle

>  <origin>  (9) 
autodockgpu

>  <m_score__min__energy>  (9) 
-10.5

>  <m_primary>  (9) 
energy

>  <rmsd>  (9) 
8.261832362630054

>  <m_score__min__rmsd>  (9) 
8.261832362630054

>  <meeko>  (9) 
{"free_energy": -7.11, "intermolecular_energy": -9.49, "internal_energy": -4.91, "cluster_size": 4, "cluster_id": 9, "rank_in_cluster": 3}

>  <energy>  (9) 
-9.04

>  <cluster_rmsd>  (9) 
1.48

>  <cluster>  (9) 
3

$$$$

     RDKit          3D

 67 71  0  0  0  0  0  0  0  0999 V2000
  139.2680   68.3130  222.0210 O   0  0  0  0  0  0  0  0  0  0  0  0
  139.1820   69.4390  222.5740 C   0  0  0  0  0  0  0  0  0  0  0  0
  138.7370   70.5240  221.7530 N   0  0  0  0  0  0  0  0  0  0  0  0
  138.4220   70.2360  220.3730 C   0  0  0  0  0  0  0  0  0  0  0  0
  139.4150   70.8040  219.4240 C   0  0  0  0  0  0  0  0  0  0  0  0
  139.0050   71.0680  218.2730 O   0  0  0  0  0  0  0  0  0  0  0  0
  140.7350   71.0020  219.8890 N   0  0  0  0  0  0  0  0  0  0  0  0
  141.7760   69.9590  219.6840 C   0  0  0  0  0  0  0  0  0  0  0  0
  142.9900   70.7960  219.2340 C   0  0  0  0  0  0  0  0  0  0  0  0
  142.5450   72.0700  218.5250 C   0  0  0  0  0  0  0  0  0  0  0  0
  141.8450   73.0420  219.4720 C   0  0  0  0  0  0  0  0  0  0  0  0
  141.2190   72.1870  220.5580 C   0  0  1  0  0  0  0  0  0  0  0  0
  140.2860   72.8690  221.4410 C   0  0  0  0  0  0  0  0  0  0  0  0
  140.2750   72.8150  222.6940 O   0  0  0  0  0  0  0  0  0  0  0  0
  139.2780   73.6830  220.8380 N   0  0  0  0  0  0  0  0  0  0  0  0
  138.2870   74.4300  221.5690 C   0  0  0  0  0  0  0  0  0  0  0  0
  138.8760   75.7280  221.9680 C   0  0  0  0  0  0  0  0  0  0  0  0
  140.2620   75.8450  221.7950 C   0  0  0  0  0  0  0  0  0  0  0  0
  140.9300   77.0060  222.1230 C   0  0  0  0  0  0  0  0  0  0  0  0
  140.2260   78.0770  222.6320 C   0  0  0  0  0  0  0  0  0  0  0  0
  140.9830   79.2780  222.9650 C   0  0  0  0  0  0  0  0  0  0  0  0
  140.4880   80.4750  222.4640 C   0  0  0  0  0  0  0  0  0  0  0  0
  141.1440   81.6820  222.7280 C   0  0  0  0  0  0  0  0  0  0  0  0
  142.2610   81.6500  223.4770 N   0  0  0  0  0  0  0  0  0  0  0  0
  142.7360   80.4830  223.9590 C   0  0  0  0  0  0  0  0  0  0  0  0
  142.1290   79.2670  223.7290 C   0  0  0  0  0  0  0  0  0  0  0  0
  138.8630   77.9650  222.8020 C   0  0  0  0  0  0  0  0  0  0  0  0
  138.1740   76.7910  222.4730 C   0  0  0  0  0  0  0  0  0  0  0  0
  139.5220   69.6140  223.9730 C   0  0  0  0  0  0  0  0  0  0  0  0
  139.1920   68.6160  224.8640 C   0  0  0  0  0  0  0  0  0  0  0  0
  139.4670   68.6760  226.2130 C   0  0  0  0  0  0  0  0  0  0  0  0
  140.1040   69.7860  226.6920 C   0  0  0  0  0  0  0  0  0  0  0  0
  140.4060   69.8990  228.0400 C   0  0  0  0  0  0  0  0  0  0  0  0
  141.0470   71.0170  228.5280 C   0  0  0  0  0  0  0  0  0  0  0  0
  141.3850   72.0230  227.6510 C   0  0  0  0  0  0  0  0  0  0  0  0
  141.0780   71.9020  226.3040 C   0  0  0  0  0  0  0  0  0  0  0  0
  140.4380   70.7960  225.7820 C   0  0  0  0  0  0  0  0  0  0  0  0
  140.1470   70.6930  224.4700 N   0  0  0  0  0  0  0  0  0  0  0  0
  138.6610   71.4670  222.1910 H   0  0  0  0  0  0  0  0  0  0  0  0
  138.3931   69.1445  220.2397 H   0  0  0  0  0  0  0  0  0  0  0  0
  137.4497   70.7005  220.1517 H   0  0  0  0  0  0  0  0  0  0  0  0
  141.9884   69.4182  220.6181 H   0  0  0  0  0  0  0  0  0  0  0  0
  141.4851   69.1798  218.9641 H   0  0  0  0  0  0  0  0  0  0  0  0
  143.5875   71.0662  220.1172 H   0  0  0  0  0  0  0  0  0  0  0  0
  143.5877   70.1958  218.5321 H   0  0  0  0  0  0  0  0  0  0  0  0
  143.4296   72.5657  218.0987 H   0  0  0  0  0  0  0  0  0  0  0  0
  141.8279   71.7872  217.7403 H   0  0  0  0  0  0  0  0  0  0  0  0
  142.5727   73.7421  219.9082 H   0  0  0  0  0  0  0  0  0  0  0  0
  141.0892   73.6441  218.9463 H   0  0  0  0  0  0  0  0  0  0  0  0
  141.9659   71.9063  221.3152 H   0  0  0  0  0  0  0  0  0  0  0  0
  139.2380   73.7590  219.7800 H   0  0  0  0  0  0  0  0  0  0  0  0
  137.4074   74.6022  220.9313 H   0  0  0  0  0  0  0  0  0  0  0  0
  137.9745   73.8681  222.4615 H   0  0  0  0  0  0  0  0  0  0  0  0
  140.8283   74.9936  221.3894 H   0  0  0  0  0  0  0  0  0  0  0  0
  142.0182   77.0774  221.9794 H   0  0  0  0  0  0  0  0  0  0  0  0
  139.5723   80.4739  221.8544 H   0  0  0  0  0  0  0  0  0  0  0  0
  140.7565   82.6328  222.3333 H   0  0  0  0  0  0  0  0  0  0  0  0
  143.6533   80.5028  224.5657 H   0  0  0  0  0  0  0  0  0  0  0  0
  142.5405   78.3318  224.1365 H   0  0  0  0  0  0  0  0  0  0  0  0
  138.3016   78.8200  223.2067 H   0  0  0  0  0  0  0  0  0  0  0  0
  137.0857   76.7232  222.6178 H   0  0  0  0  0  0  0  0  0  0  0  0
  138.6809   67.7221  224.4771 H   0  0  0  0  0  0  0  0  0  0  0  0
  139.1817   67.8535  226.8853 H   0  0  0  0  0  0  0  0  0  0  0  0
  140.1307   69.0865  228.7285 H   0  0  0  0  0  0  0  0  0  0  0  0
  141.2842   71.1040  229.5986 H   0  0  0  0  0  0  0  0  0  0  0  0
  141.8989   72.9233  228.0189 H   0  0  0  0  0  0  0  0  0  0  0  0
  141.3558   72.7207  225.6239 H   0  0  0  0  0  0  0  0  0  0  0  0
  1  2  2  0
  2  3  1  0
  3  4  1  0
  4  5  1  0
  5  6  2  0
  5  7  1  0
  7  8  1  0
  8  9  1  0
  9 10  1  0
 10 11  1  0
 11 12  1  0
 12 13  1  0
 13 14  2  0
 13 15  1  0
 15 16  1  0
 16 17  1  0
 17 18  2  0
 18 19  1  0
 19 20  2  0
 20 21  1  0
 21 22  2  0
 22 23  1  0
 23 24  2  0
 24 25  1  0
 25 26  2  0
 20 27  1  0
 27 28  2  0
  2 29  1  0
 29 30  2  0
 30 31  1  0
 31 32  2  0
 32 33  1  0
 33 34  2  0
 34 35  1  0
 35 36  2  0
 36 37  1  0
 37 38  2  0
 12  7  1  0
 28 17  1  0
 38 29  1  0
 26 21  1  0
 37 32  1  0
  3 39  1  0
  4 40  1  0
  4 41  1  0
  8 42  1  0
  8 43  1  0
  9 44  1  0
  9 45  1  0
 10 46  1  0
 10 47  1  0
 11 48  1  0
 11 49  1  0
 12 50  1  1
 15 51  1  0
 16 52  1  0
 16 53  1  0
 18 54  1  0
 19 55  1  0
 22 56  1  0
 23 57  1  0
 25 58  1  0
 26 59  1  0
 27 60  1  0
 28 61  1  0
 30 62  1  0
 31 63  1  0
 33 64  1  0
 34 65  1  0
 35 66  1  0
 36 67  1  0
M  END
>  <smiles>  (10) 
O=C(NCC(=O)N1CCCC[C@H]1C(=O)NCc1ccc(-c2ccncc2)cc1)c1ccc2ccccc2n1

>  <score_type>  (10) 
oracle

>  <origin>  (10) 
autodockgpu

>  <m_score__min__energy>  (10) 
-10.5

>  <m_primary>  (10) 
energy

>  <rmsd>  (10) 
4.1771178939228975

>  <m_score__min__rmsd>  (10) 
4.1771178939228975

>  <meeko>  (10) 
{"free_energy": -8.98, "intermolecular_energy": -11.36, "internal_energy": -3.19, "cluster_size": 4, "cluster_id": 5, "rank_in_cluster": 2}

>  <energy>  (10) 
-8.77

>  <cluster_rmsd>  (10) 
1.48

>  <cluster>  (10) 
3

$$$$

     RDKit          3D

 67 71  0  0  0  0  0  0  0  0999 V2000
  139.5980   74.5270  222.2690 O   0  0  0  0  0  0  0  0  0  0  0  0
  140.0850   75.4570  221.5760 C   0  0  0  0  0  0  0  0  0  0  0  0
  140.4370   75.1340  220.2260 N   0  0  0  0  0  0  0  0  0  0  0  0
  140.2020   73.7820  219.7770 C   0  0  0  0  0  0  0  0  0  0  0  0
  141.4110   73.1510  219.1860 C   0  0  0  0  0  0  0  0  0  0  0  0
  141.2210   72.2020  218.3950 O   0  0  0  0  0  0  0  0  0  0  0  0
  142.6740   73.6660  219.5580 N   0  0  0  0  0  0  0  0  0  0  0  0
  143.2980   73.2810  220.8520 C   0  0  0  0  0  0  0  0  0  0  0  0
  144.7610   73.0190  220.4400 C   0  0  0  0  0  0  0  0  0  0  0  0
  144.8490   72.5630  218.9890 C   0  0  0  0  0  0  0  0  0  0  0  0
  144.4560   73.6670  218.0120 C   0  0  0  0  0  0  0  0  0  0  0  0
  143.4820   74.5580  218.7620 C   0  0  1  0  0  0  0  0  0  0  0  0
  142.7760   75.5410  217.9550 C   0  0  0  0  0  0  0  0  0  0  0  0
  141.5630   75.5050  217.6340 O   0  0  0  0  0  0  0  0  0  0  0  0
  143.5200   76.6620  217.4740 N   0  0  0  0  0  0  0  0  0  0  0  0
  142.9700   77.7240  216.6740 C   0  0  0  0  0  0  0  0  0  0  0  0
  142.3540   78.7230  217.5760 C   0  0  0  0  0  0  0  0  0  0  0  0
  141.1400   78.3430  218.1640 C   0  0  0  0  0  0  0  0  0  0  0  0
  140.4690   79.1810  219.0290 C   0  0  0  0  0  0  0  0  0  0  0  0
  140.9980   80.4200  219.3260 C   0  0  0  0  0  0  0  0  0  0  0  0
  140.2460   81.2670  220.2440 C   0  0  0  0  0  0  0  0  0  0  0  0
  140.8800   82.4250  220.6720 C   0  0  0  0  0  0  0  0  0  0  0  0
  140.2410   83.3030  221.5540 C   0  0  0  0  0  0  0  0  0  0  0  0
  139.0000   82.9940  221.9730 N   0  0  0  0  0  0  0  0  0  0  0  0
  138.3900   81.8660  221.5530 C   0  0  0  0  0  0  0  0  0  0  0  0
  138.9750   80.9680  220.6860 C   0  0  0  0  0  0  0  0  0  0  0  0
  142.1930   80.7950  218.7500 C   0  0  0  0  0  0  0  0  0  0  0  0
  142.8830   79.9520  217.8710 C   0  0  0  0  0  0  0  0  0  0  0  0
  140.2750   76.7830  222.1310 C   0  0  0  0  0  0  0  0  0  0  0  0
  139.1940   77.4280  222.6890 C   0  0  0  0  0  0  0  0  0  0  0  0
  139.2600   78.6870  223.2460 C   0  0  0  0  0  0  0  0  0  0  0  0
  140.4650   79.3300  223.2430 C   0  0  0  0  0  0  0  0  0  0  0  0
  140.5890   80.5980  223.7890 C   0  0  0  0  0  0  0  0  0  0  0  0
  141.8030   81.2500  223.7890 C   0  0  0  0  0  0  0  0  0  0  0  0
  142.8950   80.6190  223.2350 C   0  0  0  0  0  0  0  0  0  0  0  0
  142.7610   79.3510  222.6910 C   0  0  0  0  0  0  0  0  0  0  0  0
  141.5610   78.6700  222.6760 C   0  0  0  0  0  0  0  0  0  0  0  0
  141.4470   77.4370  222.1420 N   0  0  0  0  0  0  0  0  0  0  0  0
  140.8450   75.8900  219.6350 H   0  0  0  0  0  0  0  0  0  0  0  0
  139.8755   73.1783  220.6366 H   0  0  0  0  0  0  0  0  0  0  0  0
  139.4335   73.8238  218.9910 H   0  0  0  0  0  0  0  0  0  0  0  0
  143.2301   74.0971  221.5865 H   0  0  0  0  0  0  0  0  0  0  0  0
  142.8143   72.4209  221.3380 H   0  0  0  0  0  0  0  0  0  0  0  0
  145.3399   73.9465  220.5608 H   0  0  0  0  0  0  0  0  0  0  0  0
  145.1674   72.2232  221.0815 H   0  0  0  0  0  0  0  0  0  0  0  0
  145.8833   72.2543  218.7770 H   0  0  0  0  0  0  0  0  0  0  0  0
  144.1458   71.7278  218.8547 H   0  0  0  0  0  0  0  0  0  0  0  0
  145.3430   74.2415  217.7066 H   0  0  0  0  0  0  0  0  0  0  0  0
  144.0049   73.2553  217.0971 H   0  0  0  0  0  0  0  0  0  0  0  0
  144.0166   75.2587  219.4202 H   0  0  0  0  0  0  0  0  0  0  0  0
  144.5530   76.7370  217.7110 H   0  0  0  0  0  0  0  0  0  0  0  0
  143.7701   78.1983  216.0867 H   0  0  0  0  0  0  0  0  0  0  0  0
  142.2129   77.3222  215.9846 H   0  0  0  0  0  0  0  0  0  0  0  0
  140.7138   77.3561  217.9306 H   0  0  0  0  0  0  0  0  0  0  0  0
  139.5172   78.8635  219.4798 H   0  0  0  0  0  0  0  0  0  0  0  0
  141.8946   82.6546  220.3143 H   0  0  0  0  0  0  0  0  0  0  0  0
  140.7398   84.2218  221.8960 H   0  0  0  0  0  0  0  0  0  0  0  0
  137.3755   81.6524  221.9207 H   0  0  0  0  0  0  0  0  0  0  0  0
  138.4523   80.0559  220.3622 H   0  0  0  0  0  0  0  0  0  0  0  0
  142.6154   81.7826  218.9874 H   0  0  0  0  0  0  0  0  0  0  0  0
  143.8358   80.2715  217.4237 H   0  0  0  0  0  0  0  0  0  0  0  0
  138.2238   76.9097  222.6903 H   0  0  0  0  0  0  0  0  0  0  0  0
  138.3674   79.1606  223.6807 H   0  0  0  0  0  0  0  0  0  0  0  0
  139.7080   81.0896  224.2274 H   0  0  0  0  0  0  0  0  0  0  0  0
  141.8983   82.2560  224.2235 H   0  0  0  0  0  0  0  0  0  0  0  0
  143.8735   81.1214  223.2243 H   0  0  0  0  0  0  0  0  0  0  0  0
  143.6473   78.8681  222.2535 H   0  0  0  0  0  0  0  0  0  0  0  0
  1  2  2  0
  2  3  1  0
  3  4  1  0
  4  5  1  0
  5  6  2  0
  5  7  1  0
  7  8  1  0
  8  9  1  0
  9 10  1  0
 10 11  1  0
 11 12  1  0
 12 13  1  0
 13 14  2  0
 13 15  1  0
 15 16  1  0
 16 17  1  0
 17 18  2  0
 18 19  1  0
 19 20  2  0
 20 21  1  0
 21 22  2  0
 22 23  1  0
 23 24  2  0
 24 25  1  0
 25 26  2  0
 20 27  1  0
 27 28  2  0
  2 29  1  0
 29 30  2  0
 30 31  1  0
 31 32  2  0
 32 33  1  0
 33 34  2  0
 34 35  1  0
 35 36  2  0
 36 37  1  0
 37 38  2  0
 12  7  1  0
 28 17  1  0
 38 29  1  0
 26 21  1  0
 37 32  1  0
  3 39  1  0
  4 40  1  0
  4 41  1  0
  8 42  1  0
  8 43  1  0
  9 44  1  0
  9 45  1  0
 10 46  1  0
 10 47  1  0
 11 48  1  0
 11 49  1  0
 12 50  1  1
 15 51  1  0
 16 52  1  0
 16 53  1  0
 18 54  1  0
 19 55  1  0
 22 56  1  0
 23 57  1  0
 25 58  1  0
 26 59  1  0
 27 60  1  0
 28 61  1  0
 30 62  1  0
 31 63  1  0
 33 64  1  0
 34 65  1  0
 35 66  1  0
 36 67  1  0
M  END
>  <smiles>  (11) 
O=C(NCC(=O)N1CCCC[C@H]1C(=O)NCc1ccc(-c2ccncc2)cc1)c1ccc2ccccc2n1

>  <score_type>  (11) 
oracle

>  <origin>  (11) 
autodockgpu

>  <m_score__min__energy>  (11) 
-10.5

>  <m_primary>  (11) 
energy

>  <rmsd>  (11) 
6.842075784160628

>  <m_score__min__rmsd>  (11) 
6.842075784160628

>  <meeko>  (11) 
{"free_energy": -7.24, "intermolecular_energy": -9.63, "internal_energy": -4.85, "cluster_size": 12, "cluster_id": 11, "rank_in_cluster": 5}

>  <energy>  (11) 
-8.71

>  <cluster_rmsd>  (11) 
1.43

>  <cluster>  (11) 
3

$$$$

     RDKit          3D

 67 71  0  0  0  0  0  0  0  0999 V2000
  139.5000   70.2970  221.8590 O   0  0  0  0  0  0  0  0  0  0  0  0
  139.4360   71.1840  222.7490 C   0  0  0  0  0  0  0  0  0  0  0  0
  138.9550   72.4690  222.3390 N   0  0  0  0  0  0  0  0  0  0  0  0
  138.5850   72.6350  220.9530 C   0  0  0  0  0  0  0  0  0  0  0  0
  139.5520   73.4700  220.1930 C   0  0  0  0  0  0  0  0  0  0  0  0
  139.2210   73.7980  219.0330 O   0  0  0  0  0  0  0  0  0  0  0  0
  140.7610   73.8270  220.8310 N   0  0  0  0  0  0  0  0  0  0  0  0
  141.7870   72.7970  221.1430 C   0  0  0  0  0  0  0  0  0  0  0  0
  143.0920   73.5000  220.7200 C   0  0  0  0  0  0  0  0  0  0  0  0
  142.8360   74.5050  219.6040 C   0  0  0  0  0  0  0  0  0  0  0  0
  141.9970   75.6890  220.0750 C   0  0  0  0  0  0  0  0  0  0  0  0
  141.1420   75.1660  221.2150 C   0  0  1  0  0  0  0  0  0  0  0  0
  140.0770   76.0490  221.6640 C   0  0  0  0  0  0  0  0  0  0  0  0
  140.0220   76.6460  222.7660 O   0  0  0  0  0  0  0  0  0  0  0  0
  138.9790   76.2670  220.7760 N   0  0  0  0  0  0  0  0  0  0  0  0
  137.8530   77.1170  221.0640 C   0  0  0  0  0  0  0  0  0  0  0  0
  137.0310   76.4690  222.1100 C   0  0  0  0  0  0  0  0  0  0  0  0
  136.2570   77.3340  222.8960 C   0  0  0  0  0  0  0  0  0  0  0  0
  135.4430   76.8540  223.9010 C   0  0  0  0  0  0  0  0  0  0  0  0
  135.3840   75.4980  224.1420 C   0  0  0  0  0  0  0  0  0  0  0  0
  134.5100   75.0460  225.2180 C   0  0  0  0  0  0  0  0  0  0  0  0
  134.3790   73.6720  225.3670 C   0  0  0  0  0  0  0  0  0  0  0  0
  133.5620   73.1390  226.3710 C   0  0  0  0  0  0  0  0  0  0  0  0
  132.9110   73.9930  227.1820 N   0  0  0  0  0  0  0  0  0  0  0  0
  133.0440   75.3270  227.0300 C   0  0  0  0  0  0  0  0  0  0  0  0
  133.8340   75.9030  226.0590 C   0  0  0  0  0  0  0  0  0  0  0  0
  136.1440   74.6450  223.3690 C   0  0  0  0  0  0  0  0  0  0  0  0
  136.9740   75.1200  222.3470 C   0  0  0  0  0  0  0  0  0  0  0  0
  139.8330   70.9040  224.1150 C   0  0  0  0  0  0  0  0  0  0  0  0
  140.4760   71.8900  224.8320 C   0  0  0  0  0  0  0  0  0  0  0  0
  140.8960   71.7360  226.1350 C   0  0  0  0  0  0  0  0  0  0  0  0
  140.6620   70.5380  226.7490 C   0  0  0  0  0  0  0  0  0  0  0  0
  141.0630   70.3280  228.0590 C   0  0  0  0  0  0  0  0  0  0  0  0
  140.8300   69.1210  228.6830 C   0  0  0  0  0  0  0  0  0  0  0  0
  140.1890   68.1250  227.9810 C   0  0  0  0  0  0  0  0  0  0  0  0
  139.7910   68.3450  226.6710 C   0  0  0  0  0  0  0  0  0  0  0  0
  140.0080   69.5400  226.0170 C   0  0  0  0  0  0  0  0  0  0  0  0
  139.6160   69.7380  224.7430 N   0  0  0  0  0  0  0  0  0  0  0  0
  138.8960   73.2200  223.0590 H   0  0  0  0  0  0  0  0  0  0  0  0
  138.5325   71.6422  220.4823 H   0  0  0  0  0  0  0  0  0  0  0  0
  137.6136   73.1505  220.9297 H   0  0  0  0  0  0  0  0  0  0  0  0
  141.7946   72.5535  222.2157 H   0  0  0  0  0  0  0  0  0  0  0  0
  141.6177   71.8364  220.6345 H   0  0  0  0  0  0  0  0  0  0  0  0
  143.5141   74.0270  221.5884 H   0  0  0  0  0  0  0  0  0  0  0  0
  143.7952   72.7390  220.3507 H   0  0  0  0  0  0  0  0  0  0  0  0
  143.8026   74.8799  219.2365 H   0  0  0  0  0  0  0  0  0  0  0  0
  142.2770   73.9906  218.8084 H   0  0  0  0  0  0  0  0  0  0  0  0
  142.6477   76.5030  220.4271 H   0  0  0  0  0  0  0  0  0  0  0  0
  141.3793   76.0956  219.2606 H   0  0  0  0  0  0  0  0  0  0  0  0
  141.7153   75.1336  222.1532 H   0  0  0  0  0  0  0  0  0  0  0  0
  138.9720   75.7800  219.8320 H   0  0  0  0  0  0  0  0  0  0  0  0
  138.2080   78.0941  221.4234 H   0  0  0  0  0  0  0  0  0  0  0  0
  137.2536   77.2697  220.1544 H   0  0  0  0  0  0  0  0  0  0  0  0
  136.2996   78.4169  222.7077 H   0  0  0  0  0  0  0  0  0  0  0  0
  134.8440   77.5497  224.5070 H   0  0  0  0  0  0  0  0  0  0  0  0
  134.9221   72.9961  224.6901 H   0  0  0  0  0  0  0  0  0  0  0  0
  133.4550   72.0511  226.4937 H   0  0  0  0  0  0  0  0  0  0  0  0
  132.4940   75.9882  227.7158 H   0  0  0  0  0  0  0  0  0  0  0  0
  133.9209   76.9951  225.9599 H   0  0  0  0  0  0  0  0  0  0  0  0
  136.0965   73.5629  223.5608 H   0  0  0  0  0  0  0  0  0  0  0  0
  137.5716   74.4213  221.7430 H   0  0  0  0  0  0  0  0  0  0  0  0
  140.6643   72.8537  224.3361 H   0  0  0  0  0  0  0  0  0  0  0  0
  141.4051   72.5540  226.6658 H   0  0  0  0  0  0  0  0  0  0  0  0
  141.5731   71.1338  228.6072 H   0  0  0  0  0  0  0  0  0  0  0  0
  141.1503   68.9567  229.7224 H   0  0  0  0  0  0  0  0  0  0  0  0
  139.9925   67.1542  228.4596 H   0  0  0  0  0  0  0  0  0  0  0  0
  139.2813   67.5333  226.1312 H   0  0  0  0  0  0  0  0  0  0  0  0
  1  2  2  0
  2  3  1  0
  3  4  1  0
  4  5  1  0
  5  6  2  0
  5  7  1  0
  7  8  1  0
  8  9  1  0
  9 10  1  0
 10 11  1  0
 11 12  1  0
 12 13  1  0
 13 14  2  0
 13 15  1  0
 15 16  1  0
 16 17  1  0
 17 18  2  0
 18 19  1  0
 19 20  2  0
 20 21  1  0
 21 22  2  0
 22 23  1  0
 23 24  2  0
 24 25  1  0
 25 26  2  0
 20 27  1  0
 27 28  2  0
  2 29  1  0
 29 30  2  0
 30 31  1  0
 31 32  2  0
 32 33  1  0
 33 34  2  0
 34 35  1  0
 35 36  2  0
 36 37  1  0
 37 38  2  0
 12  7  1  0
 28 17  1  0
 38 29  1  0
 26 21  1  0
 37 32  1  0
  3 39  1  0
  4 40  1  0
  4 41  1  0
  8 42  1  0
  8 43  1  0
  9 44  1  0
  9 45  1  0
 10 46  1  0
 10 47  1  0
 11 48  1  0
 11 49  1  0
 12 50  1  1
 15 51  1  0
 16 52  1  0
 16 53  1  0
 18 54  1  0
 19 55  1  0
 22 56  1  0
 23 57  1  0
 25 58  1  0
 26 59  1  0
 27 60  1  0
 28 61  1  0
 30 62  1  0
 31 63  1  0
 33 64  1  0
 34 65  1  0
 35 66  1  0
 36 67  1  0
M  END
>  <smiles>  (12) 
O=C(NCC(=O)N1CCCC[C@H]1C(=O)NCc1ccc(-c2ccncc2)cc1)c1ccc2ccccc2n1

>  <score_type>  (12) 
oracle

>  <origin>  (12) 
autodockgpu

>  <m_score__min__energy>  (12) 
-10.5

>  <m_primary>  (12) 
energy

>  <rmsd>  (12) 
4.362537807840874

>  <m_score__min__rmsd>  (12) 
4.362537807840874

>  <meeko>  (12) 
{"free_energy": -9.07, "intermolecular_energy": -11.46, "internal_energy": -3.27, "cluster_size": 9, "cluster_id": 3, "rank_in_cluster": 1}

>  <energy>  (12) 
-8.52

>  <cluster_rmsd>  (12) 
1.36

>  <cluster>  (12) 
3

$$$$

     RDKit          3D

 67 71  0  0  0  0  0  0  0  0999 V2000
  139.5290   69.9200  221.1270 O   0  0  0  0  0  0  0  0  0  0  0  0
  139.8640   70.8080  221.9510 C   0  0  0  0  0  0  0  0  0  0  0  0
  140.2540   72.0750  221.4070 N   0  0  0  0  0  0  0  0  0  0  0  0
  140.2230   72.2250  219.9710 C   0  0  0  0  0  0  0  0  0  0  0  0
  140.5510   73.6050  219.5280 C   0  0  0  0  0  0  0  0  0  0  0  0
  139.8970   74.0560  218.5630 O   0  0  0  0  0  0  0  0  0  0  0  0
  141.5680   74.2980  220.2230 N   0  0  0  0  0  0  0  0  0  0  0  0
  142.9440   73.7410  220.3080 C   0  0  0  0  0  0  0  0  0  0  0  0
  143.8150   74.9840  220.0380 C   0  0  0  0  0  0  0  0  0  0  0  0
  143.0790   75.9880  219.1580 C   0  0  0  0  0  0  0  0  0  0  0  0
  141.8820   76.6100  219.8710 C   0  0  0  0  0  0  0  0  0  0  0  0
  141.4140   75.5760  220.8780 C   0  0  1  0  0  0  0  0  0  0  0  0
  140.1290   75.8410  221.5060 C   0  0  0  0  0  0  0  0  0  0  0  0
  139.9230   76.0130  222.7320 O   0  0  0  0  0  0  0  0  0  0  0  0
  138.9800   75.9150  220.6590 N   0  0  0  0  0  0  0  0  0  0  0  0
  137.6420   76.1780  221.1210 C   0  0  0  0  0  0  0  0  0  0  0  0
  137.1360   74.9700  221.8100 C   0  0  0  0  0  0  0  0  0  0  0  0
  137.5760   73.7450  221.2900 C   0  0  0  0  0  0  0  0  0  0  0  0
  137.1810   72.5470  221.8470 C   0  0  0  0  0  0  0  0  0  0  0  0
  136.3370   72.5470  222.9370 C   0  0  0  0  0  0  0  0  0  0  0  0
  135.9490   71.2520  223.4830 C   0  0  0  0  0  0  0  0  0  0  0  0
  136.2030   70.1460  222.6830 C   0  0  0  0  0  0  0  0  0  0  0  0
  135.8660   68.8590  223.1190 C   0  0  0  0  0  0  0  0  0  0  0  0
  135.2920   68.7260  224.3280 N   0  0  0  0  0  0  0  0  0  0  0  0
  135.0480   69.8060  225.1000 C   0  0  0  0  0  0  0  0  0  0  0  0
  135.3600   71.0930  224.7190 C   0  0  0  0  0  0  0  0  0  0  0  0
  135.9040   73.7500  223.4510 C   0  0  0  0  0  0  0  0  0  0  0  0
  136.2980   74.9730  222.8940 C   0  0  0  0  0  0  0  0  0  0  0  0
  139.8550   70.5480  223.3780 C   0  0  0  0  0  0  0  0  0  0  0  0
  139.2210   69.4150  223.8400 C   0  0  0  0  0  0  0  0  0  0  0  0
  139.1520   69.0680  225.1710 C   0  0  0  0  0  0  0  0  0  0  0  0
  139.7450   69.8940  226.0840 C   0  0  0  0  0  0  0  0  0  0  0  0
  139.7060   69.5940  227.4360 C   0  0  0  0  0  0  0  0  0  0  0  0
  140.3020   70.4240  228.3600 C   0  0  0  0  0  0  0  0  0  0  0  0
  140.9400   71.5610  227.9160 C   0  0  0  0  0  0  0  0  0  0  0  0
  140.9740   71.8530  226.5610 C   0  0  0  0  0  0  0  0  0  0  0  0
  140.3880   71.0430  225.6090 C   0  0  0  0  0  0  0  0  0  0  0  0
  140.4290   71.3410  224.2960 N   0  0  0  0  0  0  0  0  0  0  0  0
  140.5390   72.8240  222.0730 H   0  0  0  0  0  0  0  0  0  0  0  0
  140.9537   71.5314  219.5295 H   0  0  0  0  0  0  0  0  0  0  0  0
  139.1980   72.0054  219.6375 H   0  0  0  0  0  0  0  0  0  0  0  0
  143.1441   73.3226  221.3055 H   0  0  0  0  0  0  0  0  0  0  0  0
  143.1289   72.9117  219.6093 H   0  0  0  0  0  0  0  0  0  0  0  0
  144.0659   75.4621  220.9963 H   0  0  0  0  0  0  0  0  0  0  0  0
  144.7285   74.6642  219.5152 H   0  0  0  0  0  0  0  0  0  0  0  0
  143.7774   76.7888  218.8737 H   0  0  0  0  0  0  0  0  0  0  0  0
  142.7042   75.4514  218.2739 H   0  0  0  0  0  0  0  0  0  0  0  0
  142.1812   77.5358  220.3842 H   0  0  0  0  0  0  0  0  0  0  0  0
  141.0829   76.8744  219.1628 H   0  0  0  0  0  0  0  0  0  0  0  0
  142.0344   75.6041  221.7859 H   0  0  0  0  0  0  0  0  0  0  0  0
  139.0980   75.7700  219.6140 H   0  0  0  0  0  0  0  0  0  0  0  0
  137.6513   77.0272  221.8201 H   0  0  0  0  0  0  0  0  0  0  0  0
  136.9915   76.4258  220.2692 H   0  0  0  0  0  0  0  0  0  0  0  0
  138.2497   73.7392  220.4204 H   0  0  0  0  0  0  0  0  0  0  0  0
  137.5375   71.5963  221.4238 H   0  0  0  0  0  0  0  0  0  0  0  0
  136.6732   70.2822  221.6979 H   0  0  0  0  0  0  0  0  0  0  0  0
  136.0655   67.9795  222.4892 H   0  0  0  0  0  0  0  0  0  0  0  0
  134.5768   69.6511  226.0818 H   0  0  0  0  0  0  0  0  0  0  0  0
  135.1488   71.9535  225.3709 H   0  0  0  0  0  0  0  0  0  0  0  0
  135.2314   73.7497  224.3214 H   0  0  0  0  0  0  0  0  0  0  0  0
  135.9401   75.9218  223.3203 H   0  0  0  0  0  0  0  0  0  0  0  0
  138.7434   68.7507  223.1047 H   0  0  0  0  0  0  0  0  0  0  0  0
  138.6340   68.1516  225.4903 H   0  0  0  0  0  0  0  0  0  0  0  0
  139.1930   68.6822  227.7757 H   0  0  0  0  0  0  0  0  0  0  0  0
  140.2689   70.1831  229.4328 H   0  0  0  0  0  0  0  0  0  0  0  0
  141.4227   72.2376  228.6366 H   0  0  0  0  0  0  0  0  0  0  0  0
  141.4889   72.7674  226.2311 H   0  0  0  0  0  0  0  0  0  0  0  0
  1  2  2  0
  2  3  1  0
  3  4  1  0
  4  5  1  0
  5  6  2  0
  5  7  1  0
  7  8  1  0
  8  9  1  0
  9 10  1  0
 10 11  1  0
 11 12  1  0
 12 13  1  0
 13 14  2  0
 13 15  1  0
 15 16  1  0
 16 17  1  0
 17 18  2  0
 18 19  1  0
 19 20  2  0
 20 21  1  0
 21 22  2  0
 22 23  1  0
 23 24  2  0
 24 25  1  0
 25 26  2  0
 20 27  1  0
 27 28  2  0
  2 29  1  0
 29 30  2  0
 30 31  1  0
 31 32  2  0
 32 33  1  0
 33 34  2  0
 34 35  1  0
 35 36  2  0
 36 37  1  0
 37 38  2  0
 12  7  1  0
 28 17  1  0
 38 29  1  0
 26 21  1  0
 37 32  1  0
  3 39  1  0
  4 40  1  0
  4 41  1  0
  8 42  1  0
  8 43  1  0
  9 44  1  0
  9 45  1  0
 10 46  1  0
 10 47  1  0
 11 48  1  0
 11 49  1  0
 12 50  1  1
 15 51  1  0
 16 52  1  0
 16 53  1  0
 18 54  1  0
 19 55  1  0
 22 56  1  0
 23 57  1  0
 25 58  1  0
 26 59  1  0
 27 60  1  0
 28 61  1  0
 30 62  1  0
 31 63  1  0
 33 64  1  0
 34 65  1  0
 35 66  1  0
 36 67  1  0
M  END
>  <smiles>  (13) 
O=C(NCC(=O)N1CCCC[C@H]1C(=O)NCc1ccc(-c2ccncc2)cc1)c1ccc2ccccc2n1

>  <score_type>  (13) 
oracle

>  <origin>  (13) 
autodockgpu

>  <m_score__min__energy>  (13) 
-10.5

>  <m_primary>  (13) 
energy

>  <rmsd>  (13) 
4.528557226412218

>  <m_score__min__rmsd>  (13) 
4.528557226412218

>  <meeko>  (13) 
{"free_energy": -7.33, "intermolecular_energy": -9.72, "internal_energy": -4.62, "cluster_size": 9, "cluster_id": 3, "rank_in_cluster": 9}

>  <energy>  (13) 
-8.52

>  <cluster_rmsd>  (13) 
1.75

>  <cluster>  (13) 
3

$$$$

     RDKit          3D

 67 71  0  0  0  0  0  0  0  0999 V2000
  140.6760   76.7220  218.9140 O   0  0  0  0  0  0  0  0  0  0  0  0
  141.8610   76.6520  219.3310 C   0  0  0  0  0  0  0  0  0  0  0  0
  142.5370   77.8940  219.5540 N   0  0  0  0  0  0  0  0  0  0  0  0
  141.8070   79.1120  219.2880 C   0  0  0  0  0  0  0  0  0  0  0  0
  140.9470   79.5300  220.4270 C   0  0  0  0  0  0  0  0  0  0  0  0
  139.9900   80.2880  220.1600 O   0  0  0  0  0  0  0  0  0  0  0  0
  141.2720   79.0440  221.7140 N   0  0  0  0  0  0  0  0  0  0  0  0
  142.5790   79.3750  222.3410 C   0  0  0  0  0  0  0  0  0  0  0  0
  142.1670   79.7180  223.7870 C   0  0  0  0  0  0  0  0  0  0  0  0
  140.7450   80.2640  223.8360 C   0  0  0  0  0  0  0  0  0  0  0  0
  139.7080   79.2050  223.4720 C   0  0  0  0  0  0  0  0  0  0  0  0
  140.4140   78.2330  222.5440 C   0  0  1  0  0  0  0  0  0  0  0  0
  139.5580   77.2730  221.8650 C   0  0  0  0  0  0  0  0  0  0  0  0
  138.3980   77.4840  221.4370 O   0  0  0  0  0  0  0  0  0  0  0  0
  140.0740   75.9560  221.6570 N   0  0  0  0  0  0  0  0  0  0  0  0
  139.3610   74.8950  220.9950 C   0  0  0  0  0  0  0  0  0  0  0  0
  139.5080   73.6590  221.7950 C   0  0  0  0  0  0  0  0  0  0  0  0
  138.3220   72.9620  222.0600 C   0  0  0  0  0  0  0  0  0  0  0  0
  138.3260   71.7920  222.7900 C   0  0  0  0  0  0  0  0  0  0  0  0
  139.5170   71.2920  223.2710 C   0  0  0  0  0  0  0  0  0  0  0  0
  139.4630   70.0530  224.0390 C   0  0  0  0  0  0  0  0  0  0  0  0
  139.6880   70.1660  225.4040 C   0  0  0  0  0  0  0  0  0  0  0  0
  139.6580   69.0350  226.2270 C   0  0  0  0  0  0  0  0  0  0  0  0
  139.4060   67.8410  225.6590 N   0  0  0  0  0  0  0  0  0  0  0  0
  139.1890   67.7400  224.3320 C   0  0  0  0  0  0  0  0  0  0  0  0
  139.2070   68.8210  223.4770 C   0  0  0  0  0  0  0  0  0  0  0  0
  140.6860   71.9750  223.0110 C   0  0  0  0  0  0  0  0  0  0  0  0
  140.6940   73.1640  222.2710 C   0  0  0  0  0  0  0  0  0  0  0  0
  142.4960   75.3700  219.5670 C   0  0  0  0  0  0  0  0  0  0  0  0
  143.7840   75.3500  220.0560 C   0  0  0  0  0  0  0  0  0  0  0  0
  144.4830   74.1920  220.3180 C   0  0  0  0  0  0  0  0  0  0  0  0
  143.8640   72.9980  220.0800 C   0  0  0  0  0  0  0  0  0  0  0  0
  144.5210   71.8020  220.3260 C   0  0  0  0  0  0  0  0  0  0  0  0
  143.9000   70.5960  220.0860 C   0  0  0  0  0  0  0  0  0  0  0  0
  142.6130   70.5970  219.5980 C   0  0  0  0  0  0  0  0  0  0  0  0
  141.9640   71.7980  219.3550 C   0  0  0  0  0  0  0  0  0  0  0  0
  142.5560   73.0230  219.5840 C   0  0  0  0  0  0  0  0  0  0  0  0
  141.9120   74.1830  219.3420 N   0  0  0  0  0  0  0  0  0  0  0  0
  143.5200   77.8590  219.8980 H   0  0  0  0  0  0  0  0  0  0  0  0
  142.5286   79.9156  219.0793 H   0  0  0  0  0  0  0  0  0  0  0  0
  141.1478   78.9215  218.4283 H   0  0  0  0  0  0  0  0  0  0  0  0
  143.2637   78.5145  222.3145 H   0  0  0  0  0  0  0  0  0  0  0  0
  143.1213   80.1852  221.8317 H   0  0  0  0  0  0  0  0  0  0  0  0
  142.2242   78.8081  224.4025 H   0  0  0  0  0  0  0  0  0  0  0  0
  142.8511   80.4883  224.1725 H   0  0  0  0  0  0  0  0  0  0  0  0
  140.5394   80.6259  224.8542 H   0  0  0  0  0  0  0  0  0  0  0  0
  140.6700   81.0774  223.0993 H   0  0  0  0  0  0  0  0  0  0  0  0
  139.3583   78.6853  224.3762 H   0  0  0  0  0  0  0  0  0  0  0  0
  138.8251   79.6525  222.9922 H   0  0  0  0  0  0  0  0  0  0  0  0
  141.0219   77.5151  223.1142 H   0  0  0  0  0  0  0  0  0  0  0  0
  141.0490   75.7220  222.0070 H   0  0  0  0  0  0  0  0  0  0  0  0
  138.2963   75.1588  220.9123 H   0  0  0  0  0  0  0  0  0  0  0  0
  139.7684   74.7405  219.9850 H   0  0  0  0  0  0  0  0  0  0  0  0
  137.3685   73.3558  221.6782 H   0  0  0  0  0  0  0  0  0  0  0  0
  137.3834   71.2604  222.9874 H   0  0  0  0  0  0  0  0  0  0  0  0
  139.8918   71.1539  225.8427 H   0  0  0  0  0  0  0  0  0  0  0  0
  139.8356   69.1193  227.3093 H   0  0  0  0  0  0  0  0  0  0  0  0
  138.9873   66.7442  223.9103 H   0  0  0  0  0  0  0  0  0  0  0  0
  139.0258   68.7059  222.3982 H   0  0  0  0  0  0  0  0  0  0  0  0
  141.6366   71.5759  223.3945 H   0  0  0  0  0  0  0  0  0  0  0  0
  141.6384   73.6928  222.0747 H   0  0  0  0  0  0  0  0  0  0  0  0
  144.2818   76.3120  220.2479 H   0  0  0  0  0  0  0  0  0  0  0  0
  145.5109   74.2281  220.7080 H   0  0  0  0  0  0  0  0  0  0  0  0
  145.5491   71.8163  220.7170 H   0  0  0  0  0  0  0  0  0  0  0  0
  144.4237   69.6485  220.2810 H   0  0  0  0  0  0  0  0  0  0  0  0
  142.0991   69.6446  219.4007 H   0  0  0  0  0  0  0  0  0  0  0  0
  140.9361   71.7731  218.9640 H   0  0  0  0  0  0  0  0  0  0  0  0
  1  2  2  0
  2  3  1  0
  3  4  1  0
  4  5  1  0
  5  6  2  0
  5  7  1  0
  7  8  1  0
  8  9  1  0
  9 10  1  0
 10 11  1  0
 11 12  1  0
 12 13  1  0
 13 14  2  0
 13 15  1  0
 15 16  1  0
 16 17  1  0
 17 18  2  0
 18 19  1  0
 19 20  2  0
 20 21  1  0
 21 22  2  0
 22 23  1  0
 23 24  2  0
 24 25  1  0
 25 26  2  0
 20 27  1  0
 27 28  2  0
  2 29  1  0
 29 30  2  0
 30 31  1  0
 31 32  2  0
 32 33  1  0
 33 34  2  0
 34 35  1  0
 35 36  2  0
 36 37  1  0
 37 38  2  0
 12  7  1  0
 28 17  1  0
 38 29  1  0
 26 21  1  0
 37 32  1  0
  3 39  1  0
  4 40  1  0
  4 41  1  0
  8 42  1  0
  8 43  1  0
  9 44  1  0
  9 45  1  0
 10 46  1  0
 10 47  1  0
 11 48  1  0
 11 49  1  0
 12 50  1  1
 15 51  1  0
 16 52  1  0
 16 53  1  0
 18 54  1  0
 19 55  1  0
 22 56  1  0
 23 57  1  0
 25 58  1  0
 26 59  1  0
 27 60  1  0
 28 61  1  0
 30 62  1  0
 31 63  1  0
 33 64  1  0
 34 65  1  0
 35 66  1  0
 36 67  1  0
M  END
>  <smiles>  (14) 
O=C(NCC(=O)N1CCCC[C@H]1C(=O)NCc1ccc(-c2ccncc2)cc1)c1ccc2ccccc2n1

>  <score_type>  (14) 
oracle

>  <origin>  (14) 
autodockgpu

>  <m_score__min__energy>  (14) 
-10.5

>  <m_primary>  (14) 
energy

>  <rmsd>  (14) 
7.621584353709668

>  <m_score__min__rmsd>  (14) 
7.621584353709668

>  <meeko>  (14) 
{"free_energy": -7.84, "intermolecular_energy": -10.23, "internal_energy": -3.52, "cluster_size": 2, "cluster_id": 6, "rank_in_cluster": 2}

>  <energy>  (14) 
-8.15

>  <cluster_rmsd>  (14) 
1.89

>  <cluster>  (14) 
3

$$$$

     RDKit          3D

 67 71  0  0  0  0  0  0  0  0999 V2000
  139.7780   79.2080  219.6020 O   0  0  0  0  0  0  0  0  0  0  0  0
  140.9500   79.6430  219.7390 C   0  0  0  0  0  0  0  0  0  0  0  0
  141.8410   78.8480  220.5300 N   0  0  0  0  0  0  0  0  0  0  0  0
  141.3240   77.6230  221.0950 C   0  0  0  0  0  0  0  0  0  0  0  0
  140.3560   77.8600  222.1980 C   0  0  0  0  0  0  0  0  0  0  0  0
  139.3260   77.1510  222.2040 O   0  0  0  0  0  0  0  0  0  0  0  0
  140.6690   78.8580  223.1490 N   0  0  0  0  0  0  0  0  0  0  0  0
  141.9190   78.7770  223.9500 C   0  0  0  0  0  0  0  0  0  0  0  0
  142.4330   80.2290  223.8960 C   0  0  0  0  0  0  0  0  0  0  0  0
  141.9800   80.9240  222.6170 C   0  0  0  0  0  0  0  0  0  0  0  0
  140.4690   81.1390  222.5820 C   0  0  0  0  0  0  0  0  0  0  0  0
  139.8720   80.0290  223.4270 C   0  0  1  0  0  0  0  0  0  0  0  0
  138.4270   79.8770  223.3400 C   0  0  0  0  0  0  0  0  0  0  0  0
  137.5930   80.1890  224.2240 O   0  0  0  0  0  0  0  0  0  0  0  0
  137.8910   79.3180  222.1390 N   0  0  0  0  0  0  0  0  0  0  0  0
  136.4880   79.1090  221.8920 C   0  0  0  0  0  0  0  0  0  0  0  0
  136.0190   77.9980  222.7490 C   0  0  0  0  0  0  0  0  0  0  0  0
  134.9220   78.2860  223.5720 C   0  0  0  0  0  0  0  0  0  0  0  0
  134.3870   77.3340  224.4130 C   0  0  0  0  0  0  0  0  0  0  0  0
  134.9370   76.0700  224.4500 C   0  0  0  0  0  0  0  0  0  0  0  0
  134.3330   75.1030  225.3590 C   0  0  0  0  0  0  0  0  0  0  0  0
  133.4580   75.6140  226.3080 C   0  0  0  0  0  0  0  0  0  0  0  0
  132.8290   74.7660  227.2270 C   0  0  0  0  0  0  0  0  0  0  0  0
  133.0960   73.4490  227.1640 N   0  0  0  0  0  0  0  0  0  0  0  0
  133.9470   72.9600  226.2390 C   0  0  0  0  0  0  0  0  0  0  0  0
  134.5930   73.7500  225.3120 C   0  0  0  0  0  0  0  0  0  0  0  0
  136.0150   75.7830  223.6400 C   0  0  0  0  0  0  0  0  0  0  0  0
  136.5670   76.7420  222.7820 C   0  0  0  0  0  0  0  0  0  0  0  0
  141.3630   80.8890  219.1230 C   0  0  0  0  0  0  0  0  0  0  0  0
  140.5760   82.0060  219.2970 C   0  0  0  0  0  0  0  0  0  0  0  0
  140.8720   83.2400  218.7600 C   0  0  0  0  0  0  0  0  0  0  0  0
  142.0090   83.3610  218.0130 C   0  0  0  0  0  0  0  0  0  0  0  0
  142.3560   84.5790  217.4480 C   0  0  0  0  0  0  0  0  0  0  0  0
  143.5010   84.7050  216.6940 C   0  0  0  0  0  0  0  0  0  0  0  0
  144.3000   83.5980  216.5090 C   0  0  0  0  0  0  0  0  0  0  0  0
  143.9450   82.3840  217.0770 C   0  0  0  0  0  0  0  0  0  0  0  0
  142.8060   82.2230  217.8390 C   0  0  0  0  0  0  0  0  0  0  0  0
  142.4740   81.0360  218.3850 N   0  0  0  0  0  0  0  0  0  0  0  0
  142.8160   79.1920  220.6590 H   0  0  0  0  0  0  0  0  0  0  0  0
  140.8185   77.0553  220.2999 H   0  0  0  0  0  0  0  0  0  0  0  0
  142.1752   77.0675  221.5155 H   0  0  0  0  0  0  0  0  0  0  0  0
  141.7108   78.4655  224.9842 H   0  0  0  0  0  0  0  0  0  0  0  0
  142.6403   78.0382  223.5705 H   0  0  0  0  0  0  0  0  0  0  0  0
  142.0415   80.7812  224.7630 H   0  0  0  0  0  0  0  0  0  0  0  0
  143.5327   80.2114  223.9135 H   0  0  0  0  0  0  0  0  0  0  0  0
  142.4787   81.9021  222.5496 H   0  0  0  0  0  0  0  0  0  0  0  0
  142.2491   80.2782  221.7681 H   0  0  0  0  0  0  0  0  0  0  0  0
  140.2123   82.1217  223.0043 H   0  0  0  0  0  0  0  0  0  0  0  0
  140.0813   81.1165  221.5528 H   0  0  0  0  0  0  0  0  0  0  0  0
  139.9344   80.2727  224.4979 H   0  0  0  0  0  0  0  0  0  0  0  0
  138.5540   79.0290  221.3610 H   0  0  0  0  0  0  0  0  0  0  0  0
  135.9286   80.0249  222.1333 H   0  0  0  0  0  0  0  0  0  0  0  0
  136.3254   78.8613  220.8326 H   0  0  0  0  0  0  0  0  0  0  0  0
  134.4788   79.2924  223.5464 H   0  0  0  0  0  0  0  0  0  0  0  0
  133.5259   77.5812  225.0512 H   0  0  0  0  0  0  0  0  0  0  0  0
  133.2572   76.6951  226.3380 H   0  0  0  0  0  0  0  0  0  0  0  0
  132.1348   75.1659  227.9808 H   0  0  0  0  0  0  0  0  0  0  0  0
  134.1351   71.8763  226.2234 H   0  0  0  0  0  0  0  0  0  0  0  0
  135.2829   73.3212  224.5703 H   0  0  0  0  0  0  0  0  0  0  0  0
  136.4529   74.7743  223.6685 H   0  0  0  0  0  0  0  0  0  0  0  0
  137.4274   76.4913  222.1441 H   0  0  0  0  0  0  0  0  0  0  0  0
  139.6601   81.9074  219.8982 H   0  0  0  0  0  0  0  0  0  0  0  0
  140.2112   84.1032  218.9282 H   0  0  0  0  0  0  0  0  0  0  0  0
  141.7088   85.4547  217.6041 H   0  0  0  0  0  0  0  0  0  0  0  0
  143.7731   85.6726  216.2471 H   0  0  0  0  0  0  0  0  0  0  0  0
  145.2196   83.6773  215.9107 H   0  0  0  0  0  0  0  0  0  0  0  0
  144.5979   81.5139  216.9135 H   0  0  0  0  0  0  0  0  0  0  0  0
  1  2  2  0
  2  3  1  0
  3  4  1  0
  4  5  1  0
  5  6  2  0
  5  7  1  0
  7  8  1  0
  8  9  1  0
  9 10  1  0
 10 11  1  0
 11 12  1  0
 12 13  1  0
 13 14  2  0
 13 15  1  0
 15 16  1  0
 16 17  1  0
 17 18  2  0
 18 19  1  0
 19 20  2  0
 20 21  1  0
 21 22  2  0
 22 23  1  0
 23 24  2  0
 24 25  1  0
 25 26  2  0
 20 27  1  0
 27 28  2  0
  2 29  1  0
 29 30  2  0
 30 31  1  0
 31 32  2  0
 32 33  1  0
 33 34  2  0
 34 35  1  0
 35 36  2  0
 36 37  1  0
 37 38  2  0
 12  7  1  0
 28 17  1  0
 38 29  1  0
 26 21  1  0
 37 32  1  0
  3 39  1  0
  4 40  1  0
  4 41  1  0
  8 42  1  0
  8 43  1  0
  9 44  1  0
  9 45  1  0
 10 46  1  0
 10 47  1  0
 11 48  1  0
 11 49  1  0
 12 50  1  1
 15 51  1  0
 16 52  1  0
 16 53  1  0
 18 54  1  0
 19 55  1  0
 22 56  1  0
 23 57  1  0
 25 58  1  0
 26 59  1  0
 27 60  1  0
 28 61  1  0
 30 62  1  0
 31 63  1  0
 33 64  1  0
 34 65  1  0
 35 66  1  0
 36 67  1  0
M  END
>  <smiles>  (15) 
O=C(NCC(=O)N1CCCC[C@H]1C(=O)NCc1ccc(-c2ccncc2)cc1)c1ccc2ccccc2n1

>  <score_type>  (15) 
oracle

>  <origin>  (15) 
autodockgpu

>  <m_score__min__energy>  (15) 
-10.5

>  <m_primary>  (15) 
energy

>  <rmsd>  (15) 
10.32195520948175

>  <m_score__min__rmsd>  (15) 
10.32195520948175

>  <meeko>  (15) 
{"free_energy": -8.0, "intermolecular_energy": -10.39, "internal_energy": -3.92, "cluster_size": 2, "cluster_id": 10, "rank_in_cluster": 1}

>  <energy>  (15) 
-8.13

>  <cluster_rmsd>  (15) 
1.92

>  <cluster>  (15) 
3

$$$$

     RDKit          3D

 67 71  0  0  0  0  0  0  0  0999 V2000
  139.6150   74.8710  222.1950 O   0  0  0  0  0  0  0  0  0  0  0  0
  140.0060   75.8410  221.4960 C   0  0  0  0  0  0  0  0  0  0  0  0
  140.2000   75.5870  220.0990 N   0  0  0  0  0  0  0  0  0  0  0  0
  139.9270   74.2530  219.6160 C   0  0  0  0  0  0  0  0  0  0  0  0
  141.1130   73.6150  218.9860 C   0  0  0  0  0  0  0  0  0  0  0  0
  140.9830   73.2310  217.8040 O   0  0  0  0  0  0  0  0  0  0  0  0
  142.2870   73.4890  219.7630 N   0  0  0  0  0  0  0  0  0  0  0  0
  142.2980   72.6500  220.9910 C   0  0  0  0  0  0  0  0  0  0  0  0
  143.6350   71.8950  220.8550 C   0  0  0  0  0  0  0  0  0  0  0  0
  144.0200   71.7200  219.3910 C   0  0  0  0  0  0  0  0  0  0  0  0
  144.3570   73.0500  218.7210 C   0  0  0  0  0  0  0  0  0  0  0  0
  143.5590   74.1040  219.4640 C   0  0  1  0  0  0  0  0  0  0  0  0
  143.5220   75.4220  218.8480 C   0  0  0  0  0  0  0  0  0  0  0  0
  143.9800   76.4830  219.3370 O   0  0  0  0  0  0  0  0  0  0  0  0
  142.9090   75.5350  217.5620 N   0  0  0  0  0  0  0  0  0  0  0  0
  142.8010   76.7610  216.8160 C   0  0  0  0  0  0  0  0  0  0  0  0
  142.0390   77.7380  217.6250 C   0  0  0  0  0  0  0  0  0  0  0  0
  142.7860   78.7970  218.1600 C   0  0  0  0  0  0  0  0  0  0  0  0
  142.1920   79.7770  218.9270 C   0  0  0  0  0  0  0  0  0  0  0  0
  140.8370   79.7210  219.1760 C   0  0  0  0  0  0  0  0  0  0  0  0
  140.2620   80.7810  219.9960 C   0  0  0  0  0  0  0  0  0  0  0  0
  141.1130   81.8220  220.3400 C   0  0  0  0  0  0  0  0  0  0  0  0
  140.6560   82.8860  221.1250 C   0  0  0  0  0  0  0  0  0  0  0  0
  139.3740   82.8710  221.5340 N   0  0  0  0  0  0  0  0  0  0  0  0
  138.5530   81.8560  221.1950 C   0  0  0  0  0  0  0  0  0  0  0  0
  138.9530   80.7850  220.4250 C   0  0  0  0  0  0  0  0  0  0  0  0
  140.1000   78.6810  218.6500 C   0  0  0  0  0  0  0  0  0  0  0  0
  140.6920   77.6810  217.8690 C   0  0  0  0  0  0  0  0  0  0  0  0
  140.2460   77.1430  222.0880 C   0  0  0  0  0  0  0  0  0  0  0  0
  139.1840   77.8250  222.6380 C   0  0  0  0  0  0  0  0  0  0  0  0
  139.2970   79.0660  223.2270 C   0  0  0  0  0  0  0  0  0  0  0  0
  140.5310   79.6500  223.2670 C   0  0  0  0  0  0  0  0  0  0  0  0
  140.7030   80.8970  223.8480 C   0  0  0  0  0  0  0  0  0  0  0  0
  141.9450   81.4900  223.8890 C   0  0  0  0  0  0  0  0  0  0  0  0
  143.0190   80.8220  223.3430 C   0  0  0  0  0  0  0  0  0  0  0  0
  142.8370   79.5750  222.7650 C   0  0  0  0  0  0  0  0  0  0  0  0
  141.6070   78.9520  222.7070 C   0  0  0  0  0  0  0  0  0  0  0  0
  141.4470   77.7390  222.1400 N   0  0  0  0  0  0  0  0  0  0  0  0
  140.5260   76.3760  219.5020 H   0  0  0  0  0  0  0  0  0  0  0  0
  139.6024   73.6317  220.4637 H   0  0  0  0  0  0  0  0  0  0  0  0
  139.1454   74.3328  218.8461 H   0  0  0  0  0  0  0  0  0  0  0  0
  142.2808   73.2709  221.8988 H   0  0  0  0  0  0  0  0  0  0  0  0
  141.4238   71.9886  221.0827 H   0  0  0  0  0  0  0  0  0  0  0  0
  144.4234   72.4653  221.3681 H   0  0  0  0  0  0  0  0  0  0  0  0
  143.5213   70.8989  221.3077 H   0  0  0  0  0  0  0  0  0  0  0  0
  144.8986   71.0608  219.3320 H   0  0  0  0  0  0  0  0  0  0  0  0
  143.1577   71.2852  218.8644 H   0  0  0  0  0  0  0  0  0  0  0  0
  145.4342   73.2575  218.8027 H   0  0  0  0  0  0  0  0  0  0  0  0
  144.1088   73.0366  217.6494 H   0  0  0  0  0  0  0  0  0  0  0  0
  144.0624   74.3891  220.3996 H   0  0  0  0  0  0  0  0  0  0  0  0
  142.4990   74.6680  217.1060 H   0  0  0  0  0  0  0  0  0  0  0  0
  143.8055   77.1569  216.6055 H   0  0  0  0  0  0  0  0  0  0  0  0
  142.2845   76.5773  215.8623 H   0  0  0  0  0  0  0  0  0  0  0  0
  143.8672   78.8471  217.9640 H   0  0  0  0  0  0  0  0  0  0  0  0
  142.7961   80.5992  219.3381 H   0  0  0  0  0  0  0  0  0  0  0  0
  142.1565   81.8104  219.9922 H   0  0  0  0  0  0  0  0  0  0  0  0
  141.3269   83.7130  221.4006 H   0  0  0  0  0  0  0  0  0  0  0  0
  137.5125   81.8843  221.5507 H   0  0  0  0  0  0  0  0  0  0  0  0
  138.2595   79.9717  220.1653 H   0  0  0  0  0  0  0  0  0  0  0  0
  139.0191   78.6358  218.8491 H   0  0  0  0  0  0  0  0  0  0  0  0
  140.0845   76.8616  217.4573 H   0  0  0  0  0  0  0  0  0  0  0  0
  138.1907   77.3536  222.6056 H   0  0  0  0  0  0  0  0  0  0  0  0
  138.4180   79.5719  223.6529 H   0  0  0  0  0  0  0  0  0  0  0  0
  139.8370   81.4188  224.2813 H   0  0  0  0  0  0  0  0  0  0  0  0
  142.0774   82.4800  224.3498 H   0  0  0  0  0  0  0  0  0  0  0  0
  144.0200   81.2775  223.3656 H   0  0  0  0  0  0  0  0  0  0  0  0
  143.7092   79.0609  222.3348 H   0  0  0  0  0  0  0  0  0  0  0  0
  1  2  2  0
  2  3  1  0
  3  4  1  0
  4  5  1  0
  5  6  2  0
  5  7  1  0
  7  8  1  0
  8  9  1  0
  9 10  1  0
 10 11  1  0
 11 12  1  0
 12 13  1  0
 13 14  2  0
 13 15  1  0
 15 16  1  0
 16 17  1  0
 17 18  2  0
 18 19  1  0
 19 20  2  0
 20 21  1  0
 21 22  2  0
 22 23  1  0
 23 24  2  0
 24 25  1  0
 25 26  2  0
 20 27  1  0
 27 28  2  0
  2 29  1  0
 29 30  2  0
 30 31  1  0
 31 32  2  0
 32 33  1  0
 33 34  2  0
 34 35  1  0
 35 36  2  0
 36 37  1  0
 37 38  2  0
 12  7  1  0
 28 17  1  0
 38 29  1  0
 26 21  1  0
 37 32  1  0
  3 39  1  0
  4 40  1  0
  4 41  1  0
  8 42  1  0
  8 43  1  0
  9 44  1  0
  9 45  1  0
 10 46  1  0
 10 47  1  0
 11 48  1  0
 11 49  1  0
 12 50  1  1
 15 51  1  0
 16 52  1  0
 16 53  1  0
 18 54  1  0
 19 55  1  0
 22 56  1  0
 23 57  1  0
 25 58  1  0
 26 59  1  0
 27 60  1  0
 28 61  1  0
 30 62  1  0
 31 63  1  0
 33 64  1  0
 34 65  1  0
 35 66  1  0
 36 67  1  0
M  END
>  <smiles>  (16) 
O=C(NCC(=O)N1CCCC[C@H]1C(=O)NCc1ccc(-c2ccncc2)cc1)c1ccc2ccccc2n1

>  <score_type>  (16) 
oracle

>  <origin>  (16) 
autodockgpu

>  <m_score__min__energy>  (16) 
-10.5

>  <m_primary>  (16) 
energy

>  <rmsd>  (16) 
6.986235994332925

>  <m_score__min__rmsd>  (16) 
6.986235994332925

>  <meeko>  (16) 
{"free_energy": -6.62, "intermolecular_energy": -9.01, "internal_energy": -5.28, "cluster_size": 12, "cluster_id": 11, "rank_in_cluster": 7}

>  <energy>  (16) 
-7.33

>  <cluster_rmsd>  (16) 
1.88

>  <cluster>  (16) 
3

$$$$

     RDKit          3D

 67 71  0  0  0  0  0  0  0  0999 V2000
  137.4710   73.6540  220.5370 O   0  0  0  0  0  0  0  0  0  0  0  0
  137.5060   73.9330  221.7630 C   0  0  0  0  0  0  0  0  0  0  0  0
  138.3640   75.0110  222.1520 N   0  0  0  0  0  0  0  0  0  0  0  0
  139.1070   75.6840  221.1120 C   0  0  0  0  0  0  0  0  0  0  0  0
  140.5710   75.4370  221.1960 C   0  0  0  0  0  0  0  0  0  0  0  0
  141.0600   75.3420  222.3420 O   0  0  0  0  0  0  0  0  0  0  0  0
  141.2930   75.3290  219.9860 N   0  0  0  0  0  0  0  0  0  0  0  0
  141.3180   76.4550  219.0150 C   0  0  0  0  0  0  0  0  0  0  0  0
  142.8050   76.5010  218.6100 C   0  0  0  0  0  0  0  0  0  0  0  0
  143.6960   75.9900  219.7360 C   0  0  0  0  0  0  0  0  0  0  0  0
  143.5010   74.4980  219.9930 C   0  0  0  0  0  0  0  0  0  0  0  0
  142.0760   74.1870  219.5770 C   0  0  1  0  0  0  0  0  0  0  0  0
  141.5760   72.8760  219.9630 C   0  0  0  0  0  0  0  0  0  0  0  0
  142.2710   71.8760  220.2640 O   0  0  0  0  0  0  0  0  0  0  0  0
  140.1600   72.6940  220.0070 N   0  0  0  0  0  0  0  0  0  0  0  0
  139.5070   71.4650  220.3760 C   0  0  0  0  0  0  0  0  0  0  0  0
  139.6970   71.2490  221.8280 C   0  0  0  0  0  0  0  0  0  0  0  0
  139.3700   69.9710  222.3000 C   0  0  0  0  0  0  0  0  0  0  0  0
  139.5080   69.6420  223.6320 C   0  0  0  0  0  0  0  0  0  0  0  0
  139.9780   70.5840  224.5220 C   0  0  0  0  0  0  0  0  0  0  0  0
  140.1010   70.1830  225.9190 C   0  0  0  0  0  0  0  0  0  0  0  0
  140.5190   71.1650  226.8060 C   0  0  0  0  0  0  0  0  0  0  0  0
  140.6690   70.8790  228.1670 C   0  0  0  0  0  0  0  0  0  0  0  0
  140.3980   69.6300  228.5890 N   0  0  0  0  0  0  0  0  0  0  0  0
  139.9920   68.6810  227.7210 C   0  0  0  0  0  0  0  0  0  0  0  0
  139.8290   68.9100  226.3710 C   0  0  0  0  0  0  0  0  0  0  0  0
  140.3010   71.8420  224.0600 C   0  0  0  0  0  0  0  0  0  0  0  0
  140.1650   72.1880  222.7100 C   0  0  0  0  0  0  0  0  0  0  0  0
  136.7120   73.1890  222.7230 C   0  0  0  0  0  0  0  0  0  0  0  0
  135.7260   73.8510  223.4200 C   0  0  0  0  0  0  0  0  0  0  0  0
  134.9130   73.2450  224.3530 C   0  0  0  0  0  0  0  0  0  0  0  0
  135.0960   71.9140  224.6000 C   0  0  0  0  0  0  0  0  0  0  0  0
  134.3060   71.2540  225.5280 C   0  0  0  0  0  0  0  0  0  0  0  0
  134.4880   69.9120  225.7800 C   0  0  0  0  0  0  0  0  0  0  0  0
  135.4700   69.2340  225.0920 C   0  0  0  0  0  0  0  0  0  0  0  0
  136.2550   69.9030  224.1650 C   0  0  0  0  0  0  0  0  0  0  0  0
  136.0990   71.2460  223.8880 C   0  0  0  0  0  0  0  0  0  0  0  0
  136.8710   71.8820  222.9840 N   0  0  0  0  0  0  0  0  0  0  0  0
  138.4100   75.2570  223.1640 H   0  0  0  0  0  0  0  0  0  0  0  0
  138.7461   75.3277  220.1358 H   0  0  0  0  0  0  0  0  0  0  0  0
  138.9463   76.7649  221.2375 H   0  0  0  0  0  0  0  0  0  0  0  0
  140.6743   76.2481  218.1473 H   0  0  0  0  0  0  0  0  0  0  0  0
  140.9427   77.4031  219.4277 H   0  0  0  0  0  0  0  0  0  0  0  0
  142.9546   75.8722  217.7199 H   0  0  0  0  0  0  0  0  0  0  0  0
  143.0768   77.5451  218.3957 H   0  0  0  0  0  0  0  0  0  0  0  0
  144.7470   76.1685  219.4649 H   0  0  0  0  0  0  0  0  0  0  0  0
  143.4226   76.5297  220.6547 H   0  0  0  0  0  0  0  0  0  0  0  0
  144.2116   73.9104  219.3931 H   0  0  0  0  0  0  0  0  0  0  0  0
  143.6782   74.2436  221.0484 H   0  0  0  0  0  0  0  0  0  0  0  0
  142.0049   74.0609  218.4866 H   0  0  0  0  0  0  0  0  0  0  0  0
  139.5250   73.5070  219.7540 H   0  0  0  0  0  0  0  0  0  0  0  0
  138.4329   71.5328  220.1485 H   0  0  0  0  0  0  0  0  0  0  0  0
  139.9376   70.6253  219.8108 H   0  0  0  0  0  0  0  0  0  0  0  0
  138.9957   69.2150  221.5940 H   0  0  0  0  0  0  0  0  0  0  0  0
  139.2444   68.6332  223.9825 H   0  0  0  0  0  0  0  0  0  0  0  0
  140.7344   72.1780  226.4353 H   0  0  0  0  0  0  0  0  0  0  0  0
  140.9997   71.6544  228.8737 H   0  0  0  0  0  0  0  0  0  0  0  0
  139.7803   67.6739  228.1094 H   0  0  0  0  0  0  0  0  0  0  0  0
  139.4976   68.1144  225.6875 H   0  0  0  0  0  0  0  0  0  0  0  0
  140.6754   72.5937  224.7705 H   0  0  0  0  0  0  0  0  0  0  0  0
  140.4296   73.1977  222.3627 H   0  0  0  0  0  0  0  0  0  0  0  0
  135.5793   74.9228  223.2209 H   0  0  0  0  0  0  0  0  0  0  0  0
  134.1381   73.8172  224.8842 H   0  0  0  0  0  0  0  0  0  0  0  0
  133.5249   71.8080  226.0693 H   0  0  0  0  0  0  0  0  0  0  0  0
  133.8601   69.3909  226.5177 H   0  0  0  0  0  0  0  0  0  0  0  0
  135.6315   68.1619  225.2779 H   0  0  0  0  0  0  0  0  0  0  0  0
  137.0335   69.3405  223.6288 H   0  0  0  0  0  0  0  0  0  0  0  0
  1  2  2  0
  2  3  1  0
  3  4  1  0
  4  5  1  0
  5  6  2  0
  5  7  1  0
  7  8  1  0
  8  9  1  0
  9 10  1  0
 10 11  1  0
 11 12  1  0
 12 13  1  0
 13 14  2  0
 13 15  1  0
 15 16  1  0
 16 17  1  0
 17 18  2  0
 18 19  1  0
 19 20  2  0
 20 21  1  0
 21 22  2  0
 22 23  1  0
 23 24  2  0
 24 25  1  0
 25 26  2  0
 20 27  1  0
 27 28  2  0
  2 29  1  0
 29 30  2  0
 30 31  1  0
 31 32  2  0
 32 33  1  0
 33 34  2  0
 34 35  1  0
 35 36  2  0
 36 37  1  0
 37 38  2  0
 12  7  1  0
 28 17  1  0
 38 29  1  0
 26 21  1  0
 37 32  1  0
  3 39  1  0
  4 40  1  0
  4 41  1  0
  8 42  1  0
  8 43  1  0
  9 44  1  0
  9 45  1  0
 10 46  1  0
 10 47  1  0
 11 48  1  0
 11 49  1  0
 12 50  1  6
 15 51  1  0
 16 52  1  0
 16 53  1  0
 18 54  1  0
 19 55  1  0
 22 56  1  0
 23 57  1  0
 25 58  1  0
 26 59  1  0
 27 60  1  0
 28 61  1  0
 30 62  1  0
 31 63  1  0
 33 64  1  0
 34 65  1  0
 35 66  1  0
 36 67  1  0
M  END
>  <smiles>  (17) 
O=C(NCC(=O)N1CCCC[C@H]1C(=O)NCc1ccc(-c2ccncc2)cc1)c1ccc2ccccc2n1

>  <score_type>  (17) 
oracle

>  <origin>  (17) 
autodockgpu

>  <m_score__min__energy>  (17) 
-10.5

>  <m_primary>  (17) 
energy

>  <rmsd>  (17) 
6.6931712160375465

>  <m_score__min__rmsd>  (17) 
6.6931712160375465

>  <meeko>  (17) 
{"free_energy": -7.55, "intermolecular_energy": -9.94, "internal_energy": -4.57, "cluster_size": 3, "cluster_id": 12, "rank_in_cluster": 2}

>  <energy>  (17) 
-9.07

>  <cluster_rmsd>  (17) 
0.0

>  <cluster>  (17) 
4

$$$$

     RDKit          3D

 67 71  0  0  0  0  0  0  0  0999 V2000
  139.8460   73.4260  222.5140 O   0  0  0  0  0  0  0  0  0  0  0  0
  139.8340   72.1690  222.4820 C   0  0  0  0  0  0  0  0  0  0  0  0
  139.7200   71.5610  221.1900 N   0  0  0  0  0  0  0  0  0  0  0  0
  139.6340   72.4350  220.0440 C   0  0  0  0  0  0  0  0  0  0  0  0
  140.9640   72.7690  219.4710 C   0  0  0  0  0  0  0  0  0  0  0  0
  141.0730   72.7040  218.2270 O   0  0  0  0  0  0  0  0  0  0  0  0
  141.9970   73.1310  220.3650 N   0  0  0  0  0  0  0  0  0  0  0  0
  142.8740   72.0940  220.9700 C   0  0  0  0  0  0  0  0  0  0  0  0
  144.2700   72.7360  220.8420 C   0  0  0  0  0  0  0  0  0  0  0  0
  144.3330   73.6780  219.6460 C   0  0  0  0  0  0  0  0  0  0  0  0
  143.4530   74.9100  219.8370 C   0  0  0  0  0  0  0  0  0  0  0  0
  142.3280   74.4800  220.7600 C   0  0  1  0  0  0  0  0  0  0  0  0
  141.2230   75.4170  220.8900 C   0  0  0  0  0  0  0  0  0  0  0  0
  141.0200   76.1970  221.8510 O   0  0  0  0  0  0  0  0  0  0  0  0
  140.2670   75.4640  219.8290 N   0  0  0  0  0  0  0  0  0  0  0  0
  139.1240   76.3390  219.7990 C   0  0  0  0  0  0  0  0  0  0  0  0
  138.2770   76.0460  220.9770 C   0  0  0  0  0  0  0  0  0  0  0  0
  137.5190   74.8700  220.9030 C   0  0  0  0  0  0  0  0  0  0  0  0
  136.6940   74.4820  221.9370 C   0  0  0  0  0  0  0  0  0  0  0  0
  136.6080   75.2620  223.0710 C   0  0  0  0  0  0  0  0  0  0  0  0
  135.7180   74.8070  224.1320 C   0  0  0  0  0  0  0  0  0  0  0  0
  135.4790   73.4410  224.1900 C   0  0  0  0  0  0  0  0  0  0  0  0
  134.6380   72.9060  225.1720 C   0  0  0  0  0  0  0  0  0  0  0  0
  134.0720   73.7500  226.0540 N   0  0  0  0  0  0  0  0  0  0  0  0
  134.3090   75.0760  225.9910 C   0  0  0  0  0  0  0  0  0  0  0  0
  135.1270   75.6540  225.0450 C   0  0  0  0  0  0  0  0  0  0  0  0
  137.3540   76.4200  223.1470 C   0  0  0  0  0  0  0  0  0  0  0  0
  138.1950   76.8230  222.1030 C   0  0  0  0  0  0  0  0  0  0  0  0
  139.9300   71.3880  223.7010 C   0  0  0  0  0  0  0  0  0  0  0  0
  139.4810   70.0860  223.6890 C   0  0  0  0  0  0  0  0  0  0  0  0
  139.5240   69.2540  224.7860 C   0  0  0  0  0  0  0  0  0  0  0  0
  140.0410   69.7490  225.9500 C   0  0  0  0  0  0  0  0  0  0  0  0
  140.1090   68.9550  227.0840 C   0  0  0  0  0  0  0  0  0  0  0  0
  140.6290   69.4500  228.2600 C   0  0  0  0  0  0  0  0  0  0  0  0
  141.0830   70.7500  228.2900 C   0  0  0  0  0  0  0  0  0  0  0  0
  141.0110   71.5360  227.1500 C   0  0  0  0  0  0  0  0  0  0  0  0
  140.4970   71.0720  225.9560 C   0  0  0  0  0  0  0  0  0  0  0  0
  140.4330   71.8490  224.8560 N   0  0  0  0  0  0  0  0  0  0  0  0
  139.7060   70.5200  221.1420 H   0  0  0  0  0  0  0  0  0  0  0  0
  139.0321   71.9388  219.2684 H   0  0  0  0  0  0  0  0  0  0  0  0
  139.1733   73.3757  220.3798 H   0  0  0  0  0  0  0  0  0  0  0  0
  142.6121   71.9147  222.0232 H   0  0  0  0  0  0  0  0  0  0  0  0
  142.7938   71.1095  220.4859 H   0  0  0  0  0  0  0  0  0  0  0  0
  144.4898   73.3035  221.7583 H   0  0  0  0  0  0  0  0  0  0  0  0
  145.0105   71.9358  220.6959 H   0  0  0  0  0  0  0  0  0  0  0  0
  145.3741   74.0043  219.5063 H   0  0  0  0  0  0  0  0  0  0  0  0
  143.9636   73.1318  218.7655 H   0  0  0  0  0  0  0  0  0  0  0  0
  144.0318   75.7262  220.2940 H   0  0  0  0  0  0  0  0  0  0  0  0
  143.0668   75.2826  218.8768 H   0  0  0  0  0  0  0  0  0  0  0  0
  142.6559   74.4888  221.8100 H   0  0  0  0  0  0  0  0  0  0  0  0
  140.3870   74.8190  218.9940 H   0  0  0  0  0  0  0  0  0  0  0  0
  139.4577   77.3866  219.8333 H   0  0  0  0  0  0  0  0  0  0  0  0
  138.5511   76.1789  218.8737 H   0  0  0  0  0  0  0  0  0  0  0  0
  137.5835   74.2434  220.0012 H   0  0  0  0  0  0  0  0  0  0  0  0
  136.1073   73.5549  221.8579 H   0  0  0  0  0  0  0  0  0  0  0  0
  135.9551   72.7729  223.4573 H   0  0  0  0  0  0  0  0  0  0  0  0
  134.4447   71.8243  225.2216 H   0  0  0  0  0  0  0  0  0  0  0  0
  133.8249   75.7290  226.7321 H   0  0  0  0  0  0  0  0  0  0  0  0
  135.3003   76.7400  225.0194 H   0  0  0  0  0  0  0  0  0  0  0  0
  137.2862   77.0427  224.0513 H   0  0  0  0  0  0  0  0  0  0  0  0
  138.7816   77.7499  222.1852 H   0  0  0  0  0  0  0  0  0  0  0  0
  139.0650   69.6885  222.7515 H   0  0  0  0  0  0  0  0  0  0  0  0
  139.1526   68.2203  224.7267 H   0  0  0  0  0  0  0  0  0  0  0  0
  139.7438   67.9182  227.0447 H   0  0  0  0  0  0  0  0  0  0  0  0
  140.6806   68.8182  229.1589 H   0  0  0  0  0  0  0  0  0  0  0  0
  141.5027   71.1647  229.2184 H   0  0  0  0  0  0  0  0  0  0  0  0
  141.3785   72.5716  227.1992 H   0  0  0  0  0  0  0  0  0  0  0  0
  1  2  2  0
  2  3  1  0
  3  4  1  0
  4  5  1  0
  5  6  2  0
  5  7  1  0
  7  8  1  0
  8  9  1  0
  9 10  1  0
 10 11  1  0
 11 12  1  0
 12 13  1  0
 13 14  2  0
 13 15  1  0
 15 16  1  0
 16 17  1  0
 17 18  2  0
 18 19  1  0
 19 20  2  0
 20 21  1  0
 21 22  2  0
 22 23  1  0
 23 24  2  0
 24 25  1  0
 25 26  2  0
 20 27  1  0
 27 28  2  0
  2 29  1  0
 29 30  2  0
 30 31  1  0
 31 32  2  0
 32 33  1  0
 33 34  2  0
 34 35  1  0
 35 36  2  0
 36 37  1  0
 37 38  2  0
 12  7  1  0
 28 17  1  0
 38 29  1  0
 26 21  1  0
 37 32  1  0
  3 39  1  0
  4 40  1  0
  4 41  1  0
  8 42  1  0
  8 43  1  0
  9 44  1  0
  9 45  1  0
 10 46  1  0
 10 47  1  0
 11 48  1  0
 11 49  1  0
 12 50  1  1
 15 51  1  0
 16 52  1  0
 16 53  1  0
 18 54  1  0
 19 55  1  0
 22 56  1  0
 23 57  1  0
 25 58  1  0
 26 59  1  0
 27 60  1  0
 28 61  1  0
 30 62  1  0
 31 63  1  0
 33 64  1  0
 34 65  1  0
 35 66  1  0
 36 67  1  0
M  END
>  <smiles>  (18) 
O=C(NCC(=O)N1CCCC[C@H]1C(=O)NCc1ccc(-c2ccncc2)cc1)c1ccc2ccccc2n1

>  <score_type>  (18) 
oracle

>  <origin>  (18) 
autodockgpu

>  <m_score__min__energy>  (18) 
-10.5

>  <m_primary>  (18) 
energy

>  <rmsd>  (18) 
4.2108611987445075

>  <m_score__min__rmsd>  (18) 
4.2108611987445075

>  <meeko>  (18) 
{"free_energy": -8.77, "intermolecular_energy": -11.15, "internal_energy": -3.45, "cluster_size": 9, "cluster_id": 3, "rank_in_cluster": 3}

>  <energy>  (18) 
-9.0

>  <cluster_rmsd>  (18) 
0.0

>  <cluster>  (18) 
5

$$$$

     RDKit          3D

 67 71  0  0  0  0  0  0  0  0999 V2000
  140.7970   76.8360  217.9590 O   0  0  0  0  0  0  0  0  0  0  0  0
  141.7890   76.9890  218.7160 C   0  0  0  0  0  0  0  0  0  0  0  0
  142.8770   76.0750  218.5410 N   0  0  0  0  0  0  0  0  0  0  0  0
  142.7460   75.0650  217.5160 C   0  0  0  0  0  0  0  0  0  0  0  0
  142.0840   73.8280  218.0060 C   0  0  0  0  0  0  0  0  0  0  0  0
  140.9710   73.5520  217.5090 O   0  0  0  0  0  0  0  0  0  0  0  0
  142.7550   73.0630  218.9870 N   0  0  0  0  0  0  0  0  0  0  0  0
  143.7000   71.9850  218.5920 C   0  0  0  0  0  0  0  0  0  0  0  0
  144.8800   72.2190  219.5560 C   0  0  0  0  0  0  0  0  0  0  0  0
  144.9800   73.6860  219.9540 C   0  0  0  0  0  0  0  0  0  0  0  0
  143.8000   74.1310  220.8130 C   0  0  0  0  0  0  0  0  0  0  0  0
  142.6360   73.2420  220.4150 C   0  0  1  0  0  0  0  0  0  0  0  0
  141.3320   73.6420  220.9200 C   0  0  0  0  0  0  0  0  0  0  0  0
  141.1100   74.2930  221.9700 O   0  0  0  0  0  0  0  0  0  0  0  0
  140.1830   73.2640  220.1600 N   0  0  0  0  0  0  0  0  0  0  0  0
  138.8260   73.5880  220.5170 C   0  0  0  0  0  0  0  0  0  0  0  0
  138.7490   75.0380  220.8020 C   0  0  0  0  0  0  0  0  0  0  0  0
  138.6130   75.3850  222.1530 C   0  0  0  0  0  0  0  0  0  0  0  0
  138.5360   76.7030  222.5510 C   0  0  0  0  0  0  0  0  0  0  0  0
  138.5930   77.7050  221.6060 C   0  0  0  0  0  0  0  0  0  0  0  0
  138.5040   79.0810  222.0810 C   0  0  0  0  0  0  0  0  0  0  0  0
  138.4980   79.2560  223.4580 C   0  0  0  0  0  0  0  0  0  0  0  0
  138.4140   80.5380  224.0120 C   0  0  0  0  0  0  0  0  0  0  0  0
  138.3400   81.5900  223.1760 N   0  0  0  0  0  0  0  0  0  0  0  0
  138.3460   81.4110  221.8390 C   0  0  0  0  0  0  0  0  0  0  0  0
  138.4260   80.1720  221.2420 C   0  0  0  0  0  0  0  0  0  0  0  0
  138.7270   77.3670  220.2760 C   0  0  0  0  0  0  0  0  0  0  0  0
  138.8070   76.0320  219.8600 C   0  0  0  0  0  0  0  0  0  0  0  0
  141.8150   78.0430  219.7130 C   0  0  0  0  0  0  0  0  0  0  0  0
  141.8290   79.3540  219.2900 C   0  0  0  0  0  0  0  0  0  0  0  0
  141.8520   80.4320  220.1470 C   0  0  0  0  0  0  0  0  0  0  0  0
  141.8620   80.1860  221.4910 C   0  0  0  0  0  0  0  0  0  0  0  0
  141.8850   81.2340  222.3990 C   0  0  0  0  0  0  0  0  0  0  0  0
  141.8950   80.9900  223.7550 C   0  0  0  0  0  0  0  0  0  0  0  0
  141.8800   79.6860  224.1960 C   0  0  0  0  0  0  0  0  0  0  0  0
  141.8570   78.6450  223.2800 C   0  0  0  0  0  0  0  0  0  0  0  0
  141.8460   78.8530  221.9160 C   0  0  0  0  0  0  0  0  0  0  0  0
  141.8240   77.8300  221.0380 N   0  0  0  0  0  0  0  0  0  0  0  0
  143.7090   76.1820  219.1600 H   0  0  0  0  0  0  0  0  0  0  0  0
  142.1496   75.4787  216.6895 H   0  0  0  0  0  0  0  0  0  0  0  0
  143.7603   74.7905  217.1907 H   0  0  0  0  0  0  0  0  0  0  0  0
  143.2549   70.9900  218.7402 H   0  0  0  0  0  0  0  0  0  0  0  0
  143.9845   72.0137  217.5298 H   0  0  0  0  0  0  0  0  0  0  0  0
  144.7313   71.6107  220.4603 H   0  0  0  0  0  0  0  0  0  0  0  0
  145.8108   71.9312  219.0454 H   0  0  0  0  0  0  0  0  0  0  0  0
  145.9093   73.8363  220.5231 H   0  0  0  0  0  0  0  0  0  0  0  0
  144.9734   74.2874  219.0330 H   0  0  0  0  0  0  0  0  0  0  0  0
  144.0332   74.0009  221.8801 H   0  0  0  0  0  0  0  0  0  0  0  0
  143.5667   75.1948  220.6582 H   0  0  0  0  0  0  0  0  0  0  0  0
  142.6986   72.2656  220.9178 H   0  0  0  0  0  0  0  0  0  0  0  0
  140.3140   72.7050  219.2660 H   0  0  0  0  0  0  0  0  0  0  0  0
  138.1531   73.3374  219.6837 H   0  0  0  0  0  0  0  0  0  0  0  0
  138.5220   73.0128  221.4040 H   0  0  0  0  0  0  0  0  0  0  0  0
  138.5668   74.5896  222.9115 H   0  0  0  0  0  0  0  0  0  0  0  0
  138.4296   76.9535  223.6168 H   0  0  0  0  0  0  0  0  0  0  0  0
  138.5598   78.3792  224.1193 H   0  0  0  0  0  0  0  0  0  0  0  0
  138.4086   80.6823  225.1025 H   0  0  0  0  0  0  0  0  0  0  0  0
  138.2839   82.2991  221.1929 H   0  0  0  0  0  0  0  0  0  0  0  0
  138.4276   80.0587  220.1479 H   0  0  0  0  0  0  0  0  0  0  0  0
  138.7723   78.1667  219.5220 H   0  0  0  0  0  0  0  0  0  0  0  0
  138.9148   75.7850  218.7935 H   0  0  0  0  0  0  0  0  0  0  0  0
  141.8214   79.5508  218.2078 H   0  0  0  0  0  0  0  0  0  0  0  0
  141.8621   81.4618  219.7604 H   0  0  0  0  0  0  0  0  0  0  0  0
  141.8954   82.2712  222.0327 H   0  0  0  0  0  0  0  0  0  0  0  0
  141.9146   81.8231  224.4731 H   0  0  0  0  0  0  0  0  0  0  0  0
  141.8863   79.4698  225.2745 H   0  0  0  0  0  0  0  0  0  0  0  0
  141.8471   77.6114  223.6562 H   0  0  0  0  0  0  0  0  0  0  0  0
  1  2  2  0
  2  3  1  0
  3  4  1  0
  4  5  1  0
  5  6  2  0
  5  7  1  0
  7  8  1  0
  8  9  1  0
  9 10  1  0
 10 11  1  0
 11 12  1  0
 12 13  1  0
 13 14  2  0
 13 15  1  0
 15 16  1  0
 16 17  1  0
 17 18  2  0
 18 19  1  0
 19 20  2  0
 20 21  1  0
 21 22  2  0
 22 23  1  0
 23 24  2  0
 24 25  1  0
 25 26  2  0
 20 27  1  0
 27 28  2  0
  2 29  1  0
 29 30  2  0
 30 31  1  0
 31 32  2  0
 32 33  1  0
 33 34  2  0
 34 35  1  0
 35 36  2  0
 36 37  1  0
 37 38  2  0
 12  7  1  0
 28 17  1  0
 38 29  1  0
 26 21  1  0
 37 32  1  0
  3 39  1  0
  4 40  1  0
  4 41  1  0
  8 42  1  0
  8 43  1  0
  9 44  1  0
  9 45  1  0
 10 46  1  0
 10 47  1  0
 11 48  1  0
 11 49  1  0
 12 50  1  1
 15 51  1  0
 16 52  1  0
 16 53  1  0
 18 54  1  0
 19 55  1  0
 22 56  1  0
 23 57  1  0
 25 58  1  0
 26 59  1  0
 27 60  1  0
 28 61  1  0
 30 62  1  0
 31 63  1  0
 33 64  1  0
 34 65  1  0
 35 66  1  0
 36 67  1  0
M  END
>  <smiles>  (19) 
O=C(NCC(=O)N1CCCC[C@H]1C(=O)NCc1ccc(-c2ccncc2)cc1)c1ccc2ccccc2n1

>  <score_type>  (19) 
oracle

>  <origin>  (19) 
autodockgpu

>  <m_score__min__energy>  (19) 
-10.5

>  <m_primary>  (19) 
energy

>  <rmsd>  (19) 
7.828096942489753

>  <m_score__min__rmsd>  (19) 
7.828096942489753

>  <meeko>  (19) 
{"free_energy": -6.51, "intermolecular_energy": -8.9, "internal_energy": -5.41, "cluster_size": 12, "cluster_id": 11, "rank_in_cluster": 9}

>  <energy>  (19) 
-8.98

>  <cluster_rmsd>  (19) 
1.79

>  <cluster>  (19) 
5

$$$$

     RDKit          3D

 67 71  0  0  0  0  0  0  0  0999 V2000
  140.3130   74.4920  222.0000 O   0  0  0  0  0  0  0  0  0  0  0  0
  140.1670   75.5500  221.3370 C   0  0  0  0  0  0  0  0  0  0  0  0
  139.8770   75.3990  219.9420 N   0  0  0  0  0  0  0  0  0  0  0  0
  139.7730   74.0560  219.4210 C   0  0  0  0  0  0  0  0  0  0  0  0
  141.0580   73.5490  218.8710 C   0  0  0  0  0  0  0  0  0  0  0  0
  141.0850   73.2980  217.6470 O   0  0  0  0  0  0  0  0  0  0  0  0
  142.1420   73.3910  219.7640 N   0  0  0  0  0  0  0  0  0  0  0  0
  142.0230   72.5060  220.9530 C   0  0  0  0  0  0  0  0  0  0  0  0
  143.3670   71.7520  220.9330 C   0  0  0  0  0  0  0  0  0  0  0  0
  143.9060   71.6300  219.5120 C   0  0  0  0  0  0  0  0  0  0  0  0
  144.3120   72.9820  218.9330 C   0  0  0  0  0  0  0  0  0  0  0  0
  143.4390   74.0120  219.6260 C   0  0  1  0  0  0  0  0  0  0  0  0
  143.4680   75.3510  219.0590 C   0  0  0  0  0  0  0  0  0  0  0  0
  143.8430   76.3960  219.6430 O   0  0  0  0  0  0  0  0  0  0  0  0
  143.0300   75.5080  217.7080 N   0  0  0  0  0  0  0  0  0  0  0  0
  143.0060   76.7610  216.9990 C   0  0  0  0  0  0  0  0  0  0  0  0
  142.2320   77.7380  217.7960 C   0  0  0  0  0  0  0  0  0  0  0  0
  142.9320   78.8840  218.1980 C   0  0  0  0  0  0  0  0  0  0  0  0
  142.3220   79.8730  218.9410 C   0  0  0  0  0  0  0  0  0  0  0  0
  140.9970   79.7390  219.2980 C   0  0  0  0  0  0  0  0  0  0  0  0
  140.4030   80.8120  220.0860 C   0  0  0  0  0  0  0  0  0  0  0  0
  141.2490   81.8530  220.4430 C   0  0  0  0  0  0  0  0  0  0  0  0
  140.7740   82.9300  221.2000 C   0  0  0  0  0  0  0  0  0  0  0  0
  139.4800   82.9270  221.5690 N   0  0  0  0  0  0  0  0  0  0  0  0
  138.6640   81.9110  221.2180 C   0  0  0  0  0  0  0  0  0  0  0  0
  139.0810   80.8280  220.4750 C   0  0  0  0  0  0  0  0  0  0  0  0
  140.3060   78.6130  218.9030 C   0  0  0  0  0  0  0  0  0  0  0  0
  140.9150   77.6020  218.1490 C   0  0  0  0  0  0  0  0  0  0  0  0
  140.2910   76.8510  221.9660 C   0  0  0  0  0  0  0  0  0  0  0  0
  139.1620   77.4450  222.4850 C   0  0  0  0  0  0  0  0  0  0  0  0
  139.1640   78.6760  223.1050 C   0  0  0  0  0  0  0  0  0  0  0  0
  140.3510   79.3430  223.2090 C   0  0  0  0  0  0  0  0  0  0  0  0
  140.4110   80.5850  223.8230 C   0  0  0  0  0  0  0  0  0  0  0  0
  141.6060   81.2610  223.9300 C   0  0  0  0  0  0  0  0  0  0  0  0
  142.7450   80.6820  223.4160 C   0  0  0  0  0  0  0  0  0  0  0  0
  142.6760   79.4390  222.8040 C   0  0  0  0  0  0  0  0  0  0  0  0
  141.4960   78.7350  222.6800 C   0  0  0  0  0  0  0  0  0  0  0  0
  141.4440   77.5280  222.0820 N   0  0  0  0  0  0  0  0  0  0  0  0
  139.7550   76.2640  219.3740 H   0  0  0  0  0  0  0  0  0  0  0  0
  139.4508   73.3881  220.2334 H   0  0  0  0  0  0  0  0  0  0  0  0
  139.0455   74.0767  218.5962 H   0  0  0  0  0  0  0  0  0  0  0  0
  141.9082   73.0922  221.8767 H   0  0  0  0  0  0  0  0  0  0  0  0
  141.1448   71.8442  220.9249 H   0  0  0  0  0  0  0  0  0  0  0  0
  144.0958   72.3002  221.5480 H   0  0  0  0  0  0  0  0  0  0  0  0
  143.2065   70.7404  221.3342 H   0  0  0  0  0  0  0  0  0  0  0  0
  144.7860   70.9700  219.5221 H   0  0  0  0  0  0  0  0  0  0  0  0
  143.1049   71.2183  218.8805 H   0  0  0  0  0  0  0  0  0  0  0  0
  145.3743   73.1818  219.1369 H   0  0  0  0  0  0  0  0  0  0  0  0
  144.1790   73.0096  217.8414 H   0  0  0  0  0  0  0  0  0  0  0  0
  143.8395   74.2607  220.6199 H   0  0  0  0  0  0  0  0  0  0  0  0
  142.6950   74.6560  217.1700 H   0  0  0  0  0  0  0  0  0  0  0  0
  144.0336   77.1277  216.8591 H   0  0  0  0  0  0  0  0  0  0  0  0
  142.5391   76.6262  216.0122 H   0  0  0  0  0  0  0  0  0  0  0  0
  143.9890   78.9968  217.9152 H   0  0  0  0  0  0  0  0  0  0  0  0
  142.8897   80.7641  219.2472 H   0  0  0  0  0  0  0  0  0  0  0  0
  142.3027   81.8312  220.1279 H   0  0  0  0  0  0  0  0  0  0  0  0
  141.4407   83.7569  221.4857 H   0  0  0  0  0  0  0  0  0  0  0  0
  137.6133   81.9493  221.5413 H   0  0  0  0  0  0  0  0  0  0  0  0
  138.3913   80.0147  220.2051 H   0  0  0  0  0  0  0  0  0  0  0  0
  139.2488   78.5060  219.1875 H   0  0  0  0  0  0  0  0  0  0  0  0
  140.3446   76.7120  217.8447 H   0  0  0  0  0  0  0  0  0  0  0  0
  138.2061   76.9074  222.4000 H   0  0  0  0  0  0  0  0  0  0  0  0
  138.2353   79.1091  223.5049 H   0  0  0  0  0  0  0  0  0  0  0  0
  139.4934   81.0354  224.2293 H   0  0  0  0  0  0  0  0  0  0  0  0
  141.6500   82.2461  224.4174 H   0  0  0  0  0  0  0  0  0  0  0  0
  143.7096   81.2053  223.4908 H   0  0  0  0  0  0  0  0  0  0  0  0
  143.5993   78.9969  222.4014 H   0  0  0  0  0  0  0  0  0  0  0  0
  1  2  2  0
  2  3  1  0
  3  4  1  0
  4  5  1  0
  5  6  2  0
  5  7  1  0
  7  8  1  0
  8  9  1  0
  9 10  1  0
 10 11  1  0
 11 12  1  0
 12 13  1  0
 13 14  2  0
 13 15  1  0
 15 16  1  0
 16 17  1  0
 17 18  2  0
 18 19  1  0
 19 20  2  0
 20 21  1  0
 21 22  2  0
 22 23  1  0
 23 24  2  0
 24 25  1  0
 25 26  2  0
 20 27  1  0
 27 28  2  0
  2 29  1  0
 29 30  2  0
 30 31  1  0
 31 32  2  0
 32 33  1  0
 33 34  2  0
 34 35  1  0
 35 36  2  0
 36 37  1  0
 37 38  2  0
 12  7  1  0
 28 17  1  0
 38 29  1  0
 26 21  1  0
 37 32  1  0
  3 39  1  0
  4 40  1  0
  4 41  1  0
  8 42  1  0
  8 43  1  0
  9 44  1  0
  9 45  1  0
 10 46  1  0
 10 47  1  0
 11 48  1  0
 11 49  1  0
 12 50  1  1
 15 51  1  0
 16 52  1  0
 16 53  1  0
 18 54  1  0
 19 55  1  0
 22 56  1  0
 23 57  1  0
 25 58  1  0
 26 59  1  0
 27 60  1  0
 28 61  1  0
 30 62  1  0
 31 63  1  0
 33 64  1  0
 34 65  1  0
 35 66  1  0
 36 67  1  0
M  END
>  <smiles>  (20) 
O=C(NCC(=O)N1CCCC[C@H]1C(=O)NCc1ccc(-c2ccncc2)cc1)c1ccc2ccccc2n1

>  <score_type>  (20) 
oracle

>  <origin>  (20) 
autodockgpu

>  <m_score__min__energy>  (20) 
-10.5

>  <m_primary>  (20) 
energy

>  <rmsd>  (20) 
6.838870528456404

>  <m_score__min__rmsd>  (20) 
6.838870528456404

>  <meeko>  (20) 
{"free_energy": -6.91, "intermolecular_energy": -9.29, "internal_energy": -5.36, "cluster_size": 12, "cluster_id": 11, "rank_in_cluster": 6}

>  <energy>  (20) 
-8.68

>  <cluster_rmsd>  (20) 
1.52

>  <cluster>  (20) 
5

$$$$

     RDKit          3D

 67 71  0  0  0  0  0  0  0  0999 V2000
  139.6620   74.1630  219.0450 O   0  0  0  0  0  0  0  0  0  0  0  0
  140.7230   74.6020  219.5590 C   0  0  0  0  0  0  0  0  0  0  0  0
  141.4690   73.6860  220.3700 N   0  0  0  0  0  0  0  0  0  0  0  0
  140.9460   72.3480  220.5230 C   0  0  0  0  0  0  0  0  0  0  0  0
  140.2120   72.1580  221.8010 C   0  0  0  0  0  0  0  0  0  0  0  0
  140.5210   72.9170  222.7450 O   0  0  0  0  0  0  0  0  0  0  0  0
  139.2280   71.1450  221.8540 N   0  0  0  0  0  0  0  0  0  0  0  0
  139.5850   69.7270  221.5830 C   0  0  0  0  0  0  0  0  0  0  0  0
  138.8270   68.9830  222.7000 C   0  0  0  0  0  0  0  0  0  0  0  0
  138.6570   69.8660  223.9300 C   0  0  0  0  0  0  0  0  0  0  0  0
  137.7240   71.0450  223.6690 C   0  0  0  0  0  0  0  0  0  0  0  0
  137.8370   71.3440  222.1850 C   0  0  1  0  0  0  0  0  0  0  0  0
  137.2280   72.5890  221.7430 C   0  0  0  0  0  0  0  0  0  0  0  0
  136.2760   72.7030  220.9330 O   0  0  0  0  0  0  0  0  0  0  0  0
  137.7530   73.8080  222.2710 N   0  0  0  0  0  0  0  0  0  0  0  0
  137.2580   75.1190  221.9430 C   0  0  0  0  0  0  0  0  0  0  0  0
  138.3260   76.1070  222.2170 C   0  0  0  0  0  0  0  0  0  0  0  0
  137.9000   77.4320  222.3800 C   0  0  0  0  0  0  0  0  0  0  0  0
  138.7960   78.4460  222.6460 C   0  0  0  0  0  0  0  0  0  0  0  0
  140.1400   78.1570  222.7550 C   0  0  0  0  0  0  0  0  0  0  0  0
  141.0440   79.2670  223.0330 C   0  0  0  0  0  0  0  0  0  0  0  0
  142.3840   79.0570  222.7370 C   0  0  0  0  0  0  0  0  0  0  0  0
  143.3300   80.0620  222.9690 C   0  0  0  0  0  0  0  0  0  0  0  0
  142.9050   81.2300  223.4850 N   0  0  0  0  0  0  0  0  0  0  0  0
  141.6010   81.4250  223.7700 C   0  0  0  0  0  0  0  0  0  0  0  0
  140.6300   80.4700  223.5610 C   0  0  0  0  0  0  0  0  0  0  0  0
  140.5620   76.8530  222.5960 C   0  0  0  0  0  0  0  0  0  0  0  0
  139.6600   75.8160  222.3260 C   0  0  0  0  0  0  0  0  0  0  0  0
  141.1550   75.9680  219.3350 C   0  0  0  0  0  0  0  0  0  0  0  0
  142.4330   76.1890  218.8680 C   0  0  0  0  0  0  0  0  0  0  0  0
  142.9470   77.4430  218.6190 C   0  0  0  0  0  0  0  0  0  0  0  0
  142.1460   78.5250  218.8480 C   0  0  0  0  0  0  0  0  0  0  0  0
  142.6120   79.8100  218.6150 C   0  0  0  0  0  0  0  0  0  0  0  0
  141.8080   80.9040  218.8450 C   0  0  0  0  0  0  0  0  0  0  0  0
  140.5280   80.7010  219.3120 C   0  0  0  0  0  0  0  0  0  0  0  0
  140.0710   79.4120  219.5430 C   0  0  0  0  0  0  0  0  0  0  0  0
  140.8490   78.2950  219.3220 C   0  0  0  0  0  0  0  0  0  0  0  0
  140.3900   77.0490  219.5510 N   0  0  0  0  0  0  0  0  0  0  0  0
  142.3500   74.0290  220.8080 H   0  0  0  0  0  0  0  0  0  0  0  0
  140.2586   72.1421  219.6892 H   0  0  0  0  0  0  0  0  0  0  0  0
  141.8018   71.6570  220.5273 H   0  0  0  0  0  0  0  0  0  0  0  0
  139.2392   69.4116  220.5875 H   0  0  0  0  0  0  0  0  0  0  0  0
  140.6684   69.5364  221.5810 H   0  0  0  0  0  0  0  0  0  0  0  0
  137.8341   68.6910  222.3274 H   0  0  0  0  0  0  0  0  0  0  0  0
  139.4095   68.0947  222.9856 H   0  0  0  0  0  0  0  0  0  0  0  0
  138.2404   69.2587  224.7471 H   0  0  0  0  0  0  0  0  0  0  0  0
  139.6453   70.2698  224.1949 H   0  0  0  0  0  0  0  0  0  0  0  0
  136.6887   70.7783  223.9279 H   0  0  0  0  0  0  0  0  0  0  0  0
  137.9967   71.9187  224.2791 H   0  0  0  0  0  0  0  0  0  0  0  0
  137.2141   70.6542  221.5966 H   0  0  0  0  0  0  0  0  0  0  0  0
  138.5640   73.7680  222.9560 H   0  0  0  0  0  0  0  0  0  0  0  0
  136.9826   75.1560  220.8787 H   0  0  0  0  0  0  0  0  0  0  0  0
  136.3685   75.3481  222.5483 H   0  0  0  0  0  0  0  0  0  0  0  0
  136.8291   77.6681  222.2940 H   0  0  0  0  0  0  0  0  0  0  0  0
  138.4406   79.4795  222.7705 H   0  0  0  0  0  0  0  0  0  0  0  0
  142.7050   78.0925  222.3165 H   0  0  0  0  0  0  0  0  0  0  0  0
  144.3929   79.9014  222.7357 H   0  0  0  0  0  0  0  0  0  0  0  0
  141.2976   82.3952  224.1904 H   0  0  0  0  0  0  0  0  0  0  0  0
  139.5741   80.6593  223.8043 H   0  0  0  0  0  0  0  0  0  0  0  0
  141.6339   76.6220  222.6835 H   0  0  0  0  0  0  0  0  0  0  0  0
  140.0177   74.7830  222.2033 H   0  0  0  0  0  0  0  0  0  0  0  0
  143.0776   75.3168  218.6841 H   0  0  0  0  0  0  0  0  0  0  0  0
  143.9742   77.5690  218.2461 H   0  0  0  0  0  0  0  0  0  0  0  0
  143.6363   79.9572  218.2419 H   0  0  0  0  0  0  0  0  0  0  0  0
  142.1812   81.9219  218.6591 H   0  0  0  0  0  0  0  0  0  0  0  0
  139.8686   81.5608  219.5016 H   0  0  0  0  0  0  0  0  0  0  0  0
  139.0459   79.2751  219.9179 H   0  0  0  0  0  0  0  0  0  0  0  0
  1  2  2  0
  2  3  1  0
  3  4  1  0
  4  5  1  0
  5  6  2  0
  5  7  1  0
  7  8  1  0
  8  9  1  0
  9 10  1  0
 10 11  1  0
 11 12  1  0
 12 13  1  0
 13 14  2  0
 13 15  1  0
 15 16  1  0
 16 17  1  0
 17 18  2  0
 18 19  1  0
 19 20  2  0
 20 21  1  0
 21 22  2  0
 22 23  1  0
 23 24  2  0
 24 25  1  0
 25 26  2  0
 20 27  1  0
 27 28  2  0
  2 29  1  0
 29 30  2  0
 30 31  1  0
 31 32  2  0
 32 33  1  0
 33 34  2  0
 34 35  1  0
 35 36  2  0
 36 37  1  0
 37 38  2  0
 12  7  1  0
 28 17  1  0
 38 29  1  0
 26 21  1  0
 37 32  1  0
  3 39  1  0
  4 40  1  0
  4 41  1  0
  8 42  1  0
  8 43  1  0
  9 44  1  0
  9 45  1  0
 10 46  1  0
 10 47  1  0
 11 48  1  0
 11 49  1  0
 12 50  1  6
 15 51  1  0
 16 52  1  0
 16 53  1  0
 18 54  1  0
 19 55  1  0
 22 56  1  0
 23 57  1  0
 25 58  1  0
 26 59  1  0
 27 60  1  0
 28 61  1  0
 30 62  1  0
 31 63  1  0
 33 64  1  0
 34 65  1  0
 35 66  1  0
 36 67  1  0
M  END
>  <smiles>  (21) 
O=C(NCC(=O)N1CCCC[C@H]1C(=O)NCc1ccc(-c2ccncc2)cc1)c1ccc2ccccc2n1

>  <score_type>  (21) 
oracle

>  <origin>  (21) 
autodockgpu

>  <m_score__min__energy>  (21) 
-10.5

>  <m_primary>  (21) 
energy

>  <rmsd>  (21) 
8.15285389621203

>  <m_score__min__rmsd>  (21) 
8.15285389621203

>  <meeko>  (21) 
{"free_energy": -7.05, "intermolecular_energy": -9.43, "internal_energy": -4.92, "cluster_size": 4, "cluster_id": 9, "rank_in_cluster": 4}

>  <energy>  (21) 
-8.37

>  <cluster_rmsd>  (21) 
1.08

>  <cluster>  (21) 
5

$$$$

     RDKit          3D

 67 71  0  0  0  0  0  0  0  0999 V2000
  139.9880   74.6380  221.9670 O   0  0  0  0  0  0  0  0  0  0  0  0
  140.6890   75.6770  221.8680 C   0  0  0  0  0  0  0  0  0  0  0  0
  141.9590   75.5350  221.2220 N   0  0  0  0  0  0  0  0  0  0  0  0
  142.3220   74.2230  220.7390 C   0  0  0  0  0  0  0  0  0  0  0  0
  143.5990   74.2200  219.9790 C   0  0  0  0  0  0  0  0  0  0  0  0
  144.3930   75.1580  220.2110 O   0  0  0  0  0  0  0  0  0  0  0  0
  143.8200   73.1690  219.0600 N   0  0  0  0  0  0  0  0  0  0  0  0
  144.7700   72.0710  219.3780 C   0  0  0  0  0  0  0  0  0  0  0  0
  143.9880   70.8230  218.9220 C   0  0  0  0  0  0  0  0  0  0  0  0
  142.4850   71.0500  219.0240 C   0  0  0  0  0  0  0  0  0  0  0  0
  141.9910   72.0950  218.0260 C   0  0  0  0  0  0  0  0  0  0  0  0
  143.1660   73.0240  217.7810 C   0  0  1  0  0  0  0  0  0  0  0  0
  142.8630   74.2480  217.0550 C   0  0  0  0  0  0  0  0  0  0  0  0
  141.9430   74.4050  216.2170 O   0  0  0  0  0  0  0  0  0  0  0  0
  143.6850   75.3890  217.3090 N   0  0  0  0  0  0  0  0  0  0  0  0
  143.5130   76.6730  216.6820 C   0  0  0  0  0  0  0  0  0  0  0  0
  142.9060   77.5990  217.6640 C   0  0  0  0  0  0  0  0  0  0  0  0
  142.6350   78.8910  217.1940 C   0  0  0  0  0  0  0  0  0  0  0  0
  142.0640   79.8450  218.0090 C   0  0  0  0  0  0  0  0  0  0  0  0
  141.7500   79.5280  219.3140 C   0  0  0  0  0  0  0  0  0  0  0  0
  141.1510   80.5760  220.1330 C   0  0  0  0  0  0  0  0  0  0  0  0
  139.8240   80.8820  219.8640 C   0  0  0  0  0  0  0  0  0  0  0  0
  139.1600   81.8740  220.5950 C   0  0  0  0  0  0  0  0  0  0  0  0
  139.8420   82.5180  221.5600 N   0  0  0  0  0  0  0  0  0  0  0  0
  141.1310   82.2150  221.8140 C   0  0  0  0  0  0  0  0  0  0  0  0
  141.8310   81.2480  221.1250 C   0  0  0  0  0  0  0  0  0  0  0  0
  142.0140   78.2570  219.7790 C   0  0  0  0  0  0  0  0  0  0  0  0
  142.5940   77.2800  218.9600 C   0  0  0  0  0  0  0  0  0  0  0  0
  140.2220   76.9480  222.3890 C   0  0  0  0  0  0  0  0  0  0  0  0
  141.1340   77.7980  222.9750 C   0  0  0  0  0  0  0  0  0  0  0  0
  140.8030   79.0270  223.5010 C   0  0  0  0  0  0  0  0  0  0  0  0
  139.4980   79.4250  223.4380 C   0  0  0  0  0  0  0  0  0  0  0  0
  139.1090   80.6520  223.9510 C   0  0  0  0  0  0  0  0  0  0  0  0
  137.7930   81.0560  223.8900 C   0  0  0  0  0  0  0  0  0  0  0  0
  136.8680   80.2190  223.3080 C   0  0  0  0  0  0  0  0  0  0  0  0
  137.2660   78.9930  222.7970 C   0  0  0  0  0  0  0  0  0  0  0  0
  138.5750   78.5580  222.8410 C   0  0  0  0  0  0  0  0  0  0  0  0
  138.9470   77.3630  222.3400 N   0  0  0  0  0  0  0  0  0  0  0  0
  142.5570   76.3830  221.1310 H   0  0  0  0  0  0  0  0  0  0  0  0
  142.4249   73.5476  221.6011 H   0  0  0  0  0  0  0  0  0  0  0  0
  141.5284   73.8924  220.0528 H   0  0  0  0  0  0  0  0  0  0  0  0
  145.7092   72.1807  218.8161 H   0  0  0  0  0  0  0  0  0  0  0  0
  145.0730   72.0410  220.4350 H   0  0  0  0  0  0  0  0  0  0  0  0
  144.2473   70.5986  217.8768 H   0  0  0  0  0  0  0  0  0  0  0  0
  144.2596   69.9819  219.5769 H   0  0  0  0  0  0  0  0  0  0  0  0
  141.9688   70.0991  218.8260 H   0  0  0  0  0  0  0  0  0  0  0  0
  142.2671   71.4202  220.0366 H   0  0  0  0  0  0  0  0  0  0  0  0
  141.6829   71.6118  217.0870 H   0  0  0  0  0  0  0  0  0  0  0  0
  141.1178   72.6413  218.4121 H   0  0  0  0  0  0  0  0  0  0  0  0
  143.8673   72.5874  217.0547 H   0  0  0  0  0  0  0  0  0  0  0  0
  144.4830   75.3070  218.0050 H   0  0  0  0  0  0  0  0  0  0  0  0
  144.4901   77.0623  216.3600 H   0  0  0  0  0  0  0  0  0  0  0  0
  142.8605   76.5775  215.8016 H   0  0  0  0  0  0  0  0  0  0  0  0
  142.8829   79.1492  216.1538 H   0  0  0  0  0  0  0  0  0  0  0  0
  141.8599   80.8537  217.6206 H   0  0  0  0  0  0  0  0  0  0  0  0
  139.2897   80.3403  219.0696 H   0  0  0  0  0  0  0  0  0  0  0  0
  138.1085   82.1206  220.3862 H   0  0  0  0  0  0  0  0  0  0  0  0
  141.6501   82.7673  222.6112 H   0  0  0  0  0  0  0  0  0  0  0  0
  142.8827   81.0235  221.3562 H   0  0  0  0  0  0  0  0  0  0  0  0
  141.7627   78.0040  220.8196 H   0  0  0  0  0  0  0  0  0  0  0  0
  142.7961   76.2719  219.3510 H   0  0  0  0  0  0  0  0  0  0  0  0
  142.1850   77.4773  223.0256 H   0  0  0  0  0  0  0  0  0  0  0  0
  141.5686   79.6704  223.9593 H   0  0  0  0  0  0  0  0  0  0  0  0
  139.8593   81.3111  224.4122 H   0  0  0  0  0  0  0  0  0  0  0  0
  137.4870   82.0302  224.2992 H   0  0  0  0  0  0  0  0  0  0  0  0
  135.8125   80.5229  223.2483 H   0  0  0  0  0  0  0  0  0  0  0  0
  136.5081   78.3410  222.3382 H   0  0  0  0  0  0  0  0  0  0  0  0
  1  2  2  0
  2  3  1  0
  3  4  1  0
  4  5  1  0
  5  6  2  0
  5  7  1  0
  7  8  1  0
  8  9  1  0
  9 10  1  0
 10 11  1  0
 11 12  1  0
 12 13  1  0
 13 14  2  0
 13 15  1  0
 15 16  1  0
 16 17  1  0
 17 18  2  0
 18 19  1  0
 19 20  2  0
 20 21  1  0
 21 22  2  0
 22 23  1  0
 23 24  2  0
 24 25  1  0
 25 26  2  0
 20 27  1  0
 27 28  2  0
  2 29  1  0
 29 30  2  0
 30 31  1  0
 31 32  2  0
 32 33  1  0
 33 34  2  0
 34 35  1  0
 35 36  2  0
 36 37  1  0
 37 38  2  0
 12  7  1  0
 28 17  1  0
 38 29  1  0
 26 21  1  0
 37 32  1  0
  3 39  1  0
  4 40  1  0
  4 41  1  0
  8 42  1  0
  8 43  1  0
  9 44  1  0
  9 45  1  0
 10 46  1  0
 10 47  1  0
 11 48  1  0
 11 49  1  0
 12 50  1  6
 15 51  1  0
 16 52  1  0
 16 53  1  0
 18 54  1  0
 19 55  1  0
 22 56  1  0
 23 57  1  0
 25 58  1  0
 26 59  1  0
 27 60  1  0
 28 61  1  0
 30 62  1  0
 31 63  1  0
 33 64  1  0
 34 65  1  0
 35 66  1  0
 36 67  1  0
M  END
>  <smiles>  (22) 
O=C(NCC(=O)N1CCCC[C@H]1C(=O)NCc1ccc(-c2ccncc2)cc1)c1ccc2ccccc2n1

>  <score_type>  (22) 
oracle

>  <origin>  (22) 
autodockgpu

>  <m_score__min__energy>  (22) 
-10.5

>  <m_primary>  (22) 
energy

>  <rmsd>  (22) 
7.278720350522086

>  <m_score__min__rmsd>  (22) 
7.278720350522086

>  <meeko>  (22) 
{"free_energy": -7.43, "intermolecular_energy": -9.82, "internal_energy": -4.75, "cluster_size": 12, "cluster_id": 11, "rank_in_cluster": 4}

>  <energy>  (22) 
-8.72

>  <cluster_rmsd>  (22) 
0.0

>  <cluster>  (22) 
6

$$$$

     RDKit          3D

 67 71  0  0  0  0  0  0  0  0999 V2000
  139.7450   79.2790  219.6780 O   0  0  0  0  0  0  0  0  0  0  0  0
  140.9360   79.6720  219.7650 C   0  0  0  0  0  0  0  0  0  0  0  0
  141.8310   78.8430  220.5150 N   0  0  0  0  0  0  0  0  0  0  0  0
  141.2960   77.6340  221.0980 C   0  0  0  0  0  0  0  0  0  0  0  0
  140.3470   77.9010  222.2110 C   0  0  0  0  0  0  0  0  0  0  0  0
  139.2930   77.2290  222.2240 O   0  0  0  0  0  0  0  0  0  0  0  0
  140.7030   78.8850  223.1610 N   0  0  0  0  0  0  0  0  0  0  0  0
  141.9650   78.7670  223.9390 C   0  0  0  0  0  0  0  0  0  0  0  0
  142.5160   80.2050  223.8830 C   0  0  0  0  0  0  0  0  0  0  0  0
  142.0590   80.9190  222.6160 C   0  0  0  0  0  0  0  0  0  0  0  0
  140.5550   81.1740  222.6100 C   0  0  0  0  0  0  0  0  0  0  0  0
  139.9430   80.0760  223.4590 C   0  0  1  0  0  0  0  0  0  0  0  0
  138.4930   79.9620  223.3980 C   0  0  0  0  0  0  0  0  0  0  0  0
  137.6840   80.2940  224.2970 O   0  0  0  0  0  0  0  0  0  0  0  0
  137.9210   79.4220  222.2050 N   0  0  0  0  0  0  0  0  0  0  0  0
  136.5090   79.2520  221.9830 C   0  0  0  0  0  0  0  0  0  0  0  0
  136.0330   78.1250  222.8170 C   0  0  0  0  0  0  0  0  0  0  0  0
  134.9590   78.4130  223.6690 C   0  0  0  0  0  0  0  0  0  0  0  0
  134.4200   77.4470  224.4930 C   0  0  0  0  0  0  0  0  0  0  0  0
  134.9430   76.1710  224.4820 C   0  0  0  0  0  0  0  0  0  0  0  0
  134.3370   75.1910  225.3750 C   0  0  0  0  0  0  0  0  0  0  0  0
  133.4560   75.6870  226.3260 C   0  0  0  0  0  0  0  0  0  0  0  0
  132.8230   74.8260  227.2290 C   0  0  0  0  0  0  0  0  0  0  0  0
  133.0930   73.5100  227.1510 N   0  0  0  0  0  0  0  0  0  0  0  0
  133.9510   73.0360  226.2240 C   0  0  0  0  0  0  0  0  0  0  0  0
  134.6000   73.8400  225.3120 C   0  0  0  0  0  0  0  0  0  0  0  0
  136.0000   75.8860  223.6430 C   0  0  0  0  0  0  0  0  0  0  0  0
  136.5550   76.8580  222.8030 C   0  0  0  0  0  0  0  0  0  0  0  0
  141.3660   80.9060  219.1360 C   0  0  0  0  0  0  0  0  0  0  0  0
  140.5860   82.0310  219.2850 C   0  0  0  0  0  0  0  0  0  0  0  0
  140.8980   83.2550  218.7330 C   0  0  0  0  0  0  0  0  0  0  0  0
  142.0450   83.3550  217.9970 C   0  0  0  0  0  0  0  0  0  0  0  0
  142.4080   84.5620  217.4180 C   0  0  0  0  0  0  0  0  0  0  0  0
  143.5630   84.6680  216.6750 C   0  0  0  0  0  0  0  0  0  0  0  0
  144.3540   83.5520  216.5160 C   0  0  0  0  0  0  0  0  0  0  0  0
  143.9830   82.3500  217.0980 C   0  0  0  0  0  0  0  0  0  0  0  0
  142.8340   82.2090  217.8490 C   0  0  0  0  0  0  0  0  0  0  0  0
  142.4870   81.0330  218.4080 N   0  0  0  0  0  0  0  0  0  0  0  0
  142.8230   79.1510  220.6030 H   0  0  0  0  0  0  0  0  0  0  0  0
  140.7689   77.0697  220.3146 H   0  0  0  0  0  0  0  0  0  0  0  0
  142.1409   77.0649  221.5131 H   0  0  0  0  0  0  0  0  0  0  0  0
  141.7673   78.4555  224.9753 H   0  0  0  0  0  0  0  0  0  0  0  0
  142.6596   78.0117  223.5428 H   0  0  0  0  0  0  0  0  0  0  0  0
  142.1547   80.7625  224.7597 H   0  0  0  0  0  0  0  0  0  0  0  0
  143.6150   80.1581  223.8805 H   0  0  0  0  0  0  0  0  0  0  0  0
  142.5824   81.8839  222.5445 H   0  0  0  0  0  0  0  0  0  0  0  0
  142.2955   80.2714  221.7589 H   0  0  0  0  0  0  0  0  0  0  0  0
  140.3326   82.1607  223.0424 H   0  0  0  0  0  0  0  0  0  0  0  0
  140.1487   81.1676  221.5878 H   0  0  0  0  0  0  0  0  0  0  0  0
  140.0307   80.3135  224.5295 H   0  0  0  0  0  0  0  0  0  0  0  0
  138.5620   79.1180  221.4150 H   0  0  0  0  0  0  0  0  0  0  0  0
  135.9760   80.1723  222.2642 H   0  0  0  0  0  0  0  0  0  0  0  0
  136.3180   79.0407  220.9205 H   0  0  0  0  0  0  0  0  0  0  0  0
  134.5374   79.4289  223.6812 H   0  0  0  0  0  0  0  0  0  0  0  0
  133.5772   77.6932  225.1556 H   0  0  0  0  0  0  0  0  0  0  0  0
  133.2535   76.7673  226.3701 H   0  0  0  0  0  0  0  0  0  0  0  0
  132.1228   75.2147  227.9831 H   0  0  0  0  0  0  0  0  0  0  0  0
  134.1422   71.9531  226.1946 H   0  0  0  0  0  0  0  0  0  0  0  0
  135.2953   73.4227  224.5687 H   0  0  0  0  0  0  0  0  0  0  0  0
  136.4175   74.8684  223.6339 H   0  0  0  0  0  0  0  0  0  0  0  0
  137.3977   76.6087  222.1413 H   0  0  0  0  0  0  0  0  0  0  0  0
  139.6628   81.9484  219.8773 H   0  0  0  0  0  0  0  0  0  0  0  0
  140.2426   84.1260  218.8807 H   0  0  0  0  0  0  0  0  0  0  0  0
  141.7660   85.4449  217.5538 H   0  0  0  0  0  0  0  0  0  0  0  0
  143.8483   85.6266  216.2170 H   0  0  0  0  0  0  0  0  0  0  0  0
  145.2808   83.6145  215.9268 H   0  0  0  0  0  0  0  0  0  0  0  0
  144.6310   81.4726  216.9554 H   0  0  0  0  0  0  0  0  0  0  0  0
  1  2  2  0
  2  3  1  0
  3  4  1  0
  4  5  1  0
  5  6  2  0
  5  7  1  0
  7  8  1  0
  8  9  1  0
  9 10  1  0
 10 11  1  0
 11 12  1  0
 12 13  1  0
 13 14  2  0
 13 15  1  0
 15 16  1  0
 16 17  1  0
 17 18  2  0
 18 19  1  0
 19 20  2  0
 20 21  1  0
 21 22  2  0
 22 23  1  0
 23 24  2  0
 24 25  1  0
 25 26  2  0
 20 27  1  0
 27 28  2  0
  2 29  1  0
 29 30  2  0
 30 31  1  0
 31 32  2  0
 32 33  1  0
 33 34  2  0
 34 35  1  0
 35 36  2  0
 36 37  1  0
 37 38  2  0
 12  7  1  0
 28 17  1  0
 38 29  1  0
 26 21  1  0
 37 32  1  0
  3 39  1  0
  4 40  1  0
  4 41  1  0
  8 42  1  0
  8 43  1  0
  9 44  1  0
  9 45  1  0
 10 46  1  0
 10 47  1  0
 11 48  1  0
 11 49  1  0
 12 50  1  1
 15 51  1  0
 16 52  1  0
 16 53  1  0
 18 54  1  0
 19 55  1  0
 22 56  1  0
 23 57  1  0
 25 58  1  0
 26 59  1  0
 27 60  1  0
 28 61  1  0
 30 62  1  0
 31 63  1  0
 33 64  1  0
 34 65  1  0
 35 66  1  0
 36 67  1  0
M  END
>  <smiles>  (23) 
O=C(NCC(=O)N1CCCC[C@H]1C(=O)NCc1ccc(-c2ccncc2)cc1)c1ccc2ccccc2n1

>  <score_type>  (23) 
oracle

>  <origin>  (23) 
autodockgpu

>  <m_score__min__energy>  (23) 
-10.5

>  <m_primary>  (23) 
energy

>  <rmsd>  (23) 
10.319024002801884

>  <m_score__min__rmsd>  (23) 
10.319024002801884

>  <meeko>  (23) 
{"free_energy": -7.99, "intermolecular_energy": -10.38, "internal_energy": -3.93, "cluster_size": 2, "cluster_id": 10, "rank_in_cluster": 2}

>  <energy>  (23) 
-7.84

>  <cluster_rmsd>  (23) 
1.33

>  <cluster>  (23) 
6

$$$$

     RDKit          3D

 67 71  0  0  0  0  0  0  0  0999 V2000
  139.8300   74.3580  222.1240 O   0  0  0  0  0  0  0  0  0  0  0  0
  140.1470   75.3440  221.4100 C   0  0  0  0  0  0  0  0  0  0  0  0
  140.3600   75.0840  220.0170 N   0  0  0  0  0  0  0  0  0  0  0  0
  140.1900   73.7260  219.5550 C   0  0  0  0  0  0  0  0  0  0  0  0
  141.4530   73.1250  219.0520 C   0  0  0  0  0  0  0  0  0  0  0  0
  141.3420   72.1790  218.2440 O   0  0  0  0  0  0  0  0  0  0  0  0
  142.6730   73.6640  219.5210 N   0  0  0  0  0  0  0  0  0  0  0  0
  143.1900   73.3090  220.8690 C   0  0  0  0  0  0  0  0  0  0  0  0
  144.6850   73.0610  220.5880 C   0  0  0  0  0  0  0  0  0  0  0  0
  144.9020   72.5810  219.1590 C   0  0  0  0  0  0  0  0  0  0  0  0
  144.5800   73.6630  218.1320 C   0  0  0  0  0  0  0  0  0  0  0  0
  143.5360   74.5530  218.7800 C   0  0  1  0  0  0  0  0  0  0  0  0
  142.8880   75.5130  217.8990 C   0  0  0  0  0  0  0  0  0  0  0  0
  141.6590   75.5890  217.6590 O   0  0  0  0  0  0  0  0  0  0  0  0
  143.7180   76.4670  217.2350 N   0  0  0  0  0  0  0  0  0  0  0  0
  143.2350   77.4870  216.3400 C   0  0  0  0  0  0  0  0  0  0  0  0
  142.5520   78.5290  217.1390 C   0  0  0  0  0  0  0  0  0  0  0  0
  142.6400   78.3820  218.5300 C   0  0  0  0  0  0  0  0  0  0  0  0
  142.0520   79.2890  219.3850 C   0  0  0  0  0  0  0  0  0  0  0  0
  141.3610   80.3660  218.8680 C   0  0  0  0  0  0  0  0  0  0  0  0
  140.7560   81.2920  219.8180 C   0  0  0  0  0  0  0  0  0  0  0  0
  139.4450   81.0250  220.1870 C   0  0  0  0  0  0  0  0  0  0  0  0
  138.7760   81.8560  221.0920 C   0  0  0  0  0  0  0  0  0  0  0  0
  139.4370   82.9160  221.5910 N   0  0  0  0  0  0  0  0  0  0  0  0
  140.7110   83.1700  221.2270 C   0  0  0  0  0  0  0  0  0  0  0  0
  141.4150   82.3840  220.3400 C   0  0  0  0  0  0  0  0  0  0  0  0
  141.2740   80.5120  217.5000 C   0  0  0  0  0  0  0  0  0  0  0  0
  141.8680   79.5970  216.6220 C   0  0  0  0  0  0  0  0  0  0  0  0
  140.2870   76.6690  221.9810 C   0  0  0  0  0  0  0  0  0  0  0  0
  139.1650   77.3020  222.4690 C   0  0  0  0  0  0  0  0  0  0  0  0
  139.1820   78.5590  223.0330 C   0  0  0  0  0  0  0  0  0  0  0  0
  140.3780   79.2130  223.1130 C   0  0  0  0  0  0  0  0  0  0  0  0
  140.4540   80.4790  223.6710 C   0  0  0  0  0  0  0  0  0  0  0  0
  141.6580   81.1430  223.7540 C   0  0  0  0  0  0  0  0  0  0  0  0
  142.7900   80.5250  223.2710 C   0  0  0  0  0  0  0  0  0  0  0  0
  142.7050   79.2580  222.7140 C   0  0  0  0  0  0  0  0  0  0  0  0
  141.5160   78.5650  222.6170 C   0  0  0  0  0  0  0  0  0  0  0  0
  141.4490   77.3340  222.0720 N   0  0  0  0  0  0  0  0  0  0  0  0
  140.6250   75.8860  219.4070 H   0  0  0  0  0  0  0  0  0  0  0  0
  139.8185   73.1146  220.3906 H   0  0  0  0  0  0  0  0  0  0  0  0
  139.4779   73.7486  218.7169 H   0  0  0  0  0  0  0  0  0  0  0  0
  143.0496   74.1359  221.5807 H   0  0  0  0  0  0  0  0  0  0  0  0
  142.6778   72.4499  221.3267 H   0  0  0  0  0  0  0  0  0  0  0  0
  145.2395   73.9987  220.7401 H   0  0  0  0  0  0  0  0  0  0  0  0
  145.0455   72.2826  221.2766 H   0  0  0  0  0  0  0  0  0  0  0  0
  145.9543   72.2829  219.0414 H   0  0  0  0  0  0  0  0  0  0  0  0
  144.2235   71.7337  218.9808 H   0  0  0  0  0  0  0  0  0  0  0  0
  145.4828   74.2440  217.8924 H   0  0  0  0  0  0  0  0  0  0  0  0
  144.2131   73.2296  217.1899 H   0  0  0  0  0  0  0  0  0  0  0  0
  144.0060   75.2716  219.4675 H   0  0  0  0  0  0  0  0  0  0  0  0
  144.7680   76.4430  217.3980 H   0  0  0  0  0  0  0  0  0  0  0  0
  144.0801   77.9323  215.7945 H   0  0  0  0  0  0  0  0  0  0  0  0
  142.5341   77.0496  215.6138 H   0  0  0  0  0  0  0  0  0  0  0  0
  143.1894   77.5255  218.9477 H   0  0  0  0  0  0  0  0  0  0  0  0
  142.1330   79.1552  220.4738 H   0  0  0  0  0  0  0  0  0  0  0  0
  138.9270   80.1517  219.7639 H   0  0  0  0  0  0  0  0  0  0  0  0
  137.7371   81.6481  221.3877 H   0  0  0  0  0  0  0  0  0  0  0  0
  141.2130   84.0480  221.6596 H   0  0  0  0  0  0  0  0  0  0  0  0
  142.4534   82.6173  220.0620 H   0  0  0  0  0  0  0  0  0  0  0  0
  140.7233   81.3701  217.0871 H   0  0  0  0  0  0  0  0  0  0  0  0
  141.7865   79.7339  215.5336 H   0  0  0  0  0  0  0  0  0  0  0  0
  138.2018   76.7745  222.4048 H   0  0  0  0  0  0  0  0  0  0  0  0
  138.2579   79.0228  223.4084 H   0  0  0  0  0  0  0  0  0  0  0  0
  139.5412   80.9599  224.0526 H   0  0  0  0  0  0  0  0  0  0  0  0
  141.7143   82.1480  224.1977 H   0  0  0  0  0  0  0  0  0  0  0  0
  143.7621   81.0367  223.3271 H   0  0  0  0  0  0  0  0  0  0  0  0
  143.6231   78.7862  222.3340 H   0  0  0  0  0  0  0  0  0  0  0  0
  1  2  2  0
  2  3  1  0
  3  4  1  0
  4  5  1  0
  5  6  2  0
  5  7  1  0
  7  8  1  0
  8  9  1  0
  9 10  1  0
 10 11  1  0
 11 12  1  0
 12 13  1  0
 13 14  2  0
 13 15  1  0
 15 16  1  0
 16 17  1  0
 17 18  2  0
 18 19  1  0
 19 20  2  0
 20 21  1  0
 21 22  2  0
 22 23  1  0
 23 24  2  0
 24 25  1  0
 25 26  2  0
 20 27  1  0
 27 28  2  0
  2 29  1  0
 29 30  2  0
 30 31  1  0
 31 32  2  0
 32 33  1  0
 33 34  2  0
 34 35  1  0
 35 36  2  0
 36 37  1  0
 37 38  2  0
 12  7  1  0
 28 17  1  0
 38 29  1  0
 26 21  1  0
 37 32  1  0
  3 39  1  0
  4 40  1  0
  4 41  1  0
  8 42  1  0
  8 43  1  0
  9 44  1  0
  9 45  1  0
 10 46  1  0
 10 47  1  0
 11 48  1  0
 11 49  1  0
 12 50  1  1
 15 51  1  0
 16 52  1  0
 16 53  1  0
 18 54  1  0
 19 55  1  0
 22 56  1  0
 23 57  1  0
 25 58  1  0
 26 59  1  0
 27 60  1  0
 28 61  1  0
 30 62  1  0
 31 63  1  0
 33 64  1  0
 34 65  1  0
 35 66  1  0
 36 67  1  0
M  END
>  <smiles>  (24) 
O=C(NCC(=O)N1CCCC[C@H]1C(=O)NCc1ccc(-c2ccncc2)cc1)c1ccc2ccccc2n1

>  <score_type>  (24) 
oracle

>  <origin>  (24) 
autodockgpu

>  <m_score__min__energy>  (24) 
-10.5

>  <m_primary>  (24) 
energy

>  <rmsd>  (24) 
6.866578561353831

>  <m_score__min__rmsd>  (24) 
6.866578561353831

>  <meeko>  (24) 
{"free_energy": -7.46, "intermolecular_energy": -9.85, "internal_energy": -4.58, "cluster_size": 12, "cluster_id": 11, "rank_in_cluster": 2}

>  <energy>  (24) 
-8.58

>  <cluster_rmsd>  (24) 
0.0

>  <cluster>  (24) 
7

$$$$

     RDKit          3D

 67 71  0  0  0  0  0  0  0  0999 V2000
  143.8270   74.7250  220.2170 O   0  0  0  0  0  0  0  0  0  0  0  0
  142.7110   75.2110  219.9010 C   0  0  0  0  0  0  0  0  0  0  0  0
  141.5630   74.3870  220.1350 N   0  0  0  0  0  0  0  0  0  0  0  0
  141.7820   73.0820  220.7130 C   0  0  0  0  0  0  0  0  0  0  0  0
  140.6740   72.6540  221.6080 C   0  0  0  0  0  0  0  0  0  0  0  0
  140.5700   73.2520  222.7000 O   0  0  0  0  0  0  0  0  0  0  0  0
  139.8300   71.6120  221.1610 N   0  0  0  0  0  0  0  0  0  0  0  0
  140.4030   70.3580  220.6030 C   0  0  0  0  0  0  0  0  0  0  0  0
  139.5340   69.2770  221.2760 C   0  0  0  0  0  0  0  0  0  0  0  0
  139.0180   69.7520  222.6290 C   0  0  0  0  0  0  0  0  0  0  0  0
  138.0190   70.8990  222.4950 C   0  0  0  0  0  0  0  0  0  0  0  0
  138.3870   71.6220  221.2130 C   0  0  1  0  0  0  0  0  0  0  0  0
  137.7310   72.9040  221.0000 C   0  0  0  0  0  0  0  0  0  0  0  0
  137.0060   73.2130  220.0240 O   0  0  0  0  0  0  0  0  0  0  0  0
  137.9230   73.9180  221.9870 N   0  0  0  0  0  0  0  0  0  0  0  0
  137.3390   75.2330  221.9300 C   0  0  0  0  0  0  0  0  0  0  0  0
  138.3930   76.2290  222.2230 C   0  0  0  0  0  0  0  0  0  0  0  0
  137.9400   77.4920  222.6260 C   0  0  0  0  0  0  0  0  0  0  0  0
  138.8220   78.5060  222.9330 C   0  0  0  0  0  0  0  0  0  0  0  0
  140.1800   78.2800  222.8440 C   0  0  0  0  0  0  0  0  0  0  0  0
  141.0670   79.3870  223.1770 C   0  0  0  0  0  0  0  0  0  0  0  0
  142.4290   79.1340  223.0850 C   0  0  0  0  0  0  0  0  0  0  0  0
  143.3620   80.1320  223.3840 C   0  0  0  0  0  0  0  0  0  0  0  0
  142.9030   81.3400  223.7630 N   0  0  0  0  0  0  0  0  0  0  0  0
  141.5780   81.5780  223.8510 C   0  0  0  0  0  0  0  0  0  0  0  0
  140.6180   80.6310  223.5680 C   0  0  0  0  0  0  0  0  0  0  0  0
  140.6280   77.0370  222.4480 C   0  0  0  0  0  0  0  0  0  0  0  0
  139.7410   76.0000  222.1340 C   0  0  0  0  0  0  0  0  0  0  0  0
  142.6080   76.5400  219.3280 C   0  0  0  0  0  0  0  0  0  0  0  0
  142.9930   76.7260  218.0180 C   0  0  0  0  0  0  0  0  0  0  0  0
  142.9360   77.9420  217.3720 C   0  0  0  0  0  0  0  0  0  0  0  0
  142.4730   79.0210  218.0700 C   0  0  0  0  0  0  0  0  0  0  0  0
  142.3940   80.2680  217.4690 C   0  0  0  0  0  0  0  0  0  0  0  0
  141.9280   81.3590  218.1690 C   0  0  0  0  0  0  0  0  0  0  0  0
  141.5380   81.1900  219.4790 C   0  0  0  0  0  0  0  0  0  0  0  0
  141.6210   79.9390  220.0720 C   0  0  0  0  0  0  0  0  0  0  0  0
  142.0820   78.8260  219.4000 C   0  0  0  0  0  0  0  0  0  0  0  0
  142.1560   77.6160  219.9890 N   0  0  0  0  0  0  0  0  0  0  0  0
  140.6280   74.7700  219.8780 H   0  0  0  0  0  0  0  0  0  0  0  0
  141.8790   72.3489  219.8987 H   0  0  0  0  0  0  0  0  0  0  0  0
  142.6961   73.1391  221.3222 H   0  0  0  0  0  0  0  0  0  0  0  0
  140.3027   70.3261  219.5080 H   0  0  0  0  0  0  0  0  0  0  0  0
  141.4801   70.2411  220.7932 H   0  0  0  0  0  0  0  0  0  0  0  0
  138.6774   69.0479  220.6250 H   0  0  0  0  0  0  0  0  0  0  0  0
  140.1512   68.3800  221.4326 H   0  0  0  0  0  0  0  0  0  0  0  0
  138.5243   68.9096  223.1355 H   0  0  0  0  0  0  0  0  0  0  0  0
  139.8779   70.1191  223.2084 H   0  0  0  0  0  0  0  0  0  0  0  0
  136.9929   70.5076  222.4327 H   0  0  0  0  0  0  0  0  0  0  0  0
  138.0575   71.5722  223.3641 H   0  0  0  0  0  0  0  0  0  0  0  0
  137.9818   71.0963  220.3358 H   0  0  0  0  0  0  0  0  0  0  0  0
  138.5340   73.7110  222.8310 H   0  0  0  0  0  0  0  0  0  0  0  0
  136.9276   75.4129  220.9258 H   0  0  0  0  0  0  0  0  0  0  0  0
  136.5268   75.3165  222.6671 H   0  0  0  0  0  0  0  0  0  0  0  0
  136.8584   77.6784  222.6990 H   0  0  0  0  0  0  0  0  0  0  0  0
  138.4449   79.4904  223.2473 H   0  0  0  0  0  0  0  0  0  0  0  0
  142.7779   78.1383  222.7737 H   0  0  0  0  0  0  0  0  0  0  0  0
  144.4419   79.9355  223.3115 H   0  0  0  0  0  0  0  0  0  0  0  0
  141.2472   82.5791  224.1647 H   0  0  0  0  0  0  0  0  0  0  0  0
  139.5445   80.8565  223.6500 H   0  0  0  0  0  0  0  0  0  0  0  0
  141.7106   76.8556  222.3770 H   0  0  0  0  0  0  0  0  0  0  0  0
  140.1207   75.0163  221.8206 H   0  0  0  0  0  0  0  0  0  0  0  0
  143.3662   75.8563  217.4573 H   0  0  0  0  0  0  0  0  0  0  0  0
  143.2544   78.0409  216.3237 H   0  0  0  0  0  0  0  0  0  0  0  0
  142.7070   80.3874  216.4213 H   0  0  0  0  0  0  0  0  0  0  0  0
  141.8684   82.3476  217.6903 H   0  0  0  0  0  0  0  0  0  0  0  0
  141.1605   82.0476  220.0552 H   0  0  0  0  0  0  0  0  0  0  0  0
  141.3066   79.8299  221.1204 H   0  0  0  0  0  0  0  0  0  0  0  0
  1  2  2  0
  2  3  1  0
  3  4  1  0
  4  5  1  0
  5  6  2  0
  5  7  1  0
  7  8  1  0
  8  9  1  0
  9 10  1  0
 10 11  1  0
 11 12  1  0
 12 13  1  0
 13 14  2  0
 13 15  1  0
 15 16  1  0
 16 17  1  0
 17 18  2  0
 18 19  1  0
 19 20  2  0
 20 21  1  0
 21 22  2  0
 22 23  1  0
 23 24  2  0
 24 25  1  0
 25 26  2  0
 20 27  1  0
 27 28  2  0
  2 29  1  0
 29 30  2  0
 30 31  1  0
 31 32  2  0
 32 33  1  0
 33 34  2  0
 34 35  1  0
 35 36  2  0
 36 37  1  0
 37 38  2  0
 12  7  1  0
 28 17  1  0
 38 29  1  0
 26 21  1  0
 37 32  1  0
  3 39  1  0
  4 40  1  0
  4 41  1  0
  8 42  1  0
  8 43  1  0
  9 44  1  0
  9 45  1  0
 10 46  1  0
 10 47  1  0
 11 48  1  0
 11 49  1  0
 12 50  1  6
 15 51  1  0
 16 52  1  0
 16 53  1  0
 18 54  1  0
 19 55  1  0
 22 56  1  0
 23 57  1  0
 25 58  1  0
 26 59  1  0
 27 60  1  0
 28 61  1  0
 30 62  1  0
 31 63  1  0
 33 64  1  0
 34 65  1  0
 35 66  1  0
 36 67  1  0
M  END
>  <smiles>  (25) 
O=C(NCC(=O)N1CCCC[C@H]1C(=O)NCc1ccc(-c2ccncc2)cc1)c1ccc2ccccc2n1

>  <score_type>  (25) 
oracle

>  <origin>  (25) 
autodockgpu

>  <m_score__min__energy>  (25) 
-10.5

>  <m_primary>  (25) 
energy

>  <rmsd>  (25) 
8.30585470551339

>  <m_score__min__rmsd>  (25) 
8.30585470551339

>  <meeko>  (25) 
{"free_energy": -8.0, "intermolecular_energy": -10.39, "internal_energy": -4.11, "cluster_size": 4, "cluster_id": 9, "rank_in_cluster": 1}

>  <energy>  (25) 
-8.29

>  <cluster_rmsd>  (25) 
0.0

>  <cluster>  (25) 
8

$$$$

     RDKit          3D

 67 71  0  0  0  0  0  0  0  0999 V2000
  141.8230   77.5040  217.3530 O   0  0  0  0  0  0  0  0  0  0  0  0
  142.5100   77.2750  218.3810 C   0  0  0  0  0  0  0  0  0  0  0  0
  142.5000   78.2850  219.3970 N   0  0  0  0  0  0  0  0  0  0  0  0
  141.7070   79.4680  219.1580 C   0  0  0  0  0  0  0  0  0  0  0  0
  141.0410   79.9740  220.3870 C   0  0  0  0  0  0  0  0  0  0  0  0
  140.1360   80.8210  220.2280 O   0  0  0  0  0  0  0  0  0  0  0  0
  141.4760   79.4640  221.6320 N   0  0  0  0  0  0  0  0  0  0  0  0
  142.6460   80.0610  222.3290 C   0  0  0  0  0  0  0  0  0  0  0  0
  142.1500   80.1380  223.7870 C   0  0  0  0  0  0  0  0  0  0  0  0
  140.6340   80.2860  223.8430 C   0  0  0  0  0  0  0  0  0  0  0  0
  139.9140   79.0350  223.3480 C   0  0  0  0  0  0  0  0  0  0  0  0
  140.8560   78.3790  222.3550 C   0  0  1  0  0  0  0  0  0  0  0  0
  140.2870   77.3010  221.5610 C   0  0  0  0  0  0  0  0  0  0  0  0
  139.0700   77.1270  221.3070 O   0  0  0  0  0  0  0  0  0  0  0  0
  141.1870   76.3380  221.0090 N   0  0  0  0  0  0  0  0  0  0  0  0
  140.7870   75.2190  220.1960 C   0  0  0  0  0  0  0  0  0  0  0  0
  140.3570   74.1190  221.0870 C   0  0  0  0  0  0  0  0  0  0  0  0
  141.3740   73.2640  221.5310 C   0  0  0  0  0  0  0  0  0  0  0  0
  141.1040   72.2040  222.3710 C   0  0  0  0  0  0  0  0  0  0  0  0
  139.8090   71.9750  222.7870 C   0  0  0  0  0  0  0  0  0  0  0  0
  139.5800   70.8390  223.6710 C   0  0  0  0  0  0  0  0  0  0  0  0
  140.1260   70.9310  224.9440 C   0  0  0  0  0  0  0  0  0  0  0  0
  139.9620   69.8920  225.8660 C   0  0  0  0  0  0  0  0  0  0  0  0
  139.2630   68.8070  225.4850 N   0  0  0  0  0  0  0  0  0  0  0  0
  138.7360   68.7250  224.2460 C   0  0  0  0  0  0  0  0  0  0  0  0
  138.8690   69.7190  223.3010 C   0  0  0  0  0  0  0  0  0  0  0  0
  138.8070   72.8160  222.3520 C   0  0  0  0  0  0  0  0  0  0  0  0
  139.0690   73.8950  221.4990 C   0  0  0  0  0  0  0  0  0  0  0  0
  143.2690   76.0470  218.5160 C   0  0  0  0  0  0  0  0  0  0  0  0
  143.5300   75.3030  217.3870 C   0  0  0  0  0  0  0  0  0  0  0  0
  144.2420   74.1230  217.3970 C   0  0  0  0  0  0  0  0  0  0  0  0
  144.7130   73.6660  218.5960 C   0  0  0  0  0  0  0  0  0  0  0  0
  145.4350   72.4850  218.6650 C   0  0  0  0  0  0  0  0  0  0  0  0
  145.9120   72.0200  219.8710 C   0  0  0  0  0  0  0  0  0  0  0  0
  145.6600   72.7510  221.0110 C   0  0  0  0  0  0  0  0  0  0  0  0
  144.9370   73.9320  220.9310 C   0  0  0  0  0  0  0  0  0  0  0  0
  144.4460   74.4260  219.7400 C   0  0  0  0  0  0  0  0  0  0  0  0
  143.7440   75.5750  219.6800 N   0  0  0  0  0  0  0  0  0  0  0  0
  143.0650   78.1160  220.2570 H   0  0  0  0  0  0  0  0  0  0  0  0
  142.3638   80.2575  218.7639 H   0  0  0  0  0  0  0  0  0  0  0  0
  140.9175   79.1979  218.4412 H   0  0  0  0  0  0  0  0  0  0  0  0
  143.5334   79.4167  222.2428 H   0  0  0  0  0  0  0  0  0  0  0  0
  142.9585   81.0316  221.9164 H   0  0  0  0  0  0  0  0  0  0  0  0
  142.4410   79.2178  224.3147 H   0  0  0  0  0  0  0  0  0  0  0  0
  142.6052   81.0178  224.2652 H   0  0  0  0  0  0  0  0  0  0  0  0
  140.3351   80.4782  224.8840 H   0  0  0  0  0  0  0  0  0  0  0  0
  140.3517   81.1208  223.1847 H   0  0  0  0  0  0  0  0  0  0  0  0
  139.7083   78.3545  224.1874 H   0  0  0  0  0  0  0  0  0  0  0  0
  138.9470   79.2817  222.8853 H   0  0  0  0  0  0  0  0  0  0  0  0
  141.6277   77.7923  222.8749 H   0  0  0  0  0  0  0  0  0  0  0  0
  142.2280   76.4340  221.1990 H   0  0  0  0  0  0  0  0  0  0  0  0
  139.9527   75.5147  219.5429 H   0  0  0  0  0  0  0  0  0  0  0  0
  141.6292   74.8887  219.5702 H   0  0  0  0  0  0  0  0  0  0  0  0
  142.4088   73.4417  221.2030 H   0  0  0  0  0  0  0  0  0  0  0  0
  141.9174   71.5444  222.7076 H   0  0  0  0  0  0  0  0  0  0  0  0
  140.6928   71.8292  225.2303 H   0  0  0  0  0  0  0  0  0  0  0  0
  140.3930   69.9600  226.8758 H   0  0  0  0  0  0  0  0  0  0  0  0
  138.1721   67.8197  223.9767 H   0  0  0  0  0  0  0  0  0  0  0  0
  138.4279   69.6225  222.2979 H   0  0  0  0  0  0  0  0  0  0  0  0
  137.7741   72.6345  222.6839 H   0  0  0  0  0  0  0  0  0  0  0  0
  138.2535   74.5530  221.1645 H   0  0  0  0  0  0  0  0  0  0  0  0
  143.1488   75.6712  216.4231 H   0  0  0  0  0  0  0  0  0  0  0  0
  144.4259   73.5651  216.4670 H   0  0  0  0  0  0  0  0  0  0  0  0
  145.6295   71.9123  217.7462 H   0  0  0  0  0  0  0  0  0  0  0  0
  146.4839   71.0817  219.9226 H   0  0  0  0  0  0  0  0  0  0  0  0
  146.0320   72.3983  221.9843 H   0  0  0  0  0  0  0  0  0  0  0  0
  144.7473   74.4979  221.8550 H   0  0  0  0  0  0  0  0  0  0  0  0
  1  2  2  0
  2  3  1  0
  3  4  1  0
  4  5  1  0
  5  6  2  0
  5  7  1  0
  7  8  1  0
  8  9  1  0
  9 10  1  0
 10 11  1  0
 11 12  1  0
 12 13  1  0
 13 14  2  0
 13 15  1  0
 15 16  1  0
 16 17  1  0
 17 18  2  0
 18 19  1  0
 19 20  2  0
 20 21  1  0
 21 22  2  0
 22 23  1  0
 23 24  2  0
 24 25  1  0
 25 26  2  0
 20 27  1  0
 27 28  2  0
  2 29  1  0
 29 30  2  0
 30 31  1  0
 31 32  2  0
 32 33  1  0
 33 34  2  0
 34 35  1  0
 35 36  2  0
 36 37  1  0
 37 38  2  0
 12  7  1  0
 28 17  1  0
 38 29  1  0
 26 21  1  0
 37 32  1  0
  3 39  1  0
  4 40  1  0
  4 41  1  0
  8 42  1  0
  8 43  1  0
  9 44  1  0
  9 45  1  0
 10 46  1  0
 10 47  1  0
 11 48  1  0
 11 49  1  0
 12 50  1  1
 15 51  1  0
 16 52  1  0
 16 53  1  0
 18 54  1  0
 19 55  1  0
 22 56  1  0
 23 57  1  0
 25 58  1  0
 26 59  1  0
 27 60  1  0
 28 61  1  0
 30 62  1  0
 31 63  1  0
 33 64  1  0
 34 65  1  0
 35 66  1  0
 36 67  1  0
M  END
>  <smiles>  (26) 
O=C(NCC(=O)N1CCCC[C@H]1C(=O)NCc1ccc(-c2ccncc2)cc1)c1ccc2ccccc2n1

>  <score_type>  (26) 
oracle

>  <origin>  (26) 
autodockgpu

>  <m_score__min__energy>  (26) 
-10.5

>  <m_primary>  (26) 
energy

>  <rmsd>  (26) 
7.839108701131917

>  <m_score__min__rmsd>  (26) 
7.839108701131917

>  <meeko>  (26) 
{"free_energy": -8.72, "intermolecular_energy": -11.1, "internal_energy": -3.64, "cluster_size": 2, "cluster_id": 6, "rank_in_cluster": 1}

>  <energy>  (26) 
-8.0

>  <cluster_rmsd>  (26) 
0.0

>  <cluster>  (26) 
9

$$$$

     RDKit          3D

 67 71  0  0  0  0  0  0  0  0999 V2000
  141.1880   72.3610  221.9700 O   0  0  0  0  0  0  0  0  0  0  0  0
  140.1770   72.2680  222.7120 C   0  0  0  0  0  0  0  0  0  0  0  0
  139.0690   73.1190  222.3970 N   0  0  0  0  0  0  0  0  0  0  0  0
  139.2040   74.0020  221.2610 C   0  0  0  0  0  0  0  0  0  0  0  0
  139.9630   75.2400  221.5790 C   0  0  0  0  0  0  0  0  0  0  0  0
  141.1230   75.0910  222.0180 O   0  0  0  0  0  0  0  0  0  0  0  0
  139.3220   76.4810  221.3620 N   0  0  0  0  0  0  0  0  0  0  0  0
  137.8910   76.6680  221.7220 C   0  0  0  0  0  0  0  0  0  0  0  0
  137.9070   78.0510  222.4030 C   0  0  0  0  0  0  0  0  0  0  0  0
  139.2570   78.3270  223.0540 C   0  0  0  0  0  0  0  0  0  0  0  0
  140.3710   78.4880  222.0240 C   0  0  0  0  0  0  0  0  0  0  0  0
  139.9480   77.6640  220.8220 C   0  0  1  0  0  0  0  0  0  0  0  0
  140.9680   77.4610  219.8040 C   0  0  0  0  0  0  0  0  0  0  0  0
  140.8610   77.7240  218.5820 O   0  0  0  0  0  0  0  0  0  0  0  0
  142.2180   76.9070  220.2200 N   0  0  0  0  0  0  0  0  0  0  0  0
  143.3300   76.6520  219.3420 C   0  0  0  0  0  0  0  0  0  0  0  0
  143.5800   75.1940  219.3100 C   0  0  0  0  0  0  0  0  0  0  0  0
  144.5230   74.7190  220.2310 C   0  0  0  0  0  0  0  0  0  0  0  0
  144.8410   73.3800  220.3050 C   0  0  0  0  0  0  0  0  0  0  0  0
  144.2210   72.4830  219.4600 C   0  0  0  0  0  0  0  0  0  0  0  0
  144.5970   71.0800  219.5790 C   0  0  0  0  0  0  0  0  0  0  0  0
  145.9010   70.7600  219.2270 C   0  0  0  0  0  0  0  0  0  0  0  0
  146.3570   69.4400  219.3070 C   0  0  0  0  0  0  0  0  0  0  0  0
  145.5000   68.4940  219.7320 N   0  0  0  0  0  0  0  0  0  0  0  0
  144.2340   68.8120  220.0720 C   0  0  0  0  0  0  0  0  0  0  0  0
  143.7340   70.0960  220.0120 C   0  0  0  0  0  0  0  0  0  0  0  0
  143.2920   72.9480  218.5540 C   0  0  0  0  0  0  0  0  0  0  0  0
  142.9610   74.3060  218.4690 C   0  0  0  0  0  0  0  0  0  0  0  0
  140.1490   71.3420  223.8280 C   0  0  0  0  0  0  0  0  0  0  0  0
  139.5890   70.0980  223.6420 C   0  0  0  0  0  0  0  0  0  0  0  0
  139.5110   69.1400  224.6290 C   0  0  0  0  0  0  0  0  0  0  0  0
  140.0170   69.4430  225.8620 C   0  0  0  0  0  0  0  0  0  0  0  0
  139.9640   68.5180  226.8920 C   0  0  0  0  0  0  0  0  0  0  0  0
  140.4730   68.8190  228.1370 C   0  0  0  0  0  0  0  0  0  0  0  0
  141.0360   70.0590  228.3410 C   0  0  0  0  0  0  0  0  0  0  0  0
  141.0840   70.9790  227.3040 C   0  0  0  0  0  0  0  0  0  0  0  0
  140.5850   70.7090  226.0460 C   0  0  0  0  0  0  0  0  0  0  0  0
  140.6390   71.6130  225.0480 N   0  0  0  0  0  0  0  0  0  0  0  0
  138.2220   73.0600  223.0000 H   0  0  0  0  0  0  0  0  0  0  0  0
  139.7299   73.4640  220.4585 H   0  0  0  0  0  0  0  0  0  0  0  0
  138.1916   74.3043  220.9551 H   0  0  0  0  0  0  0  0  0  0  0  0
  137.2513   76.6710  220.8271 H   0  0  0  0  0  0  0  0  0  0  0  0
  137.4863   75.8665  222.3575 H   0  0  0  0  0  0  0  0  0  0  0  0
  137.7074   78.8255  221.6478 H   0  0  0  0  0  0  0  0  0  0  0  0
  137.1332   78.0642  223.1847 H   0  0  0  0  0  0  0  0  0  0  0  0
  139.1833   79.2526  223.6438 H   0  0  0  0  0  0  0  0  0  0  0  0
  139.5075   77.4657  223.6907 H   0  0  0  0  0  0  0  0  0  0  0  0
  140.4823   79.5456  221.7429 H   0  0  0  0  0  0  0  0  0  0  0  0
  141.3405   78.1537  222.4219 H   0  0  0  0  0  0  0  0  0  0  0  0
  139.2246   78.2155  220.2035 H   0  0  0  0  0  0  0  0  0  0  0  0
  142.3590   76.6590  221.2430 H   0  0  0  0  0  0  0  0  0  0  0  0
  143.0925   77.0098  218.3293 H   0  0  0  0  0  0  0  0  0  0  0  0
  144.2246   77.1793  219.7049 H   0  0  0  0  0  0  0  0  0  0  0  0
  145.0195   75.4291  220.9087 H   0  0  0  0  0  0  0  0  0  0  0  0
  145.5856   73.0283  221.0343 H   0  0  0  0  0  0  0  0  0  0  0  0
  146.5822   71.5518  218.8819 H   0  0  0  0  0  0  0  0  0  0  0  0
  147.3897   69.1821  219.0296 H   0  0  0  0  0  0  0  0  0  0  0  0
  143.5670   68.0070  220.4143 H   0  0  0  0  0  0  0  0  0  0  0  0
  142.6961   70.3240  220.2961 H   0  0  0  0  0  0  0  0  0  0  0  0
  142.7975   72.2332  217.8798 H   0  0  0  0  0  0  0  0  0  0  0  0
  142.2159   74.6547  217.7388 H   0  0  0  0  0  0  0  0  0  0  0  0
  139.1810   69.8554  222.6497 H   0  0  0  0  0  0  0  0  0  0  0  0
  139.0545   68.1591  224.4304 H   0  0  0  0  0  0  0  0  0  0  0  0
  139.5104   67.5318  226.7141 H   0  0  0  0  0  0  0  0  0  0  0  0
  140.4303   68.0822  228.9527 H   0  0  0  0  0  0  0  0  0  0  0  0
  141.4479   70.3201  229.3270 H   0  0  0  0  0  0  0  0  0  0  0  0
  141.5380   71.9632  227.4919 H   0  0  0  0  0  0  0  0  0  0  0  0
  1  2  2  0
  2  3  1  0
  3  4  1  0
  4  5  1  0
  5  6  2  0
  5  7  1  0
  7  8  1  0
  8  9  1  0
  9 10  1  0
 10 11  1  0
 11 12  1  0
 12 13  1  0
 13 14  2  0
 13 15  1  0
 15 16  1  0
 16 17  1  0
 17 18  2  0
 18 19  1  0
 19 20  2  0
 20 21  1  0
 21 22  2  0
 22 23  1  0
 23 24  2  0
 24 25  1  0
 25 26  2  0
 20 27  1  0
 27 28  2  0
  2 29  1  0
 29 30  2  0
 30 31  1  0
 31 32  2  0
 32 33  1  0
 33 34  2  0
 34 35  1  0
 35 36  2  0
 36 37  1  0
 37 38  2  0
 12  7  1  0
 28 17  1  0
 38 29  1  0
 26 21  1  0
 37 32  1  0
  3 39  1  0
  4 40  1  0
  4 41  1  0
  8 42  1  0
  8 43  1  0
  9 44  1  0
  9 45  1  0
 10 46  1  0
 10 47  1  0
 11 48  1  0
 11 49  1  0
 12 50  1  6
 15 51  1  0
 16 52  1  0
 16 53  1  0
 18 54  1  0
 19 55  1  0
 22 56  1  0
 23 57  1  0
 25 58  1  0
 26 59  1  0
 27 60  1  0
 28 61  1  0
 30 62  1  0
 31 63  1  0
 33 64  1  0
 34 65  1  0
 35 66  1  0
 36 67  1  0
M  END
>  <smiles>  (27) 
O=C(NCC(=O)N1CCCC[C@H]1C(=O)NCc1ccc(-c2ccncc2)cc1)c1ccc2ccccc2n1

>  <score_type>  (27) 
oracle

>  <origin>  (27) 
autodockgpu

>  <m_score__min__energy>  (27) 
-10.5

>  <m_primary>  (27) 
energy

>  <rmsd>  (27) 
4.882123643473355

>  <m_score__min__rmsd>  (27) 
4.882123643473355

>  <meeko>  (27) 
{"free_energy": -10.43, "intermolecular_energy": -12.81, "internal_energy": -3.11, "cluster_size": 5, "cluster_id": 1, "rank_in_cluster": 2}

>  <energy>  (27) 
-7.71

>  <cluster_rmsd>  (27) 
0.69

>  <cluster>  (27) 
9

$$$$

     RDKit          3D

 67 71  0  0  0  0  0  0  0  0999 V2000
  140.2340   71.4850  221.3230 O   0  0  0  0  0  0  0  0  0  0  0  0
  139.6900   71.9370  222.3630 C   0  0  0  0  0  0  0  0  0  0  0  0
  138.9030   73.1240  222.2110 N   0  0  0  0  0  0  0  0  0  0  0  0
  138.7980   73.6940  220.8880 C   0  0  0  0  0  0  0  0  0  0  0  0
  139.9460   74.5730  220.5450 C   0  0  0  0  0  0  0  0  0  0  0  0
  141.0240   74.0060  220.2640 O   0  0  0  0  0  0  0  0  0  0  0  0
  139.7360   75.9710  220.5620 N   0  0  0  0  0  0  0  0  0  0  0  0
  138.3580   76.5300  220.5500 C   0  0  0  0  0  0  0  0  0  0  0  0
  138.4530   77.6480  221.6080 C   0  0  0  0  0  0  0  0  0  0  0  0
  139.5050   77.3180  222.6600 C   0  0  0  0  0  0  0  0  0  0  0  0
  140.9190   77.3290  222.0850 C   0  0  0  0  0  0  0  0  0  0  0  0
  140.7730   76.9730  220.6170 C   0  0  1  0  0  0  0  0  0  0  0  0
  142.0110   76.6770  219.9130 C   0  0  0  0  0  0  0  0  0  0  0  0
  142.4220   77.2350  218.8670 O   0  0  0  0  0  0  0  0  0  0  0  0
  142.8510   75.6530  220.4510 N   0  0  0  0  0  0  0  0  0  0  0  0
  144.1090   75.2470  219.8810 C   0  0  0  0  0  0  0  0  0  0  0  0
  144.1690   73.7680  219.8780 C   0  0  0  0  0  0  0  0  0  0  0  0
  144.8410   73.1900  218.7930 C   0  0  0  0  0  0  0  0  0  0  0  0
  144.9710   71.8220  218.6770 C   0  0  0  0  0  0  0  0  0  0  0  0
  144.4320   71.0010  219.6450 C   0  0  0  0  0  0  0  0  0  0  0  0
  144.5960   69.5630  219.4710 C   0  0  0  0  0  0  0  0  0  0  0  0
  145.8970   69.1070  219.3150 C   0  0  0  0  0  0  0  0  0  0  0  0
  146.1580   67.7430  219.1410 C   0  0  0  0  0  0  0  0  0  0  0  0
  145.1160   66.8920  219.1290 N   0  0  0  0  0  0  0  0  0  0  0  0
  143.8540   67.3430  219.2810 C   0  0  0  0  0  0  0  0  0  0  0  0
  143.5420   68.6740  219.4560 C   0  0  0  0  0  0  0  0  0  0  0  0
  143.7710   71.5680  220.7140 C   0  0  0  0  0  0  0  0  0  0  0  0
  143.6330   72.9560  220.8420 C   0  0  0  0  0  0  0  0  0  0  0  0
  139.8620   71.2800  223.6450 C   0  0  0  0  0  0  0  0  0  0  0  0
  139.5140   69.9520  223.7590 C   0  0  0  0  0  0  0  0  0  0  0  0
  139.6360   69.2280  224.9250 C   0  0  0  0  0  0  0  0  0  0  0  0
  140.1300   69.8650  226.0290 C   0  0  0  0  0  0  0  0  0  0  0  0
  140.2750   69.1850  227.2290 C   0  0  0  0  0  0  0  0  0  0  0  0
  140.7720   69.8230  228.3440 C   0  0  0  0  0  0  0  0  0  0  0  0
  141.1250   71.1500  228.2470 C   0  0  0  0  0  0  0  0  0  0  0  0
  140.9770   71.8220  227.0430 C   0  0  0  0  0  0  0  0  0  0  0  0
  140.4830   71.2140  225.9070 C   0  0  0  0  0  0  0  0  0  0  0  0
  140.3450   71.8800  224.7440 N   0  0  0  0  0  0  0  0  0  0  0  0
  138.4460   73.5170  223.0610 H   0  0  0  0  0  0  0  0  0  0  0  0
  138.7519   72.8748  220.1554 H   0  0  0  0  0  0  0  0  0  0  0  0
  137.8894   74.3137  220.8664 H   0  0  0  0  0  0  0  0  0  0  0  0
  138.1010   76.9372  219.5610 H   0  0  0  0  0  0  0  0  0  0  0  0
  137.5767   75.7853  220.7623 H   0  0  0  0  0  0  0  0  0  0  0  0
  138.7249   78.5910  221.1111 H   0  0  0  0  0  0  0  0  0  0  0  0
  137.4770   77.7419  222.1065 H   0  0  0  0  0  0  0  0  0  0  0  0
  139.4449   78.0632  223.4669 H   0  0  0  0  0  0  0  0  0  0  0  0
  139.3010   76.3043  223.0351 H   0  0  0  0  0  0  0  0  0  0  0  0
  141.3687   78.3269  222.1940 H   0  0  0  0  0  0  0  0  0  0  0  0
  141.5743   76.6184  222.6100 H   0  0  0  0  0  0  0  0  0  0  0  0
  140.4703   77.8510  220.0276 H   0  0  0  0  0  0  0  0  0  0  0  0
  142.5470   75.1440  221.3320 H   0  0  0  0  0  0  0  0  0  0  0  0
  144.1879   75.6234  218.8504 H   0  0  0  0  0  0  0  0  0  0  0  0
  144.9404   75.6563  220.4737 H   0  0  0  0  0  0  0  0  0  0  0  0
  145.2735   73.8403  218.0183 H   0  0  0  0  0  0  0  0  0  0  0  0
  145.5018   71.3880  217.8168 H   0  0  0  0  0  0  0  0  0  0  0  0
  146.7310   69.8241  219.3282 H   0  0  0  0  0  0  0  0  0  0  0  0
  147.1877   67.3765  219.0174 H   0  0  0  0  0  0  0  0  0  0  0  0
  143.0324   66.6117  219.2645 H   0  0  0  0  0  0  0  0  0  0  0  0
  142.5020   69.0110  219.5779 H   0  0  0  0  0  0  0  0  0  0  0  0
  143.3409   70.9134  221.4863 H   0  0  0  0  0  0  0  0  0  0  0  0
  143.1022   73.3873  221.7036 H   0  0  0  0  0  0  0  0  0  0  0  0
  139.1166   69.4411  222.8696 H   0  0  0  0  0  0  0  0  0  0  0  0
  139.3443   68.1682  224.9663 H   0  0  0  0  0  0  0  0  0  0  0  0
  139.9899   68.1244  227.2910 H   0  0  0  0  0  0  0  0  0  0  0  0
  140.8848   69.2818  229.2950 H   0  0  0  0  0  0  0  0  0  0  0  0
  141.5248   71.6778  229.1253 H   0  0  0  0  0  0  0  0  0  0  0  0
  141.2650   72.8824  226.9914 H   0  0  0  0  0  0  0  0  0  0  0  0
  1  2  2  0
  2  3  1  0
  3  4  1  0
  4  5  1  0
  5  6  2  0
  5  7  1  0
  7  8  1  0
  8  9  1  0
  9 10  1  0
 10 11  1  0
 11 12  1  0
 12 13  1  0
 13 14  2  0
 13 15  1  0
 15 16  1  0
 16 17  1  0
 17 18  2  0
 18 19  1  0
 19 20  2  0
 20 21  1  0
 21 22  2  0
 22 23  1  0
 23 24  2  0
 24 25  1  0
 25 26  2  0
 20 27  1  0
 27 28  2  0
  2 29  1  0
 29 30  2  0
 30 31  1  0
 31 32  2  0
 32 33  1  0
 33 34  2  0
 34 35  1  0
 35 36  2  0
 36 37  1  0
 37 38  2  0
 12  7  1  0
 28 17  1  0
 38 29  1  0
 26 21  1  0
 37 32  1  0
  3 39  1  0
  4 40  1  0
  4 41  1  0
  8 42  1  0
  8 43  1  0
  9 44  1  0
  9 45  1  0
 10 46  1  0
 10 47  1  0
 11 48  1  0
 11 49  1  0
 12 50  1  6
 15 51  1  0
 16 52  1  0
 16 53  1  0
 18 54  1  0
 19 55  1  0
 22 56  1  0
 23 57  1  0
 25 58  1  0
 26 59  1  0
 27 60  1  0
 28 61  1  0
 30 62  1  0
 31 63  1  0
 33 64  1  0
 34 65  1  0
 35 66  1  0
 36 67  1  0
M  END
>  <smiles>  (28) 
O=C(NCC(=O)N1CCCC[C@H]1C(=O)NCc1ccc(-c2ccncc2)cc1)c1ccc2ccccc2n1

>  <score_type>  (28) 
oracle

>  <origin>  (28) 
autodockgpu

>  <m_score__min__energy>  (28) 
-10.5

>  <m_primary>  (28) 
energy

>  <rmsd>  (28) 
5.264511629455057

>  <m_score__min__rmsd>  (28) 
5.264511629455057

>  <meeko>  (28) 
{"free_energy": -9.33, "intermolecular_energy": -11.72, "internal_energy": -2.84, "cluster_size": 5, "cluster_id": 1, "rank_in_cluster": 4}

>  <energy>  (28) 
-7.11

>  <cluster_rmsd>  (28) 
1.12

>  <cluster>  (28) 
9

$$$$

     RDKit          3D

 67 71  0  0  0  0  0  0  0  0999 V2000
  142.0510   74.0250  218.4470 O   0  0  0  0  0  0  0  0  0  0  0  0
  142.1750   74.9310  219.3110 C   0  0  0  0  0  0  0  0  0  0  0  0
  142.2140   74.5110  220.6800 N   0  0  0  0  0  0  0  0  0  0  0  0
  142.1120   73.0950  220.9490 C   0  0  0  0  0  0  0  0  0  0  0  0
  140.8610   72.7320  221.6640 C   0  0  0  0  0  0  0  0  0  0  0  0
  140.5910   73.3870  222.6940 O   0  0  0  0  0  0  0  0  0  0  0  0
  140.0760   71.6830  221.1320 N   0  0  0  0  0  0  0  0  0  0  0  0
  140.7180   70.4560  220.5900 C   0  0  0  0  0  0  0  0  0  0  0  0
  139.8270   69.3400  221.1720 C   0  0  0  0  0  0  0  0  0  0  0  0
  139.2010   69.7720  222.4930 C   0  0  0  0  0  0  0  0  0  0  0  0
  138.1890   70.8990  222.3100 C   0  0  0  0  0  0  0  0  0  0  0  0
  138.6340   71.6620  221.0760 C   0  0  1  0  0  0  0  0  0  0  0  0
  137.9670   72.9330  220.8430 C   0  0  0  0  0  0  0  0  0  0  0  0
  137.2920   73.2440  219.8310 O   0  0  0  0  0  0  0  0  0  0  0  0
  138.0820   73.9370  221.8540 N   0  0  0  0  0  0  0  0  0  0  0  0
  137.4760   75.2410  221.7810 C   0  0  0  0  0  0  0  0  0  0  0  0
  138.4970   76.2540  222.1310 C   0  0  0  0  0  0  0  0  0  0  0  0
  138.0170   77.5540  222.3360 C   0  0  0  0  0  0  0  0  0  0  0  0
  138.8660   78.5870  222.6720 C   0  0  0  0  0  0  0  0  0  0  0  0
  140.2160   78.3430  222.8110 C   0  0  0  0  0  0  0  0  0  0  0  0
  141.0680   79.4720  223.1640 C   0  0  0  0  0  0  0  0  0  0  0  0
  140.6050   80.7290  222.8020 C   0  0  0  0  0  0  0  0  0  0  0  0
  141.3510   81.8750  223.0970 C   0  0  0  0  0  0  0  0  0  0  0  0
  142.5250   81.7240  223.7370 N   0  0  0  0  0  0  0  0  0  0  0  0
  142.9690   80.4990  224.0840 C   0  0  0  0  0  0  0  0  0  0  0  0
  142.2740   79.3390  223.8190 C   0  0  0  0  0  0  0  0  0  0  0  0
  140.6910   77.0640  222.6100 C   0  0  0  0  0  0  0  0  0  0  0  0
  139.8380   76.0070  222.2690 C   0  0  0  0  0  0  0  0  0  0  0  0
  142.2710   76.3260  218.9260 C   0  0  0  0  0  0  0  0  0  0  0  0
  142.7820   76.6360  217.6840 C   0  0  0  0  0  0  0  0  0  0  0  0
  142.9170   77.9240  217.2150 C   0  0  0  0  0  0  0  0  0  0  0  0
  142.5220   78.9500  218.0250 C   0  0  0  0  0  0  0  0  0  0  0  0
  142.6360   80.2660  217.6040 C   0  0  0  0  0  0  0  0  0  0  0  0
  142.2390   81.3030  218.4180 C   0  0  0  0  0  0  0  0  0  0  0  0
  141.7250   81.0120  219.6620 C   0  0  0  0  0  0  0  0  0  0  0  0
  141.6160   79.6920  220.0760 C   0  0  0  0  0  0  0  0  0  0  0  0
  142.0030   78.6300  219.2850 C   0  0  0  0  0  0  0  0  0  0  0  0
  141.8900   77.3530  219.7010 N   0  0  0  0  0  0  0  0  0  0  0  0
  142.3130   75.2450  221.4120 H   0  0  0  0  0  0  0  0  0  0  0  0
  142.1396   72.5529  219.9923 H   0  0  0  0  0  0  0  0  0  0  0  0
  142.9558   72.8204  221.5990 H   0  0  0  0  0  0  0  0  0  0  0  0
  140.6997   70.4485  219.4902 H   0  0  0  0  0  0  0  0  0  0  0  0
  141.7806   70.3580  220.8571 H   0  0  0  0  0  0  0  0  0  0  0  0
  139.0267   69.1077  220.4539 H   0  0  0  0  0  0  0  0  0  0  0  0
  140.4515   68.4530  221.3543 H   0  0  0  0  0  0  0  0  0  0  0  0
  138.6909   68.9074  222.9428 H   0  0  0  0  0  0  0  0  0  0  0  0
  140.0068   70.1440  223.1428 H   0  0  0  0  0  0  0  0  0  0  0  0
  137.1800   70.4867  222.1617 H   0  0  0  0  0  0  0  0  0  0  0  0
  138.1470   71.5514  223.1947 H   0  0  0  0  0  0  0  0  0  0  0  0
  138.3063   71.1505  220.1590 H   0  0  0  0  0  0  0  0  0  0  0  0
  138.6480   73.7280  222.7280 H   0  0  0  0  0  0  0  0  0  0  0  0
  137.1080   75.4225  220.7604 H   0  0  0  0  0  0  0  0  0  0  0  0
  136.6290   75.3025  222.4802 H   0  0  0  0  0  0  0  0  0  0  0  0
  136.9410   77.7547  222.2267 H   0  0  0  0  0  0  0  0  0  0  0  0
  138.4685   79.6007  222.8284 H   0  0  0  0  0  0  0  0  0  0  0  0
  139.6425   80.8252  222.2782 H   0  0  0  0  0  0  0  0  0  0  0  0
  140.9874   82.8736  222.8132 H   0  0  0  0  0  0  0  0  0  0  0  0
  143.9347   80.4218  224.6049 H   0  0  0  0  0  0  0  0  0  0  0  0
  142.6628   78.3538  224.1159 H   0  0  0  0  0  0  0  0  0  0  0  0
  141.7679   76.8690  222.7204 H   0  0  0  0  0  0  0  0  0  0  0  0
  140.2381   74.9941  222.1143 H   0  0  0  0  0  0  0  0  0  0  0  0
  143.0995   75.8093  217.0315 H   0  0  0  0  0  0  0  0  0  0  0  0
  143.3317   78.1208  216.2153 H   0  0  0  0  0  0  0  0  0  0  0  0
  143.0485   80.4842  216.6079 H   0  0  0  0  0  0  0  0  0  0  0  0
  142.3308   82.3459  218.0805 H   0  0  0  0  0  0  0  0  0  0  0  0
  141.4009   81.8258  220.3274 H   0  0  0  0  0  0  0  0  0  0  0  0
  141.2046   79.4841  221.0748 H   0  0  0  0  0  0  0  0  0  0  0  0
  1  2  2  0
  2  3  1  0
  3  4  1  0
  4  5  1  0
  5  6  2  0
  5  7  1  0
  7  8  1  0
  8  9  1  0
  9 10  1  0
 10 11  1  0
 11 12  1  0
 12 13  1  0
 13 14  2  0
 13 15  1  0
 15 16  1  0
 16 17  1  0
 17 18  2  0
 18 19  1  0
 19 20  2  0
 20 21  1  0
 21 22  2  0
 22 23  1  0
 23 24  2  0
 24 25  1  0
 25 26  2  0
 20 27  1  0
 27 28  2  0
  2 29  1  0
 29 30  2  0
 30 31  1  0
 31 32  2  0
 32 33  1  0
 33 34  2  0
 34 35  1  0
 35 36  2  0
 36 37  1  0
 37 38  2  0
 12  7  1  0
 28 17  1  0
 38 29  1  0
 26 21  1  0
 37 32  1  0
  3 39  1  0
  4 40  1  0
  4 41  1  0
  8 42  1  0
  8 43  1  0
  9 44  1  0
  9 45  1  0
 10 46  1  0
 10 47  1  0
 11 48  1  0
 11 49  1  0
 12 50  1  6
 15 51  1  0
 16 52  1  0
 16 53  1  0
 18 54  1  0
 19 55  1  0
 22 56  1  0
 23 57  1  0
 25 58  1  0
 26 59  1  0
 27 60  1  0
 28 61  1  0
 30 62  1  0
 31 63  1  0
 33 64  1  0
 34 65  1  0
 35 66  1  0
 36 67  1  0
M  END
>  <smiles>  (29) 
O=C(NCC(=O)N1CCCC[C@H]1C(=O)NCc1ccc(-c2ccncc2)cc1)c1ccc2ccccc2n1

>  <score_type>  (29) 
oracle

>  <origin>  (29) 
autodockgpu

>  <m_score__min__energy>  (29) 
-10.5

>  <m_primary>  (29) 
energy

>  <rmsd>  (29) 
8.223701107490516

>  <m_score__min__rmsd>  (29) 
8.223701107490516

>  <meeko>  (29) 
{"free_energy": -7.71, "intermolecular_energy": -10.09, "internal_energy": -4.19, "cluster_size": 4, "cluster_id": 9, "rank_in_cluster": 2}

>  <energy>  (29) 
-7.05

>  <cluster_rmsd>  (29) 
1.06

>  <cluster>  (29) 
9

$$$$

     RDKit          3D

 67 71  0  0  0  0  0  0  0  0999 V2000
  140.4900   73.3810  222.4470 O   0  0  0  0  0  0  0  0  0  0  0  0
  140.1330   72.1750  222.4590 C   0  0  0  0  0  0  0  0  0  0  0  0
  139.7540   71.6050  221.2010 N   0  0  0  0  0  0  0  0  0  0  0  0
  139.8170   72.4550  220.0350 C   0  0  0  0  0  0  0  0  0  0  0  0
  138.5350   73.1560  219.7620 C   0  0  0  0  0  0  0  0  0  0  0  0
  138.5860   74.4000  219.6540 O   0  0  0  0  0  0  0  0  0  0  0  0
  137.3650   72.3720  219.6460 N   0  0  0  0  0  0  0  0  0  0  0  0
  136.8920   71.9070  218.3140 C   0  0  0  0  0  0  0  0  0  0  0  0
  136.5160   70.4390  218.5980 C   0  0  0  0  0  0  0  0  0  0  0  0
  137.3520   69.8690  219.7370 C   0  0  0  0  0  0  0  0  0  0  0  0
  137.0270   70.5260  221.0760 C   0  0  0  0  0  0  0  0  0  0  0  0
  136.5430   71.9260  220.7460 C   0  0  1  0  0  0  0  0  0  0  0  0
  136.4090   72.8320  221.8760 C   0  0  0  0  0  0  0  0  0  0  0  0
  136.2270   72.5040  223.0730 O   0  0  0  0  0  0  0  0  0  0  0  0
  136.4900   74.2340  221.6130 N   0  0  0  0  0  0  0  0  0  0  0  0
  136.3880   75.2600  222.6190 C   0  0  0  0  0  0  0  0  0  0  0  0
  137.6100   76.0930  222.5680 C   0  0  0  0  0  0  0  0  0  0  0  0
  137.4180   77.4660  222.7720 C   0  0  0  0  0  0  0  0  0  0  0  0
  138.4780   78.3480  222.7540 C   0  0  0  0  0  0  0  0  0  0  0  0
  139.7550   77.8760  222.5340 C   0  0  0  0  0  0  0  0  0  0  0  0
  140.8370   78.8530  222.5230 C   0  0  0  0  0  0  0  0  0  0  0  0
  141.4720   79.0810  223.7360 C   0  0  0  0  0  0  0  0  0  0  0  0
  142.5220   80.0010  223.8290 C   0  0  0  0  0  0  0  0  0  0  0  0
  142.8970   80.6540  222.7130 N   0  0  0  0  0  0  0  0  0  0  0  0
  142.2750   80.4270  221.5380 C   0  0  0  0  0  0  0  0  0  0  0  0
  141.2360   79.5330  221.3920 C   0  0  0  0  0  0  0  0  0  0  0  0
  139.9460   76.5250  222.3340 C   0  0  0  0  0  0  0  0  0  0  0  0
  138.8780   75.6200  222.3500 C   0  0  0  0  0  0  0  0  0  0  0  0
  140.1110   71.4130  223.6930 C   0  0  0  0  0  0  0  0  0  0  0  0
  139.5620   70.1490  223.6800 C   0  0  0  0  0  0  0  0  0  0  0  0
  139.4890   69.3380  224.7910 C   0  0  0  0  0  0  0  0  0  0  0  0
  139.9880   69.8140  225.9710 C   0  0  0  0  0  0  0  0  0  0  0  0
  139.9410   69.0400  227.1200 C   0  0  0  0  0  0  0  0  0  0  0  0
  140.4430   69.5160  228.3110 C   0  0  0  0  0  0  0  0  0  0  0  0
  140.9950   70.7770  228.3420 C   0  0  0  0  0  0  0  0  0  0  0  0
  141.0370   71.5440  227.1870 C   0  0  0  0  0  0  0  0  0  0  0  0
  140.5450   71.0980  225.9780 C   0  0  0  0  0  0  0  0  0  0  0  0
  140.5940   71.8550  224.8640 N   0  0  0  0  0  0  0  0  0  0  0  0
  139.4530   70.6080  221.1890 H   0  0  0  0  0  0  0  0  0  0  0  0
  140.6029   73.2085  220.1917 H   0  0  0  0  0  0  0  0  0  0  0  0
  140.0337   71.8126  219.1688 H   0  0  0  0  0  0  0  0  0  0  0  0
  136.0187   72.4846  217.9766 H   0  0  0  0  0  0  0  0  0  0  0  0
  137.6375   72.0257  217.5139 H   0  0  0  0  0  0  0  0  0  0  0  0
  135.4521   70.3873  218.8726 H   0  0  0  0  0  0  0  0  0  0  0  0
  136.7107   69.8469  217.6916 H   0  0  0  0  0  0  0  0  0  0  0  0
  137.1552   68.7896  219.8151 H   0  0  0  0  0  0  0  0  0  0  0  0
  138.4101   70.0679  219.5114 H   0  0  0  0  0  0  0  0  0  0  0  0
  136.2397   69.9621  221.5978 H   0  0  0  0  0  0  0  0  0  0  0  0
  137.9048   70.5479  221.7386 H   0  0  0  0  0  0  0  0  0  0  0  0
  135.4872   71.9137  220.4377 H   0  0  0  0  0  0  0  0  0  0  0  0
  136.6370   74.5670  220.6150 H   0  0  0  0  0  0  0  0  0  0  0  0
  135.5046   75.8853  222.4226 H   0  0  0  0  0  0  0  0  0  0  0  0
  136.2859   74.8024  223.6141 H   0  0  0  0  0  0  0  0  0  0  0  0
  136.4018   77.8478  222.9500 H   0  0  0  0  0  0  0  0  0  0  0  0
  138.3058   79.4225  222.9143 H   0  0  0  0  0  0  0  0  0  0  0  0
  141.1466   78.5332  224.6327 H   0  0  0  0  0  0  0  0  0  0  0  0
  143.0276   80.1858  224.7883 H   0  0  0  0  0  0  0  0  0  0  0  0
  142.6139   80.9833  220.6516 H   0  0  0  0  0  0  0  0  0  0  0  0
  140.7485   79.3699  220.4195 H   0  0  0  0  0  0  0  0  0  0  0  0
  140.9643   76.1485  222.1572 H   0  0  0  0  0  0  0  0  0  0  0  0
  139.0536   74.5459  222.1901 H   0  0  0  0  0  0  0  0  0  0  0  0
  139.1600   69.7667  222.7301 H   0  0  0  0  0  0  0  0  0  0  0  0
  139.0415   68.3350  224.7302 H   0  0  0  0  0  0  0  0  0  0  0  0
  139.4977   68.0341  227.0801 H   0  0  0  0  0  0  0  0  0  0  0  0
  140.4036   68.8997  229.2213 H   0  0  0  0  0  0  0  0  0  0  0  0
  141.4026   71.1761  229.2825 H   0  0  0  0  0  0  0  0  0  0  0  0
  141.4809   72.5492  227.2373 H   0  0  0  0  0  0  0  0  0  0  0  0
  1  2  2  0
  2  3  1  0
  3  4  1  0
  4  5  1  0
  5  6  2  0
  5  7  1  0
  7  8  1  0
  8  9  1  0
  9 10  1  0
 10 11  1  0
 11 12  1  0
 12 13  1  0
 13 14  2  0
 13 15  1  0
 15 16  1  0
 16 17  1  0
 17 18  2  0
 18 19  1  0
 19 20  2  0
 20 21  1  0
 21 22  2  0
 22 23  1  0
 23 24  2  0
 24 25  1  0
 25 26  2  0
 20 27  1  0
 27 28  2  0
  2 29  1  0
 29 30  2  0
 30 31  1  0
 31 32  2  0
 32 33  1  0
 33 34  2  0
 34 35  1  0
 35 36  2  0
 36 37  1  0
 37 38  2  0
 12  7  1  0
 28 17  1  0
 38 29  1  0
 26 21  1  0
 37 32  1  0
  3 39  1  0
  4 40  1  0
  4 41  1  0
  8 42  1  0
  8 43  1  0
  9 44  1  0
  9 45  1  0
 10 46  1  0
 10 47  1  0
 11 48  1  0
 11 49  1  0
 12 50  1  6
 15 51  1  0
 16 52  1  0
 16 53  1  0
 18 54  1  0
 19 55  1  0
 22 56  1  0
 23 57  1  0
 25 58  1  0
 26 59  1  0
 27 60  1  0
 28 61  1  0
 30 62  1  0
 31 63  1  0
 33 64  1  0
 34 65  1  0
 35 66  1  0
 36 67  1  0
M  END
>  <smiles>  (30) 
O=C(NCC(=O)N1CCCC[C@H]1C(=O)NCc1ccc(-c2ccncc2)cc1)c1ccc2ccccc2n1

>  <score_type>  (30) 
oracle

>  <origin>  (30) 
autodockgpu

>  <m_score__min__energy>  (30) 
-10.5

>  <m_primary>  (30) 
energy

>  <rmsd>  (30) 
4.8187950502622146

>  <m_score__min__rmsd>  (30) 
4.8187950502622146

>  <meeko>  (30) 
{"free_energy": -8.37, "intermolecular_energy": -10.76, "internal_energy": -3.55, "cluster_size": 4, "cluster_id": 5, "rank_in_cluster": 4}

>  <energy>  (30) 
-8.0

>  <cluster_rmsd>  (30) 
0.0

>  <cluster>  (30) 
10

$$$$

     RDKit          3D

 67 71  0  0  0  0  0  0  0  0999 V2000
  139.9380   73.1090  222.8490 O   0  0  0  0  0  0  0  0  0  0  0  0
  140.2460   71.8920  222.9240 C   0  0  0  0  0  0  0  0  0  0  0  0
  140.4870   71.2140  221.6850 N   0  0  0  0  0  0  0  0  0  0  0  0
  140.3610   71.9800  220.4670 C   0  0  0  0  0  0  0  0  0  0  0  0
  138.9660   72.4190  220.2030 C   0  0  0  0  0  0  0  0  0  0  0  0
  138.8070   73.6110  219.8610 O   0  0  0  0  0  0  0  0  0  0  0  0
  137.9330   71.4670  220.3550 N   0  0  0  0  0  0  0  0  0  0  0  0
  137.9740   70.1780  219.6140 C   0  0  0  0  0  0  0  0  0  0  0  0
  137.5590   69.1660  220.7010 C   0  0  0  0  0  0  0  0  0  0  0  0
  137.9530   69.6590  222.0880 C   0  0  0  0  0  0  0  0  0  0  0  0
  137.1590   70.8920  222.5090 C   0  0  0  0  0  0  0  0  0  0  0  0
  136.7870   71.6060  221.2230 C   0  0  1  0  0  0  0  0  0  0  0  0
  136.2390   72.9450  221.3780 C   0  0  0  0  0  0  0  0  0  0  0  0
  135.2070   73.3940  220.8230 O   0  0  0  0  0  0  0  0  0  0  0  0
  136.9330   73.8480  222.2410 N   0  0  0  0  0  0  0  0  0  0  0  0
  136.5190   75.2010  222.5090 C   0  0  0  0  0  0  0  0  0  0  0  0
  137.7150   76.0720  222.4880 C   0  0  0  0  0  0  0  0  0  0  0  0
  137.4790   77.4330  222.7220 C   0  0  0  0  0  0  0  0  0  0  0  0
  138.5110   78.3480  222.7340 C   0  0  0  0  0  0  0  0  0  0  0  0
  139.8030   77.9210  222.5120 C   0  0  0  0  0  0  0  0  0  0  0  0
  140.8550   78.9310  222.5330 C   0  0  0  0  0  0  0  0  0  0  0  0
  141.4850   79.1380  223.7520 C   0  0  0  0  0  0  0  0  0  0  0  0
  142.5060   80.0870  223.8750 C   0  0  0  0  0  0  0  0  0  0  0  0
  142.8580   80.7880  222.7810 N   0  0  0  0  0  0  0  0  0  0  0  0
  142.2410   80.5810  221.6000 C   0  0  0  0  0  0  0  0  0  0  0  0
  141.2300   79.6600  221.4250 C   0  0  0  0  0  0  0  0  0  0  0  0
  140.0380   76.5820  222.2830 C   0  0  0  0  0  0  0  0  0  0  0  0
  138.9980   75.6440  222.2680 C   0  0  0  0  0  0  0  0  0  0  0  0
  140.3460   71.2220  224.2060 C   0  0  0  0  0  0  0  0  0  0  0  0
  140.9270   71.8930  225.2600 C   0  0  0  0  0  0  0  0  0  0  0  0
  141.0730   71.3550  226.5200 C   0  0  0  0  0  0  0  0  0  0  0  0
  140.6160   70.0850  226.7350 C   0  0  0  0  0  0  0  0  0  0  0  0
  140.7360   69.4950  227.9830 C   0  0  0  0  0  0  0  0  0  0  0  0
  140.2770   68.2150  228.2050 C   0  0  0  0  0  0  0  0  0  0  0  0
  139.6930   67.5300  227.1630 C   0  0  0  0  0  0  0  0  0  0  0  0
  139.5770   68.1290  225.9180 C   0  0  0  0  0  0  0  0  0  0  0  0
  140.0250   69.4090  225.6620 C   0  0  0  0  0  0  0  0  0  0  0  0
  139.9050   69.9770  224.4460 N   0  0  0  0  0  0  0  0  0  0  0  0
  140.7400   70.2040  221.7240 H   0  0  0  0  0  0  0  0  0  0  0  0
  141.0009   72.8713  220.5449 H   0  0  0  0  0  0  0  0  0  0  0  0
  140.6660   71.3293  219.6342 H   0  0  0  0  0  0  0  0  0  0  0  0
  137.2624   70.1770  218.7752 H   0  0  0  0  0  0  0  0  0  0  0  0
  138.9511   69.9611  219.1578 H   0  0  0  0  0  0  0  0  0  0  0  0
  136.4684   69.0273  220.6653 H   0  0  0  0  0  0  0  0  0  0  0  0
  138.0760   68.2144  220.5083 H   0  0  0  0  0  0  0  0  0  0  0  0
  137.7696   68.8543  222.8152 H   0  0  0  0  0  0  0  0  0  0  0  0
  139.0169   69.9368  222.0578 H   0  0  0  0  0  0  0  0  0  0  0  0
  136.2530   70.5948  223.0575 H   0  0  0  0  0  0  0  0  0  0  0  0
  137.7448   71.5411  223.1765 H   0  0  0  0  0  0  0  0  0  0  0  0
  135.9090   71.1373  220.7546 H   0  0  0  0  0  0  0  0  0  0  0  0
  137.8170   73.5210  222.7300 H   0  0  0  0  0  0  0  0  0  0  0  0
  135.8067   75.5304  221.7382 H   0  0  0  0  0  0  0  0  0  0  0  0
  136.0297   75.2571  223.4926 H   0  0  0  0  0  0  0  0  0  0  0  0
  136.4500   77.7788  222.8997 H   0  0  0  0  0  0  0  0  0  0  0  0
  138.3044   79.4124  222.9196 H   0  0  0  0  0  0  0  0  0  0  0  0
  141.1788   78.5504  224.6301 H   0  0  0  0  0  0  0  0  0  0  0  0
  143.0073   80.2556  224.8395 H   0  0  0  0  0  0  0  0  0  0  0  0
  142.5604   81.1770  220.7324 H   0  0  0  0  0  0  0  0  0  0  0  0
  140.7459   79.5140  220.4481 H   0  0  0  0  0  0  0  0  0  0  0  0
  141.0691   76.2414  222.1075 H   0  0  0  0  0  0  0  0  0  0  0  0
  139.2079   74.5803  222.0825 H   0  0  0  0  0  0  0  0  0  0  0  0
  141.2947   72.9150  225.0858 H   0  0  0  0  0  0  0  0  0  0  0  0
  141.5440   71.9313  227.3300 H   0  0  0  0  0  0  0  0  0  0  0  0
  141.2033   70.0552  228.8063 H   0  0  0  0  0  0  0  0  0  0  0  0
  140.3753   67.7488  229.1965 H   0  0  0  0  0  0  0  0  0  0  0  0
  139.3185   66.5075  227.3184 H   0  0  0  0  0  0  0  0  0  0  0  0
  139.1087   67.5607  225.1008 H   0  0  0  0  0  0  0  0  0  0  0  0
  1  2  2  0
  2  3  1  0
  3  4  1  0
  4  5  1  0
  5  6  2  0
  5  7  1  0
  7  8  1  0
  8  9  1  0
  9 10  1  0
 10 11  1  0
 11 12  1  0
 12 13  1  0
 13 14  2  0
 13 15  1  0
 15 16  1  0
 16 17  1  0
 17 18  2  0
 18 19  1  0
 19 20  2  0
 20 21  1  0
 21 22  2  0
 22 23  1  0
 23 24  2  0
 24 25  1  0
 25 26  2  0
 20 27  1  0
 27 28  2  0
  2 29  1  0
 29 30  2  0
 30 31  1  0
 31 32  2  0
 32 33  1  0
 33 34  2  0
 34 35  1  0
 35 36  2  0
 36 37  1  0
 37 38  2  0
 12  7  1  0
 28 17  1  0
 38 29  1  0
 26 21  1  0
 37 32  1  0
  3 39  1  0
  4 40  1  0
  4 41  1  0
  8 42  1  0
  8 43  1  0
  9 44  1  0
  9 45  1  0
 10 46  1  0
 10 47  1  0
 11 48  1  0
 11 49  1  0
 12 50  1  6
 15 51  1  0
 16 52  1  0
 16 53  1  0
 18 54  1  0
 19 55  1  0
 22 56  1  0
 23 57  1  0
 25 58  1  0
 26 59  1  0
 27 60  1  0
 28 61  1  0
 30 62  1  0
 31 63  1  0
 33 64  1  0
 34 65  1  0
 35 66  1  0
 36 67  1  0
M  END
>  <smiles>  (31) 
O=C(NCC(=O)N1CCCC[C@H]1C(=O)NCc1ccc(-c2ccncc2)cc1)c1ccc2ccccc2n1

>  <score_type>  (31) 
oracle

>  <origin>  (31) 
autodockgpu

>  <m_score__min__energy>  (31) 
-10.5

>  <m_primary>  (31) 
energy

>  <rmsd>  (31) 
5.3808428038903555

>  <m_score__min__rmsd>  (31) 
5.3808428038903555

>  <meeko>  (31) 
{"free_energy": -9.0, "intermolecular_energy": -11.38, "internal_energy": -3.72, "cluster_size": 4, "cluster_id": 5, "rank_in_cluster": 1}

>  <energy>  (31) 
-7.99

>  <cluster_rmsd>  (31) 
0.09

>  <cluster>  (31) 
10

$$$$

     RDKit          3D

 67 71  0  0  0  0  0  0  0  0999 V2000
  140.9510   71.7940  221.4390 O   0  0  0  0  0  0  0  0  0  0  0  0
  140.2030   72.1620  222.3800 C   0  0  0  0  0  0  0  0  0  0  0  0
  139.4140   73.3350  222.1520 N   0  0  0  0  0  0  0  0  0  0  0  0
  139.5400   73.9880  220.8700 C   0  0  0  0  0  0  0  0  0  0  0  0
  138.2280   74.3750  220.2880 C   0  0  0  0  0  0  0  0  0  0  0  0
  138.1260   75.5450  219.8600 O   0  0  0  0  0  0  0  0  0  0  0  0
  137.2040   73.4010  220.2610 N   0  0  0  0  0  0  0  0  0  0  0  0
  136.9030   72.6510  219.0130 C   0  0  0  0  0  0  0  0  0  0  0  0
  136.7390   71.2080  219.5320 C   0  0  0  0  0  0  0  0  0  0  0  0
  137.5730   70.9800  220.7870 C   0  0  0  0  0  0  0  0  0  0  0  0
  137.0580   71.7870  221.9760 C   0  0  0  0  0  0  0  0  0  0  0  0
  136.3860   73.0140  221.3860 C   0  0  1  0  0  0  0  0  0  0  0  0
  136.0360   74.0600  222.3340 C   0  0  0  0  0  0  0  0  0  0  0  0
  135.7720   73.9020  223.5510 O   0  0  0  0  0  0  0  0  0  0  0  0
  135.9810   75.4030  221.8490 N   0  0  0  0  0  0  0  0  0  0  0  0
  135.6600   76.5500  222.6570 C   0  0  0  0  0  0  0  0  0  0  0  0
  136.8760   77.3830  222.7960 C   0  0  0  0  0  0  0  0  0  0  0  0
  138.0940   76.7160  222.6040 C   0  0  0  0  0  0  0  0  0  0  0  0
  139.2970   77.3810  222.7000 C   0  0  0  0  0  0  0  0  0  0  0  0
  139.3110   78.7290  222.9910 C   0  0  0  0  0  0  0  0  0  0  0  0
  140.6120   79.3810  223.0840 C   0  0  0  0  0  0  0  0  0  0  0  0
  140.6000   80.7370  223.3800 C   0  0  0  0  0  0  0  0  0  0  0  0
  141.7970   81.4530  223.4910 C   0  0  0  0  0  0  0  0  0  0  0  0
  142.9540   80.7920  223.3020 N   0  0  0  0  0  0  0  0  0  0  0  0
  142.9570   79.4740  223.0150 C   0  0  0  0  0  0  0  0  0  0  0  0
  141.8080   78.7230  222.8950 C   0  0  0  0  0  0  0  0  0  0  0  0
  138.1150   79.3870  223.1800 C   0  0  0  0  0  0  0  0  0  0  0  0
  136.8860   78.7220  223.0840 C   0  0  0  0  0  0  0  0  0  0  0  0
  140.1540   71.4250  223.6290 C   0  0  0  0  0  0  0  0  0  0  0  0
  139.5810   70.1730  223.6360 C   0  0  0  0  0  0  0  0  0  0  0  0
  139.4810   69.3850  224.7630 C   0  0  0  0  0  0  0  0  0  0  0  0
  139.9790   69.8750  225.9370 C   0  0  0  0  0  0  0  0  0  0  0  0
  139.9060   69.1260  227.1010 C   0  0  0  0  0  0  0  0  0  0  0  0
  140.4060   69.6160  228.2870 C   0  0  0  0  0  0  0  0  0  0  0  0
  140.9830   70.8670  228.2980 C   0  0  0  0  0  0  0  0  0  0  0  0
  141.0510   71.6090  227.1290 C   0  0  0  0  0  0  0  0  0  0  0  0
  140.5610   71.1480  225.9240 C   0  0  0  0  0  0  0  0  0  0  0  0
  140.6350   71.8820  224.7960 N   0  0  0  0  0  0  0  0  0  0  0  0
  138.7890   73.6590  222.9210 H   0  0  0  0  0  0  0  0  0  0  0  0
  140.1495   74.8949  220.9962 H   0  0  0  0  0  0  0  0  0  0  0  0
  140.0101   73.2725  220.1792 H   0  0  0  0  0  0  0  0  0  0  0  0
  135.9768   73.0136  218.5432 H   0  0  0  0  0  0  0  0  0  0  0  0
  137.6757   72.7562  218.2372 H   0  0  0  0  0  0  0  0  0  0  0  0
  135.6794   71.0286  219.7669 H   0  0  0  0  0  0  0  0  0  0  0  0
  137.0840   70.5139  218.7515 H   0  0  0  0  0  0  0  0  0  0  0  0
  137.5413   69.9109  221.0441 H   0  0  0  0  0  0  0  0  0  0  0  0
  138.6005   71.3103  220.5743 H   0  0  0  0  0  0  0  0  0  0  0  0
  136.3338   71.1953  222.5552 H   0  0  0  0  0  0  0  0  0  0  0  0
  137.8736   72.0630  222.6606 H   0  0  0  0  0  0  0  0  0  0  0  0
  135.3690   72.7770  221.0403 H   0  0  0  0  0  0  0  0  0  0  0  0
  136.1890   75.5910  220.8240 H   0  0  0  0  0  0  0  0  0  0  0  0
  134.8638   77.1340  222.1723 H   0  0  0  0  0  0  0  0  0  0  0  0
  135.3101   76.2262  223.6483 H   0  0  0  0  0  0  0  0  0  0  0  0
  138.0892   75.6407  222.3722 H   0  0  0  0  0  0  0  0  0  0  0  0
  140.2417   76.8392  222.5453 H   0  0  0  0  0  0  0  0  0  0  0  0
  139.6404   81.2537  223.5287 H   0  0  0  0  0  0  0  0  0  0  0  0
  141.7925   82.5275  223.7264 H   0  0  0  0  0  0  0  0  0  0  0  0
  143.9256   78.9734  222.8694 H   0  0  0  0  0  0  0  0  0  0  0  0
  141.8437   77.6491  222.6595 H   0  0  0  0  0  0  0  0  0  0  0  0
  138.1258   80.4622  223.4122 H   0  0  0  0  0  0  0  0  0  0  0  0
  135.9429   79.2670  223.2376 H   0  0  0  0  0  0  0  0  0  0  0  0
  139.1808   69.7796  222.6899 H   0  0  0  0  0  0  0  0  0  0  0  0
  139.0136   68.3902  224.7181 H   0  0  0  0  0  0  0  0  0  0  0  0
  139.4432   68.1284  227.0772 H   0  0  0  0  0  0  0  0  0  0  0  0
  140.3457   69.0192  229.2090 H   0  0  0  0  0  0  0  0  0  0  0  0
  141.3897   71.2770  229.2342 H   0  0  0  0  0  0  0  0  0  0  0  0
  141.5145   72.6060  227.1633 H   0  0  0  0  0  0  0  0  0  0  0  0
  1  2  2  0
  2  3  1  0
  3  4  1  0
  4  5  1  0
  5  6  2  0
  5  7  1  0
  7  8  1  0
  8  9  1  0
  9 10  1  0
 10 11  1  0
 11 12  1  0
 12 13  1  0
 13 14  2  0
 13 15  1  0
 15 16  1  0
 16 17  1  0
 17 18  2  0
 18 19  1  0
 19 20  2  0
 20 21  1  0
 21 22  2  0
 22 23  1  0
 23 24  2  0
 24 25  1  0
 25 26  2  0
 20 27  1  0
 27 28  2  0
  2 29  1  0
 29 30  2  0
 30 31  1  0
 31 32  2  0
 32 33  1  0
 33 34  2  0
 34 35  1  0
 35 36  2  0
 36 37  1  0
 37 38  2  0
 12  7  1  0
 28 17  1  0
 38 29  1  0
 26 21  1  0
 37 32  1  0
  3 39  1  0
  4 40  1  0
  4 41  1  0
  8 42  1  0
  8 43  1  0
  9 44  1  0
  9 45  1  0
 10 46  1  0
 10 47  1  0
 11 48  1  0
 11 49  1  0
 12 50  1  6
 15 51  1  0
 16 52  1  0
 16 53  1  0
 18 54  1  0
 19 55  1  0
 22 56  1  0
 23 57  1  0
 25 58  1  0
 26 59  1  0
 27 60  1  0
 28 61  1  0
 30 62  1  0
 31 63  1  0
 33 64  1  0
 34 65  1  0
 35 66  1  0
 36 67  1  0
M  END
>  <smiles>  (32) 
O=C(NCC(=O)N1CCCC[C@H]1C(=O)NCc1ccc(-c2ccncc2)cc1)c1ccc2ccccc2n1

>  <score_type>  (32) 
oracle

>  <origin>  (32) 
autodockgpu

>  <m_score__min__energy>  (32) 
-10.5

>  <m_primary>  (32) 
energy

>  <rmsd>  (32) 
4.390927281734246

>  <m_score__min__rmsd>  (32) 
4.390927281734246

>  <meeko>  (32) 
{"free_energy": -8.68, "intermolecular_energy": -11.07, "internal_energy": -3.34, "cluster_size": 4, "cluster_id": 5, "rank_in_cluster": 3}

>  <energy>  (32) 
-7.83

>  <cluster_rmsd>  (32) 
0.0

>  <cluster>  (32) 
11

$$$$

     RDKit          3D

 67 71  0  0  0  0  0  0  0  0999 V2000
  141.0650   77.1890  217.6700 O   0  0  0  0  0  0  0  0  0  0  0  0
  141.8600   77.1350  218.6430 C   0  0  0  0  0  0  0  0  0  0  0  0
  142.7520   76.0150  218.6800 N   0  0  0  0  0  0  0  0  0  0  0  0
  142.6670   75.0540  217.6050 C   0  0  0  0  0  0  0  0  0  0  0  0
  142.0800   73.7580  218.0340 C   0  0  0  0  0  0  0  0  0  0  0  0
  141.0230   73.4050  217.4680 O   0  0  0  0  0  0  0  0  0  0  0  0
  142.7530   73.0280  219.0400 N   0  0  0  0  0  0  0  0  0  0  0  0
  143.7050   71.9440  218.6810 C   0  0  0  0  0  0  0  0  0  0  0  0
  144.8820   72.2150  219.6400 C   0  0  0  0  0  0  0  0  0  0  0  0
  144.9710   73.6950  219.9930 C   0  0  0  0  0  0  0  0  0  0  0  0
  143.7860   74.1590  220.8350 C   0  0  0  0  0  0  0  0  0  0  0  0
  142.6290   73.2500  220.4610 C   0  0  1  0  0  0  0  0  0  0  0  0
  141.3210   73.6580  220.9510 C   0  0  0  0  0  0  0  0  0  0  0  0
  141.0880   74.2870  222.0110 O   0  0  0  0  0  0  0  0  0  0  0  0
  140.1820   73.3150  220.1600 N   0  0  0  0  0  0  0  0  0  0  0  0
  138.8230   73.6500  220.4980 C   0  0  0  0  0  0  0  0  0  0  0  0
  138.7560   75.0990  220.7930 C   0  0  0  0  0  0  0  0  0  0  0  0
  138.5310   75.4350  222.1350 C   0  0  0  0  0  0  0  0  0  0  0  0
  138.4540   76.7510  222.5410 C   0  0  0  0  0  0  0  0  0  0  0  0
  138.6000   77.7610  221.6140 C   0  0  0  0  0  0  0  0  0  0  0  0
  138.5060   79.1330  222.0970 C   0  0  0  0  0  0  0  0  0  0  0  0
  138.4830   79.2990  223.4750 C   0  0  0  0  0  0  0  0  0  0  0  0
  138.3930   80.5780  224.0370 C   0  0  0  0  0  0  0  0  0  0  0  0
  138.3310   81.6350  223.2070 N   0  0  0  0  0  0  0  0  0  0  0  0
  138.3540   81.4650  221.8690 C   0  0  0  0  0  0  0  0  0  0  0  0
  138.4410   80.2300  221.2650 C   0  0  0  0  0  0  0  0  0  0  0  0
  138.8230   77.4330  220.2930 C   0  0  0  0  0  0  0  0  0  0  0  0
  138.9040   76.1000  219.8690 C   0  0  0  0  0  0  0  0  0  0  0  0
  141.8610   78.1600  219.6680 C   0  0  0  0  0  0  0  0  0  0  0  0
  141.8580   79.4830  219.2810 C   0  0  0  0  0  0  0  0  0  0  0  0
  141.8570   80.5370  220.1680 C   0  0  0  0  0  0  0  0  0  0  0  0
  141.8590   80.2550  221.5050 C   0  0  0  0  0  0  0  0  0  0  0  0
  141.8570   81.2770  222.4410 C   0  0  0  0  0  0  0  0  0  0  0  0
  141.8600   80.9970  223.7900 C   0  0  0  0  0  0  0  0  0  0  0  0
  141.8620   79.6800  224.1950 C   0  0  0  0  0  0  0  0  0  0  0  0
  141.8640   78.6640  223.2500 C   0  0  0  0  0  0  0  0  0  0  0  0
  141.8610   78.9100  221.8920 C   0  0  0  0  0  0  0  0  0  0  0  0
  141.8620   77.9120  220.9870 N   0  0  0  0  0  0  0  0  0  0  0  0
  143.4180   75.9490  219.4790 H   0  0  0  0  0  0  0  0  0  0  0  0
  142.0402   75.4759  216.8056 H   0  0  0  0  0  0  0  0  0  0  0  0
  143.6918   74.8541  217.2587 H   0  0  0  0  0  0  0  0  0  0  0  0
  143.2654   70.9516  218.8593 H   0  0  0  0  0  0  0  0  0  0  0  0
  143.9917   71.9413  217.6190 H   0  0  0  0  0  0  0  0  0  0  0  0
  144.7354   71.6336  220.5623 H   0  0  0  0  0  0  0  0  0  0  0  0
  145.8159   71.9176  219.1405 H   0  0  0  0  0  0  0  0  0  0  0  0
  145.8978   73.8690  220.5594 H   0  0  0  0  0  0  0  0  0  0  0  0
  144.9625   74.2673  219.0536 H   0  0  0  0  0  0  0  0  0  0  0  0
  144.0169   74.0634  221.9062 H   0  0  0  0  0  0  0  0  0  0  0  0
  143.5463   75.2160  220.6474 H   0  0  0  0  0  0  0  0  0  0  0  0
  142.6964   72.2893  220.9925 H   0  0  0  0  0  0  0  0  0  0  0  0
  140.3220   72.7750  219.2560 H   0  0  0  0  0  0  0  0  0  0  0  0
  138.1610   73.4125  219.6523 H   0  0  0  0  0  0  0  0  0  0  0  0
  138.4993   73.0713  221.3757 H   0  0  0  0  0  0  0  0  0  0  0  0
  138.4135   74.6334  222.8791 H   0  0  0  0  0  0  0  0  0  0  0  0
  138.2769   76.9934  223.5992 H   0  0  0  0  0  0  0  0  0  0  0  0
  138.5360   78.4177  224.1312 H   0  0  0  0  0  0  0  0  0  0  0  0
  138.3735   80.7151  225.1282 H   0  0  0  0  0  0  0  0  0  0  0  0
  138.3006   82.3574  221.2281 H   0  0  0  0  0  0  0  0  0  0  0  0
  138.4578   80.1243  220.1702 H   0  0  0  0  0  0  0  0  0  0  0  0
  138.9403   78.2386  219.5533 H   0  0  0  0  0  0  0  0  0  0  0  0
  139.0837   75.8607  218.8105 H   0  0  0  0  0  0  0  0  0  0  0  0
  141.8563   79.7096  218.2046 H   0  0  0  0  0  0  0  0  0  0  0  0
  141.8546   81.5770  219.8098 H   0  0  0  0  0  0  0  0  0  0  0  0
  141.8530   82.3238  222.1030 H   0  0  0  0  0  0  0  0  0  0  0  0
  141.8608   81.8104  224.5305 H   0  0  0  0  0  0  0  0  0  0  0  0
  141.8620   79.4341  225.2672 H   0  0  0  0  0  0  0  0  0  0  0  0
  141.8681   77.6203  223.5973 H   0  0  0  0  0  0  0  0  0  0  0  0
  1  2  2  0
  2  3  1  0
  3  4  1  0
  4  5  1  0
  5  6  2  0
  5  7  1  0
  7  8  1  0
  8  9  1  0
  9 10  1  0
 10 11  1  0
 11 12  1  0
 12 13  1  0
 13 14  2  0
 13 15  1  0
 15 16  1  0
 16 17  1  0
 17 18  2  0
 18 19  1  0
 19 20  2  0
 20 21  1  0
 21 22  2  0
 22 23  1  0
 23 24  2  0
 24 25  1  0
 25 26  2  0
 20 27  1  0
 27 28  2  0
  2 29  1  0
 29 30  2  0
 30 31  1  0
 31 32  2  0
 32 33  1  0
 33 34  2  0
 34 35  1  0
 35 36  2  0
 36 37  1  0
 37 38  2  0
 12  7  1  0
 28 17  1  0
 38 29  1  0
 26 21  1  0
 37 32  1  0
  3 39  1  0
  4 40  1  0
  4 41  1  0
  8 42  1  0
  8 43  1  0
  9 44  1  0
  9 45  1  0
 10 46  1  0
 10 47  1  0
 11 48  1  0
 11 49  1  0
 12 50  1  1
 15 51  1  0
 16 52  1  0
 16 53  1  0
 18 54  1  0
 19 55  1  0
 22 56  1  0
 23 57  1  0
 25 58  1  0
 26 59  1  0
 27 60  1  0
 28 61  1  0
 30 62  1  0
 31 63  1  0
 33 64  1  0
 34 65  1  0
 35 66  1  0
 36 67  1  0
M  END
>  <smiles>  (33) 
O=C(NCC(=O)N1CCCC[C@H]1C(=O)NCc1ccc(-c2ccncc2)cc1)c1ccc2ccccc2n1

>  <score_type>  (33) 
oracle

>  <origin>  (33) 
autodockgpu

>  <m_score__min__energy>  (33) 
-10.5

>  <m_primary>  (33) 
energy

>  <rmsd>  (33) 
7.842250717716247

>  <m_score__min__rmsd>  (33) 
7.842250717716247

>  <meeko>  (33) 
{"free_energy": -6.48, "intermolecular_energy": -8.87, "internal_energy": -5.39, "cluster_size": 12, "cluster_id": 11, "rank_in_cluster": 10}

>  <energy>  (33) 
-7.46

>  <cluster_rmsd>  (33) 
0.42

>  <cluster>  (33) 
11

$$$$

     RDKit          3D

 67 71  0  0  0  0  0  0  0  0999 V2000
  137.4260   73.1440  220.7690 O   0  0  0  0  0  0  0  0  0  0  0  0
  137.3190   73.5990  221.9360 C   0  0  0  0  0  0  0  0  0  0  0  0
  138.0170   74.8180  222.2160 N   0  0  0  0  0  0  0  0  0  0  0  0
  138.7750   75.4170  221.1420 C   0  0  0  0  0  0  0  0  0  0  0  0
  140.2230   75.0870  221.2030 C   0  0  0  0  0  0  0  0  0  0  0  0
  140.6970   74.8460  222.3340 O   0  0  0  0  0  0  0  0  0  0  0  0
  140.9490   75.0690  219.9910 N   0  0  0  0  0  0  0  0  0  0  0  0
  140.8510   76.2020  219.0320 C   0  0  0  0  0  0  0  0  0  0  0  0
  142.3230   76.4100  218.6250 C   0  0  0  0  0  0  0  0  0  0  0  0
  143.2670   75.9840  219.7430 C   0  0  0  0  0  0  0  0  0  0  0  0
  143.2330   74.4770  219.9840 C   0  0  0  0  0  0  0  0  0  0  0  0
  141.8470   74.0210  219.5670 C   0  0  1  0  0  0  0  0  0  0  0  0
  141.4900   72.6610  219.9390 C   0  0  0  0  0  0  0  0  0  0  0  0
  142.2890   71.7190  220.1640 O   0  0  0  0  0  0  0  0  0  0  0  0
  140.1010   72.3500  220.0620 N   0  0  0  0  0  0  0  0  0  0  0  0
  139.5840   71.0580  220.4300 C   0  0  0  0  0  0  0  0  0  0  0  0
  139.7450   70.8850  221.8910 C   0  0  0  0  0  0  0  0  0  0  0  0
  139.3080   69.6590  222.4090 C   0  0  0  0  0  0  0  0  0  0  0  0
  139.4090   69.3720  223.7540 C   0  0  0  0  0  0  0  0  0  0  0  0
  139.9490   70.3060  224.6120 C   0  0  0  0  0  0  0  0  0  0  0  0
  140.0290   69.9530  226.0250 C   0  0  0  0  0  0  0  0  0  0  0  0
  140.3920   70.9720  226.8950 C   0  0  0  0  0  0  0  0  0  0  0  0
  140.4960   70.7320  228.2690 C   0  0  0  0  0  0  0  0  0  0  0  0
  140.2360   69.4910  228.7200 N   0  0  0  0  0  0  0  0  0  0  0  0
  139.8850   68.5060  227.8690 C   0  0  0  0  0  0  0  0  0  0  0  0
  139.7670   68.6890  226.5080 C   0  0  0  0  0  0  0  0  0  0  0  0
  140.3810   71.5140  224.1050 C   0  0  0  0  0  0  0  0  0  0  0  0
  140.2840   71.8150  222.7410 C   0  0  0  0  0  0  0  0  0  0  0  0
  136.5260   72.9130  222.9370 C   0  0  0  0  0  0  0  0  0  0  0  0
  136.5560   71.5360  222.9760 C   0  0  0  0  0  0  0  0  0  0  0  0
  135.8450   70.7820  223.8840 C   0  0  0  0  0  0  0  0  0  0  0  0
  135.0670   71.4370  224.7960 C   0  0  0  0  0  0  0  0  0  0  0  0
  134.3300   70.7280  225.7320 C   0  0  0  0  0  0  0  0  0  0  0  0
  133.5440   71.3850  226.6530 C   0  0  0  0  0  0  0  0  0  0  0  0
  133.5010   72.7610  226.6290 C   0  0  0  0  0  0  0  0  0  0  0  0
  134.2410   73.4610  225.6880 C   0  0  0  0  0  0  0  0  0  0  0  0
  135.0400   72.8360  224.7530 C   0  0  0  0  0  0  0  0  0  0  0  0
  135.7530   73.5310  223.8440 N   0  0  0  0  0  0  0  0  0  0  0  0
  137.9440   75.2110  223.1780 H   0  0  0  0  0  0  0  0  0  0  0  0
  138.3726   75.0557  220.1841 H   0  0  0  0  0  0  0  0  0  0  0  0
  138.6804   76.5086  221.2396 H   0  0  0  0  0  0  0  0  0  0  0  0
  140.2303   75.9371  218.1633 H   0  0  0  0  0  0  0  0  0  0  0  0
  140.3781   77.1003  219.4556 H   0  0  0  0  0  0  0  0  0  0  0  0
  142.5356   75.8107  217.7274 H   0  0  0  0  0  0  0  0  0  0  0  0
  142.4816   77.4795  218.4224 H   0  0  0  0  0  0  0  0  0  0  0  0
  144.2921   76.2762  219.4715 H   0  0  0  0  0  0  0  0  0  0  0  0
  142.9405   76.4812  220.6683 H   0  0  0  0  0  0  0  0  0  0  0  0
  144.0001   73.9748  219.3763 H   0  0  0  0  0  0  0  0  0  0  0  0
  143.4398   74.2312  221.0360 H   0  0  0  0  0  0  0  0  0  0  0  0
  141.7862   73.9001  218.4754 H   0  0  0  0  0  0  0  0  0  0  0  0
  139.3820   73.1090  219.8760 H   0  0  0  0  0  0  0  0  0  0  0  0
  138.5184   70.9957  220.1644 H   0  0  0  0  0  0  0  0  0  0  0  0
  140.1308   70.2676  219.8949 H   0  0  0  0  0  0  0  0  0  0  0  0
  138.8756   68.9101  221.7291 H   0  0  0  0  0  0  0  0  0  0  0  0
  139.0605   68.4028  224.1402 H   0  0  0  0  0  0  0  0  0  0  0  0
  140.5998   71.9775  226.5002 H   0  0  0  0  0  0  0  0  0  0  0  0
  140.7827   71.5363  228.9625 H   0  0  0  0  0  0  0  0  0  0  0  0
  139.6827   67.5065  228.2814 H   0  0  0  0  0  0  0  0  0  0  0  0
  139.4774   67.8653  225.8390 H   0  0  0  0  0  0  0  0  0  0  0  0
  140.8124   72.2594  224.7893 H   0  0  0  0  0  0  0  0  0  0  0  0
  140.6354   72.7841  222.3572 H   0  0  0  0  0  0  0  0  0  0  0  0
  137.1826   71.0092  222.2412 H   0  0  0  0  0  0  0  0  0  0  0  0
  135.9023   69.6835  223.8748 H   0  0  0  0  0  0  0  0  0  0  0  0
  134.3733   69.6289  225.7393 H   0  0  0  0  0  0  0  0  0  0  0  0
  132.9607   70.8200  227.3949 H   0  0  0  0  0  0  0  0  0  0  0  0
  132.8799   73.3048  227.3560 H   0  0  0  0  0  0  0  0  0  0  0  0
  134.1888   74.5598  225.6871 H   0  0  0  0  0  0  0  0  0  0  0  0
  1  2  2  0
  2  3  1  0
  3  4  1  0
  4  5  1  0
  5  6  2  0
  5  7  1  0
  7  8  1  0
  8  9  1  0
  9 10  1  0
 10 11  1  0
 11 12  1  0
 12 13  1  0
 13 14  2  0
 13 15  1  0
 15 16  1  0
 16 17  1  0
 17 18  2  0
 18 19  1  0
 19 20  2  0
 20 21  1  0
 21 22  2  0
 22 23  1  0
 23 24  2  0
 24 25  1  0
 25 26  2  0
 20 27  1  0
 27 28  2  0
  2 29  1  0
 29 30  2  0
 30 31  1  0
 31 32  2  0
 32 33  1  0
 33 34  2  0
 34 35  1  0
 35 36  2  0
 36 37  1  0
 37 38  2  0
 12  7  1  0
 28 17  1  0
 38 29  1  0
 26 21  1  0
 37 32  1  0
  3 39  1  0
  4 40  1  0
  4 41  1  0
  8 42  1  0
  8 43  1  0
  9 44  1  0
  9 45  1  0
 10 46  1  0
 10 47  1  0
 11 48  1  0
 11 49  1  0
 12 50  1  6
 15 51  1  0
 16 52  1  0
 16 53  1  0
 18 54  1  0
 19 55  1  0
 22 56  1  0
 23 57  1  0
 25 58  1  0
 26 59  1  0
 27 60  1  0
 28 61  1  0
 30 62  1  0
 31 63  1  0
 33 64  1  0
 34 65  1  0
 35 66  1  0
 36 67  1  0
M  END
>  <smiles>  (34) 
O=C(NCC(=O)N1CCCC[C@H]1C(=O)NCc1ccc(-c2ccncc2)cc1)c1ccc2ccccc2n1

>  <score_type>  (34) 
oracle

>  <origin>  (34) 
autodockgpu

>  <m_score__min__energy>  (34) 
-10.5

>  <m_primary>  (34) 
energy

>  <rmsd>  (34) 
6.7349974092848495

>  <m_score__min__rmsd>  (34) 
6.7349974092848495

>  <meeko>  (34) 
{"free_energy": -7.76, "intermolecular_energy": -10.15, "internal_energy": -4.32, "cluster_size": 3, "cluster_id": 12, "rank_in_cluster": 1}

>  <energy>  (34) 
-7.46

>  <cluster_rmsd>  (34) 
0.45

>  <cluster>  (34) 
11

$$$$

     RDKit          3D

 67 71  0  0  0  0  0  0  0  0999 V2000
  139.9510   74.1210  222.0660 O   0  0  0  0  0  0  0  0  0  0  0  0
  140.1780   75.1210  221.3390 C   0  0  0  0  0  0  0  0  0  0  0  0
  140.3420   74.8720  219.9380 N   0  0  0  0  0  0  0  0  0  0  0  0
  140.2290   73.5050  219.4830 C   0  0  0  0  0  0  0  0  0  0  0  0
  141.5260   72.9420  219.0230 C   0  0  0  0  0  0  0  0  0  0  0  0
  141.4690   71.9840  218.2220 O   0  0  0  0  0  0  0  0  0  0  0  0
  142.7130   73.5250  219.5200 N   0  0  0  0  0  0  0  0  0  0  0  0
  143.2020   73.2020  220.8870 C   0  0  0  0  0  0  0  0  0  0  0  0
  144.7130   73.0000  220.6510 C   0  0  0  0  0  0  0  0  0  0  0  0
  144.9860   72.5130  219.2340 C   0  0  0  0  0  0  0  0  0  0  0  0
  144.6590   73.5740  218.1870 C   0  0  0  0  0  0  0  0  0  0  0  0
  143.5670   74.4350  218.7940 C   0  0  1  0  0  0  0  0  0  0  0  0
  142.9140   75.3640  217.8850 C   0  0  0  0  0  0  0  0  0  0  0  0
  141.7060   75.3460  217.5460 O   0  0  0  0  0  0  0  0  0  0  0  0
  143.7120   76.4020  217.3120 N   0  0  0  0  0  0  0  0  0  0  0  0
  143.2180   77.4040  216.4040 C   0  0  0  0  0  0  0  0  0  0  0  0
  142.5720   78.4760  217.1930 C   0  0  0  0  0  0  0  0  0  0  0  0
  142.4630   78.2360  218.5700 C   0  0  0  0  0  0  0  0  0  0  0  0
  141.8860   79.1600  219.4150 C   0  0  0  0  0  0  0  0  0  0  0  0
  141.4040   80.3460  218.9030 C   0  0  0  0  0  0  0  0  0  0  0  0
  140.8010   81.2860  219.8410 C   0  0  0  0  0  0  0  0  0  0  0  0
  139.4820   81.0370  220.1970 C   0  0  0  0  0  0  0  0  0  0  0  0
  138.8150   81.8820  221.0900 C   0  0  0  0  0  0  0  0  0  0  0  0
  139.4850   82.9360  221.5920 N   0  0  0  0  0  0  0  0  0  0  0  0
  140.7660   83.1710  221.2400 C   0  0  0  0  0  0  0  0  0  0  0  0
  141.4690   82.3710  220.3650 C   0  0  0  0  0  0  0  0  0  0  0  0
  141.5110   80.5850  217.5490 C   0  0  0  0  0  0  0  0  0  0  0  0
  142.0950   79.6550  216.6810 C   0  0  0  0  0  0  0  0  0  0  0  0
  140.2680   76.4540  221.9050 C   0  0  0  0  0  0  0  0  0  0  0  0
  139.1140   77.0650  222.3440 C   0  0  0  0  0  0  0  0  0  0  0  0
  139.0820   78.3260  222.8980 C   0  0  0  0  0  0  0  0  0  0  0  0
  140.2610   79.0070  223.0180 C   0  0  0  0  0  0  0  0  0  0  0  0
  140.2870   80.2790  223.5690 C   0  0  0  0  0  0  0  0  0  0  0  0
  141.4730   80.9690  223.6910 C   0  0  0  0  0  0  0  0  0  0  0  0
  142.6360   80.3730  223.2570 C   0  0  0  0  0  0  0  0  0  0  0  0
  142.6000   79.1000  222.7080 C   0  0  0  0  0  0  0  0  0  0  0  0
  141.4300   78.3810  222.5710 C   0  0  0  0  0  0  0  0  0  0  0  0
  141.4110   77.1440  222.0350 N   0  0  0  0  0  0  0  0  0  0  0  0
  140.5330   75.6870  219.3170 H   0  0  0  0  0  0  0  0  0  0  0  0
  139.8526   72.8884  220.3126 H   0  0  0  0  0  0  0  0  0  0  0  0
  139.5414   73.4974  218.6244 H   0  0  0  0  0  0  0  0  0  0  0  0
  143.0143   74.0316  221.5845 H   0  0  0  0  0  0  0  0  0  0  0  0
  142.7049   72.3318  221.3405 H   0  0  0  0  0  0  0  0  0  0  0  0
  145.2323   73.9568  220.8084 H   0  0  0  0  0  0  0  0  0  0  0  0
  145.0788   72.2409  221.3580 H   0  0  0  0  0  0  0  0  0  0  0  0
  146.0502   72.2479  219.1493 H   0  0  0  0  0  0  0  0  0  0  0  0
  144.3405   71.6425  219.0458 H   0  0  0  0  0  0  0  0  0  0  0  0
  145.5488   74.1826  217.9682 H   0  0  0  0  0  0  0  0  0  0  0  0
  144.3348   73.1195  217.2392 H   0  0  0  0  0  0  0  0  0  0  0  0
  143.9923   75.1764  219.4864 H   0  0  0  0  0  0  0  0  0  0  0  0
  144.7430   76.4580  217.5610 H   0  0  0  0  0  0  0  0  0  0  0  0
  144.0533   77.8227  215.8235 H   0  0  0  0  0  0  0  0  0  0  0  0
  142.4912   76.9574  215.7095 H   0  0  0  0  0  0  0  0  0  0  0  0
  142.8455   77.2916  218.9845 H   0  0  0  0  0  0  0  0  0  0  0  0
  141.8105   78.9520  220.4925 H   0  0  0  0  0  0  0  0  0  0  0  0
  138.9574   80.1680  219.7732 H   0  0  0  0  0  0  0  0  0  0  0  0
  137.7699   81.6902  221.3747 H   0  0  0  0  0  0  0  0  0  0  0  0
  141.2749   84.0448  221.6730 H   0  0  0  0  0  0  0  0  0  0  0  0
  142.5136   82.5885  220.0978 H   0  0  0  0  0  0  0  0  0  0  0  0
  141.1273   81.5314  217.1403 H   0  0  0  0  0  0  0  0  0  0  0  0
  142.1701   79.8669  215.6042 H   0  0  0  0  0  0  0  0  0  0  0  0
  138.1659   76.5158  222.2468 H   0  0  0  0  0  0  0  0  0  0  0  0
  138.1344   78.7721  223.2342 H   0  0  0  0  0  0  0  0  0  0  0  0
  139.3503   80.7423  223.9125 H   0  0  0  0  0  0  0  0  0  0  0  0
  141.4907   81.9785  224.1275 H   0  0  0  0  0  0  0  0  0  0  0  0
  143.5937   80.9067  223.3458 H   0  0  0  0  0  0  0  0  0  0  0  0
  143.5420   78.6450  222.3680 H   0  0  0  0  0  0  0  0  0  0  0  0
  1  2  2  0
  2  3  1  0
  3  4  1  0
  4  5  1  0
  5  6  2  0
  5  7  1  0
  7  8  1  0
  8  9  1  0
  9 10  1  0
 10 11  1  0
 11 12  1  0
 12 13  1  0
 13 14  2  0
 13 15  1  0
 15 16  1  0
 16 17  1  0
 17 18  2  0
 18 19  1  0
 19 20  2  0
 20 21  1  0
 21 22  2  0
 22 23  1  0
 23 24  2  0
 24 25  1  0
 25 26  2  0
 20 27  1  0
 27 28  2  0
  2 29  1  0
 29 30  2  0
 30 31  1  0
 31 32  2  0
 32 33  1  0
 33 34  2  0
 34 35  1  0
 35 36  2  0
 36 37  1  0
 37 38  2  0
 12  7  1  0
 28 17  1  0
 38 29  1  0
 26 21  1  0
 37 32  1  0
  3 39  1  0
  4 40  1  0
  4 41  1  0
  8 42  1  0
  8 43  1  0
  9 44  1  0
  9 45  1  0
 10 46  1  0
 10 47  1  0
 11 48  1  0
 11 49  1  0
 12 50  1  1
 15 51  1  0
 16 52  1  0
 16 53  1  0
 18 54  1  0
 19 55  1  0
 22 56  1  0
 23 57  1  0
 25 58  1  0
 26 59  1  0
 27 60  1  0
 28 61  1  0
 30 62  1  0
 31 63  1  0
 33 64  1  0
 34 65  1  0
 35 66  1  0
 36 67  1  0
M  END
>  <smiles>  (35) 
O=C(NCC(=O)N1CCCC[C@H]1C(=O)NCc1ccc(-c2ccncc2)cc1)c1ccc2ccccc2n1

>  <score_type>  (35) 
oracle

>  <origin>  (35) 
autodockgpu

>  <m_score__min__energy>  (35) 
-10.5

>  <m_primary>  (35) 
energy

>  <rmsd>  (35) 
6.8108626630140225

>  <m_score__min__rmsd>  (35) 
6.8108626630140225

>  <meeko>  (35) 
{"free_energy": -7.46, "intermolecular_energy": -9.85, "internal_energy": -4.57, "cluster_size": 12, "cluster_id": 11, "rank_in_cluster": 3}

>  <energy>  (35) 
-7.43

>  <cluster_rmsd>  (35) 
1.48

>  <cluster>  (35) 
11

$$$$

     RDKit          3D

 67 71  0  0  0  0  0  0  0  0999 V2000
  141.2920   76.0390  217.8990 O   0  0  0  0  0  0  0  0  0  0  0  0
  142.2850   76.5430  218.4810 C   0  0  0  0  0  0  0  0  0  0  0  0
  143.5680   75.9970  218.1510 N   0  0  0  0  0  0  0  0  0  0  0  0
  143.6110   74.9270  217.1820 C   0  0  0  0  0  0  0  0  0  0  0  0
  143.0120   73.6640  217.6890 C   0  0  0  0  0  0  0  0  0  0  0  0
  142.1260   73.1390  216.9820 O   0  0  0  0  0  0  0  0  0  0  0  0
  143.4860   73.1570  218.9210 N   0  0  0  0  0  0  0  0  0  0  0  0
  144.7660   72.4040  218.9890 C   0  0  0  0  0  0  0  0  0  0  0  0
  145.4270   73.0010  220.2470 C   0  0  0  0  0  0  0  0  0  0  0  0
  144.9750   74.4390  220.4730 C   0  0  0  0  0  0  0  0  0  0  0  0
  143.4970   74.5270  220.8420 C   0  0  0  0  0  0  0  0  0  0  0  0
  142.8360   73.3210  220.2000 C   0  0  1  0  0  0  0  0  0  0  0  0
  141.3810   73.3220  220.2020 C   0  0  0  0  0  0  0  0  0  0  0  0
  140.6380   72.3130  220.2740 O   0  0  0  0  0  0  0  0  0  0  0  0
  140.7190   74.5850  220.1130 N   0  0  0  0  0  0  0  0  0  0  0  0
  139.2900   74.7580  220.1120 C   0  0  0  0  0  0  0  0  0  0  0  0
  138.9770   76.0900  220.6780 C   0  0  0  0  0  0  0  0  0  0  0  0
  138.8510   76.1420  222.0730 C   0  0  0  0  0  0  0  0  0  0  0  0
  138.5670   77.3240  222.7230 C   0  0  0  0  0  0  0  0  0  0  0  0
  138.4030   78.4820  221.9930 C   0  0  0  0  0  0  0  0  0  0  0  0
  138.1010   79.7030  222.7310 C   0  0  0  0  0  0  0  0  0  0  0  0
  137.5360   80.7390  222.0010 C   0  0  0  0  0  0  0  0  0  0  0  0
  137.2100   81.9520  222.6190 C   0  0  0  0  0  0  0  0  0  0  0  0
  137.4610   82.0830  223.9340 N   0  0  0  0  0  0  0  0  0  0  0  0
  138.0110   81.0720  224.6370 C   0  0  0  0  0  0  0  0  0  0  0  0
  138.3500   79.8590  224.0780 C   0  0  0  0  0  0  0  0  0  0  0  0
  138.5280   78.4340  220.6210 C   0  0  0  0  0  0  0  0  0  0  0  0
  138.8160   77.2390  219.9500 C   0  0  0  0  0  0  0  0  0  0  0  0
  142.1250   77.6210  219.4390 C   0  0  0  0  0  0  0  0  0  0  0  0
  142.1160   78.9190  218.9780 C   0  0  0  0  0  0  0  0  0  0  0  0
  141.9690   80.0180  219.7960 C   0  0  0  0  0  0  0  0  0  0  0  0
  141.8250   79.8080  221.1380 C   0  0  0  0  0  0  0  0  0  0  0  0
  141.6740   80.8770  222.0070 C   0  0  0  0  0  0  0  0  0  0  0  0
  141.5280   80.6690  223.3610 C   0  0  0  0  0  0  0  0  0  0  0  0
  141.5350   79.3770  223.8390 C   0  0  0  0  0  0  0  0  0  0  0  0
  141.6870   78.3140  222.9620 C   0  0  0  0  0  0  0  0  0  0  0  0
  141.8340   78.4860  221.6010 C   0  0  0  0  0  0  0  0  0  0  0  0
  141.9810   77.4430  220.7610 N   0  0  0  0  0  0  0  0  0  0  0  0
  144.4050   76.3990  218.6240 H   0  0  0  0  0  0  0  0  0  0  0  0
  143.0577   75.2429  216.2853 H   0  0  0  0  0  0  0  0  0  0  0  0
  144.6691   74.7249  216.9595 H   0  0  0  0  0  0  0  0  0  0  0  0
  144.5884   71.3247  219.1056 H   0  0  0  0  0  0  0  0  0  0  0  0
  145.3808   72.4945  218.0814 H   0  0  0  0  0  0  0  0  0  0  0  0
  145.1482   72.3949  221.1216 H   0  0  0  0  0  0  0  0  0  0  0  0
  146.5178   72.9953  220.1052 H   0  0  0  0  0  0  0  0  0  0  0  0
  145.5705   74.8734  221.2895 H   0  0  0  0  0  0  0  0  0  0  0  0
  145.1220   74.9911  219.5330 H   0  0  0  0  0  0  0  0  0  0  0  0
  143.3727   74.4952  221.9345 H   0  0  0  0  0  0  0  0  0  0  0  0
  143.0483   75.4681  220.4913 H   0  0  0  0  0  0  0  0  0  0  0  0
  142.9874   72.4187  220.8106 H   0  0  0  0  0  0  0  0  0  0  0  0
  141.3010   75.4710  220.0430 H   0  0  0  0  0  0  0  0  0  0  0  0
  138.9093   74.6939  219.0820 H   0  0  0  0  0  0  0  0  0  0  0  0
  138.8149   73.9710  220.7161 H   0  0  0  0  0  0  0  0  0  0  0  0
  138.9813   75.2214  222.6608 H   0  0  0  0  0  0  0  0  0  0  0  0
  138.4717   77.3432  223.8187 H   0  0  0  0  0  0  0  0  0  0  0  0
  137.3424   80.6058  220.9264 H   0  0  0  0  0  0  0  0  0  0  0  0
  136.7608   82.7757  222.0448 H   0  0  0  0  0  0  0  0  0  0  0  0
  138.1984   81.2233  225.7103 H   0  0  0  0  0  0  0  0  0  0  0  0
  138.7981   79.0533  224.6781 H   0  0  0  0  0  0  0  0  0  0  0  0
  138.3982   79.3580  220.0384 H   0  0  0  0  0  0  0  0  0  0  0  0
  138.9115   77.2233  218.8543 H   0  0  0  0  0  0  0  0  0  0  0  0
  142.2326   79.0875  217.8972 H   0  0  0  0  0  0  0  0  0  0  0  0
  141.9676   81.0362  219.3799 H   0  0  0  0  0  0  0  0  0  0  0  0
  141.6707   81.9033  221.6111 H   0  0  0  0  0  0  0  0  0  0  0  0
  141.4080   81.5195  224.0482 H   0  0  0  0  0  0  0  0  0  0  0  0
  141.4200   79.1887  224.9167 H   0  0  0  0  0  0  0  0  0  0  0  0
  141.6905   77.2916  223.3679 H   0  0  0  0  0  0  0  0  0  0  0  0
  1  2  2  0
  2  3  1  0
  3  4  1  0
  4  5  1  0
  5  6  2  0
  5  7  1  0
  7  8  1  0
  8  9  1  0
  9 10  1  0
 10 11  1  0
 11 12  1  0
 12 13  1  0
 13 14  2  0
 13 15  1  0
 15 16  1  0
 16 17  1  0
 17 18  2  0
 18 19  1  0
 19 20  2  0
 20 21  1  0
 21 22  2  0
 22 23  1  0
 23 24  2  0
 24 25  1  0
 25 26  2  0
 20 27  1  0
 27 28  2  0
  2 29  1  0
 29 30  2  0
 30 31  1  0
 31 32  2  0
 32 33  1  0
 33 34  2  0
 34 35  1  0
 35 36  2  0
 36 37  1  0
 37 38  2  0
 12  7  1  0
 28 17  1  0
 38 29  1  0
 26 21  1  0
 37 32  1  0
  3 39  1  0
  4 40  1  0
  4 41  1  0
  8 42  1  0
  8 43  1  0
  9 44  1  0
  9 45  1  0
 10 46  1  0
 10 47  1  0
 11 48  1  0
 11 49  1  0
 12 50  1  1
 15 51  1  0
 16 52  1  0
 16 53  1  0
 18 54  1  0
 19 55  1  0
 22 56  1  0
 23 57  1  0
 25 58  1  0
 26 59  1  0
 27 60  1  0
 28 61  1  0
 30 62  1  0
 31 63  1  0
 33 64  1  0
 34 65  1  0
 35 66  1  0
 36 67  1  0
M  END
>  <smiles>  (36) 
O=C(NCC(=O)N1CCCC[C@H]1C(=O)NCc1ccc(-c2ccncc2)cc1)c1ccc2ccccc2n1

>  <score_type>  (36) 
oracle

>  <origin>  (36) 
autodockgpu

>  <m_score__min__energy>  (36) 
-10.5

>  <m_primary>  (36) 
energy

>  <rmsd>  (36) 
7.699118563011639

>  <m_score__min__rmsd>  (36) 
7.699118563011639

>  <meeko>  (36) 
{"free_energy": -6.16, "intermolecular_energy": -8.55, "internal_energy": -5.85, "cluster_size": 12, "cluster_id": 11, "rank_in_cluster": 12}

>  <energy>  (36) 
-7.24

>  <cluster_rmsd>  (36) 
0.57

>  <cluster>  (36) 
11

$$$$

     RDKit          3D

 67 71  0  0  0  0  0  0  0  0999 V2000
  141.1740   77.4770  217.8410 O   0  0  0  0  0  0  0  0  0  0  0  0
  142.0500   77.5830  218.7370 C   0  0  0  0  0  0  0  0  0  0  0  0
  143.1080   76.6190  218.7160 N   0  0  0  0  0  0  0  0  0  0  0  0
  143.0830   75.6180  217.6740 C   0  0  0  0  0  0  0  0  0  0  0  0
  142.2740   74.4250  218.0390 C   0  0  0  0  0  0  0  0  0  0  0  0
  141.0940   74.4000  217.6300 O   0  0  0  0  0  0  0  0  0  0  0  0
  142.8950   73.4180  218.8120 N   0  0  0  0  0  0  0  0  0  0  0  0
  143.7750   72.4050  218.1730 C   0  0  0  0  0  0  0  0  0  0  0  0
  144.9630   72.3420  219.1530 C   0  0  0  0  0  0  0  0  0  0  0  0
  145.1480   73.6700  219.8760 C   0  0  0  0  0  0  0  0  0  0  0  0
  143.9920   73.9760  220.8250 C   0  0  0  0  0  0  0  0  0  0  0  0
  142.7800   73.2720  220.2440 C   0  0  1  0  0  0  0  0  0  0  0  0
  141.4990   73.6220  220.8400 C   0  0  0  0  0  0  0  0  0  0  0  0
  141.3210   74.1110  221.9810 O   0  0  0  0  0  0  0  0  0  0  0  0
  140.3230   73.3920  220.0630 N   0  0  0  0  0  0  0  0  0  0  0  0
  138.9840   73.6910  220.5010 C   0  0  0  0  0  0  0  0  0  0  0  0
  138.9020   75.1360  220.8110 C   0  0  0  0  0  0  0  0  0  0  0  0
  138.6460   75.4560  222.1510 C   0  0  0  0  0  0  0  0  0  0  0  0
  138.5510   76.7660  222.5690 C   0  0  0  0  0  0  0  0  0  0  0  0
  138.7130   77.7870  221.6570 C   0  0  0  0  0  0  0  0  0  0  0  0
  138.6000   79.1540  222.1530 C   0  0  0  0  0  0  0  0  0  0  0  0
  138.7800   79.3290  223.5180 C   0  0  0  0  0  0  0  0  0  0  0  0
  138.6900   80.6020  224.0910 C   0  0  0  0  0  0  0  0  0  0  0  0
  138.4270   81.6460  223.2840 N   0  0  0  0  0  0  0  0  0  0  0  0
  138.2530   81.4680  221.9580 C   0  0  0  0  0  0  0  0  0  0  0  0
  138.3310   80.2360  221.3440 C   0  0  0  0  0  0  0  0  0  0  0  0
  138.9670   77.4750  220.3380 C   0  0  0  0  0  0  0  0  0  0  0  0
  139.0650   76.1480  219.9020 C   0  0  0  0  0  0  0  0  0  0  0  0
  141.9770   78.6320  219.7360 C   0  0  0  0  0  0  0  0  0  0  0  0
  141.6700   79.9120  219.3300 C   0  0  0  0  0  0  0  0  0  0  0  0
  141.5730   80.9830  220.1900 C   0  0  0  0  0  0  0  0  0  0  0  0
  141.7940   80.7630  221.5210 C   0  0  0  0  0  0  0  0  0  0  0  0
  141.7090   81.8050  222.4310 C   0  0  0  0  0  0  0  0  0  0  0  0
  141.9320   81.5870  223.7730 C   0  0  0  0  0  0  0  0  0  0  0  0
  142.2400   80.3130  224.1970 C   0  0  0  0  0  0  0  0  0  0  0  0
  142.3230   79.2780  223.2780 C   0  0  0  0  0  0  0  0  0  0  0  0
  142.1050   79.4610  221.9280 C   0  0  0  0  0  0  0  0  0  0  0  0
  142.1890   78.4440  221.0480 N   0  0  0  0  0  0  0  0  0  0  0  0
  143.8440   76.6860  219.4510 H   0  0  0  0  0  0  0  0  0  0  0  0
  142.6559   76.0674  216.7654 H   0  0  0  0  0  0  0  0  0  0  0  0
  144.1177   75.2800  217.5151 H   0  0  0  0  0  0  0  0  0  0  0  0
  143.2704   71.4307  218.0947 H   0  0  0  0  0  0  0  0  0  0  0  0
  144.0651   72.6588  217.1428 H   0  0  0  0  0  0  0  0  0  0  0  0
  144.7752   71.5520  219.8950 H   0  0  0  0  0  0  0  0  0  0  0  0
  145.8771   72.1253  218.5807 H   0  0  0  0  0  0  0  0  0  0  0  0
  146.0816   73.6303  220.4563 H   0  0  0  0  0  0  0  0  0  0  0  0
  145.1816   74.4657  219.1172 H   0  0  0  0  0  0  0  0  0  0  0  0
  144.2116   73.5917  221.8320 H   0  0  0  0  0  0  0  0  0  0  0  0
  143.8232   75.0588  220.9201 H   0  0  0  0  0  0  0  0  0  0  0  0
  142.7822   72.2042  220.5082 H   0  0  0  0  0  0  0  0  0  0  0  0
  140.4170   72.9720  219.0920 H   0  0  0  0  0  0  0  0  0  0  0  0
  138.2685   73.4416  219.7036 H   0  0  0  0  0  0  0  0  0  0  0  0
  138.7396   73.0995  221.3957 H   0  0  0  0  0  0  0  0  0  0  0  0
  138.5183   74.6457  222.8839 H   0  0  0  0  0  0  0  0  0  0  0  0
  138.3469   76.9957  223.6252 H   0  0  0  0  0  0  0  0  0  0  0  0
  138.9954   78.4586  224.1552 H   0  0  0  0  0  0  0  0  0  0  0  0
  138.8305   80.7456  225.1725 H   0  0  0  0  0  0  0  0  0  0  0  0
  138.0383   82.3495  221.3359 H   0  0  0  0  0  0  0  0  0  0  0  0
  138.1853   80.1225  220.2596 H   0  0  0  0  0  0  0  0  0  0  0  0
  139.0959   78.2893  219.6098 H   0  0  0  0  0  0  0  0  0  0  0  0
  139.2698   75.9214  218.8453 H   0  0  0  0  0  0  0  0  0  0  0  0
  141.4924   80.0884  218.2589 H   0  0  0  0  0  0  0  0  0  0  0  0
  141.3246   81.9874  219.8165 H   0  0  0  0  0  0  0  0  0  0  0  0
  141.4608   82.8168  222.0780 H   0  0  0  0  0  0  0  0  0  0  0  0
  141.8653   82.4157  224.4933 H   0  0  0  0  0  0  0  0  0  0  0  0
  142.4200   80.1168  225.2643 H   0  0  0  0  0  0  0  0  0  0  0  0
  142.5729   78.2698  223.6401 H   0  0  0  0  0  0  0  0  0  0  0  0
  1  2  2  0
  2  3  1  0
  3  4  1  0
  4  5  1  0
  5  6  2  0
  5  7  1  0
  7  8  1  0
  8  9  1  0
  9 10  1  0
 10 11  1  0
 11 12  1  0
 12 13  1  0
 13 14  2  0
 13 15  1  0
 15 16  1  0
 16 17  1  0
 17 18  2  0
 18 19  1  0
 19 20  2  0
 20 21  1  0
 21 22  2  0
 22 23  1  0
 23 24  2  0
 24 25  1  0
 25 26  2  0
 20 27  1  0
 27 28  2  0
  2 29  1  0
 29 30  2  0
 30 31  1  0
 31 32  2  0
 32 33  1  0
 33 34  2  0
 34 35  1  0
 35 36  2  0
 36 37  1  0
 37 38  2  0
 12  7  1  0
 28 17  1  0
 38 29  1  0
 26 21  1  0
 37 32  1  0
  3 39  1  0
  4 40  1  0
  4 41  1  0
  8 42  1  0
  8 43  1  0
  9 44  1  0
  9 45  1  0
 10 46  1  0
 10 47  1  0
 11 48  1  0
 11 49  1  0
 12 50  1  6
 15 51  1  0
 16 52  1  0
 16 53  1  0
 18 54  1  0
 19 55  1  0
 22 56  1  0
 23 57  1  0
 25 58  1  0
 26 59  1  0
 27 60  1  0
 28 61  1  0
 30 62  1  0
 31 63  1  0
 33 64  1  0
 34 65  1  0
 35 66  1  0
 36 67  1  0
M  END
>  <smiles>  (37) 
O=C(NCC(=O)N1CCCC[C@H]1C(=O)NCc1ccc(-c2ccncc2)cc1)c1ccc2ccccc2n1

>  <score_type>  (37) 
oracle

>  <origin>  (37) 
autodockgpu

>  <m_score__min__energy>  (37) 
-10.5

>  <m_primary>  (37) 
energy

>  <rmsd>  (37) 
8.08136949015504

>  <m_score__min__rmsd>  (37) 
8.08136949015504

>  <meeko>  (37) 
{"free_energy": -6.53, "intermolecular_energy": -8.92, "internal_energy": -5.37, "cluster_size": 12, "cluster_id": 11, "rank_in_cluster": 8}

>  <energy>  (37) 
-6.91

>  <cluster_rmsd>  (37) 
1.14

>  <cluster>  (37) 
11

$$$$

     RDKit          3D

 67 71  0  0  0  0  0  0  0  0999 V2000
  140.6590   75.4400  218.9310 O   0  0  0  0  0  0  0  0  0  0  0  0
  140.8540   75.2210  220.1540 C   0  0  0  0  0  0  0  0  0  0  0  0
  141.7100   76.1400  220.8420 N   0  0  0  0  0  0  0  0  0  0  0  0
  142.2680   77.2340  220.0820 C   0  0  0  0  0  0  0  0  0  0  0  0
  141.7590   78.5600  220.5200 C   0  0  0  0  0  0  0  0  0  0  0  0
  141.4550   79.3710  219.6190 O   0  0  0  0  0  0  0  0  0  0  0  0
  141.6570   78.8030  221.9090 N   0  0  0  0  0  0  0  0  0  0  0  0
  142.7920   79.4030  222.6590 C   0  0  0  0  0  0  0  0  0  0  0  0
  142.0810   80.4420  223.5470 C   0  0  0  0  0  0  0  0  0  0  0  0
  140.8020   80.9430  222.8880 C   0  0  0  0  0  0  0  0  0  0  0  0
  139.7380   79.8530  222.7910 C   0  0  0  0  0  0  0  0  0  0  0  0
  140.4940   78.5390  222.7220 C   0  0  1  0  0  0  0  0  0  0  0  0
  139.7000   77.3710  222.3740 C   0  0  0  0  0  0  0  0  0  0  0  0
  139.9130   76.1910  222.7450 O   0  0  0  0  0  0  0  0  0  0  0  0
  138.5660   77.5680  221.5280 N   0  0  0  0  0  0  0  0  0  0  0  0
  137.6750   76.5210  221.0990 C   0  0  0  0  0  0  0  0  0  0  0  0
  136.7820   76.1730  222.2270 C   0  0  0  0  0  0  0  0  0  0  0  0
  136.6120   74.8030  222.4660 C   0  0  0  0  0  0  0  0  0  0  0  0
  135.8090   74.3480  223.4910 C   0  0  0  0  0  0  0  0  0  0  0  0
  135.1580   75.2550  224.3010 C   0  0  0  0  0  0  0  0  0  0  0  0
  134.3200   74.7190  225.3670 C   0  0  0  0  0  0  0  0  0  0  0  0
  134.3170   73.3390  225.5130 C   0  0  0  0  0  0  0  0  0  0  0  0
  133.5440   72.7290  226.5070 C   0  0  0  0  0  0  0  0  0  0  0  0
  132.8070   73.5150  227.3120 N   0  0  0  0  0  0  0  0  0  0  0  0
  132.8140   74.8560  227.1640 C   0  0  0  0  0  0  0  0  0  0  0  0
  133.5570   75.5070  226.2020 C   0  0  0  0  0  0  0  0  0  0  0  0
  135.3240   76.6030  224.0680 C   0  0  0  0  0  0  0  0  0  0  0  0
  136.1370   77.0760  223.0300 C   0  0  0  0  0  0  0  0  0  0  0  0
  140.2380   74.0880  220.8190 C   0  0  0  0  0  0  0  0  0  0  0  0
  139.1690   73.4660  220.2120 C   0  0  0  0  0  0  0  0  0  0  0  0
  138.5100   72.3830  220.7510 C   0  0  0  0  0  0  0  0  0  0  0  0
  138.9410   71.9010  221.9550 C   0  0  0  0  0  0  0  0  0  0  0  0
  138.3140   70.8130  222.5430 C   0  0  0  0  0  0  0  0  0  0  0  0
  138.7450   70.3240  223.7570 C   0  0  0  0  0  0  0  0  0  0  0  0
  139.8130   70.9340  224.3770 C   0  0  0  0  0  0  0  0  0  0  0  0
  140.4330   72.0210  223.7810 C   0  0  0  0  0  0  0  0  0  0  0  0
  140.0280   72.5360  222.5660 C   0  0  0  0  0  0  0  0  0  0  0  0
  140.6410   73.5940  221.9990 N   0  0  0  0  0  0  0  0  0  0  0  0
  141.8870   75.9750  221.8560 H   0  0  0  0  0  0  0  0  0  0  0  0
  143.3616   77.2214  220.1994 H   0  0  0  0  0  0  0  0  0  0  0  0
  141.9679   77.0947  219.0329 H   0  0  0  0  0  0  0  0  0  0  0  0
  143.3123   78.6480  223.2667 H   0  0  0  0  0  0  0  0  0  0  0  0
  143.5708   79.8334  222.0123 H   0  0  0  0  0  0  0  0  0  0  0  0
  141.8299   79.9780  224.5122 H   0  0  0  0  0  0  0  0  0  0  0  0
  142.7568   81.2974  223.6935 H   0  0  0  0  0  0  0  0  0  0  0  0
  140.4010   81.7776  223.4819 H   0  0  0  0  0  0  0  0  0  0  0  0
  141.0519   81.2628  221.8656 H   0  0  0  0  0  0  0  0  0  0  0  0
  139.0870   79.8738  223.6774 H   0  0  0  0  0  0  0  0  0  0  0  0
  139.0935   79.9949  221.9110 H   0  0  0  0  0  0  0  0  0  0  0  0
  140.8095   78.2136  223.7243 H   0  0  0  0  0  0  0  0  0  0  0  0
  138.3440   78.5470  221.1790 H   0  0  0  0  0  0  0  0  0  0  0  0
  137.0757   76.8704  220.2454 H   0  0  0  0  0  0  0  0  0  0  0  0
  138.2528   75.6377  220.7892 H   0  0  0  0  0  0  0  0  0  0  0  0
  137.1294   74.0756  221.8232 H   0  0  0  0  0  0  0  0  0  0  0  0
  135.6885   73.2680  223.6615 H   0  0  0  0  0  0  0  0  0  0  0  0
  134.9282   72.7188  224.8408 H   0  0  0  0  0  0  0  0  0  0  0  0
  133.5392   71.6356  226.6269 H   0  0  0  0  0  0  0  0  0  0  0  0
  132.1962   75.4601  227.8447 H   0  0  0  0  0  0  0  0  0  0  0  0
  133.5416   76.6027  226.1055 H   0  0  0  0  0  0  0  0  0  0  0  0
  134.8046   77.3263  224.7138 H   0  0  0  0  0  0  0  0  0  0  0  0
  136.2557   78.1566  222.8622 H   0  0  0  0  0  0  0  0  0  0  0  0
  138.8226   73.8557  219.2434 H   0  0  0  0  0  0  0  0  0  0  0  0
  137.6610   71.9194  220.2272 H   0  0  0  0  0  0  0  0  0  0  0  0
  137.4634   70.3351  222.0349 H   0  0  0  0  0  0  0  0  0  0  0  0
  138.2451   69.4619  224.2227 H   0  0  0  0  0  0  0  0  0  0  0  0
  140.1741   70.5583  225.3457 H   0  0  0  0  0  0  0  0  0  0  0  0
  141.2823   72.4924  224.2972 H   0  0  0  0  0  0  0  0  0  0  0  0
  1  2  2  0
  2  3  1  0
  3  4  1  0
  4  5  1  0
  5  6  2  0
  5  7  1  0
  7  8  1  0
  8  9  1  0
  9 10  1  0
 10 11  1  0
 11 12  1  0
 12 13  1  0
 13 14  2  0
 13 15  1  0
 15 16  1  0
 16 17  1  0
 17 18  2  0
 18 19  1  0
 19 20  2  0
 20 21  1  0
 21 22  2  0
 22 23  1  0
 23 24  2  0
 24 25  1  0
 25 26  2  0
 20 27  1  0
 27 28  2  0
  2 29  1  0
 29 30  2  0
 30 31  1  0
 31 32  2  0
 32 33  1  0
 33 34  2  0
 34 35  1  0
 35 36  2  0
 36 37  1  0
 37 38  2  0
 12  7  1  0
 28 17  1  0
 38 29  1  0
 26 21  1  0
 37 32  1  0
  3 39  1  0
  4 40  1  0
  4 41  1  0
  8 42  1  0
  8 43  1  0
  9 44  1  0
  9 45  1  0
 10 46  1  0
 10 47  1  0
 11 48  1  0
 11 49  1  0
 12 50  1  1
 15 51  1  0
 16 52  1  0
 16 53  1  0
 18 54  1  0
 19 55  1  0
 22 56  1  0
 23 57  1  0
 25 58  1  0
 26 59  1  0
 27 60  1  0
 28 61  1  0
 30 62  1  0
 31 63  1  0
 33 64  1  0
 34 65  1  0
 35 66  1  0
 36 67  1  0
M  END
>  <smiles>  (38) 
O=C(NCC(=O)N1CCCC[C@H]1C(=O)NCc1ccc(-c2ccncc2)cc1)c1ccc2ccccc2n1

>  <score_type>  (38) 
oracle

>  <origin>  (38) 
autodockgpu

>  <m_score__min__energy>  (38) 
-10.5

>  <m_primary>  (38) 
energy

>  <rmsd>  (38) 
5.855285554834658

>  <m_score__min__rmsd>  (38) 
5.855285554834658

>  <meeko>  (38) 
{"free_energy": -8.29, "intermolecular_energy": -10.68, "internal_energy": -4.01, "cluster_size": 1, "cluster_id": 8, "rank_in_cluster": 1}

>  <energy>  (38) 
-6.62

>  <cluster_rmsd>  (38) 
1.11

>  <cluster>  (38) 
11

$$$$

     RDKit          3D

 67 71  0  0  0  0  0  0  0  0999 V2000
  136.9670   69.5050  222.6780 O   0  0  0  0  0  0  0  0  0  0  0  0
  137.6800   70.3070  223.3340 C   0  0  0  0  0  0  0  0  0  0  0  0
  137.6480   71.6780  222.9220 N   0  0  0  0  0  0  0  0  0  0  0  0
  136.8040   72.0220  221.8010 C   0  0  0  0  0  0  0  0  0  0  0  0
  136.6550   73.4900  221.6200 C   0  0  0  0  0  0  0  0  0  0  0  0
  137.5030   74.0560  220.8960 O   0  0  0  0  0  0  0  0  0  0  0  0
  135.5760   74.1300  222.2720 N   0  0  0  0  0  0  0  0  0  0  0  0
  134.1990   73.5750  222.1820 C   0  0  0  0  0  0  0  0  0  0  0  0
  133.7060   73.6970  223.6370 C   0  0  0  0  0  0  0  0  0  0  0  0
  134.8680   73.6190  224.6190 C   0  0  0  0  0  0  0  0  0  0  0  0
  135.7930   74.8290  224.5150 C   0  0  0  0  0  0  0  0  0  0  0  0
  135.6750   75.3200  223.0840 C   0  0  1  0  0  0  0  0  0  0  0  0
  136.6540   76.3150  222.6740 C   0  0  0  0  0  0  0  0  0  0  0  0
  136.4220   77.5180  222.4060 O   0  0  0  0  0  0  0  0  0  0  0  0
  138.0160   75.8970  222.5610 N   0  0  0  0  0  0  0  0  0  0  0  0
  139.1040   76.7580  222.1770 C   0  0  0  0  0  0  0  0  0  0  0  0
  140.2150   75.9180  221.6770 C   0  0  0  0  0  0  0  0  0  0  0  0
  141.2200   76.5950  220.9730 C   0  0  0  0  0  0  0  0  0  0  0  0
  142.3110   75.9270  220.4610 C   0  0  0  0  0  0  0  0  0  0  0  0
  142.4240   74.5650  220.6420 C   0  0  0  0  0  0  0  0  0  0  0  0
  143.5970   73.9080  220.0770 C   0  0  0  0  0  0  0  0  0  0  0  0
  144.7670   73.9950  220.8180 C   0  0  0  0  0  0  0  0  0  0  0  0
  145.9470   73.3980  220.3600 C   0  0  0  0  0  0  0  0  0  0  0  0
  145.9140   72.7410  219.1860 N   0  0  0  0  0  0  0  0  0  0  0  0
  144.7730   72.6620  218.4710 C   0  0  0  0  0  0  0  0  0  0  0  0
  143.5850   73.2310  218.8760 C   0  0  0  0  0  0  0  0  0  0  0  0
  141.4370   73.8960  221.3350 C   0  0  0  0  0  0  0  0  0  0  0  0
  140.3240   74.5640  221.8600 C   0  0  0  0  0  0  0  0  0  0  0  0
  138.4900   69.8510  224.4480 C   0  0  0  0  0  0  0  0  0  0  0  0
  138.6850   68.4970  224.6130 C   0  0  0  0  0  0  0  0  0  0  0  0
  139.4350   67.9530  225.6320 C   0  0  0  0  0  0  0  0  0  0  0  0
  140.0170   68.8040  226.5290 C   0  0  0  0  0  0  0  0  0  0  0  0
  140.7820   68.3110  227.5740 C   0  0  0  0  0  0  0  0  0  0  0  0
  141.3710   69.1660  228.4800 C   0  0  0  0  0  0  0  0  0  0  0  0
  141.1860   70.5220  228.3300 C   0  0  0  0  0  0  0  0  0  0  0  0
  140.4180   71.0060  227.2810 C   0  0  0  0  0  0  0  0  0  0  0  0
  139.8160   70.1780  226.3560 C   0  0  0  0  0  0  0  0  0  0  0  0
  139.0730   70.6640  225.3420 N   0  0  0  0  0  0  0  0  0  0  0  0
  138.2340   72.3600  223.4510 H   0  0  0  0  0  0  0  0  0  0  0  0
  137.2446   71.5982  220.8865 H   0  0  0  0  0  0  0  0  0  0  0  0
  135.8038   71.6102  222.0014 H   0  0  0  0  0  0  0  0  0  0  0  0
  133.5738   74.1672  221.4976 H   0  0  0  0  0  0  0  0  0  0  0  0
  134.1602   72.5495  221.7861 H   0  0  0  0  0  0  0  0  0  0  0  0
  133.1937   74.6622  223.7628 H   0  0  0  0  0  0  0  0  0  0  0  0
  133.0180   72.8639  223.8434 H   0  0  0  0  0  0  0  0  0  0  0  0
  134.4651   73.5679  225.6413 H   0  0  0  0  0  0  0  0  0  0  0  0
  135.4564   72.7221  224.3754 H   0  0  0  0  0  0  0  0  0  0  0  0
  135.4759   75.6146  225.2166 H   0  0  0  0  0  0  0  0  0  0  0  0
  136.8310   74.5672  224.7682 H   0  0  0  0  0  0  0  0  0  0  0  0
  134.7718   75.9340  222.9531 H   0  0  0  0  0  0  0  0  0  0  0  0
  138.2660   74.8860  222.7700 H   0  0  0  0  0  0  0  0  0  0  0  0
  138.7719   77.4441  221.3839 H   0  0  0  0  0  0  0  0  0  0  0  0
  139.4391   77.3496  223.0417 H   0  0  0  0  0  0  0  0  0  0  0  0
  141.1362   77.6819  220.8262 H   0  0  0  0  0  0  0  0  0  0  0  0
  143.0880   76.4778  219.9106 H   0  0  0  0  0  0  0  0  0  0  0  0
  144.7670   74.5384  221.7744 H   0  0  0  0  0  0  0  0  0  0  0  0
  146.8768   73.4640  220.9441 H   0  0  0  0  0  0  0  0  0  0  0  0
  144.7917   72.1158  217.5164 H   0  0  0  0  0  0  0  0  0  0  0  0
  142.6707   73.1490  218.2699 H   0  0  0  0  0  0  0  0  0  0  0  0
  141.5265   72.8092  221.4791 H   0  0  0  0  0  0  0  0  0  0  0  0
  139.5491   74.0107  222.4108 H   0  0  0  0  0  0  0  0  0  0  0  0
  138.2157   67.8127  223.8909 H   0  0  0  0  0  0  0  0  0  0  0  0
  139.5620   66.8640  225.7213 H   0  0  0  0  0  0  0  0  0  0  0  0
  140.9206   67.2251  227.6815 H   0  0  0  0  0  0  0  0  0  0  0  0
  141.9782   68.7721  229.3083 H   0  0  0  0  0  0  0  0  0  0  0  0
  141.6474   71.2219  229.0422 H   0  0  0  0  0  0  0  0  0  0  0  0
  140.2836   72.0933  227.1828 H   0  0  0  0  0  0  0  0  0  0  0  0
  1  2  2  0
  2  3  1  0
  3  4  1  0
  4  5  1  0
  5  6  2  0
  5  7  1  0
  7  8  1  0
  8  9  1  0
  9 10  1  0
 10 11  1  0
 11 12  1  0
 12 13  1  0
 13 14  2  0
 13 15  1  0
 15 16  1  0
 16 17  1  0
 17 18  2  0
 18 19  1  0
 19 20  2  0
 20 21  1  0
 21 22  2  0
 22 23  1  0
 23 24  2  0
 24 25  1  0
 25 26  2  0
 20 27  1  0
 27 28  2  0
  2 29  1  0
 29 30  2  0
 30 31  1  0
 31 32  2  0
 32 33  1  0
 33 34  2  0
 34 35  1  0
 35 36  2  0
 36 37  1  0
 37 38  2  0
 12  7  1  0
 28 17  1  0
 38 29  1  0
 26 21  1  0
 37 32  1  0
  3 39  1  0
  4 40  1  0
  4 41  1  0
  8 42  1  0
  8 43  1  0
  9 44  1  0
  9 45  1  0
 10 46  1  0
 10 47  1  0
 11 48  1  0
 11 49  1  0
 12 50  1  1
 15 51  1  0
 16 52  1  0
 16 53  1  0
 18 54  1  0
 19 55  1  0
 22 56  1  0
 23 57  1  0
 25 58  1  0
 26 59  1  0
 27 60  1  0
 28 61  1  0
 30 62  1  0
 31 63  1  0
 33 64  1  0
 34 65  1  0
 35 66  1  0
 36 67  1  0
M  END
>  <smiles>  (39) 
O=C(NCC(=O)N1CCCC[C@H]1C(=O)NCc1ccc(-c2ccncc2)cc1)c1ccc2ccccc2n1

>  <score_type>  (39) 
oracle

>  <origin>  (39) 
autodockgpu

>  <m_score__min__energy>  (39) 
-10.5

>  <m_primary>  (39) 
energy

>  <rmsd>  (39) 
5.255637589821664

>  <m_score__min__rmsd>  (39) 
5.255637589821664

>  <meeko>  (39) 
{"free_energy": -9.31, "intermolecular_energy": -11.7, "internal_energy": -2.84, "cluster_size": 2, "cluster_id": 2, "rank_in_cluster": 1}

>  <energy>  (39) 
-6.53

>  <cluster_rmsd>  (39) 
1.59

>  <cluster>  (39) 
11

$$$$

     RDKit          3D

 67 71  0  0  0  0  0  0  0  0999 V2000
  137.5300   73.6110  220.5300 O   0  0  0  0  0  0  0  0  0  0  0  0
  137.5420   73.9160  221.7500 C   0  0  0  0  0  0  0  0  0  0  0  0
  138.3770   75.0160  222.1280 N   0  0  0  0  0  0  0  0  0  0  0  0
  139.1240   75.6790  221.0840 C   0  0  0  0  0  0  0  0  0  0  0  0
  140.5850   75.4180  221.1650 C   0  0  0  0  0  0  0  0  0  0  0  0
  141.0730   75.3020  222.3100 O   0  0  0  0  0  0  0  0  0  0  0  0
  141.3070   75.3210  219.9540 N   0  0  0  0  0  0  0  0  0  0  0  0
  141.3170   76.4480  218.9840 C   0  0  0  0  0  0  0  0  0  0  0  0
  142.8020   76.5130  218.5770 C   0  0  0  0  0  0  0  0  0  0  0  0
  143.7010   76.0120  219.7010 C   0  0  0  0  0  0  0  0  0  0  0  0
  143.5250   74.5170  219.9560 C   0  0  0  0  0  0  0  0  0  0  0  0
  142.1030   74.1890  219.5410 C   0  0  1  0  0  0  0  0  0  0  0  0
  141.6200   72.8710  219.9250 C   0  0  0  0  0  0  0  0  0  0  0  0
  142.3280   71.8770  220.2160 O   0  0  0  0  0  0  0  0  0  0  0  0
  140.2060   72.6740  219.9810 N   0  0  0  0  0  0  0  0  0  0  0  0
  139.5680   71.4370  220.3500 C   0  0  0  0  0  0  0  0  0  0  0  0
  139.7530   71.2290  221.8040 C   0  0  0  0  0  0  0  0  0  0  0  0
  139.3970   69.9620  222.2860 C   0  0  0  0  0  0  0  0  0  0  0  0
  139.5270   69.6400  223.6200 C   0  0  0  0  0  0  0  0  0  0  0  0
  140.0190   70.5790  224.5040 C   0  0  0  0  0  0  0  0  0  0  0  0
  140.1330   70.1860  225.9030 C   0  0  0  0  0  0  0  0  0  0  0  0
  140.5620   71.1690  226.7840 C   0  0  0  0  0  0  0  0  0  0  0  0
  140.7040   70.8900  228.1480 C   0  0  0  0  0  0  0  0  0  0  0  0
  140.4140   69.6480  228.5780 N   0  0  0  0  0  0  0  0  0  0  0  0
  139.9980   68.6990  227.7150 C   0  0  0  0  0  0  0  0  0  0  0  0
  139.8410   68.9200  226.3640 C   0  0  0  0  0  0  0  0  0  0  0  0
  140.3710   71.8250  224.0320 C   0  0  0  0  0  0  0  0  0  0  0  0
  140.2430   72.1630  222.6790 C   0  0  0  0  0  0  0  0  0  0  0  0
  136.7470   73.1800  222.7150 C   0  0  0  0  0  0  0  0  0  0  0  0
  135.7450   73.8420  223.3900 C   0  0  0  0  0  0  0  0  0  0  0  0
  134.9290   73.2430  224.3240 C   0  0  0  0  0  0  0  0  0  0  0  0
  135.1250   71.9190  224.5960 C   0  0  0  0  0  0  0  0  0  0  0  0
  134.3340   71.2660  225.5280 C   0  0  0  0  0  0  0  0  0  0  0  0
  134.5280   69.9300  225.8050 C   0  0  0  0  0  0  0  0  0  0  0  0
  135.5250   69.2520  225.1400 C   0  0  0  0  0  0  0  0  0  0  0  0
  136.3120   69.9140  224.2100 C   0  0  0  0  0  0  0  0  0  0  0  0
  136.1440   71.2500  223.9070 C   0  0  0  0  0  0  0  0  0  0  0  0
  136.9180   71.8800  223.0010 N   0  0  0  0  0  0  0  0  0  0  0  0
  138.4040   75.2840  223.1340 H   0  0  0  0  0  0  0  0  0  0  0  0
  138.7572   75.3236  220.1098 H   0  0  0  0  0  0  0  0  0  0  0  0
  138.9742   76.7618  221.2068 H   0  0  0  0  0  0  0  0  0  0  0  0
  140.6747   76.2339  218.1170 H   0  0  0  0  0  0  0  0  0  0  0  0
  140.9307   77.3910  219.3982 H   0  0  0  0  0  0  0  0  0  0  0  0
  142.9581   75.8871  217.6860 H   0  0  0  0  0  0  0  0  0  0  0  0
  143.0604   77.5607  218.3634 H   0  0  0  0  0  0  0  0  0  0  0  0
  144.7493   76.2041  219.4287 H   0  0  0  0  0  0  0  0  0  0  0  0
  143.4223   76.5470  220.6208 H   0  0  0  0  0  0  0  0  0  0  0  0
  144.2421   73.9392  219.3544 H   0  0  0  0  0  0  0  0  0  0  0  0
  143.7067   74.2631  221.0107 H   0  0  0  0  0  0  0  0  0  0  0  0
  142.0312   74.0640  218.4505 H   0  0  0  0  0  0  0  0  0  0  0  0
  139.5610   73.4820  219.7370 H   0  0  0  0  0  0  0  0  0  0  0  0
  138.4944   71.4890  220.1162 H   0  0  0  0  0  0  0  0  0  0  0  0
  140.0131   70.6014  219.7899 H   0  0  0  0  0  0  0  0  0  0  0  0
  139.0060   69.2093  221.5856 H   0  0  0  0  0  0  0  0  0  0  0  0
  139.2402   68.6402  223.9781 H   0  0  0  0  0  0  0  0  0  0  0  0
  140.7924   72.1763  226.4067 H   0  0  0  0  0  0  0  0  0  0  0  0
  141.0437   71.6655  228.8503 H   0  0  0  0  0  0  0  0  0  0  0  0
  139.7725   67.6973  228.1097 H   0  0  0  0  0  0  0  0  0  0  0  0
  139.4990   68.1243  225.6858 H   0  0  0  0  0  0  0  0  0  0  0  0
  140.7627   72.5736  224.7364 H   0  0  0  0  0  0  0  0  0  0  0  0
  140.5315   73.1633  222.3239 H   0  0  0  0  0  0  0  0  0  0  0  0
  135.5879   74.9084  223.1708 H   0  0  0  0  0  0  0  0  0  0  0  0
  134.1415   73.8149  224.8365 H   0  0  0  0  0  0  0  0  0  0  0  0
  133.5421   71.8205  226.0528 H   0  0  0  0  0  0  0  0  0  0  0  0
  133.8975   69.4144  226.5443 H   0  0  0  0  0  0  0  0  0  0  0  0
  135.6971   68.1854  225.3465 H   0  0  0  0  0  0  0  0  0  0  0  0
  137.1028   69.3512  223.6924 H   0  0  0  0  0  0  0  0  0  0  0  0
  1  2  2  0
  2  3  1  0
  3  4  1  0
  4  5  1  0
  5  6  2  0
  5  7  1  0
  7  8  1  0
  8  9  1  0
  9 10  1  0
 10 11  1  0
 11 12  1  0
 12 13  1  0
 13 14  2  0
 13 15  1  0
 15 16  1  0
 16 17  1  0
 17 18  2  0
 18 19  1  0
 19 20  2  0
 20 21  1  0
 21 22  2  0
 22 23  1  0
 23 24  2  0
 24 25  1  0
 25 26  2  0
 20 27  1  0
 27 28  2  0
  2 29  1  0
 29 30  2  0
 30 31  1  0
 31 32  2  0
 32 33  1  0
 33 34  2  0
 34 35  1  0
 35 36  2  0
 36 37  1  0
 37 38  2  0
 12  7  1  0
 28 17  1  0
 38 29  1  0
 26 21  1  0
 37 32  1  0
  3 39  1  0
  4 40  1  0
  4 41  1  0
  8 42  1  0
  8 43  1  0
  9 44  1  0
  9 45  1  0
 10 46  1  0
 10 47  1  0
 11 48  1  0
 11 49  1  0
 12 50  1  6
 15 51  1  0
 16 52  1  0
 16 53  1  0
 18 54  1  0
 19 55  1  0
 22 56  1  0
 23 57  1  0
 25 58  1  0
 26 59  1  0
 27 60  1  0
 28 61  1  0
 30 62  1  0
 31 63  1  0
 33 64  1  0
 34 65  1  0
 35 66  1  0
 36 67  1  0
M  END
>  <smiles>  (40) 
O=C(NCC(=O)N1CCCC[C@H]1C(=O)NCc1ccc(-c2ccncc2)cc1)c1ccc2ccccc2n1

>  <score_type>  (40) 
oracle

>  <origin>  (40) 
autodockgpu

>  <m_score__min__energy>  (40) 
-10.5

>  <m_primary>  (40) 
energy

>  <rmsd>  (40) 
6.687276946269782

>  <m_score__min__rmsd>  (40) 
6.687276946269782

>  <meeko>  (40) 
{"free_energy": -7.54, "intermolecular_energy": -9.93, "internal_energy": -4.59, "cluster_size": 3, "cluster_id": 12, "rank_in_cluster": 3}

>  <energy>  (40) 
-6.51

>  <cluster_rmsd>  (40) 
1.63

>  <cluster>  (40) 
11

$$$$

     RDKit          3D

 67 71  0  0  0  0  0  0  0  0999 V2000
  138.8270   72.6040  221.8380 O   0  0  0  0  0  0  0  0  0  0  0  0
  139.5850   71.6450  222.1330 C   0  0  0  0  0  0  0  0  0  0  0  0
  140.3070   71.0420  221.0530 N   0  0  0  0  0  0  0  0  0  0  0  0
  140.1090   71.5840  219.7290 C   0  0  0  0  0  0  0  0  0  0  0  0
  140.6620   72.9560  219.5790 C   0  0  0  0  0  0  0  0  0  0  0  0
  140.1220   73.6890  218.7230 O   0  0  0  0  0  0  0  0  0  0  0  0
  141.7470   73.3250  220.4060 N   0  0  0  0  0  0  0  0  0  0  0  0
  142.7580   72.3190  220.8250 C   0  0  0  0  0  0  0  0  0  0  0  0
  144.0800   73.0880  220.6330 C   0  0  0  0  0  0  0  0  0  0  0  0
  143.9500   74.1340  219.5330 C   0  0  0  0  0  0  0  0  0  0  0  0
  143.0010   75.2640  219.9220 C   0  0  0  0  0  0  0  0  0  0  0  0
  142.0100   74.6570  220.8980 C   0  0  1  0  0  0  0  0  0  0  0  0
  140.8530   75.4790  221.2180 C   0  0  0  0  0  0  0  0  0  0  0  0
  140.5030   75.8560  222.3630 O   0  0  0  0  0  0  0  0  0  0  0  0
  140.0240   75.9070  220.1350 N   0  0  0  0  0  0  0  0  0  0  0  0
  138.8520   76.7300  220.2810 C   0  0  0  0  0  0  0  0  0  0  0  0
  137.9510   76.0940  221.2680 C   0  0  0  0  0  0  0  0  0  0  0  0
  137.7280   76.8220  222.4450 C   0  0  0  0  0  0  0  0  0  0  0  0
  136.9050   76.3410  223.4400 C   0  0  0  0  0  0  0  0  0  0  0  0
  136.2830   75.1210  223.2820 C   0  0  0  0  0  0  0  0  0  0  0  0
  135.4250   74.6590  224.3670 C   0  0  0  0  0  0  0  0  0  0  0  0
  134.9250   75.6380  225.2140 C   0  0  0  0  0  0  0  0  0  0  0  0
  134.0930   75.2960  226.2860 C   0  0  0  0  0  0  0  0  0  0  0  0
  133.7940   73.9970  226.4700 N   0  0  0  0  0  0  0  0  0  0  0  0
  134.2850   73.0510  225.6430 C   0  0  0  0  0  0  0  0  0  0  0  0
  135.1070   73.3340  224.5740 C   0  0  0  0  0  0  0  0  0  0  0  0
  136.4990   74.4030  222.1250 C   0  0  0  0  0  0  0  0  0  0  0  0
  137.3340   74.8810  221.1070 C   0  0  0  0  0  0  0  0  0  0  0  0
  139.7090   71.1830  223.5020 C   0  0  0  0  0  0  0  0  0  0  0  0
  139.1400   69.9770  223.8480 C   0  0  0  0  0  0  0  0  0  0  0  0
  139.1980   69.4410  225.1160 C   0  0  0  0  0  0  0  0  0  0  0  0
  139.8550   70.1460  226.0840 C   0  0  0  0  0  0  0  0  0  0  0  0
  139.9440   69.6540  227.3770 C   0  0  0  0  0  0  0  0  0  0  0  0
  140.6050   70.3620  228.3560 C   0  0  0  0  0  0  0  0  0  0  0  0
  141.1800   71.5700  228.0280 C   0  0  0  0  0  0  0  0  0  0  0  0
  141.0860   72.0540  226.7320 C   0  0  0  0  0  0  0  0  0  0  0  0
  140.4320   71.3710  225.7270 C   0  0  0  0  0  0  0  0  0  0  0  0
  140.3490   71.8540  224.4720 N   0  0  0  0  0  0  0  0  0  0  0  0
  140.9390   70.2440  221.2760 H   0  0  0  0  0  0  0  0  0  0  0  0
  140.6042   70.9241  219.0015 H   0  0  0  0  0  0  0  0  0  0  0  0
  139.0246   71.6433  219.5544 H   0  0  0  0  0  0  0  0  0  0  0  0
  142.6165   72.0247  221.8754 H   0  0  0  0  0  0  0  0  0  0  0  0
  142.7073   71.3784  220.2569 H   0  0  0  0  0  0  0  0  0  0  0  0
  144.3447   73.5889  221.5759 H   0  0  0  0  0  0  0  0  0  0  0  0
  144.8627   72.3714  220.3436 H   0  0  0  0  0  0  0  0  0  0  0  0
  144.9436   74.5599  219.3298 H   0  0  0  0  0  0  0  0  0  0  0  0
  143.5375   73.6380  218.6421 H   0  0  0  0  0  0  0  0  0  0  0  0
  143.5573   76.0830  220.4012 H   0  0  0  0  0  0  0  0  0  0  0  0
  142.4941   75.6868  219.0421 H   0  0  0  0  0  0  0  0  0  0  0  0
  142.4394   74.6006  221.9092 H   0  0  0  0  0  0  0  0  0  0  0  0
  140.2710   75.6110  219.1460 H   0  0  0  0  0  0  0  0  0  0  0  0
  139.1428   77.7302  220.6347 H   0  0  0  0  0  0  0  0  0  0  0  0
  138.3394   76.8306  219.3130 H   0  0  0  0  0  0  0  0  0  0  0  0
  138.2200   77.7970  222.5770 H   0  0  0  0  0  0  0  0  0  0  0  0
  136.7450   76.9280  224.3564 H   0  0  0  0  0  0  0  0  0  0  0  0
  135.1851   76.6927  225.0411 H   0  0  0  0  0  0  0  0  0  0  0  0
  133.6941   76.0683  226.9601 H   0  0  0  0  0  0  0  0  0  0  0  0
  134.0157   72.0013  225.8315 H   0  0  0  0  0  0  0  0  0  0  0  0
  135.4913   72.5400  223.9169 H   0  0  0  0  0  0  0  0  0  0  0  0
  136.0027   73.4296  221.9980 H   0  0  0  0  0  0  0  0  0  0  0  0
  137.4921   74.2915  220.1919 H   0  0  0  0  0  0  0  0  0  0  0  0
  138.6098   69.4103  223.0684 H   0  0  0  0  0  0  0  0  0  0  0  0
  138.7283   68.4724  225.3424 H   0  0  0  0  0  0  0  0  0  0  0  0
  139.4814   68.6870  227.6238 H   0  0  0  0  0  0  0  0  0  0  0  0
  140.6726   69.9699  229.3815 H   0  0  0  0  0  0  0  0  0  0  0  0
  141.7139   72.1509  228.7945 H   0  0  0  0  0  0  0  0  0  0  0  0
  141.5518   73.0220  226.4953 H   0  0  0  0  0  0  0  0  0  0  0  0
  1  2  2  0
  2  3  1  0
  3  4  1  0
  4  5  1  0
  5  6  2  0
  5  7  1  0
  7  8  1  0
  8  9  1  0
  9 10  1  0
 10 11  1  0
 11 12  1  0
 12 13  1  0
 13 14  2  0
 13 15  1  0
 15 16  1  0
 16 17  1  0
 17 18  2  0
 18 19  1  0
 19 20  2  0
 20 21  1  0
 21 22  2  0
 22 23  1  0
 23 24  2  0
 24 25  1  0
 25 26  2  0
 20 27  1  0
 27 28  2  0
  2 29  1  0
 29 30  2  0
 30 31  1  0
 31 32  2  0
 32 33  1  0
 33 34  2  0
 34 35  1  0
 35 36  2  0
 36 37  1  0
 37 38  2  0
 12  7  1  0
 28 17  1  0
 38 29  1  0
 26 21  1  0
 37 32  1  0
  3 39  1  0
  4 40  1  0
  4 41  1  0
  8 42  1  0
  8 43  1  0
  9 44  1  0
  9 45  1  0
 10 46  1  0
 10 47  1  0
 11 48  1  0
 11 49  1  0
 12 50  1  1
 15 51  1  0
 16 52  1  0
 16 53  1  0
 18 54  1  0
 19 55  1  0
 22 56  1  0
 23 57  1  0
 25 58  1  0
 26 59  1  0
 27 60  1  0
 28 61  1  0
 30 62  1  0
 31 63  1  0
 33 64  1  0
 34 65  1  0
 35 66  1  0
 36 67  1  0
M  END
>  <smiles>  (41) 
O=C(NCC(=O)N1CCCC[C@H]1C(=O)NCc1ccc(-c2ccncc2)cc1)c1ccc2ccccc2n1

>  <score_type>  (41) 
oracle

>  <origin>  (41) 
autodockgpu

>  <m_score__min__energy>  (41) 
-10.5

>  <m_primary>  (41) 
energy

>  <rmsd>  (41) 
4.142835595375342

>  <m_score__min__rmsd>  (41) 
4.142835595375342

>  <meeko>  (41) 
{"free_energy": -8.52, "intermolecular_energy": -10.9, "internal_energy": -3.48, "cluster_size": 9, "cluster_id": 3, "rank_in_cluster": 5}

>  <energy>  (41) 
-6.48

>  <cluster_rmsd>  (41) 
1.64

>  <cluster>  (41) 
11

$$$$

     RDKit          3D

 67 71  0  0  0  0  0  0  0  0999 V2000
  137.9750   76.2180  223.3600 O   0  0  0  0  0  0  0  0  0  0  0  0
  136.7360   76.2260  223.1420 C   0  0  0  0  0  0  0  0  0  0  0  0
  136.2800   77.0510  222.0640 N   0  0  0  0  0  0  0  0  0  0  0  0
  137.2720   77.7930  221.3220 C   0  0  0  0  0  0  0  0  0  0  0  0
  138.2100   76.9160  220.5740 C   0  0  0  0  0  0  0  0  0  0  0  0
  137.7010   75.9920  219.9030 O   0  0  0  0  0  0  0  0  0  0  0  0
  139.5930   77.1880  220.6750 N   0  0  0  0  0  0  0  0  0  0  0  0
  140.1480   78.4820  220.1960 C   0  0  0  0  0  0  0  0  0  0  0  0
  141.1170   78.8600  221.3340 C   0  0  0  0  0  0  0  0  0  0  0  0
  140.6540   78.2790  222.6640 C   0  0  0  0  0  0  0  0  0  0  0  0
  140.7420   76.7560  222.6890 C   0  0  0  0  0  0  0  0  0  0  0  0
  140.5810   76.3060  221.2490 C   0  0  1  0  0  0  0  0  0  0  0  0
  140.3800   74.8780  221.0510 C   0  0  0  0  0  0  0  0  0  0  0  0
  141.2290   74.0630  220.6150 O   0  0  0  0  0  0  0  0  0  0  0  0
  139.0990   74.3370  221.3790 N   0  0  0  0  0  0  0  0  0  0  0  0
  138.7430   72.9480  221.2500 C   0  0  0  0  0  0  0  0  0  0  0  0
  139.1720   72.2370  222.4750 C   0  0  0  0  0  0  0  0  0  0  0  0
  138.1820   71.4780  223.1140 C   0  0  0  0  0  0  0  0  0  0  0  0
  138.4560   70.7640  224.2610 C   0  0  0  0  0  0  0  0  0  0  0  0
  139.7270   70.7910  224.7960 C   0  0  0  0  0  0  0  0  0  0  0  0
  139.9600   70.0210  226.0110 C   0  0  0  0  0  0  0  0  0  0  0  0
  140.5250   70.7080  227.0760 C   0  0  0  0  0  0  0  0  0  0  0  0
  140.7880   70.0560  228.2860 C   0  0  0  0  0  0  0  0  0  0  0  0
  140.4790   68.7500  228.3860 N   0  0  0  0  0  0  0  0  0  0  0  0
  139.9300   68.0890  227.3460 C   0  0  0  0  0  0  0  0  0  0  0  0
  139.6510   68.6830  226.1340 C   0  0  0  0  0  0  0  0  0  0  0  0
  140.7020   71.5370  224.1680 C   0  0  0  0  0  0  0  0  0  0  0  0
  140.4360   72.2660  223.0030 C   0  0  0  0  0  0  0  0  0  0  0  0
  135.8290   75.4360  223.9520 C   0  0  0  0  0  0  0  0  0  0  0  0
  135.7520   74.0790  223.7270 C   0  0  0  0  0  0  0  0  0  0  0  0
  134.9270   73.2330  224.4360 C   0  0  0  0  0  0  0  0  0  0  0  0
  134.1420   73.7710  225.4160 C   0  0  0  0  0  0  0  0  0  0  0  0
  133.2930   72.9670  226.1610 C   0  0  0  0  0  0  0  0  0  0  0  0
  132.5000   73.5060  227.1500 C   0  0  0  0  0  0  0  0  0  0  0  0
  132.5640   74.8600  227.3880 C   0  0  0  0  0  0  0  0  0  0  0  0
  133.4160   75.6570  226.6380 C   0  0  0  0  0  0  0  0  0  0  0  0
  134.2250   75.1500  225.6410 C   0  0  0  0  0  0  0  0  0  0  0  0
  135.0470   75.9380  224.9210 N   0  0  0  0  0  0  0  0  0  0  0  0
  135.2560   77.0740  221.8690 H   0  0  0  0  0  0  0  0  0  0  0  0
  136.7563   78.4482  220.6045 H   0  0  0  0  0  0  0  0  0  0  0  0
  137.8655   78.3681  222.0480 H   0  0  0  0  0  0  0  0  0  0  0  0
  140.6815   78.3587  219.2420 H   0  0  0  0  0  0  0  0  0  0  0  0
  139.3813   79.2451  219.9962 H   0  0  0  0  0  0  0  0  0  0  0  0
  142.1174   78.4675  221.0993 H   0  0  0  0  0  0  0  0  0  0  0  0
  141.1426   79.9562  221.4215 H   0  0  0  0  0  0  0  0  0  0  0  0
  141.2874   78.6837  223.4671 H   0  0  0  0  0  0  0  0  0  0  0  0
  139.5998   78.5589  222.8063 H   0  0  0  0  0  0  0  0  0  0  0  0
  141.7177   76.4356  223.0831 H   0  0  0  0  0  0  0  0  0  0  0  0
  139.9694   76.3176  223.3377 H   0  0  0  0  0  0  0  0  0  0  0  0
  141.5289   76.4031  220.6994 H   0  0  0  0  0  0  0  0  0  0  0  0
  138.3420   74.9860  221.7460 H   0  0  0  0  0  0  0  0  0  0  0  0
  137.6538   72.8539  221.1287 H   0  0  0  0  0  0  0  0  0  0  0  0
  139.2375   72.5127  220.3691 H   0  0  0  0  0  0  0  0  0  0  0  0
  137.1665   71.4515  222.6920 H   0  0  0  0  0  0  0  0  0  0  0  0
  137.6643   70.1753  224.7475 H   0  0  0  0  0  0  0  0  0  0  0  0
  140.7685   71.7753  226.9681 H   0  0  0  0  0  0  0  0  0  0  0  0
  141.2355   70.5967  229.1330 H   0  0  0  0  0  0  0  0  0  0  0  0
  139.6931   67.0222  227.4716 H   0  0  0  0  0  0  0  0  0  0  0  0
  139.2031   68.1165  225.3043 H   0  0  0  0  0  0  0  0  0  0  0  0
  141.7159   71.5598  224.5939 H   0  0  0  0  0  0  0  0  0  0  0  0
  141.2299   72.8534  222.5186 H   0  0  0  0  0  0  0  0  0  0  0  0
  136.3843   73.6467  222.9375 H   0  0  0  0  0  0  0  0  0  0  0  0
  134.9013   72.1549  224.2189 H   0  0  0  0  0  0  0  0  0  0  0  0
  133.2522   71.8863  225.9600 H   0  0  0  0  0  0  0  0  0  0  0  0
  131.8274   72.8654  227.7392 H   0  0  0  0  0  0  0  0  0  0  0  0
  131.9392   75.3103  228.1734 H   0  0  0  0  0  0  0  0  0  0  0  0
  133.4484   76.7367  226.8460 H   0  0  0  0  0  0  0  0  0  0  0  0
  1  2  2  0
  2  3  1  0
  3  4  1  0
  4  5  1  0
  5  6  2  0
  5  7  1  0
  7  8  1  0
  8  9  1  0
  9 10  1  0
 10 11  1  0
 11 12  1  0
 12 13  1  0
 13 14  2  0
 13 15  1  0
 15 16  1  0
 16 17  1  0
 17 18  2  0
 18 19  1  0
 19 20  2  0
 20 21  1  0
 21 22  2  0
 22 23  1  0
 23 24  2  0
 24 25  1  0
 25 26  2  0
 20 27  1  0
 27 28  2  0
  2 29  1  0
 29 30  2  0
 30 31  1  0
 31 32  2  0
 32 33  1  0
 33 34  2  0
 34 35  1  0
 35 36  2  0
 36 37  1  0
 37 38  2  0
 12  7  1  0
 28 17  1  0
 38 29  1  0
 26 21  1  0
 37 32  1  0
  3 39  1  0
  4 40  1  0
  4 41  1  0
  8 42  1  0
  8 43  1  0
  9 44  1  0
  9 45  1  0
 10 46  1  0
 10 47  1  0
 11 48  1  0
 11 49  1  0
 12 50  1  6
 15 51  1  0
 16 52  1  0
 16 53  1  0
 18 54  1  0
 19 55  1  0
 22 56  1  0
 23 57  1  0
 25 58  1  0
 26 59  1  0
 27 60  1  0
 28 61  1  0
 30 62  1  0
 31 63  1  0
 33 64  1  0
 34 65  1  0
 35 66  1  0
 36 67  1  0
M  END
>  <smiles>  (42) 
O=C(NCC(=O)N1CCCC[C@H]1C(=O)NCc1ccc(-c2ccncc2)cc1)c1ccc2ccccc2n1

>  <score_type>  (42) 
oracle

>  <origin>  (42) 
autodockgpu

>  <m_score__min__energy>  (42) 
-10.5

>  <m_primary>  (42) 
energy

>  <rmsd>  (42) 
7.259470342124382

>  <m_score__min__rmsd>  (42) 
7.259470342124382

>  <meeko>  (42) 
{"free_energy": -8.15, "intermolecular_energy": -10.53, "internal_energy": -3.99, "cluster_size": 9, "cluster_id": 3, "rank_in_cluster": 7}

>  <energy>  (42) 
-6.18

>  <cluster_rmsd>  (42) 
1.5

>  <cluster>  (42) 
11

$$$$

     RDKit          3D

 67 71  0  0  0  0  0  0  0  0999 V2000
  137.3170   79.3000  221.2050 O   0  0  0  0  0  0  0  0  0  0  0  0
  137.6160   80.2320  221.9940 C   0  0  0  0  0  0  0  0  0  0  0  0
  138.7030   81.0790  221.6040 N   0  0  0  0  0  0  0  0  0  0  0  0
  139.3550   80.7960  220.3470 C   0  0  0  0  0  0  0  0  0  0  0  0
  140.1440   79.5370  220.3770 C   0  0  0  0  0  0  0  0  0  0  0  0
  139.9570   78.7340  219.4370 O   0  0  0  0  0  0  0  0  0  0  0  0
  141.0390   79.3430  221.4540 N   0  0  0  0  0  0  0  0  0  0  0  0
  142.2230   80.2260  221.6250 C   0  0  0  0  0  0  0  0  0  0  0  0
  142.2010   80.5070  223.1410 C   0  0  0  0  0  0  0  0  0  0  0  0
  140.7820   80.4400  223.6900 C   0  0  0  0  0  0  0  0  0  0  0  0
  140.2110   79.0250  223.6400 C   0  0  0  0  0  0  0  0  0  0  0  0
  140.9070   78.3370  222.4810 C   0  0  1  0  0  0  0  0  0  0  0  0
  140.3480   77.0560  222.0780 C   0  0  0  0  0  0  0  0  0  0  0  0
  140.8290   75.9240  222.3270 O   0  0  0  0  0  0  0  0  0  0  0  0
  139.1340   77.0700  221.3240 N   0  0  0  0  0  0  0  0  0  0  0  0
  138.4490   75.8930  220.8570 C   0  0  0  0  0  0  0  0  0  0  0  0
  137.4930   75.4610  221.9010 C   0  0  0  0  0  0  0  0  0  0  0  0
  137.0580   76.4630  222.7790 C   0  0  0  0  0  0  0  0  0  0  0  0
  136.1630   76.1900  223.7910 C   0  0  0  0  0  0  0  0  0  0  0  0
  135.6810   74.9080  223.9490 C   0  0  0  0  0  0  0  0  0  0  0  0
  134.7400   74.6750  225.0380 C   0  0  0  0  0  0  0  0  0  0  0  0
  134.3680   75.7880  225.7780 C   0  0  0  0  0  0  0  0  0  0  0  0
  133.4700   75.6670  226.8440 C   0  0  0  0  0  0  0  0  0  0  0  0
  132.9800   74.4470  227.1290 N   0  0  0  0  0  0  0  0  0  0  0  0
  133.3460   73.3700  226.4050 C   0  0  0  0  0  0  0  0  0  0  0  0
  134.2270   73.4330  225.3460 C   0  0  0  0  0  0  0  0  0  0  0  0
  136.1070   73.9200  223.0860 C   0  0  0  0  0  0  0  0  0  0  0  0
  137.0160   74.1860  222.0540 C   0  0  0  0  0  0  0  0  0  0  0  0
  136.8880   80.4260  223.2340 C   0  0  0  0  0  0  0  0  0  0  0  0
  135.6850   79.7770  223.4030 C   0  0  0  0  0  0  0  0  0  0  0  0
  134.9110   79.8870  224.5380 C   0  0  0  0  0  0  0  0  0  0  0  0
  135.3640   80.6840  225.5510 C   0  0  0  0  0  0  0  0  0  0  0  0
  134.6260   80.8310  226.7160 C   0  0  0  0  0  0  0  0  0  0  0  0
  135.0790   81.6340  227.7390 C   0  0  0  0  0  0  0  0  0  0  0  0
  136.2800   82.2910  227.5870 C   0  0  0  0  0  0  0  0  0  0  0  0
  137.0100   82.1380  226.4180 C   0  0  0  0  0  0  0  0  0  0  0  0
  136.5870   81.3410  225.3740 C   0  0  0  0  0  0  0  0  0  0  0  0
  137.3090   81.2020  224.2440 N   0  0  0  0  0  0  0  0  0  0  0  0
  138.9690   81.8570  222.2460 H   0  0  0  0  0  0  0  0  0  0  0  0
  138.5869   80.7106  219.5643 H   0  0  0  0  0  0  0  0  0  0  0  0
  140.0548   81.6202  220.1445 H   0  0  0  0  0  0  0  0  0  0  0  0
  143.1496   79.7133  221.3275 H   0  0  0  0  0  0  0  0  0  0  0  0
  142.1901   81.1348  221.0062 H   0  0  0  0  0  0  0  0  0  0  0  0
  142.8208   79.7572  223.6545 H   0  0  0  0  0  0  0  0  0  0  0  0
  142.5956   81.5190  223.3147 H   0  0  0  0  0  0  0  0  0  0  0  0
  140.7900   80.7821  224.7354 H   0  0  0  0  0  0  0  0  0  0  0  0
  140.1466   81.0831  223.0634 H   0  0  0  0  0  0  0  0  0  0  0  0
  140.4195   78.4947  224.5809 H   0  0  0  0  0  0  0  0  0  0  0  0
  139.1190   79.0344  223.5075 H   0  0  0  0  0  0  0  0  0  0  0  0
  141.9038   77.9793  222.7786 H   0  0  0  0  0  0  0  0  0  0  0  0
  138.6880   78.0030  221.0790 H   0  0  0  0  0  0  0  0  0  0  0  0
  137.9056   76.1236  219.9288 H   0  0  0  0  0  0  0  0  0  0  0  0
  139.1736   75.0907  220.6541 H   0  0  0  0  0  0  0  0  0  0  0  0
  137.4385   77.4880  222.6580 H   0  0  0  0  0  0  0  0  0  0  0  0
  135.8348   76.9913  224.4694 H   0  0  0  0  0  0  0  0  0  0  0  0
  134.7829   76.7747  225.5243 H   0  0  0  0  0  0  0  0  0  0  0  0
  133.1724   76.5466  227.4337 H   0  0  0  0  0  0  0  0  0  0  0  0
  132.9203   72.3917  226.6726 H   0  0  0  0  0  0  0  0  0  0  0  0
  134.5069   72.5357  224.7746 H   0  0  0  0  0  0  0  0  0  0  0  0
  135.7230   72.8968  223.2114 H   0  0  0  0  0  0  0  0  0  0  0  0
  137.3420   73.3830  221.3765 H   0  0  0  0  0  0  0  0  0  0  0  0
  135.3218   79.1352  222.5868 H   0  0  0  0  0  0  0  0  0  0  0  0
  133.9558   79.3485  224.6258 H   0  0  0  0  0  0  0  0  0  0  0  0
  133.6685   80.3005  226.8241 H   0  0  0  0  0  0  0  0  0  0  0  0
  134.4916   81.7488  228.6619 H   0  0  0  0  0  0  0  0  0  0  0  0
  136.6598   82.9367  228.3925 H   0  0  0  0  0  0  0  0  0  0  0  0
  137.9655   82.6740  226.3189 H   0  0  0  0  0  0  0  0  0  0  0  0
  1  2  2  0
  2  3  1  0
  3  4  1  0
  4  5  1  0
  5  6  2  0
  5  7  1  0
  7  8  1  0
  8  9  1  0
  9 10  1  0
 10 11  1  0
 11 12  1  0
 12 13  1  0
 13 14  2  0
 13 15  1  0
 15 16  1  0
 16 17  1  0
 17 18  2  0
 18 19  1  0
 19 20  2  0
 20 21  1  0
 21 22  2  0
 22 23  1  0
 23 24  2  0
 24 25  1  0
 25 26  2  0
 20 27  1  0
 27 28  2  0
  2 29  1  0
 29 30  2  0
 30 31  1  0
 31 32  2  0
 32 33  1  0
 33 34  2  0
 34 35  1  0
 35 36  2  0
 36 37  1  0
 37 38  2  0
 12  7  1  0
 28 17  1  0
 38 29  1  0
 26 21  1  0
 37 32  1  0
  3 39  1  0
  4 40  1  0
  4 41  1  0
  8 42  1  0
  8 43  1  0
  9 44  1  0
  9 45  1  0
 10 46  1  0
 10 47  1  0
 11 48  1  0
 11 49  1  0
 12 50  1  1
 15 51  1  0
 16 52  1  0
 16 53  1  0
 18 54  1  0
 19 55  1  0
 22 56  1  0
 23 57  1  0
 25 58  1  0
 26 59  1  0
 27 60  1  0
 28 61  1  0
 30 62  1  0
 31 63  1  0
 33 64  1  0
 34 65  1  0
 35 66  1  0
 36 67  1  0
M  END
>  <smiles>  (43) 
O=C(NCC(=O)N1CCCC[C@H]1C(=O)NCc1ccc(-c2ccncc2)cc1)c1ccc2ccccc2n1

>  <score_type>  (43) 
oracle

>  <origin>  (43) 
autodockgpu

>  <m_score__min__energy>  (43) 
-10.5

>  <m_primary>  (43) 
energy

>  <rmsd>  (43) 
8.725087827961655

>  <m_score__min__rmsd>  (43) 
8.725087827961655

>  <meeko>  (43) 
{"free_energy": -7.22, "intermolecular_energy": -9.6, "internal_energy": -4.74, "cluster_size": 1, "cluster_id": 13, "rank_in_cluster": 1}

>  <energy>  (43) 
-6.16

>  <cluster_rmsd>  (43) 
1.54

>  <cluster>  (43) 
11

$$$$

     RDKit          3D

 67 71  0  0  0  0  0  0  0  0999 V2000
  140.5670   72.9410  222.5590 O   0  0  0  0  0  0  0  0  0  0  0  0
  139.7130   72.1100  222.9580 C   0  0  0  0  0  0  0  0  0  0  0  0
  138.5170   71.9950  222.1790 N   0  0  0  0  0  0  0  0  0  0  0  0
  138.3970   72.8320  221.0080 C   0  0  0  0  0  0  0  0  0  0  0  0
  138.0030   72.0730  219.7930 C   0  0  0  0  0  0  0  0  0  0  0  0
  136.9080   72.3760  219.2710 O   0  0  0  0  0  0  0  0  0  0  0  0
  138.8860   71.0740  219.3220 N   0  0  0  0  0  0  0  0  0  0  0  0
  139.7520   71.3250  218.1400 C   0  0  0  0  0  0  0  0  0  0  0  0
  141.1040   70.7420  218.5990 C   0  0  0  0  0  0  0  0  0  0  0  0
  141.2480   70.8210  220.1140 C   0  0  0  0  0  0  0  0  0  0  0  0
  140.2650   69.9030  220.8360 C   0  0  0  0  0  0  0  0  0  0  0  0
  139.0670   69.7700  219.9140 C   0  0  1  0  0  0  0  0  0  0  0  0
  137.8900   69.1420  220.4940 C   0  0  0  0  0  0  0  0  0  0  0  0
  136.8570   68.7880  219.8760 O   0  0  0  0  0  0  0  0  0  0  0  0
  137.8940   68.9000  221.9020 N   0  0  0  0  0  0  0  0  0  0  0  0
  136.8150   68.2810  222.6260 C   0  0  0  0  0  0  0  0  0  0  0  0
  136.1800   69.3030  223.4880 C   0  0  0  0  0  0  0  0  0  0  0  0
  135.8760   70.5200  222.8640 C   0  0  0  0  0  0  0  0  0  0  0  0
  135.2770   71.5510  223.5560 C   0  0  0  0  0  0  0  0  0  0  0  0
  134.9670   71.3880  224.8900 C   0  0  0  0  0  0  0  0  0  0  0  0
  134.3380   72.5110  225.5740 C   0  0  0  0  0  0  0  0  0  0  0  0
  133.3930   72.1920  226.5390 C   0  0  0  0  0  0  0  0  0  0  0  0
  132.7330   73.2000  227.2510 C   0  0  0  0  0  0  0  0  0  0  0  0
  133.0400   74.4800  226.9740 N   0  0  0  0  0  0  0  0  0  0  0  0
  133.9590   74.7820  226.0340 C   0  0  0  0  0  0  0  0  0  0  0  0
  134.6370   73.8290  225.3050 C   0  0  0  0  0  0  0  0  0  0  0  0
  135.2650   70.1910  225.5070 C   0  0  0  0  0  0  0  0  0  0  0  0
  135.8730   69.1370  224.8130 C   0  0  0  0  0  0  0  0  0  0  0  0
  139.9400   71.3160  224.1510 C   0  0  0  0  0  0  0  0  0  0  0  0
  140.6990   71.8530  225.1680 C   0  0  0  0  0  0  0  0  0  0  0  0
  140.9770   71.1910  226.3440 C   0  0  0  0  0  0  0  0  0  0  0  0
  140.4720   69.9320  226.5090 C   0  0  0  0  0  0  0  0  0  0  0  0
  140.7210   69.2200  227.6720 C   0  0  0  0  0  0  0  0  0  0  0  0
  140.2130   67.9510  227.8430 C   0  0  0  0  0  0  0  0  0  0  0  0
  139.4520   67.3990  226.8370 C   0  0  0  0  0  0  0  0  0  0  0  0
  139.2090   68.1190  225.6770 C   0  0  0  0  0  0  0  0  0  0  0  0
  139.7010   69.3920  225.4740 C   0  0  0  0  0  0  0  0  0  0  0  0
  139.4560   70.0790  224.3400 N   0  0  0  0  0  0  0  0  0  0  0  0
  137.7940   71.3130  222.4940 H   0  0  0  0  0  0  0  0  0  0  0  0
  137.6359   73.6018  221.2032 H   0  0  0  0  0  0  0  0  0  0  0  0
  139.3858   73.2738  220.8152 H   0  0  0  0  0  0  0  0  0  0  0  0
  139.3734   70.8017  217.2496 H   0  0  0  0  0  0  0  0  0  0  0  0
  139.8038   72.3839  217.8467 H   0  0  0  0  0  0  0  0  0  0  0  0
  141.1662   69.6892  218.2864 H   0  0  0  0  0  0  0  0  0  0  0  0
  141.9125   71.3295  218.1395 H   0  0  0  0  0  0  0  0  0  0  0  0
  142.2724   70.5285  220.3881 H   0  0  0  0  0  0  0  0  0  0  0  0
  141.0311   71.8551  220.4201 H   0  0  0  0  0  0  0  0  0  0  0  0
  140.7215   68.9183  221.0148 H   0  0  0  0  0  0  0  0  0  0  0  0
  139.9771   70.3104  221.8164 H   0  0  0  0  0  0  0  0  0  0  0  0
  139.2592   69.0289  219.1241 H   0  0  0  0  0  0  0  0  0  0  0  0
  138.7420   69.1870  222.4740 H   0  0  0  0  0  0  0  0  0  0  0  0
  136.0745   67.8809  221.9178 H   0  0  0  0  0  0  0  0  0  0  0  0
  137.1998   67.4549  223.2421 H   0  0  0  0  0  0  0  0  0  0  0  0
  136.1203   70.6557  221.8001 H   0  0  0  0  0  0  0  0  0  0  0  0
  135.0475   72.4987  223.0469 H   0  0  0  0  0  0  0  0  0  0  0  0
  133.1606   71.1370  226.7462 H   0  0  0  0  0  0  0  0  0  0  0  0
  131.9832   72.9521  228.0167 H   0  0  0  0  0  0  0  0  0  0  0  0
  134.1783   75.8422  225.8395 H   0  0  0  0  0  0  0  0  0  0  0  0
  135.3815   74.1072  224.5445 H   0  0  0  0  0  0  0  0  0  0  0  0
  135.0190   70.0607  226.5712 H   0  0  0  0  0  0  0  0  0  0  0  0
  136.1006   68.1900  225.3242 H   0  0  0  0  0  0  0  0  0  0  0  0
  141.1055   72.8663  225.0336 H   0  0  0  0  0  0  0  0  0  0  0  0
  141.5881   71.6626  227.1277 H   0  0  0  0  0  0  0  0  0  0  0  0
  141.3310   69.6734  228.4672 H   0  0  0  0  0  0  0  0  0  0  0  0
  140.4119   67.3885  228.7671 H   0  0  0  0  0  0  0  0  0  0  0  0
  139.0368   66.3870  226.9534 H   0  0  0  0  0  0  0  0  0  0  0  0
  138.5994   67.6566  224.8868 H   0  0  0  0  0  0  0  0  0  0  0  0
  1  2  2  0
  2  3  1  0
  3  4  1  0
  4  5  1  0
  5  6  2  0
  5  7  1  0
  7  8  1  0
  8  9  1  0
  9 10  1  0
 10 11  1  0
 11 12  1  0
 12 13  1  0
 13 14  2  0
 13 15  1  0
 15 16  1  0
 16 17  1  0
 17 18  2  0
 18 19  1  0
 19 20  2  0
 20 21  1  0
 21 22  2  0
 22 23  1  0
 23 24  2  0
 24 25  1  0
 25 26  2  0
 20 27  1  0
 27 28  2  0
  2 29  1  0
 29 30  2  0
 30 31  1  0
 31 32  2  0
 32 33  1  0
 33 34  2  0
 34 35  1  0
 35 36  2  0
 36 37  1  0
 37 38  2  0
 12  7  1  0
 28 17  1  0
 38 29  1  0
 26 21  1  0
 37 32  1  0
  3 39  1  0
  4 40  1  0
  4 41  1  0
  8 42  1  0
  8 43  1  0
  9 44  1  0
  9 45  1  0
 10 46  1  0
 10 47  1  0
 11 48  1  0
 11 49  1  0
 12 50  1  6
 15 51  1  0
 16 52  1  0
 16 53  1  0
 18 54  1  0
 19 55  1  0
 22 56  1  0
 23 57  1  0
 25 58  1  0
 26 59  1  0
 27 60  1  0
 28 61  1  0
 30 62  1  0
 31 63  1  0
 33 64  1  0
 34 65  1  0
 35 66  1  0
 36 67  1  0
M  END
>  <smiles>  (44) 
O=C(NCC(=O)N1CCCC[C@H]1C(=O)NCc1ccc(-c2ccncc2)cc1)c1ccc2ccccc2n1

>  <score_type>  (44) 
oracle

>  <origin>  (44) 
autodockgpu

>  <m_score__min__energy>  (44) 
-10.5

>  <m_primary>  (44) 
energy

>  <rmsd>  (44) 
7.41501060300167

>  <m_score__min__rmsd>  (44) 
7.41501060300167

>  <meeko>  (44) 
{"free_energy": -7.07, "intermolecular_energy": -9.46, "internal_energy": -4.46, "cluster_size": 1, "cluster_id": 15, "rank_in_cluster": 1}

>  <energy>  (44) 
-7.76

>  <cluster_rmsd>  (44) 
0.0

>  <cluster>  (44) 
12

$$$$

     RDKit          3D

 67 71  0  0  0  0  0  0  0  0999 V2000
  136.2290   77.4260  223.0450 O   0  0  0  0  0  0  0  0  0  0  0  0
  136.6000   76.2620  223.3450 C   0  0  0  0  0  0  0  0  0  0  0  0
  137.9010   75.8670  222.8940 N   0  0  0  0  0  0  0  0  0  0  0  0
  138.6710   76.8320  222.1440 C   0  0  0  0  0  0  0  0  0  0  0  0
  139.9240   76.2600  221.5830 C   0  0  0  0  0  0  0  0  0  0  0  0
  140.6020   75.5380  222.3450 O   0  0  0  0  0  0  0  0  0  0  0  0
  140.2500   76.5700  220.2440 N   0  0  0  0  0  0  0  0  0  0  0  0
  140.4680   77.9800  219.8240 C   0  0  0  0  0  0  0  0  0  0  0  0
  141.7260   77.8640  218.9400 C   0  0  0  0  0  0  0  0  0  0  0  0
  142.5960   76.6920  219.3760 C   0  0  0  0  0  0  0  0  0  0  0  0
  141.9230   75.3470  219.1160 C   0  0  0  0  0  0  0  0  0  0  0  0
  140.4300   75.6100  219.1810 C   0  0  1  0  0  0  0  0  0  0  0  0
  139.5800   74.4290  219.2120 C   0  0  0  0  0  0  0  0  0  0  0  0
  138.7540   74.0860  218.3320 O   0  0  0  0  0  0  0  0  0  0  0  0
  139.6840   73.5680  220.3470 N   0  0  0  0  0  0  0  0  0  0  0  0
  138.9230   72.3590  220.5260 C   0  0  0  0  0  0  0  0  0  0  0  0
  139.0900   71.9010  221.9240 C   0  0  0  0  0  0  0  0  0  0  0  0
  140.4030   71.9170  222.4150 C   0  0  0  0  0  0  0  0  0  0  0  0
  140.6900   71.5190  223.7030 C   0  0  0  0  0  0  0  0  0  0  0  0
  139.6710   71.0980  224.5310 C   0  0  0  0  0  0  0  0  0  0  0  0
  140.0320   70.6860  225.8820 C   0  0  0  0  0  0  0  0  0  0  0  0
  139.7050   69.3840  226.2370 C   0  0  0  0  0  0  0  0  0  0  0  0
  140.0090   68.8950  227.5120 C   0  0  0  0  0  0  0  0  0  0  0  0
  140.6250   69.7180  228.3800 N   0  0  0  0  0  0  0  0  0  0  0  0
  140.9400   70.9820  228.0280 C   0  0  0  0  0  0  0  0  0  0  0  0
  140.6630   71.5130  226.7870 C   0  0  0  0  0  0  0  0  0  0  0  0
  138.3790   71.0820  224.0510 C   0  0  0  0  0  0  0  0  0  0  0  0
  138.0750   71.4840  222.7440 C   0  0  0  0  0  0  0  0  0  0  0  0
  135.7420   75.3760  224.1080 C   0  0  0  0  0  0  0  0  0  0  0  0
  135.7710   74.0270  223.8310 C   0  0  0  0  0  0  0  0  0  0  0  0
  135.0020   73.0950  224.4920 C   0  0  0  0  0  0  0  0  0  0  0  0
  134.1630   73.5340  225.4770 C   0  0  0  0  0  0  0  0  0  0  0  0
  133.3660   72.6410  226.1750 C   0  0  0  0  0  0  0  0  0  0  0  0
  132.5180   73.0800  227.1690 C   0  0  0  0  0  0  0  0  0  0  0  0
  132.4760   74.4250  227.4590 C   0  0  0  0  0  0  0  0  0  0  0  0
  133.2780   75.3120  226.7550 C   0  0  0  0  0  0  0  0  0  0  0  0
  134.1380   74.9060  225.7550 C   0  0  0  0  0  0  0  0  0  0  0  0
  134.9100   75.7800  225.0800 N   0  0  0  0  0  0  0  0  0  0  0  0
  138.2270   74.9060  223.1300 H   0  0  0  0  0  0  0  0  0  0  0  0
  138.0532   77.2059  221.3142 H   0  0  0  0  0  0  0  0  0  0  0  0
  138.9561   77.6378  222.8363 H   0  0  0  0  0  0  0  0  0  0  0  0
  139.6110   78.3626  219.2503 H   0  0  0  0  0  0  0  0  0  0  0  0
  140.5817   78.6795  220.6653 H   0  0  0  0  0  0  0  0  0  0  0  0
  141.4181   77.7136  217.8948 H   0  0  0  0  0  0  0  0  0  0  0  0
  142.3109   78.7901  219.0411 H   0  0  0  0  0  0  0  0  0  0  0  0
  143.5437   76.7276  218.8187 H   0  0  0  0  0  0  0  0  0  0  0  0
  142.7652   76.7814  220.4592 H   0  0  0  0  0  0  0  0  0  0  0  0
  142.2015   74.9654  218.1226 H   0  0  0  0  0  0  0  0  0  0  0  0
  142.2326   74.5912  219.8528 H   0  0  0  0  0  0  0  0  0  0  0  0
  140.0653   76.0338  218.2337 H   0  0  0  0  0  0  0  0  0  0  0  0
  140.3640   73.8160  221.1250 H   0  0  0  0  0  0  0  0  0  0  0  0
  137.8598   72.5567  220.3249 H   0  0  0  0  0  0  0  0  0  0  0  0
  139.2779   71.5840  219.8307 H   0  0  0  0  0  0  0  0  0  0  0  0
  141.2199   72.2537  221.7597 H   0  0  0  0  0  0  0  0  0  0  0  0
  141.7273   71.5371  224.0687 H   0  0  0  0  0  0  0  0  0  0  0  0
  139.2021   68.7308  225.5087 H   0  0  0  0  0  0  0  0  0  0  0  0
  139.7511   67.8644  227.7974 H   0  0  0  0  0  0  0  0  0  0  0  0
  141.4432   71.6206  228.7689 H   0  0  0  0  0  0  0  0  0  0  0  0
  140.9326   72.5481  226.5304 H   0  0  0  0  0  0  0  0  0  0  0  0
  137.5661   70.7450  224.7110 H   0  0  0  0  0  0  0  0  0  0  0  0
  137.0366   71.4651  222.3815 H   0  0  0  0  0  0  0  0  0  0  0  0
  136.4461   73.6743  223.0374 H   0  0  0  0  0  0  0  0  0  0  0  0
  135.0616   72.0273  224.2342 H   0  0  0  0  0  0  0  0  0  0  0  0
  133.4105   71.5689  225.9330 H   0  0  0  0  0  0  0  0  0  0  0  0
  131.8862   72.3683  227.7206 H   0  0  0  0  0  0  0  0  0  0  0  0
  131.8066   74.7967  228.2488 H   0  0  0  0  0  0  0  0  0  0  0  0
  133.2261   76.3822  227.0041 H   0  0  0  0  0  0  0  0  0  0  0  0
  1  2  2  0
  2  3  1  0
  3  4  1  0
  4  5  1  0
  5  6  2  0
  5  7  1  0
  7  8  1  0
  8  9  1  0
  9 10  1  0
 10 11  1  0
 11 12  1  0
 12 13  1  0
 13 14  2  0
 13 15  1  0
 15 16  1  0
 16 17  1  0
 17 18  2  0
 18 19  1  0
 19 20  2  0
 20 21  1  0
 21 22  2  0
 22 23  1  0
 23 24  2  0
 24 25  1  0
 25 26  2  0
 20 27  1  0
 27 28  2  0
  2 29  1  0
 29 30  2  0
 30 31  1  0
 31 32  2  0
 32 33  1  0
 33 34  2  0
 34 35  1  0
 35 36  2  0
 36 37  1  0
 37 38  2  0
 12  7  1  0
 28 17  1  0
 38 29  1  0
 26 21  1  0
 37 32  1  0
  3 39  1  0
  4 40  1  0
  4 41  1  0
  8 42  1  0
  8 43  1  0
  9 44  1  0
  9 45  1  0
 10 46  1  0
 10 47  1  0
 11 48  1  0
 11 49  1  0
 12 50  1  6
 15 51  1  0
 16 52  1  0
 16 53  1  0
 18 54  1  0
 19 55  1  0
 22 56  1  0
 23 57  1  0
 25 58  1  0
 26 59  1  0
 27 60  1  0
 28 61  1  0
 30 62  1  0
 31 63  1  0
 33 64  1  0
 34 65  1  0
 35 66  1  0
 36 67  1  0
M  END
>  <smiles>  (45) 
O=C(NCC(=O)N1CCCC[C@H]1C(=O)NCc1ccc(-c2ccncc2)cc1)c1ccc2ccccc2n1

>  <score_type>  (45) 
oracle

>  <origin>  (45) 
autodockgpu

>  <m_score__min__energy>  (45) 
-10.5

>  <m_primary>  (45) 
energy

>  <rmsd>  (45) 
6.854218103711721

>  <m_score__min__rmsd>  (45) 
6.854218103711721

>  <meeko>  (45) 
{"free_energy": -8.52, "intermolecular_energy": -10.9, "internal_energy": -3.4, "cluster_size": 9, "cluster_id": 3, "rank_in_cluster": 6}

>  <energy>  (45) 
-7.55

>  <cluster_rmsd>  (45) 
0.67

>  <cluster>  (45) 
12

$$$$

     RDKit          3D

 67 71  0  0  0  0  0  0  0  0999 V2000
  139.5970   73.3650  222.3730 O   0  0  0  0  0  0  0  0  0  0  0  0
  139.7190   72.1130  222.3850 C   0  0  0  0  0  0  0  0  0  0  0  0
  139.6650   71.4510  221.1160 N   0  0  0  0  0  0  0  0  0  0  0  0
  139.4820   72.2700  219.9400 C   0  0  0  0  0  0  0  0  0  0  0  0
  140.7590   72.8200  219.4140 C   0  0  0  0  0  0  0  0  0  0  0  0
  140.8140   73.0340  218.1840 O   0  0  0  0  0  0  0  0  0  0  0  0
  141.8050   73.0580  220.3350 N   0  0  0  0  0  0  0  0  0  0  0  0
  142.6250   71.9330  220.8580 C   0  0  0  0  0  0  0  0  0  0  0  0
  144.0520   72.5090  220.7810 C   0  0  0  0  0  0  0  0  0  0  0  0
  144.1690   73.5370  219.6620 C   0  0  0  0  0  0  0  0  0  0  0  0
  143.3530   74.7950  219.9480 C   0  0  0  0  0  0  0  0  0  0  0  0
  142.2030   74.3530  220.8340 C   0  0  1  0  0  0  0  0  0  0  0  0
  141.1470   75.3330  221.0350 C   0  0  0  0  0  0  0  0  0  0  0  0
  140.9530   76.0120  222.0720 O   0  0  0  0  0  0  0  0  0  0  0  0
  140.2340   75.5540  219.9590 N   0  0  0  0  0  0  0  0  0  0  0  0
  139.1430   76.4920  219.9940 C   0  0  0  0  0  0  0  0  0  0  0  0
  138.2560   76.1400  221.1250 C   0  0  0  0  0  0  0  0  0  0  0  0
  137.5940   74.9090  221.0160 C   0  0  0  0  0  0  0  0  0  0  0  0
  136.7430   74.4630  222.0060 C   0  0  0  0  0  0  0  0  0  0  0  0
  136.5360   75.2380  223.1280 C   0  0  0  0  0  0  0  0  0  0  0  0
  135.6250   74.7190  224.1410 C   0  0  0  0  0  0  0  0  0  0  0  0
  135.0720   75.6530  225.0070 C   0  0  0  0  0  0  0  0  0  0  0  0
  134.1870   75.2540  226.0140 C   0  0  0  0  0  0  0  0  0  0  0  0
  133.8880   73.9460  226.1190 N   0  0  0  0  0  0  0  0  0  0  0  0
  134.4300   73.0450  225.2740 C   0  0  0  0  0  0  0  0  0  0  0  0
  135.3070   73.3840  224.2660 C   0  0  0  0  0  0  0  0  0  0  0  0
  137.1870   76.4480  223.2380 C   0  0  0  0  0  0  0  0  0  0  0  0
  138.0530   76.9110  222.2390 C   0  0  0  0  0  0  0  0  0  0  0  0
  139.9030   71.3910  223.6290 C   0  0  0  0  0  0  0  0  0  0  0  0
  139.5560   70.0580  223.6770 C   0  0  0  0  0  0  0  0  0  0  0  0
  139.6880   69.2750  224.8030 C   0  0  0  0  0  0  0  0  0  0  0  0
  140.1910   69.8540  225.9340 C   0  0  0  0  0  0  0  0  0  0  0  0
  140.3460   69.1130  227.0960 C   0  0  0  0  0  0  0  0  0  0  0  0
  140.8530   69.6920  228.2380 C   0  0  0  0  0  0  0  0  0  0  0  0
  141.2050   71.0230  228.2080 C   0  0  0  0  0  0  0  0  0  0  0  0
  141.0460   71.7560  227.0410 C   0  0  0  0  0  0  0  0  0  0  0  0
  140.5430   71.2070  225.8800 C   0  0  0  0  0  0  0  0  0  0  0  0
  140.3940   71.9330  224.7540 N   0  0  0  0  0  0  0  0  0  0  0  0
  139.7620   70.4140  221.1030 H   0  0  0  0  0  0  0  0  0  0  0  0
  139.0138   71.6577  219.1552 H   0  0  0  0  0  0  0  0  0  0  0  0
  138.8485   73.1224  220.2265 H   0  0  0  0  0  0  0  0  0  0  0  0
  142.3496   71.6863  221.8940 H   0  0  0  0  0  0  0  0  0  0  0  0
  142.4962   70.9947  220.2986 H   0  0  0  0  0  0  0  0  0  0  0  0
  144.2970   72.9912  221.7389 H   0  0  0  0  0  0  0  0  0  0  0  0
  144.7506   71.6852  220.5731 H   0  0  0  0  0  0  0  0  0  0  0  0
  145.2263   73.8186  219.5486 H   0  0  0  0  0  0  0  0  0  0  0  0
  143.7756   73.0809  218.7416 H   0  0  0  0  0  0  0  0  0  0  0  0
  143.9711   75.5419  220.4677 H   0  0  0  0  0  0  0  0  0  0  0  0
  142.9912   75.2612  219.0197 H   0  0  0  0  0  0  0  0  0  0  0  0
  142.5258   74.2629  221.8817 H   0  0  0  0  0  0  0  0  0  0  0  0
  140.3490   74.9990  219.0600 H   0  0  0  0  0  0  0  0  0  0  0  0
  139.5341   77.5108  220.1325 H   0  0  0  0  0  0  0  0  0  0  0  0
  138.5817   76.4521  219.0488 H   0  0  0  0  0  0  0  0  0  0  0  0
  137.7563   74.2866  220.1237 H   0  0  0  0  0  0  0  0  0  0  0  0
  136.2322   73.4944  221.9011 H   0  0  0  0  0  0  0  0  0  0  0  0
  135.3323   76.7164  224.9001 H   0  0  0  0  0  0  0  0  0  0  0  0
  133.7467   75.9904  226.7024 H   0  0  0  0  0  0  0  0  0  0  0  0
  134.1583   71.9860  225.3955 H   0  0  0  0  0  0  0  0  0  0  0  0
  135.7328   72.6249  223.5933 H   0  0  0  0  0  0  0  0  0  0  0  0
  137.0223   77.0658  224.1331 H   0  0  0  0  0  0  0  0  0  0  0  0
  138.5627   77.8797  222.3475 H   0  0  0  0  0  0  0  0  0  0  0  0
  139.1512   69.5935  222.7658 H   0  0  0  0  0  0  0  0  0  0  0  0
  139.3969   68.2143  224.7919 H   0  0  0  0  0  0  0  0  0  0  0  0
  140.0607   68.0507  227.1056 H   0  0  0  0  0  0  0  0  0  0  0  0
  140.9747   69.1016  229.1581 H   0  0  0  0  0  0  0  0  0  0  0  0
  141.6121   71.5048  229.1091 H   0  0  0  0  0  0  0  0  0  0  0  0
  141.3327   72.8180  227.0416 H   0  0  0  0  0  0  0  0  0  0  0  0
  1  2  2  0
  2  3  1  0
  3  4  1  0
  4  5  1  0
  5  6  2  0
  5  7  1  0
  7  8  1  0
  8  9  1  0
  9 10  1  0
 10 11  1  0
 11 12  1  0
 12 13  1  0
 13 14  2  0
 13 15  1  0
 15 16  1  0
 16 17  1  0
 17 18  2  0
 18 19  1  0
 19 20  2  0
 20 21  1  0
 21 22  2  0
 22 23  1  0
 23 24  2  0
 24 25  1  0
 25 26  2  0
 20 27  1  0
 27 28  2  0
  2 29  1  0
 29 30  2  0
 30 31  1  0
 31 32  2  0
 32 33  1  0
 33 34  2  0
 34 35  1  0
 35 36  2  0
 36 37  1  0
 37 38  2  0
 12  7  1  0
 28 17  1  0
 38 29  1  0
 26 21  1  0
 37 32  1  0
  3 39  1  0
  4 40  1  0
  4 41  1  0
  8 42  1  0
  8 43  1  0
  9 44  1  0
  9 45  1  0
 10 46  1  0
 10 47  1  0
 11 48  1  0
 11 49  1  0
 12 50  1  1
 15 51  1  0
 16 52  1  0
 16 53  1  0
 18 54  1  0
 19 55  1  0
 22 56  1  0
 23 57  1  0
 25 58  1  0
 26 59  1  0
 27 60  1  0
 28 61  1  0
 30 62  1  0
 31 63  1  0
 33 64  1  0
 34 65  1  0
 35 66  1  0
 36 67  1  0
M  END
>  <smiles>  (46) 
O=C(NCC(=O)N1CCCC[C@H]1C(=O)NCc1ccc(-c2ccncc2)cc1)c1ccc2ccccc2n1

>  <score_type>  (46) 
oracle

>  <origin>  (46) 
autodockgpu

>  <m_score__min__energy>  (46) 
-10.5

>  <m_primary>  (46) 
energy

>  <rmsd>  (46) 
4.184208406834696

>  <m_score__min__rmsd>  (46) 
4.184208406834696

>  <meeko>  (46) 
{"free_energy": -8.71, "intermolecular_energy": -11.1, "internal_energy": -3.64, "cluster_size": 9, "cluster_id": 3, "rank_in_cluster": 4}

>  <energy>  (46) 
-7.54

>  <cluster_rmsd>  (46) 
0.67

>  <cluster>  (46) 
12

$$$$

     RDKit          3D

 67 71  0  0  0  0  0  0  0  0999 V2000
  139.1940   78.1390  222.6970 O   0  0  0  0  0  0  0  0  0  0  0  0
  140.0880   77.2970  222.4250 C   0  0  0  0  0  0  0  0  0  0  0  0
  141.4360   77.7780  222.4020 N   0  0  0  0  0  0  0  0  0  0  0  0
  141.6540   79.1750  222.6950 C   0  0  0  0  0  0  0  0  0  0  0  0
  141.3150   80.0650  221.5540 C   0  0  0  0  0  0  0  0  0  0  0  0
  142.2170   80.2680  220.7120 O   0  0  0  0  0  0  0  0  0  0  0  0
  140.0120   80.6100  221.5050 N   0  0  0  0  0  0  0  0  0  0  0  0
  139.3600   81.1270  222.7370 C   0  0  0  0  0  0  0  0  0  0  0  0
  138.7330   82.4460  222.2430 C   0  0  0  0  0  0  0  0  0  0  0  0
  139.5300   83.0310  221.0830 C   0  0  0  0  0  0  0  0  0  0  0  0
  139.4390   82.1670  219.8280 C   0  0  0  0  0  0  0  0  0  0  0  0
  139.2060   80.7490  220.3150 C   0  0  1  0  0  0  0  0  0  0  0  0
  139.3340   79.7060  219.3090 C   0  0  0  0  0  0  0  0  0  0  0  0
  139.7600   79.8520  218.1380 O   0  0  0  0  0  0  0  0  0  0  0  0
  138.9420   78.3820  219.6750 N   0  0  0  0  0  0  0  0  0  0  0  0
  139.0140   77.2390  218.8020 C   0  0  0  0  0  0  0  0  0  0  0  0
  140.3420   76.6050  218.9660 C   0  0  0  0  0  0  0  0  0  0  0  0
  140.4030   75.2380  218.6660 C   0  0  0  0  0  0  0  0  0  0  0  0
  141.5830   74.5330  218.7730 C   0  0  0  0  0  0  0  0  0  0  0  0
  142.7300   75.1800  219.1820 C   0  0  0  0  0  0  0  0  0  0  0  0
  143.9480   74.3850  219.2820 C   0  0  0  0  0  0  0  0  0  0  0  0
  144.6500   74.4820  220.4750 C   0  0  0  0  0  0  0  0  0  0  0  0
  145.8320   73.7590  220.6670 C   0  0  0  0  0  0  0  0  0  0  0  0
  146.2670   72.9710  219.6660 N   0  0  0  0  0  0  0  0  0  0  0  0
  145.5800   72.8830  218.5090 C   0  0  0  0  0  0  0  0  0  0  0  0
  144.4110   73.5730  218.2690 C   0  0  0  0  0  0  0  0  0  0  0  0
  142.6720   76.5250  219.4780 C   0  0  0  0  0  0  0  0  0  0  0  0
  141.4790   77.2510  219.3720 C   0  0  0  0  0  0  0  0  0  0  0  0
  139.7540   75.9130  222.1470 C   0  0  0  0  0  0  0  0  0  0  0  0
  138.4250   75.5590  222.0540 C   0  0  0  0  0  0  0  0  0  0  0  0
  137.9940   74.2770  221.7930 C   0  0  0  0  0  0  0  0  0  0  0  0
  138.9360   73.3030  221.6180 C   0  0  0  0  0  0  0  0  0  0  0  0
  138.5590   71.9960  221.3540 C   0  0  0  0  0  0  0  0  0  0  0  0
  139.5050   71.0110  221.1770 C   0  0  0  0  0  0  0  0  0  0  0  0
  140.8380   71.3470  221.2670 C   0  0  0  0  0  0  0  0  0  0  0  0
  141.2060   72.6580  221.5320 C   0  0  0  0  0  0  0  0  0  0  0  0
  140.2840   73.6680  221.7140 C   0  0  0  0  0  0  0  0  0  0  0  0
  140.6580   74.9370  221.9710 N   0  0  0  0  0  0  0  0  0  0  0  0
  142.1920   77.0980  222.1750 H   0  0  0  0  0  0  0  0  0  0  0  0
  141.0292   79.4547  223.5560 H   0  0  0  0  0  0  0  0  0  0  0  0
  142.7255   79.3044  222.9076 H   0  0  0  0  0  0  0  0  0  0  0  0
  138.5902   80.4317  223.1029 H   0  0  0  0  0  0  0  0  0  0  0  0
  140.0517   81.2558  223.5825 H   0  0  0  0  0  0  0  0  0  0  0  0
  137.7030   82.2515  221.9094 H   0  0  0  0  0  0  0  0  0  0  0  0
  138.7405   83.1688  223.0721 H   0  0  0  0  0  0  0  0  0  0  0  0
  139.1376   84.0326  220.8529 H   0  0  0  0  0  0  0  0  0  0  0  0
  140.5862   83.0753  221.3870 H   0  0  0  0  0  0  0  0  0  0  0  0
  138.6012   82.4971  219.1962 H   0  0  0  0  0  0  0  0  0  0  0  0
  140.3530   82.2401  219.2203 H   0  0  0  0  0  0  0  0  0  0  0  0
  138.1468   80.5883  220.5645 H   0  0  0  0  0  0  0  0  0  0  0  0
  138.5680   78.2040  220.6530 H   0  0  0  0  0  0  0  0  0  0  0  0
  138.2245   76.5201  219.0662 H   0  0  0  0  0  0  0  0  0  0  0  0
  138.8731   77.5534  217.7573 H   0  0  0  0  0  0  0  0  0  0  0  0
  139.4914   74.7167  218.3386 H   0  0  0  0  0  0  0  0  0  0  0  0
  141.6093   73.4598  218.5333 H   0  0  0  0  0  0  0  0  0  0  0  0
  144.2734   75.1336  221.2773 H   0  0  0  0  0  0  0  0  0  0  0  0
  146.3914   73.8324  221.6113 H   0  0  0  0  0  0  0  0  0  0  0  0
  145.9720   72.2279  217.7171 H   0  0  0  0  0  0  0  0  0  0  0  0
  143.8730   73.4800  217.3141 H   0  0  0  0  0  0  0  0  0  0  0  0
  143.5862   77.0414  219.8059 H   0  0  0  0  0  0  0  0  0  0  0  0
  141.4558   78.3244  219.6114 H   0  0  0  0  0  0  0  0  0  0  0  0
  137.6670   76.3434  222.1960 H   0  0  0  0  0  0  0  0  0  0  0  0
  136.9210   74.0439  221.7273 H   0  0  0  0  0  0  0  0  0  0  0  0
  137.4909   71.7421  221.2850 H   0  0  0  0  0  0  0  0  0  0  0  0
  139.2017   69.9746  220.9675 H   0  0  0  0  0  0  0  0  0  0  0  0
  141.6103   70.5760  221.1288 H   0  0  0  0  0  0  0  0  0  0  0  0
  142.2764   72.9022  221.5998 H   0  0  0  0  0  0  0  0  0  0  0  0
  1  2  2  0
  2  3  1  0
  3  4  1  0
  4  5  1  0
  5  6  2  0
  5  7  1  0
  7  8  1  0
  8  9  1  0
  9 10  1  0
 10 11  1  0
 11 12  1  0
 12 13  1  0
 13 14  2  0
 13 15  1  0
 15 16  1  0
 16 17  1  0
 17 18  2  0
 18 19  1  0
 19 20  2  0
 20 21  1  0
 21 22  2  0
 22 23  1  0
 23 24  2  0
 24 25  1  0
 25 26  2  0
 20 27  1  0
 27 28  2  0
  2 29  1  0
 29 30  2  0
 30 31  1  0
 31 32  2  0
 32 33  1  0
 33 34  2  0
 34 35  1  0
 35 36  2  0
 36 37  1  0
 37 38  2  0
 12  7  1  0
 28 17  1  0
 38 29  1  0
 26 21  1  0
 37 32  1  0
  3 39  1  0
  4 40  1  0
  4 41  1  0
  8 42  1  0
  8 43  1  0
  9 44  1  0
  9 45  1  0
 10 46  1  0
 10 47  1  0
 11 48  1  0
 11 49  1  0
 12 50  1  1
 15 51  1  0
 16 52  1  0
 16 53  1  0
 18 54  1  0
 19 55  1  0
 22 56  1  0
 23 57  1  0
 25 58  1  0
 26 59  1  0
 27 60  1  0
 28 61  1  0
 30 62  1  0
 31 63  1  0
 33 64  1  0
 34 65  1  0
 35 66  1  0
 36 67  1  0
M  END
>  <smiles>  (47) 
O=C(NCC(=O)N1CCCC[C@H]1C(=O)NCc1ccc(-c2ccncc2)cc1)c1ccc2ccccc2n1

>  <score_type>  (47) 
oracle

>  <origin>  (47) 
autodockgpu

>  <m_score__min__energy>  (47) 
-10.5

>  <m_primary>  (47) 
energy

>  <rmsd>  (47) 
6.492609622529563

>  <m_score__min__rmsd>  (47) 
6.492609622529563

>  <meeko>  (47) 
{"free_energy": -6.55, "intermolecular_energy": -8.93, "internal_energy": -5.23, "cluster_size": 1, "cluster_id": 16, "rank_in_cluster": 1}

>  <energy>  (47) 
-7.22

>  <cluster_rmsd>  (47) 
0.0

>  <cluster>  (47) 
13

$$$$

     RDKit          3D

 67 71  0  0  0  0  0  0  0  0999 V2000
  141.2500   76.3810  217.8750 O   0  0  0  0  0  0  0  0  0  0  0  0
  142.2630   76.8170  218.4800 C   0  0  0  0  0  0  0  0  0  0  0  0
  143.5090   76.1710  218.1920 N   0  0  0  0  0  0  0  0  0  0  0  0
  143.4960   75.0870  217.2370 C   0  0  0  0  0  0  0  0  0  0  0  0
  142.8660   73.8520  217.7730 C   0  0  0  0  0  0  0  0  0  0  0  0
  141.7380   73.5560  217.3230 O   0  0  0  0  0  0  0  0  0  0  0  0
  143.5820   73.1120  218.7410 N   0  0  0  0  0  0  0  0  0  0  0  0
  144.8210   72.3780  218.3700 C   0  0  0  0  0  0  0  0  0  0  0  0
  145.7620   72.7160  219.5440 C   0  0  0  0  0  0  0  0  0  0  0  0
  145.4170   74.0720  220.1490 C   0  0  0  0  0  0  0  0  0  0  0  0
  144.0590   74.0630  220.8460 C   0  0  0  0  0  0  0  0  0  0  0  0
  143.2350   73.0040  220.1380 C   0  0  1  0  0  0  0  0  0  0  0  0
  141.8170   72.9850  220.4630 C   0  0  0  0  0  0  0  0  0  0  0  0
  141.2440   72.1840  221.2410 O   0  0  0  0  0  0  0  0  0  0  0  0
  140.9820   73.9650  219.8440 N   0  0  0  0  0  0  0  0  0  0  0  0
  139.5640   74.0870  220.0650 C   0  0  0  0  0  0  0  0  0  0  0  0
  139.2720   75.4740  220.4920 C   0  0  0  0  0  0  0  0  0  0  0  0
  139.5730   75.7740  221.8280 C   0  0  0  0  0  0  0  0  0  0  0  0
  139.3520   77.0320  222.3460 C   0  0  0  0  0  0  0  0  0  0  0  0
  138.8270   78.0200  221.5400 C   0  0  0  0  0  0  0  0  0  0  0  0
  138.6110   79.3310  222.1410 C   0  0  0  0  0  0  0  0  0  0  0  0
  138.6320   79.3830  223.5280 C   0  0  0  0  0  0  0  0  0  0  0  0
  138.4350   80.5950  224.1990 C   0  0  0  0  0  0  0  0  0  0  0  0
  138.2250   81.7030  223.4640 N   0  0  0  0  0  0  0  0  0  0  0  0
  138.2060   81.6440  222.1160 C   0  0  0  0  0  0  0  0  0  0  0  0
  138.3940   80.4770  221.4070 C   0  0  0  0  0  0  0  0  0  0  0  0
  138.5320   77.7280  220.2250 C   0  0  0  0  0  0  0  0  0  0  0  0
  138.7510   76.4530  219.6880 C   0  0  0  0  0  0  0  0  0  0  0  0
  142.1590   77.9160  219.4200 C   0  0  0  0  0  0  0  0  0  0  0  0
  142.0050   79.1940  218.9290 C   0  0  0  0  0  0  0  0  0  0  0  0
  141.8950   80.3110  219.7290 C   0  0  0  0  0  0  0  0  0  0  0  0
  141.9420   80.1400  221.0830 C   0  0  0  0  0  0  0  0  0  0  0  0
  141.8360   81.2280  221.9350 C   0  0  0  0  0  0  0  0  0  0  0  0
  141.8840   81.0610  223.3020 C   0  0  0  0  0  0  0  0  0  0  0  0
  142.0380   79.7900  223.8100 C   0  0  0  0  0  0  0  0  0  0  0  0
  142.1430   78.7070  222.9500 C   0  0  0  0  0  0  0  0  0  0  0  0
  142.0980   78.8400  221.5770 C   0  0  0  0  0  0  0  0  0  0  0  0
  142.2020   77.7770  220.7540 N   0  0  0  0  0  0  0  0  0  0  0  0
  144.3610   76.5140  218.6840 H   0  0  0  0  0  0  0  0  0  0  0  0
  142.9351   75.4096  216.3474 H   0  0  0  0  0  0  0  0  0  0  0  0
  144.5420   74.8464  216.9962 H   0  0  0  0  0  0  0  0  0  0  0  0
  144.6387   71.2952  218.3037 H   0  0  0  0  0  0  0  0  0  0  0  0
  145.2235   72.6592  217.3857 H   0  0  0  0  0  0  0  0  0  0  0  0
  145.6632   71.9411  220.3185 H   0  0  0  0  0  0  0  0  0  0  0  0
  146.7941   72.7540  219.1655 H   0  0  0  0  0  0  0  0  0  0  0  0
  146.1907   74.3394  220.8838 H   0  0  0  0  0  0  0  0  0  0  0  0
  145.3720   74.8056  219.3306 H   0  0  0  0  0  0  0  0  0  0  0  0
  144.1766   73.8085  221.9097 H   0  0  0  0  0  0  0  0  0  0  0  0
  143.5747   75.0495  220.7993 H   0  0  0  0  0  0  0  0  0  0  0  0
  143.4879   71.9985  220.5056 H   0  0  0  0  0  0  0  0  0  0  0  0
  141.4150   74.6640  219.1710 H   0  0  0  0  0  0  0  0  0  0  0  0
  139.0229   73.8640  219.1336 H   0  0  0  0  0  0  0  0  0  0  0  0
  139.2416   73.3781  220.8418 H   0  0  0  0  0  0  0  0  0  0  0  0
  139.9936   74.9903  222.4753 H   0  0  0  0  0  0  0  0  0  0  0  0
  139.5933   77.2468  223.3975 H   0  0  0  0  0  0  0  0  0  0  0  0
  138.8052   78.4627  224.1051 H   0  0  0  0  0  0  0  0  0  0  0  0
  138.4513   80.6411  225.2979 H   0  0  0  0  0  0  0  0  0  0  0  0
  138.0317   82.5739  221.5548 H   0  0  0  0  0  0  0  0  0  0  0  0
  138.3719   80.4612  220.3073 H   0  0  0  0  0  0  0  0  0  0  0  0
  138.1141   78.5162  219.5815 H   0  0  0  0  0  0  0  0  0  0  0  0
  138.5082   76.2411  218.6363 H   0  0  0  0  0  0  0  0  0  0  0  0
  141.9678   79.3305  217.8381 H   0  0  0  0  0  0  0  0  0  0  0  0
  141.7728   81.3118  219.2892 H   0  0  0  0  0  0  0  0  0  0  0  0
  141.7120   82.2370  221.5149 H   0  0  0  0  0  0  0  0  0  0  0  0
  141.8009   81.9269  223.9752 H   0  0  0  0  0  0  0  0  0  0  0  0
  142.0777   79.6339  224.8981 H   0  0  0  0  0  0  0  0  0  0  0  0
  142.2671   77.7019  223.3794 H   0  0  0  0  0  0  0  0  0  0  0  0
  1  2  2  0
  2  3  1  0
  3  4  1  0
  4  5  1  0
  5  6  2  0
  5  7  1  0
  7  8  1  0
  8  9  1  0
  9 10  1  0
 10 11  1  0
 11 12  1  0
 12 13  1  0
 13 14  2  0
 13 15  1  0
 15 16  1  0
 16 17  1  0
 17 18  2  0
 18 19  1  0
 19 20  2  0
 20 21  1  0
 21 22  2  0
 22 23  1  0
 23 24  2  0
 24 25  1  0
 25 26  2  0
 20 27  1  0
 27 28  2  0
  2 29  1  0
 29 30  2  0
 30 31  1  0
 31 32  2  0
 32 33  1  0
 33 34  2  0
 34 35  1  0
 35 36  2  0
 36 37  1  0
 37 38  2  0
 12  7  1  0
 28 17  1  0
 38 29  1  0
 26 21  1  0
 37 32  1  0
  3 39  1  0
  4 40  1  0
  4 41  1  0
  8 42  1  0
  8 43  1  0
  9 44  1  0
  9 45  1  0
 10 46  1  0
 10 47  1  0
 11 48  1  0
 11 49  1  0
 12 50  1  1
 15 51  1  0
 16 52  1  0
 16 53  1  0
 18 54  1  0
 19 55  1  0
 22 56  1  0
 23 57  1  0
 25 58  1  0
 26 59  1  0
 27 60  1  0
 28 61  1  0
 30 62  1  0
 31 63  1  0
 33 64  1  0
 34 65  1  0
 35 66  1  0
 36 67  1  0
M  END
>  <smiles>  (48) 
O=C(NCC(=O)N1CCCC[C@H]1C(=O)NCc1ccc(-c2ccncc2)cc1)c1ccc2ccccc2n1

>  <score_type>  (48) 
oracle

>  <origin>  (48) 
autodockgpu

>  <m_score__min__energy>  (48) 
-10.5

>  <m_primary>  (48) 
energy

>  <rmsd>  (48) 
7.947782692654921

>  <m_score__min__rmsd>  (48) 
7.947782692654921

>  <meeko>  (48) 
{"free_energy": -6.18, "intermolecular_energy": -8.57, "internal_energy": -5.98, "cluster_size": 12, "cluster_id": 11, "rank_in_cluster": 11}

>  <energy>  (48) 
-7.09

>  <cluster_rmsd>  (48) 
0.0

>  <cluster>  (48) 
14

$$$$

     RDKit          3D

 67 71  0  0  0  0  0  0  0  0999 V2000
  140.8660   78.1330  218.3350 O   0  0  0  0  0  0  0  0  0  0  0  0
  141.8630   78.7420  217.8690 C   0  0  0  0  0  0  0  0  0  0  0  0
  142.9500   77.9320  217.4060 N   0  0  0  0  0  0  0  0  0  0  0  0
  142.8080   76.4980  217.5080 C   0  0  0  0  0  0  0  0  0  0  0  0
  143.4060   75.9470  218.7530 C   0  0  0  0  0  0  0  0  0  0  0  0
  143.7460   76.7730  219.6270 O   0  0  0  0  0  0  0  0  0  0  0  0
  143.5430   74.5440  218.8550 N   0  0  0  0  0  0  0  0  0  0  0  0
  144.2230   73.7690  217.7830 C   0  0  0  0  0  0  0  0  0  0  0  0
  145.1090   72.8030  218.5950 C   0  0  0  0  0  0  0  0  0  0  0  0
  145.4970   73.4110  219.9370 C   0  0  0  0  0  0  0  0  0  0  0  0
  144.2960   73.5690  220.8670 C   0  0  0  0  0  0  0  0  0  0  0  0
  143.0890   73.7360  219.9620 C   0  0  1  0  0  0  0  0  0  0  0  0
  141.8600   74.1530  220.6190 C   0  0  0  0  0  0  0  0  0  0  0  0
  140.7930   73.4960  220.6840 O   0  0  0  0  0  0  0  0  0  0  0  0
  141.8500   75.4320  221.2560 N   0  0  0  0  0  0  0  0  0  0  0  0
  140.7200   75.9860  221.9550 C   0  0  0  0  0  0  0  0  0  0  0  0
  140.7320   77.4550  221.7790 C   0  0  0  0  0  0  0  0  0  0  0  0
  139.5700   78.1250  222.1840 C   0  0  0  0  0  0  0  0  0  0  0  0
  139.4580   79.4950  222.0780 C   0  0  0  0  0  0  0  0  0  0  0  0
  140.5080   80.2280  221.5640 C   0  0  0  0  0  0  0  0  0  0  0  0
  140.3350   81.6720  221.4710 C   0  0  0  0  0  0  0  0  0  0  0  0
  139.0310   82.1410  221.5420 C   0  0  0  0  0  0  0  0  0  0  0  0
  138.7610   83.5120  221.4610 C   0  0  0  0  0  0  0  0  0  0  0  0
  139.7980   84.3570  221.3140 N   0  0  0  0  0  0  0  0  0  0  0  0
  141.0620   83.8940  221.2460 C   0  0  0  0  0  0  0  0  0  0  0  0
  141.3830   82.5550  221.3200 C   0  0  0  0  0  0  0  0  0  0  0  0
  141.6530   79.5710  221.1660 C   0  0  0  0  0  0  0  0  0  0  0  0
  141.7780   78.1800  221.2700 C   0  0  0  0  0  0  0  0  0  0  0  0
  141.8960   80.1910  217.8110 C   0  0  0  0  0  0  0  0  0  0  0  0
  140.7470   80.8910  218.1060 C   0  0  0  0  0  0  0  0  0  0  0  0
  140.6650   82.2660  218.0850 C   0  0  0  0  0  0  0  0  0  0  0  0
  141.7860   82.9730  217.7520 C   0  0  0  0  0  0  0  0  0  0  0  0
  141.7600   84.3590  217.7150 C   0  0  0  0  0  0  0  0  0  0  0  0
  142.8880   85.0760  217.3800 C   0  0  0  0  0  0  0  0  0  0  0  0
  144.0450   84.3920  217.0820 C   0  0  0  0  0  0  0  0  0  0  0  0
  144.0610   83.0060  217.1220 C   0  0  0  0  0  0  0  0  0  0  0  0
  142.9510   82.2570  217.4550 C   0  0  0  0  0  0  0  0  0  0  0  0
  142.9820   80.9100  217.4880 N   0  0  0  0  0  0  0  0  0  0  0  0
  143.7870   78.4160  217.0180 H   0  0  0  0  0  0  0  0  0  0  0  0
  141.7367   76.2489  217.4925 H   0  0  0  0  0  0  0  0  0  0  0  0
  143.3432   76.0508  216.6574 H   0  0  0  0  0  0  0  0  0  0  0  0
  143.4969   73.2207  217.1649 H   0  0  0  0  0  0  0  0  0  0  0  0
  144.7848   74.3942  217.0734 H   0  0  0  0  0  0  0  0  0  0  0  0
  144.5550   71.8690  218.7705 H   0  0  0  0  0  0  0  0  0  0  0  0
  146.0272   72.6062  218.0222 H   0  0  0  0  0  0  0  0  0  0  0  0
  146.2368   72.7570  220.4217 H   0  0  0  0  0  0  0  0  0  0  0  0
  145.9114   74.4121  219.7472 H   0  0  0  0  0  0  0  0  0  0  0  0
  144.1805   72.6755  221.4981 H   0  0  0  0  0  0  0  0  0  0  0  0
  144.4176   74.4295  221.5414 H   0  0  0  0  0  0  0  0  0  0  0  0
  142.7387   72.7619  219.5900 H   0  0  0  0  0  0  0  0  0  0  0  0
  142.7250   76.0320  221.2250 H   0  0  0  0  0  0  0  0  0  0  0  0
  139.7887   75.5706  221.5425 H   0  0  0  0  0  0  0  0  0  0  0  0
  140.7785   75.7344  223.0243 H   0  0  0  0  0  0  0  0  0  0  0  0
  138.7299   77.5460  222.5950 H   0  0  0  0  0  0  0  0  0  0  0  0
  138.5364   80.0011  222.4015 H   0  0  0  0  0  0  0  0  0  0  0  0
  138.2016   81.4286  221.6631 H   0  0  0  0  0  0  0  0  0  0  0  0
  137.7290   83.8886  221.5160 H   0  0  0  0  0  0  0  0  0  0  0  0
  141.8787   84.6209  221.1254 H   0  0  0  0  0  0  0  0  0  0  0  0
  142.4252   82.2080  221.2614 H   0  0  0  0  0  0  0  0  0  0  0  0
  142.4903   80.1548  220.7560 H   0  0  0  0  0  0  0  0  0  0  0  0
  142.7017   77.6768  220.9481 H   0  0  0  0  0  0  0  0  0  0  0  0
  139.8451   80.3206  218.3731 H   0  0  0  0  0  0  0  0  0  0  0  0
  139.7238   82.7802  218.3294 H   0  0  0  0  0  0  0  0  0  0  0  0
  140.8284   84.8920  217.9558 H   0  0  0  0  0  0  0  0  0  0  0  0
  142.8644   86.1754  217.3512 H   0  0  0  0  0  0  0  0  0  0  0  0
  144.9568   84.9450  216.8122 H   0  0  0  0  0  0  0  0  0  0  0  0
  144.9970   82.4821  216.8782 H   0  0  0  0  0  0  0  0  0  0  0  0
  1  2  2  0
  2  3  1  0
  3  4  1  0
  4  5  1  0
  5  6  2  0
  5  7  1  0
  7  8  1  0
  8  9  1  0
  9 10  1  0
 10 11  1  0
 11 12  1  0
 12 13  1  0
 13 14  2  0
 13 15  1  0
 15 16  1  0
 16 17  1  0
 17 18  2  0
 18 19  1  0
 19 20  2  0
 20 21  1  0
 21 22  2  0
 22 23  1  0
 23 24  2  0
 24 25  1  0
 25 26  2  0
 20 27  1  0
 27 28  2  0
  2 29  1  0
 29 30  2  0
 30 31  1  0
 31 32  2  0
 32 33  1  0
 33 34  2  0
 34 35  1  0
 35 36  2  0
 36 37  1  0
 37 38  2  0
 12  7  1  0
 28 17  1  0
 38 29  1  0
 26 21  1  0
 37 32  1  0
  3 39  1  0
  4 40  1  0
  4 41  1  0
  8 42  1  0
  8 43  1  0
  9 44  1  0
  9 45  1  0
 10 46  1  0
 10 47  1  0
 11 48  1  0
 11 49  1  0
 12 50  1  6
 15 51  1  0
 16 52  1  0
 16 53  1  0
 18 54  1  0
 19 55  1  0
 22 56  1  0
 23 57  1  0
 25 58  1  0
 26 59  1  0
 27 60  1  0
 28 61  1  0
 30 62  1  0
 31 63  1  0
 33 64  1  0
 34 65  1  0
 35 66  1  0
 36 67  1  0
M  END
>  <smiles>  (49) 
O=C(NCC(=O)N1CCCC[C@H]1C(=O)NCc1ccc(-c2ccncc2)cc1)c1ccc2ccccc2n1

>  <score_type>  (49) 
oracle

>  <origin>  (49) 
autodockgpu

>  <m_score__min__energy>  (49) 
-10.5

>  <m_primary>  (49) 
energy

>  <rmsd>  (49) 
9.740412056593575

>  <m_score__min__rmsd>  (49) 
9.740412056593575

>  <meeko>  (49) 
{"free_energy": -7.09, "intermolecular_energy": -9.47, "internal_energy": -4.6, "cluster_size": 1, "cluster_id": 14, "rank_in_cluster": 1}

>  <energy>  (49) 
-7.07

>  <cluster_rmsd>  (49) 
0.0

>  <cluster>  (49) 
15

$$$$

     RDKit          3D

 67 71  0  0  0  0  0  0  0  0999 V2000
  140.4740   70.8800  221.6520 O   0  0  0  0  0  0  0  0  0  0  0  0
  140.2820   71.6140  222.6550 C   0  0  0  0  0  0  0  0  0  0  0  0
  140.0490   73.0030  222.3980 N   0  0  0  0  0  0  0  0  0  0  0  0
  140.0500   73.4390  221.0210 C   0  0  0  0  0  0  0  0  0  0  0  0
  140.4270   74.8690  220.8690 C   0  0  0  0  0  0  0  0  0  0  0  0
  140.7590   75.4770  221.9090 O   0  0  0  0  0  0  0  0  0  0  0  0
  140.3830   75.4290  219.5720 N   0  0  0  0  0  0  0  0  0  0  0  0
  139.0890   75.5790  218.8540 C   0  0  0  0  0  0  0  0  0  0  0  0
  139.2110   76.9970  218.2600 C   0  0  0  0  0  0  0  0  0  0  0  0
  140.1070   77.8770  219.1220 C   0  0  0  0  0  0  0  0  0  0  0  0
  141.5620   77.4170  219.0980 C   0  0  0  0  0  0  0  0  0  0  0  0
  141.5210   75.9230  218.8340 C   0  0  1  0  0  0  0  0  0  0  0  0
  142.7790   75.2140  219.0140 C   0  0  0  0  0  0  0  0  0  0  0  0
  143.4500   74.6530  218.1150 O   0  0  0  0  0  0  0  0  0  0  0  0
  143.3140   75.1400  220.3370 N   0  0  0  0  0  0  0  0  0  0  0  0
  144.5490   74.4850  220.6810 C   0  0  0  0  0  0  0  0  0  0  0  0
  144.4080   73.0380  220.4050 C   0  0  0  0  0  0  0  0  0  0  0  0
  145.4990   72.4330  219.7670 C   0  0  0  0  0  0  0  0  0  0  0  0
  145.4930   71.0890  219.4600 C   0  0  0  0  0  0  0  0  0  0  0  0
  144.3960   70.3190  219.7840 C   0  0  0  0  0  0  0  0  0  0  0  0
  144.4420   68.9040  219.4330 C   0  0  0  0  0  0  0  0  0  0  0  0
  145.7050   68.3390  219.3240 C   0  0  0  0  0  0  0  0  0  0  0  0
  145.8550   66.9880  218.9900 C   0  0  0  0  0  0  0  0  0  0  0  0
  144.7440   66.2580  218.7800 N   0  0  0  0  0  0  0  0  0  0  0  0
  143.5210   66.8140  218.8880 C   0  0  0  0  0  0  0  0  0  0  0  0
  143.3180   68.1380  219.2130 C   0  0  0  0  0  0  0  0  0  0  0  0
  143.3220   70.9120  220.4120 C   0  0  0  0  0  0  0  0  0  0  0  0
  143.3160   72.2760  220.7300 C   0  0  0  0  0  0  0  0  0  0  0  0
  140.3010   71.0660  223.9980 C   0  0  0  0  0  0  0  0  0  0  0  0
  140.7310   71.8680  225.0330 C   0  0  0  0  0  0  0  0  0  0  0  0
  140.7890   71.4530  226.3460 C   0  0  0  0  0  0  0  0  0  0  0  0
  140.3980   70.1770  226.6360 C   0  0  0  0  0  0  0  0  0  0  0  0
  140.4360   69.7070  227.9400 C   0  0  0  0  0  0  0  0  0  0  0  0
  140.0430   68.4200  228.2370 C   0  0  0  0  0  0  0  0  0  0  0  0
  139.6100   67.6060  227.2150 C   0  0  0  0  0  0  0  0  0  0  0  0
  139.5760   68.0840  225.9140 C   0  0  0  0  0  0  0  0  0  0  0  0
  139.9610   69.3670  225.5810 C   0  0  0  0  0  0  0  0  0  0  0  0
  139.9230   69.8170  224.3120 N   0  0  0  0  0  0  0  0  0  0  0  0
  139.8910   73.6300  223.2160 H   0  0  0  0  0  0  0  0  0  0  0  0
  140.7684   72.8246  220.4585 H   0  0  0  0  0  0  0  0  0  0  0  0
  139.0257   73.3243  220.6369 H   0  0  0  0  0  0  0  0  0  0  0  0
  138.9816   74.8226  218.0626 H   0  0  0  0  0  0  0  0  0  0  0  0
  138.2075   75.4434  219.4979 H   0  0  0  0  0  0  0  0  0  0  0  0
  139.6403   76.9276  217.2496 H   0  0  0  0  0  0  0  0  0  0  0  0
  138.2085   77.4482  218.2237 H   0  0  0  0  0  0  0  0  0  0  0  0
  140.0558   78.9098  218.7469 H   0  0  0  0  0  0  0  0  0  0  0  0
  139.7487   77.8098  220.1598 H   0  0  0  0  0  0  0  0  0  0  0  0
  142.1131   77.9321  218.2974 H   0  0  0  0  0  0  0  0  0  0  0  0
  142.0739   77.6463  220.0442 H   0  0  0  0  0  0  0  0  0  0  0  0
  141.3843   75.7176  217.7620 H   0  0  0  0  0  0  0  0  0  0  0  0
  142.7820   75.5930  221.1370 H   0  0  0  0  0  0  0  0  0  0  0  0
  145.3693   74.8995  220.0766 H   0  0  0  0  0  0  0  0  0  0  0  0
  144.7755   74.6445  221.7456 H   0  0  0  0  0  0  0  0  0  0  0  0
  146.3770   73.0421  219.5061 H   0  0  0  0  0  0  0  0  0  0  0  0
  146.3595   70.6329  218.9588 H   0  0  0  0  0  0  0  0  0  0  0  0
  146.5963   68.9586  219.5017 H   0  0  0  0  0  0  0  0  0  0  0  0
  146.8536   66.5353  218.9016 H   0  0  0  0  0  0  0  0  0  0  0  0
  142.6408   66.1794  218.7078 H   0  0  0  0  0  0  0  0  0  0  0  0
  142.3066   68.5630  219.2929 H   0  0  0  0  0  0  0  0  0  0  0  0
  142.4466   70.2980  220.6702 H   0  0  0  0  0  0  0  0  0  0  0  0
  142.4485   72.7286  221.2327 H   0  0  0  0  0  0  0  0  0  0  0  0
  141.0452   72.8957  224.7983 H   0  0  0  0  0  0  0  0  0  0  0  0
  141.1404   72.1305  227.1381 H   0  0  0  0  0  0  0  0  0  0  0  0
  140.7839   70.3691  228.7466 H   0  0  0  0  0  0  0  0  0  0  0  0
  140.0748   68.0498  229.2723 H   0  0  0  0  0  0  0  0  0  0  0  0
  139.2908   66.5757  227.4306 H   0  0  0  0  0  0  0  0  0  0  0  0
  139.2280   67.4134  225.1145 H   0  0  0  0  0  0  0  0  0  0  0  0
  1  2  2  0
  2  3  1  0
  3  4  1  0
  4  5  1  0
  5  6  2  0
  5  7  1  0
  7  8  1  0
  8  9  1  0
  9 10  1  0
 10 11  1  0
 11 12  1  0
 12 13  1  0
 13 14  2  0
 13 15  1  0
 15 16  1  0
 16 17  1  0
 17 18  2  0
 18 19  1  0
 19 20  2  0
 20 21  1  0
 21 22  2  0
 22 23  1  0
 23 24  2  0
 24 25  1  0
 25 26  2  0
 20 27  1  0
 27 28  2  0
  2 29  1  0
 29 30  2  0
 30 31  1  0
 31 32  2  0
 32 33  1  0
 33 34  2  0
 34 35  1  0
 35 36  2  0
 36 37  1  0
 37 38  2  0
 12  7  1  0
 28 17  1  0
 38 29  1  0
 26 21  1  0
 37 32  1  0
  3 39  1  0
  4 40  1  0
  4 41  1  0
  8 42  1  0
  8 43  1  0
  9 44  1  0
  9 45  1  0
 10 46  1  0
 10 47  1  0
 11 48  1  0
 11 49  1  0
 12 50  1  6
 15 51  1  0
 16 52  1  0
 16 53  1  0
 18 54  1  0
 19 55  1  0
 22 56  1  0
 23 57  1  0
 25 58  1  0
 26 59  1  0
 27 60  1  0
 28 61  1  0
 30 62  1  0
 31 63  1  0
 33 64  1  0
 34 65  1  0
 35 66  1  0
 36 67  1  0
M  END
>  <smiles>  (50) 
O=C(NCC(=O)N1CCCC[C@H]1C(=O)NCc1ccc(-c2ccncc2)cc1)c1ccc2ccccc2n1

>  <score_type>  (50) 
oracle

>  <origin>  (50) 
autodockgpu

>  <m_score__min__energy>  (50) 
-10.5

>  <m_primary>  (50) 
energy

>  <rmsd>  (50) 
5.661450159238502

>  <m_score__min__rmsd>  (50) 
5.661450159238502

>  <meeko>  (50) 
{"free_energy": -9.18, "intermolecular_energy": -11.56, "internal_energy": -3.45, "cluster_size": 5, "cluster_id": 1, "rank_in_cluster": 5}

>  <energy>  (50) 
-6.55

>  <cluster_rmsd>  (50) 
0.0

>  <cluster>  (50) 
16

$$$$
