
     RDKit          3D

 64 69  0  0  0  0  0  0  0  0999 V2000
  145.2930   73.3470  219.4430 O   0  0  0  0  0  0  0  0  0  0  0  0
  144.3780   72.5250  219.7050 C   0  0  0  0  0  0  0  0  0  0  0  0
  144.4480   71.1840  219.2650 N   0  0  0  0  0  0  0  0  0  0  0  0
  145.5180   70.6130  218.5010 C   0  0  0  0  0  0  0  0  0  0  0  0
  145.5830   69.1290  218.5630 C   0  0  0  0  0  0  0  0  0  0  0  0
  144.8740   68.5310  219.6020 C   0  0  0  0  0  0  0  0  0  0  0  0
  144.9000   67.1420  219.7160 C   0  0  0  0  0  0  0  0  0  0  0  0
  145.5980   66.3940  218.8410 N   0  0  0  0  0  0  0  0  0  0  0  0
  146.2820   66.9980  217.8380 C   0  0  0  0  0  0  0  0  0  0  0  0
  146.2990   68.3660  217.6650 C   0  0  0  0  0  0  0  0  0  0  0  0
  143.2120   72.9810  220.4880 C   0  0  0  0  0  0  0  0  0  0  0  0
  142.8690   74.3180  220.4840 C   0  0  0  0  0  0  0  0  0  0  0  0
  141.7910   74.8020  221.2040 C   0  0  0  0  0  0  0  0  0  0  0  0
  141.4430   76.1810  221.1960 N   0  0  0  0  0  0  0  0  0  0  0  0
  141.5000   76.8770  219.9340 C   0  0  0  0  0  0  0  0  0  0  0  0
  141.3110   78.3490  220.0160 C   0  0  0  0  0  0  0  0  0  0  0  0
  141.5260   78.9410  221.3330 C   0  0  0  0  0  0  0  0  0  0  0  0
  141.8630   80.2750  221.4250 C   0  0  0  0  0  0  0  0  0  0  0  0
  142.0760   80.8830  222.6590 C   0  0  0  0  0  0  0  0  0  0  0  0
  141.9510   80.1460  223.8250 C   0  0  0  0  0  0  0  0  0  0  0  0
  141.6140   78.8110  223.7320 C   0  0  0  0  0  0  0  0  0  0  0  0
  141.4090   78.2330  222.5030 C   0  0  0  0  0  0  0  0  0  0  0  0
  141.0520   76.8040  222.4460 C   0  0  0  0  0  0  0  0  0  0  0  0
  141.0900   73.8940  221.9140 N   0  0  0  0  0  0  0  0  0  0  0  0
  141.4070   72.5850  221.9300 C   0  0  0  0  0  0  0  0  0  0  0  0
  140.5970   71.7160  222.7200 N   0  0  0  0  0  0  0  0  0  0  0  0
  139.7270   70.7750  222.0360 C   0  0  0  0  0  0  0  0  0  0  0  0
  138.4510   70.6260  222.8810 C   0  0  0  0  0  0  0  0  0  0  0  0
  138.9420   69.9900  224.1580 C   0  0  0  0  0  0  0  0  0  0  0  0
  138.3290   68.8750  224.6800 C   0  0  0  0  0  0  0  0  0  0  0  0
  138.8010   68.3090  225.8430 C   0  0  0  0  0  0  0  0  0  0  0  0
  139.8990   68.8980  226.4580 C   0  0  0  0  0  0  0  0  0  0  0  0
  140.5090   70.0300  225.9160 C   0  0  0  0  0  0  0  0  0  0  0  0
  140.0340   70.6050  224.7360 C   0  0  0  0  0  0  0  0  0  0  0  0
  140.6850   71.8120  224.1640 C   0  0  0  0  0  0  0  0  0  0  0  0
  142.4650   72.1410  221.2170 N   0  0  0  0  0  0  0  0  0  0  0  0
  143.6240   70.5660  219.5380 H   0  0  0  0  0  0  0  0  0  0  0  0
  145.3885   70.9096  217.4497 H   0  0  0  0  0  0  0  0  0  0  0  0
  146.4552   70.9902  218.9362 H   0  0  0  0  0  0  0  0  0  0  0  0
  144.3051   69.1423  220.3180 H   0  0  0  0  0  0  0  0  0  0  0  0
  144.3445   66.6520  220.5292 H   0  0  0  0  0  0  0  0  0  0  0  0
  146.8469   66.3705  217.1329 H   0  0  0  0  0  0  0  0  0  0  0  0
  146.8621   68.8307  216.8422 H   0  0  0  0  0  0  0  0  0  0  0  0
  143.4715   75.0208  219.8898 H   0  0  0  0  0  0  0  0  0  0  0  0
  142.4847   76.6846  219.4830 H   0  0  0  0  0  0  0  0  0  0  0  0
  140.6609   76.4936  219.3349 H   0  0  0  0  0  0  0  0  0  0  0  0
  142.0152   78.8200  219.3144 H   0  0  0  0  0  0  0  0  0  0  0  0
  140.2533   78.5301  219.7742 H   0  0  0  0  0  0  0  0  0  0  0  0
  141.9655   80.8701  220.5056 H   0  0  0  0  0  0  0  0  0  0  0  0
  142.3436   81.9488  222.7081 H   0  0  0  0  0  0  0  0  0  0  0  0
  142.1171   80.6155  224.8058 H   0  0  0  0  0  0  0  0  0  0  0  0
  141.5092   78.2075  224.6456 H   0  0  0  0  0  0  0  0  0  0  0  0
  141.5558   76.2817  223.2727 H   0  0  0  0  0  0  0  0  0  0  0  0
  139.9574   76.7305  222.5269 H   0  0  0  0  0  0  0  0  0  0  0  0
  139.4728   71.1571  221.0363 H   0  0  0  0  0  0  0  0  0  0  0  0
  140.2271   69.8027  221.9152 H   0  0  0  0  0  0  0  0  0  0  0  0
  137.9958   71.6072  223.0809 H   0  0  0  0  0  0  0  0  0  0  0  0
  137.6736   70.0311  222.3792 H   0  0  0  0  0  0  0  0  0  0  0  0
  137.4607   68.4349  224.1678 H   0  0  0  0  0  0  0  0  0  0  0  0
  138.3228   67.4165  226.2728 H   0  0  0  0  0  0  0  0  0  0  0  0
  140.2943   68.4643  227.3884 H   0  0  0  0  0  0  0  0  0  0  0  0
  141.3761   70.4754  226.4256 H   0  0  0  0  0  0  0  0  0  0  0  0
  140.1668   72.7178  224.5118 H   0  0  0  0  0  0  0  0  0  0  0  0
  141.7359   71.8716  224.4835 H   0  0  0  0  0  0  0  0  0  0  0  0
  1  2  2  0
  2  3  1  0
  3  4  1  0
  4  5  1  0
  5  6  2  0
  6  7  1  0
  7  8  2  0
  8  9  1  0
  9 10  2  0
  2 11  1  0
 11 12  2  0
 12 13  1  0
 13 14  1  0
 14 15  1  0
 15 16  1  0
 16 17  1  0
 17 18  2  0
 18 19  1  0
 19 20  2  0
 20 21  1  0
 21 22  2  0
 22 23  1  0
 13 24  2  0
 24 25  1  0
 25 26  1  0
 26 27  1  0
 27 28  1  0
 28 29  1  0
 29 30  2  0
 30 31  1  0
 31 32  2  0
 32 33  1  0
 33 34  2  0
 34 35  1  0
 25 36  2  0
 10  5  1  0
 36 11  1  0
 23 14  1  0
 35 26  1  0
 22 17  1  0
 34 29  1  0
  3 37  1  0
  4 38  1  0
  4 39  1  0
  6 40  1  0
  7 41  1  0
  9 42  1  0
 10 43  1  0
 12 44  1  0
 15 45  1  0
 15 46  1  0
 16 47  1  0
 16 48  1  0
 18 49  1  0
 19 50  1  0
 20 51  1  0
 21 52  1  0
 23 53  1  0
 23 54  1  0
 27 55  1  0
 27 56  1  0
 28 57  1  0
 28 58  1  0
 30 59  1  0
 31 60  1  0
 32 61  1  0
 33 62  1  0
 35 63  1  0
 35 64  1  0
M  END
>  <smiles>  (1) 
O=C(NCc1ccncc1)c1cc(N2CCc3ccccc3C2)nc(N2CCc3ccccc3C2)n1

>  <score_type>  (1) 
oracle

>  <origin>  (1) 
autodockgpu

>  <m_score__min__energy>  (1) 
-10.279999999999999

>  <m_primary>  (1) 
energy

>  <rmsd>  (1) 
11.210712840189105

>  <m_score__min__rmsd>  (1) 
11.210712840189105

>  <meeko>  (1) 
{"free_energy": -9.81, "intermolecular_energy": -11.3, "internal_energy": -1.13, "cluster_size": 19, "cluster_id": 2, "rank_in_cluster": 13}

>  <energy>  (1) 
-10.28

>  <cluster_rmsd>  (1) 
0.0

>  <cluster>  (1) 
1

$$$$

     RDKit          3D

 64 69  0  0  0  0  0  0  0  0999 V2000
  138.8510   76.1120  221.1310 O   0  0  0  0  0  0  0  0  0  0  0  0
  140.0790   76.0090  221.3860 C   0  0  0  0  0  0  0  0  0  0  0  0
  140.8910   77.1520  221.5610 N   0  0  0  0  0  0  0  0  0  0  0  0
  140.4450   78.5110  221.4740 C   0  0  0  0  0  0  0  0  0  0  0  0
  141.2100   79.4570  222.3300 C   0  0  0  0  0  0  0  0  0  0  0  0
  142.5930   79.2980  222.3280 C   0  0  0  0  0  0  0  0  0  0  0  0
  143.3640   80.1510  223.1150 C   0  0  0  0  0  0  0  0  0  0  0  0
  142.7840   81.1090  223.8630 N   0  0  0  0  0  0  0  0  0  0  0  0
  141.4360   81.2440  223.8490 C   0  0  0  0  0  0  0  0  0  0  0  0
  140.6120   80.4360  223.0940 C   0  0  0  0  0  0  0  0  0  0  0  0
  140.6720   74.6620  221.5030 C   0  0  0  0  0  0  0  0  0  0  0  0
  141.7630   74.3270  220.7280 C   0  0  0  0  0  0  0  0  0  0  0  0
  142.3550   73.0780  220.7910 C   0  0  0  0  0  0  0  0  0  0  0  0
  143.4790   72.7400  219.9900 N   0  0  0  0  0  0  0  0  0  0  0  0
  143.7650   73.5770  218.8520 C   0  0  0  0  0  0  0  0  0  0  0  0
  144.8300   73.0710  217.9470 C   0  0  0  0  0  0  0  0  0  0  0  0
  145.1320   71.6470  218.0610 C   0  0  0  0  0  0  0  0  0  0  0  0
  145.7010   70.9910  216.9900 C   0  0  0  0  0  0  0  0  0  0  0  0
  146.0080   69.6350  217.0540 C   0  0  0  0  0  0  0  0  0  0  0  0
  145.7430   68.9190  218.2090 C   0  0  0  0  0  0  0  0  0  0  0  0
  145.1730   69.5750  219.2800 C   0  0  0  0  0  0  0  0  0  0  0  0
  144.8790   70.9150  219.1930 C   0  0  0  0  0  0  0  0  0  0  0  0
  144.2690   71.5800  220.3590 C   0  0  0  0  0  0  0  0  0  0  0  0
  141.8050   72.1990  221.6560 N   0  0  0  0  0  0  0  0  0  0  0  0
  140.7420   72.5070  222.4220 C   0  0  0  0  0  0  0  0  0  0  0  0
  140.2420   71.4970  223.2980 N   0  0  0  0  0  0  0  0  0  0  0  0
  139.3830   70.4660  222.7410 C   0  0  0  0  0  0  0  0  0  0  0  0
  138.3460   70.0980  223.8160 C   0  0  0  0  0  0  0  0  0  0  0  0
  139.1770   69.4900  224.9180 C   0  0  0  0  0  0  0  0  0  0  0  0
  138.8450   68.2770  225.4760 C   0  0  0  0  0  0  0  0  0  0  0  0
  139.6240   67.7410  226.4760 C   0  0  0  0  0  0  0  0  0  0  0  0
  140.7380   68.4600  226.8940 C   0  0  0  0  0  0  0  0  0  0  0  0
  141.0600   69.6900  226.3200 C   0  0  0  0  0  0  0  0  0  0  0  0
  140.2730   70.2360  225.3040 C   0  0  0  0  0  0  0  0  0  0  0  0
  140.6190   71.5470  224.6970 C   0  0  0  0  0  0  0  0  0  0  0  0
  140.1840   73.7350  222.3390 N   0  0  0  0  0  0  0  0  0  0  0  0
  141.9170   76.9600  221.7740 H   0  0  0  0  0  0  0  0  0  0  0  0
  140.5380   78.8389  220.4281 H   0  0  0  0  0  0  0  0  0  0  0  0
  139.4055   78.5274  221.8334 H   0  0  0  0  0  0  0  0  0  0  0  0
  143.0673   78.5152  221.7178 H   0  0  0  0  0  0  0  0  0  0  0  0
  144.4584   80.0407  223.1255 H   0  0  0  0  0  0  0  0  0  0  0  0
  140.9793   82.0317  224.4662 H   0  0  0  0  0  0  0  0  0  0  0  0
  139.5199   80.5677  223.1012 H   0  0  0  0  0  0  0  0  0  0  0  0
  142.1757   75.0773  220.0375 H   0  0  0  0  0  0  0  0  0  0  0  0
  142.8405   73.6811  218.2650 H   0  0  0  0  0  0  0  0  0  0  0  0
  144.1364   74.5292  219.2586 H   0  0  0  0  0  0  0  0  0  0  0  0
  144.5158   73.2683  216.9114 H   0  0  0  0  0  0  0  0  0  0  0  0
  145.7497   73.5977  218.2413 H   0  0  0  0  0  0  0  0  0  0  0  0
  145.9164   71.5500  216.0674 H   0  0  0  0  0  0  0  0  0  0  0  0
  146.4612   69.1322  216.1869 H   0  0  0  0  0  0  0  0  0  0  0  0
  145.9825   67.8472  218.2713 H   0  0  0  0  0  0  0  0  0  0  0  0
  144.9530   69.0243  220.2065 H   0  0  0  0  0  0  0  0  0  0  0  0
  143.6171   70.8593  220.8744 H   0  0  0  0  0  0  0  0  0  0  0  0
  145.0854   71.9263  221.0098 H   0  0  0  0  0  0  0  0  0  0  0  0
  138.8742   70.8458  221.8427 H   0  0  0  0  0  0  0  0  0  0  0  0
  139.9732   69.5834  222.4536 H   0  0  0  0  0  0  0  0  0  0  0  0
  137.8155   70.9932  224.1726 H   0  0  0  0  0  0  0  0  0  0  0  0
  137.5672   69.4167  223.4428 H   0  0  0  0  0  0  0  0  0  0  0  0
  137.9556   67.7348  225.1223 H   0  0  0  0  0  0  0  0  0  0  0  0
  139.3724   66.7718  226.9313 H   0  0  0  0  0  0  0  0  0  0  0  0
  141.3767   68.0519  227.6912 H   0  0  0  0  0  0  0  0  0  0  0  0
  141.9464   70.2375  226.6728 H   0  0  0  0  0  0  0  0  0  0  0  0
  140.0683   72.3523  225.2051 H   0  0  0  0  0  0  0  0  0  0  0  0
  141.6957   71.7473  224.7994 H   0  0  0  0  0  0  0  0  0  0  0  0
  1  2  2  0
  2  3  1  0
  3  4  1  0
  4  5  1  0
  5  6  2  0
  6  7  1  0
  7  8  2  0
  8  9  1  0
  9 10  2  0
  2 11  1  0
 11 12  2  0
 12 13  1  0
 13 14  1  0
 14 15  1  0
 15 16  1  0
 16 17  1  0
 17 18  2  0
 18 19  1  0
 19 20  2  0
 20 21  1  0
 21 22  2  0
 22 23  1  0
 13 24  2  0
 24 25  1  0
 25 26  1  0
 26 27  1  0
 27 28  1  0
 28 29  1  0
 29 30  2  0
 30 31  1  0
 31 32  2  0
 32 33  1  0
 33 34  2  0
 34 35  1  0
 25 36  2  0
 10  5  1  0
 36 11  1  0
 23 14  1  0
 35 26  1  0
 22 17  1  0
 34 29  1  0
  3 37  1  0
  4 38  1  0
  4 39  1  0
  6 40  1  0
  7 41  1  0
  9 42  1  0
 10 43  1  0
 12 44  1  0
 15 45  1  0
 15 46  1  0
 16 47  1  0
 16 48  1  0
 18 49  1  0
 19 50  1  0
 20 51  1  0
 21 52  1  0
 23 53  1  0
 23 54  1  0
 27 55  1  0
 27 56  1  0
 28 57  1  0
 28 58  1  0
 30 59  1  0
 31 60  1  0
 32 61  1  0
 33 62  1  0
 35 63  1  0
 35 64  1  0
M  END
>  <smiles>  (2) 
O=C(NCc1ccncc1)c1cc(N2CCc3ccccc3C2)nc(N2CCc3ccccc3C2)n1

>  <score_type>  (2) 
oracle

>  <origin>  (2) 
autodockgpu

>  <m_score__min__energy>  (2) 
-10.279999999999999

>  <m_primary>  (2) 
energy

>  <rmsd>  (2) 
3.368741380689777

>  <m_score__min__rmsd>  (2) 
3.368741380689777

>  <meeko>  (2) 
{"free_energy": -10.28, "intermolecular_energy": -11.77, "internal_energy": -0.88, "cluster_size": 27, "cluster_id": 1, "rank_in_cluster": 1}

>  <energy>  (2) 
-10.27

>  <cluster_rmsd>  (2) 
0.09

>  <cluster>  (2) 
1

$$$$

     RDKit          3D

 64 69  0  0  0  0  0  0  0  0999 V2000
  138.8100   76.0530  221.3650 O   0  0  0  0  0  0  0  0  0  0  0  0
  140.0590   75.9520  221.4730 C   0  0  0  0  0  0  0  0  0  0  0  0
  140.8890   77.0950  221.4980 N   0  0  0  0  0  0  0  0  0  0  0  0
  140.4390   78.4530  221.4080 C   0  0  0  0  0  0  0  0  0  0  0  0
  141.1600   79.3920  222.3080 C   0  0  0  0  0  0  0  0  0  0  0  0
  142.5450   79.2510  222.3530 C   0  0  0  0  0  0  0  0  0  0  0  0
  143.2760   80.1000  223.1810 C   0  0  0  0  0  0  0  0  0  0  0  0
  142.6570   81.0360  223.9250 N   0  0  0  0  0  0  0  0  0  0  0  0
  141.3080   81.1540  223.8660 C   0  0  0  0  0  0  0  0  0  0  0  0
  140.5220   80.3500  223.0680 C   0  0  0  0  0  0  0  0  0  0  0  0
  140.6590   74.6060  221.5740 C   0  0  0  0  0  0  0  0  0  0  0  0
  141.7560   74.2890  220.8000 C   0  0  0  0  0  0  0  0  0  0  0  0
  142.3540   73.0420  220.8490 C   0  0  0  0  0  0  0  0  0  0  0  0
  143.4850   72.7210  220.0490 N   0  0  0  0  0  0  0  0  0  0  0  0
  143.7800   73.5840  218.9330 C   0  0  0  0  0  0  0  0  0  0  0  0
  144.8520   73.0980  218.0250 C   0  0  0  0  0  0  0  0  0  0  0  0
  145.1530   71.6720  218.1100 C   0  0  0  0  0  0  0  0  0  0  0  0
  145.7310   71.0400  217.0290 C   0  0  0  0  0  0  0  0  0  0  0  0
  146.0370   69.6820  217.0650 C   0  0  0  0  0  0  0  0  0  0  0  0
  145.7620   68.9400  218.2020 C   0  0  0  0  0  0  0  0  0  0  0  0
  145.1840   69.5730  219.2830 C   0  0  0  0  0  0  0  0  0  0  0  0
  144.8910   70.9140  219.2230 C   0  0  0  0  0  0  0  0  0  0  0  0
  144.2720   71.5530  220.3990 C   0  0  0  0  0  0  0  0  0  0  0  0
  141.8050   72.1480  221.6980 N   0  0  0  0  0  0  0  0  0  0  0  0
  140.7360   72.4390  222.4630 C   0  0  0  0  0  0  0  0  0  0  0  0
  140.2370   71.4140  223.3220 N   0  0  0  0  0  0  0  0  0  0  0  0
  139.4590   70.3390  222.7310 C   0  0  0  0  0  0  0  0  0  0  0  0
  138.3830   69.9310  223.7510 C   0  0  0  0  0  0  0  0  0  0  0  0
  139.1800   69.3730  224.9040 C   0  0  0  0  0  0  0  0  0  0  0  0
  138.8760   68.1500  225.4560 C   0  0  0  0  0  0  0  0  0  0  0  0
  139.6230   67.6610  226.5030 C   0  0  0  0  0  0  0  0  0  0  0  0
  140.6780   68.4350  226.9730 C   0  0  0  0  0  0  0  0  0  0  0  0
  140.9720   69.6740  226.4030 C   0  0  0  0  0  0  0  0  0  0  0  0
  140.2170   70.1730  225.3410 C   0  0  0  0  0  0  0  0  0  0  0  0
  140.5340   71.4930  224.7380 C   0  0  0  0  0  0  0  0  0  0  0  0
  140.1710   73.6650  222.3940 N   0  0  0  0  0  0  0  0  0  0  0  0
  141.9330   76.9050  221.5920 H   0  0  0  0  0  0  0  0  0  0  0  0
  140.5758   78.7944  220.3713 H   0  0  0  0  0  0  0  0  0  0  0  0
  139.3846   78.4594  221.7215 H   0  0  0  0  0  0  0  0  0  0  0  0
  143.0512   78.4850  221.7472 H   0  0  0  0  0  0  0  0  0  0  0  0
  144.3709   80.0046  223.2275 H   0  0  0  0  0  0  0  0  0  0  0  0
  140.8194   81.9241  224.4810 H   0  0  0  0  0  0  0  0  0  0  0  0
  139.4287   80.4680  223.0386 H   0  0  0  0  0  0  0  0  0  0  0  0
  142.1683   75.0513  220.1226 H   0  0  0  0  0  0  0  0  0  0  0  0
  142.8602   73.7022  218.3414 H   0  0  0  0  0  0  0  0  0  0  0  0
  144.1483   74.5266  219.3642 H   0  0  0  0  0  0  0  0  0  0  0  0
  144.5457   73.3181  216.9917 H   0  0  0  0  0  0  0  0  0  0  0  0
  145.7695   73.6181  218.3376 H   0  0  0  0  0  0  0  0  0  0  0  0
  145.9545   71.6196  216.1212 H   0  0  0  0  0  0  0  0  0  0  0  0
  146.4971   69.1985  216.1906 H   0  0  0  0  0  0  0  0  0  0  0  0
  145.9999   67.8668  218.2422 H   0  0  0  0  0  0  0  0  0  0  0  0
  144.9571   69.0024  220.1956 H   0  0  0  0  0  0  0  0  0  0  0  0
  143.6161   70.8213  220.8933 H   0  0  0  0  0  0  0  0  0  0  0  0
  145.0831   71.8845  221.0640 H   0  0  0  0  0  0  0  0  0  0  0  0
  138.9832   70.6867  221.8022 H   0  0  0  0  0  0  0  0  0  0  0  0
  140.1050   69.4829  222.4866 H   0  0  0  0  0  0  0  0  0  0  0  0
  137.7916   70.8027  224.0679 H   0  0  0  0  0  0  0  0  0  0  0  0
  137.6593   69.2099  223.3433 H   0  0  0  0  0  0  0  0  0  0  0  0
  138.0347   67.5624  225.0598 H   0  0  0  0  0  0  0  0  0  0  0  0
  139.3920   66.6853  226.9554 H   0  0  0  0  0  0  0  0  0  0  0  0
  141.2909   68.0644  227.8079 H   0  0  0  0  0  0  0  0  0  0  0  0
  141.8113   70.2662  226.7966 H   0  0  0  0  0  0  0  0  0  0  0  0
  139.9196   72.2760  225.2064 H   0  0  0  0  0  0  0  0  0  0  0  0
  141.5933   71.7439  224.8957 H   0  0  0  0  0  0  0  0  0  0  0  0
  1  2  2  0
  2  3  1  0
  3  4  1  0
  4  5  1  0
  5  6  2  0
  6  7  1  0
  7  8  2  0
  8  9  1  0
  9 10  2  0
  2 11  1  0
 11 12  2  0
 12 13  1  0
 13 14  1  0
 14 15  1  0
 15 16  1  0
 16 17  1  0
 17 18  2  0
 18 19  1  0
 19 20  2  0
 20 21  1  0
 21 22  2  0
 22 23  1  0
 13 24  2  0
 24 25  1  0
 25 26  1  0
 26 27  1  0
 27 28  1  0
 28 29  1  0
 29 30  2  0
 30 31  1  0
 31 32  2  0
 32 33  1  0
 33 34  2  0
 34 35  1  0
 25 36  2  0
 10  5  1  0
 36 11  1  0
 23 14  1  0
 35 26  1  0
 22 17  1  0
 34 29  1  0
  3 37  1  0
  4 38  1  0
  4 39  1  0
  6 40  1  0
  7 41  1  0
  9 42  1  0
 10 43  1  0
 12 44  1  0
 15 45  1  0
 15 46  1  0
 16 47  1  0
 16 48  1  0
 18 49  1  0
 19 50  1  0
 20 51  1  0
 21 52  1  0
 23 53  1  0
 23 54  1  0
 27 55  1  0
 27 56  1  0
 28 57  1  0
 28 58  1  0
 30 59  1  0
 31 60  1  0
 32 61  1  0
 33 62  1  0
 35 63  1  0
 35 64  1  0
M  END
>  <smiles>  (3) 
O=C(NCc1ccncc1)c1cc(N2CCc3ccccc3C2)nc(N2CCc3ccccc3C2)n1

>  <score_type>  (3) 
oracle

>  <origin>  (3) 
autodockgpu

>  <m_score__min__energy>  (3) 
-10.279999999999999

>  <m_primary>  (3) 
energy

>  <rmsd>  (3) 
3.395956153461217

>  <m_score__min__rmsd>  (3) 
3.395956153461217

>  <meeko>  (3) 
{"free_energy": -10.19, "intermolecular_energy": -11.68, "internal_energy": -0.89, "cluster_size": 27, "cluster_id": 1, "rank_in_cluster": 7}

>  <energy>  (3) 
-10.27

>  <cluster_rmsd>  (3) 
0.05

>  <cluster>  (3) 
1

$$$$

     RDKit          3D

 64 69  0  0  0  0  0  0  0  0999 V2000
  138.7210   75.7230  221.4990 O   0  0  0  0  0  0  0  0  0  0  0  0
  139.9740   75.6170  221.5350 C   0  0  0  0  0  0  0  0  0  0  0  0
  140.8100   76.7530  221.4460 N   0  0  0  0  0  0  0  0  0  0  0  0
  140.3620   78.1080  221.3080 C   0  0  0  0  0  0  0  0  0  0  0  0
  141.1350   79.0880  222.1170 C   0  0  0  0  0  0  0  0  0  0  0  0
  141.4690   78.6840  223.4070 C   0  0  0  0  0  0  0  0  0  0  0  0
  142.1890   79.5610  224.2150 C   0  0  0  0  0  0  0  0  0  0  0  0
  142.5540   80.7740  223.7600 N   0  0  0  0  0  0  0  0  0  0  0  0
  142.2170   81.1460  222.5000 C   0  0  0  0  0  0  0  0  0  0  0  0
  141.5070   80.3290  221.6460 C   0  0  0  0  0  0  0  0  0  0  0  0
  140.5720   74.2750  221.6750 C   0  0  0  0  0  0  0  0  0  0  0  0
  141.6070   73.8990  220.8430 C   0  0  0  0  0  0  0  0  0  0  0  0
  142.2000   72.6520  220.9250 C   0  0  0  0  0  0  0  0  0  0  0  0
  143.2670   72.2710  220.0650 N   0  0  0  0  0  0  0  0  0  0  0  0
  143.4520   73.0300  218.8540 C   0  0  0  0  0  0  0  0  0  0  0  0
  144.4540   72.4740  217.9070 C   0  0  0  0  0  0  0  0  0  0  0  0
  144.7880   71.0660  218.0960 C   0  0  0  0  0  0  0  0  0  0  0  0
  145.2850   70.3430  217.0320 C   0  0  0  0  0  0  0  0  0  0  0  0
  145.6190   68.9980  217.1660 C   0  0  0  0  0  0  0  0  0  0  0  0
  145.4540   68.3610  218.3840 C   0  0  0  0  0  0  0  0  0  0  0  0
  144.9550   69.0850  219.4480 C   0  0  0  0  0  0  0  0  0  0  0  0
  144.6330   70.4110  219.2910 C   0  0  0  0  0  0  0  0  0  0  0  0
  144.1020   71.1490  220.4520 C   0  0  0  0  0  0  0  0  0  0  0  0
  141.7110   71.8170  221.8660 N   0  0  0  0  0  0  0  0  0  0  0  0
  140.7030   72.1650  222.6880 C   0  0  0  0  0  0  0  0  0  0  0  0
  140.2640   71.2000  223.6430 N   0  0  0  0  0  0  0  0  0  0  0  0
  139.5670   70.0200  223.1590 C   0  0  0  0  0  0  0  0  0  0  0  0
  138.5090   69.6440  224.2100 C   0  0  0  0  0  0  0  0  0  0  0  0
  139.3270   69.2600  225.4170 C   0  0  0  0  0  0  0  0  0  0  0  0
  139.0990   68.0810  226.0880 C   0  0  0  0  0  0  0  0  0  0  0  0
  139.8640   67.7510  227.1830 C   0  0  0  0  0  0  0  0  0  0  0  0
  140.8580   68.6380  227.5780 C   0  0  0  0  0  0  0  0  0  0  0  0
  141.0760   69.8310  226.8880 C   0  0  0  0  0  0  0  0  0  0  0  0
  140.3030   70.1690  225.7770 C   0  0  0  0  0  0  0  0  0  0  0  0
  140.5370   71.4410  225.0460 C   0  0  0  0  0  0  0  0  0  0  0  0
  140.1420   73.3900  222.5860 N   0  0  0  0  0  0  0  0  0  0  0  0
  141.8570   76.5590  221.4870 H   0  0  0  0  0  0  0  0  0  0  0  0
  140.4444   78.3930  220.2488 H   0  0  0  0  0  0  0  0  0  0  0  0
  139.3261   78.1390  221.6767 H   0  0  0  0  0  0  0  0  0  0  0  0
  141.1706   77.6932  223.7802 H   0  0  0  0  0  0  0  0  0  0  0  0
  142.4624   79.2587  225.2367 H   0  0  0  0  0  0  0  0  0  0  0  0
  142.5229   82.1411  222.1446 H   0  0  0  0  0  0  0  0  0  0  0  0
  141.2474   80.6549  220.6280 H   0  0  0  0  0  0  0  0  0  0  0  0
  141.9720   74.6137  220.0907 H   0  0  0  0  0  0  0  0  0  0  0  0
  142.4842   73.0825  218.3338 H   0  0  0  0  0  0  0  0  0  0  0  0
  143.8369   74.0125  219.1646 H   0  0  0  0  0  0  0  0  0  0  0  0
  144.0589   72.5940  216.8875 H   0  0  0  0  0  0  0  0  0  0  0  0
  145.3842   73.0311  218.0924 H   0  0  0  0  0  0  0  0  0  0  0  0
  145.4201   70.8383  216.0591 H   0  0  0  0  0  0  0  0  0  0  0  0
  146.0142   68.4412  216.3036 H   0  0  0  0  0  0  0  0  0  0  0  0
  145.7153   67.2990  218.5015 H   0  0  0  0  0  0  0  0  0  0  0  0
  144.8148   68.5986  220.4246 H   0  0  0  0  0  0  0  0  0  0  0  0
  143.5032   70.4588  221.0645 H   0  0  0  0  0  0  0  0  0  0  0  0
  144.9593   71.5493  221.0131 H   0  0  0  0  0  0  0  0  0  0  0  0
  139.0797   70.2396  222.1976 H   0  0  0  0  0  0  0  0  0  0  0  0
  140.2720   69.1898  223.0049 H   0  0  0  0  0  0  0  0  0  0  0  0
  137.8568   70.5009  224.4343 H   0  0  0  0  0  0  0  0  0  0  0  0
  137.8406   68.8379  223.8733 H   0  0  0  0  0  0  0  0  0  0  0  0
  138.3038   67.4009  225.7486 H   0  0  0  0  0  0  0  0  0  0  0  0
  139.6936   66.8120  227.7300 H   0  0  0  0  0  0  0  0  0  0  0  0
  141.4837   68.3955  228.4496 H   0  0  0  0  0  0  0  0  0  0  0  0
  141.8689   70.5149  227.2250 H   0  0  0  0  0  0  0  0  0  0  0  0
  139.8647   72.2226  225.4296 H   0  0  0  0  0  0  0  0  0  0  0  0
  141.5746   71.7792  225.1839 H   0  0  0  0  0  0  0  0  0  0  0  0
  1  2  2  0
  2  3  1  0
  3  4  1  0
  4  5  1  0
  5  6  2  0
  6  7  1  0
  7  8  2  0
  8  9  1  0
  9 10  2  0
  2 11  1  0
 11 12  2  0
 12 13  1  0
 13 14  1  0
 14 15  1  0
 15 16  1  0
 16 17  1  0
 17 18  2  0
 18 19  1  0
 19 20  2  0
 20 21  1  0
 21 22  2  0
 22 23  1  0
 13 24  2  0
 24 25  1  0
 25 26  1  0
 26 27  1  0
 27 28  1  0
 28 29  1  0
 29 30  2  0
 30 31  1  0
 31 32  2  0
 32 33  1  0
 33 34  2  0
 34 35  1  0
 25 36  2  0
 10  5  1  0
 36 11  1  0
 23 14  1  0
 35 26  1  0
 22 17  1  0
 34 29  1  0
  3 37  1  0
  4 38  1  0
  4 39  1  0
  6 40  1  0
  7 41  1  0
  9 42  1  0
 10 43  1  0
 12 44  1  0
 15 45  1  0
 15 46  1  0
 16 47  1  0
 16 48  1  0
 18 49  1  0
 19 50  1  0
 20 51  1  0
 21 52  1  0
 23 53  1  0
 23 54  1  0
 27 55  1  0
 27 56  1  0
 28 57  1  0
 28 58  1  0
 30 59  1  0
 31 60  1  0
 32 61  1  0
 33 62  1  0
 35 63  1  0
 35 64  1  0
M  END
>  <smiles>  (4) 
O=C(NCc1ccncc1)c1cc(N2CCc3ccccc3C2)nc(N2CCc3ccccc3C2)n1

>  <score_type>  (4) 
oracle

>  <origin>  (4) 
autodockgpu

>  <m_score__min__energy>  (4) 
-10.279999999999999

>  <m_primary>  (4) 
energy

>  <rmsd>  (4) 
3.895704402018622

>  <m_score__min__rmsd>  (4) 
3.895704402018622

>  <meeko>  (4) 
{"free_energy": -10.01, "intermolecular_energy": -11.5, "internal_energy": -0.9, "cluster_size": 27, "cluster_id": 1, "rank_in_cluster": 11}

>  <energy>  (4) 
-10.24

>  <cluster_rmsd>  (4) 
0.17

>  <cluster>  (4) 
1

$$$$

     RDKit          3D

 64 69  0  0  0  0  0  0  0  0999 V2000
  139.8480   70.0860  222.0760 O   0  0  0  0  0  0  0  0  0  0  0  0
  139.7400   71.1870  222.6750 C   0  0  0  0  0  0  0  0  0  0  0  0
  139.0140   71.2970  223.8820 N   0  0  0  0  0  0  0  0  0  0  0  0
  138.3360   70.2240  224.5480 C   0  0  0  0  0  0  0  0  0  0  0  0
  139.1870   69.4700  225.5060 C   0  0  0  0  0  0  0  0  0  0  0  0
  139.9600   70.2410  226.3710 C   0  0  0  0  0  0  0  0  0  0  0  0
  140.7810   69.5920  227.2900 C   0  0  0  0  0  0  0  0  0  0  0  0
  140.8300   68.2470  227.3400 N   0  0  0  0  0  0  0  0  0  0  0  0
  140.0690   67.5180  226.4870 C   0  0  0  0  0  0  0  0  0  0  0  0
  139.2330   68.0930  225.5540 C   0  0  0  0  0  0  0  0  0  0  0  0
  140.3920   72.3800  222.0980 C   0  0  0  0  0  0  0  0  0  0  0  0
  141.4880   72.2270  221.2740 C   0  0  0  0  0  0  0  0  0  0  0  0
  142.1410   73.3080  220.7110 C   0  0  0  0  0  0  0  0  0  0  0  0
  143.2690   73.1430  219.8610 N   0  0  0  0  0  0  0  0  0  0  0  0
  143.3620   73.9950  218.7010 C   0  0  0  0  0  0  0  0  0  0  0  0
  144.4540   73.6530  217.7530 C   0  0  0  0  0  0  0  0  0  0  0  0
  144.9920   72.3010  217.8690 C   0  0  0  0  0  0  0  0  0  0  0  0
  145.6130   71.7270  216.7800 C   0  0  0  0  0  0  0  0  0  0  0  0
  146.1420   70.4410  216.8450 C   0  0  0  0  0  0  0  0  0  0  0  0
  146.0500   69.7130  218.0190 C   0  0  0  0  0  0  0  0  0  0  0  0
  145.4280   70.2880  219.1090 C   0  0  0  0  0  0  0  0  0  0  0  0
  144.9130   71.5580  219.0200 C   0  0  0  0  0  0  0  0  0  0  0  0
  144.2550   72.1360  220.2060 C   0  0  0  0  0  0  0  0  0  0  0  0
  141.6480   74.5280  221.0120 N   0  0  0  0  0  0  0  0  0  0  0  0
  140.5790   74.6990  221.8130 C   0  0  0  0  0  0  0  0  0  0  0  0
  140.1480   76.0350  222.0670 N   0  0  0  0  0  0  0  0  0  0  0  0
  138.8090   76.2380  222.5930 C   0  0  0  0  0  0  0  0  0  0  0  0
  138.2690   77.5470  221.9940 C   0  0  0  0  0  0  0  0  0  0  0  0
  139.1800   78.6030  222.5700 C   0  0  0  0  0  0  0  0  0  0  0  0
  138.6720   79.7310  223.1720 C   0  0  0  0  0  0  0  0  0  0  0  0
  139.5250   80.6770  223.6960 C   0  0  0  0  0  0  0  0  0  0  0  0
  140.8920   80.4530  223.5940 C   0  0  0  0  0  0  0  0  0  0  0  0
  141.3910   79.3040  222.9780 C   0  0  0  0  0  0  0  0  0  0  0  0
  140.5300   78.3430  222.4470 C   0  0  0  0  0  0  0  0  0  0  0  0
  141.0660   77.1220  221.7910 C   0  0  0  0  0  0  0  0  0  0  0  0
  139.9610   73.6230  222.3500 N   0  0  0  0  0  0  0  0  0  0  0  0
  138.9810   72.2710  224.3130 H   0  0  0  0  0  0  0  0  0  0  0  0
  137.4830   70.6446  225.1007 H   0  0  0  0  0  0  0  0  0  0  0  0
  138.0277   69.5114  223.7688 H   0  0  0  0  0  0  0  0  0  0  0  0
  139.9228   71.3396  226.3292 H   0  0  0  0  0  0  0  0  0  0  0  0
  141.3964   70.1847  227.9828 H   0  0  0  0  0  0  0  0  0  0  0  0
  140.1209   66.4206  226.5418 H   0  0  0  0  0  0  0  0  0  0  0  0
  138.6261   67.4770  224.8741 H   0  0  0  0  0  0  0  0  0  0  0  0
  141.8541   71.2124  221.0580 H   0  0  0  0  0  0  0  0  0  0  0  0
  142.4077   73.9355  218.1572 H   0  0  0  0  0  0  0  0  0  0  0  0
  143.5891   75.0028  219.0788 H   0  0  0  0  0  0  0  0  0  0  0  0
  144.0654   73.7757  216.7313 H   0  0  0  0  0  0  0  0  0  0  0  0
  145.2864   74.3292  217.9976 H   0  0  0  0  0  0  0  0  0  0  0  0
  145.6919   72.2961  215.8420 H   0  0  0  0  0  0  0  0  0  0  0  0
  146.6332   70.0032  215.9635 H   0  0  0  0  0  0  0  0  0  0  0  0
  146.4645   68.6960  218.0820 H   0  0  0  0  0  0  0  0  0  0  0  0
  145.3446   69.7273  220.0517 H   0  0  0  0  0  0  0  0  0  0  0  0
  143.7547   71.3282  220.7602 H   0  0  0  0  0  0  0  0  0  0  0  0
  145.0314   72.6239  220.8135 H   0  0  0  0  0  0  0  0  0  0  0  0
  138.1608   75.3976  222.3040 H   0  0  0  0  0  0  0  0  0  0  0  0
  138.8294   76.2947  223.6913 H   0  0  0  0  0  0  0  0  0  0  0  0
  138.3309   77.5314  220.8959 H   0  0  0  0  0  0  0  0  0  0  0  0
  137.2092   77.7207  222.2319 H   0  0  0  0  0  0  0  0  0  0  0  0
  137.5836   79.8775  223.2349 H   0  0  0  0  0  0  0  0  0  0  0  0
  139.1349   81.5838  224.1813 H   0  0  0  0  0  0  0  0  0  0  0  0
  141.5934   81.1937  224.0057 H   0  0  0  0  0  0  0  0  0  0  0  0
  142.4786   79.1541  222.9102 H   0  0  0  0  0  0  0  0  0  0  0  0
  141.1414   77.2823  220.7054 H   0  0  0  0  0  0  0  0  0  0  0  0
  142.0692   76.8864  222.1759 H   0  0  0  0  0  0  0  0  0  0  0  0
  1  2  2  0
  2  3  1  0
  3  4  1  0
  4  5  1  0
  5  6  2  0
  6  7  1  0
  7  8  2  0
  8  9  1  0
  9 10  2  0
  2 11  1  0
 11 12  2  0
 12 13  1  0
 13 14  1  0
 14 15  1  0
 15 16  1  0
 16 17  1  0
 17 18  2  0
 18 19  1  0
 19 20  2  0
 20 21  1  0
 21 22  2  0
 22 23  1  0
 13 24  2  0
 24 25  1  0
 25 26  1  0
 26 27  1  0
 27 28  1  0
 28 29  1  0
 29 30  2  0
 30 31  1  0
 31 32  2  0
 32 33  1  0
 33 34  2  0
 34 35  1  0
 25 36  2  0
 10  5  1  0
 36 11  1  0
 23 14  1  0
 35 26  1  0
 22 17  1  0
 34 29  1  0
  3 37  1  0
  4 38  1  0
  4 39  1  0
  6 40  1  0
  7 41  1  0
  9 42  1  0
 10 43  1  0
 12 44  1  0
 15 45  1  0
 15 46  1  0
 16 47  1  0
 16 48  1  0
 18 49  1  0
 19 50  1  0
 20 51  1  0
 21 52  1  0
 23 53  1  0
 23 54  1  0
 27 55  1  0
 27 56  1  0
 28 57  1  0
 28 58  1  0
 30 59  1  0
 31 60  1  0
 32 61  1  0
 33 62  1  0
 35 63  1  0
 35 64  1  0
M  END
>  <smiles>  (5) 
O=C(NCc1ccncc1)c1cc(N2CCc3ccccc3C2)nc(N2CCc3ccccc3C2)n1

>  <score_type>  (5) 
oracle

>  <origin>  (5) 
autodockgpu

>  <m_score__min__energy>  (5) 
-10.279999999999999

>  <m_primary>  (5) 
energy

>  <rmsd>  (5) 
10.36119672782961

>  <m_score__min__rmsd>  (5) 
10.36119672782961

>  <meeko>  (5) 
{"free_energy": -9.3, "intermolecular_energy": -10.8, "internal_energy": -1.23, "cluster_size": 2, "cluster_id": 3, "rank_in_cluster": 2}

>  <energy>  (5) 
-10.2

>  <cluster_rmsd>  (5) 
0.14

>  <cluster>  (5) 
1

$$$$

     RDKit          3D

 64 69  0  0  0  0  0  0  0  0999 V2000
  138.8350   76.1180  221.1750 O   0  0  0  0  0  0  0  0  0  0  0  0
  140.0680   76.0200  221.4080 C   0  0  0  0  0  0  0  0  0  0  0  0
  140.8810   77.1660  221.5510 N   0  0  0  0  0  0  0  0  0  0  0  0
  140.4320   78.5240  221.4550 C   0  0  0  0  0  0  0  0  0  0  0  0
  141.1830   79.4750  222.3160 C   0  0  0  0  0  0  0  0  0  0  0  0
  142.5690   79.3310  222.3180 C   0  0  0  0  0  0  0  0  0  0  0  0
  143.3290   80.1900  223.1080 C   0  0  0  0  0  0  0  0  0  0  0  0
  142.7360   81.1400  223.8570 N   0  0  0  0  0  0  0  0  0  0  0  0
  141.3860   81.2610  223.8390 C   0  0  0  0  0  0  0  0  0  0  0  0
  140.5730   80.4470  223.0800 C   0  0  0  0  0  0  0  0  0  0  0  0
  140.6650   74.6750  221.5310 C   0  0  0  0  0  0  0  0  0  0  0  0
  141.7570   74.3400  220.7570 C   0  0  0  0  0  0  0  0  0  0  0  0
  142.3530   73.0940  220.8260 C   0  0  0  0  0  0  0  0  0  0  0  0
  143.4780   72.7550  220.0250 N   0  0  0  0  0  0  0  0  0  0  0  0
  143.7750   73.6020  218.8970 C   0  0  0  0  0  0  0  0  0  0  0  0
  144.8390   73.0970  217.9910 C   0  0  0  0  0  0  0  0  0  0  0  0
  145.1300   71.6700  218.0920 C   0  0  0  0  0  0  0  0  0  0  0  0
  145.6980   71.0200  217.0160 C   0  0  0  0  0  0  0  0  0  0  0  0
  145.9940   69.6610  217.0670 C   0  0  0  0  0  0  0  0  0  0  0  0
  145.7180   68.9350  218.2130 C   0  0  0  0  0  0  0  0  0  0  0  0
  145.1490   69.5850  219.2890 C   0  0  0  0  0  0  0  0  0  0  0  0
  144.8660   70.9270  219.2150 C   0  0  0  0  0  0  0  0  0  0  0  0
  144.2570   71.5850  220.3850 C   0  0  0  0  0  0  0  0  0  0  0  0
  141.8070   72.2180  221.6960 N   0  0  0  0  0  0  0  0  0  0  0  0
  140.7430   72.5250  222.4610 C   0  0  0  0  0  0  0  0  0  0  0  0
  140.2480   71.5190  223.3430 N   0  0  0  0  0  0  0  0  0  0  0  0
  139.3930   70.4810  222.7920 C   0  0  0  0  0  0  0  0  0  0  0  0
  138.3570   70.1150  223.8690 C   0  0  0  0  0  0  0  0  0  0  0  0
  139.1910   69.5170  224.9750 C   0  0  0  0  0  0  0  0  0  0  0  0
  138.8640   68.3050  225.5390 C   0  0  0  0  0  0  0  0  0  0  0  0
  139.6450   67.7780  226.5420 C   0  0  0  0  0  0  0  0  0  0  0  0
  140.7560   68.5030  226.9560 C   0  0  0  0  0  0  0  0  0  0  0  0
  141.0730   69.7320  226.3750 C   0  0  0  0  0  0  0  0  0  0  0  0
  140.2840   70.2690  225.3560 C   0  0  0  0  0  0  0  0  0  0  0  0
  140.6250   71.5770  224.7410 C   0  0  0  0  0  0  0  0  0  0  0  0
  140.1810   73.7510  222.3720 N   0  0  0  0  0  0  0  0  0  0  0  0
  141.9120   76.9790  221.7470 H   0  0  0  0  0  0  0  0  0  0  0  0
  140.5361   78.8489  220.4093 H   0  0  0  0  0  0  0  0  0  0  0  0
  139.3886   78.5379  221.8030 H   0  0  0  0  0  0  0  0  0  0  0  0
  143.0532   78.5543  221.7078 H   0  0  0  0  0  0  0  0  0  0  0  0
  144.4245   80.0918  223.1206 H   0  0  0  0  0  0  0  0  0  0  0  0
  140.9193   82.0424  224.4567 H   0  0  0  0  0  0  0  0  0  0  0  0
  139.4797   80.5682  223.0837 H   0  0  0  0  0  0  0  0  0  0  0  0
  142.1668   75.0882  220.0626 H   0  0  0  0  0  0  0  0  0  0  0  0
  142.8536   73.7199  218.3078 H   0  0  0  0  0  0  0  0  0  0  0  0
  144.1523   74.5469  219.3151 H   0  0  0  0  0  0  0  0  0  0  0  0
  144.5299   73.3068  216.9564 H   0  0  0  0  0  0  0  0  0  0  0  0
  145.7616   73.6139  218.2936 H   0  0  0  0  0  0  0  0  0  0  0  0
  145.9213   71.5867  216.1000 H   0  0  0  0  0  0  0  0  0  0  0  0
  146.4472   69.1638  216.1967 H   0  0  0  0  0  0  0  0  0  0  0  0
  145.9479   67.8605  218.2648 H   0  0  0  0  0  0  0  0  0  0  0  0
  144.9213   69.0266  220.2090 H   0  0  0  0  0  0  0  0  0  0  0  0
  143.5973   70.8645  220.8906 H   0  0  0  0  0  0  0  0  0  0  0  0
  145.0737   71.9181  221.0423 H   0  0  0  0  0  0  0  0  0  0  0  0
  138.8829   70.8534  221.8914 H   0  0  0  0  0  0  0  0  0  0  0  0
  139.9869   69.5990  222.5102 H   0  0  0  0  0  0  0  0  0  0  0  0
  137.8226   71.0100  224.2202 H   0  0  0  0  0  0  0  0  0  0  0  0
  137.5811   69.4283  223.4998 H   0  0  0  0  0  0  0  0  0  0  0  0
  137.9774   67.7569  225.1877 H   0  0  0  0  0  0  0  0  0  0  0  0
  139.3970   66.8105  227.0029 H   0  0  0  0  0  0  0  0  0  0  0  0
  141.3965   68.1015  227.7551 H   0  0  0  0  0  0  0  0  0  0  0  0
  141.9570   70.2853  226.7250 H   0  0  0  0  0  0  0  0  0  0  0  0
  140.0719   72.3833  225.2449 H   0  0  0  0  0  0  0  0  0  0  0  0
  141.7013   71.7806  224.8413 H   0  0  0  0  0  0  0  0  0  0  0  0
  1  2  2  0
  2  3  1  0
  3  4  1  0
  4  5  1  0
  5  6  2  0
  6  7  1  0
  7  8  2  0
  8  9  1  0
  9 10  2  0
  2 11  1  0
 11 12  2  0
 12 13  1  0
 13 14  1  0
 14 15  1  0
 15 16  1  0
 16 17  1  0
 17 18  2  0
 18 19  1  0
 19 20  2  0
 20 21  1  0
 21 22  2  0
 22 23  1  0
 13 24  2  0
 24 25  1  0
 25 26  1  0
 26 27  1  0
 27 28  1  0
 28 29  1  0
 29 30  2  0
 30 31  1  0
 31 32  2  0
 32 33  1  0
 33 34  2  0
 34 35  1  0
 25 36  2  0
 10  5  1  0
 36 11  1  0
 23 14  1  0
 35 26  1  0
 22 17  1  0
 34 29  1  0
  3 37  1  0
  4 38  1  0
  4 39  1  0
  6 40  1  0
  7 41  1  0
  9 42  1  0
 10 43  1  0
 12 44  1  0
 15 45  1  0
 15 46  1  0
 16 47  1  0
 16 48  1  0
 18 49  1  0
 19 50  1  0
 20 51  1  0
 21 52  1  0
 23 53  1  0
 23 54  1  0
 27 55  1  0
 27 56  1  0
 28 57  1  0
 28 58  1  0
 30 59  1  0
 31 60  1  0
 32 61  1  0
 33 62  1  0
 35 63  1  0
 35 64  1  0
M  END
>  <smiles>  (6) 
O=C(NCc1ccncc1)c1cc(N2CCc3ccccc3C2)nc(N2CCc3ccccc3C2)n1

>  <score_type>  (6) 
oracle

>  <origin>  (6) 
autodockgpu

>  <m_score__min__energy>  (6) 
-10.279999999999999

>  <m_primary>  (6) 
energy

>  <rmsd>  (6) 
3.3537584514002505

>  <m_score__min__rmsd>  (6) 
3.3537584514002505

>  <meeko>  (6) 
{"free_energy": -10.27, "intermolecular_energy": -11.76, "internal_energy": -0.88, "cluster_size": 27, "cluster_id": 1, "rank_in_cluster": 3}

>  <energy>  (6) 
-10.2

>  <cluster_rmsd>  (6) 
0.2

>  <cluster>  (6) 
1

$$$$

     RDKit          3D

 64 69  0  0  0  0  0  0  0  0999 V2000
  138.9010   76.0730  220.8630 O   0  0  0  0  0  0  0  0  0  0  0  0
  140.0220   75.9590  221.4230 C   0  0  0  0  0  0  0  0  0  0  0  0
  140.6970   77.0820  221.9500 N   0  0  0  0  0  0  0  0  0  0  0  0
  140.2190   78.4330  221.9180 C   0  0  0  0  0  0  0  0  0  0  0  0
  141.0970   79.4060  222.6200 C   0  0  0  0  0  0  0  0  0  0  0  0
  142.4670   79.2330  222.4360 C   0  0  0  0  0  0  0  0  0  0  0  0
  143.3420   80.1110  223.0720 C   0  0  0  0  0  0  0  0  0  0  0  0
  142.8740   81.1050  223.8500 N   0  0  0  0  0  0  0  0  0  0  0  0
  141.5370   81.2530  224.0150 C   0  0  0  0  0  0  0  0  0  0  0  0
  140.6140   80.4220  223.4160 C   0  0  0  0  0  0  0  0  0  0  0  0
  140.6340   74.6190  221.5250 C   0  0  0  0  0  0  0  0  0  0  0  0
  141.7290   74.3080  220.7450 C   0  0  0  0  0  0  0  0  0  0  0  0
  142.3380   73.0670  220.7940 C   0  0  0  0  0  0  0  0  0  0  0  0
  143.4670   72.7530  219.9880 N   0  0  0  0  0  0  0  0  0  0  0  0
  143.7220   73.5890  218.8420 C   0  0  0  0  0  0  0  0  0  0  0  0
  144.7940   73.1040  217.9330 C   0  0  0  0  0  0  0  0  0  0  0  0
  145.1360   71.6910  218.0570 C   0  0  0  0  0  0  0  0  0  0  0  0
  145.7160   71.0420  216.9880 C   0  0  0  0  0  0  0  0  0  0  0  0
  146.0600   69.6950  217.0600 C   0  0  0  0  0  0  0  0  0  0  0  0
  145.8220   68.9810  218.2220 C   0  0  0  0  0  0  0  0  0  0  0  0
  145.2420   69.6310  219.2920 C   0  0  0  0  0  0  0  0  0  0  0  0
  144.9100   70.9610  219.1960 C   0  0  0  0  0  0  0  0  0  0  0  0
  144.2910   71.6180  220.3610 C   0  0  0  0  0  0  0  0  0  0  0  0
  141.8030   72.1720  221.6510 N   0  0  0  0  0  0  0  0  0  0  0  0
  140.7360   72.4560  222.4220 C   0  0  0  0  0  0  0  0  0  0  0  0
  140.2520   71.4300  223.2880 N   0  0  0  0  0  0  0  0  0  0  0  0
  139.4970   70.3350  222.7030 C   0  0  0  0  0  0  0  0  0  0  0  0
  138.4240   69.9170  223.7220 C   0  0  0  0  0  0  0  0  0  0  0  0
  139.2260   69.3850  224.8840 C   0  0  0  0  0  0  0  0  0  0  0  0
  138.9410   68.1620  225.4460 C   0  0  0  0  0  0  0  0  0  0  0  0
  139.6930   67.6960  226.5020 C   0  0  0  0  0  0  0  0  0  0  0  0
  140.7300   68.4940  226.9690 C   0  0  0  0  0  0  0  0  0  0  0  0
  141.0050   69.7330  226.3890 C   0  0  0  0  0  0  0  0  0  0  0  0
  140.2460   70.2080  225.3180 C   0  0  0  0  0  0  0  0  0  0  0  0
  140.5410   71.5280  224.7040 C   0  0  0  0  0  0  0  0  0  0  0  0
  140.1610   73.6770  222.3520 N   0  0  0  0  0  0  0  0  0  0  0  0
  141.6400   76.8820  222.4040 H   0  0  0  0  0  0  0  0  0  0  0  0
  140.1315   78.7433  220.8663 H   0  0  0  0  0  0  0  0  0  0  0  0
  139.2538   78.4398  222.4456 H   0  0  0  0  0  0  0  0  0  0  0  0
  142.8500   78.4200  221.8017 H   0  0  0  0  0  0  0  0  0  0  0  0
  144.4270   79.9907  222.9370 H   0  0  0  0  0  0  0  0  0  0  0  0
  141.1726   82.0709  224.6540 H   0  0  0  0  0  0  0  0  0  0  0  0
  139.5339   80.5645  223.5677 H   0  0  0  0  0  0  0  0  0  0  0  0
  142.1305   75.0714  220.0624 H   0  0  0  0  0  0  0  0  0  0  0  0
  142.7909   73.6641  218.2611 H   0  0  0  0  0  0  0  0  0  0  0  0
  144.0703   74.5541  219.2385 H   0  0  0  0  0  0  0  0  0  0  0  0
  144.4667   73.2832  216.8982 H   0  0  0  0  0  0  0  0  0  0  0  0
  145.7010   73.6584  218.2156 H   0  0  0  0  0  0  0  0  0  0  0  0
  145.9108   71.5994  216.0599 H   0  0  0  0  0  0  0  0  0  0  0  0
  146.5209   69.1980  216.1937 H   0  0  0  0  0  0  0  0  0  0  0  0
  146.0900   67.9164  218.2909 H   0  0  0  0  0  0  0  0  0  0  0  0
  145.0447   69.0827  220.2250 H   0  0  0  0  0  0  0  0  0  0  0  0
  143.6628   70.8841  220.8870 H   0  0  0  0  0  0  0  0  0  0  0  0
  145.1021   71.9914  221.0034 H   0  0  0  0  0  0  0  0  0  0  0  0
  139.0193   70.6651  221.7687 H   0  0  0  0  0  0  0  0  0  0  0  0
  140.1598   69.4888  222.4693 H   0  0  0  0  0  0  0  0  0  0  0  0
  137.8151   70.7806  224.0277 H   0  0  0  0  0  0  0  0  0  0  0  0
  137.7156   69.1787  223.3181 H   0  0  0  0  0  0  0  0  0  0  0  0
  138.1120   67.5558  225.0518 H   0  0  0  0  0  0  0  0  0  0  0  0
  139.4786   66.7202  226.9622 H   0  0  0  0  0  0  0  0  0  0  0  0
  141.3450   68.1429  227.8107 H   0  0  0  0  0  0  0  0  0  0  0  0
  141.8314   70.3439  226.7812 H   0  0  0  0  0  0  0  0  0  0  0  0
  139.9099   72.3037  225.1623 H   0  0  0  0  0  0  0  0  0  0  0  0
  141.5947   71.8003  224.8640 H   0  0  0  0  0  0  0  0  0  0  0  0
  1  2  2  0
  2  3  1  0
  3  4  1  0
  4  5  1  0
  5  6  2  0
  6  7  1  0
  7  8  2  0
  8  9  1  0
  9 10  2  0
  2 11  1  0
 11 12  2  0
 12 13  1  0
 13 14  1  0
 14 15  1  0
 15 16  1  0
 16 17  1  0
 17 18  2  0
 18 19  1  0
 19 20  2  0
 20 21  1  0
 21 22  2  0
 22 23  1  0
 13 24  2  0
 24 25  1  0
 25 26  1  0
 26 27  1  0
 27 28  1  0
 28 29  1  0
 29 30  2  0
 30 31  1  0
 31 32  2  0
 32 33  1  0
 33 34  2  0
 34 35  1  0
 25 36  2  0
 10  5  1  0
 36 11  1  0
 23 14  1  0
 35 26  1  0
 22 17  1  0
 34 29  1  0
  3 37  1  0
  4 38  1  0
  4 39  1  0
  6 40  1  0
  7 41  1  0
  9 42  1  0
 10 43  1  0
 12 44  1  0
 15 45  1  0
 15 46  1  0
 16 47  1  0
 16 48  1  0
 18 49  1  0
 19 50  1  0
 20 51  1  0
 21 52  1  0
 23 53  1  0
 23 54  1  0
 27 55  1  0
 27 56  1  0
 28 57  1  0
 28 58  1  0
 30 59  1  0
 31 60  1  0
 32 61  1  0
 33 62  1  0
 35 63  1  0
 35 64  1  0
M  END
>  <smiles>  (7) 
O=C(NCc1ccncc1)c1cc(N2CCc3ccccc3C2)nc(N2CCc3ccccc3C2)n1

>  <score_type>  (7) 
oracle

>  <origin>  (7) 
autodockgpu

>  <m_score__min__energy>  (7) 
-10.279999999999999

>  <m_primary>  (7) 
energy

>  <rmsd>  (7) 
3.404167132444727

>  <m_score__min__rmsd>  (7) 
3.404167132444727

>  <meeko>  (7) 
{"free_energy": -10.2, "intermolecular_energy": -11.69, "internal_energy": -0.87, "cluster_size": 27, "cluster_id": 1, "rank_in_cluster": 6}

>  <energy>  (7) 
-10.19

>  <cluster_rmsd>  (7) 
0.11

>  <cluster>  (7) 
1

$$$$

     RDKit          3D

 64 69  0  0  0  0  0  0  0  0999 V2000
  139.7090   76.2160  220.3140 O   0  0  0  0  0  0  0  0  0  0  0  0
  139.7250   75.6650  221.4450 C   0  0  0  0  0  0  0  0  0  0  0  0
  139.0960   76.2610  222.5610 N   0  0  0  0  0  0  0  0  0  0  0  0
  138.3930   77.5100  222.5520 C   0  0  0  0  0  0  0  0  0  0  0  0
  139.2140   78.6720  222.9820 C   0  0  0  0  0  0  0  0  0  0  0  0
  140.5930   78.4790  222.9780 C   0  0  0  0  0  0  0  0  0  0  0  0
  141.4160   79.5300  223.3750 C   0  0  0  0  0  0  0  0  0  0  0  0
  140.8890   80.7100  223.7560 N   0  0  0  0  0  0  0  0  0  0  0  0
  139.5440   80.8750  223.7510 C   0  0  0  0  0  0  0  0  0  0  0  0
  138.6700   79.8780  223.3700 C   0  0  0  0  0  0  0  0  0  0  0  0
  140.4180   74.3700  221.5970 C   0  0  0  0  0  0  0  0  0  0  0  0
  141.5260   74.0940  220.8220 C   0  0  0  0  0  0  0  0  0  0  0  0
  142.2090   72.8950  220.9180 C   0  0  0  0  0  0  0  0  0  0  0  0
  143.3510   72.6170  220.1170 N   0  0  0  0  0  0  0  0  0  0  0  0
  143.6150   73.4930  219.0030 C   0  0  0  0  0  0  0  0  0  0  0  0
  144.7030   73.0480  218.0940 C   0  0  0  0  0  0  0  0  0  0  0  0
  145.0550   71.6330  218.1750 C   0  0  0  0  0  0  0  0  0  0  0  0
  145.6540   71.0260  217.0920 C   0  0  0  0  0  0  0  0  0  0  0  0
  146.0090   69.6800  217.1230 C   0  0  0  0  0  0  0  0  0  0  0  0
  145.7610   68.9250  218.2570 C   0  0  0  0  0  0  0  0  0  0  0  0
  145.1600   69.5340  219.3410 C   0  0  0  0  0  0  0  0  0  0  0  0
  144.8200   70.8630  219.2850 C   0  0  0  0  0  0  0  0  0  0  0  0
  144.1790   71.4760  220.4630 C   0  0  0  0  0  0  0  0  0  0  0  0
  141.7330   72.0040  221.8130 N   0  0  0  0  0  0  0  0  0  0  0  0
  140.6540   72.2550  222.5790 C   0  0  0  0  0  0  0  0  0  0  0  0
  140.2370   71.2370  223.4890 N   0  0  0  0  0  0  0  0  0  0  0  0
  139.5720   70.0630  222.9510 C   0  0  0  0  0  0  0  0  0  0  0  0
  138.5210   69.6150  223.9790 C   0  0  0  0  0  0  0  0  0  0  0  0
  139.3460   69.1980  225.1720 C   0  0  0  0  0  0  0  0  0  0  0  0
  139.1450   67.9850  225.7890 C   0  0  0  0  0  0  0  0  0  0  0  0
  139.9160   67.6270  226.8720 C   0  0  0  0  0  0  0  0  0  0  0  0
  140.8860   68.5210  227.3100 C   0  0  0  0  0  0  0  0  0  0  0  0
  141.0750   69.7480  226.6740 C   0  0  0  0  0  0  0  0  0  0  0  0
  140.2960   70.1150  225.5750 C   0  0  0  0  0  0  0  0  0  0  0  0
  140.5010   71.4230  224.9020 C   0  0  0  0  0  0  0  0  0  0  0  0
  140.0060   73.4340  222.4640 N   0  0  0  0  0  0  0  0  0  0  0  0
  139.1650   75.7160  223.4740 H   0  0  0  0  0  0  0  0  0  0  0  0
  138.0370   77.6986  221.5284 H   0  0  0  0  0  0  0  0  0  0  0  0
  137.5714   77.4166  223.2774 H   0  0  0  0  0  0  0  0  0  0  0  0
  141.0237   77.5156  222.6675 H   0  0  0  0  0  0  0  0  0  0  0  0
  142.5077   79.3953  223.3775 H   0  0  0  0  0  0  0  0  0  0  0  0
  139.1315   81.8454  224.0642 H   0  0  0  0  0  0  0  0  0  0  0  0
  137.5818   80.0389  223.3755 H   0  0  0  0  0  0  0  0  0  0  0  0
  141.8770   74.8512  220.1055 H   0  0  0  0  0  0  0  0  0  0  0  0
  142.6915   73.5799  218.4118 H   0  0  0  0  0  0  0  0  0  0  0  0
  143.9497   74.4469  219.4366 H   0  0  0  0  0  0  0  0  0  0  0  0
  144.3888   73.2598  217.0613 H   0  0  0  0  0  0  0  0  0  0  0  0
  145.6014   73.5996  218.4081 H   0  0  0  0  0  0  0  0  0  0  0  0
  145.8554   71.6163  216.1859 H   0  0  0  0  0  0  0  0  0  0  0  0
  146.4863   69.2166  216.2470 H   0  0  0  0  0  0  0  0  0  0  0  0
  146.0373   67.8609  218.2937 H   0  0  0  0  0  0  0  0  0  0  0  0
  144.9532   68.9528  220.2517 H   0  0  0  0  0  0  0  0  0  0  0  0
  143.5494   70.7200  220.9549 H   0  0  0  0  0  0  0  0  0  0  0  0
  144.9781   71.8338  221.1289 H   0  0  0  0  0  0  0  0  0  0  0  0
  139.0826   70.3124  221.9980 H   0  0  0  0  0  0  0  0  0  0  0  0
  140.2982   69.2583  222.7639 H   0  0  0  0  0  0  0  0  0  0  0  0
  137.8469   70.4446  224.2384 H   0  0  0  0  0  0  0  0  0  0  0  0
  137.8736   68.8085  223.6043 H   0  0  0  0  0  0  0  0  0  0  0  0
  138.3681   67.3009  225.4170 H   0  0  0  0  0  0  0  0  0  0  0  0
  139.7685   66.6607  227.3764 H   0  0  0  0  0  0  0  0  0  0  0  0
  141.5152   68.2565  228.1727 H   0  0  0  0  0  0  0  0  0  0  0  0
  141.8491   70.4365  227.0437 H   0  0  0  0  0  0  0  0  0  0  0  0
  139.8092   72.1706  225.3173 H   0  0  0  0  0  0  0  0  0  0  0  0
  141.5297   71.7800  225.0583 H   0  0  0  0  0  0  0  0  0  0  0  0
  1  2  2  0
  2  3  1  0
  3  4  1  0
  4  5  1  0
  5  6  2  0
  6  7  1  0
  7  8  2  0
  8  9  1  0
  9 10  2  0
  2 11  1  0
 11 12  2  0
 12 13  1  0
 13 14  1  0
 14 15  1  0
 15 16  1  0
 16 17  1  0
 17 18  2  0
 18 19  1  0
 19 20  2  0
 20 21  1  0
 21 22  2  0
 22 23  1  0
 13 24  2  0
 24 25  1  0
 25 26  1  0
 26 27  1  0
 27 28  1  0
 28 29  1  0
 29 30  2  0
 30 31  1  0
 31 32  2  0
 32 33  1  0
 33 34  2  0
 34 35  1  0
 25 36  2  0
 10  5  1  0
 36 11  1  0
 23 14  1  0
 35 26  1  0
 22 17  1  0
 34 29  1  0
  3 37  1  0
  4 38  1  0
  4 39  1  0
  6 40  1  0
  7 41  1  0
  9 42  1  0
 10 43  1  0
 12 44  1  0
 15 45  1  0
 15 46  1  0
 16 47  1  0
 16 48  1  0
 18 49  1  0
 19 50  1  0
 20 51  1  0
 21 52  1  0
 23 53  1  0
 23 54  1  0
 27 55  1  0
 27 56  1  0
 28 57  1  0
 28 58  1  0
 30 59  1  0
 31 60  1  0
 32 61  1  0
 33 62  1  0
 35 63  1  0
 35 64  1  0
M  END
>  <smiles>  (8) 
O=C(NCc1ccncc1)c1cc(N2CCc3ccccc3C2)nc(N2CCc3ccccc3C2)n1

>  <score_type>  (8) 
oracle

>  <origin>  (8) 
autodockgpu

>  <m_score__min__energy>  (8) 
-10.279999999999999

>  <m_primary>  (8) 
energy

>  <rmsd>  (8) 
3.663955370281809

>  <m_score__min__rmsd>  (8) 
3.663955370281809

>  <meeko>  (8) 
{"free_energy": -9.64, "intermolecular_energy": -11.13, "internal_energy": -1.16, "cluster_size": 27, "cluster_id": 1, "rank_in_cluster": 24}

>  <energy>  (8) 
-10.16

>  <cluster_rmsd>  (8) 
0.26

>  <cluster>  (8) 
1

$$$$

     RDKit          3D

 64 69  0  0  0  0  0  0  0  0999 V2000
  138.8720   76.0560  221.0570 O   0  0  0  0  0  0  0  0  0  0  0  0
  140.0740   75.9570  221.4150 C   0  0  0  0  0  0  0  0  0  0  0  0
  140.8480   77.1010  221.7120 N   0  0  0  0  0  0  0  0  0  0  0  0
  140.3890   78.4570  221.6470 C   0  0  0  0  0  0  0  0  0  0  0  0
  141.1990   79.4110  222.4510 C   0  0  0  0  0  0  0  0  0  0  0  0
  142.5810   79.2610  222.3640 C   0  0  0  0  0  0  0  0  0  0  0  0
  143.3930   80.1230  223.0970 C   0  0  0  0  0  0  0  0  0  0  0  0
  142.8540   81.0800  223.8760 N   0  0  0  0  0  0  0  0  0  0  0  0
  141.5060   81.2070  223.9450 C   0  0  0  0  0  0  0  0  0  0  0  0
  140.6430   80.3900  223.2460 C   0  0  0  0  0  0  0  0  0  0  0  0
  140.6770   74.6130  221.5240 C   0  0  0  0  0  0  0  0  0  0  0  0
  141.7720   74.2920  220.7490 C   0  0  0  0  0  0  0  0  0  0  0  0
  142.3730   73.0470  220.8040 C   0  0  0  0  0  0  0  0  0  0  0  0
  143.5020   72.7230  220.0030 N   0  0  0  0  0  0  0  0  0  0  0  0
  143.7820   73.5690  218.8700 C   0  0  0  0  0  0  0  0  0  0  0  0
  144.8530   73.0770  217.9640 C   0  0  0  0  0  0  0  0  0  0  0  0
  145.1680   71.6550  218.0730 C   0  0  0  0  0  0  0  0  0  0  0  0
  145.7450   71.0100  216.9990 C   0  0  0  0  0  0  0  0  0  0  0  0
  146.0640   69.6560  217.0570 C   0  0  0  0  0  0  0  0  0  0  0  0
  145.8020   68.9310  218.2070 C   0  0  0  0  0  0  0  0  0  0  0  0
  145.2250   69.5780  219.2810 C   0  0  0  0  0  0  0  0  0  0  0  0
  144.9190   70.9150  219.2000 C   0  0  0  0  0  0  0  0  0  0  0  0
  144.3020   71.5680  220.3680 C   0  0  0  0  0  0  0  0  0  0  0  0
  141.8280   72.1580  221.6610 N   0  0  0  0  0  0  0  0  0  0  0  0
  140.7600   72.4520  222.4270 C   0  0  0  0  0  0  0  0  0  0  0  0
  140.2660   71.4330  223.2950 N   0  0  0  0  0  0  0  0  0  0  0  0
  139.4480   70.3770  222.7210 C   0  0  0  0  0  0  0  0  0  0  0  0
  138.3960   69.9860  223.7710 C   0  0  0  0  0  0  0  0  0  0  0  0
  139.2150   69.4040  224.8970 C   0  0  0  0  0  0  0  0  0  0  0  0
  138.9010   68.1840  225.4500 C   0  0  0  0  0  0  0  0  0  0  0  0
  139.6700   67.6720  226.4720 C   0  0  0  0  0  0  0  0  0  0  0  0
  140.7530   68.4210  226.9140 C   0  0  0  0  0  0  0  0  0  0  0  0
  141.0570   69.6580  226.3430 C   0  0  0  0  0  0  0  0  0  0  0  0
  140.2810   70.1790  225.3060 C   0  0  0  0  0  0  0  0  0  0  0  0
  140.6070   71.4970  224.7020 C   0  0  0  0  0  0  0  0  0  0  0  0
  140.1930   73.6770  222.3520 N   0  0  0  0  0  0  0  0  0  0  0  0
  141.8550   76.9120  222.0060 H   0  0  0  0  0  0  0  0  0  0  0  0
  140.4160   78.7809  220.5961 H   0  0  0  0  0  0  0  0  0  0  0  0
  139.3732   78.4689  222.0690 H   0  0  0  0  0  0  0  0  0  0  0  0
  143.0219   78.4780  221.7296 H   0  0  0  0  0  0  0  0  0  0  0  0
  144.4867   80.0209  223.0389 H   0  0  0  0  0  0  0  0  0  0  0  0
  141.0831   81.9949  224.5856 H   0  0  0  0  0  0  0  0  0  0  0  0
  139.5526   80.5147  223.3200 H   0  0  0  0  0  0  0  0  0  0  0  0
  142.1806   75.0504  220.0650 H   0  0  0  0  0  0  0  0  0  0  0  0
  142.8575   73.6681  218.2822 H   0  0  0  0  0  0  0  0  0  0  0  0
  144.1440   74.5225  219.2821 H   0  0  0  0  0  0  0  0  0  0  0  0
  144.5383   73.2755  216.9289 H   0  0  0  0  0  0  0  0  0  0  0  0
  145.7674   73.6114  218.2611 H   0  0  0  0  0  0  0  0  0  0  0  0
  145.9570   71.5757  216.0798 H   0  0  0  0  0  0  0  0  0  0  0  0
  146.5244   69.1620  216.1887 H   0  0  0  0  0  0  0  0  0  0  0  0
  146.0488   67.8605  218.2636 H   0  0  0  0  0  0  0  0  0  0  0  0
  145.0094   69.0214  220.2049 H   0  0  0  0  0  0  0  0  0  0  0  0
  143.6559   70.8390  220.8789 H   0  0  0  0  0  0  0  0  0  0  0  0
  145.1142   71.9181  221.0220 H   0  0  0  0  0  0  0  0  0  0  0  0
  138.9516   70.7400  221.8090 H   0  0  0  0  0  0  0  0  0  0  0  0
  140.0681   69.5093  222.4517 H   0  0  0  0  0  0  0  0  0  0  0  0
  137.8334   70.8683  224.1103 H   0  0  0  0  0  0  0  0  0  0  0  0
  137.6454   69.2825  223.3815 H   0  0  0  0  0  0  0  0  0  0  0  0
  138.0357   67.6172  225.0760 H   0  0  0  0  0  0  0  0  0  0  0  0
  139.4331   66.6980  226.9250 H   0  0  0  0  0  0  0  0  0  0  0  0
  141.3822   68.0326  227.7284 H   0  0  0  0  0  0  0  0  0  0  0  0
  141.9197   70.2300  226.7152 H   0  0  0  0  0  0  0  0  0  0  0  0
  140.0230   72.2891  225.1934 H   0  0  0  0  0  0  0  0  0  0  0  0
  141.6754   71.7257  224.8296 H   0  0  0  0  0  0  0  0  0  0  0  0
  1  2  2  0
  2  3  1  0
  3  4  1  0
  4  5  1  0
  5  6  2  0
  6  7  1  0
  7  8  2  0
  8  9  1  0
  9 10  2  0
  2 11  1  0
 11 12  2  0
 12 13  1  0
 13 14  1  0
 14 15  1  0
 15 16  1  0
 16 17  1  0
 17 18  2  0
 18 19  1  0
 19 20  2  0
 20 21  1  0
 21 22  2  0
 22 23  1  0
 13 24  2  0
 24 25  1  0
 25 26  1  0
 26 27  1  0
 27 28  1  0
 28 29  1  0
 29 30  2  0
 30 31  1  0
 31 32  2  0
 32 33  1  0
 33 34  2  0
 34 35  1  0
 25 36  2  0
 10  5  1  0
 36 11  1  0
 23 14  1  0
 35 26  1  0
 22 17  1  0
 34 29  1  0
  3 37  1  0
  4 38  1  0
  4 39  1  0
  6 40  1  0
  7 41  1  0
  9 42  1  0
 10 43  1  0
 12 44  1  0
 15 45  1  0
 15 46  1  0
 16 47  1  0
 16 48  1  0
 18 49  1  0
 19 50  1  0
 20 51  1  0
 21 52  1  0
 23 53  1  0
 23 54  1  0
 27 55  1  0
 27 56  1  0
 28 57  1  0
 28 58  1  0
 30 59  1  0
 31 60  1  0
 32 61  1  0
 33 62  1  0
 35 63  1  0
 35 64  1  0
M  END
>  <smiles>  (9) 
O=C(NCc1ccncc1)c1cc(N2CCc3ccccc3C2)nc(N2CCc3ccccc3C2)n1

>  <score_type>  (9) 
oracle

>  <origin>  (9) 
autodockgpu

>  <m_score__min__energy>  (9) 
-10.279999999999999

>  <m_primary>  (9) 
energy

>  <rmsd>  (9) 
3.405950680428224

>  <m_score__min__rmsd>  (9) 
3.405950680428224

>  <meeko>  (9) 
{"free_energy": -10.27, "intermolecular_energy": -11.76, "internal_energy": -0.87, "cluster_size": 27, "cluster_id": 1, "rank_in_cluster": 2}

>  <energy>  (9) 
-10.13

>  <cluster_rmsd>  (9) 
0.27

>  <cluster>  (9) 
1

$$$$

     RDKit          3D

 64 69  0  0  0  0  0  0  0  0999 V2000
  143.0370   71.8750  218.1510 O   0  0  0  0  0  0  0  0  0  0  0  0
  143.3690   71.8670  219.3640 C   0  0  0  0  0  0  0  0  0  0  0  0
  144.5940   71.3030  219.7860 N   0  0  0  0  0  0  0  0  0  0  0  0
  145.5700   70.6950  218.9310 C   0  0  0  0  0  0  0  0  0  0  0  0
  145.4500   69.2170  218.8260 C   0  0  0  0  0  0  0  0  0  0  0  0
  144.4650   68.7460  217.9600 C   0  0  0  0  0  0  0  0  0  0  0  0
  144.3000   67.3700  217.8220 C   0  0  0  0  0  0  0  0  0  0  0  0
  145.0760   66.5120  218.5120 N   0  0  0  0  0  0  0  0  0  0  0  0
  146.0270   66.9930  219.3490 C   0  0  0  0  0  0  0  0  0  0  0  0
  146.2460   68.3420  219.5330 C   0  0  0  0  0  0  0  0  0  0  0  0
  142.4530   72.4620  220.3580 C   0  0  0  0  0  0  0  0  0  0  0  0
  142.1950   73.8170  220.3210 C   0  0  0  0  0  0  0  0  0  0  0  0
  141.3510   74.4300  221.2310 C   0  0  0  0  0  0  0  0  0  0  0  0
  141.0880   75.8260  221.1870 N   0  0  0  0  0  0  0  0  0  0  0  0
  141.1770   76.4830  219.9060 C   0  0  0  0  0  0  0  0  0  0  0  0
  141.0800   77.9660  219.9490 C   0  0  0  0  0  0  0  0  0  0  0  0
  141.3430   78.5790  221.2470 C   0  0  0  0  0  0  0  0  0  0  0  0
  141.7620   79.8910  221.3000 C   0  0  0  0  0  0  0  0  0  0  0  0
  142.0240   80.5180  222.5150 C   0  0  0  0  0  0  0  0  0  0  0  0
  141.8650   79.8220  223.7010 C   0  0  0  0  0  0  0  0  0  0  0  0
  141.4450   78.5090  223.6480 C   0  0  0  0  0  0  0  0  0  0  0  0
  141.1930   77.9120  222.4370 C   0  0  0  0  0  0  0  0  0  0  0  0
  140.7480   76.5070  222.4230 C   0  0  0  0  0  0  0  0  0  0  0  0
  140.7920   73.6280  222.1610 N   0  0  0  0  0  0  0  0  0  0  0  0
  141.0300   72.3040  222.2140 C   0  0  0  0  0  0  0  0  0  0  0  0
  140.3870   71.5550  223.2440 N   0  0  0  0  0  0  0  0  0  0  0  0
  139.4510   70.5140  222.8560 C   0  0  0  0  0  0  0  0  0  0  0  0
  138.3330   70.4810  223.9110 C   0  0  0  0  0  0  0  0  0  0  0  0
  139.0430   70.0470  225.1690 C   0  0  0  0  0  0  0  0  0  0  0  0
  138.5600   69.0160  225.9420 C   0  0  0  0  0  0  0  0  0  0  0  0
  139.2310   68.6350  227.0820 C   0  0  0  0  0  0  0  0  0  0  0  0
  140.3940   69.3180  227.4160 C   0  0  0  0  0  0  0  0  0  0  0  0
  140.8710   70.3630  226.6220 C   0  0  0  0  0  0  0  0  0  0  0  0
  140.1930   70.7510  225.4650 C   0  0  0  0  0  0  0  0  0  0  0  0
  140.7030   71.8650  224.6240 C   0  0  0  0  0  0  0  0  0  0  0  0
  141.8590   71.7330  221.3120 N   0  0  0  0  0  0  0  0  0  0  0  0
  144.7840   71.3450  220.8340 H   0  0  0  0  0  0  0  0  0  0  0  0
  145.4607   71.1227  217.9235 H   0  0  0  0  0  0  0  0  0  0  0  0
  146.5542   70.9020  219.3765 H   0  0  0  0  0  0  0  0  0  0  0  0
  143.8308   69.4466  217.3970 H   0  0  0  0  0  0  0  0  0  0  0  0
  143.5280   66.9798  217.1425 H   0  0  0  0  0  0  0  0  0  0  0  0
  146.6504   66.2773  219.9050 H   0  0  0  0  0  0  0  0  0  0  0  0
  147.0262   68.7057  220.2179 H   0  0  0  0  0  0  0  0  0  0  0  0
  142.6753   74.4295  219.5437 H   0  0  0  0  0  0  0  0  0  0  0  0
  142.1440   76.2179  219.4536 H   0  0  0  0  0  0  0  0  0  0  0  0
  140.3107   76.1364  219.3234 H   0  0  0  0  0  0  0  0  0  0  0  0
  141.8055   78.3733  219.2294 H   0  0  0  0  0  0  0  0  0  0  0  0
  140.0333   78.2055  219.7103 H   0  0  0  0  0  0  0  0  0  0  0  0
  141.8919   80.4537  220.3638 H   0  0  0  0  0  0  0  0  0  0  0  0
  142.3573   81.5662  222.5326 H   0  0  0  0  0  0  0  0  0  0  0  0
  142.0696   80.3065  224.6671 H   0  0  0  0  0  0  0  0  0  0  0  0
  141.3115   77.9382  224.5788 H   0  0  0  0  0  0  0  0  0  0  0  0
  141.2265   75.9776  223.2601 H   0  0  0  0  0  0  0  0  0  0  0  0
  139.6518   76.5038  222.5145 H   0  0  0  0  0  0  0  0  0  0  0  0
  139.0270   70.7399  221.8665 H   0  0  0  0  0  0  0  0  0  0  0  0
  139.9578   69.5394  222.7979 H   0  0  0  0  0  0  0  0  0  0  0  0
  137.8834   71.4769  224.0377 H   0  0  0  0  0  0  0  0  0  0  0  0
  137.5055   69.8109  223.6351 H   0  0  0  0  0  0  0  0  0  0  0  0
  137.6364   68.4956  225.6485 H   0  0  0  0  0  0  0  0  0  0  0  0
  138.8572   67.8133  227.7106 H   0  0  0  0  0  0  0  0  0  0  0  0
  140.9485   69.0306  228.3215 H   0  0  0  0  0  0  0  0  0  0  0  0
  141.7934   70.8875  226.9121 H   0  0  0  0  0  0  0  0  0  0  0  0
  140.2181   72.8079  224.9168 H   0  0  0  0  0  0  0  0  0  0  0  0
  141.7892   71.9802  224.7542 H   0  0  0  0  0  0  0  0  0  0  0  0
  1  2  2  0
  2  3  1  0
  3  4  1  0
  4  5  1  0
  5  6  2  0
  6  7  1  0
  7  8  2  0
  8  9  1  0
  9 10  2  0
  2 11  1  0
 11 12  2  0
 12 13  1  0
 13 14  1  0
 14 15  1  0
 15 16  1  0
 16 17  1  0
 17 18  2  0
 18 19  1  0
 19 20  2  0
 20 21  1  0
 21 22  2  0
 22 23  1  0
 13 24  2  0
 24 25  1  0
 25 26  1  0
 26 27  1  0
 27 28  1  0
 28 29  1  0
 29 30  2  0
 30 31  1  0
 31 32  2  0
 32 33  1  0
 33 34  2  0
 34 35  1  0
 25 36  2  0
 10  5  1  0
 36 11  1  0
 23 14  1  0
 35 26  1  0
 22 17  1  0
 34 29  1  0
  3 37  1  0
  4 38  1  0
  4 39  1  0
  6 40  1  0
  7 41  1  0
  9 42  1  0
 10 43  1  0
 12 44  1  0
 15 45  1  0
 15 46  1  0
 16 47  1  0
 16 48  1  0
 18 49  1  0
 19 50  1  0
 20 51  1  0
 21 52  1  0
 23 53  1  0
 23 54  1  0
 27 55  1  0
 27 56  1  0
 28 57  1  0
 28 58  1  0
 30 59  1  0
 31 60  1  0
 32 61  1  0
 33 62  1  0
 35 63  1  0
 35 64  1  0
M  END
>  <smiles>  (10) 
O=C(NCc1ccncc1)c1cc(N2CCc3ccccc3C2)nc(N2CCc3ccccc3C2)n1

>  <score_type>  (10) 
oracle

>  <origin>  (10) 
autodockgpu

>  <m_score__min__energy>  (10) 
-10.279999999999999

>  <m_primary>  (10) 
energy

>  <rmsd>  (10) 
10.979016218615914

>  <m_score__min__rmsd>  (10) 
10.979016218615914

>  <meeko>  (10) 
{"free_energy": -9.95, "intermolecular_energy": -11.45, "internal_energy": -1.01, "cluster_size": 19, "cluster_id": 2, "rank_in_cluster": 9}

>  <energy>  (10) 
-10.02

>  <cluster_rmsd>  (10) 
0.38

>  <cluster>  (10) 
1

$$$$

     RDKit          3D

 64 69  0  0  0  0  0  0  0  0999 V2000
  143.3320   72.6580  218.2360 O   0  0  0  0  0  0  0  0  0  0  0  0
  143.4450   72.2750  219.4290 C   0  0  0  0  0  0  0  0  0  0  0  0
  144.4640   71.3780  219.8190 N   0  0  0  0  0  0  0  0  0  0  0  0
  145.4540   70.8130  218.9490 C   0  0  0  0  0  0  0  0  0  0  0  0
  145.4690   69.3260  218.9320 C   0  0  0  0  0  0  0  0  0  0  0  0
  146.2610   68.7370  217.9500 C   0  0  0  0  0  0  0  0  0  0  0  0
  146.3130   67.3460  217.8790 C   0  0  0  0  0  0  0  0  0  0  0  0
  145.6100   66.5880  218.7410 N   0  0  0  0  0  0  0  0  0  0  0  0
  144.8450   67.1830  219.6880 C   0  0  0  0  0  0  0  0  0  0  0  0
  144.7480   68.5530  219.8160 C   0  0  0  0  0  0  0  0  0  0  0  0
  142.4890   72.7820  220.4340 C   0  0  0  0  0  0  0  0  0  0  0  0
  142.1840   74.1270  220.4680 C   0  0  0  0  0  0  0  0  0  0  0  0
  141.3010   74.6580  221.3910 C   0  0  0  0  0  0  0  0  0  0  0  0
  140.9910   76.0450  221.4200 N   0  0  0  0  0  0  0  0  0  0  0  0
  140.8250   76.7200  220.1570 C   0  0  0  0  0  0  0  0  0  0  0  0
  140.6910   78.1980  220.2430 C   0  0  0  0  0  0  0  0  0  0  0  0
  141.1660   78.8040  221.4830 C   0  0  0  0  0  0  0  0  0  0  0  0
  141.5460   80.1290  221.4820 C   0  0  0  0  0  0  0  0  0  0  0  0
  142.0040   80.7500  222.6410 C   0  0  0  0  0  0  0  0  0  0  0  0
  142.0830   80.0350  223.8250 C   0  0  0  0  0  0  0  0  0  0  0  0
  141.7030   78.7090  223.8250 C   0  0  0  0  0  0  0  0  0  0  0  0
  141.2550   78.1180  222.6680 C   0  0  0  0  0  0  0  0  0  0  0  0
  140.8590   76.6990  222.7090 C   0  0  0  0  0  0  0  0  0  0  0  0
  140.7500   73.7860  222.2620 N   0  0  0  0  0  0  0  0  0  0  0  0
  141.0330   72.4700  222.2440 C   0  0  0  0  0  0  0  0  0  0  0  0
  140.3950   71.6410  223.2150 N   0  0  0  0  0  0  0  0  0  0  0  0
  139.4820   70.6120  222.7490 C   0  0  0  0  0  0  0  0  0  0  0  0
  138.3550   70.4880  223.7880 C   0  0  0  0  0  0  0  0  0  0  0  0
  139.0620   69.9840  225.0210 C   0  0  0  0  0  0  0  0  0  0  0  0
  138.5920   68.8950  225.7180 C   0  0  0  0  0  0  0  0  0  0  0  0
  139.2600   68.4500  226.8370 C   0  0  0  0  0  0  0  0  0  0  0  0
  140.4060   69.1310  227.2280 C   0  0  0  0  0  0  0  0  0  0  0  0
  140.8700   70.2350  226.5110 C   0  0  0  0  0  0  0  0  0  0  0  0
  140.1960   70.6880  225.3760 C   0  0  0  0  0  0  0  0  0  0  0  0
  140.6920   71.8640  224.6160 C   0  0  0  0  0  0  0  0  0  0  0  0
  141.9000   71.9790  221.3310 N   0  0  0  0  0  0  0  0  0  0  0  0
  144.4770   71.1150  220.8510 H   0  0  0  0  0  0  0  0  0  0  0  0
  145.2587   71.1683  217.9265 H   0  0  0  0  0  0  0  0  0  0  0  0
  146.4337   71.1360  219.3308 H   0  0  0  0  0  0  0  0  0  0  0  0
  146.8340   69.3568  217.2446 H   0  0  0  0  0  0  0  0  0  0  0  0
  146.9347   66.8628  217.1109 H   0  0  0  0  0  0  0  0  0  0  0  0
  144.2778   66.5471  220.3836 H   0  0  0  0  0  0  0  0  0  0  0  0
  144.1193   69.0109  220.5938 H   0  0  0  0  0  0  0  0  0  0  0  0
  142.6583   74.7989  219.7375 H   0  0  0  0  0  0  0  0  0  0  0  0
  141.7014   76.4934  219.5321 H   0  0  0  0  0  0  0  0  0  0  0  0
  139.8782   76.3513  219.7355 H   0  0  0  0  0  0  0  0  0  0  0  0
  141.2607   78.6383  219.4114 H   0  0  0  0  0  0  0  0  0  0  0  0
  139.6114   78.4048  220.2017 H   0  0  0  0  0  0  0  0  0  0  0  0
  141.4863   80.7067  220.5478 H   0  0  0  0  0  0  0  0  0  0  0  0
  142.3031   81.8083  222.6166 H   0  0  0  0  0  0  0  0  0  0  0  0
  142.4418   80.5154  224.7472 H   0  0  0  0  0  0  0  0  0  0  0  0
  141.7587   78.1227  224.7541 H   0  0  0  0  0  0  0  0  0  0  0  0
  141.4973   76.1760  223.4364 H   0  0  0  0  0  0  0  0  0  0  0  0
  139.7980   76.6575  222.9965 H   0  0  0  0  0  0  0  0  0  0  0  0
  139.0628   70.8962  221.7725 H   0  0  0  0  0  0  0  0  0  0  0  0
  140.0073   69.6527  222.6313 H   0  0  0  0  0  0  0  0  0  0  0  0
  137.8855   71.4648  223.9763 H   0  0  0  0  0  0  0  0  0  0  0  0
  137.5427   69.8229  223.4596 H   0  0  0  0  0  0  0  0  0  0  0  0
  137.6810   68.3788  225.3809 H   0  0  0  0  0  0  0  0  0  0  0  0
  138.8967   67.5807  227.4047 H   0  0  0  0  0  0  0  0  0  0  0  0
  140.9574   68.7943  228.1182 H   0  0  0  0  0  0  0  0  0  0  0  0
  141.7797   70.7553  226.8452 H   0  0  0  0  0  0  0  0  0  0  0  0
  140.1864   72.7762  224.9655 H   0  0  0  0  0  0  0  0  0  0  0  0
  141.7746   71.9900  224.7648 H   0  0  0  0  0  0  0  0  0  0  0  0
  1  2  2  0
  2  3  1  0
  3  4  1  0
  4  5  1  0
  5  6  2  0
  6  7  1  0
  7  8  2  0
  8  9  1  0
  9 10  2  0
  2 11  1  0
 11 12  2  0
 12 13  1  0
 13 14  1  0
 14 15  1  0
 15 16  1  0
 16 17  1  0
 17 18  2  0
 18 19  1  0
 19 20  2  0
 20 21  1  0
 21 22  2  0
 22 23  1  0
 13 24  2  0
 24 25  1  0
 25 26  1  0
 26 27  1  0
 27 28  1  0
 28 29  1  0
 29 30  2  0
 30 31  1  0
 31 32  2  0
 32 33  1  0
 33 34  2  0
 34 35  1  0
 25 36  2  0
 10  5  1  0
 36 11  1  0
 23 14  1  0
 35 26  1  0
 22 17  1  0
 34 29  1  0
  3 37  1  0
  4 38  1  0
  4 39  1  0
  6 40  1  0
  7 41  1  0
  9 42  1  0
 10 43  1  0
 12 44  1  0
 15 45  1  0
 15 46  1  0
 16 47  1  0
 16 48  1  0
 18 49  1  0
 19 50  1  0
 20 51  1  0
 21 52  1  0
 23 53  1  0
 23 54  1  0
 27 55  1  0
 27 56  1  0
 28 57  1  0
 28 58  1  0
 30 59  1  0
 31 60  1  0
 32 61  1  0
 33 62  1  0
 35 63  1  0
 35 64  1  0
M  END
>  <smiles>  (11) 
O=C(NCc1ccncc1)c1cc(N2CCc3ccccc3C2)nc(N2CCc3ccccc3C2)n1

>  <score_type>  (11) 
oracle

>  <origin>  (11) 
autodockgpu

>  <m_score__min__energy>  (11) 
-10.279999999999999

>  <m_primary>  (11) 
energy

>  <rmsd>  (11) 
10.916196938854647

>  <m_score__min__rmsd>  (11) 
10.916196938854647

>  <meeko>  (11) 
{"free_energy": -10.12, "intermolecular_energy": -11.62, "internal_energy": -1.05, "cluster_size": 19, "cluster_id": 2, "rank_in_cluster": 1}

>  <energy>  (11) 
-10.01

>  <cluster_rmsd>  (11) 
0.71

>  <cluster>  (11) 
1

$$$$

     RDKit          3D

 64 69  0  0  0  0  0  0  0  0999 V2000
  140.3740   76.3140  220.5010 O   0  0  0  0  0  0  0  0  0  0  0  0
  140.1390   75.6420  221.5380 C   0  0  0  0  0  0  0  0  0  0  0  0
  139.4010   76.1850  222.6130 N   0  0  0  0  0  0  0  0  0  0  0  0
  138.8510   77.5080  222.6620 C   0  0  0  0  0  0  0  0  0  0  0  0
  139.8400   78.5640  223.0060 C   0  0  0  0  0  0  0  0  0  0  0  0
  141.1660   78.1500  223.0990 C   0  0  0  0  0  0  0  0  0  0  0  0
  142.1390   79.0930  223.4230 C   0  0  0  0  0  0  0  0  0  0  0  0
  141.8040   80.3780  223.6430 N   0  0  0  0  0  0  0  0  0  0  0  0
  140.5060   80.7580  223.5480 C   0  0  0  0  0  0  0  0  0  0  0  0
  139.4920   79.8790  223.2310 C   0  0  0  0  0  0  0  0  0  0  0  0
  140.6480   74.2580  221.6210 C   0  0  0  0  0  0  0  0  0  0  0  0
  141.5940   73.8240  220.7150 C   0  0  0  0  0  0  0  0  0  0  0  0
  142.1020   72.5380  220.7420 C   0  0  0  0  0  0  0  0  0  0  0  0
  143.0770   72.0970  219.8060 N   0  0  0  0  0  0  0  0  0  0  0  0
  143.0170   72.6410  218.4720 C   0  0  0  0  0  0  0  0  0  0  0  0
  143.9350   72.0070  217.4890 C   0  0  0  0  0  0  0  0  0  0  0  0
  144.4370   70.6860  217.8550 C   0  0  0  0  0  0  0  0  0  0  0  0
  144.8600   69.8270  216.8620 C   0  0  0  0  0  0  0  0  0  0  0  0
  145.3480   68.5590  217.1640 C   0  0  0  0  0  0  0  0  0  0  0  0
  145.4150   68.1380  218.4810 C   0  0  0  0  0  0  0  0  0  0  0  0
  144.9920   68.9970  219.4740 C   0  0  0  0  0  0  0  0  0  0  0  0
  144.5140   70.2440  219.1510 C   0  0  0  0  0  0  0  0  0  0  0  0
  144.0700   71.1320  220.2410 C   0  0  0  0  0  0  0  0  0  0  0  0
  141.6200   71.7250  221.7050 N   0  0  0  0  0  0  0  0  0  0  0  0
  140.6990   72.1290  222.6000 C   0  0  0  0  0  0  0  0  0  0  0  0
  140.2590   71.1830  223.5720 N   0  0  0  0  0  0  0  0  0  0  0  0
  139.5540   69.9990  223.1120 C   0  0  0  0  0  0  0  0  0  0  0  0
  138.4990   69.6460  224.1730 C   0  0  0  0  0  0  0  0  0  0  0  0
  139.3210   69.2780  225.3830 C   0  0  0  0  0  0  0  0  0  0  0  0
  139.0890   68.1110  226.0740 C   0  0  0  0  0  0  0  0  0  0  0  0
  139.8580   67.7950  227.1720 C   0  0  0  0  0  0  0  0  0  0  0  0
  140.8590   68.6830  227.5470 C   0  0  0  0  0  0  0  0  0  0  0  0
  141.0800   69.8630  226.8360 C   0  0  0  0  0  0  0  0  0  0  0  0
  140.3030   70.1870  225.7230 C   0  0  0  0  0  0  0  0  0  0  0  0
  140.5410   71.4450  224.9700 C   0  0  0  0  0  0  0  0  0  0  0  0
  140.2200   73.3920  222.5500 N   0  0  0  0  0  0  0  0  0  0  0  0
  139.2550   75.5370  223.4460 H   0  0  0  0  0  0  0  0  0  0  0  0
  138.4250   77.7419  221.6752 H   0  0  0  0  0  0  0  0  0  0  0  0
  138.0955   77.5082  223.4615 H   0  0  0  0  0  0  0  0  0  0  0  0
  141.4398   77.0997  222.9203 H   0  0  0  0  0  0  0  0  0  0  0  0
  143.1920   78.7842  223.4998 H   0  0  0  0  0  0  0  0  0  0  0  0
  140.2510   81.8122  223.7316 H   0  0  0  0  0  0  0  0  0  0  0  0
  138.4466   80.2138  223.1604 H   0  0  0  0  0  0  0  0  0  0  0  0
  141.9556   74.5233  219.9467 H   0  0  0  0  0  0  0  0  0  0  0  0
  141.9878   72.5229  218.1021 H   0  0  0  0  0  0  0  0  0  0  0  0
  143.3357   73.6905  218.5552 H   0  0  0  0  0  0  0  0  0  0  0  0
  143.3956   71.9116  216.5351 H   0  0  0  0  0  0  0  0  0  0  0  0
  144.8182   72.6606  217.4374 H   0  0  0  0  0  0  0  0  0  0  0  0
  144.8107   70.1502  215.8117 H   0  0  0  0  0  0  0  0  0  0  0  0
  145.6806   67.8911  216.3558 H   0  0  0  0  0  0  0  0  0  0  0  0
  145.7982   67.1376  218.7309 H   0  0  0  0  0  0  0  0  0  0  0  0
  145.0375   68.6828  220.5272 H   0  0  0  0  0  0  0  0  0  0  0  0
  143.6353   70.5161  221.0421 H   0  0  0  0  0  0  0  0  0  0  0  0
  144.9485   71.6934  220.5918 H   0  0  0  0  0  0  0  0  0  0  0  0
  139.0636   70.2046  222.1491 H   0  0  0  0  0  0  0  0  0  0  0  0
  140.2543   69.1627  222.9697 H   0  0  0  0  0  0  0  0  0  0  0  0
  137.8519   70.5097  224.3858 H   0  0  0  0  0  0  0  0  0  0  0  0
  137.8249   68.8379  223.8527 H   0  0  0  0  0  0  0  0  0  0  0  0
  138.2887   67.4299  225.7492 H   0  0  0  0  0  0  0  0  0  0  0  0
  139.6849   66.8665  227.7358 H   0  0  0  0  0  0  0  0  0  0  0  0
  141.4879   68.4516  228.4193 H   0  0  0  0  0  0  0  0  0  0  0  0
  141.8784   70.5480  227.1575 H   0  0  0  0  0  0  0  0  0  0  0  0
  139.8757   72.2370  225.3442 H   0  0  0  0  0  0  0  0  0  0  0  0
  141.5815   71.7786  225.0969 H   0  0  0  0  0  0  0  0  0  0  0  0
  1  2  2  0
  2  3  1  0
  3  4  1  0
  4  5  1  0
  5  6  2  0
  6  7  1  0
  7  8  2  0
  8  9  1  0
  9 10  2  0
  2 11  1  0
 11 12  2  0
 12 13  1  0
 13 14  1  0
 14 15  1  0
 15 16  1  0
 16 17  1  0
 17 18  2  0
 18 19  1  0
 19 20  2  0
 20 21  1  0
 21 22  2  0
 22 23  1  0
 13 24  2  0
 24 25  1  0
 25 26  1  0
 26 27  1  0
 27 28  1  0
 28 29  1  0
 29 30  2  0
 30 31  1  0
 31 32  2  0
 32 33  1  0
 33 34  2  0
 34 35  1  0
 25 36  2  0
 10  5  1  0
 36 11  1  0
 23 14  1  0
 35 26  1  0
 22 17  1  0
 34 29  1  0
  3 37  1  0
  4 38  1  0
  4 39  1  0
  6 40  1  0
  7 41  1  0
  9 42  1  0
 10 43  1  0
 12 44  1  0
 15 45  1  0
 15 46  1  0
 16 47  1  0
 16 48  1  0
 18 49  1  0
 19 50  1  0
 20 51  1  0
 21 52  1  0
 23 53  1  0
 23 54  1  0
 27 55  1  0
 27 56  1  0
 28 57  1  0
 28 58  1  0
 30 59  1  0
 31 60  1  0
 32 61  1  0
 33 62  1  0
 35 63  1  0
 35 64  1  0
M  END
>  <smiles>  (12) 
O=C(NCc1ccncc1)c1cc(N2CCc3ccccc3C2)nc(N2CCc3ccccc3C2)n1

>  <score_type>  (12) 
oracle

>  <origin>  (12) 
autodockgpu

>  <m_score__min__energy>  (12) 
-10.279999999999999

>  <m_primary>  (12) 
energy

>  <rmsd>  (12) 
3.8392461630044368

>  <m_score__min__rmsd>  (12) 
3.8392461630044368

>  <meeko>  (12) 
{"free_energy": -9.69, "intermolecular_energy": -11.18, "internal_energy": -1.23, "cluster_size": 27, "cluster_id": 1, "rank_in_cluster": 14}

>  <energy>  (12) 
-9.8

>  <cluster_rmsd>  (12) 
0.64

>  <cluster>  (12) 
1

$$$$

     RDKit          3D

 64 69  0  0  0  0  0  0  0  0999 V2000
  140.6890   76.1470  220.4050 O   0  0  0  0  0  0  0  0  0  0  0  0
  140.3150   75.4970  221.4140 C   0  0  0  0  0  0  0  0  0  0  0  0
  139.5220   76.0930  222.4200 N   0  0  0  0  0  0  0  0  0  0  0  0
  139.0640   77.4520  222.4230 C   0  0  0  0  0  0  0  0  0  0  0  0
  140.1130   78.4460  222.7730 C   0  0  0  0  0  0  0  0  0  0  0  0
  139.6790   79.5660  223.4770 C   0  0  0  0  0  0  0  0  0  0  0  0
  140.6150   80.5360  223.8310 C   0  0  0  0  0  0  0  0  0  0  0  0
  141.9110   80.3950  223.4970 N   0  0  0  0  0  0  0  0  0  0  0  0
  142.3100   79.2960  222.8110 C   0  0  0  0  0  0  0  0  0  0  0  0
  141.4400   78.2970  222.4300 C   0  0  0  0  0  0  0  0  0  0  0  0
  140.7170   74.0810  221.5390 C   0  0  0  0  0  0  0  0  0  0  0  0
  141.5370   73.5180  220.5830 C   0  0  0  0  0  0  0  0  0  0  0  0
  141.9400   72.1970  220.6460 C   0  0  0  0  0  0  0  0  0  0  0  0
  142.7870   71.6230  219.6580 N   0  0  0  0  0  0  0  0  0  0  0  0
  142.4100   71.7900  218.2760 C   0  0  0  0  0  0  0  0  0  0  0  0
  143.2210   71.0130  217.3020 C   0  0  0  0  0  0  0  0  0  0  0  0
  143.9690   69.8900  217.8580 C   0  0  0  0  0  0  0  0  0  0  0  0
  144.3300   68.8470  217.0310 C   0  0  0  0  0  0  0  0  0  0  0  0
  145.0450   67.7550  217.5160 C   0  0  0  0  0  0  0  0  0  0  0  0
  145.4080   67.7020  218.8510 C   0  0  0  0  0  0  0  0  0  0  0  0
  145.0470   68.7460  219.6780 C   0  0  0  0  0  0  0  0  0  0  0  0
  144.3410   69.8130  219.1760 C   0  0  0  0  0  0  0  0  0  0  0  0
  143.9720   70.9070  220.0920 C   0  0  0  0  0  0  0  0  0  0  0  0
  141.4850   71.4820  221.6970 N   0  0  0  0  0  0  0  0  0  0  0  0
  140.6850   72.0130  222.6400 C   0  0  0  0  0  0  0  0  0  0  0  0
  140.2610   71.1620  223.7050 N   0  0  0  0  0  0  0  0  0  0  0  0
  139.5720   69.9280  223.3680 C   0  0  0  0  0  0  0  0  0  0  0  0
  138.5250   69.6690  224.4630 C   0  0  0  0  0  0  0  0  0  0  0  0
  139.3550   69.4350  225.7010 C   0  0  0  0  0  0  0  0  0  0  0  0
  139.1420   68.3400  226.5060 C   0  0  0  0  0  0  0  0  0  0  0  0
  139.9190   68.1460  227.6260 C   0  0  0  0  0  0  0  0  0  0  0  0
  140.9080   69.0810  227.9070 C   0  0  0  0  0  0  0  0  0  0  0  0
  141.1100   70.1870  227.0810 C   0  0  0  0  0  0  0  0  0  0  0  0
  140.3250   70.3870  225.9440 C   0  0  0  0  0  0  0  0  0  0  0  0
  140.5430   71.5670  225.0680 C   0  0  0  0  0  0  0  0  0  0  0  0
  140.3070   73.3070  222.5530 N   0  0  0  0  0  0  0  0  0  0  0  0
  139.2560   75.4600  223.2340 H   0  0  0  0  0  0  0  0  0  0  0  0
  138.6836   77.6904  221.4188 H   0  0  0  0  0  0  0  0  0  0  0  0
  138.2881   77.5233  223.1995 H   0  0  0  0  0  0  0  0  0  0  0  0
  138.6194   79.6829  223.7482 H   0  0  0  0  0  0  0  0  0  0  0  0
  140.2909   81.4265  224.3895 H   0  0  0  0  0  0  0  0  0  0  0  0
  143.3733   79.1972  222.5472 H   0  0  0  0  0  0  0  0  0  0  0  0
  141.7909   77.4152  221.8739 H   0  0  0  0  0  0  0  0  0  0  0  0
  141.8812   74.1401  219.7437 H   0  0  0  0  0  0  0  0  0  0  0  0
  141.3601   71.4795  218.1694 H   0  0  0  0  0  0  0  0  0  0  0  0
  142.5799   72.8505  218.0385 H   0  0  0  0  0  0  0  0  0  0  0  0
  142.5402   70.6187  216.5332 H   0  0  0  0  0  0  0  0  0  0  0  0
  143.9747   71.7129  216.9121 H   0  0  0  0  0  0  0  0  0  0  0  0
  144.0478   68.8784  215.9683 H   0  0  0  0  0  0  0  0  0  0  0  0
  145.3216   66.9340  216.8381 H   0  0  0  0  0  0  0  0  0  0  0  0
  145.9732   66.8444  219.2448 H   0  0  0  0  0  0  0  0  0  0  0  0
  145.3251   68.7242  220.7420 H   0  0  0  0  0  0  0  0  0  0  0  0
  143.7818   70.4826  221.0889 H   0  0  0  0  0  0  0  0  0  0  0  0
  144.8066   71.6234  220.1083 H   0  0  0  0  0  0  0  0  0  0  0  0
  139.0765   70.0293  222.3912 H   0  0  0  0  0  0  0  0  0  0  0  0
  140.2836   69.0914  223.3070 H   0  0  0  0  0  0  0  0  0  0  0  0
  137.8667   70.5410  224.5908 H   0  0  0  0  0  0  0  0  0  0  0  0
  137.8614   68.8238  224.2278 H   0  0  0  0  0  0  0  0  0  0  0  0
  138.3503   67.6188  226.2547 H   0  0  0  0  0  0  0  0  0  0  0  0
  139.7614   67.2756  228.2799 H   0  0  0  0  0  0  0  0  0  0  0  0
  141.5422   68.9468  228.7957 H   0  0  0  0  0  0  0  0  0  0  0  0
  141.8992   70.9119  227.3292 H   0  0  0  0  0  0  0  0  0  0  0  0
  139.8674   72.3831  225.3637 H   0  0  0  0  0  0  0  0  0  0  0  0
  141.5788   71.9266  225.1566 H   0  0  0  0  0  0  0  0  0  0  0  0
  1  2  2  0
  2  3  1  0
  3  4  1  0
  4  5  1  0
  5  6  2  0
  6  7  1  0
  7  8  2  0
  8  9  1  0
  9 10  2  0
  2 11  1  0
 11 12  2  0
 12 13  1  0
 13 14  1  0
 14 15  1  0
 15 16  1  0
 16 17  1  0
 17 18  2  0
 18 19  1  0
 19 20  2  0
 20 21  1  0
 21 22  2  0
 22 23  1  0
 13 24  2  0
 24 25  1  0
 25 26  1  0
 26 27  1  0
 27 28  1  0
 28 29  1  0
 29 30  2  0
 30 31  1  0
 31 32  2  0
 32 33  1  0
 33 34  2  0
 34 35  1  0
 25 36  2  0
 10  5  1  0
 36 11  1  0
 23 14  1  0
 35 26  1  0
 22 17  1  0
 34 29  1  0
  3 37  1  0
  4 38  1  0
  4 39  1  0
  6 40  1  0
  7 41  1  0
  9 42  1  0
 10 43  1  0
 12 44  1  0
 15 45  1  0
 15 46  1  0
 16 47  1  0
 16 48  1  0
 18 49  1  0
 19 50  1  0
 20 51  1  0
 21 52  1  0
 23 53  1  0
 23 54  1  0
 27 55  1  0
 27 56  1  0
 28 57  1  0
 28 58  1  0
 30 59  1  0
 31 60  1  0
 32 61  1  0
 33 62  1  0
 35 63  1  0
 35 64  1  0
M  END
>  <smiles>  (13) 
O=C(NCc1ccncc1)c1cc(N2CCc3ccccc3C2)nc(N2CCc3ccccc3C2)n1

>  <score_type>  (13) 
oracle

>  <origin>  (13) 
autodockgpu

>  <m_score__min__energy>  (13) 
-10.279999999999999

>  <m_primary>  (13) 
energy

>  <rmsd>  (13) 
4.125621736290372

>  <m_score__min__rmsd>  (13) 
4.125621736290372

>  <meeko>  (13) 
{"free_energy": -9.66, "intermolecular_energy": -11.15, "internal_energy": -1.24, "cluster_size": 27, "cluster_id": 1, "rank_in_cluster": 17}

>  <energy>  (13) 
-9.78

>  <cluster_rmsd>  (13) 
1.28

>  <cluster>  (13) 
1

$$$$

     RDKit          3D

 64 69  0  0  0  0  0  0  0  0999 V2000
  143.2290   72.6080  218.0830 O   0  0  0  0  0  0  0  0  0  0  0  0
  142.7630   71.8450  218.9680 C   0  0  0  0  0  0  0  0  0  0  0  0
  142.9400   70.4460  218.8980 N   0  0  0  0  0  0  0  0  0  0  0  0
  143.6370   69.7450  217.8600 C   0  0  0  0  0  0  0  0  0  0  0  0
  144.6040   68.7300  218.3560 C   0  0  0  0  0  0  0  0  0  0  0  0
  145.2470   67.9730  217.3790 C   0  0  0  0  0  0  0  0  0  0  0  0
  146.1610   67.0020  217.7810 C   0  0  0  0  0  0  0  0  0  0  0  0
  146.4180   66.7980  219.0870 N   0  0  0  0  0  0  0  0  0  0  0  0
  145.7790   67.5470  220.0200 C   0  0  0  0  0  0  0  0  0  0  0  0
  144.8640   68.5240  219.6940 C   0  0  0  0  0  0  0  0  0  0  0  0
  142.0200   72.4360  220.0990 C   0  0  0  0  0  0  0  0  0  0  0  0
  141.8150   73.8000  220.1430 C   0  0  0  0  0  0  0  0  0  0  0  0
  141.1320   74.4080  221.1800 C   0  0  0  0  0  0  0  0  0  0  0  0
  140.9230   75.8140  221.2190 N   0  0  0  0  0  0  0  0  0  0  0  0
  140.9160   76.5230  219.9630 C   0  0  0  0  0  0  0  0  0  0  0  0
  140.8840   78.0050  220.0750 C   0  0  0  0  0  0  0  0  0  0  0  0
  141.2950   78.5500  221.3650 C   0  0  0  0  0  0  0  0  0  0  0  0
  141.7710   79.8430  221.4290 C   0  0  0  0  0  0  0  0  0  0  0  0
  142.1730   80.4050  222.6380 C   0  0  0  0  0  0  0  0  0  0  0  0
  142.0990   79.6640  223.8050 C   0  0  0  0  0  0  0  0  0  0  0  0
  141.6230   78.3710  223.7400 C   0  0  0  0  0  0  0  0  0  0  0  0
  141.2320   77.8380  222.5350 C   0  0  0  0  0  0  0  0  0  0  0  0
  140.7310   76.4520  222.5080 C   0  0  0  0  0  0  0  0  0  0  0  0
  140.6740   73.5930  222.1540 N   0  0  0  0  0  0  0  0  0  0  0  0
  140.8630   72.2600  222.1300 C   0  0  0  0  0  0  0  0  0  0  0  0
  140.3390   71.4970  223.2160 N   0  0  0  0  0  0  0  0  0  0  0  0
  139.4950   70.3540  222.9100 C   0  0  0  0  0  0  0  0  0  0  0  0
  138.4290   70.2580  224.0140 C   0  0  0  0  0  0  0  0  0  0  0  0
  139.2290   69.9490  225.2550 C   0  0  0  0  0  0  0  0  0  0  0  0
  138.8810   68.9110  226.0870 C   0  0  0  0  0  0  0  0  0  0  0  0
  139.6320   68.6460  227.2110 C   0  0  0  0  0  0  0  0  0  0  0  0
  140.7340   69.4530  227.4670 C   0  0  0  0  0  0  0  0  0  0  0  0
  141.0720   70.5030  226.6130 C   0  0  0  0  0  0  0  0  0  0  0  0
  140.3140   70.7740  225.4730 C   0  0  0  0  0  0  0  0  0  0  0  0
  140.6770   71.8950  224.5680 C   0  0  0  0  0  0  0  0  0  0  0  0
  141.5340   71.6930  221.1030 N   0  0  0  0  0  0  0  0  0  0  0  0
  142.5080   69.8860  219.6950 H   0  0  0  0  0  0  0  0  0  0  0  0
  142.8944   69.2350  217.2288 H   0  0  0  0  0  0  0  0  0  0  0  0
  144.2209   70.4957  217.3072 H   0  0  0  0  0  0  0  0  0  0  0  0
  145.0371   68.1388  216.3120 H   0  0  0  0  0  0  0  0  0  0  0  0
  146.6785   66.3952  217.0234 H   0  0  0  0  0  0  0  0  0  0  0  0
  146.0008   67.3667  221.0822 H   0  0  0  0  0  0  0  0  0  0  0  0
  144.3602   69.1170  220.4716 H   0  0  0  0  0  0  0  0  0  0  0  0
  142.2078   74.4238  219.3265 H   0  0  0  0  0  0  0  0  0  0  0  0
  141.8238   76.2428  219.4086 H   0  0  0  0  0  0  0  0  0  0  0  0
  139.9847   76.2343  219.4538 H   0  0  0  0  0  0  0  0  0  0  0  0
  141.5531   78.4169  219.3052 H   0  0  0  0  0  0  0  0  0  0  0  0
  139.8299   78.2931  219.9493 H   0  0  0  0  0  0  0  0  0  0  0  0
  141.8342   80.4412  220.5081 H   0  0  0  0  0  0  0  0  0  0  0  0
  142.5495   81.4382  222.6658 H   0  0  0  0  0  0  0  0  0  0  0  0
  142.4137   80.0979  224.7655 H   0  0  0  0  0  0  0  0  0  0  0  0
  141.5561   77.7646  224.6553 H   0  0  0  0  0  0  0  0  0  0  0  0
  141.2656   75.8692  223.2726 H   0  0  0  0  0  0  0  0  0  0  0  0
  139.6494   76.4849  222.7055 H   0  0  0  0  0  0  0  0  0  0  0  0
  139.0114   70.4953  221.9322 H   0  0  0  0  0  0  0  0  0  0  0  0
  140.0926   69.4315  222.8672 H   0  0  0  0  0  0  0  0  0  0  0  0
  137.8889   71.2102  224.1221 H   0  0  0  0  0  0  0  0  0  0  0  0
  137.6610   69.4998  223.8013 H   0  0  0  0  0  0  0  0  0  0  0  0
  138.0021   68.2917  225.8548 H   0  0  0  0  0  0  0  0  0  0  0  0
  139.3670   67.8193  227.8865 H   0  0  0  0  0  0  0  0  0  0  0  0
  141.3500   69.2606  228.3578 H   0  0  0  0  0  0  0  0  0  0  0  0
  141.9489   71.1265  226.8415 H   0  0  0  0  0  0  0  0  0  0  0  0
  140.1128   72.7978  224.8449 H   0  0  0  0  0  0  0  0  0  0  0  0
  141.7507   72.1209  224.6460 H   0  0  0  0  0  0  0  0  0  0  0  0
  1  2  2  0
  2  3  1  0
  3  4  1  0
  4  5  1  0
  5  6  2  0
  6  7  1  0
  7  8  2  0
  8  9  1  0
  9 10  2  0
  2 11  1  0
 11 12  2  0
 12 13  1  0
 13 14  1  0
 14 15  1  0
 15 16  1  0
 16 17  1  0
 17 18  2  0
 18 19  1  0
 19 20  2  0
 20 21  1  0
 21 22  2  0
 22 23  1  0
 13 24  2  0
 24 25  1  0
 25 26  1  0
 26 27  1  0
 27 28  1  0
 28 29  1  0
 29 30  2  0
 30 31  1  0
 31 32  2  0
 32 33  1  0
 33 34  2  0
 34 35  1  0
 25 36  2  0
 10  5  1  0
 36 11  1  0
 23 14  1  0
 35 26  1  0
 22 17  1  0
 34 29  1  0
  3 37  1  0
  4 38  1  0
  4 39  1  0
  6 40  1  0
  7 41  1  0
  9 42  1  0
 10 43  1  0
 12 44  1  0
 15 45  1  0
 15 46  1  0
 16 47  1  0
 16 48  1  0
 18 49  1  0
 19 50  1  0
 20 51  1  0
 21 52  1  0
 23 53  1  0
 23 54  1  0
 27 55  1  0
 27 56  1  0
 28 57  1  0
 28 58  1  0
 30 59  1  0
 31 60  1  0
 32 61  1  0
 33 62  1  0
 35 63  1  0
 35 64  1  0
M  END
>  <smiles>  (14) 
O=C(NCc1ccncc1)c1cc(N2CCc3ccccc3C2)nc(N2CCc3ccccc3C2)n1

>  <score_type>  (14) 
oracle

>  <origin>  (14) 
autodockgpu

>  <m_score__min__energy>  (14) 
-10.279999999999999

>  <m_primary>  (14) 
energy

>  <rmsd>  (14) 
11.222776312835379

>  <m_score__min__rmsd>  (14) 
11.222776312835379

>  <meeko>  (14) 
{"free_energy": -9.6, "intermolecular_energy": -11.09, "internal_energy": -1.22, "cluster_size": 19, "cluster_id": 2, "rank_in_cluster": 19}

>  <energy>  (14) 
-9.69

>  <cluster_rmsd>  (14) 
1.16

>  <cluster>  (14) 
1

$$$$

     RDKit          3D

 64 69  0  0  0  0  0  0  0  0999 V2000
  140.6170   76.3240  220.5190 O   0  0  0  0  0  0  0  0  0  0  0  0
  140.2420   75.6210  221.4930 C   0  0  0  0  0  0  0  0  0  0  0  0
  139.3680   76.1350  222.4750 N   0  0  0  0  0  0  0  0  0  0  0  0
  138.8210   77.4600  222.4930 C   0  0  0  0  0  0  0  0  0  0  0  0
  139.7880   78.5120  222.9030 C   0  0  0  0  0  0  0  0  0  0  0  0
  141.1090   78.0970  223.0570 C   0  0  0  0  0  0  0  0  0  0  0  0
  142.0630   79.0360  223.4440 C   0  0  0  0  0  0  0  0  0  0  0  0
  141.7150   80.3180  223.6670 N   0  0  0  0  0  0  0  0  0  0  0  0
  140.4230   80.6980  223.5120 C   0  0  0  0  0  0  0  0  0  0  0  0
  139.4280   79.8230  223.1300 C   0  0  0  0  0  0  0  0  0  0  0  0
  140.7310   74.2320  221.5990 C   0  0  0  0  0  0  0  0  0  0  0  0
  141.6880   73.7760  220.7160 C   0  0  0  0  0  0  0  0  0  0  0  0
  142.1780   72.4830  220.7640 C   0  0  0  0  0  0  0  0  0  0  0  0
  143.1640   72.0200  219.8520 N   0  0  0  0  0  0  0  0  0  0  0  0
  143.1970   72.6200  218.5410 C   0  0  0  0  0  0  0  0  0  0  0  0
  144.1170   71.9700  217.5710 C   0  0  0  0  0  0  0  0  0  0  0  0
  144.5200   70.6060  217.9000 C   0  0  0  0  0  0  0  0  0  0  0  0
  144.9340   69.7640  216.8900 C   0  0  0  0  0  0  0  0  0  0  0  0
  145.3290   68.4560  217.1560 C   0  0  0  0  0  0  0  0  0  0  0  0
  145.3120   67.9780  218.4550 C   0  0  0  0  0  0  0  0  0  0  0  0
  144.8980   68.8220  219.4660 C   0  0  0  0  0  0  0  0  0  0  0  0
  144.5130   70.1080  219.1780 C   0  0  0  0  0  0  0  0  0  0  0  0
  144.0760   70.9780  220.2860 C   0  0  0  0  0  0  0  0  0  0  0  0
  141.6670   71.6860  221.7270 N   0  0  0  0  0  0  0  0  0  0  0  0
  140.7340   72.1120  222.5990 C   0  0  0  0  0  0  0  0  0  0  0  0
  140.2630   71.1810  223.5730 N   0  0  0  0  0  0  0  0  0  0  0  0
  139.5070   70.0280  223.1130 C   0  0  0  0  0  0  0  0  0  0  0  0
  138.4460   69.7150  224.1810 C   0  0  0  0  0  0  0  0  0  0  0  0
  139.2610   69.3100  225.3850 C   0  0  0  0  0  0  0  0  0  0  0  0
  138.9870   68.1520  226.0740 C   0  0  0  0  0  0  0  0  0  0  0  0
  139.7500   67.8020  227.1650 C   0  0  0  0  0  0  0  0  0  0  0  0
  140.7890   68.6480  227.5360 C   0  0  0  0  0  0  0  0  0  0  0  0
  141.0520   69.8200  226.8270 C   0  0  0  0  0  0  0  0  0  0  0  0
  140.2810   70.1780  225.7200 C   0  0  0  0  0  0  0  0  0  0  0  0
  140.5650   71.4280  224.9680 C   0  0  0  0  0  0  0  0  0  0  0  0
  140.2740   73.3800  222.5280 N   0  0  0  0  0  0  0  0  0  0  0  0
  139.1080   75.4620  223.2600 H   0  0  0  0  0  0  0  0  0  0  0  0
  138.4602   77.6982  221.4815 H   0  0  0  0  0  0  0  0  0  0  0  0
  138.0164   77.4601  223.2430 H   0  0  0  0  0  0  0  0  0  0  0  0
  141.3930   77.0497  222.8768 H   0  0  0  0  0  0  0  0  0  0  0  0
  143.1113   78.7271  223.5687 H   0  0  0  0  0  0  0  0  0  0  0  0
  140.1571   81.7489  223.6988 H   0  0  0  0  0  0  0  0  0  0  0  0
  138.3871   80.1583  223.0110 H   0  0  0  0  0  0  0  0  0  0  0  0
  142.0741   74.4630  219.9486 H   0  0  0  0  0  0  0  0  0  0  0  0
  142.1800   72.5820  218.1236 H   0  0  0  0  0  0  0  0  0  0  0  0
  143.5756   73.6430  218.6827 H   0  0  0  0  0  0  0  0  0  0  0  0
  143.6159   71.9479  216.5920 H   0  0  0  0  0  0  0  0  0  0  0  0
  145.0402   72.5680  217.5850 H   0  0  0  0  0  0  0  0  0  0  0  0
  144.9526   70.1329  215.8539 H   0  0  0  0  0  0  0  0  0  0  0  0
  145.6547   67.8020  216.3337 H   0  0  0  0  0  0  0  0  0  0  0  0
  145.6222   66.9463  218.6772 H   0  0  0  0  0  0  0  0  0  0  0  0
  144.8765   68.4630  220.5056 H   0  0  0  0  0  0  0  0  0  0  0  0
  143.5696   70.3589  221.0412 H   0  0  0  0  0  0  0  0  0  0  0  0
  144.9708   71.4687  220.6967 H   0  0  0  0  0  0  0  0  0  0  0  0
  139.0187   70.2572  222.1543 H   0  0  0  0  0  0  0  0  0  0  0  0
  140.1713   69.1643  222.9620 H   0  0  0  0  0  0  0  0  0  0  0  0
  137.8362   70.6037  224.4007 H   0  0  0  0  0  0  0  0  0  0  0  0
  137.7375   68.9358  223.8634 H   0  0  0  0  0  0  0  0  0  0  0  0
  138.1574   67.5048  225.7531 H   0  0  0  0  0  0  0  0  0  0  0  0
  139.5435   66.8793  227.7272 H   0  0  0  0  0  0  0  0  0  0  0  0
  141.4141   68.3887  228.4032 H   0  0  0  0  0  0  0  0  0  0  0  0
  141.8792   70.4717  227.1449 H   0  0  0  0  0  0  0  0  0  0  0  0
  139.9351   72.2455  225.3486 H   0  0  0  0  0  0  0  0  0  0  0  0
  141.6190   71.7190  225.0884 H   0  0  0  0  0  0  0  0  0  0  0  0
  1  2  2  0
  2  3  1  0
  3  4  1  0
  4  5  1  0
  5  6  2  0
  6  7  1  0
  7  8  2  0
  8  9  1  0
  9 10  2  0
  2 11  1  0
 11 12  2  0
 12 13  1  0
 13 14  1  0
 14 15  1  0
 15 16  1  0
 16 17  1  0
 17 18  2  0
 18 19  1  0
 19 20  2  0
 20 21  1  0
 21 22  2  0
 22 23  1  0
 13 24  2  0
 24 25  1  0
 25 26  1  0
 26 27  1  0
 27 28  1  0
 28 29  1  0
 29 30  2  0
 30 31  1  0
 31 32  2  0
 32 33  1  0
 33 34  2  0
 34 35  1  0
 25 36  2  0
 10  5  1  0
 36 11  1  0
 23 14  1  0
 35 26  1  0
 22 17  1  0
 34 29  1  0
  3 37  1  0
  4 38  1  0
  4 39  1  0
  6 40  1  0
  7 41  1  0
  9 42  1  0
 10 43  1  0
 12 44  1  0
 15 45  1  0
 15 46  1  0
 16 47  1  0
 16 48  1  0
 18 49  1  0
 19 50  1  0
 20 51  1  0
 21 52  1  0
 23 53  1  0
 23 54  1  0
 27 55  1  0
 27 56  1  0
 28 57  1  0
 28 58  1  0
 30 59  1  0
 31 60  1  0
 32 61  1  0
 33 62  1  0
 35 63  1  0
 35 64  1  0
M  END
>  <smiles>  (15) 
O=C(NCc1ccncc1)c1cc(N2CCc3ccccc3C2)nc(N2CCc3ccccc3C2)n1

>  <score_type>  (15) 
oracle

>  <origin>  (15) 
autodockgpu

>  <m_score__min__energy>  (15) 
-10.279999999999999

>  <m_primary>  (15) 
energy

>  <rmsd>  (15) 
3.8688007151469

>  <m_score__min__rmsd>  (15) 
3.8688007151469

>  <meeko>  (15) 
{"free_energy": -9.66, "intermolecular_energy": -11.15, "internal_energy": -1.21, "cluster_size": 27, "cluster_id": 1, "rank_in_cluster": 20}

>  <energy>  (15) 
-9.68

>  <cluster_rmsd>  (15) 
1.6

>  <cluster>  (15) 
1

$$$$

     RDKit          3D

 64 69  0  0  0  0  0  0  0  0999 V2000
  139.0530   76.2990  221.5740 O   0  0  0  0  0  0  0  0  0  0  0  0
  140.2980   76.1490  221.4790 C   0  0  0  0  0  0  0  0  0  0  0  0
  141.1610   77.2560  221.3170 N   0  0  0  0  0  0  0  0  0  0  0  0
  140.7510   78.6270  221.2430 C   0  0  0  0  0  0  0  0  0  0  0  0
  141.4050   79.5110  222.2450 C   0  0  0  0  0  0  0  0  0  0  0  0
  140.5670   80.4070  222.9050 C   0  0  0  0  0  0  0  0  0  0  0  0
  141.1200   81.2650  223.8530 C   0  0  0  0  0  0  0  0  0  0  0  0
  142.4390   81.2310  224.1240 N   0  0  0  0  0  0  0  0  0  0  0  0
  143.2350   80.3510  223.4680 C   0  0  0  0  0  0  0  0  0  0  0  0
  142.7550   79.4730  222.5200 C   0  0  0  0  0  0  0  0  0  0  0  0
  140.8580   74.7840  221.5390 C   0  0  0  0  0  0  0  0  0  0  0  0
  141.9320   74.4510  220.7390 C   0  0  0  0  0  0  0  0  0  0  0  0
  142.4920   73.1870  220.7500 C   0  0  0  0  0  0  0  0  0  0  0  0
  143.6000   72.8500  219.9240 N   0  0  0  0  0  0  0  0  0  0  0  0
  143.8070   73.6350  218.7320 C   0  0  0  0  0  0  0  0  0  0  0  0
  144.8580   73.1230  217.8140 C   0  0  0  0  0  0  0  0  0  0  0  0
  145.2240   71.7210  217.9920 C   0  0  0  0  0  0  0  0  0  0  0  0
  145.7810   71.0310  216.9360 C   0  0  0  0  0  0  0  0  0  0  0  0
  146.1470   69.6940  217.0600 C   0  0  0  0  0  0  0  0  0  0  0  0
  145.9560   69.0320  218.2610 C   0  0  0  0  0  0  0  0  0  0  0  0
  145.3990   69.7230  219.3180 C   0  0  0  0  0  0  0  0  0  0  0  0
  145.0450   71.0430  219.1710 C   0  0  0  0  0  0  0  0  0  0  0  0
  144.4520   71.7450  220.3230 C   0  0  0  0  0  0  0  0  0  0  0  0
  141.9300   72.2900  221.5870 N   0  0  0  0  0  0  0  0  0  0  0  0
  140.8830   72.5950  222.3770 C   0  0  0  0  0  0  0  0  0  0  0  0
  140.3670   71.5660  223.2200 N   0  0  0  0  0  0  0  0  0  0  0  0
  139.5780   70.5080  222.6120 C   0  0  0  0  0  0  0  0  0  0  0  0
  138.4920   70.1020  223.6230 C   0  0  0  0  0  0  0  0  0  0  0  0
  139.2770   69.5190  224.7720 C   0  0  0  0  0  0  0  0  0  0  0  0
  138.9540   68.2930  225.3070 C   0  0  0  0  0  0  0  0  0  0  0  0
  139.6900   67.7810  226.3510 C   0  0  0  0  0  0  0  0  0  0  0  0
  140.7530   68.5350  226.8350 C   0  0  0  0  0  0  0  0  0  0  0  0
  141.0660   69.7770  226.2820 C   0  0  0  0  0  0  0  0  0  0  0  0
  140.3220   70.3000  225.2230 C   0  0  0  0  0  0  0  0  0  0  0  0
  140.6590   71.6230  224.6390 C   0  0  0  0  0  0  0  0  0  0  0  0
  140.3550   73.8390  222.3460 N   0  0  0  0  0  0  0  0  0  0  0  0
  142.1990   77.0250  221.2470 H   0  0  0  0  0  0  0  0  0  0  0  0
  140.9916   79.0059  220.2387 H   0  0  0  0  0  0  0  0  0  0  0  0
  139.6723   78.6477  221.4575 H   0  0  0  0  0  0  0  0  0  0  0  0
  139.4902   80.4364  222.6821 H   0  0  0  0  0  0  0  0  0  0  0  0
  140.4729   81.9775  224.3856 H   0  0  0  0  0  0  0  0  0  0  0  0
  144.3097   80.3371  223.7023 H   0  0  0  0  0  0  0  0  0  0  0  0
  143.4237   78.7691  222.0029 H   0  0  0  0  0  0  0  0  0  0  0  0
  142.3560   75.2155  220.0714 H   0  0  0  0  0  0  0  0  0  0  0  0
  142.8576   73.6693  218.1775 H   0  0  0  0  0  0  0  0  0  0  0  0
  144.1520   74.6226  219.0719 H   0  0  0  0  0  0  0  0  0  0  0  0
  144.4974   73.2501  216.7826 H   0  0  0  0  0  0  0  0  0  0  0  0
  145.7650   73.7017  218.0431 H   0  0  0  0  0  0  0  0  0  0  0  0
  145.9390   71.5471  215.9775 H   0  0  0  0  0  0  0  0  0  0  0  0
  146.5882   69.1630  216.2036 H   0  0  0  0  0  0  0  0  0  0  0  0
  146.2426   67.9757  218.3706 H   0  0  0  0  0  0  0  0  0  0  0  0
  145.2379   69.2159  220.2808 H   0  0  0  0  0  0  0  0  0  0  0  0
  143.8513   71.0279  220.9016 H   0  0  0  0  0  0  0  0  0  0  0  0
  145.2766   72.1590  220.9218 H   0  0  0  0  0  0  0  0  0  0  0  0
  139.1109   70.8730  221.6854 H   0  0  0  0  0  0  0  0  0  0  0  0
  140.2139   69.6467  222.3596 H   0  0  0  0  0  0  0  0  0  0  0  0
  137.9113   70.9777  223.9484 H   0  0  0  0  0  0  0  0  0  0  0  0
  137.7601   69.3960  223.2036 H   0  0  0  0  0  0  0  0  0  0  0  0
  138.1067   67.7217  224.8998 H   0  0  0  0  0  0  0  0  0  0  0  0
  139.4442   66.8029  226.7901 H   0  0  0  0  0  0  0  0  0  0  0  0
  141.3573   68.1459  227.6677 H   0  0  0  0  0  0  0  0  0  0  0  0
  141.9116   70.3527  226.6865 H   0  0  0  0  0  0  0  0  0  0  0  0
  140.0529   72.4079  225.1149 H   0  0  0  0  0  0  0  0  0  0  0  0
  141.7208   71.8580  224.8046 H   0  0  0  0  0  0  0  0  0  0  0  0
  1  2  2  0
  2  3  1  0
  3  4  1  0
  4  5  1  0
  5  6  2  0
  6  7  1  0
  7  8  2  0
  8  9  1  0
  9 10  2  0
  2 11  1  0
 11 12  2  0
 12 13  1  0
 13 14  1  0
 14 15  1  0
 15 16  1  0
 16 17  1  0
 17 18  2  0
 18 19  1  0
 19 20  2  0
 20 21  1  0
 21 22  2  0
 22 23  1  0
 13 24  2  0
 24 25  1  0
 25 26  1  0
 26 27  1  0
 27 28  1  0
 28 29  1  0
 29 30  2  0
 30 31  1  0
 31 32  2  0
 32 33  1  0
 33 34  2  0
 34 35  1  0
 25 36  2  0
 10  5  1  0
 36 11  1  0
 23 14  1  0
 35 26  1  0
 22 17  1  0
 34 29  1  0
  3 37  1  0
  4 38  1  0
  4 39  1  0
  6 40  1  0
  7 41  1  0
  9 42  1  0
 10 43  1  0
 12 44  1  0
 15 45  1  0
 15 46  1  0
 16 47  1  0
 16 48  1  0
 18 49  1  0
 19 50  1  0
 20 51  1  0
 21 52  1  0
 23 53  1  0
 23 54  1  0
 27 55  1  0
 27 56  1  0
 28 57  1  0
 28 58  1  0
 30 59  1  0
 31 60  1  0
 32 61  1  0
 33 62  1  0
 35 63  1  0
 35 64  1  0
M  END
>  <smiles>  (16) 
O=C(NCc1ccncc1)c1cc(N2CCc3ccccc3C2)nc(N2CCc3ccccc3C2)n1

>  <score_type>  (16) 
oracle

>  <origin>  (16) 
autodockgpu

>  <m_score__min__energy>  (16) 
-10.279999999999999

>  <m_primary>  (16) 
energy

>  <rmsd>  (16) 
3.6676604782007693

>  <m_score__min__rmsd>  (16) 
3.6676604782007693

>  <meeko>  (16) 
{"free_energy": -10.16, "intermolecular_energy": -11.65, "internal_energy": -0.9, "cluster_size": 27, "cluster_id": 1, "rank_in_cluster": 8}

>  <energy>  (16) 
-9.67

>  <cluster_rmsd>  (16) 
1.12

>  <cluster>  (16) 
1

$$$$

     RDKit          3D

 64 69  0  0  0  0  0  0  0  0999 V2000
  140.1510   70.2190  222.0080 O   0  0  0  0  0  0  0  0  0  0  0  0
  140.0000   71.3430  222.5530 C   0  0  0  0  0  0  0  0  0  0  0  0
  139.2040   71.4980  223.7090 N   0  0  0  0  0  0  0  0  0  0  0  0
  138.4980   70.4470  224.3820 C   0  0  0  0  0  0  0  0  0  0  0  0
  139.2860   69.7680  225.4440 C   0  0  0  0  0  0  0  0  0  0  0  0
  139.1910   68.3790  225.4790 C   0  0  0  0  0  0  0  0  0  0  0  0
  139.9040   67.6860  226.4550 C   0  0  0  0  0  0  0  0  0  0  0  0
  140.6670   68.3450  227.3470 N   0  0  0  0  0  0  0  0  0  0  0  0
  140.7440   69.6970  227.2940 C   0  0  0  0  0  0  0  0  0  0  0  0
  140.0670   70.4460  226.3550 C   0  0  0  0  0  0  0  0  0  0  0  0
  140.6730   72.5180  221.9620 C   0  0  0  0  0  0  0  0  0  0  0  0
  141.7440   72.3330  221.1110 C   0  0  0  0  0  0  0  0  0  0  0  0
  142.4160   73.3960  220.5350 C   0  0  0  0  0  0  0  0  0  0  0  0
  143.5180   73.1990  219.6580 N   0  0  0  0  0  0  0  0  0  0  0  0
  143.5590   73.9860  218.4500 C   0  0  0  0  0  0  0  0  0  0  0  0
  144.6240   73.6070  217.4850 C   0  0  0  0  0  0  0  0  0  0  0  0
  145.1860   72.2700  217.6580 C   0  0  0  0  0  0  0  0  0  0  0  0
  145.7790   71.6450  216.5820 C   0  0  0  0  0  0  0  0  0  0  0  0
  146.3290   70.3720  216.6990 C   0  0  0  0  0  0  0  0  0  0  0  0
  146.2870   69.7090  217.9140 C   0  0  0  0  0  0  0  0  0  0  0  0
  145.6930   70.3350  218.9910 C   0  0  0  0  0  0  0  0  0  0  0  0
  145.1570   71.5920  218.8500 C   0  0  0  0  0  0  0  0  0  0  0  0
  144.5300   72.2260  220.0240 C   0  0  0  0  0  0  0  0  0  0  0  0
  141.9690   74.6290  220.8510 N   0  0  0  0  0  0  0  0  0  0  0  0
  140.9250   74.8300  221.6790 C   0  0  0  0  0  0  0  0  0  0  0  0
  140.5420   76.1790  221.9450 N   0  0  0  0  0  0  0  0  0  0  0  0
  139.2670   76.4140  222.6020 C   0  0  0  0  0  0  0  0  0  0  0  0
  138.6880   77.7200  222.0330 C   0  0  0  0  0  0  0  0  0  0  0  0
  139.6680   78.7720  222.4890 C   0  0  0  0  0  0  0  0  0  0  0  0
  139.2410   79.9210  223.1150 C   0  0  0  0  0  0  0  0  0  0  0  0
  140.1570   80.8630  223.5270 C   0  0  0  0  0  0  0  0  0  0  0  0
  141.5030   80.6140  223.2910 C   0  0  0  0  0  0  0  0  0  0  0  0
  141.9200   79.4450  222.6520 C   0  0  0  0  0  0  0  0  0  0  0  0
  140.9940   78.4870  222.2340 C   0  0  0  0  0  0  0  0  0  0  0  0
  141.4420   77.2450  221.5540 C   0  0  0  0  0  0  0  0  0  0  0  0
  140.2870   73.7730  222.2270 N   0  0  0  0  0  0  0  0  0  0  0  0
  139.1390   72.4890  224.0950 H   0  0  0  0  0  0  0  0  0  0  0  0
  137.5963   70.8767  224.8427 H   0  0  0  0  0  0  0  0  0  0  0  0
  138.2664   69.6849  223.6234 H   0  0  0  0  0  0  0  0  0  0  0  0
  138.5662   67.8404  224.7514 H   0  0  0  0  0  0  0  0  0  0  0  0
  139.8428   66.5885  226.4971 H   0  0  0  0  0  0  0  0  0  0  0  0
  141.3727   70.2185  228.0307 H   0  0  0  0  0  0  0  0  0  0  0  0
  140.1472   71.5429  226.3337 H   0  0  0  0  0  0  0  0  0  0  0  0
  142.0733   71.3083  220.8838 H   0  0  0  0  0  0  0  0  0  0  0  0
  142.5881   73.8830  217.9434 H   0  0  0  0  0  0  0  0  0  0  0  0
  143.7831   75.0162  218.7637 H   0  0  0  0  0  0  0  0  0  0  0  0
  144.1997   73.6672  216.4719 H   0  0  0  0  0  0  0  0  0  0  0  0
  145.4536   74.3073  217.6622 H   0  0  0  0  0  0  0  0  0  0  0  0
  145.8183   72.1625  215.6121 H   0  0  0  0  0  0  0  0  0  0  0  0
  146.7970   69.8926  215.8266 H   0  0  0  0  0  0  0  0  0  0  0  0
  146.7188   68.7027  218.0187 H   0  0  0  0  0  0  0  0  0  0  0  0
  145.6486   69.8260  219.9651 H   0  0  0  0  0  0  0  0  0  0  0  0
  144.0607   71.4435  220.6384 H   0  0  0  0  0  0  0  0  0  0  0  0
  145.3187   72.7572  220.5770 H   0  0  0  0  0  0  0  0  0  0  0  0
  138.5803   75.5789  222.3991 H   0  0  0  0  0  0  0  0  0  0  0  0
  139.4007   76.4914  223.6911 H   0  0  0  0  0  0  0  0  0  0  0  0
  138.6366   77.6810  220.9349 H   0  0  0  0  0  0  0  0  0  0  0  0
  137.6610   77.9164  222.3747 H   0  0  0  0  0  0  0  0  0  0  0  0
  138.1672   80.0869  223.2863 H   0  0  0  0  0  0  0  0  0  0  0  0
  139.8321   81.7864  224.0287 H   0  0  0  0  0  0  0  0  0  0  0  0
  142.2535   81.3508  223.6133 H   0  0  0  0  0  0  0  0  0  0  0  0
  142.9925   79.2762  222.4754 H   0  0  0  0  0  0  0  0  0  0  0  0
  141.4084   77.3823  220.4631 H   0  0  0  0  0  0  0  0  0  0  0  0
  142.4756   77.0007  221.8402 H   0  0  0  0  0  0  0  0  0  0  0  0
  1  2  2  0
  2  3  1  0
  3  4  1  0
  4  5  1  0
  5  6  2  0
  6  7  1  0
  7  8  2  0
  8  9  1  0
  9 10  2  0
  2 11  1  0
 11 12  2  0
 12 13  1  0
 13 14  1  0
 14 15  1  0
 15 16  1  0
 16 17  1  0
 17 18  2  0
 18 19  1  0
 19 20  2  0
 20 21  1  0
 21 22  2  0
 22 23  1  0
 13 24  2  0
 24 25  1  0
 25 26  1  0
 26 27  1  0
 27 28  1  0
 28 29  1  0
 29 30  2  0
 30 31  1  0
 31 32  2  0
 32 33  1  0
 33 34  2  0
 34 35  1  0
 25 36  2  0
 10  5  1  0
 36 11  1  0
 23 14  1  0
 35 26  1  0
 22 17  1  0
 34 29  1  0
  3 37  1  0
  4 38  1  0
  4 39  1  0
  6 40  1  0
  7 41  1  0
  9 42  1  0
 10 43  1  0
 12 44  1  0
 15 45  1  0
 15 46  1  0
 16 47  1  0
 16 48  1  0
 18 49  1  0
 19 50  1  0
 20 51  1  0
 21 52  1  0
 23 53  1  0
 23 54  1  0
 27 55  1  0
 27 56  1  0
 28 57  1  0
 28 58  1  0
 30 59  1  0
 31 60  1  0
 32 61  1  0
 33 62  1  0
 35 63  1  0
 35 64  1  0
M  END
>  <smiles>  (17) 
O=C(NCc1ccncc1)c1cc(N2CCc3ccccc3C2)nc(N2CCc3ccccc3C2)n1

>  <score_type>  (17) 
oracle

>  <origin>  (17) 
autodockgpu

>  <m_score__min__energy>  (17) 
-10.279999999999999

>  <m_primary>  (17) 
energy

>  <rmsd>  (17) 
10.369451433906558

>  <m_score__min__rmsd>  (17) 
10.369451433906558

>  <meeko>  (17) 
{"free_energy": -9.31, "intermolecular_energy": -10.8, "internal_energy": -1.25, "cluster_size": 2, "cluster_id": 3, "rank_in_cluster": 1}

>  <energy>  (17) 
-9.66

>  <cluster_rmsd>  (17) 
1.37

>  <cluster>  (17) 
1

$$$$

     RDKit          3D

 64 69  0  0  0  0  0  0  0  0999 V2000
  138.8790   76.0900  221.0760 O   0  0  0  0  0  0  0  0  0  0  0  0
  140.0800   75.9840  221.4370 C   0  0  0  0  0  0  0  0  0  0  0  0
  140.8500   77.1210  221.7680 N   0  0  0  0  0  0  0  0  0  0  0  0
  140.3890   78.4780  221.7360 C   0  0  0  0  0  0  0  0  0  0  0  0
  141.2540   79.4310  222.4810 C   0  0  0  0  0  0  0  0  0  0  0  0
  140.5900   80.4160  223.2080 C   0  0  0  0  0  0  0  0  0  0  0  0
  141.3460   81.3410  223.9230 C   0  0  0  0  0  0  0  0  0  0  0  0
  142.6920   81.2860  223.9110 N   0  0  0  0  0  0  0  0  0  0  0  0
  143.3160   80.3190  223.1960 C   0  0  0  0  0  0  0  0  0  0  0  0
  142.6320   79.3710  222.4660 C   0  0  0  0  0  0  0  0  0  0  0  0
  140.6840   74.6390  221.5140 C   0  0  0  0  0  0  0  0  0  0  0  0
  141.7500   74.3230  220.6970 C   0  0  0  0  0  0  0  0  0  0  0  0
  142.3510   73.0770  220.7210 C   0  0  0  0  0  0  0  0  0  0  0  0
  143.4500   72.7580  219.8770 N   0  0  0  0  0  0  0  0  0  0  0  0
  143.5870   73.5010  218.6490 C   0  0  0  0  0  0  0  0  0  0  0  0
  144.6350   73.0000  217.7220 C   0  0  0  0  0  0  0  0  0  0  0  0
  145.0720   71.6250  217.9450 C   0  0  0  0  0  0  0  0  0  0  0  0
  145.6300   70.9180  216.9020 C   0  0  0  0  0  0  0  0  0  0  0  0
  146.0620   69.6050  217.0680 C   0  0  0  0  0  0  0  0  0  0  0  0
  145.9350   68.9850  218.3000 C   0  0  0  0  0  0  0  0  0  0  0  0
  145.3760   69.6930  219.3440 C   0  0  0  0  0  0  0  0  0  0  0  0
  144.9570   70.9880  219.1550 C   0  0  0  0  0  0  0  0  0  0  0  0
  144.3630   71.7100  220.2950 C   0  0  0  0  0  0  0  0  0  0  0  0
  141.8370   72.1820  221.5910 N   0  0  0  0  0  0  0  0  0  0  0  0
  140.7990   72.4710  222.3980 C   0  0  0  0  0  0  0  0  0  0  0  0
  140.3350   71.4460  223.2750 N   0  0  0  0  0  0  0  0  0  0  0  0
  139.5750   70.3450  222.7070 C   0  0  0  0  0  0  0  0  0  0  0  0
  138.5230   69.9250  223.7470 C   0  0  0  0  0  0  0  0  0  0  0  0
  139.3480   69.4000  224.8950 C   0  0  0  0  0  0  0  0  0  0  0  0
  139.0790   68.1770  225.4650 C   0  0  0  0  0  0  0  0  0  0  0  0
  139.8520   67.7170  226.5080 C   0  0  0  0  0  0  0  0  0  0  0  0
  140.8940   68.5210  226.9540 C   0  0  0  0  0  0  0  0  0  0  0  0
  141.1520   69.7600  226.3660 C   0  0  0  0  0  0  0  0  0  0  0  0
  140.3720   70.2280  225.3080 C   0  0  0  0  0  0  0  0  0  0  0  0
  140.6500   71.5490  224.6860 C   0  0  0  0  0  0  0  0  0  0  0  0
  140.2310   73.6970  222.3520 N   0  0  0  0  0  0  0  0  0  0  0  0
  141.8560   76.9270  222.0620 H   0  0  0  0  0  0  0  0  0  0  0  0
  140.3423   78.8023  220.6859 H   0  0  0  0  0  0  0  0  0  0  0  0
  139.4056   78.4905  222.2287 H   0  0  0  0  0  0  0  0  0  0  0  0
  139.4910   80.4622  223.2171 H   0  0  0  0  0  0  0  0  0  0  0  0
  140.8387   82.1253  224.5040 H   0  0  0  0  0  0  0  0  0  0  0  0
  144.4156   80.2893  223.1982 H   0  0  0  0  0  0  0  0  0  0  0  0
  143.1642   78.5968  221.8938 H   0  0  0  0  0  0  0  0  0  0  0  0
  142.1344   75.0862  220.0043 H   0  0  0  0  0  0  0  0  0  0  0  0
  142.6221   73.4686  218.1218 H   0  0  0  0  0  0  0  0  0  0  0  0
  143.8946   74.5167  218.9385 H   0  0  0  0  0  0  0  0  0  0  0  0
  144.2403   73.0673  216.6975 H   0  0  0  0  0  0  0  0  0  0  0  0
  145.5196   73.6288  217.9012 H   0  0  0  0  0  0  0  0  0  0  0  0
  145.7361   71.4005  215.9192 H   0  0  0  0  0  0  0  0  0  0  0  0
  146.5041   69.0601  216.2209 H   0  0  0  0  0  0  0  0  0  0  0  0
  146.2733   67.9482  218.4434 H   0  0  0  0  0  0  0  0  0  0  0  0
  145.2654   69.2194  220.3306 H   0  0  0  0  0  0  0  0  0  0  0  0
  143.8121   70.9909  220.9190 H   0  0  0  0  0  0  0  0  0  0  0  0
  145.1835   72.1855  220.8524 H   0  0  0  0  0  0  0  0  0  0  0  0
  139.0786   70.6697  221.7806 H   0  0  0  0  0  0  0  0  0  0  0  0
  140.2377   69.5015  222.4636 H   0  0  0  0  0  0  0  0  0  0  0  0
  137.9160   70.7868  224.0616 H   0  0  0  0  0  0  0  0  0  0  0  0
  137.8108   69.1824  223.3582 H   0  0  0  0  0  0  0  0  0  0  0  0
  138.2458   67.5661  225.0874 H   0  0  0  0  0  0  0  0  0  0  0  0
  139.6504   66.7414  226.9745 H   0  0  0  0  0  0  0  0  0  0  0  0
  141.5263   68.1748  227.7848 H   0  0  0  0  0  0  0  0  0  0  0  0
  141.9819   70.3763  226.7419 H   0  0  0  0  0  0  0  0  0  0  0  0
  140.0240   72.3229  225.1542 H   0  0  0  0  0  0  0  0  0  0  0  0
  141.7051   71.8268  224.8262 H   0  0  0  0  0  0  0  0  0  0  0  0
  1  2  2  0
  2  3  1  0
  3  4  1  0
  4  5  1  0
  5  6  2  0
  6  7  1  0
  7  8  2  0
  8  9  1  0
  9 10  2  0
  2 11  1  0
 11 12  2  0
 12 13  1  0
 13 14  1  0
 14 15  1  0
 15 16  1  0
 16 17  1  0
 17 18  2  0
 18 19  1  0
 19 20  2  0
 20 21  1  0
 21 22  2  0
 22 23  1  0
 13 24  2  0
 24 25  1  0
 25 26  1  0
 26 27  1  0
 27 28  1  0
 28 29  1  0
 29 30  2  0
 30 31  1  0
 31 32  2  0
 32 33  1  0
 33 34  2  0
 34 35  1  0
 25 36  2  0
 10  5  1  0
 36 11  1  0
 23 14  1  0
 35 26  1  0
 22 17  1  0
 34 29  1  0
  3 37  1  0
  4 38  1  0
  4 39  1  0
  6 40  1  0
  7 41  1  0
  9 42  1  0
 10 43  1  0
 12 44  1  0
 15 45  1  0
 15 46  1  0
 16 47  1  0
 16 48  1  0
 18 49  1  0
 19 50  1  0
 20 51  1  0
 21 52  1  0
 23 53  1  0
 23 54  1  0
 27 55  1  0
 27 56  1  0
 28 57  1  0
 28 58  1  0
 30 59  1  0
 31 60  1  0
 32 61  1  0
 33 62  1  0
 35 63  1  0
 35 64  1  0
M  END
>  <smiles>  (18) 
O=C(NCc1ccncc1)c1cc(N2CCc3ccccc3C2)nc(N2CCc3ccccc3C2)n1

>  <score_type>  (18) 
oracle

>  <origin>  (18) 
autodockgpu

>  <m_score__min__energy>  (18) 
-10.279999999999999

>  <m_primary>  (18) 
energy

>  <rmsd>  (18) 
3.7192758829415684

>  <m_score__min__rmsd>  (18) 
3.7192758829415684

>  <meeko>  (18) 
{"free_energy": -10.24, "intermolecular_energy": -11.73, "internal_energy": -0.87, "cluster_size": 27, "cluster_id": 1, "rank_in_cluster": 4}

>  <energy>  (18) 
-9.66

>  <cluster_rmsd>  (18) 
1.09

>  <cluster>  (18) 
1

$$$$

     RDKit          3D

 64 69  0  0  0  0  0  0  0  0999 V2000
  140.4050   76.3380  220.4910 O   0  0  0  0  0  0  0  0  0  0  0  0
  140.1530   75.6590  221.5200 C   0  0  0  0  0  0  0  0  0  0  0  0
  139.4110   76.2000  222.5930 N   0  0  0  0  0  0  0  0  0  0  0  0
  138.8740   77.5280  222.6490 C   0  0  0  0  0  0  0  0  0  0  0  0
  139.8640   78.5680  223.0350 C   0  0  0  0  0  0  0  0  0  0  0  0
  141.2040   78.1930  222.9540 C   0  0  0  0  0  0  0  0  0  0  0  0
  142.1790   79.1230  223.3070 C   0  0  0  0  0  0  0  0  0  0  0  0
  141.8350   80.3580  223.7180 N   0  0  0  0  0  0  0  0  0  0  0  0
  140.5250   80.7000  223.7890 C   0  0  0  0  0  0  0  0  0  0  0  0
  139.5080   79.8320  223.4550 C   0  0  0  0  0  0  0  0  0  0  0  0
  140.6480   74.2700  221.5950 C   0  0  0  0  0  0  0  0  0  0  0  0
  141.5750   73.8250  220.6740 C   0  0  0  0  0  0  0  0  0  0  0  0
  142.0680   72.5330  220.6930 C   0  0  0  0  0  0  0  0  0  0  0  0
  143.0230   72.0800  219.7420 N   0  0  0  0  0  0  0  0  0  0  0  0
  142.9010   72.5660  218.3900 C   0  0  0  0  0  0  0  0  0  0  0  0
  143.8030   71.9180  217.4020 C   0  0  0  0  0  0  0  0  0  0  0  0
  144.3560   70.6280  217.8040 C   0  0  0  0  0  0  0  0  0  0  0  0
  144.7700   69.7410  216.8320 C   0  0  0  0  0  0  0  0  0  0  0  0
  145.3050   68.5000  217.1680 C   0  0  0  0  0  0  0  0  0  0  0  0
  145.4300   68.1370  218.4980 C   0  0  0  0  0  0  0  0  0  0  0  0
  145.0160   69.0250  219.4690 C   0  0  0  0  0  0  0  0  0  0  0  0
  144.4900   70.2430  219.1130 C   0  0  0  0  0  0  0  0  0  0  0  0
  144.0580   71.1630  220.1810 C   0  0  0  0  0  0  0  0  0  0  0  0
  141.5920   71.7250  221.6650 N   0  0  0  0  0  0  0  0  0  0  0  0
  140.6900   72.1400  222.5730 C   0  0  0  0  0  0  0  0  0  0  0  0
  140.2540   71.1990  223.5530 N   0  0  0  0  0  0  0  0  0  0  0  0
  139.5550   70.0080  223.1010 C   0  0  0  0  0  0  0  0  0  0  0  0
  138.5020   69.6580  224.1650 C   0  0  0  0  0  0  0  0  0  0  0  0
  139.3260   69.3030  225.3780 C   0  0  0  0  0  0  0  0  0  0  0  0
  139.1000   68.1400  226.0780 C   0  0  0  0  0  0  0  0  0  0  0  0
  139.8710   67.8360  227.1770 C   0  0  0  0  0  0  0  0  0  0  0  0
  140.8670   68.7320  227.5460 C   0  0  0  0  0  0  0  0  0  0  0  0
  141.0820   69.9080  226.8270 C   0  0  0  0  0  0  0  0  0  0  0  0
  140.3030   70.2190  225.7110 C   0  0  0  0  0  0  0  0  0  0  0  0
  140.5350   71.4730  224.9480 C   0  0  0  0  0  0  0  0  0  0  0  0
  140.2250   73.4080  222.5310 N   0  0  0  0  0  0  0  0  0  0  0  0
  139.2510   75.5460  223.4190 H   0  0  0  0  0  0  0  0  0  0  0  0
  138.4762   77.7818  221.6554 H   0  0  0  0  0  0  0  0  0  0  0  0
  138.0985   77.5236  223.4291 H   0  0  0  0  0  0  0  0  0  0  0  0
  141.4856   77.1840  222.6184 H   0  0  0  0  0  0  0  0  0  0  0  0
  143.2418   78.8453  223.2493 H   0  0  0  0  0  0  0  0  0  0  0  0
  140.2628   81.7132  224.1275 H   0  0  0  0  0  0  0  0  0  0  0  0
  138.4529   80.1359  223.5210 H   0  0  0  0  0  0  0  0  0  0  0  0
  141.9330   74.5202  219.9003 H   0  0  0  0  0  0  0  0  0  0  0  0
  141.8637   72.4034  218.0620 H   0  0  0  0  0  0  0  0  0  0  0  0
  143.1908   73.6267  218.4190 H   0  0  0  0  0  0  0  0  0  0  0  0
  143.2345   71.7676  216.4724 H   0  0  0  0  0  0  0  0  0  0  0  0
  144.6641   72.5936  217.2923 H   0  0  0  0  0  0  0  0  0  0  0  0
  144.6758   70.0191  215.7719 H   0  0  0  0  0  0  0  0  0  0  0  0
  145.6283   67.8080  216.3764 H   0  0  0  0  0  0  0  0  0  0  0  0
  145.8513   67.1594  218.7752 H   0  0  0  0  0  0  0  0  0  0  0  0
  145.1074   68.7569  220.5319 H   0  0  0  0  0  0  0  0  0  0  0  0
  143.6695   70.5694  221.0216 H   0  0  0  0  0  0  0  0  0  0  0  0
  144.9310   71.7629  220.4775 H   0  0  0  0  0  0  0  0  0  0  0  0
  139.0636   70.2043  222.1367 H   0  0  0  0  0  0  0  0  0  0  0  0
  140.2592   69.1742  222.9641 H   0  0  0  0  0  0  0  0  0  0  0  0
  137.8509   70.5202  224.3714 H   0  0  0  0  0  0  0  0  0  0  0  0
  137.8319   68.8442  223.8510 H   0  0  0  0  0  0  0  0  0  0  0  0
  138.3026   67.4527  225.7590 H   0  0  0  0  0  0  0  0  0  0  0  0
  139.7035   66.9102  227.7469 H   0  0  0  0  0  0  0  0  0  0  0  0
  141.4968   68.5102  228.4202 H   0  0  0  0  0  0  0  0  0  0  0  0
  141.8764   70.5998  227.1438 H   0  0  0  0  0  0  0  0  0  0  0  0
  139.8660   72.2647  225.3163 H   0  0  0  0  0  0  0  0  0  0  0  0
  141.5739   71.8125  225.0720 H   0  0  0  0  0  0  0  0  0  0  0  0
  1  2  2  0
  2  3  1  0
  3  4  1  0
  4  5  1  0
  5  6  2  0
  6  7  1  0
  7  8  2  0
  8  9  1  0
  9 10  2  0
  2 11  1  0
 11 12  2  0
 12 13  1  0
 13 14  1  0
 14 15  1  0
 15 16  1  0
 16 17  1  0
 17 18  2  0
 18 19  1  0
 19 20  2  0
 20 21  1  0
 21 22  2  0
 22 23  1  0
 13 24  2  0
 24 25  1  0
 25 26  1  0
 26 27  1  0
 27 28  1  0
 28 29  1  0
 29 30  2  0
 30 31  1  0
 31 32  2  0
 32 33  1  0
 33 34  2  0
 34 35  1  0
 25 36  2  0
 10  5  1  0
 36 11  1  0
 23 14  1  0
 35 26  1  0
 22 17  1  0
 34 29  1  0
  3 37  1  0
  4 38  1  0
  4 39  1  0
  6 40  1  0
  7 41  1  0
  9 42  1  0
 10 43  1  0
 12 44  1  0
 15 45  1  0
 15 46  1  0
 16 47  1  0
 16 48  1  0
 18 49  1  0
 19 50  1  0
 20 51  1  0
 21 52  1  0
 23 53  1  0
 23 54  1  0
 27 55  1  0
 27 56  1  0
 28 57  1  0
 28 58  1  0
 30 59  1  0
 31 60  1  0
 32 61  1  0
 33 62  1  0
 35 63  1  0
 35 64  1  0
M  END
>  <smiles>  (19) 
O=C(NCc1ccncc1)c1cc(N2CCc3ccccc3C2)nc(N2CCc3ccccc3C2)n1

>  <score_type>  (19) 
oracle

>  <origin>  (19) 
autodockgpu

>  <m_score__min__energy>  (19) 
-10.279999999999999

>  <m_primary>  (19) 
energy

>  <rmsd>  (19) 
3.804876773249397

>  <m_score__min__rmsd>  (19) 
3.804876773249397

>  <meeko>  (19) 
{"free_energy": -9.66, "intermolecular_energy": -11.15, "internal_energy": -1.22, "cluster_size": 27, "cluster_id": 1, "rank_in_cluster": 19}

>  <energy>  (19) 
-9.66

>  <cluster_rmsd>  (19) 
1.17

>  <cluster>  (19) 
1

$$$$

     RDKit          3D

 64 69  0  0  0  0  0  0  0  0999 V2000
  140.0070   76.4470  220.4950 O   0  0  0  0  0  0  0  0  0  0  0  0
  139.8490   75.7780  221.5480 C   0  0  0  0  0  0  0  0  0  0  0  0
  139.0700   76.2680  222.6200 N   0  0  0  0  0  0  0  0  0  0  0  0
  138.3910   77.5300  222.6470 C   0  0  0  0  0  0  0  0  0  0  0  0
  139.2430   78.6700  223.0760 C   0  0  0  0  0  0  0  0  0  0  0  0
  140.6160   78.4360  223.0790 C   0  0  0  0  0  0  0  0  0  0  0  0
  141.4680   79.4650  223.4760 C   0  0  0  0  0  0  0  0  0  0  0  0
  140.9740   80.6600  223.8510 N   0  0  0  0  0  0  0  0  0  0  0  0
  139.6330   80.8650  223.8400 C   0  0  0  0  0  0  0  0  0  0  0  0
  138.7330   79.8920  223.4590 C   0  0  0  0  0  0  0  0  0  0  0  0
  140.4960   74.4550  221.6550 C   0  0  0  0  0  0  0  0  0  0  0  0
  141.5760   74.1560  220.8490 C   0  0  0  0  0  0  0  0  0  0  0  0
  142.2160   72.9310  220.9020 C   0  0  0  0  0  0  0  0  0  0  0  0
  143.3290   72.6300  220.0690 N   0  0  0  0  0  0  0  0  0  0  0  0
  143.5480   73.4690  218.9180 C   0  0  0  0  0  0  0  0  0  0  0  0
  144.6040   72.9970  217.9840 C   0  0  0  0  0  0  0  0  0  0  0  0
  144.9640   71.5870  218.0990 C   0  0  0  0  0  0  0  0  0  0  0  0
  145.5250   70.9450  217.0150 C   0  0  0  0  0  0  0  0  0  0  0  0
  145.8860   69.6020  217.0780 C   0  0  0  0  0  0  0  0  0  0  0  0
  145.6830   68.8850  218.2450 C   0  0  0  0  0  0  0  0  0  0  0  0
  145.1210   69.5280  219.3290 C   0  0  0  0  0  0  0  0  0  0  0  0
  144.7730   70.8540  219.2420 C   0  0  0  0  0  0  0  0  0  0  0  0
  144.1730   71.5040  220.4220 C   0  0  0  0  0  0  0  0  0  0  0  0
  141.7270   72.0380  221.7880 N   0  0  0  0  0  0  0  0  0  0  0  0
  140.6760   72.3100  222.5840 C   0  0  0  0  0  0  0  0  0  0  0  0
  140.2410   71.2890  223.4810 N   0  0  0  0  0  0  0  0  0  0  0  0
  139.5770   70.1220  222.9250 C   0  0  0  0  0  0  0  0  0  0  0  0
  138.5100   69.6720  223.9360 C   0  0  0  0  0  0  0  0  0  0  0  0
  139.3170   69.2420  225.1360 C   0  0  0  0  0  0  0  0  0  0  0  0
  139.1020   68.0250  225.7410 C   0  0  0  0  0  0  0  0  0  0  0  0
  139.8570   67.6540  226.8310 C   0  0  0  0  0  0  0  0  0  0  0  0
  140.8260   68.5390  227.2880 C   0  0  0  0  0  0  0  0  0  0  0  0
  141.0300   69.7700  226.6640 C   0  0  0  0  0  0  0  0  0  0  0  0
  140.2670   70.1490  225.5590 C   0  0  0  0  0  0  0  0  0  0  0  0
  140.4870   71.4620  224.8980 C   0  0  0  0  0  0  0  0  0  0  0  0
  140.0690   73.5160  222.5110 N   0  0  0  0  0  0  0  0  0  0  0  0
  138.9980   75.6270  223.4680 H   0  0  0  0  0  0  0  0  0  0  0  0
  138.0153   77.7415  221.6350 H   0  0  0  0  0  0  0  0  0  0  0  0
  137.5849   77.4400  223.3901 H   0  0  0  0  0  0  0  0  0  0  0  0
  141.0196   77.4591  222.7743 H   0  0  0  0  0  0  0  0  0  0  0  0
  142.5554   79.2991  223.4830 H   0  0  0  0  0  0  0  0  0  0  0  0
  139.2475   81.8482  224.1478 H   0  0  0  0  0  0  0  0  0  0  0  0
  137.6498   80.0837  223.4607 H   0  0  0  0  0  0  0  0  0  0  0  0
  141.9393   74.9163  220.1419 H   0  0  0  0  0  0  0  0  0  0  0  0
  142.6029   73.5336  218.3589 H   0  0  0  0  0  0  0  0  0  0  0  0
  143.8946   74.4377  219.3071 H   0  0  0  0  0  0  0  0  0  0  0  0
  144.2510   73.1734  216.9572 H   0  0  0  0  0  0  0  0  0  0  0  0
  145.5112   73.5613  218.2458 H   0  0  0  0  0  0  0  0  0  0  0  0
  145.6904   71.5049  216.0827 H   0  0  0  0  0  0  0  0  0  0  0  0
  146.3324   69.1106  216.2009 H   0  0  0  0  0  0  0  0  0  0  0  0
  145.9643   67.8234  218.3068 H   0  0  0  0  0  0  0  0  0  0  0  0
  144.9512   68.9769  220.2657 H   0  0  0  0  0  0  0  0  0  0  0  0
  143.5647   70.7630  220.9613 H   0  0  0  0  0  0  0  0  0  0  0  0
  144.9944   71.8857  221.0462 H   0  0  0  0  0  0  0  0  0  0  0  0
  139.1016   70.3810  221.9675 H   0  0  0  0  0  0  0  0  0  0  0  0
  140.3014   69.3149  222.7413 H   0  0  0  0  0  0  0  0  0  0  0  0
  137.8369   70.5033  224.1928 H   0  0  0  0  0  0  0  0  0  0  0  0
  137.8632   68.8718  223.5470 H   0  0  0  0  0  0  0  0  0  0  0  0
  138.3264   67.3480  225.3536 H   0  0  0  0  0  0  0  0  0  0  0  0
  139.6977   66.6847  227.3260 H   0  0  0  0  0  0  0  0  0  0  0  0
  141.4427   68.2643  228.1565 H   0  0  0  0  0  0  0  0  0  0  0  0
  141.8032   70.4514  227.0485 H   0  0  0  0  0  0  0  0  0  0  0  0
  139.7933   72.2097  225.3100 H   0  0  0  0  0  0  0  0  0  0  0  0
  141.5154   71.8123  225.0703 H   0  0  0  0  0  0  0  0  0  0  0  0
  1  2  2  0
  2  3  1  0
  3  4  1  0
  4  5  1  0
  5  6  2  0
  6  7  1  0
  7  8  2  0
  8  9  1  0
  9 10  2  0
  2 11  1  0
 11 12  2  0
 12 13  1  0
 13 14  1  0
 14 15  1  0
 15 16  1  0
 16 17  1  0
 17 18  2  0
 18 19  1  0
 19 20  2  0
 20 21  1  0
 21 22  2  0
 22 23  1  0
 13 24  2  0
 24 25  1  0
 25 26  1  0
 26 27  1  0
 27 28  1  0
 28 29  1  0
 29 30  2  0
 30 31  1  0
 31 32  2  0
 32 33  1  0
 33 34  2  0
 34 35  1  0
 25 36  2  0
 10  5  1  0
 36 11  1  0
 23 14  1  0
 35 26  1  0
 22 17  1  0
 34 29  1  0
  3 37  1  0
  4 38  1  0
  4 39  1  0
  6 40  1  0
  7 41  1  0
  9 42  1  0
 10 43  1  0
 12 44  1  0
 15 45  1  0
 15 46  1  0
 16 47  1  0
 16 48  1  0
 18 49  1  0
 19 50  1  0
 20 51  1  0
 21 52  1  0
 23 53  1  0
 23 54  1  0
 27 55  1  0
 27 56  1  0
 28 57  1  0
 28 58  1  0
 30 59  1  0
 31 60  1  0
 32 61  1  0
 33 62  1  0
 35 63  1  0
 35 64  1  0
M  END
>  <smiles>  (20) 
O=C(NCc1ccncc1)c1cc(N2CCc3ccccc3C2)nc(N2CCc3ccccc3C2)n1

>  <score_type>  (20) 
oracle

>  <origin>  (20) 
autodockgpu

>  <m_score__min__energy>  (20) 
-10.279999999999999

>  <m_primary>  (20) 
energy

>  <rmsd>  (20) 
3.702373994236819

>  <m_score__min__rmsd>  (20) 
3.702373994236819

>  <meeko>  (20) 
{"free_energy": -9.67, "intermolecular_energy": -11.16, "internal_energy": -1.21, "cluster_size": 27, "cluster_id": 1, "rank_in_cluster": 16}

>  <energy>  (20) 
-9.66

>  <cluster_rmsd>  (20) 
1.18

>  <cluster>  (20) 
1

$$$$

     RDKit          3D

 64 69  0  0  0  0  0  0  0  0999 V2000
  143.4960   72.8640  218.2410 O   0  0  0  0  0  0  0  0  0  0  0  0
  143.5550   72.4300  219.4200 C   0  0  0  0  0  0  0  0  0  0  0  0
  144.5410   71.4960  219.8100 N   0  0  0  0  0  0  0  0  0  0  0  0
  145.5520   70.9460  218.9560 C   0  0  0  0  0  0  0  0  0  0  0  0
  145.5220   69.4630  218.8550 C   0  0  0  0  0  0  0  0  0  0  0  0
  144.6590   68.8110  219.7330 C   0  0  0  0  0  0  0  0  0  0  0  0
  144.5890   67.4200  219.6890 C   0  0  0  0  0  0  0  0  0  0  0  0
  145.3410   66.7210  218.8190 N   0  0  0  0  0  0  0  0  0  0  0  0
  146.1740   67.3770  217.9750 C   0  0  0  0  0  0  0  0  0  0  0  0
  146.2930   68.7510  217.9620 C   0  0  0  0  0  0  0  0  0  0  0  0
  142.5700   72.9150  220.4080 C   0  0  0  0  0  0  0  0  0  0  0  0
  142.2580   74.2580  220.4580 C   0  0  0  0  0  0  0  0  0  0  0  0
  141.3490   74.7680  221.3660 C   0  0  0  0  0  0  0  0  0  0  0  0
  141.0310   76.1530  221.4120 N   0  0  0  0  0  0  0  0  0  0  0  0
  140.8470   76.8380  220.1570 C   0  0  0  0  0  0  0  0  0  0  0  0
  140.7060   78.3150  220.2580 C   0  0  0  0  0  0  0  0  0  0  0  0
  141.1910   78.9120  221.4980 C   0  0  0  0  0  0  0  0  0  0  0  0
  141.5650   80.2400  221.5040 C   0  0  0  0  0  0  0  0  0  0  0  0
  142.0320   80.8530  222.6640 C   0  0  0  0  0  0  0  0  0  0  0  0
  142.1300   80.1280  223.8390 C   0  0  0  0  0  0  0  0  0  0  0  0
  141.7570   78.7990  223.8320 C   0  0  0  0  0  0  0  0  0  0  0  0
  141.2980   78.2170  222.6750 C   0  0  0  0  0  0  0  0  0  0  0  0
  140.9110   76.7950  222.7080 C   0  0  0  0  0  0  0  0  0  0  0  0
  140.7790   73.8790  222.2060 N   0  0  0  0  0  0  0  0  0  0  0  0
  141.0690   72.5640  222.1730 C   0  0  0  0  0  0  0  0  0  0  0  0
  140.4090   71.7160  223.1130 N   0  0  0  0  0  0  0  0  0  0  0  0
  139.4740   70.7260  222.6080 C   0  0  0  0  0  0  0  0  0  0  0  0
  138.3420   70.5910  223.6390 C   0  0  0  0  0  0  0  0  0  0  0  0
  139.0340   70.0250  224.8540 C   0  0  0  0  0  0  0  0  0  0  0  0
  138.5360   68.9220  225.5100 C   0  0  0  0  0  0  0  0  0  0  0  0
  139.1910   68.4210  226.6130 C   0  0  0  0  0  0  0  0  0  0  0  0
  140.3530   69.0600  227.0300 C   0  0  0  0  0  0  0  0  0  0  0  0
  140.8440   70.1780  226.3550 C   0  0  0  0  0  0  0  0  0  0  0  0
  140.1830   70.6880  225.2360 C   0  0  0  0  0  0  0  0  0  0  0  0
  140.7080   71.8800  224.5210 C   0  0  0  0  0  0  0  0  0  0  0  0
  141.9620   72.0930  221.2750 N   0  0  0  0  0  0  0  0  0  0  0  0
  144.5080   71.1900  220.8300 H   0  0  0  0  0  0  0  0  0  0  0  0
  145.4165   71.3635  217.9474 H   0  0  0  0  0  0  0  0  0  0  0  0
  146.5220   71.2136  219.4005 H   0  0  0  0  0  0  0  0  0  0  0  0
  144.0459   69.3820  220.4458 H   0  0  0  0  0  0  0  0  0  0  0  0
  143.9117   66.8875  220.3729 H   0  0  0  0  0  0  0  0  0  0  0  0
  146.7807   66.7889  217.2707 H   0  0  0  0  0  0  0  0  0  0  0  0
  146.9768   69.2587  217.2659 H   0  0  0  0  0  0  0  0  0  0  0  0
  142.7483   74.9450  219.7526 H   0  0  0  0  0  0  0  0  0  0  0  0
  141.7174   76.6218  219.5202 H   0  0  0  0  0  0  0  0  0  0  0  0
  139.8976   76.4677  219.7428 H   0  0  0  0  0  0  0  0  0  0  0  0
  141.2644   78.7659  219.4244 H   0  0  0  0  0  0  0  0  0  0  0  0
  139.6249   78.5164  220.2302 H   0  0  0  0  0  0  0  0  0  0  0  0
  141.4930   80.8254  220.5755 H   0  0  0  0  0  0  0  0  0  0  0  0
  142.3231   81.9136  222.6465 H   0  0  0  0  0  0  0  0  0  0  0  0
  142.4982   80.6019  224.7609 H   0  0  0  0  0  0  0  0  0  0  0  0
  141.8274   78.2045  224.7548 H   0  0  0  0  0  0  0  0  0  0  0  0
  141.5613   76.2695  223.4229 H   0  0  0  0  0  0  0  0  0  0  0  0
  139.8538   76.7446  223.0078 H   0  0  0  0  0  0  0  0  0  0  0  0
  139.0644   71.0549  221.6415 H   0  0  0  0  0  0  0  0  0  0  0  0
  139.9773   69.7597  222.4566 H   0  0  0  0  0  0  0  0  0  0  0  0
  137.8954   71.5711  223.8624 H   0  0  0  0  0  0  0  0  0  0  0  0
  137.5148   69.9583  223.2849 H   0  0  0  0  0  0  0  0  0  0  0  0
  137.6139   68.4402  225.1528 H   0  0  0  0  0  0  0  0  0  0  0  0
  138.8058   67.5407  227.1485 H   0  0  0  0  0  0  0  0  0  0  0  0
  140.8949   68.6775  227.9075 H   0  0  0  0  0  0  0  0  0  0  0  0
  141.7647   70.6644  226.7094 H   0  0  0  0  0  0  0  0  0  0  0  0
  140.2229   72.7901  224.9035 H   0  0  0  0  0  0  0  0  0  0  0  0
  141.7928   71.9754  224.6760 H   0  0  0  0  0  0  0  0  0  0  0  0
  1  2  2  0
  2  3  1  0
  3  4  1  0
  4  5  1  0
  5  6  2  0
  6  7  1  0
  7  8  2  0
  8  9  1  0
  9 10  2  0
  2 11  1  0
 11 12  2  0
 12 13  1  0
 13 14  1  0
 14 15  1  0
 15 16  1  0
 16 17  1  0
 17 18  2  0
 18 19  1  0
 19 20  2  0
 20 21  1  0
 21 22  2  0
 22 23  1  0
 13 24  2  0
 24 25  1  0
 25 26  1  0
 26 27  1  0
 27 28  1  0
 28 29  1  0
 29 30  2  0
 30 31  1  0
 31 32  2  0
 32 33  1  0
 33 34  2  0
 34 35  1  0
 25 36  2  0
 10  5  1  0
 36 11  1  0
 23 14  1  0
 35 26  1  0
 22 17  1  0
 34 29  1  0
  3 37  1  0
  4 38  1  0
  4 39  1  0
  6 40  1  0
  7 41  1  0
  9 42  1  0
 10 43  1  0
 12 44  1  0
 15 45  1  0
 15 46  1  0
 16 47  1  0
 16 48  1  0
 18 49  1  0
 19 50  1  0
 20 51  1  0
 21 52  1  0
 23 53  1  0
 23 54  1  0
 27 55  1  0
 27 56  1  0
 28 57  1  0
 28 58  1  0
 30 59  1  0
 31 60  1  0
 32 61  1  0
 33 62  1  0
 35 63  1  0
 35 64  1  0
M  END
>  <smiles>  (21) 
O=C(NCc1ccncc1)c1cc(N2CCc3ccccc3C2)nc(N2CCc3ccccc3C2)n1

>  <score_type>  (21) 
oracle

>  <origin>  (21) 
autodockgpu

>  <m_score__min__energy>  (21) 
-10.279999999999999

>  <m_primary>  (21) 
energy

>  <rmsd>  (21) 
10.874477615786075

>  <m_score__min__rmsd>  (21) 
10.874477615786075

>  <meeko>  (21) 
{"free_energy": -10.08, "intermolecular_energy": -11.57, "internal_energy": -1.08, "cluster_size": 19, "cluster_id": 2, "rank_in_cluster": 4}

>  <energy>  (21) 
-9.65

>  <cluster_rmsd>  (21) 
1.5

>  <cluster>  (21) 
1

$$$$

     RDKit          3D

 64 69  0  0  0  0  0  0  0  0999 V2000
  139.3630   75.9610  222.1260 O   0  0  0  0  0  0  0  0  0  0  0  0
  140.4240   75.5790  221.5660 C   0  0  0  0  0  0  0  0  0  0  0  0
  141.2500   76.4850  220.8640 N   0  0  0  0  0  0  0  0  0  0  0  0
  141.0010   77.8870  220.7040 C   0  0  0  0  0  0  0  0  0  0  0  0
  141.5400   78.7290  221.8050 C   0  0  0  0  0  0  0  0  0  0  0  0
  141.3410   78.2450  223.0960 C   0  0  0  0  0  0  0  0  0  0  0  0
  141.8190   78.9910  224.1700 C   0  0  0  0  0  0  0  0  0  0  0  0
  142.4580   80.1580  223.9660 N   0  0  0  0  0  0  0  0  0  0  0  0
  142.6400   80.6110  222.7010 C   0  0  0  0  0  0  0  0  0  0  0  0
  142.1940   79.9240  221.5920 C   0  0  0  0  0  0  0  0  0  0  0  0
  140.8020   74.1550  221.6530 C   0  0  0  0  0  0  0  0  0  0  0  0
  141.6100   73.6040  220.6790 C   0  0  0  0  0  0  0  0  0  0  0  0
  141.9910   72.2740  220.7050 C   0  0  0  0  0  0  0  0  0  0  0  0
  142.8240   71.7120  219.7000 N   0  0  0  0  0  0  0  0  0  0  0  0
  142.4340   71.9040  218.3250 C   0  0  0  0  0  0  0  0  0  0  0  0
  143.2310   71.1400  217.3300 C   0  0  0  0  0  0  0  0  0  0  0  0
  143.9800   70.0030  217.8590 C   0  0  0  0  0  0  0  0  0  0  0  0
  144.3270   68.9720  217.0120 C   0  0  0  0  0  0  0  0  0  0  0  0
  145.0410   67.8690  217.4710 C   0  0  0  0  0  0  0  0  0  0  0  0
  145.4170   67.7930  218.8010 C   0  0  0  0  0  0  0  0  0  0  0  0
  145.0700   68.8250  219.6490 C   0  0  0  0  0  0  0  0  0  0  0  0
  144.3640   69.9030  219.1720 C   0  0  0  0  0  0  0  0  0  0  0  0
  144.0100   70.9840  220.1100 C   0  0  0  0  0  0  0  0  0  0  0  0
  141.5270   71.5400  221.7390 N   0  0  0  0  0  0  0  0  0  0  0  0
  140.7390   72.0580  222.6990 C   0  0  0  0  0  0  0  0  0  0  0  0
  140.3040   71.1870  223.7420 N   0  0  0  0  0  0  0  0  0  0  0  0
  139.6300   69.9540  223.3740 C   0  0  0  0  0  0  0  0  0  0  0  0
  138.5670   69.6700  224.4480 C   0  0  0  0  0  0  0  0  0  0  0  0
  139.3790   69.4210  225.6940 C   0  0  0  0  0  0  0  0  0  0  0  0
  139.1610   68.3110  226.4780 C   0  0  0  0  0  0  0  0  0  0  0  0
  139.9210   68.1040  227.6070 C   0  0  0  0  0  0  0  0  0  0  0  0
  140.8990   69.0420  227.9190 C   0  0  0  0  0  0  0  0  0  0  0  0
  141.1060   70.1630  227.1150 C   0  0  0  0  0  0  0  0  0  0  0  0
  140.3380   70.3760  225.9690 C   0  0  0  0  0  0  0  0  0  0  0  0
  140.5610   71.5710  225.1160 C   0  0  0  0  0  0  0  0  0  0  0  0
  140.3830   73.3610  222.6480 N   0  0  0  0  0  0  0  0  0  0  0  0
  142.1260   76.0650  220.4260 H   0  0  0  0  0  0  0  0  0  0  0  0
  141.4629   78.2144  219.7609 H   0  0  0  0  0  0  0  0  0  0  0  0
  139.9088   78.0179  220.7101 H   0  0  0  0  0  0  0  0  0  0  0  0
  140.8168   77.2926  223.2635 H   0  0  0  0  0  0  0  0  0  0  0  0
  141.6729   78.6228  225.1962 H   0  0  0  0  0  0  0  0  0  0  0  0
  143.1652   81.5662  222.5535 H   0  0  0  0  0  0  0  0  0  0  0  0
  142.3538   80.3143  220.5761 H   0  0  0  0  0  0  0  0  0  0  0  0
  141.9624   74.2427  219.8556 H   0  0  0  0  0  0  0  0  0  0  0  0
  141.3816   71.6003  218.2239 H   0  0  0  0  0  0  0  0  0  0  0  0
  142.6068   72.9676  218.1037 H   0  0  0  0  0  0  0  0  0  0  0  0
  142.5404   70.7622  216.5617 H   0  0  0  0  0  0  0  0  0  0  0  0
  143.9842   71.8430  216.9447 H   0  0  0  0  0  0  0  0  0  0  0  0
  144.0339   69.0221  215.9530 H   0  0  0  0  0  0  0  0  0  0  0  0
  145.3064   67.0579  216.7770 H   0  0  0  0  0  0  0  0  0  0  0  0
  145.9818   66.9263  219.1750 H   0  0  0  0  0  0  0  0  0  0  0  0
  145.3594   68.7845  220.7095 H   0  0  0  0  0  0  0  0  0  0  0  0
  143.8283   70.5444  221.1018 H   0  0  0  0  0  0  0  0  0  0  0  0
  144.8481   71.6962  220.1294 H   0  0  0  0  0  0  0  0  0  0  0  0
  139.1497   70.0675  222.3909 H   0  0  0  0  0  0  0  0  0  0  0  0
  140.3486   69.1236  223.3110 H   0  0  0  0  0  0  0  0  0  0  0  0
  137.9009   70.5354  224.5798 H   0  0  0  0  0  0  0  0  0  0  0  0
  137.9126   68.8248  224.1885 H   0  0  0  0  0  0  0  0  0  0  0  0
  138.3787   67.5885  226.2022 H   0  0  0  0  0  0  0  0  0  0  0  0
  139.7593   67.2219  228.2440 H   0  0  0  0  0  0  0  0  0  0  0  0
  141.5201   68.8975  228.8153 H   0  0  0  0  0  0  0  0  0  0  0  0
  141.8856   70.8895  227.3880 H   0  0  0  0  0  0  0  0  0  0  0  0
  139.8747   72.3773  225.4141 H   0  0  0  0  0  0  0  0  0  0  0  0
  141.5927   71.9360  225.2271 H   0  0  0  0  0  0  0  0  0  0  0  0
  1  2  2  0
  2  3  1  0
  3  4  1  0
  4  5  1  0
  5  6  2  0
  6  7  1  0
  7  8  2  0
  8  9  1  0
  9 10  2  0
  2 11  1  0
 11 12  2  0
 12 13  1  0
 13 14  1  0
 14 15  1  0
 15 16  1  0
 16 17  1  0
 17 18  2  0
 18 19  1  0
 19 20  2  0
 20 21  1  0
 21 22  2  0
 22 23  1  0
 13 24  2  0
 24 25  1  0
 25 26  1  0
 26 27  1  0
 27 28  1  0
 28 29  1  0
 29 30  2  0
 30 31  1  0
 31 32  2  0
 32 33  1  0
 33 34  2  0
 34 35  1  0
 25 36  2  0
 10  5  1  0
 36 11  1  0
 23 14  1  0
 35 26  1  0
 22 17  1  0
 34 29  1  0
  3 37  1  0
  4 38  1  0
  4 39  1  0
  6 40  1  0
  7 41  1  0
  9 42  1  0
 10 43  1  0
 12 44  1  0
 15 45  1  0
 15 46  1  0
 16 47  1  0
 16 48  1  0
 18 49  1  0
 19 50  1  0
 20 51  1  0
 21 52  1  0
 23 53  1  0
 23 54  1  0
 27 55  1  0
 27 56  1  0
 28 57  1  0
 28 58  1  0
 30 59  1  0
 31 60  1  0
 32 61  1  0
 33 62  1  0
 35 63  1  0
 35 64  1  0
M  END
>  <smiles>  (22) 
O=C(NCc1ccncc1)c1cc(N2CCc3ccccc3C2)nc(N2CCc3ccccc3C2)n1

>  <score_type>  (22) 
oracle

>  <origin>  (22) 
autodockgpu

>  <m_score__min__energy>  (22) 
-10.279999999999999

>  <m_primary>  (22) 
energy

>  <rmsd>  (22) 
4.126408874574076

>  <m_score__min__rmsd>  (22) 
4.126408874574076

>  <meeko>  (22) 
{"free_energy": -9.63, "intermolecular_energy": -11.12, "internal_energy": -0.93, "cluster_size": 27, "cluster_id": 1, "rank_in_cluster": 25}

>  <energy>  (22) 
-9.64

>  <cluster_rmsd>  (22) 
1.57

>  <cluster>  (22) 
1

$$$$

     RDKit          3D

 64 69  0  0  0  0  0  0  0  0999 V2000
  143.4430   72.7980  218.2900 O   0  0  0  0  0  0  0  0  0  0  0  0
  143.5020   72.3640  219.4690 C   0  0  0  0  0  0  0  0  0  0  0  0
  144.4820   71.4230  219.8570 N   0  0  0  0  0  0  0  0  0  0  0  0
  145.4870   70.8650  219.0010 C   0  0  0  0  0  0  0  0  0  0  0  0
  145.4650   69.3800  218.9260 C   0  0  0  0  0  0  0  0  0  0  0  0
  146.2690   68.8090  217.9420 C   0  0  0  0  0  0  0  0  0  0  0  0
  146.2890   67.4210  217.8190 C   0  0  0  0  0  0  0  0  0  0  0  0
  145.5450   66.6480  218.6330 N   0  0  0  0  0  0  0  0  0  0  0  0
  144.7700   67.2270  219.5830 C   0  0  0  0  0  0  0  0  0  0  0  0
  144.7030   68.5920  219.7610 C   0  0  0  0  0  0  0  0  0  0  0  0
  142.5230   72.8560  220.4600 C   0  0  0  0  0  0  0  0  0  0  0  0
  142.2030   74.1980  220.4930 C   0  0  0  0  0  0  0  0  0  0  0  0
  141.2990   74.7150  221.4030 C   0  0  0  0  0  0  0  0  0  0  0  0
  140.9730   76.0990  221.4320 N   0  0  0  0  0  0  0  0  0  0  0  0
  140.7500   76.7590  220.1700 C   0  0  0  0  0  0  0  0  0  0  0  0
  140.6010   78.2360  220.2480 C   0  0  0  0  0  0  0  0  0  0  0  0
  141.1160   78.8600  221.4640 C   0  0  0  0  0  0  0  0  0  0  0  0
  141.4800   80.1900  221.4360 C   0  0  0  0  0  0  0  0  0  0  0  0
  141.9750   80.8270  222.5710 C   0  0  0  0  0  0  0  0  0  0  0  0
  142.1090   80.1240  223.7560 C   0  0  0  0  0  0  0  0  0  0  0  0
  141.7450   78.7930  223.7830 C   0  0  0  0  0  0  0  0  0  0  0  0
  141.2600   78.1870  222.6500 C   0  0  0  0  0  0  0  0  0  0  0  0
  140.8830   76.7630  222.7200 C   0  0  0  0  0  0  0  0  0  0  0  0
  140.7440   73.8340  222.2610 N   0  0  0  0  0  0  0  0  0  0  0  0
  141.0420   72.5210  222.2440 C   0  0  0  0  0  0  0  0  0  0  0  0
  140.3960   71.6820  223.2010 N   0  0  0  0  0  0  0  0  0  0  0  0
  139.4840   70.6600  222.7180 C   0  0  0  0  0  0  0  0  0  0  0  0
  138.3510   70.5260  223.7480 C   0  0  0  0  0  0  0  0  0  0  0  0
  139.0500   70.0050  224.9790 C   0  0  0  0  0  0  0  0  0  0  0  0
  138.5740   68.9090  225.6600 C   0  0  0  0  0  0  0  0  0  0  0  0
  139.2340   68.4490  226.7770 C   0  0  0  0  0  0  0  0  0  0  0  0
  140.3800   69.1230  227.1830 C   0  0  0  0  0  0  0  0  0  0  0  0
  140.8490   70.2350  226.4830 C   0  0  0  0  0  0  0  0  0  0  0  0
  140.1830   70.7030  225.3490 C   0  0  0  0  0  0  0  0  0  0  0  0
  140.6860   71.8870  224.6070 C   0  0  0  0  0  0  0  0  0  0  0  0
  141.9290   72.0430  221.3440 N   0  0  0  0  0  0  0  0  0  0  0  0
  144.4490   71.1170  220.8770 H   0  0  0  0  0  0  0  0  0  0  0  0
  145.3375   71.2643  217.9870 H   0  0  0  0  0  0  0  0  0  0  0  0
  146.4603   71.1464  219.4295 H   0  0  0  0  0  0  0  0  0  0  0  0
  146.8754   69.4405  217.2760 H   0  0  0  0  0  0  0  0  0  0  0  0
  146.9191   66.9519  217.0490 H   0  0  0  0  0  0  0  0  0  0  0  0
  144.1694   66.5800  220.2393 H   0  0  0  0  0  0  0  0  0  0  0  0
  144.0655   69.0356  220.5400 H   0  0  0  0  0  0  0  0  0  0  0  0
  142.6820   74.8778  219.7729 H   0  0  0  0  0  0  0  0  0  0  0  0
  141.6044   76.5370  219.5138 H   0  0  0  0  0  0  0  0  0  0  0  0
  139.7927   76.3745  219.7884 H   0  0  0  0  0  0  0  0  0  0  0  0
  141.1328   78.6753  219.3911 H   0  0  0  0  0  0  0  0  0  0  0  0
  139.5181   78.4291  220.2467 H   0  0  0  0  0  0  0  0  0  0  0  0
  141.3774   80.7581  220.4997 H   0  0  0  0  0  0  0  0  0  0  0  0
  142.2595   81.8886  222.5260 H   0  0  0  0  0  0  0  0  0  0  0  0
  142.4982   80.6169  224.6591 H   0  0  0  0  0  0  0  0  0  0  0  0
  141.8436   78.2161  224.7144 H   0  0  0  0  0  0  0  0  0  0  0  0
  141.5555   76.2546  223.4265 H   0  0  0  0  0  0  0  0  0  0  0  0
  139.8349   76.7110  223.0498 H   0  0  0  0  0  0  0  0  0  0  0  0
  139.0712   70.9560  221.7423 H   0  0  0  0  0  0  0  0  0  0  0  0
  140.0085   69.7012  222.5928 H   0  0  0  0  0  0  0  0  0  0  0  0
  137.8826   71.5015  223.9456 H   0  0  0  0  0  0  0  0  0  0  0  0
  137.5390   69.8671  223.4067 H   0  0  0  0  0  0  0  0  0  0  0  0
  137.6639   68.3989  225.3113 H   0  0  0  0  0  0  0  0  0  0  0  0
  138.8654   67.5738  227.3320 H   0  0  0  0  0  0  0  0  0  0  0  0
  140.9264   68.7736  228.0714 H   0  0  0  0  0  0  0  0  0  0  0  0
  141.7568   70.7504  226.8298 H   0  0  0  0  0  0  0  0  0  0  0  0
  140.1806   72.7960  224.9651 H   0  0  0  0  0  0  0  0  0  0  0  0
  141.7680   72.0087  224.7635 H   0  0  0  0  0  0  0  0  0  0  0  0
  1  2  2  0
  2  3  1  0
  3  4  1  0
  4  5  1  0
  5  6  2  0
  6  7  1  0
  7  8  2  0
  8  9  1  0
  9 10  2  0
  2 11  1  0
 11 12  2  0
 12 13  1  0
 13 14  1  0
 14 15  1  0
 15 16  1  0
 16 17  1  0
 17 18  2  0
 18 19  1  0
 19 20  2  0
 20 21  1  0
 21 22  2  0
 22 23  1  0
 13 24  2  0
 24 25  1  0
 25 26  1  0
 26 27  1  0
 27 28  1  0
 28 29  1  0
 29 30  2  0
 30 31  1  0
 31 32  2  0
 32 33  1  0
 33 34  2  0
 34 35  1  0
 25 36  2  0
 10  5  1  0
 36 11  1  0
 23 14  1  0
 35 26  1  0
 22 17  1  0
 34 29  1  0
  3 37  1  0
  4 38  1  0
  4 39  1  0
  6 40  1  0
  7 41  1  0
  9 42  1  0
 10 43  1  0
 12 44  1  0
 15 45  1  0
 15 46  1  0
 16 47  1  0
 16 48  1  0
 18 49  1  0
 19 50  1  0
 20 51  1  0
 21 52  1  0
 23 53  1  0
 23 54  1  0
 27 55  1  0
 27 56  1  0
 28 57  1  0
 28 58  1  0
 30 59  1  0
 31 60  1  0
 32 61  1  0
 33 62  1  0
 35 63  1  0
 35 64  1  0
M  END
>  <smiles>  (23) 
O=C(NCc1ccncc1)c1cc(N2CCc3ccccc3C2)nc(N2CCc3ccccc3C2)n1

>  <score_type>  (23) 
oracle

>  <origin>  (23) 
autodockgpu

>  <m_score__min__energy>  (23) 
-10.279999999999999

>  <m_primary>  (23) 
energy

>  <rmsd>  (23) 
10.868716829740064

>  <m_score__min__rmsd>  (23) 
10.868716829740064

>  <meeko>  (23) 
{"free_energy": -10.12, "intermolecular_energy": -11.61, "internal_energy": -1.06, "cluster_size": 19, "cluster_id": 2, "rank_in_cluster": 2}

>  <energy>  (23) 
-9.64

>  <cluster_rmsd>  (23) 
1.5

>  <cluster>  (23) 
1

$$$$

     RDKit          3D

 64 69  0  0  0  0  0  0  0  0999 V2000
  139.6090   75.5780  220.2370 O   0  0  0  0  0  0  0  0  0  0  0  0
  139.7020   75.1080  221.4000 C   0  0  0  0  0  0  0  0  0  0  0  0
  139.3820   75.8870  222.5340 N   0  0  0  0  0  0  0  0  0  0  0  0
  138.9320   77.2480  222.5110 C   0  0  0  0  0  0  0  0  0  0  0  0
  140.0070   78.2470  222.7490 C   0  0  0  0  0  0  0  0  0  0  0  0
  141.1500   78.1110  221.9650 C   0  0  0  0  0  0  0  0  0  0  0  0
  142.1940   79.0150  222.1450 C   0  0  0  0  0  0  0  0  0  0  0  0
  142.1020   80.0000  223.0590 N   0  0  0  0  0  0  0  0  0  0  0  0
  140.9800   80.1120  223.8110 C   0  0  0  0  0  0  0  0  0  0  0  0
  139.9080   79.2540  223.6860 C   0  0  0  0  0  0  0  0  0  0  0  0
  140.1560   73.7130  221.5710 C   0  0  0  0  0  0  0  0  0  0  0  0
  140.8620   73.0970  220.5590 C   0  0  0  0  0  0  0  0  0  0  0  0
  141.3060   71.7910  220.6610 C   0  0  0  0  0  0  0  0  0  0  0  0
  142.0340   71.1620  219.6150 N   0  0  0  0  0  0  0  0  0  0  0  0
  141.2920   70.3630  218.6710 C   0  0  0  0  0  0  0  0  0  0  0  0
  142.1220   69.5790  217.7180 C   0  0  0  0  0  0  0  0  0  0  0  0
  143.5110   69.3700  218.1140 C   0  0  0  0  0  0  0  0  0  0  0  0
  144.2030   68.2950  217.5980 C   0  0  0  0  0  0  0  0  0  0  0  0
  145.5300   68.0570  217.9450 C   0  0  0  0  0  0  0  0  0  0  0  0
  146.1800   68.9070  218.8240 C   0  0  0  0  0  0  0  0  0  0  0  0
  145.4860   69.9830  219.3400 C   0  0  0  0  0  0  0  0  0  0  0  0
  144.1770   70.1970  218.9820 C   0  0  0  0  0  0  0  0  0  0  0  0
  143.4710   71.3570  219.5560 C   0  0  0  0  0  0  0  0  0  0  0  0
  141.0090   71.1470  221.8100 N   0  0  0  0  0  0  0  0  0  0  0  0
  140.3210   71.7300  222.8100 C   0  0  0  0  0  0  0  0  0  0  0  0
  140.0610   70.9520  223.9770 N   0  0  0  0  0  0  0  0  0  0  0  0
  139.5690   69.5960  223.8050 C   0  0  0  0  0  0  0  0  0  0  0  0
  138.6000   69.3060  224.9630 C   0  0  0  0  0  0  0  0  0  0  0  0
  139.4830   69.3470  226.1850 C   0  0  0  0  0  0  0  0  0  0  0  0
  139.4640   68.3320  227.1140 C   0  0  0  0  0  0  0  0  0  0  0  0
  140.2860   68.3910  228.2180 C   0  0  0  0  0  0  0  0  0  0  0  0
  141.1190   69.4940  228.3540 C   0  0  0  0  0  0  0  0  0  0  0  0
  141.1260   70.5160  227.4040 C   0  0  0  0  0  0  0  0  0  0  0  0
  140.2950   70.4590  226.2840 C   0  0  0  0  0  0  0  0  0  0  0  0
  140.3040   71.5500  225.2750 C   0  0  0  0  0  0  0  0  0  0  0  0
  139.9000   73.0080  222.6820 N   0  0  0  0  0  0  0  0  0  0  0  0
  139.4930   75.3990  223.4750 H   0  0  0  0  0  0  0  0  0  0  0  0
  138.4867   77.4480  221.5252 H   0  0  0  0  0  0  0  0  0  0  0  0
  138.2099   77.3572  223.3335 H   0  0  0  0  0  0  0  0  0  0  0  0
  141.2266   77.3062  221.2190 H   0  0  0  0  0  0  0  0  0  0  0  0
  143.1040   78.9235  221.5338 H   0  0  0  0  0  0  0  0  0  0  0  0
  140.9221   80.9221  224.5528 H   0  0  0  0  0  0  0  0  0  0  0  0
  139.0089   79.3682  224.3093 H   0  0  0  0  0  0  0  0  0  0  0  0
  141.0791   73.6627  219.6409 H   0  0  0  0  0  0  0  0  0  0  0  0
  140.6670   69.6578  219.2386 H   0  0  0  0  0  0  0  0  0  0  0  0
  140.7111   71.0704  218.0610 H   0  0  0  0  0  0  0  0  0  0  0  0
  141.6533   68.5916  217.5944 H   0  0  0  0  0  0  0  0  0  0  0  0
  142.1595   70.1732  216.7930 H   0  0  0  0  0  0  0  0  0  0  0  0
  143.6971   67.6126  216.8991 H   0  0  0  0  0  0  0  0  0  0  0  0
  146.0626   67.1931  217.5207 H   0  0  0  0  0  0  0  0  0  0  0  0
  147.2283   68.7284  219.1054 H   0  0  0  0  0  0  0  0  0  0  0  0
  145.9826   70.6711  220.0399 H   0  0  0  0  0  0  0  0  0  0  0  0
  143.8456   71.5281  220.5760 H   0  0  0  0  0  0  0  0  0  0  0  0
  143.6636   72.2210  218.9030 H   0  0  0  0  0  0  0  0  0  0  0  0
  139.0425   69.5066  222.8433 H   0  0  0  0  0  0  0  0  0  0  0  0
  140.4024   68.8780  223.8079 H   0  0  0  0  0  0  0  0  0  0  0  0
  137.8152   70.0746  225.0199 H   0  0  0  0  0  0  0  0  0  0  0  0
  138.0734   68.3470  224.8489 H   0  0  0  0  0  0  0  0  0  0  0  0
  138.7917   67.4725  226.9750 H   0  0  0  0  0  0  0  0  0  0  0  0
  140.2827   67.5880  228.9698 H   0  0  0  0  0  0  0  0  0  0  0  0
  141.7853   69.5632  229.2265 H   0  0  0  0  0  0  0  0  0  0  0  0
  141.7955   71.3782  227.5396 H   0  0  0  0  0  0  0  0  0  0  0  0
  139.5137   72.2797  225.5052 H   0  0  0  0  0  0  0  0  0  0  0  0
  141.2712   72.0740  225.2828 H   0  0  0  0  0  0  0  0  0  0  0  0
  1  2  2  0
  2  3  1  0
  3  4  1  0
  4  5  1  0
  5  6  2  0
  6  7  1  0
  7  8  2  0
  8  9  1  0
  9 10  2  0
  2 11  1  0
 11 12  2  0
 12 13  1  0
 13 14  1  0
 14 15  1  0
 15 16  1  0
 16 17  1  0
 17 18  2  0
 18 19  1  0
 19 20  2  0
 20 21  1  0
 21 22  2  0
 22 23  1  0
 13 24  2  0
 24 25  1  0
 25 26  1  0
 26 27  1  0
 27 28  1  0
 28 29  1  0
 29 30  2  0
 30 31  1  0
 31 32  2  0
 32 33  1  0
 33 34  2  0
 34 35  1  0
 25 36  2  0
 10  5  1  0
 36 11  1  0
 23 14  1  0
 35 26  1  0
 22 17  1  0
 34 29  1  0
  3 37  1  0
  4 38  1  0
  4 39  1  0
  6 40  1  0
  7 41  1  0
  9 42  1  0
 10 43  1  0
 12 44  1  0
 15 45  1  0
 15 46  1  0
 16 47  1  0
 16 48  1  0
 18 49  1  0
 19 50  1  0
 20 51  1  0
 21 52  1  0
 23 53  1  0
 23 54  1  0
 27 55  1  0
 27 56  1  0
 28 57  1  0
 28 58  1  0
 30 59  1  0
 31 60  1  0
 32 61  1  0
 33 62  1  0
 35 63  1  0
 35 64  1  0
M  END
>  <smiles>  (24) 
O=C(NCc1ccncc1)c1cc(N2CCc3ccccc3C2)nc(N2CCc3ccccc3C2)n1

>  <score_type>  (24) 
oracle

>  <origin>  (24) 
autodockgpu

>  <m_score__min__energy>  (24) 
-10.279999999999999

>  <m_primary>  (24) 
energy

>  <rmsd>  (24) 
3.9056707295572157

>  <m_score__min__rmsd>  (24) 
3.9056707295572157

>  <meeko>  (24) 
{"free_energy": -9.39, "intermolecular_energy": -10.88, "internal_energy": -1.2, "cluster_size": 27, "cluster_id": 1, "rank_in_cluster": 27}

>  <energy>  (24) 
-9.64

>  <cluster_rmsd>  (24) 
1.11

>  <cluster>  (24) 
1

$$$$

     RDKit          3D

 64 69  0  0  0  0  0  0  0  0999 V2000
  140.3200   76.1950  220.5300 O   0  0  0  0  0  0  0  0  0  0  0  0
  140.0400   75.5530  221.5750 C   0  0  0  0  0  0  0  0  0  0  0  0
  139.3570   76.1630  222.6510 N   0  0  0  0  0  0  0  0  0  0  0  0
  138.9150   77.5260  222.6910 C   0  0  0  0  0  0  0  0  0  0  0  0
  139.9910   78.5050  222.9990 C   0  0  0  0  0  0  0  0  0  0  0  0
  139.5780   79.8190  223.2070 C   0  0  0  0  0  0  0  0  0  0  0  0
  140.5410   80.7830  223.4950 C   0  0  0  0  0  0  0  0  0  0  0  0
  141.8440   80.4530  223.5700 N   0  0  0  0  0  0  0  0  0  0  0  0
  142.2230   79.1680  223.3640 C   0  0  0  0  0  0  0  0  0  0  0  0
  141.3240   78.1620  223.0760 C   0  0  0  0  0  0  0  0  0  0  0  0
  140.4380   74.1340  221.6680 C   0  0  0  0  0  0  0  0  0  0  0  0
  141.1740   73.5640  220.6490 C   0  0  0  0  0  0  0  0  0  0  0  0
  141.5680   72.2390  220.6800 C   0  0  0  0  0  0  0  0  0  0  0  0
  142.3270   71.6570  219.6270 N   0  0  0  0  0  0  0  0  0  0  0  0
  141.6240   70.8380  218.6710 C   0  0  0  0  0  0  0  0  0  0  0  0
  142.4900   70.1060  217.7090 C   0  0  0  0  0  0  0  0  0  0  0  0
  143.8870   69.9560  218.1060 C   0  0  0  0  0  0  0  0  0  0  0  0
  144.6290   68.9200  217.5780 C   0  0  0  0  0  0  0  0  0  0  0  0
  145.9650   68.7370  217.9260 C   0  0  0  0  0  0  0  0  0  0  0  0
  146.5730   69.6050  218.8170 C   0  0  0  0  0  0  0  0  0  0  0  0
  145.8300   70.6410  219.3450 C   0  0  0  0  0  0  0  0  0  0  0  0
  144.5130   70.8000  218.9870 C   0  0  0  0  0  0  0  0  0  0  0  0
  143.7540   71.9190  219.5740 C   0  0  0  0  0  0  0  0  0  0  0  0
  141.1940   71.5280  221.7650 N   0  0  0  0  0  0  0  0  0  0  0  0
  140.4770   72.0660  222.7700 C   0  0  0  0  0  0  0  0  0  0  0  0
  140.1340   71.2190  223.8660 N   0  0  0  0  0  0  0  0  0  0  0  0
  139.5520   69.9190  223.5760 C   0  0  0  0  0  0  0  0  0  0  0  0
  138.5370   69.6090  224.6880 C   0  0  0  0  0  0  0  0  0  0  0  0
  139.3900   69.4900  225.9260 C   0  0  0  0  0  0  0  0  0  0  0  0
  139.2760   68.4090  226.7690 C   0  0  0  0  0  0  0  0  0  0  0  0
  140.0720   68.3210  227.8890 C   0  0  0  0  0  0  0  0  0  0  0  0
  140.9780   69.3470  228.1300 C   0  0  0  0  0  0  0  0  0  0  0  0
  141.0800   70.4370  227.2660 C   0  0  0  0  0  0  0  0  0  0  0  0
  140.2750   70.5290  226.1290 C   0  0  0  0  0  0  0  0  0  0  0  0
  140.3860   71.6930  225.2120 C   0  0  0  0  0  0  0  0  0  0  0  0
  140.1050   73.3630  222.7130 N   0  0  0  0  0  0  0  0  0  0  0  0
  139.1660   75.5360  223.4910 H   0  0  0  0  0  0  0  0  0  0  0  0
  138.4881   77.7795  221.7094 H   0  0  0  0  0  0  0  0  0  0  0  0
  138.1794   77.5968  223.5057 H   0  0  0  0  0  0  0  0  0  0  0  0
  138.5136   80.0895  223.1451 H   0  0  0  0  0  0  0  0  0  0  0  0
  140.2335   81.8257  223.6630 H   0  0  0  0  0  0  0  0  0  0  0  0
  143.2920   78.9169  223.4292 H   0  0  0  0  0  0  0  0  0  0  0  0
  141.6578   77.1265  222.9141 H   0  0  0  0  0  0  0  0  0  0  0  0
  141.4561   74.1834  219.7849 H   0  0  0  0  0  0  0  0  0  0  0  0
  141.0313   70.0972  219.2277 H   0  0  0  0  0  0  0  0  0  0  0  0
  141.0122   71.5264  218.0695 H   0  0  0  0  0  0  0  0  0  0  0  0
  142.0674   69.0998  217.5710 H   0  0  0  0  0  0  0  0  0  0  0  0
  142.5012   70.7131  216.7918 H   0  0  0  0  0  0  0  0  0  0  0  0
  144.1564   68.2250  216.8684 H   0  0  0  0  0  0  0  0  0  0  0  0
  146.5370   67.9031  217.4931 H   0  0  0  0  0  0  0  0  0  0  0  0
  147.6279   69.4713  219.0985 H   0  0  0  0  0  0  0  0  0  0  0  0
  146.2936   71.3419  220.0548 H   0  0  0  0  0  0  0  0  0  0  0  0
  144.1185   72.0941  220.5970 H   0  0  0  0  0  0  0  0  0  0  0  0
  143.9081   72.7995  218.9329 H   0  0  0  0  0  0  0  0  0  0  0  0
  139.0444   69.9439  222.6004 H   0  0  0  0  0  0  0  0  0  0  0  0
  140.3326   69.1449  223.5370 H   0  0  0  0  0  0  0  0  0  0  0  0
  137.8068   70.4251  224.7915 H   0  0  0  0  0  0  0  0  0  0  0  0
  137.9476   68.7022  224.4871 H   0  0  0  0  0  0  0  0  0  0  0  0
  138.5483   67.6142  226.5481 H   0  0  0  0  0  0  0  0  0  0  0  0
  139.9931   67.4634  228.5733 H   0  0  0  0  0  0  0  0  0  0  0  0
  141.6259   69.2985  229.0176 H   0  0  0  0  0  0  0  0  0  0  0  0
  141.8048   71.2354  227.4834 H   0  0  0  0  0  0  0  0  0  0  0  0
  139.6436   72.4573  225.4852 H   0  0  0  0  0  0  0  0  0  0  0  0
  141.3872   72.1435  225.2807 H   0  0  0  0  0  0  0  0  0  0  0  0
  1  2  2  0
  2  3  1  0
  3  4  1  0
  4  5  1  0
  5  6  2  0
  6  7  1  0
  7  8  2  0
  8  9  1  0
  9 10  2  0
  2 11  1  0
 11 12  2  0
 12 13  1  0
 13 14  1  0
 14 15  1  0
 15 16  1  0
 16 17  1  0
 17 18  2  0
 18 19  1  0
 19 20  2  0
 20 21  1  0
 21 22  2  0
 22 23  1  0
 13 24  2  0
 24 25  1  0
 25 26  1  0
 26 27  1  0
 27 28  1  0
 28 29  1  0
 29 30  2  0
 30 31  1  0
 31 32  2  0
 32 33  1  0
 33 34  2  0
 34 35  1  0
 25 36  2  0
 10  5  1  0
 36 11  1  0
 23 14  1  0
 35 26  1  0
 22 17  1  0
 34 29  1  0
  3 37  1  0
  4 38  1  0
  4 39  1  0
  6 40  1  0
  7 41  1  0
  9 42  1  0
 10 43  1  0
 12 44  1  0
 15 45  1  0
 15 46  1  0
 16 47  1  0
 16 48  1  0
 18 49  1  0
 19 50  1  0
 20 51  1  0
 21 52  1  0
 23 53  1  0
 23 54  1  0
 27 55  1  0
 27 56  1  0
 28 57  1  0
 28 58  1  0
 30 59  1  0
 31 60  1  0
 32 61  1  0
 33 62  1  0
 35 63  1  0
 35 64  1  0
M  END
>  <smiles>  (25) 
O=C(NCc1ccncc1)c1cc(N2CCc3ccccc3C2)nc(N2CCc3ccccc3C2)n1

>  <score_type>  (25) 
oracle

>  <origin>  (25) 
autodockgpu

>  <m_score__min__energy>  (25) 
-10.279999999999999

>  <m_primary>  (25) 
energy

>  <rmsd>  (25) 
4.044294629309322

>  <m_score__min__rmsd>  (25) 
4.044294629309322

>  <meeko>  (25) 
{"free_energy": -9.65, "intermolecular_energy": -11.14, "internal_energy": -1.26, "cluster_size": 27, "cluster_id": 1, "rank_in_cluster": 21}

>  <energy>  (25) 
-9.63

>  <cluster_rmsd>  (25) 
1.19

>  <cluster>  (25) 
1

$$$$

     RDKit          3D

 64 69  0  0  0  0  0  0  0  0999 V2000
  140.7940   76.0410  220.5480 O   0  0  0  0  0  0  0  0  0  0  0  0
  140.2640   75.3640  221.4670 C   0  0  0  0  0  0  0  0  0  0  0  0
  139.3210   75.9360  222.3500 N   0  0  0  0  0  0  0  0  0  0  0  0
  138.8680   77.2950  222.3180 C   0  0  0  0  0  0  0  0  0  0  0  0
  139.8720   78.2820  222.7950 C   0  0  0  0  0  0  0  0  0  0  0  0
  139.3960   79.5700  223.0320 C   0  0  0  0  0  0  0  0  0  0  0  0
  140.2900   80.5410  223.4770 C   0  0  0  0  0  0  0  0  0  0  0  0
  141.5890   80.2420  223.6710 N   0  0  0  0  0  0  0  0  0  0  0  0
  142.0290   78.9830  223.4340 C   0  0  0  0  0  0  0  0  0  0  0  0
  141.2010   77.9730  222.9940 C   0  0  0  0  0  0  0  0  0  0  0  0
  140.6420   73.9440  221.6150 C   0  0  0  0  0  0  0  0  0  0  0  0
  141.4020   73.3360  220.6370 C   0  0  0  0  0  0  0  0  0  0  0  0
  141.7800   72.0070  220.7200 C   0  0  0  0  0  0  0  0  0  0  0  0
  142.5640   71.3860  219.7090 N   0  0  0  0  0  0  0  0  0  0  0  0
  142.0700   71.4350  218.3560 C   0  0  0  0  0  0  0  0  0  0  0  0
  142.8270   70.6110  217.3770 C   0  0  0  0  0  0  0  0  0  0  0  0
  143.6600   69.5580  217.9490 C   0  0  0  0  0  0  0  0  0  0  0  0
  143.9910   68.4660  217.1750 C   0  0  0  0  0  0  0  0  0  0  0  0
  144.7840   67.4370  217.6770 C   0  0  0  0  0  0  0  0  0  0  0  0
  145.2560   67.4990  218.9770 C   0  0  0  0  0  0  0  0  0  0  0  0
  144.9240   68.5920  219.7520 C   0  0  0  0  0  0  0  0  0  0  0  0
  144.1400   69.5940  219.2340 C   0  0  0  0  0  0  0  0  0  0  0  0
  143.8070   70.7440  220.0940 C   0  0  0  0  0  0  0  0  0  0  0  0
  141.3630   71.3340  221.8130 N   0  0  0  0  0  0  0  0  0  0  0  0
  140.6210   71.9100  222.7780 C   0  0  0  0  0  0  0  0  0  0  0  0
  140.2330   71.1000  223.8870 N   0  0  0  0  0  0  0  0  0  0  0  0
  139.6240   69.8090  223.6180 C   0  0  0  0  0  0  0  0  0  0  0  0
  138.5780   69.5530  224.7150 C   0  0  0  0  0  0  0  0  0  0  0  0
  139.4020   69.4440  225.9740 C   0  0  0  0  0  0  0  0  0  0  0  0
  139.2430   68.3890  226.8420 C   0  0  0  0  0  0  0  0  0  0  0  0
  140.0130   68.3090  227.9800 C   0  0  0  0  0  0  0  0  0  0  0  0
  140.9400   69.3180  228.2150 C   0  0  0  0  0  0  0  0  0  0  0  0
  141.0880   70.3830  227.3250 C   0  0  0  0  0  0  0  0  0  0  0  0
  140.3100   70.4660  226.1700 C   0  0  0  0  0  0  0  0  0  0  0  0
  140.4700   71.6020  225.2260 C   0  0  0  0  0  0  0  0  0  0  0  0
  140.2670   73.2090  222.6710 N   0  0  0  0  0  0  0  0  0  0  0  0
  138.9300   75.2810  223.0930 H   0  0  0  0  0  0  0  0  0  0  0  0
  138.6029   77.5462  221.2804 H   0  0  0  0  0  0  0  0  0  0  0  0
  138.0103   77.3591  223.0037 H   0  0  0  0  0  0  0  0  0  0  0  0
  138.3358   79.8149  222.8709 H   0  0  0  0  0  0  0  0  0  0  0  0
  139.9315   81.5625  223.6720 H   0  0  0  0  0  0  0  0  0  0  0  0
  143.0927   78.7571  223.5998 H   0  0  0  0  0  0  0  0  0  0  0  0
  141.5856   76.9592  222.8087 H   0  0  0  0  0  0  0  0  0  0  0  0
  141.7174   73.9260  219.7638 H   0  0  0  0  0  0  0  0  0  0  0  0
  141.0271   71.0851  218.3613 H   0  0  0  0  0  0  0  0  0  0  0  0
  142.1808   72.4790  218.0275 H   0  0  0  0  0  0  0  0  0  0  0  0
  142.1006   70.1376  216.7000 H   0  0  0  0  0  0  0  0  0  0  0  0
  143.5193   71.3021  216.8740 H   0  0  0  0  0  0  0  0  0  0  0  0
  143.6215   68.4064  216.1406 H   0  0  0  0  0  0  0  0  0  0  0  0
  145.0352   66.5754  217.0409 H   0  0  0  0  0  0  0  0  0  0  0  0
  145.8836   66.6927  219.3845 H   0  0  0  0  0  0  0  0  0  0  0  0
  145.2884   68.6608  220.7876 H   0  0  0  0  0  0  0  0  0  0  0  0
  143.7155   70.3928  221.1324 H   0  0  0  0  0  0  0  0  0  0  0  0
  144.6126   71.4853  219.9865 H   0  0  0  0  0  0  0  0  0  0  0  0
  139.1379   69.8215  222.6313 H   0  0  0  0  0  0  0  0  0  0  0  0
  140.3851   69.0148  223.6160 H   0  0  0  0  0  0  0  0  0  0  0  0
  137.8670   70.3896  224.7824 H   0  0  0  0  0  0  0  0  0  0  0  0
  137.9696   68.6567  224.5240 H   0  0  0  0  0  0  0  0  0  0  0  0
  138.4992   67.6078  226.6263 H   0  0  0  0  0  0  0  0  0  0  0  0
  139.8982   67.4709  228.6832 H   0  0  0  0  0  0  0  0  0  0  0  0
  141.5674   69.2764  229.1175 H   0  0  0  0  0  0  0  0  0  0  0  0
  141.8287   71.1681  227.5373 H   0  0  0  0  0  0  0  0  0  0  0  0
  139.7425   72.3920  225.4640 H   0  0  0  0  0  0  0  0  0  0  0  0
  141.4812   72.0279  225.3041 H   0  0  0  0  0  0  0  0  0  0  0  0
  1  2  2  0
  2  3  1  0
  3  4  1  0
  4  5  1  0
  5  6  2  0
  6  7  1  0
  7  8  2  0
  8  9  1  0
  9 10  2  0
  2 11  1  0
 11 12  2  0
 12 13  1  0
 13 14  1  0
 14 15  1  0
 15 16  1  0
 16 17  1  0
 17 18  2  0
 18 19  1  0
 19 20  2  0
 20 21  1  0
 21 22  2  0
 22 23  1  0
 13 24  2  0
 24 25  1  0
 25 26  1  0
 26 27  1  0
 27 28  1  0
 28 29  1  0
 29 30  2  0
 30 31  1  0
 31 32  2  0
 32 33  1  0
 33 34  2  0
 34 35  1  0
 25 36  2  0
 10  5  1  0
 36 11  1  0
 23 14  1  0
 35 26  1  0
 22 17  1  0
 34 29  1  0
  3 37  1  0
  4 38  1  0
  4 39  1  0
  6 40  1  0
  7 41  1  0
  9 42  1  0
 10 43  1  0
 12 44  1  0
 15 45  1  0
 15 46  1  0
 16 47  1  0
 16 48  1  0
 18 49  1  0
 19 50  1  0
 20 51  1  0
 21 52  1  0
 23 53  1  0
 23 54  1  0
 27 55  1  0
 27 56  1  0
 28 57  1  0
 28 58  1  0
 30 59  1  0
 31 60  1  0
 32 61  1  0
 33 62  1  0
 35 63  1  0
 35 64  1  0
M  END
>  <smiles>  (26) 
O=C(NCc1ccncc1)c1cc(N2CCc3ccccc3C2)nc(N2CCc3ccccc3C2)n1

>  <score_type>  (26) 
oracle

>  <origin>  (26) 
autodockgpu

>  <m_score__min__energy>  (26) 
-10.279999999999999

>  <m_primary>  (26) 
energy

>  <rmsd>  (26) 
4.158992675431429

>  <m_score__min__rmsd>  (26) 
4.158992675431429

>  <meeko>  (26) 
{"free_energy": -9.68, "intermolecular_energy": -11.17, "internal_energy": -1.24, "cluster_size": 27, "cluster_id": 1, "rank_in_cluster": 15}

>  <energy>  (26) 
-9.6

>  <cluster_rmsd>  (26) 
1.38

>  <cluster>  (26) 
1

$$$$

     RDKit          3D

 64 69  0  0  0  0  0  0  0  0999 V2000
  143.0410   72.2620  218.2140 O   0  0  0  0  0  0  0  0  0  0  0  0
  143.2780   72.0200  219.4250 C   0  0  0  0  0  0  0  0  0  0  0  0
  144.3950   71.2470  219.8140 N   0  0  0  0  0  0  0  0  0  0  0  0
  145.3570   70.6660  218.9240 C   0  0  0  0  0  0  0  0  0  0  0  0
  145.2670   69.1860  218.8160 C   0  0  0  0  0  0  0  0  0  0  0  0
  146.3010   68.4680  219.4130 C   0  0  0  0  0  0  0  0  0  0  0  0
  146.2760   67.0770  219.3420 C   0  0  0  0  0  0  0  0  0  0  0  0
  145.2740   66.4390  218.7080 N   0  0  0  0  0  0  0  0  0  0  0  0
  144.2790   67.1580  218.1340 C   0  0  0  0  0  0  0  0  0  0  0  0
  144.2400   68.5360  218.1660 C   0  0  0  0  0  0  0  0  0  0  0  0
  142.3650   72.5600  220.4530 C   0  0  0  0  0  0  0  0  0  0  0  0
  142.0470   73.9020  220.4450 C   0  0  0  0  0  0  0  0  0  0  0  0
  141.2030   74.4630  221.3860 C   0  0  0  0  0  0  0  0  0  0  0  0
  140.8790   75.8480  221.3720 N   0  0  0  0  0  0  0  0  0  0  0  0
  140.7430   76.4890  220.0880 C   0  0  0  0  0  0  0  0  0  0  0  0
  140.5920   77.9670  220.1330 C   0  0  0  0  0  0  0  0  0  0  0  0
  141.0250   78.6080  221.3710 C   0  0  0  0  0  0  0  0  0  0  0  0
  141.3930   79.9370  221.3480 C   0  0  0  0  0  0  0  0  0  0  0  0
  141.8110   80.5910  222.5040 C   0  0  0  0  0  0  0  0  0  0  0  0
  141.8640   79.9070  223.7060 C   0  0  0  0  0  0  0  0  0  0  0  0
  141.4960   78.5770  223.7290 C   0  0  0  0  0  0  0  0  0  0  0  0
  141.0870   77.9530  222.5750 C   0  0  0  0  0  0  0  0  0  0  0  0
  140.7040   76.5310  222.6400 C   0  0  0  0  0  0  0  0  0  0  0  0
  140.7040   73.6240  222.3180 N   0  0  0  0  0  0  0  0  0  0  0  0
  141.0010   72.3110  222.3420 C   0  0  0  0  0  0  0  0  0  0  0  0
  140.4190   71.5190  223.3770 N   0  0  0  0  0  0  0  0  0  0  0  0
  139.5600   70.4120  222.9960 C   0  0  0  0  0  0  0  0  0  0  0  0
  138.4520   70.2990  224.0560 C   0  0  0  0  0  0  0  0  0  0  0  0
  139.1980   69.9210  225.3110 C   0  0  0  0  0  0  0  0  0  0  0  0
  138.7950   68.8590  226.0880 C   0  0  0  0  0  0  0  0  0  0  0  0
  139.4980   68.5300  227.2250 C   0  0  0  0  0  0  0  0  0  0  0  0
  140.6090   69.2970  227.5520 C   0  0  0  0  0  0  0  0  0  0  0  0
  141.0040   70.3720  226.7550 C   0  0  0  0  0  0  0  0  0  0  0  0
  140.2950   70.7080  225.6010 C   0  0  0  0  0  0  0  0  0  0  0  0
  140.7180   71.8540  224.7550 C   0  0  0  0  0  0  0  0  0  0  0  0
  141.8290   71.7900  221.4100 N   0  0  0  0  0  0  0  0  0  0  0  0
  144.5100   71.0980  220.8630 H   0  0  0  0  0  0  0  0  0  0  0  0
  145.2049   71.0954  217.9228 H   0  0  0  0  0  0  0  0  0  0  0  0
  146.3504   70.8943  219.3375 H   0  0  0  0  0  0  0  0  0  0  0  0
  147.1204   68.9889  219.9299 H   0  0  0  0  0  0  0  0  0  0  0  0
  147.0834   66.4937  219.8088 H   0  0  0  0  0  0  0  0  0  0  0  0
  143.4684   66.6197  217.6210 H   0  0  0  0  0  0  0  0  0  0  0  0
  143.4205   69.0952  217.6909 H   0  0  0  0  0  0  0  0  0  0  0  0
  142.4785   74.5468  219.6652 H   0  0  0  0  0  0  0  0  0  0  0  0
  141.6393   76.2561  219.4944 H   0  0  0  0  0  0  0  0  0  0  0  0
  139.8127   76.0997  219.6487 H   0  0  0  0  0  0  0  0  0  0  0  0
  141.1813   78.3927  219.3075 H   0  0  0  0  0  0  0  0  0  0  0  0
  139.5121   78.1616  220.0552 H   0  0  0  0  0  0  0  0  0  0  0  0
  141.3556   80.4908  220.3983 H   0  0  0  0  0  0  0  0  0  0  0  0
  142.0992   81.6517  222.4619 H   0  0  0  0  0  0  0  0  0  0  0  0
  142.1931   80.4136  224.6253 H   0  0  0  0  0  0  0  0  0  0  0  0
  141.5302   78.0148  224.6739 H   0  0  0  0  0  0  0  0  0  0  0  0
  141.3266   76.0326  223.3976 H   0  0  0  0  0  0  0  0  0  0  0  0
  139.6359   76.4849  222.8988 H   0  0  0  0  0  0  0  0  0  0  0  0
  139.1161   70.6042  222.0081 H   0  0  0  0  0  0  0  0  0  0  0  0
  140.1366   69.4771  222.9379 H   0  0  0  0  0  0  0  0  0  0  0  0
  137.9309   71.2594  224.1832 H   0  0  0  0  0  0  0  0  0  0  0  0
  137.6746   69.5695  223.7851 H   0  0  0  0  0  0  0  0  0  0  0  0
  137.9101   68.2723  225.8002 H   0  0  0  0  0  0  0  0  0  0  0  0
  139.1888   67.6840  227.8564 H   0  0  0  0  0  0  0  0  0  0  0  0
  141.1875   69.0526  228.4551 H   0  0  0  0  0  0  0  0  0  0  0  0
  141.8868   70.9630  227.0404 H   0  0  0  0  0  0  0  0  0  0  0  0
  140.1669   72.7596  225.0484 H   0  0  0  0  0  0  0  0  0  0  0  0
  141.7936   72.0481  224.8794 H   0  0  0  0  0  0  0  0  0  0  0  0
  1  2  2  0
  2  3  1  0
  3  4  1  0
  4  5  1  0
  5  6  2  0
  6  7  1  0
  7  8  2  0
  8  9  1  0
  9 10  2  0
  2 11  1  0
 11 12  2  0
 12 13  1  0
 13 14  1  0
 14 15  1  0
 15 16  1  0
 16 17  1  0
 17 18  2  0
 18 19  1  0
 19 20  2  0
 20 21  1  0
 21 22  2  0
 22 23  1  0
 13 24  2  0
 24 25  1  0
 25 26  1  0
 26 27  1  0
 27 28  1  0
 28 29  1  0
 29 30  2  0
 30 31  1  0
 31 32  2  0
 32 33  1  0
 33 34  2  0
 34 35  1  0
 25 36  2  0
 10  5  1  0
 36 11  1  0
 23 14  1  0
 35 26  1  0
 22 17  1  0
 34 29  1  0
  3 37  1  0
  4 38  1  0
  4 39  1  0
  6 40  1  0
  7 41  1  0
  9 42  1  0
 10 43  1  0
 12 44  1  0
 15 45  1  0
 15 46  1  0
 16 47  1  0
 16 48  1  0
 18 49  1  0
 19 50  1  0
 20 51  1  0
 21 52  1  0
 23 53  1  0
 23 54  1  0
 27 55  1  0
 27 56  1  0
 28 57  1  0
 28 58  1  0
 30 59  1  0
 31 60  1  0
 32 61  1  0
 33 62  1  0
 35 63  1  0
 35 64  1  0
M  END
>  <smiles>  (27) 
O=C(NCc1ccncc1)c1cc(N2CCc3ccccc3C2)nc(N2CCc3ccccc3C2)n1

>  <score_type>  (27) 
oracle

>  <origin>  (27) 
autodockgpu

>  <m_score__min__energy>  (27) 
-10.279999999999999

>  <m_primary>  (27) 
energy

>  <rmsd>  (27) 
11.027368435525

>  <m_score__min__rmsd>  (27) 
11.027368435525

>  <meeko>  (27) 
{"free_energy": -10.02, "intermolecular_energy": -11.51, "internal_energy": -1.03, "cluster_size": 19, "cluster_id": 2, "rank_in_cluster": 7}

>  <energy>  (27) 
-9.39

>  <cluster_rmsd>  (27) 
1.67

>  <cluster>  (27) 
1

$$$$

     RDKit          3D

 64 69  0  0  0  0  0  0  0  0999 V2000
  144.7360   73.3210  218.8760 O   0  0  0  0  0  0  0  0  0  0  0  0
  144.1350   72.4950  219.6100 C   0  0  0  0  0  0  0  0  0  0  0  0
  144.5150   71.1350  219.6480 N   0  0  0  0  0  0  0  0  0  0  0  0
  145.5800   70.5460  218.8910 C   0  0  0  0  0  0  0  0  0  0  0  0
  145.5630   69.0590  218.8730 C   0  0  0  0  0  0  0  0  0  0  0  0
  146.3110   68.4540  217.8660 C   0  0  0  0  0  0  0  0  0  0  0  0
  146.3310   67.0630  217.7930 C   0  0  0  0  0  0  0  0  0  0  0  0
  145.6390   66.3180  218.6770 N   0  0  0  0  0  0  0  0  0  0  0  0
  144.9170   66.9290  219.6470 C   0  0  0  0  0  0  0  0  0  0  0  0
  144.8530   68.3000  219.7790 C   0  0  0  0  0  0  0  0  0  0  0  0
  143.0130   72.9680  220.4460 C   0  0  0  0  0  0  0  0  0  0  0  0
  142.6820   74.3070  220.4480 C   0  0  0  0  0  0  0  0  0  0  0  0
  141.6460   74.8070  221.2160 C   0  0  0  0  0  0  0  0  0  0  0  0
  141.3080   76.1880  221.2120 N   0  0  0  0  0  0  0  0  0  0  0  0
  141.3540   76.8840  219.9500 C   0  0  0  0  0  0  0  0  0  0  0  0
  141.1780   78.3580  220.0350 C   0  0  0  0  0  0  0  0  0  0  0  0
  141.4160   78.9470  221.3490 C   0  0  0  0  0  0  0  0  0  0  0  0
  141.7650   80.2780  221.4360 C   0  0  0  0  0  0  0  0  0  0  0  0
  142.0010   80.8840  222.6670 C   0  0  0  0  0  0  0  0  0  0  0  0
  141.8850   80.1480  223.8350 C   0  0  0  0  0  0  0  0  0  0  0  0
  141.5360   78.8160  223.7470 C   0  0  0  0  0  0  0  0  0  0  0  0
  141.3100   78.2410  222.5200 C   0  0  0  0  0  0  0  0  0  0  0  0
  140.9400   76.8150  222.4680 C   0  0  0  0  0  0  0  0  0  0  0  0
  140.9730   73.9110  221.9680 N   0  0  0  0  0  0  0  0  0  0  0  0
  141.2800   72.6000  221.9800 C   0  0  0  0  0  0  0  0  0  0  0  0
  140.5030   71.7440  222.8170 N   0  0  0  0  0  0  0  0  0  0  0  0
  139.5840   70.8130  222.1860 C   0  0  0  0  0  0  0  0  0  0  0  0
  138.3540   70.6850  223.1000 C   0  0  0  0  0  0  0  0  0  0  0  0
  138.9060   70.0460  224.3500 C   0  0  0  0  0  0  0  0  0  0  0  0
  138.3080   68.9410  224.9100 C   0  0  0  0  0  0  0  0  0  0  0  0
  138.8350   68.3720  226.0480 C   0  0  0  0  0  0  0  0  0  0  0  0
  139.9740   68.9480  226.5990 C   0  0  0  0  0  0  0  0  0  0  0  0
  140.5680   70.0700  226.0190 C   0  0  0  0  0  0  0  0  0  0  0  0
  140.0360   70.6480  224.8650 C   0  0  0  0  0  0  0  0  0  0  0  0
  140.6710   71.8430  224.2530 C   0  0  0  0  0  0  0  0  0  0  0  0
  142.2970   72.1400  221.2190 N   0  0  0  0  0  0  0  0  0  0  0  0
  143.9450   70.5150  220.3020 H   0  0  0  0  0  0  0  0  0  0  0  0
  145.5059   70.9047  217.8538 H   0  0  0  0  0  0  0  0  0  0  0  0
  146.5191   70.8462  219.3787 H   0  0  0  0  0  0  0  0  0  0  0  0
  146.8745   69.0621  217.1430 H   0  0  0  0  0  0  0  0  0  0  0  0
  146.9179   66.5677  217.0054 H   0  0  0  0  0  0  0  0  0  0  0  0
  144.3580   66.3047  220.3596 H   0  0  0  0  0  0  0  0  0  0  0  0
  144.2585   68.7700  220.5763 H   0  0  0  0  0  0  0  0  0  0  0  0
  143.2605   74.9994  219.8187 H   0  0  0  0  0  0  0  0  0  0  0  0
  142.3311   76.6838  219.4860 H   0  0  0  0  0  0  0  0  0  0  0  0
  140.5040   76.5077  219.3619 H   0  0  0  0  0  0  0  0  0  0  0  0
  141.8762   78.8237  219.3239 H   0  0  0  0  0  0  0  0  0  0  0  0
  140.1187   78.5481  219.8076 H   0  0  0  0  0  0  0  0  0  0  0  0
  141.8588   80.8725  220.5152 H   0  0  0  0  0  0  0  0  0  0  0  0
  142.2796   81.9472  222.7122 H   0  0  0  0  0  0  0  0  0  0  0  0
  142.0675   80.6164  224.8134 H   0  0  0  0  0  0  0  0  0  0  0  0
  141.4385   78.2129  224.6617 H   0  0  0  0  0  0  0  0  0  0  0  0
  141.4510   76.2884  223.2875 H   0  0  0  0  0  0  0  0  0  0  0  0
  139.8461   76.7511  222.5641 H   0  0  0  0  0  0  0  0  0  0  0  0
  139.2809   71.1949  221.2000 H   0  0  0  0  0  0  0  0  0  0  0  0
  140.0633   69.8333  222.0426 H   0  0  0  0  0  0  0  0  0  0  0  0
  137.9243   71.6732  223.3210 H   0  0  0  0  0  0  0  0  0  0  0  0
  137.5416   70.1002  222.6440 H   0  0  0  0  0  0  0  0  0  0  0  0
  137.4071   68.5110  224.4479 H   0  0  0  0  0  0  0  0  0  0  0  0
  138.3686   67.4880  226.5074 H   0  0  0  0  0  0  0  0  0  0  0  0
  140.4147   68.5120  227.5077 H   0  0  0  0  0  0  0  0  0  0  0  0
  141.4682   70.5050  226.4777 H   0  0  0  0  0  0  0  0  0  0  0  0
  140.1854   72.7572  224.6249 H   0  0  0  0  0  0  0  0  0  0  0  0
  141.7386   71.8883  224.5139 H   0  0  0  0  0  0  0  0  0  0  0  0
  1  2  2  0
  2  3  1  0
  3  4  1  0
  4  5  1  0
  5  6  2  0
  6  7  1  0
  7  8  2  0
  8  9  1  0
  9 10  2  0
  2 11  1  0
 11 12  2  0
 12 13  1  0
 13 14  1  0
 14 15  1  0
 15 16  1  0
 16 17  1  0
 17 18  2  0
 18 19  1  0
 19 20  2  0
 20 21  1  0
 21 22  2  0
 22 23  1  0
 13 24  2  0
 24 25  1  0
 25 26  1  0
 26 27  1  0
 27 28  1  0
 28 29  1  0
 29 30  2  0
 30 31  1  0
 31 32  2  0
 32 33  1  0
 33 34  2  0
 34 35  1  0
 25 36  2  0
 10  5  1  0
 36 11  1  0
 23 14  1  0
 35 26  1  0
 22 17  1  0
 34 29  1  0
  3 37  1  0
  4 38  1  0
  4 39  1  0
  6 40  1  0
  7 41  1  0
  9 42  1  0
 10 43  1  0
 12 44  1  0
 15 45  1  0
 15 46  1  0
 16 47  1  0
 16 48  1  0
 18 49  1  0
 19 50  1  0
 20 51  1  0
 21 52  1  0
 23 53  1  0
 23 54  1  0
 27 55  1  0
 27 56  1  0
 28 57  1  0
 28 58  1  0
 30 59  1  0
 31 60  1  0
 32 61  1  0
 33 62  1  0
 35 63  1  0
 35 64  1  0
M  END
>  <smiles>  (28) 
O=C(NCc1ccncc1)c1cc(N2CCc3ccccc3C2)nc(N2CCc3ccccc3C2)n1

>  <score_type>  (28) 
oracle

>  <origin>  (28) 
autodockgpu

>  <m_score__min__energy>  (28) 
-10.279999999999999

>  <m_primary>  (28) 
energy

>  <rmsd>  (28) 
11.144495515809243

>  <m_score__min__rmsd>  (28) 
11.144495515809243

>  <meeko>  (28) 
{"free_energy": -9.87, "intermolecular_energy": -11.36, "internal_energy": -1.19, "cluster_size": 19, "cluster_id": 2, "rank_in_cluster": 11}

>  <energy>  (28) 
-10.12

>  <cluster_rmsd>  (28) 
0.0

>  <cluster>  (28) 
2

$$$$

     RDKit          3D

 64 69  0  0  0  0  0  0  0  0999 V2000
  139.5570   75.9960  222.1290 O   0  0  0  0  0  0  0  0  0  0  0  0
  140.5910   75.6010  221.5320 C   0  0  0  0  0  0  0  0  0  0  0  0
  141.4160   76.5000  220.8200 N   0  0  0  0  0  0  0  0  0  0  0  0
  141.1930   77.9100  220.6880 C   0  0  0  0  0  0  0  0  0  0  0  0
  141.5810   78.7000  221.8870 C   0  0  0  0  0  0  0  0  0  0  0  0
  142.1390   79.9520  221.6360 C   0  0  0  0  0  0  0  0  0  0  0  0
  142.5270   80.7380  222.7190 C   0  0  0  0  0  0  0  0  0  0  0  0
  142.3680   80.2970  223.9810 N   0  0  0  0  0  0  0  0  0  0  0  0
  141.8230   79.0760  224.2000 C   0  0  0  0  0  0  0  0  0  0  0  0
  141.4160   78.2450  223.1780 C   0  0  0  0  0  0  0  0  0  0  0  0
  140.9410   74.1670  221.5850 C   0  0  0  0  0  0  0  0  0  0  0  0
  141.7880   73.6370  220.6350 C   0  0  0  0  0  0  0  0  0  0  0  0
  142.1450   72.3000  220.6320 C   0  0  0  0  0  0  0  0  0  0  0  0
  143.0200   71.7590  219.6500 N   0  0  0  0  0  0  0  0  0  0  0  0
  142.7480   72.0710  218.2690 C   0  0  0  0  0  0  0  0  0  0  0  0
  143.5740   71.3300  217.2800 C   0  0  0  0  0  0  0  0  0  0  0  0
  144.2130   70.1150  217.7760 C   0  0  0  0  0  0  0  0  0  0  0  0
  144.5650   69.1260  216.8810 C   0  0  0  0  0  0  0  0  0  0  0  0
  145.1780   67.9510  217.3070 C   0  0  0  0  0  0  0  0  0  0  0  0
  145.4450   67.7580  218.6520 C   0  0  0  0  0  0  0  0  0  0  0  0
  145.0930   68.7470  219.5460 C   0  0  0  0  0  0  0  0  0  0  0  0
  144.4890   69.8980  219.1020 C   0  0  0  0  0  0  0  0  0  0  0  0
  144.1270   70.9310  220.0890 C   0  0  0  0  0  0  0  0  0  0  0  0
  141.6160   71.5380  221.6120 N   0  0  0  0  0  0  0  0  0  0  0  0
  140.7880   72.0370  222.5500 C   0  0  0  0  0  0  0  0  0  0  0  0
  140.2860   71.1370  223.5370 N   0  0  0  0  0  0  0  0  0  0  0  0
  139.4670   70.0200  223.0970 C   0  0  0  0  0  0  0  0  0  0  0  0
  138.4080   69.7680  224.1820 C   0  0  0  0  0  0  0  0  0  0  0  0
  139.2190   69.3310  225.3770 C   0  0  0  0  0  0  0  0  0  0  0  0
  138.8980   68.1920  226.0790 C   0  0  0  0  0  0  0  0  0  0  0  0
  139.6590   67.8120  227.1620 C   0  0  0  0  0  0  0  0  0  0  0  0
  140.7430   68.6070  227.5110 C   0  0  0  0  0  0  0  0  0  0  0  0
  141.0540   69.7600  226.7890 C   0  0  0  0  0  0  0  0  0  0  0  0
  140.2860   70.1490  225.6910 C   0  0  0  0  0  0  0  0  0  0  0  0
  140.6200   71.3780  224.9260 C   0  0  0  0  0  0  0  0  0  0  0  0
  140.4570   73.3460  222.5280 N   0  0  0  0  0  0  0  0  0  0  0  0
  142.2690   76.0680  220.3490 H   0  0  0  0  0  0  0  0  0  0  0  0
  141.7779   78.2737  219.8303 H   0  0  0  0  0  0  0  0  0  0  0  0
  140.1102   78.0491  220.5527 H   0  0  0  0  0  0  0  0  0  0  0  0
  142.2704   80.3120  220.6049 H   0  0  0  0  0  0  0  0  0  0  0  0
  142.9681   81.7298  222.5409 H   0  0  0  0  0  0  0  0  0  0  0  0
  141.7000   78.7330  225.2379 H   0  0  0  0  0  0  0  0  0  0  0  0
  140.9769   77.2578  223.3844 H   0  0  0  0  0  0  0  0  0  0  0  0
  142.1929   74.2980  219.8545 H   0  0  0  0  0  0  0  0  0  0  0  0
  141.6908   71.8417  218.0698 H   0  0  0  0  0  0  0  0  0  0  0  0
  142.9977   73.1346  218.1406 H   0  0  0  0  0  0  0  0  0  0  0  0
  142.9240   71.0508  216.4377 H   0  0  0  0  0  0  0  0  0  0  0  0
  144.3936   72.0095  217.0032 H   0  0  0  0  0  0  0  0  0  0  0  0
  144.3573   69.2686  215.8102 H   0  0  0  0  0  0  0  0  0  0  0  0
  145.4502   67.1760  216.5754 H   0  0  0  0  0  0  0  0  0  0  0  0
  145.9286   66.8335  219.0005 H   0  0  0  0  0  0  0  0  0  0  0  0
  145.2966   68.6137  220.6187 H   0  0  0  0  0  0  0  0  0  0  0  0
  143.8449   70.4357  221.0298 H   0  0  0  0  0  0  0  0  0  0  0  0
  145.0008   71.5860  220.2211 H   0  0  0  0  0  0  0  0  0  0  0  0
  138.9767   70.2664  222.1437 H   0  0  0  0  0  0  0  0  0  0  0  0
  140.0852   69.1232  222.9433 H   0  0  0  0  0  0  0  0  0  0  0  0
  137.8467   70.6877  224.4037 H   0  0  0  0  0  0  0  0  0  0  0  0
  137.6569   69.0230  223.8804 H   0  0  0  0  0  0  0  0  0  0  0  0
  138.0329   67.5845  225.7749 H   0  0  0  0  0  0  0  0  0  0  0  0
  139.4153   66.9048  227.7343 H   0  0  0  0  0  0  0  0  0  0  0  0
  141.3670   68.3230  228.3712 H   0  0  0  0  0  0  0  0  0  0  0  0
  141.9175   70.3713  227.0900 H   0  0  0  0  0  0  0  0  0  0  0  0
  140.0366   72.2281  225.3095 H   0  0  0  0  0  0  0  0  0  0  0  0
  141.6887   71.6174  225.0292 H   0  0  0  0  0  0  0  0  0  0  0  0
  1  2  2  0
  2  3  1  0
  3  4  1  0
  4  5  1  0
  5  6  2  0
  6  7  1  0
  7  8  2  0
  8  9  1  0
  9 10  2  0
  2 11  1  0
 11 12  2  0
 12 13  1  0
 13 14  1  0
 14 15  1  0
 15 16  1  0
 16 17  1  0
 17 18  2  0
 18 19  1  0
 19 20  2  0
 20 21  1  0
 21 22  2  0
 22 23  1  0
 13 24  2  0
 24 25  1  0
 25 26  1  0
 26 27  1  0
 27 28  1  0
 28 29  1  0
 29 30  2  0
 30 31  1  0
 31 32  2  0
 32 33  1  0
 33 34  2  0
 34 35  1  0
 25 36  2  0
 10  5  1  0
 36 11  1  0
 23 14  1  0
 35 26  1  0
 22 17  1  0
 34 29  1  0
  3 37  1  0
  4 38  1  0
  4 39  1  0
  6 40  1  0
  7 41  1  0
  9 42  1  0
 10 43  1  0
 12 44  1  0
 15 45  1  0
 15 46  1  0
 16 47  1  0
 16 48  1  0
 18 49  1  0
 19 50  1  0
 20 51  1  0
 21 52  1  0
 23 53  1  0
 23 54  1  0
 27 55  1  0
 27 56  1  0
 28 57  1  0
 28 58  1  0
 30 59  1  0
 31 60  1  0
 32 61  1  0
 33 62  1  0
 35 63  1  0
 35 64  1  0
M  END
>  <smiles>  (29) 
O=C(NCc1ccncc1)c1cc(N2CCc3ccccc3C2)nc(N2CCc3ccccc3C2)n1

>  <score_type>  (29) 
oracle

>  <origin>  (29) 
autodockgpu

>  <m_score__min__energy>  (29) 
-10.279999999999999

>  <m_primary>  (29) 
energy

>  <rmsd>  (29) 
3.6813224824341666

>  <m_score__min__rmsd>  (29) 
3.6813224824341666

>  <meeko>  (29) 
{"free_energy": -9.66, "intermolecular_energy": -11.15, "internal_energy": -0.92, "cluster_size": 27, "cluster_id": 1, "rank_in_cluster": 18}

>  <energy>  (29) 
-10.12

>  <cluster_rmsd>  (29) 
0.08

>  <cluster>  (29) 
2

$$$$

     RDKit          3D

 64 69  0  0  0  0  0  0  0  0999 V2000
  144.3800   72.5560  219.1530 O   0  0  0  0  0  0  0  0  0  0  0  0
  143.3660   71.8890  219.4820 C   0  0  0  0  0  0  0  0  0  0  0  0
  143.1100   70.6170  218.9230 N   0  0  0  0  0  0  0  0  0  0  0  0
  143.9320   69.9530  217.9540 C   0  0  0  0  0  0  0  0  0  0  0  0
  144.6500   68.7620  218.4800 C   0  0  0  0  0  0  0  0  0  0  0  0
  144.1380   67.5240  218.0970 C   0  0  0  0  0  0  0  0  0  0  0  0
  144.7660   66.3700  218.5620 C   0  0  0  0  0  0  0  0  0  0  0  0
  145.8430   66.4490  219.3650 N   0  0  0  0  0  0  0  0  0  0  0  0
  146.3230   67.6650  219.7250 C   0  0  0  0  0  0  0  0  0  0  0  0
  145.7530   68.8470  219.3020 C   0  0  0  0  0  0  0  0  0  0  0  0
  142.4310   72.4550  220.4750 C   0  0  0  0  0  0  0  0  0  0  0  0
  142.1110   73.7970  220.4220 C   0  0  0  0  0  0  0  0  0  0  0  0
  141.2470   74.3830  221.3300 C   0  0  0  0  0  0  0  0  0  0  0  0
  140.9210   75.7650  221.2700 N   0  0  0  0  0  0  0  0  0  0  0  0
  140.8280   76.3730  219.9660 C   0  0  0  0  0  0  0  0  0  0  0  0
  140.6730   77.8520  219.9680 C   0  0  0  0  0  0  0  0  0  0  0  0
  141.0620   78.5250  221.2030 C   0  0  0  0  0  0  0  0  0  0  0  0
  141.4280   79.8540  221.1590 C   0  0  0  0  0  0  0  0  0  0  0  0
  141.8050   80.5390  222.3110 C   0  0  0  0  0  0  0  0  0  0  0  0
  141.8180   79.8850  223.5320 C   0  0  0  0  0  0  0  0  0  0  0  0
  141.4520   78.5550  223.5750 C   0  0  0  0  0  0  0  0  0  0  0  0
  141.0840   77.9010  222.4240 C   0  0  0  0  0  0  0  0  0  0  0  0
  140.7010   76.4810  222.5130 C   0  0  0  0  0  0  0  0  0  0  0  0
  140.7310   73.5690  222.2750 N   0  0  0  0  0  0  0  0  0  0  0  0
  141.0290   72.2580  222.3430 C   0  0  0  0  0  0  0  0  0  0  0  0
  140.4270   71.4950  223.3880 N   0  0  0  0  0  0  0  0  0  0  0  0
  139.5730   70.3780  223.0210 C   0  0  0  0  0  0  0  0  0  0  0  0
  138.4460   70.2950  224.0630 C   0  0  0  0  0  0  0  0  0  0  0  0
  139.1690   69.9500  225.3420 C   0  0  0  0  0  0  0  0  0  0  0  0
  138.7500   68.9100  226.1390 C   0  0  0  0  0  0  0  0  0  0  0  0
  139.4320   68.6110  227.2970 C   0  0  0  0  0  0  0  0  0  0  0  0
  140.5380   69.3860  227.6240 C   0  0  0  0  0  0  0  0  0  0  0  0
  140.9490   70.4390  226.8050 C   0  0  0  0  0  0  0  0  0  0  0  0
  140.2610   70.7440  225.6300 C   0  0  0  0  0  0  0  0  0  0  0  0
  140.7010   71.8660  224.7620 C   0  0  0  0  0  0  0  0  0  0  0  0
  141.8770   71.7130  221.4430 N   0  0  0  0  0  0  0  0  0  0  0  0
  142.2260   70.1310  219.2660 H   0  0  0  0  0  0  0  0  0  0  0  0
  143.2908   69.6296  217.1208 H   0  0  0  0  0  0  0  0  0  0  0  0
  144.7014   70.6751  217.6430 H   0  0  0  0  0  0  0  0  0  0  0  0
  143.2570   67.4589  217.4416 H   0  0  0  0  0  0  0  0  0  0  0  0
  144.3770   65.3836  218.2694 H   0  0  0  0  0  0  0  0  0  0  0  0
  147.2040   67.7103  220.3821 H   0  0  0  0  0  0  0  0  0  0  0  0
  146.1629   69.8206  219.6088 H   0  0  0  0  0  0  0  0  0  0  0  0
  142.5571   74.4201  219.6328 H   0  0  0  0  0  0  0  0  0  0  0  0
  141.7446   76.1274  219.4096 H   0  0  0  0  0  0  0  0  0  0  0  0
  139.9139   75.9703  219.5053 H   0  0  0  0  0  0  0  0  0  0  0  0
  141.2897   78.2580  219.1526 H   0  0  0  0  0  0  0  0  0  0  0  0
  139.5962   78.0419  219.8481 H   0  0  0  0  0  0  0  0  0  0  0  0
  141.4219   80.3832  220.1947 H   0  0  0  0  0  0  0  0  0  0  0  0
  142.0924   81.5991  222.2516 H   0  0  0  0  0  0  0  0  0  0  0  0
  142.1142   80.4152  224.4492 H   0  0  0  0  0  0  0  0  0  0  0  0
  141.4549   78.0166  224.5342 H   0  0  0  0  0  0  0  0  0  0  0  0
  141.2975   76.0041  223.3047 H   0  0  0  0  0  0  0  0  0  0  0  0
  139.6246   76.4394  222.7356 H   0  0  0  0  0  0  0  0  0  0  0  0
  139.1475   70.5437  222.0202 H   0  0  0  0  0  0  0  0  0  0  0  0
  140.1492   69.4413  222.9986 H   0  0  0  0  0  0  0  0  0  0  0  0
  137.9243   71.2590  224.1547 H   0  0  0  0  0  0  0  0  0  0  0  0
  137.6724   69.5593  223.7978 H   0  0  0  0  0  0  0  0  0  0  0  0
  137.8695   68.3169  225.8509 H   0  0  0  0  0  0  0  0  0  0  0  0
  139.1105   67.7822  227.9449 H   0  0  0  0  0  0  0  0  0  0  0  0
  141.0993   69.1659  228.5441 H   0  0  0  0  0  0  0  0  0  0  0  0
  141.8275   71.0366  227.0898 H   0  0  0  0  0  0  0  0  0  0  0  0
  140.1460   72.7797  225.0210 H   0  0  0  0  0  0  0  0  0  0  0  0
  141.7744   72.0620  224.9010 H   0  0  0  0  0  0  0  0  0  0  0  0
  1  2  2  0
  2  3  1  0
  3  4  1  0
  4  5  1  0
  5  6  2  0
  6  7  1  0
  7  8  2  0
  8  9  1  0
  9 10  2  0
  2 11  1  0
 11 12  2  0
 12 13  1  0
 13 14  1  0
 14 15  1  0
 15 16  1  0
 16 17  1  0
 17 18  2  0
 18 19  1  0
 19 20  2  0
 20 21  1  0
 21 22  2  0
 22 23  1  0
 13 24  2  0
 24 25  1  0
 25 26  1  0
 26 27  1  0
 27 28  1  0
 28 29  1  0
 29 30  2  0
 30 31  1  0
 31 32  2  0
 32 33  1  0
 33 34  2  0
 34 35  1  0
 25 36  2  0
 10  5  1  0
 36 11  1  0
 23 14  1  0
 35 26  1  0
 22 17  1  0
 34 29  1  0
  3 37  1  0
  4 38  1  0
  4 39  1  0
  6 40  1  0
  7 41  1  0
  9 42  1  0
 10 43  1  0
 12 44  1  0
 15 45  1  0
 15 46  1  0
 16 47  1  0
 16 48  1  0
 18 49  1  0
 19 50  1  0
 20 51  1  0
 21 52  1  0
 23 53  1  0
 23 54  1  0
 27 55  1  0
 27 56  1  0
 28 57  1  0
 28 58  1  0
 30 59  1  0
 31 60  1  0
 32 61  1  0
 33 62  1  0
 35 63  1  0
 35 64  1  0
M  END
>  <smiles>  (30) 
O=C(NCc1ccncc1)c1cc(N2CCc3ccccc3C2)nc(N2CCc3ccccc3C2)n1

>  <score_type>  (30) 
oracle

>  <origin>  (30) 
autodockgpu

>  <m_score__min__energy>  (30) 
-10.279999999999999

>  <m_primary>  (30) 
energy

>  <rmsd>  (30) 
11.312105007614278

>  <m_score__min__rmsd>  (30) 
11.312105007614278

>  <meeko>  (30) 
{"free_energy": -9.68, "intermolecular_energy": -11.18, "internal_energy": -1.08, "cluster_size": 19, "cluster_id": 2, "rank_in_cluster": 18}

>  <energy>  (30) 
-10.08

>  <cluster_rmsd>  (30) 
0.15

>  <cluster>  (30) 
2

$$$$

     RDKit          3D

 64 69  0  0  0  0  0  0  0  0999 V2000
  144.7000   73.3100  219.1350 O   0  0  0  0  0  0  0  0  0  0  0  0
  143.7490   72.5360  219.4150 C   0  0  0  0  0  0  0  0  0  0  0  0
  143.6510   71.2520  218.8340 N   0  0  0  0  0  0  0  0  0  0  0  0
  144.5760   70.6900  217.8940 C   0  0  0  0  0  0  0  0  0  0  0  0
  145.1180   69.3650  218.2940 C   0  0  0  0  0  0  0  0  0  0  0  0
  144.8400   68.9610  219.5970 C   0  0  0  0  0  0  0  0  0  0  0  0
  145.3260   67.7300  220.0320 C   0  0  0  0  0  0  0  0  0  0  0  0
  146.0500   66.9470  219.2110 N   0  0  0  0  0  0  0  0  0  0  0  0
  146.3080   67.3610  217.9460 C   0  0  0  0  0  0  0  0  0  0  0  0
  145.8590   68.5660  217.4490 C   0  0  0  0  0  0  0  0  0  0  0  0
  142.7200   72.9890  220.3730 C   0  0  0  0  0  0  0  0  0  0  0  0
  142.3940   74.3280  220.4420 C   0  0  0  0  0  0  0  0  0  0  0  0
  141.4440   74.8090  221.3240 C   0  0  0  0  0  0  0  0  0  0  0  0
  141.1120   76.1900  221.3890 N   0  0  0  0  0  0  0  0  0  0  0  0
  140.9090   76.8880  220.1430 C   0  0  0  0  0  0  0  0  0  0  0  0
  140.7530   78.3610  220.2630 C   0  0  0  0  0  0  0  0  0  0  0  0
  141.2440   78.9490  221.5050 C   0  0  0  0  0  0  0  0  0  0  0  0
  141.6030   80.2810  221.5240 C   0  0  0  0  0  0  0  0  0  0  0  0
  142.0750   80.8850  222.6870 C   0  0  0  0  0  0  0  0  0  0  0  0
  142.1910   80.1470  223.8530 C   0  0  0  0  0  0  0  0  0  0  0  0
  141.8310   78.8150  223.8330 C   0  0  0  0  0  0  0  0  0  0  0  0
  141.3690   78.2410  222.6740 C   0  0  0  0  0  0  0  0  0  0  0  0
  140.9970   76.8150  222.6930 C   0  0  0  0  0  0  0  0  0  0  0  0
  140.8490   73.8950  222.1200 N   0  0  0  0  0  0  0  0  0  0  0  0
  141.1520   72.5840  222.0680 C   0  0  0  0  0  0  0  0  0  0  0  0
  140.4630   71.7090  222.9600 N   0  0  0  0  0  0  0  0  0  0  0  0
  139.5670   70.7150  222.3930 C   0  0  0  0  0  0  0  0  0  0  0  0
  138.3910   70.5430  223.3690 C   0  0  0  0  0  0  0  0  0  0  0  0
  139.0350   69.9650  224.6040 C   0  0  0  0  0  0  0  0  0  0  0  0
  138.5240   68.8440  225.2160 C   0  0  0  0  0  0  0  0  0  0  0  0
  139.1350   68.3320  226.3390 C   0  0  0  0  0  0  0  0  0  0  0  0
  140.2650   68.9800  226.8220 C   0  0  0  0  0  0  0  0  0  0  0  0
  140.7690   70.1180  226.1910 C   0  0  0  0  0  0  0  0  0  0  0  0
  140.1530   70.6390  225.0510 C   0  0  0  0  0  0  0  0  0  0  0  0
  140.6930   71.8510  224.3840 C   0  0  0  0  0  0  0  0  0  0  0  0
  142.0850   72.1420  221.1960 N   0  0  0  0  0  0  0  0  0  0  0  0
  142.8090   70.6720  219.1360 H   0  0  0  0  0  0  0  0  0  0  0  0
  144.0609   70.5755  216.9288 H   0  0  0  0  0  0  0  0  0  0  0  0
  145.4314   71.3794  217.8399 H   0  0  0  0  0  0  0  0  0  0  0  0
  144.2489   69.6005  220.2690 H   0  0  0  0  0  0  0  0  0  0  0  0
  145.1156   67.3942  221.0581 H   0  0  0  0  0  0  0  0  0  0  0  0
  146.9006   66.7079  217.2885 H   0  0  0  0  0  0  0  0  0  0  0  0
  146.0832   68.8780  216.4183 H   0  0  0  0  0  0  0  0  0  0  0  0
  142.9065   75.0357  219.7737 H   0  0  0  0  0  0  0  0  0  0  0  0
  141.7759   76.6889  219.4958 H   0  0  0  0  0  0  0  0  0  0  0  0
  139.9601   76.5122  219.7328 H   0  0  0  0  0  0  0  0  0  0  0  0
  141.2979   78.8278  219.4292 H   0  0  0  0  0  0  0  0  0  0  0  0
  139.6695   78.5505  220.2487 H   0  0  0  0  0  0  0  0  0  0  0  0
  141.5148   80.8770  220.6037 H   0  0  0  0  0  0  0  0  0  0  0  0
  142.3557   81.9486  222.6792 H   0  0  0  0  0  0  0  0  0  0  0  0
  142.5629   80.6135  224.7772 H   0  0  0  0  0  0  0  0  0  0  0  0
  141.9143   78.2109  224.7485 H   0  0  0  0  0  0  0  0  0  0  0  0
  141.6589   76.2878  223.3958 H   0  0  0  0  0  0  0  0  0  0  0  0
  139.9430   76.7502  223.0012 H   0  0  0  0  0  0  0  0  0  0  0  0
  139.1968   71.0572  221.4153 H   0  0  0  0  0  0  0  0  0  0  0  0
  140.0915   69.7594  222.2459 H   0  0  0  0  0  0  0  0  0  0  0  0
  137.9189   71.5118  223.5893 H   0  0  0  0  0  0  0  0  0  0  0  0
  137.5915   69.9042  222.9657 H   0  0  0  0  0  0  0  0  0  0  0  0
  137.6265   68.3561  224.8080 H   0  0  0  0  0  0  0  0  0  0  0  0
  138.7396   67.4356  226.8392 H   0  0  0  0  0  0  0  0  0  0  0  0
  140.7711   68.5893  227.7171 H   0  0  0  0  0  0  0  0  0  0  0  0
  141.6641   70.6117  226.5972 H   0  0  0  0  0  0  0  0  0  0  0  0
  140.1768   72.7468  224.7595 H   0  0  0  0  0  0  0  0  0  0  0  0
  141.7677   71.9591  224.5921 H   0  0  0  0  0  0  0  0  0  0  0  0
  1  2  2  0
  2  3  1  0
  3  4  1  0
  4  5  1  0
  5  6  2  0
  6  7  1  0
  7  8  2  0
  8  9  1  0
  9 10  2  0
  2 11  1  0
 11 12  2  0
 12 13  1  0
 13 14  1  0
 14 15  1  0
 15 16  1  0
 16 17  1  0
 17 18  2  0
 18 19  1  0
 19 20  2  0
 20 21  1  0
 21 22  2  0
 22 23  1  0
 13 24  2  0
 24 25  1  0
 25 26  1  0
 26 27  1  0
 27 28  1  0
 28 29  1  0
 29 30  2  0
 30 31  1  0
 31 32  2  0
 32 33  1  0
 33 34  2  0
 34 35  1  0
 25 36  2  0
 10  5  1  0
 36 11  1  0
 23 14  1  0
 35 26  1  0
 22 17  1  0
 34 29  1  0
  3 37  1  0
  4 38  1  0
  4 39  1  0
  6 40  1  0
  7 41  1  0
  9 42  1  0
 10 43  1  0
 12 44  1  0
 15 45  1  0
 15 46  1  0
 16 47  1  0
 16 48  1  0
 18 49  1  0
 19 50  1  0
 20 51  1  0
 21 52  1  0
 23 53  1  0
 23 54  1  0
 27 55  1  0
 27 56  1  0
 28 57  1  0
 28 58  1  0
 30 59  1  0
 31 60  1  0
 32 61  1  0
 33 62  1  0
 35 63  1  0
 35 64  1  0
M  END
>  <smiles>  (31) 
O=C(NCc1ccncc1)c1cc(N2CCc3ccccc3C2)nc(N2CCc3ccccc3C2)n1

>  <score_type>  (31) 
oracle

>  <origin>  (31) 
autodockgpu

>  <m_score__min__energy>  (31) 
-10.279999999999999

>  <m_primary>  (31) 
energy

>  <rmsd>  (31) 
10.944679630790956

>  <m_score__min__rmsd>  (31) 
10.944679630790956

>  <meeko>  (31) 
{"free_energy": -9.72, "intermolecular_energy": -11.21, "internal_energy": -1.14, "cluster_size": 19, "cluster_id": 2, "rank_in_cluster": 17}

>  <energy>  (31) 
-10.08

>  <cluster_rmsd>  (31) 
0.17

>  <cluster>  (31) 
2

$$$$

     RDKit          3D

 64 69  0  0  0  0  0  0  0  0999 V2000
  140.2120   76.1460  220.4470 O   0  0  0  0  0  0  0  0  0  0  0  0
  139.9830   75.5280  221.5190 C   0  0  0  0  0  0  0  0  0  0  0  0
  139.3490   76.1620  222.6100 N   0  0  0  0  0  0  0  0  0  0  0  0
  138.9050   77.5250  222.6400 C   0  0  0  0  0  0  0  0  0  0  0  0
  139.9750   78.5050  222.9660 C   0  0  0  0  0  0  0  0  0  0  0  0
  139.5560   79.8180  223.1700 C   0  0  0  0  0  0  0  0  0  0  0  0
  140.5130   80.7830  223.4750 C   0  0  0  0  0  0  0  0  0  0  0  0
  141.8150   80.4560  223.5690 N   0  0  0  0  0  0  0  0  0  0  0  0
  142.1990   79.1710  223.3660 C   0  0  0  0  0  0  0  0  0  0  0  0
  141.3070   78.1650  223.0620 C   0  0  0  0  0  0  0  0  0  0  0  0
  140.3900   74.1120  221.6260 C   0  0  0  0  0  0  0  0  0  0  0  0
  141.1280   73.5360  220.6130 C   0  0  0  0  0  0  0  0  0  0  0  0
  141.5300   72.2130  220.6570 C   0  0  0  0  0  0  0  0  0  0  0  0
  142.2910   71.6250  219.6100 N   0  0  0  0  0  0  0  0  0  0  0  0
  141.5940   70.7840  218.6680 C   0  0  0  0  0  0  0  0  0  0  0  0
  142.4640   70.0480  217.7140 C   0  0  0  0  0  0  0  0  0  0  0  0
  143.8640   69.9190  218.1080 C   0  0  0  0  0  0  0  0  0  0  0  0
  144.6150   68.8840  217.5920 C   0  0  0  0  0  0  0  0  0  0  0  0
  145.9540   68.7210  217.9370 C   0  0  0  0  0  0  0  0  0  0  0  0
  146.5560   69.6080  218.8130 C   0  0  0  0  0  0  0  0  0  0  0  0
  145.8040   70.6440  219.3290 C   0  0  0  0  0  0  0  0  0  0  0  0
  144.4840   70.7830  218.9740 C   0  0  0  0  0  0  0  0  0  0  0  0
  143.7140   71.9010  219.5480 C   0  0  0  0  0  0  0  0  0  0  0  0
  141.1600   71.5120  221.7490 N   0  0  0  0  0  0  0  0  0  0  0  0
  140.4410   72.0560  222.7500 C   0  0  0  0  0  0  0  0  0  0  0  0
  140.1030   71.2190  223.8550 N   0  0  0  0  0  0  0  0  0  0  0  0
  139.5220   69.9160  223.5790 C   0  0  0  0  0  0  0  0  0  0  0  0
  138.5110   69.6140  224.6970 C   0  0  0  0  0  0  0  0  0  0  0  0
  139.3700   69.5070  225.9330 C   0  0  0  0  0  0  0  0  0  0  0  0
  139.2600   68.4340  226.7870 C   0  0  0  0  0  0  0  0  0  0  0  0
  140.0610   68.3580  227.9050 C   0  0  0  0  0  0  0  0  0  0  0  0
  140.9660   69.3870  228.1330 C   0  0  0  0  0  0  0  0  0  0  0  0
  141.0630   70.4700  227.2580 C   0  0  0  0  0  0  0  0  0  0  0  0
  140.2540   70.5500  226.1230 C   0  0  0  0  0  0  0  0  0  0  0  0
  140.3600   71.7050  225.1950 C   0  0  0  0  0  0  0  0  0  0  0  0
  140.0620   73.3510  222.6790 N   0  0  0  0  0  0  0  0  0  0  0  0
  139.1990   75.5540  223.4730 H   0  0  0  0  0  0  0  0  0  0  0  0
  138.4957   77.7768  221.6505 H   0  0  0  0  0  0  0  0  0  0  0  0
  138.1545   77.5966  223.4410 H   0  0  0  0  0  0  0  0  0  0  0  0
  138.4922   80.0868  223.0919 H   0  0  0  0  0  0  0  0  0  0  0  0
  140.2008   81.8246  223.6410 H   0  0  0  0  0  0  0  0  0  0  0  0
  143.2672   78.9212  223.4474 H   0  0  0  0  0  0  0  0  0  0  0  0
  141.6454   77.1306  222.9022 H   0  0  0  0  0  0  0  0  0  0  0  0
  141.4058   74.1482  219.7423 H   0  0  0  0  0  0  0  0  0  0  0  0
  141.0115   70.0448  219.2375 H   0  0  0  0  0  0  0  0  0  0  0  0
  140.9729   71.4570  218.0586 H   0  0  0  0  0  0  0  0  0  0  0  0
  142.0520   69.0354  217.5921 H   0  0  0  0  0  0  0  0  0  0  0  0
  142.4653   70.6418  216.7881 H   0  0  0  0  0  0  0  0  0  0  0  0
  144.1473   68.1736  216.8945 H   0  0  0  0  0  0  0  0  0  0  0  0
  146.5335   67.8875  217.5135 H   0  0  0  0  0  0  0  0  0  0  0  0
  147.6133   69.4894  219.0924 H   0  0  0  0  0  0  0  0  0  0  0  0
  146.2628   71.3604  220.0264 H   0  0  0  0  0  0  0  0  0  0  0  0
  144.0801   72.0942  220.5672 H   0  0  0  0  0  0  0  0  0  0  0  0
  143.8558   72.7737  218.8936 H   0  0  0  0  0  0  0  0  0  0  0  0
  139.0112   69.9314  222.6049 H   0  0  0  0  0  0  0  0  0  0  0  0
  140.3038   69.1429  223.5447 H   0  0  0  0  0  0  0  0  0  0  0  0
  137.7799   70.4299  224.7963 H   0  0  0  0  0  0  0  0  0  0  0  0
  137.9217   68.7050  224.5062 H   0  0  0  0  0  0  0  0  0  0  0  0
  138.5321   67.6365  226.5769 H   0  0  0  0  0  0  0  0  0  0  0  0
  139.9862   67.5067  228.5976 H   0  0  0  0  0  0  0  0  0  0  0  0
  141.6174   69.3475  229.0185 H   0  0  0  0  0  0  0  0  0  0  0  0
  141.7870   71.2717  227.4655 H   0  0  0  0  0  0  0  0  0  0  0  0
  139.6180   72.4711  225.4643 H   0  0  0  0  0  0  0  0  0  0  0  0
  141.3611   72.1567  225.2553 H   0  0  0  0  0  0  0  0  0  0  0  0
  1  2  2  0
  2  3  1  0
  3  4  1  0
  4  5  1  0
  5  6  2  0
  6  7  1  0
  7  8  2  0
  8  9  1  0
  9 10  2  0
  2 11  1  0
 11 12  2  0
 12 13  1  0
 13 14  1  0
 14 15  1  0
 15 16  1  0
 16 17  1  0
 17 18  2  0
 18 19  1  0
 19 20  2  0
 20 21  1  0
 21 22  2  0
 22 23  1  0
 13 24  2  0
 24 25  1  0
 25 26  1  0
 26 27  1  0
 27 28  1  0
 28 29  1  0
 29 30  2  0
 30 31  1  0
 31 32  2  0
 32 33  1  0
 33 34  2  0
 34 35  1  0
 25 36  2  0
 10  5  1  0
 36 11  1  0
 23 14  1  0
 35 26  1  0
 22 17  1  0
 34 29  1  0
  3 37  1  0
  4 38  1  0
  4 39  1  0
  6 40  1  0
  7 41  1  0
  9 42  1  0
 10 43  1  0
 12 44  1  0
 15 45  1  0
 15 46  1  0
 16 47  1  0
 16 48  1  0
 18 49  1  0
 19 50  1  0
 20 51  1  0
 21 52  1  0
 23 53  1  0
 23 54  1  0
 27 55  1  0
 27 56  1  0
 28 57  1  0
 28 58  1  0
 30 59  1  0
 31 60  1  0
 32 61  1  0
 33 62  1  0
 35 63  1  0
 35 64  1  0
M  END
>  <smiles>  (32) 
O=C(NCc1ccncc1)c1cc(N2CCc3ccccc3C2)nc(N2CCc3ccccc3C2)n1

>  <score_type>  (32) 
oracle

>  <origin>  (32) 
autodockgpu

>  <m_score__min__energy>  (32) 
-10.279999999999999

>  <m_primary>  (32) 
energy

>  <rmsd>  (32) 
4.032705711897438

>  <m_score__min__rmsd>  (32) 
4.032705711897438

>  <meeko>  (32) 
{"free_energy": -9.64, "intermolecular_energy": -11.13, "internal_energy": -1.26, "cluster_size": 27, "cluster_id": 1, "rank_in_cluster": 23}

>  <energy>  (32) 
-10.07

>  <cluster_rmsd>  (32) 
0.37

>  <cluster>  (32) 
2

$$$$

     RDKit          3D

 64 69  0  0  0  0  0  0  0  0999 V2000
  145.3570   72.6580  219.8260 O   0  0  0  0  0  0  0  0  0  0  0  0
  144.1870   72.2710  219.5730 C   0  0  0  0  0  0  0  0  0  0  0  0
  143.9230   71.3770  218.5120 N   0  0  0  0  0  0  0  0  0  0  0  0
  144.9040   70.8200  217.6280 C   0  0  0  0  0  0  0  0  0  0  0  0
  145.3740   69.4640  218.0170 C   0  0  0  0  0  0  0  0  0  0  0  0
  145.8510   68.6640  216.9810 C   0  0  0  0  0  0  0  0  0  0  0  0
  146.3010   67.3810  217.2820 C   0  0  0  0  0  0  0  0  0  0  0  0
  146.2740   66.9210  218.5480 N   0  0  0  0  0  0  0  0  0  0  0  0
  145.8050   67.7180  219.5390 C   0  0  0  0  0  0  0  0  0  0  0  0
  145.3450   68.9980  219.3140 C   0  0  0  0  0  0  0  0  0  0  0  0
  143.0760   72.7680  220.4090 C   0  0  0  0  0  0  0  0  0  0  0  0
  142.7650   74.1120  220.4020 C   0  0  0  0  0  0  0  0  0  0  0  0
  141.7400   74.6340  221.1690 C   0  0  0  0  0  0  0  0  0  0  0  0
  141.4240   76.0210  221.1560 N   0  0  0  0  0  0  0  0  0  0  0  0
  141.5730   76.7280  219.9090 C   0  0  0  0  0  0  0  0  0  0  0  0
  141.4140   78.2040  219.9970 C   0  0  0  0  0  0  0  0  0  0  0  0
  141.5630   78.7760  221.3310 C   0  0  0  0  0  0  0  0  0  0  0  0
  141.9240   80.1010  221.4590 C   0  0  0  0  0  0  0  0  0  0  0  0
  142.0770   80.6910  222.7110 C   0  0  0  0  0  0  0  0  0  0  0  0
  141.8650   79.9450  223.8580 C   0  0  0  0  0  0  0  0  0  0  0  0
  141.5030   78.6190  223.7300 C   0  0  0  0  0  0  0  0  0  0  0  0
  141.3590   78.0600  222.4830 C   0  0  0  0  0  0  0  0  0  0  0  0
  140.9730   76.6400  222.3890 C   0  0  0  0  0  0  0  0  0  0  0  0
  141.0550   73.7550  221.9300 N   0  0  0  0  0  0  0  0  0  0  0  0
  141.3420   72.4390  221.9510 C   0  0  0  0  0  0  0  0  0  0  0  0
  140.5540   71.6030  222.7970 N   0  0  0  0  0  0  0  0  0  0  0  0
  139.6410   70.6590  222.1750 C   0  0  0  0  0  0  0  0  0  0  0  0
  138.4010   70.5510  223.0780 C   0  0  0  0  0  0  0  0  0  0  0  0
  138.9380   69.9380  224.3480 C   0  0  0  0  0  0  0  0  0  0  0  0
  138.3320   68.8460  224.9240 C   0  0  0  0  0  0  0  0  0  0  0  0
  138.8460   68.3010  226.0790 C   0  0  0  0  0  0  0  0  0  0  0  0
  139.9790   68.8870  226.6310 C   0  0  0  0  0  0  0  0  0  0  0  0
  140.5810   69.9950  226.0350 C   0  0  0  0  0  0  0  0  0  0  0  0
  140.0630   70.5500  224.8630 C   0  0  0  0  0  0  0  0  0  0  0  0
  140.7070   71.7310  224.2330 C   0  0  0  0  0  0  0  0  0  0  0  0
  142.3490   71.9570  221.1910 N   0  0  0  0  0  0  0  0  0  0  0  0
  142.9000   71.1090  218.3790 H   0  0  0  0  0  0  0  0  0  0  0  0
  144.4655   70.7576  216.6211 H   0  0  0  0  0  0  0  0  0  0  0  0
  145.7808   71.4830  217.6702 H   0  0  0  0  0  0  0  0  0  0  0  0
  145.8717   69.0380  215.9467 H   0  0  0  0  0  0  0  0  0  0  0  0
  146.6828   66.7358  216.4770 H   0  0  0  0  0  0  0  0  0  0  0  0
  145.7908   67.3267  220.5669 H   0  0  0  0  0  0  0  0  0  0  0  0
  144.9694   69.6232  220.1375 H   0  0  0  0  0  0  0  0  0  0  0  0
  143.3517   74.7905  219.7653 H   0  0  0  0  0  0  0  0  0  0  0  0
  142.5782   76.5165  219.5155 H   0  0  0  0  0  0  0  0  0  0  0  0
  140.7627   76.3713  219.2562 H   0  0  0  0  0  0  0  0  0  0  0  0
  142.1701   78.6653  219.3447 H   0  0  0  0  0  0  0  0  0  0  0  0
  140.3775   78.4135  219.6940 H   0  0  0  0  0  0  0  0  0  0  0  0
  142.0943   80.7034  220.5545 H   0  0  0  0  0  0  0  0  0  0  0  0
  142.3662   81.7495  222.7887 H   0  0  0  0  0  0  0  0  0  0  0  0
  141.9828   80.4003  224.8524 H   0  0  0  0  0  0  0  0  0  0  0  0
  141.3294   78.0084  224.6284 H   0  0  0  0  0  0  0  0  0  0  0  0
  141.4147   76.0976  223.2379 H   0  0  0  0  0  0  0  0  0  0  0  0
  139.8742   76.5910  222.4048 H   0  0  0  0  0  0  0  0  0  0  0  0
  139.3491   71.0203  221.1779 H   0  0  0  0  0  0  0  0  0  0  0  0
  140.1210   69.6763  222.0572 H   0  0  0  0  0  0  0  0  0  0  0  0
  137.9698   71.5440  223.2732 H   0  0  0  0  0  0  0  0  0  0  0  0
  137.5935   69.9569  222.6253 H   0  0  0  0  0  0  0  0  0  0  0  0
  137.4355   68.4075  224.4613 H   0  0  0  0  0  0  0  0  0  0  0  0
  138.3737   67.4270  226.5513 H   0  0  0  0  0  0  0  0  0  0  0  0
  140.4083   68.4697  227.5538 H   0  0  0  0  0  0  0  0  0  0  0  0
  141.4767   70.4380  226.4948 H   0  0  0  0  0  0  0  0  0  0  0  0
  140.2194   72.6536  224.5809 H   0  0  0  0  0  0  0  0  0  0  0  0
  141.7720   71.7794  224.5041 H   0  0  0  0  0  0  0  0  0  0  0  0
  1  2  2  0
  2  3  1  0
  3  4  1  0
  4  5  1  0
  5  6  2  0
  6  7  1  0
  7  8  2  0
  8  9  1  0
  9 10  2  0
  2 11  1  0
 11 12  2  0
 12 13  1  0
 13 14  1  0
 14 15  1  0
 15 16  1  0
 16 17  1  0
 17 18  2  0
 18 19  1  0
 19 20  2  0
 20 21  1  0
 21 22  2  0
 22 23  1  0
 13 24  2  0
 24 25  1  0
 25 26  1  0
 26 27  1  0
 27 28  1  0
 28 29  1  0
 29 30  2  0
 30 31  1  0
 31 32  2  0
 32 33  1  0
 33 34  2  0
 34 35  1  0
 25 36  2  0
 10  5  1  0
 36 11  1  0
 23 14  1  0
 35 26  1  0
 22 17  1  0
 34 29  1  0
  3 37  1  0
  4 38  1  0
  4 39  1  0
  6 40  1  0
  7 41  1  0
  9 42  1  0
 10 43  1  0
 12 44  1  0
 15 45  1  0
 15 46  1  0
 16 47  1  0
 16 48  1  0
 18 49  1  0
 19 50  1  0
 20 51  1  0
 21 52  1  0
 23 53  1  0
 23 54  1  0
 27 55  1  0
 27 56  1  0
 28 57  1  0
 28 58  1  0
 30 59  1  0
 31 60  1  0
 32 61  1  0
 33 62  1  0
 35 63  1  0
 35 64  1  0
M  END
>  <smiles>  (33) 
O=C(NCc1ccncc1)c1cc(N2CCc3ccccc3C2)nc(N2CCc3ccccc3C2)n1

>  <score_type>  (33) 
oracle

>  <origin>  (33) 
autodockgpu

>  <m_score__min__energy>  (33) 
-10.279999999999999

>  <m_primary>  (33) 
energy

>  <rmsd>  (33) 
11.070899676901535

>  <m_score__min__rmsd>  (33) 
11.070899676901535

>  <meeko>  (33) 
{"free_energy": -9.75, "intermolecular_energy": -11.24, "internal_energy": -1.01, "cluster_size": 19, "cluster_id": 2, "rank_in_cluster": 16}

>  <energy>  (33) 
-10.03

>  <cluster_rmsd>  (33) 
0.2

>  <cluster>  (33) 
2

$$$$

     RDKit          3D

 64 69  0  0  0  0  0  0  0  0999 V2000
  138.5050   76.1180  221.7720 O   0  0  0  0  0  0  0  0  0  0  0  0
  139.7470   75.9760  221.9060 C   0  0  0  0  0  0  0  0  0  0  0  0
  140.5900   77.0810  222.1590 N   0  0  0  0  0  0  0  0  0  0  0  0
  140.1610   78.4430  222.2880 C   0  0  0  0  0  0  0  0  0  0  0  0
  141.2060   79.3610  222.8130 C   0  0  0  0  0  0  0  0  0  0  0  0
  140.7580   80.3770  223.6540 C   0  0  0  0  0  0  0  0  0  0  0  0
  141.6890   81.2730  224.1750 C   0  0  0  0  0  0  0  0  0  0  0  0
  142.9960   81.1610  223.8700 N   0  0  0  0  0  0  0  0  0  0  0  0
  143.4090   80.1640  223.0490 C   0  0  0  0  0  0  0  0  0  0  0  0
  142.5430   79.2430  222.4990 C   0  0  0  0  0  0  0  0  0  0  0  0
  140.3260   74.6220  221.7960 C   0  0  0  0  0  0  0  0  0  0  0  0
  141.2600   74.3570  220.8150 C   0  0  0  0  0  0  0  0  0  0  0  0
  141.8300   73.1060  220.6610 C   0  0  0  0  0  0  0  0  0  0  0  0
  142.7920   72.8400  219.6490 N   0  0  0  0  0  0  0  0  0  0  0  0
  142.4500   73.1890  218.2930 C   0  0  0  0  0  0  0  0  0  0  0  0
  143.4070   72.7180  217.2580 C   0  0  0  0  0  0  0  0  0  0  0  0
  144.2950   71.6330  217.6660 C   0  0  0  0  0  0  0  0  0  0  0  0
  144.8420   70.8120  216.7030 C   0  0  0  0  0  0  0  0  0  0  0  0
  145.6950   69.7660  217.0450 C   0  0  0  0  0  0  0  0  0  0  0  0
  146.0080   69.5340  218.3740 C   0  0  0  0  0  0  0  0  0  0  0  0
  145.4600   70.3560  219.3370 C   0  0  0  0  0  0  0  0  0  0  0  0
  144.6210   71.3820  218.9750 C   0  0  0  0  0  0  0  0  0  0  0  0
  144.0540   72.2360  220.0340 C   0  0  0  0  0  0  0  0  0  0  0  0
  141.4220   72.1520  221.5250 N   0  0  0  0  0  0  0  0  0  0  0  0
  140.5130   72.3910  222.4890 C   0  0  0  0  0  0  0  0  0  0  0  0
  140.1530   71.3060  223.3430 N   0  0  0  0  0  0  0  0  0  0  0  0
  139.5550   70.1260  222.7430 C   0  0  0  0  0  0  0  0  0  0  0  0
  138.5300   69.5660  223.7440 C   0  0  0  0  0  0  0  0  0  0  0  0
  139.3770   69.1350  224.9150 C   0  0  0  0  0  0  0  0  0  0  0  0
  139.2440   67.8820  225.4680 C   0  0  0  0  0  0  0  0  0  0  0  0
  140.0340   67.5110  226.5330 C   0  0  0  0  0  0  0  0  0  0  0  0
  140.9530   68.4330  227.0190 C   0  0  0  0  0  0  0  0  0  0  0  0
  141.0730   69.7010  226.4490 C   0  0  0  0  0  0  0  0  0  0  0  0
  140.2750   70.0800  225.3680 C   0  0  0  0  0  0  0  0  0  0  0  0
  140.4060   71.4320  224.7650 C   0  0  0  0  0  0  0  0  0  0  0  0
  139.9720   73.6230  222.6160 N   0  0  0  0  0  0  0  0  0  0  0  0
  141.6270   76.8580  222.2570 H   0  0  0  0  0  0  0  0  0  0  0  0
  139.8515   78.8032  221.2958 H   0  0  0  0  0  0  0  0  0  0  0  0
  139.3378   78.4487  223.0176 H   0  0  0  0  0  0  0  0  0  0  0  0
  139.6903   80.4701  223.9019 H   0  0  0  0  0  0  0  0  0  0  0  0
  141.3531   82.0803  224.8424 H   0  0  0  0  0  0  0  0  0  0  0  0
  144.4803   80.0868  222.8118 H   0  0  0  0  0  0  0  0  0  0  0  0
  142.9052   78.4444  221.8349 H   0  0  0  0  0  0  0  0  0  0  0  0
  141.5608   75.1666  220.1337 H   0  0  0  0  0  0  0  0  0  0  0  0
  141.4646   72.7550  218.0681 H   0  0  0  0  0  0  0  0  0  0  0  0
  142.4669   74.2879  218.2470 H   0  0  0  0  0  0  0  0  0  0  0  0
  142.8247   72.3710  216.3917 H   0  0  0  0  0  0  0  0  0  0  0  0
  144.0605   73.5756  217.0403 H   0  0  0  0  0  0  0  0  0  0  0  0
  144.5999   70.9866  215.6443 H   0  0  0  0  0  0  0  0  0  0  0  0
  146.1203   69.1239  216.2596 H   0  0  0  0  0  0  0  0  0  0  0  0
  146.6804   68.7104  218.6562 H   0  0  0  0  0  0  0  0  0  0  0  0
  145.6957   70.1894  220.3985 H   0  0  0  0  0  0  0  0  0  0  0  0
  143.8911   71.6220  220.9320 H   0  0  0  0  0  0  0  0  0  0  0  0
  144.7688   73.0505  220.2231 H   0  0  0  0  0  0  0  0  0  0  0  0
  139.0522   70.3967  221.8028 H   0  0  0  0  0  0  0  0  0  0  0  0
  140.3255   69.3742  222.5166 H   0  0  0  0  0  0  0  0  0  0  0  0
  137.8101   70.3416  224.0443 H   0  0  0  0  0  0  0  0  0  0  0  0
  137.9289   68.7450  223.3261 H   0  0  0  0  0  0  0  0  0  0  0  0
  138.5060   67.1762  225.0590 H   0  0  0  0  0  0  0  0  0  0  0  0
  139.9403   66.5131  226.9862 H   0  0  0  0  0  0  0  0  0  0  0  0
  141.5969   68.1586  227.8676 H   0  0  0  0  0  0  0  0  0  0  0  0
  141.8066   70.4119  226.8571 H   0  0  0  0  0  0  0  0  0  0  0  0
  139.6730   72.1165  225.2169 H   0  0  0  0  0  0  0  0  0  0  0  0
  141.4128   71.8377  224.9430 H   0  0  0  0  0  0  0  0  0  0  0  0
  1  2  2  0
  2  3  1  0
  3  4  1  0
  4  5  1  0
  5  6  2  0
  6  7  1  0
  7  8  2  0
  8  9  1  0
  9 10  2  0
  2 11  1  0
 11 12  2  0
 12 13  1  0
 13 14  1  0
 14 15  1  0
 15 16  1  0
 16 17  1  0
 17 18  2  0
 18 19  1  0
 19 20  2  0
 20 21  1  0
 21 22  2  0
 22 23  1  0
 13 24  2  0
 24 25  1  0
 25 26  1  0
 26 27  1  0
 27 28  1  0
 28 29  1  0
 29 30  2  0
 30 31  1  0
 31 32  2  0
 32 33  1  0
 33 34  2  0
 34 35  1  0
 25 36  2  0
 10  5  1  0
 36 11  1  0
 23 14  1  0
 35 26  1  0
 22 17  1  0
 34 29  1  0
  3 37  1  0
  4 38  1  0
  4 39  1  0
  6 40  1  0
  7 41  1  0
  9 42  1  0
 10 43  1  0
 12 44  1  0
 15 45  1  0
 15 46  1  0
 16 47  1  0
 16 48  1  0
 18 49  1  0
 19 50  1  0
 20 51  1  0
 21 52  1  0
 23 53  1  0
 23 54  1  0
 27 55  1  0
 27 56  1  0
 28 57  1  0
 28 58  1  0
 30 59  1  0
 31 60  1  0
 32 61  1  0
 33 62  1  0
 35 63  1  0
 35 64  1  0
M  END
>  <smiles>  (34) 
O=C(NCc1ccncc1)c1cc(N2CCc3ccccc3C2)nc(N2CCc3ccccc3C2)n1

>  <score_type>  (34) 
oracle

>  <origin>  (34) 
autodockgpu

>  <m_score__min__energy>  (34) 
-10.279999999999999

>  <m_primary>  (34) 
energy

>  <rmsd>  (34) 
3.830354722290896

>  <m_score__min__rmsd>  (34) 
3.830354722290896

>  <meeko>  (34) 
{"free_energy": -9.8, "intermolecular_energy": -11.3, "internal_energy": -0.86, "cluster_size": 27, "cluster_id": 1, "rank_in_cluster": 12}

>  <energy>  (34) 
-10.02

>  <cluster_rmsd>  (34) 
0.57

>  <cluster>  (34) 
2

$$$$

     RDKit          3D

 64 69  0  0  0  0  0  0  0  0999 V2000
  142.9520   71.7970  218.1780 O   0  0  0  0  0  0  0  0  0  0  0  0
  143.3230   71.8580  219.3780 C   0  0  0  0  0  0  0  0  0  0  0  0
  144.5930   71.3850  219.7780 N   0  0  0  0  0  0  0  0  0  0  0  0
  145.5760   70.8020  218.9120 C   0  0  0  0  0  0  0  0  0  0  0  0
  145.5370   69.3170  218.8620 C   0  0  0  0  0  0  0  0  0  0  0  0
  146.2740   68.7230  217.8400 C   0  0  0  0  0  0  0  0  0  0  0  0
  146.2740   67.3330  217.7380 C   0  0  0  0  0  0  0  0  0  0  0  0
  145.5750   66.5800  218.6080 N   0  0  0  0  0  0  0  0  0  0  0  0
  144.8650   67.1800  219.5940 C   0  0  0  0  0  0  0  0  0  0  0  0
  144.8210   68.5490  219.7550 C   0  0  0  0  0  0  0  0  0  0  0  0
  142.4060   72.4370  220.3800 C   0  0  0  0  0  0  0  0  0  0  0  0
  142.1010   73.7820  220.3290 C   0  0  0  0  0  0  0  0  0  0  0  0
  141.2540   74.3790  221.2450 C   0  0  0  0  0  0  0  0  0  0  0  0
  140.9430   75.7650  221.1860 N   0  0  0  0  0  0  0  0  0  0  0  0
  140.8960   76.3850  219.8840 C   0  0  0  0  0  0  0  0  0  0  0  0
  140.7560   77.8640  219.8940 C   0  0  0  0  0  0  0  0  0  0  0  0
  141.1140   78.5240  221.1460 C   0  0  0  0  0  0  0  0  0  0  0  0
  141.4940   79.8500  221.1230 C   0  0  0  0  0  0  0  0  0  0  0  0
  141.8420   80.5210  222.2920 C   0  0  0  0  0  0  0  0  0  0  0  0
  141.8120   79.8580  223.5070 C   0  0  0  0  0  0  0  0  0  0  0  0
  141.4320   78.5320  223.5290 C   0  0  0  0  0  0  0  0  0  0  0  0
  141.0930   77.8910  222.3620 C   0  0  0  0  0  0  0  0  0  0  0  0
  140.6930   76.4730  222.4280 C   0  0  0  0  0  0  0  0  0  0  0  0
  140.7390   73.5730  222.1970 N   0  0  0  0  0  0  0  0  0  0  0  0
  141.0230   72.2590  222.2640 C   0  0  0  0  0  0  0  0  0  0  0  0
  140.4250   71.5040  223.3170 N   0  0  0  0  0  0  0  0  0  0  0  0
  139.5650   70.3880  222.9610 C   0  0  0  0  0  0  0  0  0  0  0  0
  138.4430   70.3150  224.0100 C   0  0  0  0  0  0  0  0  0  0  0  0
  139.1720   69.9760  225.2870 C   0  0  0  0  0  0  0  0  0  0  0  0
  138.7540   68.9430  226.0930 C   0  0  0  0  0  0  0  0  0  0  0  0
  139.4400   68.6490  227.2500 C   0  0  0  0  0  0  0  0  0  0  0  0
  140.5510   69.4230  227.5660 C   0  0  0  0  0  0  0  0  0  0  0  0
  140.9600   70.4690  226.7380 C   0  0  0  0  0  0  0  0  0  0  0  0
  140.2670   70.7690  225.5640 C   0  0  0  0  0  0  0  0  0  0  0  0
  140.7070   71.8840  224.6870 C   0  0  0  0  0  0  0  0  0  0  0  0
  141.8540   71.7020  221.3560 N   0  0  0  0  0  0  0  0  0  0  0  0
  144.8150   71.4800  220.8160 H   0  0  0  0  0  0  0  0  0  0  0  0
  145.4113   71.1863  217.8945 H   0  0  0  0  0  0  0  0  0  0  0  0
  146.5602   71.0798  219.3172 H   0  0  0  0  0  0  0  0  0  0  0  0
  146.8441   69.3382  217.1283 H   0  0  0  0  0  0  0  0  0  0  0  0
  146.8512   66.8460  216.9382 H   0  0  0  0  0  0  0  0  0  0  0  0
  144.3000   66.5486  220.2955 H   0  0  0  0  0  0  0  0  0  0  0  0
  144.2369   69.0103  220.5650 H   0  0  0  0  0  0  0  0  0  0  0  0
  142.5458   74.3990  219.5343 H   0  0  0  0  0  0  0  0  0  0  0  0
  141.8266   76.1346  219.3537 H   0  0  0  0  0  0  0  0  0  0  0  0
  139.9925   75.9955  219.3921 H   0  0  0  0  0  0  0  0  0  0  0  0
  141.4011   78.2702  219.1010 H   0  0  0  0  0  0  0  0  0  0  0  0
  139.6851   78.0654  219.7437 H   0  0  0  0  0  0  0  0  0  0  0  0
  141.5225   80.3869  220.1634 H   0  0  0  0  0  0  0  0  0  0  0  0
  142.1410   81.5788  222.2503 H   0  0  0  0  0  0  0  0  0  0  0  0
  142.0858   80.3784  224.4367 H   0  0  0  0  0  0  0  0  0  0  0  0
  141.4003   77.9863  224.4836 H   0  0  0  0  0  0  0  0  0  0  0  0
  141.2608   75.9837  223.2331 H   0  0  0  0  0  0  0  0  0  0  0  0
  139.6101   76.4405  222.6183 H   0  0  0  0  0  0  0  0  0  0  0  0
  139.1347   70.5496  221.9616 H   0  0  0  0  0  0  0  0  0  0  0  0
  140.1377   69.4491  222.9408 H   0  0  0  0  0  0  0  0  0  0  0  0
  137.9246   71.2812  224.0984 H   0  0  0  0  0  0  0  0  0  0  0  0
  137.6657   69.5800  223.7538 H   0  0  0  0  0  0  0  0  0  0  0  0
  137.8703   68.3508  225.8129 H   0  0  0  0  0  0  0  0  0  0  0  0
  139.1186   67.8259  227.9051 H   0  0  0  0  0  0  0  0  0  0  0  0
  141.1170   69.2071  228.4842 H   0  0  0  0  0  0  0  0  0  0  0  0
  141.8416   71.0660  227.0145 H   0  0  0  0  0  0  0  0  0  0  0  0
  140.1563   72.8013  224.9424 H   0  0  0  0  0  0  0  0  0  0  0  0
  141.7816   72.0780  224.8199 H   0  0  0  0  0  0  0  0  0  0  0  0
  1  2  2  0
  2  3  1  0
  3  4  1  0
  4  5  1  0
  5  6  2  0
  6  7  1  0
  7  8  2  0
  8  9  1  0
  9 10  2  0
  2 11  1  0
 11 12  2  0
 12 13  1  0
 13 14  1  0
 14 15  1  0
 15 16  1  0
 16 17  1  0
 17 18  2  0
 18 19  1  0
 19 20  2  0
 20 21  1  0
 21 22  2  0
 22 23  1  0
 13 24  2  0
 24 25  1  0
 25 26  1  0
 26 27  1  0
 27 28  1  0
 28 29  1  0
 29 30  2  0
 30 31  1  0
 31 32  2  0
 32 33  1  0
 33 34  2  0
 34 35  1  0
 25 36  2  0
 10  5  1  0
 36 11  1  0
 23 14  1  0
 35 26  1  0
 22 17  1  0
 34 29  1  0
  3 37  1  0
  4 38  1  0
  4 39  1  0
  6 40  1  0
  7 41  1  0
  9 42  1  0
 10 43  1  0
 12 44  1  0
 15 45  1  0
 15 46  1  0
 16 47  1  0
 16 48  1  0
 18 49  1  0
 19 50  1  0
 20 51  1  0
 21 52  1  0
 23 53  1  0
 23 54  1  0
 27 55  1  0
 27 56  1  0
 28 57  1  0
 28 58  1  0
 30 59  1  0
 31 60  1  0
 32 61  1  0
 33 62  1  0
 35 63  1  0
 35 64  1  0
M  END
>  <smiles>  (35) 
O=C(NCc1ccncc1)c1cc(N2CCc3ccccc3C2)nc(N2CCc3ccccc3C2)n1

>  <score_type>  (35) 
oracle

>  <origin>  (35) 
autodockgpu

>  <m_score__min__energy>  (35) 
-10.279999999999999

>  <m_primary>  (35) 
energy

>  <rmsd>  (35) 
10.975758534010586

>  <m_score__min__rmsd>  (35) 
10.975758534010586

>  <meeko>  (35) 
{"free_energy": -10.07, "intermolecular_energy": -11.56, "internal_energy": -1.02, "cluster_size": 19, "cluster_id": 2, "rank_in_cluster": 5}

>  <energy>  (35) 
-9.97

>  <cluster_rmsd>  (35) 
0.52

>  <cluster>  (35) 
2

$$$$

     RDKit          3D

 64 69  0  0  0  0  0  0  0  0999 V2000
  138.7380   75.9880  221.2310 O   0  0  0  0  0  0  0  0  0  0  0  0
  139.9820   75.9130  221.4080 C   0  0  0  0  0  0  0  0  0  0  0  0
  140.7810   77.0740  221.5050 N   0  0  0  0  0  0  0  0  0  0  0  0
  140.3040   78.4230  221.4180 C   0  0  0  0  0  0  0  0  0  0  0  0
  141.0870   79.3970  222.2250 C   0  0  0  0  0  0  0  0  0  0  0  0
  140.5000   80.6460  222.4100 C   0  0  0  0  0  0  0  0  0  0  0  0
  141.1860   81.6030  223.1530 C   0  0  0  0  0  0  0  0  0  0  0  0
  142.3940   81.3270  223.6810 N   0  0  0  0  0  0  0  0  0  0  0  0
  142.9470   80.1050  223.4870 C   0  0  0  0  0  0  0  0  0  0  0  0
  142.3230   79.1100  222.7630 C   0  0  0  0  0  0  0  0  0  0  0  0
  140.6070   74.5800  221.5150 C   0  0  0  0  0  0  0  0  0  0  0  0
  141.6970   74.2730  220.7270 C   0  0  0  0  0  0  0  0  0  0  0  0
  142.3190   73.0380  220.7810 C   0  0  0  0  0  0  0  0  0  0  0  0
  143.4420   72.7280  219.9670 N   0  0  0  0  0  0  0  0  0  0  0  0
  143.6560   73.5310  218.7890 C   0  0  0  0  0  0  0  0  0  0  0  0
  144.7270   73.0460  217.8790 C   0  0  0  0  0  0  0  0  0  0  0  0
  145.1100   71.6470  218.0450 C   0  0  0  0  0  0  0  0  0  0  0  0
  145.6910   70.9790  216.9880 C   0  0  0  0  0  0  0  0  0  0  0  0
  146.0740   69.6450  217.0990 C   0  0  0  0  0  0  0  0  0  0  0  0
  145.8740   68.9640  218.2880 C   0  0  0  0  0  0  0  0  0  0  0  0
  145.2930   69.6340  219.3460 C   0  0  0  0  0  0  0  0  0  0  0  0
  144.9230   70.9500  219.2110 C   0  0  0  0  0  0  0  0  0  0  0  0
  144.3040   71.6290  220.3630 C   0  0  0  0  0  0  0  0  0  0  0  0
  141.7990   72.1440  221.6490 N   0  0  0  0  0  0  0  0  0  0  0  0
  140.7370   72.4250  222.4270 C   0  0  0  0  0  0  0  0  0  0  0  0
  140.2700   71.4010  223.3050 N   0  0  0  0  0  0  0  0  0  0  0  0
  139.5390   70.2840  222.7330 C   0  0  0  0  0  0  0  0  0  0  0  0
  138.4710   69.8580  223.7540 C   0  0  0  0  0  0  0  0  0  0  0  0
  139.2790   69.3580  224.9260 C   0  0  0  0  0  0  0  0  0  0  0  0
  139.0170   68.1370  225.5040 C   0  0  0  0  0  0  0  0  0  0  0  0
  139.7730   67.7000  226.5680 C   0  0  0  0  0  0  0  0  0  0  0  0
  140.7930   68.5250  227.0280 C   0  0  0  0  0  0  0  0  0  0  0  0
  141.0450   69.7610  226.4320 C   0  0  0  0  0  0  0  0  0  0  0  0
  140.2810   70.2060  225.3520 C   0  0  0  0  0  0  0  0  0  0  0  0
  140.5520   71.5240  224.7220 C   0  0  0  0  0  0  0  0  0  0  0  0
  140.1500   73.6390  222.3530 N   0  0  0  0  0  0  0  0  0  0  0  0
  141.8220   76.9060  221.6540 H   0  0  0  0  0  0  0  0  0  0  0  0
  140.3439   78.7363  220.3643 H   0  0  0  0  0  0  0  0  0  0  0  0
  139.2813   78.4247  221.8232 H   0  0  0  0  0  0  0  0  0  0  0  0
  139.5141   80.8721  221.9778 H   0  0  0  0  0  0  0  0  0  0  0  0
  140.7368   82.5947  223.3104 H   0  0  0  0  0  0  0  0  0  0  0  0
  143.9345   79.8978  223.9250 H   0  0  0  0  0  0  0  0  0  0  0  0
  142.7936   78.1260  222.6207 H   0  0  0  0  0  0  0  0  0  0  0  0
  142.0840   75.0342  220.0336 H   0  0  0  0  0  0  0  0  0  0  0  0
  142.7143   73.5602  218.2213 H   0  0  0  0  0  0  0  0  0  0  0  0
  143.9834   74.5181  219.1474 H   0  0  0  0  0  0  0  0  0  0  0  0
  144.3789   73.1811  216.8443 H   0  0  0  0  0  0  0  0  0  0  0  0
  145.6224   73.6347  218.1274 H   0  0  0  0  0  0  0  0  0  0  0  0
  145.8551   71.5102  216.0388 H   0  0  0  0  0  0  0  0  0  0  0  0
  146.5354   69.1321  216.2423 H   0  0  0  0  0  0  0  0  0  0  0  0
  146.1722   67.9099  218.3875 H   0  0  0  0  0  0  0  0  0  0  0  0
  145.1258   69.1125  220.3000 H   0  0  0  0  0  0  0  0  0  0  0  0
  143.7052   70.8961  220.9237 H   0  0  0  0  0  0  0  0  0  0  0  0
  145.1146   72.0467  220.9781 H   0  0  0  0  0  0  0  0  0  0  0  0
  139.0580   70.5921  221.7930 H   0  0  0  0  0  0  0  0  0  0  0  0
  140.2194   69.4481  222.5130 H   0  0  0  0  0  0  0  0  0  0  0  0
  137.8436   70.7131  224.0459 H   0  0  0  0  0  0  0  0  0  0  0  0
  137.7794   69.1000  223.3576 H   0  0  0  0  0  0  0  0  0  0  0  0
  138.2019   67.5091  225.1150 H   0  0  0  0  0  0  0  0  0  0  0  0
  139.5758   66.7264  227.0405 H   0  0  0  0  0  0  0  0  0  0  0  0
  141.4120   68.1977  227.8764 H   0  0  0  0  0  0  0  0  0  0  0  0
  141.8574   70.3938  226.8188 H   0  0  0  0  0  0  0  0  0  0  0  0
  139.9037   72.2928  225.1677 H   0  0  0  0  0  0  0  0  0  0  0  0
  141.5992   71.8199  224.8824 H   0  0  0  0  0  0  0  0  0  0  0  0
  1  2  2  0
  2  3  1  0
  3  4  1  0
  4  5  1  0
  5  6  2  0
  6  7  1  0
  7  8  2  0
  8  9  1  0
  9 10  2  0
  2 11  1  0
 11 12  2  0
 12 13  1  0
 13 14  1  0
 14 15  1  0
 15 16  1  0
 16 17  1  0
 17 18  2  0
 18 19  1  0
 19 20  2  0
 20 21  1  0
 21 22  2  0
 22 23  1  0
 13 24  2  0
 24 25  1  0
 25 26  1  0
 26 27  1  0
 27 28  1  0
 28 29  1  0
 29 30  2  0
 30 31  1  0
 31 32  2  0
 32 33  1  0
 33 34  2  0
 34 35  1  0
 25 36  2  0
 10  5  1  0
 36 11  1  0
 23 14  1  0
 35 26  1  0
 22 17  1  0
 34 29  1  0
  3 37  1  0
  4 38  1  0
  4 39  1  0
  6 40  1  0
  7 41  1  0
  9 42  1  0
 10 43  1  0
 12 44  1  0
 15 45  1  0
 15 46  1  0
 16 47  1  0
 16 48  1  0
 18 49  1  0
 19 50  1  0
 20 51  1  0
 21 52  1  0
 23 53  1  0
 23 54  1  0
 27 55  1  0
 27 56  1  0
 28 57  1  0
 28 58  1  0
 30 59  1  0
 31 60  1  0
 32 61  1  0
 33 62  1  0
 35 63  1  0
 35 64  1  0
M  END
>  <smiles>  (36) 
O=C(NCc1ccncc1)c1cc(N2CCc3ccccc3C2)nc(N2CCc3ccccc3C2)n1

>  <score_type>  (36) 
oracle

>  <origin>  (36) 
autodockgpu

>  <m_score__min__energy>  (36) 
-10.279999999999999

>  <m_primary>  (36) 
energy

>  <rmsd>  (36) 
3.516194035948776

>  <m_score__min__rmsd>  (36) 
3.516194035948776

>  <meeko>  (36) 
{"free_energy": -10.13, "intermolecular_energy": -11.62, "internal_energy": -0.87, "cluster_size": 27, "cluster_id": 1, "rank_in_cluster": 9}

>  <energy>  (36) 
-9.95

>  <cluster_rmsd>  (36) 
0.6

>  <cluster>  (36) 
2

$$$$

     RDKit          3D

 64 69  0  0  0  0  0  0  0  0999 V2000
  138.8600   76.0370  221.2680 O   0  0  0  0  0  0  0  0  0  0  0  0
  140.1040   75.9250  221.4160 C   0  0  0  0  0  0  0  0  0  0  0  0
  140.9400   77.0620  221.4920 N   0  0  0  0  0  0  0  0  0  0  0  0
  140.5020   78.4240  221.4130 C   0  0  0  0  0  0  0  0  0  0  0  0
  141.2690   79.3600  222.2770 C   0  0  0  0  0  0  0  0  0  0  0  0
  140.5170   80.3130  222.9610 C   0  0  0  0  0  0  0  0  0  0  0  0
  141.1800   81.2210  223.7830 C   0  0  0  0  0  0  0  0  0  0  0  0
  142.5200   81.1810  223.9130 N   0  0  0  0  0  0  0  0  0  0  0  0
  143.2310   80.2450  223.2370 C   0  0  0  0  0  0  0  0  0  0  0  0
  142.6410   79.3150  222.4070 C   0  0  0  0  0  0  0  0  0  0  0  0
  140.6920   74.5740  221.5130 C   0  0  0  0  0  0  0  0  0  0  0  0
  141.7750   74.2430  220.7250 C   0  0  0  0  0  0  0  0  0  0  0  0
  142.3620   72.9910  220.7690 C   0  0  0  0  0  0  0  0  0  0  0  0
  143.4790   72.6570  219.9550 N   0  0  0  0  0  0  0  0  0  0  0  0
  143.7240   73.4720  218.7910 C   0  0  0  0  0  0  0  0  0  0  0  0
  144.7830   72.9660  217.8780 C   0  0  0  0  0  0  0  0  0  0  0  0
  145.1200   71.5530  218.0230 C   0  0  0  0  0  0  0  0  0  0  0  0
  145.6830   70.8820  216.9580 C   0  0  0  0  0  0  0  0  0  0  0  0
  146.0220   69.5350  217.0500 C   0  0  0  0  0  0  0  0  0  0  0  0
  145.7940   68.8430  218.2270 C   0  0  0  0  0  0  0  0  0  0  0  0
  145.2300   69.5140  219.2930 C   0  0  0  0  0  0  0  0  0  0  0  0
  144.9040   70.8440  219.1770 C   0  0  0  0  0  0  0  0  0  0  0  0
  144.3020   71.5250  220.3380 C   0  0  0  0  0  0  0  0  0  0  0  0
  141.8150   72.1050  221.6270 N   0  0  0  0  0  0  0  0  0  0  0  0
  140.7590   72.4080  222.4060 C   0  0  0  0  0  0  0  0  0  0  0  0
  140.2620   71.3900  223.2730 N   0  0  0  0  0  0  0  0  0  0  0  0
  139.4840   70.3090  222.6920 C   0  0  0  0  0  0  0  0  0  0  0  0
  138.4090   69.9100  223.7170 C   0  0  0  0  0  0  0  0  0  0  0  0
  139.2080   69.3610  224.8740 C   0  0  0  0  0  0  0  0  0  0  0  0
  138.9040   68.1430  225.4360 C   0  0  0  0  0  0  0  0  0  0  0  0
  139.6530   67.6620  226.4870 C   0  0  0  0  0  0  0  0  0  0  0  0
  140.7080   68.4410  226.9490 C   0  0  0  0  0  0  0  0  0  0  0  0
  141.0010   69.6750  226.3680 C   0  0  0  0  0  0  0  0  0  0  0  0
  140.2450   70.1650  225.3030 C   0  0  0  0  0  0  0  0  0  0  0  0
  140.5610   71.4810  224.6890 C   0  0  0  0  0  0  0  0  0  0  0  0
  140.2060   73.6390  222.3420 N   0  0  0  0  0  0  0  0  0  0  0  0
  141.9790   76.8620  221.6190 H   0  0  0  0  0  0  0  0  0  0  0  0
  140.5999   78.7583  220.3696 H   0  0  0  0  0  0  0  0  0  0  0  0
  139.4617   78.4436  221.7698 H   0  0  0  0  0  0  0  0  0  0  0  0
  139.4228   80.3475  222.8540 H   0  0  0  0  0  0  0  0  0  0  0  0
  140.6028   81.9794  224.3323 H   0  0  0  0  0  0  0  0  0  0  0  0
  144.3244   80.2267  223.3556 H   0  0  0  0  0  0  0  0  0  0  0  0
  143.2416   78.5664  221.8695 H   0  0  0  0  0  0  0  0  0  0  0  0
  142.1851   74.9992  220.0394 H   0  0  0  0  0  0  0  0  0  0  0  0
  142.7864   73.5412  218.2200 H   0  0  0  0  0  0  0  0  0  0  0  0
  144.0811   74.4424  219.1662 H   0  0  0  0  0  0  0  0  0  0  0  0
  144.4443   73.1286  216.8442 H   0  0  0  0  0  0  0  0  0  0  0  0
  145.6959   73.5210  218.1400 H   0  0  0  0  0  0  0  0  0  0  0  0
  145.8678   71.4216  216.0174 H   0  0  0  0  0  0  0  0  0  0  0  0
  146.4710   69.0206  216.1876 H   0  0  0  0  0  0  0  0  0  0  0  0
  146.0574   67.7783  218.3111 H   0  0  0  0  0  0  0  0  0  0  0  0
  145.0410   68.9830  220.2376 H   0  0  0  0  0  0  0  0  0  0  0  0
  143.6768   70.8036  220.8846 H   0  0  0  0  0  0  0  0  0  0  0  0
  145.1227   71.9059  220.9637 H   0  0  0  0  0  0  0  0  0  0  0  0
  139.0072   70.6480  221.7605 H   0  0  0  0  0  0  0  0  0  0  0  0
  140.1301   69.4510  222.4545 H   0  0  0  0  0  0  0  0  0  0  0  0
  137.8185   70.7846  224.0274 H   0  0  0  0  0  0  0  0  0  0  0  0
  137.6843   69.1860  223.3163 H   0  0  0  0  0  0  0  0  0  0  0  0
  138.0620   67.5525  225.0457 H   0  0  0  0  0  0  0  0  0  0  0  0
  139.4232   66.6898  226.9475 H   0  0  0  0  0  0  0  0  0  0  0  0
  141.3218   68.0782  227.7866 H   0  0  0  0  0  0  0  0  0  0  0  0
  141.8408   70.2705  226.7555 H   0  0  0  0  0  0  0  0  0  0  0  0
  139.9468   72.2675  225.1518 H   0  0  0  0  0  0  0  0  0  0  0  0
  141.6203   71.7339  224.8436 H   0  0  0  0  0  0  0  0  0  0  0  0
  1  2  2  0
  2  3  1  0
  3  4  1  0
  4  5  1  0
  5  6  2  0
  6  7  1  0
  7  8  2  0
  8  9  1  0
  9 10  2  0
  2 11  1  0
 11 12  2  0
 12 13  1  0
 13 14  1  0
 14 15  1  0
 15 16  1  0
 16 17  1  0
 17 18  2  0
 18 19  1  0
 19 20  2  0
 20 21  1  0
 21 22  2  0
 22 23  1  0
 13 24  2  0
 24 25  1  0
 25 26  1  0
 26 27  1  0
 27 28  1  0
 28 29  1  0
 29 30  2  0
 30 31  1  0
 31 32  2  0
 32 33  1  0
 33 34  2  0
 34 35  1  0
 25 36  2  0
 10  5  1  0
 36 11  1  0
 23 14  1  0
 35 26  1  0
 22 17  1  0
 34 29  1  0
  3 37  1  0
  4 38  1  0
  4 39  1  0
  6 40  1  0
  7 41  1  0
  9 42  1  0
 10 43  1  0
 12 44  1  0
 15 45  1  0
 15 46  1  0
 16 47  1  0
 16 48  1  0
 18 49  1  0
 19 50  1  0
 20 51  1  0
 21 52  1  0
 23 53  1  0
 23 54  1  0
 27 55  1  0
 27 56  1  0
 28 57  1  0
 28 58  1  0
 30 59  1  0
 31 60  1  0
 32 61  1  0
 33 62  1  0
 35 63  1  0
 35 64  1  0
M  END
>  <smiles>  (37) 
O=C(NCc1ccncc1)c1cc(N2CCc3ccccc3C2)nc(N2CCc3ccccc3C2)n1

>  <score_type>  (37) 
oracle

>  <origin>  (37) 
autodockgpu

>  <m_score__min__energy>  (37) 
-10.279999999999999

>  <m_primary>  (37) 
energy

>  <rmsd>  (37) 
3.7081952016984805

>  <m_score__min__rmsd>  (37) 
3.7081952016984805

>  <meeko>  (37) 
{"free_energy": -10.2, "intermolecular_energy": -11.69, "internal_energy": -0.88, "cluster_size": 27, "cluster_id": 1, "rank_in_cluster": 5}

>  <energy>  (37) 
-9.94

>  <cluster_rmsd>  (37) 
0.27

>  <cluster>  (37) 
2

$$$$

     RDKit          3D

 64 69  0  0  0  0  0  0  0  0999 V2000
  143.7600   73.0050  218.3410 O   0  0  0  0  0  0  0  0  0  0  0  0
  143.6790   72.4480  219.4670 C   0  0  0  0  0  0  0  0  0  0  0  0
  144.5440   71.3900  219.8250 N   0  0  0  0  0  0  0  0  0  0  0  0
  145.5750   70.8380  218.9960 C   0  0  0  0  0  0  0  0  0  0  0  0
  145.5460   69.3550  218.8970 C   0  0  0  0  0  0  0  0  0  0  0  0
  146.2770   68.8010  217.8490 C   0  0  0  0  0  0  0  0  0  0  0  0
  146.2860   67.4160  217.7000 C   0  0  0  0  0  0  0  0  0  0  0  0
  145.6010   66.6290  218.5510 N   0  0  0  0  0  0  0  0  0  0  0  0
  144.8960   67.1910  219.5640 C   0  0  0  0  0  0  0  0  0  0  0  0
  144.8440   68.5530  219.7700 C   0  0  0  0  0  0  0  0  0  0  0  0
  142.6580   72.9180  220.4240 C   0  0  0  0  0  0  0  0  0  0  0  0
  142.3220   74.2560  220.4600 C   0  0  0  0  0  0  0  0  0  0  0  0
  141.3780   74.7540  221.3400 C   0  0  0  0  0  0  0  0  0  0  0  0
  141.0360   76.1330  221.3720 N   0  0  0  0  0  0  0  0  0  0  0  0
  140.8970   76.8170  220.1100 C   0  0  0  0  0  0  0  0  0  0  0  0
  140.7280   78.2910  220.2060 C   0  0  0  0  0  0  0  0  0  0  0  0
  141.1480   78.8940  221.4670 C   0  0  0  0  0  0  0  0  0  0  0  0
  141.4990   80.2280  221.4910 C   0  0  0  0  0  0  0  0  0  0  0  0
  141.9050   80.8470  222.6700 C   0  0  0  0  0  0  0  0  0  0  0  0
  141.9620   80.1220  223.8480 C   0  0  0  0  0  0  0  0  0  0  0  0
  141.6110   78.7870  223.8240 C   0  0  0  0  0  0  0  0  0  0  0  0
  141.2140   78.1990  222.6470 C   0  0  0  0  0  0  0  0  0  0  0  0
  140.8480   76.7710  222.6620 C   0  0  0  0  0  0  0  0  0  0  0  0
  140.7990   73.8570  222.1660 N   0  0  0  0  0  0  0  0  0  0  0  0
  141.1110   72.5470  222.1450 C   0  0  0  0  0  0  0  0  0  0  0  0
  140.4380   71.6900  223.0670 N   0  0  0  0  0  0  0  0  0  0  0  0
  139.5340   70.6840  222.5370 C   0  0  0  0  0  0  0  0  0  0  0  0
  138.3740   70.5320  223.5350 C   0  0  0  0  0  0  0  0  0  0  0  0
  139.0400   69.9810  224.7720 C   0  0  0  0  0  0  0  0  0  0  0  0
  138.5410   68.8720  225.4160 C   0  0  0  0  0  0  0  0  0  0  0  0
  139.1710   68.3850  226.5390 C   0  0  0  0  0  0  0  0  0  0  0  0
  140.3090   69.0440  226.9890 C   0  0  0  0  0  0  0  0  0  0  0  0
  140.8010   70.1690  226.3250 C   0  0  0  0  0  0  0  0  0  0  0  0
  140.1650   70.6650  225.1860 C   0  0  0  0  0  0  0  0  0  0  0  0
  140.6920   71.8630  224.4830 C   0  0  0  0  0  0  0  0  0  0  0  0
  142.0380   72.0890  221.2750 N   0  0  0  0  0  0  0  0  0  0  0  0
  144.3970   70.9850  220.8000 H   0  0  0  0  0  0  0  0  0  0  0  0
  145.4639   71.2539  217.9837 H   0  0  0  0  0  0  0  0  0  0  0  0
  146.5344   71.1058  219.4627 H   0  0  0  0  0  0  0  0  0  0  0  0
  146.8358   69.4440  217.1531 H   0  0  0  0  0  0  0  0  0  0  0  0
  146.8587   66.9606  216.8786 H   0  0  0  0  0  0  0  0  0  0  0  0
  144.3426   66.5326  220.2498 H   0  0  0  0  0  0  0  0  0  0  0  0
  144.2641   68.9832  220.5998 H   0  0  0  0  0  0  0  0  0  0  0  0
  142.8210   74.9489  219.7665 H   0  0  0  0  0  0  0  0  0  0  0  0
  141.7983   76.6157  219.5124 H   0  0  0  0  0  0  0  0  0  0  0  0
  139.9732   76.4322  219.6535 H   0  0  0  0  0  0  0  0  0  0  0  0
  141.3154   78.7521  219.3983 H   0  0  0  0  0  0  0  0  0  0  0  0
  139.6461   78.4750  220.1306 H   0  0  0  0  0  0  0  0  0  0  0  0
  141.4573   80.8137  220.5608 H   0  0  0  0  0  0  0  0  0  0  0  0
  142.1805   81.9119  222.6656 H   0  0  0  0  0  0  0  0  0  0  0  0
  142.2810   80.6007  224.7856 H   0  0  0  0  0  0  0  0  0  0  0  0
  141.6491   78.1927  224.7489 H   0  0  0  0  0  0  0  0  0  0  0  0
  141.4738   76.2547  223.4049 H   0  0  0  0  0  0  0  0  0  0  0  0
  139.7795   76.7036  222.9144 H   0  0  0  0  0  0  0  0  0  0  0  0
  139.1476   71.0047  221.5583 H   0  0  0  0  0  0  0  0  0  0  0  0
  140.0571   69.7257  222.4027 H   0  0  0  0  0  0  0  0  0  0  0  0
  137.9041   71.5048  223.7422 H   0  0  0  0  0  0  0  0  0  0  0  0
  137.5685   69.8842  223.1587 H   0  0  0  0  0  0  0  0  0  0  0  0
  137.6379   68.3742  225.0331 H   0  0  0  0  0  0  0  0  0  0  0  0
  138.7848   67.4996  227.0652 H   0  0  0  0  0  0  0  0  0  0  0  0
  140.8307   68.6728  227.8834 H   0  0  0  0  0  0  0  0  0  0  0  0
  141.7027   70.6717  226.7048 H   0  0  0  0  0  0  0  0  0  0  0  0
  140.1811   72.7663  224.8477 H   0  0  0  0  0  0  0  0  0  0  0  0
  141.7700   71.9763  224.6701 H   0  0  0  0  0  0  0  0  0  0  0  0
  1  2  2  0
  2  3  1  0
  3  4  1  0
  4  5  1  0
  5  6  2  0
  6  7  1  0
  7  8  2  0
  8  9  1  0
  9 10  2  0
  2 11  1  0
 11 12  2  0
 12 13  1  0
 13 14  1  0
 14 15  1  0
 15 16  1  0
 16 17  1  0
 17 18  2  0
 18 19  1  0
 19 20  2  0
 20 21  1  0
 21 22  2  0
 22 23  1  0
 13 24  2  0
 24 25  1  0
 25 26  1  0
 26 27  1  0
 27 28  1  0
 28 29  1  0
 29 30  2  0
 30 31  1  0
 31 32  2  0
 32 33  1  0
 33 34  2  0
 34 35  1  0
 25 36  2  0
 10  5  1  0
 36 11  1  0
 23 14  1  0
 35 26  1  0
 22 17  1  0
 34 29  1  0
  3 37  1  0
  4 38  1  0
  4 39  1  0
  6 40  1  0
  7 41  1  0
  9 42  1  0
 10 43  1  0
 12 44  1  0
 15 45  1  0
 15 46  1  0
 16 47  1  0
 16 48  1  0
 18 49  1  0
 19 50  1  0
 20 51  1  0
 21 52  1  0
 23 53  1  0
 23 54  1  0
 27 55  1  0
 27 56  1  0
 28 57  1  0
 28 58  1  0
 30 59  1  0
 31 60  1  0
 32 61  1  0
 33 62  1  0
 35 63  1  0
 35 64  1  0
M  END
>  <smiles>  (38) 
O=C(NCc1ccncc1)c1cc(N2CCc3ccccc3C2)nc(N2CCc3ccccc3C2)n1

>  <score_type>  (38) 
oracle

>  <origin>  (38) 
autodockgpu

>  <m_score__min__energy>  (38) 
-10.279999999999999

>  <m_primary>  (38) 
energy

>  <rmsd>  (38) 
10.908105385069586

>  <m_score__min__rmsd>  (38) 
10.908105385069586

>  <meeko>  (38) 
{"free_energy": -10.03, "intermolecular_energy": -11.53, "internal_energy": -1.1, "cluster_size": 19, "cluster_id": 2, "rank_in_cluster": 6}

>  <energy>  (38) 
-9.87

>  <cluster_rmsd>  (38) 
0.56

>  <cluster>  (38) 
2

$$$$

     RDKit          3D

 64 69  0  0  0  0  0  0  0  0999 V2000
  138.8840   76.1120  220.8350 O   0  0  0  0  0  0  0  0  0  0  0  0
  139.9410   75.9550  221.5000 C   0  0  0  0  0  0  0  0  0  0  0  0
  140.5320   77.0290  222.2020 N   0  0  0  0  0  0  0  0  0  0  0  0
  140.0310   78.3710  222.2470 C   0  0  0  0  0  0  0  0  0  0  0  0
  141.0080   79.3670  222.7620 C   0  0  0  0  0  0  0  0  0  0  0  0
  142.3500   79.0840  222.5210 C   0  0  0  0  0  0  0  0  0  0  0  0
  143.3140   79.9780  222.9830 C   0  0  0  0  0  0  0  0  0  0  0  0
  142.9560   81.0910  223.6510 N   0  0  0  0  0  0  0  0  0  0  0  0
  141.6440   81.3450  223.8740 C   0  0  0  0  0  0  0  0  0  0  0  0
  140.6370   80.5050  223.4450 C   0  0  0  0  0  0  0  0  0  0  0  0
  140.5660   74.6180  221.5400 C   0  0  0  0  0  0  0  0  0  0  0  0
  141.6190   74.3320  220.6950 C   0  0  0  0  0  0  0  0  0  0  0  0
  142.2390   73.0960  220.6850 C   0  0  0  0  0  0  0  0  0  0  0  0
  143.3240   72.8080  219.8130 N   0  0  0  0  0  0  0  0  0  0  0  0
  143.3730   73.5080  218.5530 C   0  0  0  0  0  0  0  0  0  0  0  0
  144.4160   73.0320  217.6070 C   0  0  0  0  0  0  0  0  0  0  0  0
  144.9430   71.6960  217.8660 C   0  0  0  0  0  0  0  0  0  0  0  0
  145.5060   70.9810  216.8300 C   0  0  0  0  0  0  0  0  0  0  0  0
  146.0220   69.7030  217.0300 C   0  0  0  0  0  0  0  0  0  0  0  0
  145.9760   69.1280  218.2890 C   0  0  0  0  0  0  0  0  0  0  0  0
  145.4120   69.8430  219.3250 C   0  0  0  0  0  0  0  0  0  0  0  0
  144.9090   71.1020  219.1020 C   0  0  0  0  0  0  0  0  0  0  0  0
  144.3140   71.8340  220.2350 C   0  0  0  0  0  0  0  0  0  0  0  0
  141.7560   72.1770  221.5480 N   0  0  0  0  0  0  0  0  0  0  0  0
  140.7300   72.4370  222.3810 C   0  0  0  0  0  0  0  0  0  0  0  0
  140.3000   71.3890  223.2490 N   0  0  0  0  0  0  0  0  0  0  0  0
  139.6120   70.2500  222.6640 C   0  0  0  0  0  0  0  0  0  0  0  0
  138.5580   69.7760  223.6790 C   0  0  0  0  0  0  0  0  0  0  0  0
  139.3810   69.2940  224.8480 C   0  0  0  0  0  0  0  0  0  0  0  0
  139.1630   68.0600  225.4140 C   0  0  0  0  0  0  0  0  0  0  0  0
  139.9330   67.6420  226.4760 C   0  0  0  0  0  0  0  0  0  0  0  0
  140.9200   68.4990  226.9460 C   0  0  0  0  0  0  0  0  0  0  0  0
  141.1280   69.7490  226.3620 C   0  0  0  0  0  0  0  0  0  0  0  0
  140.3500   70.1760  225.2840 C   0  0  0  0  0  0  0  0  0  0  0  0
  140.5730   71.5090  224.6670 C   0  0  0  0  0  0  0  0  0  0  0  0
  140.1440   73.6540  222.3690 N   0  0  0  0  0  0  0  0  0  0  0  0
  141.4250   76.7950  222.7350 H   0  0  0  0  0  0  0  0  0  0  0  0
  139.7417   78.6661  221.2276 H   0  0  0  0  0  0  0  0  0  0  0  0
  139.1816   78.3692  222.9460 H   0  0  0  0  0  0  0  0  0  0  0  0
  142.6430   78.1738  221.9773 H   0  0  0  0  0  0  0  0  0  0  0  0
  144.3790   79.7722  222.8000 H   0  0  0  0  0  0  0  0  0  0  0  0
  141.3700   82.2597  224.4202 H   0  0  0  0  0  0  0  0  0  0  0  0
  139.5792   80.7347  223.6406 H   0  0  0  0  0  0  0  0  0  0  0  0
  141.9767   75.1124  220.0073 H   0  0  0  0  0  0  0  0  0  0  0  0
  142.3938   73.3982  218.0640 H   0  0  0  0  0  0  0  0  0  0  0  0
  143.6292   74.5508  218.7918 H   0  0  0  0  0  0  0  0  0  0  0  0
  143.9818   73.0340  216.5963 H   0  0  0  0  0  0  0  0  0  0  0  0
  145.2668   73.7186  217.7284 H   0  0  0  0  0  0  0  0  0  0  0  0
  145.5484   71.4287  215.8261 H   0  0  0  0  0  0  0  0  0  0  0  0
  146.4658   69.1507  216.1886 H   0  0  0  0  0  0  0  0  0  0  0  0
  146.3817   68.1199  218.4597 H   0  0  0  0  0  0  0  0  0  0  0  0
  145.3648   69.4040  220.3325 H   0  0  0  0  0  0  0  0  0  0  0  0
  143.8311   71.1098  220.9076 H   0  0  0  0  0  0  0  0  0  0  0  0
  145.1239   72.3803  220.7406 H   0  0  0  0  0  0  0  0  0  0  0  0
  139.1221   70.5485  221.7254 H   0  0  0  0  0  0  0  0  0  0  0  0
  140.3232   69.4419  222.4377 H   0  0  0  0  0  0  0  0  0  0  0  0
  137.8999   70.6052  223.9777 H   0  0  0  0  0  0  0  0  0  0  0  0
  137.8949   68.9975  223.2738 H   0  0  0  0  0  0  0  0  0  0  0  0
  138.3723   67.4059  225.0178 H   0  0  0  0  0  0  0  0  0  0  0  0
  139.7712   66.6574  226.9391 H   0  0  0  0  0  0  0  0  0  0  0  0
  141.5484   68.1868  227.7931 H   0  0  0  0  0  0  0  0  0  0  0  0
  141.9160   70.4074  226.7564 H   0  0  0  0  0  0  0  0  0  0  0  0
  139.8950   72.2487  225.1178 H   0  0  0  0  0  0  0  0  0  0  0  0
  141.6080   71.8424  224.8334 H   0  0  0  0  0  0  0  0  0  0  0  0
  1  2  2  0
  2  3  1  0
  3  4  1  0
  4  5  1  0
  5  6  2  0
  6  7  1  0
  7  8  2  0
  8  9  1  0
  9 10  2  0
  2 11  1  0
 11 12  2  0
 12 13  1  0
 13 14  1  0
 14 15  1  0
 15 16  1  0
 16 17  1  0
 17 18  2  0
 18 19  1  0
 19 20  2  0
 20 21  1  0
 21 22  2  0
 22 23  1  0
 13 24  2  0
 24 25  1  0
 25 26  1  0
 26 27  1  0
 27 28  1  0
 28 29  1  0
 29 30  2  0
 30 31  1  0
 31 32  2  0
 32 33  1  0
 33 34  2  0
 34 35  1  0
 25 36  2  0
 10  5  1  0
 36 11  1  0
 23 14  1  0
 35 26  1  0
 22 17  1  0
 34 29  1  0
  3 37  1  0
  4 38  1  0
  4 39  1  0
  6 40  1  0
  7 41  1  0
  9 42  1  0
 10 43  1  0
 12 44  1  0
 15 45  1  0
 15 46  1  0
 16 47  1  0
 16 48  1  0
 18 49  1  0
 19 50  1  0
 20 51  1  0
 21 52  1  0
 23 53  1  0
 23 54  1  0
 27 55  1  0
 27 56  1  0
 28 57  1  0
 28 58  1  0
 30 59  1  0
 31 60  1  0
 32 61  1  0
 33 62  1  0
 35 63  1  0
 35 64  1  0
M  END
>  <smiles>  (39) 
O=C(NCc1ccncc1)c1cc(N2CCc3ccccc3C2)nc(N2CCc3ccccc3C2)n1

>  <score_type>  (39) 
oracle

>  <origin>  (39) 
autodockgpu

>  <m_score__min__energy>  (39) 
-10.279999999999999

>  <m_primary>  (39) 
energy

>  <rmsd>  (39) 
3.4111022792612244

>  <m_score__min__rmsd>  (39) 
3.4111022792612244

>  <meeko>  (39) 
{"free_energy": -10.02, "intermolecular_energy": -11.51, "internal_energy": -0.89, "cluster_size": 27, "cluster_id": 1, "rank_in_cluster": 10}

>  <energy>  (39) 
-9.82

>  <cluster_rmsd>  (39) 
0.74

>  <cluster>  (39) 
2

$$$$

     RDKit          3D

 64 69  0  0  0  0  0  0  0  0999 V2000
  143.1030   72.3050  218.2260 O   0  0  0  0  0  0  0  0  0  0  0  0
  143.3420   72.0970  219.4440 C   0  0  0  0  0  0  0  0  0  0  0  0
  144.4700   71.3510  219.8530 N   0  0  0  0  0  0  0  0  0  0  0  0
  145.4410   70.7610  218.9780 C   0  0  0  0  0  0  0  0  0  0  0  0
  145.3150   69.2870  218.8360 C   0  0  0  0  0  0  0  0  0  0  0  0
  146.2990   68.5280  219.4650 C   0  0  0  0  0  0  0  0  0  0  0  0
  146.2380   67.1400  219.3640 C   0  0  0  0  0  0  0  0  0  0  0  0
  145.2490   66.5430  218.6720 N   0  0  0  0  0  0  0  0  0  0  0  0
  144.3020   67.3030  218.0680 C   0  0  0  0  0  0  0  0  0  0  0  0
  144.3000   68.6800  218.1270 C   0  0  0  0  0  0  0  0  0  0  0  0
  142.4200   72.6480  220.4560 C   0  0  0  0  0  0  0  0  0  0  0  0
  142.1430   74.0000  220.4620 C   0  0  0  0  0  0  0  0  0  0  0  0
  141.2920   74.5730  221.3900 C   0  0  0  0  0  0  0  0  0  0  0  0
  141.0100   75.9660  221.3900 N   0  0  0  0  0  0  0  0  0  0  0  0
  140.9340   76.6320  220.1140 C   0  0  0  0  0  0  0  0  0  0  0  0
  140.8260   78.1130  220.1800 C   0  0  0  0  0  0  0  0  0  0  0  0
  141.2400   78.7210  221.4410 C   0  0  0  0  0  0  0  0  0  0  0  0
  141.6480   80.0380  221.4520 C   0  0  0  0  0  0  0  0  0  0  0  0
  142.0490   80.6600  222.6310 C   0  0  0  0  0  0  0  0  0  0  0  0
  142.0440   79.9550  223.8220 C   0  0  0  0  0  0  0  0  0  0  0  0
  141.6360   78.6370  223.8110 C   0  0  0  0  0  0  0  0  0  0  0  0
  141.2440   78.0450  222.6340 C   0  0  0  0  0  0  0  0  0  0  0  0
  140.8170   76.6340  222.6640 C   0  0  0  0  0  0  0  0  0  0  0  0
  140.7450   73.7350  222.2960 N   0  0  0  0  0  0  0  0  0  0  0  0
  141.0010   72.4130  222.3070 C   0  0  0  0  0  0  0  0  0  0  0  0
  140.3700   71.6240  223.3140 N   0  0  0  0  0  0  0  0  0  0  0  0
  139.4310   70.5970  222.8960 C   0  0  0  0  0  0  0  0  0  0  0  0
  138.3230   70.5210  223.9600 C   0  0  0  0  0  0  0  0  0  0  0  0
  139.0470   70.0400  225.1930 C   0  0  0  0  0  0  0  0  0  0  0  0
  138.5730   68.9800  225.9300 C   0  0  0  0  0  0  0  0  0  0  0  0
  139.2560   68.5560  227.0480 C   0  0  0  0  0  0  0  0  0  0  0  0
  140.4210   69.2290  227.3960 C   0  0  0  0  0  0  0  0  0  0  0  0
  140.8880   70.3040  226.6390 C   0  0  0  0  0  0  0  0  0  0  0  0
  140.1990   70.7350  225.5050 C   0  0  0  0  0  0  0  0  0  0  0  0
  140.6980   71.8810  224.7020 C   0  0  0  0  0  0  0  0  0  0  0  0
  141.8370   71.8810  221.3880 N   0  0  0  0  0  0  0  0  0  0  0  0
  144.5860   71.2300  220.9050 H   0  0  0  0  0  0  0  0  0  0  0  0
  145.3291   71.2146  217.9821 H   0  0  0  0  0  0  0  0  0  0  0  0
  146.4278   70.9530  219.4245 H   0  0  0  0  0  0  0  0  0  0  0  0
  147.1077   69.0146  220.0299 H   0  0  0  0  0  0  0  0  0  0  0  0
  147.0063   66.5247  219.8550 H   0  0  0  0  0  0  0  0  0  0  0  0
  143.5013   66.7989  217.5070 H   0  0  0  0  0  0  0  0  0  0  0  0
  143.5188   69.2720  217.6277 H   0  0  0  0  0  0  0  0  0  0  0  0
  142.6143   74.6430  219.7041 H   0  0  0  0  0  0  0  0  0  0  0  0
  141.8413   76.3817  219.5447 H   0  0  0  0  0  0  0  0  0  0  0  0
  140.0068   76.2786  219.6393 H   0  0  0  0  0  0  0  0  0  0  0  0
  141.4526   78.5338  219.3798 H   0  0  0  0  0  0  0  0  0  0  0  0
  139.7552   78.3412  220.0737 H   0  0  0  0  0  0  0  0  0  0  0  0
  141.6568   80.6080  220.5112 H   0  0  0  0  0  0  0  0  0  0  0  0
  142.3699   81.7120  222.6161 H   0  0  0  0  0  0  0  0  0  0  0  0
  142.3593   80.4363  224.7595 H   0  0  0  0  0  0  0  0  0  0  0  0
  141.6244   78.0585  224.7465 H   0  0  0  0  0  0  0  0  0  0  0  0
  141.4014   76.1052  223.4313 H   0  0  0  0  0  0  0  0  0  0  0  0
  139.7407   76.6160  222.8903 H   0  0  0  0  0  0  0  0  0  0  0  0
  138.9968   70.8601  221.9201 H   0  0  0  0  0  0  0  0  0  0  0  0
  139.9386   69.6263  222.7960 H   0  0  0  0  0  0  0  0  0  0  0  0
  137.8731   71.5103  224.1297 H   0  0  0  0  0  0  0  0  0  0  0  0
  137.4936   69.8607  223.6667 H   0  0  0  0  0  0  0  0  0  0  0  0
  137.6469   68.4701  225.6259 H   0  0  0  0  0  0  0  0  0  0  0  0
  138.8903   67.7096  227.6479 H   0  0  0  0  0  0  0  0  0  0  0  0
  140.9851   68.9084  228.2842 H   0  0  0  0  0  0  0  0  0  0  0  0
  141.8122   70.8188  226.9405 H   0  0  0  0  0  0  0  0  0  0  0  0
  140.2137   72.8107  225.0352 H   0  0  0  0  0  0  0  0  0  0  0  0
  141.7852   71.9932  224.8260 H   0  0  0  0  0  0  0  0  0  0  0  0
  1  2  2  0
  2  3  1  0
  3  4  1  0
  4  5  1  0
  5  6  2  0
  6  7  1  0
  7  8  2  0
  8  9  1  0
  9 10  2  0
  2 11  1  0
 11 12  2  0
 12 13  1  0
 13 14  1  0
 14 15  1  0
 15 16  1  0
 16 17  1  0
 17 18  2  0
 18 19  1  0
 19 20  2  0
 20 21  1  0
 21 22  2  0
 22 23  1  0
 13 24  2  0
 24 25  1  0
 25 26  1  0
 26 27  1  0
 27 28  1  0
 28 29  1  0
 29 30  2  0
 30 31  1  0
 31 32  2  0
 32 33  1  0
 33 34  2  0
 34 35  1  0
 25 36  2  0
 10  5  1  0
 36 11  1  0
 23 14  1  0
 35 26  1  0
 22 17  1  0
 34 29  1  0
  3 37  1  0
  4 38  1  0
  4 39  1  0
  6 40  1  0
  7 41  1  0
  9 42  1  0
 10 43  1  0
 12 44  1  0
 15 45  1  0
 15 46  1  0
 16 47  1  0
 16 48  1  0
 18 49  1  0
 19 50  1  0
 20 51  1  0
 21 52  1  0
 23 53  1  0
 23 54  1  0
 27 55  1  0
 27 56  1  0
 28 57  1  0
 28 58  1  0
 30 59  1  0
 31 60  1  0
 32 61  1  0
 33 62  1  0
 35 63  1  0
 35 64  1  0
M  END
>  <smiles>  (40) 
O=C(NCc1ccncc1)c1cc(N2CCc3ccccc3C2)nc(N2CCc3ccccc3C2)n1

>  <score_type>  (40) 
oracle

>  <origin>  (40) 
autodockgpu

>  <m_score__min__energy>  (40) 
-10.279999999999999

>  <m_primary>  (40) 
energy

>  <rmsd>  (40) 
10.965228926786628

>  <m_score__min__rmsd>  (40) 
10.965228926786628

>  <meeko>  (40) 
{"free_energy": -9.97, "intermolecular_energy": -11.46, "internal_energy": -1.02, "cluster_size": 19, "cluster_id": 2, "rank_in_cluster": 8}

>  <energy>  (40) 
-9.81

>  <cluster_rmsd>  (40) 
0.75

>  <cluster>  (40) 
2

$$$$

     RDKit          3D

 64 69  0  0  0  0  0  0  0  0999 V2000
  140.5810   76.0420  220.4430 O   0  0  0  0  0  0  0  0  0  0  0  0
  140.1840   75.4040  221.4510 C   0  0  0  0  0  0  0  0  0  0  0  0
  139.3790   76.0170  222.4370 N   0  0  0  0  0  0  0  0  0  0  0  0
  138.9330   77.3790  222.4200 C   0  0  0  0  0  0  0  0  0  0  0  0
  139.9630   78.3610  222.8520 C   0  0  0  0  0  0  0  0  0  0  0  0
  139.5240   79.6730  223.0160 C   0  0  0  0  0  0  0  0  0  0  0  0
  140.4430   80.6400  223.4150 C   0  0  0  0  0  0  0  0  0  0  0  0
  141.7310   80.3150  223.6360 N   0  0  0  0  0  0  0  0  0  0  0  0
  142.1360   79.0320  223.4700 C   0  0  0  0  0  0  0  0  0  0  0  0
  141.2810   78.0240  223.0780 C   0  0  0  0  0  0  0  0  0  0  0  0
  140.5710   73.9860  221.5960 C   0  0  0  0  0  0  0  0  0  0  0  0
  141.3310   73.3830  220.6150 C   0  0  0  0  0  0  0  0  0  0  0  0
  141.7160   72.0570  220.6950 C   0  0  0  0  0  0  0  0  0  0  0  0
  142.5010   71.4420  219.6810 N   0  0  0  0  0  0  0  0  0  0  0  0
  141.9860   71.4620  218.3340 C   0  0  0  0  0  0  0  0  0  0  0  0
  142.7490   70.6440  217.3550 C   0  0  0  0  0  0  0  0  0  0  0  0
  143.6140   69.6170  217.9280 C   0  0  0  0  0  0  0  0  0  0  0  0
  143.9600   68.5240  217.1620 C   0  0  0  0  0  0  0  0  0  0  0  0
  144.7840   67.5210  217.6650 C   0  0  0  0  0  0  0  0  0  0  0  0
  145.2730   67.6100  218.9570 C   0  0  0  0  0  0  0  0  0  0  0  0
  144.9270   68.7040  219.7230 C   0  0  0  0  0  0  0  0  0  0  0  0
  144.1120   69.6810  219.2040 C   0  0  0  0  0  0  0  0  0  0  0  0
  143.7640   70.8330  220.0550 C   0  0  0  0  0  0  0  0  0  0  0  0
  141.3070   71.3800  221.7890 N   0  0  0  0  0  0  0  0  0  0  0  0
  140.5660   71.9510  222.7580 C   0  0  0  0  0  0  0  0  0  0  0  0
  140.1870   71.1370  223.8670 N   0  0  0  0  0  0  0  0  0  0  0  0
  139.5770   69.8470  223.5990 C   0  0  0  0  0  0  0  0  0  0  0  0
  138.5400   69.5860  224.7030 C   0  0  0  0  0  0  0  0  0  0  0  0
  139.3730   69.4750  225.9550 C   0  0  0  0  0  0  0  0  0  0  0  0
  139.2210   68.4170  226.8210 C   0  0  0  0  0  0  0  0  0  0  0  0
  140.0000   68.3350  227.9540 C   0  0  0  0  0  0  0  0  0  0  0  0
  140.9280   69.3440  228.1850 C   0  0  0  0  0  0  0  0  0  0  0  0
  141.0680   70.4110  227.2970 C   0  0  0  0  0  0  0  0  0  0  0  0
  140.2810   70.4970  226.1470 C   0  0  0  0  0  0  0  0  0  0  0  0
  140.4330   71.6360  225.2060 C   0  0  0  0  0  0  0  0  0  0  0  0
  140.2040   73.2480  222.6530 N   0  0  0  0  0  0  0  0  0  0  0  0
  139.0940   75.3930  223.2530 H   0  0  0  0  0  0  0  0  0  0  0  0
  138.6262   77.6292  221.3937 H   0  0  0  0  0  0  0  0  0  0  0  0
  138.1049   77.4505  223.1405 H   0  0  0  0  0  0  0  0  0  0  0  0
  138.4725   79.9396  222.8339 H   0  0  0  0  0  0  0  0  0  0  0  0
  140.1133   81.6806  223.5511 H   0  0  0  0  0  0  0  0  0  0  0  0
  143.1916   78.7847  223.6560 H   0  0  0  0  0  0  0  0  0  0  0  0
  141.6364   76.9908  222.9504 H   0  0  0  0  0  0  0  0  0  0  0  0
  141.6405   73.9757  219.7415 H   0  0  0  0  0  0  0  0  0  0  0  0
  140.9521   71.0872  218.3589 H   0  0  0  0  0  0  0  0  0  0  0  0
  142.0660   72.5040  217.9909 H   0  0  0  0  0  0  0  0  0  0  0  0
  142.0250   70.1459  216.6934 H   0  0  0  0  0  0  0  0  0  0  0  0
  143.4186   71.3449  216.8350 H   0  0  0  0  0  0  0  0  0  0  0  0
  143.5776   68.4430  216.1338 H   0  0  0  0  0  0  0  0  0  0  0  0
  145.0465   66.6578  217.0358 H   0  0  0  0  0  0  0  0  0  0  0  0
  145.9249   66.8236  219.3651 H   0  0  0  0  0  0  0  0  0  0  0  0
  145.3046   68.7944  220.7522 H   0  0  0  0  0  0  0  0  0  0  0  0
  143.6953   70.4921  221.0986 H   0  0  0  0  0  0  0  0  0  0  0  0
  144.5504   71.5914  219.9268 H   0  0  0  0  0  0  0  0  0  0  0  0
  139.0831   69.8624  222.6163 H   0  0  0  0  0  0  0  0  0  0  0  0
  140.3389   69.0536  223.5887 H   0  0  0  0  0  0  0  0  0  0  0  0
  137.8280   70.4211  224.7781 H   0  0  0  0  0  0  0  0  0  0  0  0
  137.9319   68.6890  224.5140 H   0  0  0  0  0  0  0  0  0  0  0  0
  138.4765   67.6356  226.6084 H   0  0  0  0  0  0  0  0  0  0  0  0
  139.8909   67.4951  228.6560 H   0  0  0  0  0  0  0  0  0  0  0  0
  141.5623   69.3004  229.0826 H   0  0  0  0  0  0  0  0  0  0  0  0
  141.8095   71.1962  227.5061 H   0  0  0  0  0  0  0  0  0  0  0  0
  139.7062   72.4244  225.4515 H   0  0  0  0  0  0  0  0  0  0  0  0
  141.4440   72.0634  225.2783 H   0  0  0  0  0  0  0  0  0  0  0  0
  1  2  2  0
  2  3  1  0
  3  4  1  0
  4  5  1  0
  5  6  2  0
  6  7  1  0
  7  8  2  0
  8  9  1  0
  9 10  2  0
  2 11  1  0
 11 12  2  0
 12 13  1  0
 13 14  1  0
 14 15  1  0
 15 16  1  0
 16 17  1  0
 17 18  2  0
 18 19  1  0
 19 20  2  0
 20 21  1  0
 21 22  2  0
 22 23  1  0
 13 24  2  0
 24 25  1  0
 25 26  1  0
 26 27  1  0
 27 28  1  0
 28 29  1  0
 29 30  2  0
 30 31  1  0
 31 32  2  0
 32 33  1  0
 33 34  2  0
 34 35  1  0
 25 36  2  0
 10  5  1  0
 36 11  1  0
 23 14  1  0
 35 26  1  0
 22 17  1  0
 34 29  1  0
  3 37  1  0
  4 38  1  0
  4 39  1  0
  6 40  1  0
  7 41  1  0
  9 42  1  0
 10 43  1  0
 12 44  1  0
 15 45  1  0
 15 46  1  0
 16 47  1  0
 16 48  1  0
 18 49  1  0
 19 50  1  0
 20 51  1  0
 21 52  1  0
 23 53  1  0
 23 54  1  0
 27 55  1  0
 27 56  1  0
 28 57  1  0
 28 58  1  0
 30 59  1  0
 31 60  1  0
 32 61  1  0
 33 62  1  0
 35 63  1  0
 35 64  1  0
M  END
>  <smiles>  (41) 
O=C(NCc1ccncc1)c1cc(N2CCc3ccccc3C2)nc(N2CCc3ccccc3C2)n1

>  <score_type>  (41) 
oracle

>  <origin>  (41) 
autodockgpu

>  <m_score__min__energy>  (41) 
-10.279999999999999

>  <m_primary>  (41) 
energy

>  <rmsd>  (41) 
4.100648242435754

>  <m_score__min__rmsd>  (41) 
4.100648242435754

>  <meeko>  (41) 
{"free_energy": -9.64, "intermolecular_energy": -11.14, "internal_energy": -1.27, "cluster_size": 27, "cluster_id": 1, "rank_in_cluster": 22}

>  <energy>  (41) 
-9.81

>  <cluster_rmsd>  (41) 
0.88

>  <cluster>  (41) 
2

$$$$

     RDKit          3D

 64 69  0  0  0  0  0  0  0  0999 V2000
  145.3530   72.7900  219.7790 O   0  0  0  0  0  0  0  0  0  0  0  0
  144.2070   72.2990  219.6120 C   0  0  0  0  0  0  0  0  0  0  0  0
  143.9750   71.2870  218.6550 N   0  0  0  0  0  0  0  0  0  0  0  0
  144.9650   70.7150  217.7900 C   0  0  0  0  0  0  0  0  0  0  0  0
  145.3870   69.3420  218.1750 C   0  0  0  0  0  0  0  0  0  0  0  0
  145.9500   68.5710  217.1600 C   0  0  0  0  0  0  0  0  0  0  0  0
  146.3610   67.2740  217.4570 C   0  0  0  0  0  0  0  0  0  0  0  0
  146.2160   66.7740  218.6990 N   0  0  0  0  0  0  0  0  0  0  0  0
  145.6650   67.5420  219.6700 C   0  0  0  0  0  0  0  0  0  0  0  0
  145.2370   68.8340  219.4480 C   0  0  0  0  0  0  0  0  0  0  0  0
  143.0890   72.7980  220.4390 C   0  0  0  0  0  0  0  0  0  0  0  0
  142.7780   74.1420  220.4250 C   0  0  0  0  0  0  0  0  0  0  0  0
  141.7470   74.6660  221.1850 C   0  0  0  0  0  0  0  0  0  0  0  0
  141.4310   76.0520  221.1650 N   0  0  0  0  0  0  0  0  0  0  0  0
  141.5910   76.7560  219.9180 C   0  0  0  0  0  0  0  0  0  0  0  0
  141.4300   78.2320  220.0010 C   0  0  0  0  0  0  0  0  0  0  0  0
  141.5670   78.8080  221.3350 C   0  0  0  0  0  0  0  0  0  0  0  0
  141.9270   80.1330  221.4620 C   0  0  0  0  0  0  0  0  0  0  0  0
  142.0680   80.7260  222.7140 C   0  0  0  0  0  0  0  0  0  0  0  0
  141.8460   79.9830  223.8610 C   0  0  0  0  0  0  0  0  0  0  0  0
  141.4870   78.6570  223.7330 C   0  0  0  0  0  0  0  0  0  0  0  0
  141.3540   78.0950  222.4870 C   0  0  0  0  0  0  0  0  0  0  0  0
  140.9690   76.6750  222.3920 C   0  0  0  0  0  0  0  0  0  0  0  0
  141.0580   73.7880  221.9440 N   0  0  0  0  0  0  0  0  0  0  0  0
  141.3450   72.4730  221.9700 C   0  0  0  0  0  0  0  0  0  0  0  0
  140.5530   71.6380  222.8140 N   0  0  0  0  0  0  0  0  0  0  0  0
  139.6190   70.7170  222.1900 C   0  0  0  0  0  0  0  0  0  0  0  0
  138.3860   70.6170  223.1030 C   0  0  0  0  0  0  0  0  0  0  0  0
  138.9250   69.9810  224.3600 C   0  0  0  0  0  0  0  0  0  0  0  0
  138.3070   68.8910  224.9290 C   0  0  0  0  0  0  0  0  0  0  0  0
  138.8240   68.3250  226.0730 C   0  0  0  0  0  0  0  0  0  0  0  0
  139.9710   68.8850  226.6200 C   0  0  0  0  0  0  0  0  0  0  0  0
  140.5850   69.9920  226.0320 C   0  0  0  0  0  0  0  0  0  0  0  0
  140.0650   70.5680  224.8720 C   0  0  0  0  0  0  0  0  0  0  0  0
  140.7210   71.7470  224.2490 C   0  0  0  0  0  0  0  0  0  0  0  0
  142.3580   71.9890  221.2180 N   0  0  0  0  0  0  0  0  0  0  0  0
  142.9710   70.9350  218.5890 H   0  0  0  0  0  0  0  0  0  0  0  0
  144.5528   70.6767  216.7709 H   0  0  0  0  0  0  0  0  0  0  0  0
  145.8576   71.3536  217.8634 H   0  0  0  0  0  0  0  0  0  0  0  0
  146.0674   68.9785  216.1450 H   0  0  0  0  0  0  0  0  0  0  0  0
  146.8089   66.6512  216.6686 H   0  0  0  0  0  0  0  0  0  0  0  0
  145.5544   67.1167  220.6784 H   0  0  0  0  0  0  0  0  0  0  0  0
  144.7933   69.4357  220.2549 H   0  0  0  0  0  0  0  0  0  0  0  0
  143.3683   74.8186  219.7896 H   0  0  0  0  0  0  0  0  0  0  0  0
  142.6000   76.5444  219.5344 H   0  0  0  0  0  0  0  0  0  0  0  0
  140.7871   76.3970  219.2586 H   0  0  0  0  0  0  0  0  0  0  0  0
  142.1913   78.6922  219.3540 H   0  0  0  0  0  0  0  0  0  0  0  0
  140.3959   78.4396  219.6888 H   0  0  0  0  0  0  0  0  0  0  0  0
  142.1061   80.7327  220.5574 H   0  0  0  0  0  0  0  0  0  0  0  0
  142.3558   81.7848  222.7918 H   0  0  0  0  0  0  0  0  0  0  0  0
  141.9538   80.4411  224.8552 H   0  0  0  0  0  0  0  0  0  0  0  0
  141.3068   78.0483  224.6314 H   0  0  0  0  0  0  0  0  0  0  0  0
  141.4025   76.1346  223.2464 H   0  0  0  0  0  0  0  0  0  0  0  0
  139.8701   76.6269  222.3967 H   0  0  0  0  0  0  0  0  0  0  0  0
  139.3234   71.0955  221.2004 H   0  0  0  0  0  0  0  0  0  0  0  0
  140.0821   69.7283  222.0560 H   0  0  0  0  0  0  0  0  0  0  0  0
  137.9718   71.6140  223.3139 H   0  0  0  0  0  0  0  0  0  0  0  0
  137.5654   70.0407  222.6508 H   0  0  0  0  0  0  0  0  0  0  0  0
  137.3997   68.4717  224.4698 H   0  0  0  0  0  0  0  0  0  0  0  0
  138.3419   67.4537  226.5404 H   0  0  0  0  0  0  0  0  0  0  0  0
  140.4032   68.4486  227.5326 H   0  0  0  0  0  0  0  0  0  0  0  0
  141.4911   70.4162  226.4891 H   0  0  0  0  0  0  0  0  0  0  0  0
  140.2505   72.6727  224.6119 H   0  0  0  0  0  0  0  0  0  0  0  0
  141.7890   71.7763  224.5105 H   0  0  0  0  0  0  0  0  0  0  0  0
  1  2  2  0
  2  3  1  0
  3  4  1  0
  4  5  1  0
  5  6  2  0
  6  7  1  0
  7  8  2  0
  8  9  1  0
  9 10  2  0
  2 11  1  0
 11 12  2  0
 12 13  1  0
 13 14  1  0
 14 15  1  0
 15 16  1  0
 16 17  1  0
 17 18  2  0
 18 19  1  0
 19 20  2  0
 20 21  1  0
 21 22  2  0
 22 23  1  0
 13 24  2  0
 24 25  1  0
 25 26  1  0
 26 27  1  0
 27 28  1  0
 28 29  1  0
 29 30  2  0
 30 31  1  0
 31 32  2  0
 32 33  1  0
 33 34  2  0
 34 35  1  0
 25 36  2  0
 10  5  1  0
 36 11  1  0
 23 14  1  0
 35 26  1  0
 22 17  1  0
 34 29  1  0
  3 37  1  0
  4 38  1  0
  4 39  1  0
  6 40  1  0
  7 41  1  0
  9 42  1  0
 10 43  1  0
 12 44  1  0
 15 45  1  0
 15 46  1  0
 16 47  1  0
 16 48  1  0
 18 49  1  0
 19 50  1  0
 20 51  1  0
 21 52  1  0
 23 53  1  0
 23 54  1  0
 27 55  1  0
 27 56  1  0
 28 57  1  0
 28 58  1  0
 30 59  1  0
 31 60  1  0
 32 61  1  0
 33 62  1  0
 35 63  1  0
 35 64  1  0
M  END
>  <smiles>  (42) 
O=C(NCc1ccncc1)c1cc(N2CCc3ccccc3C2)nc(N2CCc3ccccc3C2)n1

>  <score_type>  (42) 
oracle

>  <origin>  (42) 
autodockgpu

>  <m_score__min__energy>  (42) 
-10.279999999999999

>  <m_primary>  (42) 
energy

>  <rmsd>  (42) 
11.115312814588274

>  <m_score__min__rmsd>  (42) 
11.115312814588274

>  <meeko>  (42) 
{"free_energy": -9.81, "intermolecular_energy": -11.3, "internal_energy": -1.03, "cluster_size": 19, "cluster_id": 2, "rank_in_cluster": 14}

>  <energy>  (42) 
-9.75

>  <cluster_rmsd>  (42) 
0.52

>  <cluster>  (42) 
2

$$$$

     RDKit          3D

 64 69  0  0  0  0  0  0  0  0999 V2000
  143.9330   73.1830  218.3940 O   0  0  0  0  0  0  0  0  0  0  0  0
  143.7610   72.5300  219.4560 C   0  0  0  0  0  0  0  0  0  0  0  0
  144.5360   71.3860  219.7470 N   0  0  0  0  0  0  0  0  0  0  0  0
  145.5680   70.8440  218.9130 C   0  0  0  0  0  0  0  0  0  0  0  0
  145.5650   69.3590  218.8280 C   0  0  0  0  0  0  0  0  0  0  0  0
  144.7400   68.7000  219.7370 C   0  0  0  0  0  0  0  0  0  0  0  0
  144.6970   67.3080  219.7100 C   0  0  0  0  0  0  0  0  0  0  0  0
  145.4390   66.6140  218.8260 N   0  0  0  0  0  0  0  0  0  0  0  0
  146.2340   67.2770  217.9520 C   0  0  0  0  0  0  0  0  0  0  0  0
  146.3250   68.6520  217.9210 C   0  0  0  0  0  0  0  0  0  0  0  0
  142.7260   72.9780  220.4090 C   0  0  0  0  0  0  0  0  0  0  0  0
  142.3810   74.3130  220.4630 C   0  0  0  0  0  0  0  0  0  0  0  0
  141.4240   74.7910  221.3400 C   0  0  0  0  0  0  0  0  0  0  0  0
  141.0720   76.1670  221.3900 N   0  0  0  0  0  0  0  0  0  0  0  0
  140.8610   76.8480  220.1360 C   0  0  0  0  0  0  0  0  0  0  0  0
  140.6840   78.3210  220.2400 C   0  0  0  0  0  0  0  0  0  0  0  0
  141.1640   78.9290  221.4770 C   0  0  0  0  0  0  0  0  0  0  0  0
  141.5040   80.2660  221.4830 C   0  0  0  0  0  0  0  0  0  0  0  0
  141.9640   80.8890  222.6390 C   0  0  0  0  0  0  0  0  0  0  0  0
  142.0890   80.1660  223.8130 C   0  0  0  0  0  0  0  0  0  0  0  0
  141.7490   78.8280  223.8070 C   0  0  0  0  0  0  0  0  0  0  0  0
  141.2970   78.2350  222.6530 C   0  0  0  0  0  0  0  0  0  0  0  0
  140.9450   76.8040  222.6870 C   0  0  0  0  0  0  0  0  0  0  0  0
  140.8430   73.8770  222.1460 N   0  0  0  0  0  0  0  0  0  0  0  0
  141.1650   72.5700  222.1090 C   0  0  0  0  0  0  0  0  0  0  0  0
  140.4890   71.6950  223.0110 N   0  0  0  0  0  0  0  0  0  0  0  0
  139.6210   70.6700  222.4560 C   0  0  0  0  0  0  0  0  0  0  0  0
  138.4410   70.4890  223.4240 C   0  0  0  0  0  0  0  0  0  0  0  0
  139.0880   69.9470  224.6750 C   0  0  0  0  0  0  0  0  0  0  0  0
  138.5990   68.8250  225.3030 C   0  0  0  0  0  0  0  0  0  0  0  0
  139.2120   68.3480  226.4390 C   0  0  0  0  0  0  0  0  0  0  0  0
  140.3230   69.0300  226.9190 C   0  0  0  0  0  0  0  0  0  0  0  0
  140.8060   70.1680  226.2720 C   0  0  0  0  0  0  0  0  0  0  0  0
  140.1880   70.6550  225.1190 C   0  0  0  0  0  0  0  0  0  0  0  0
  140.7050   71.8670  224.4340 C   0  0  0  0  0  0  0  0  0  0  0  0
  142.1040   72.1320  221.2410 N   0  0  0  0  0  0  0  0  0  0  0  0
  144.3160   70.9020  220.6710 H   0  0  0  0  0  0  0  0  0  0  0  0
  145.4393   71.2481  217.8980 H   0  0  0  0  0  0  0  0  0  0  0  0
  146.5269   71.1330  219.3678 H   0  0  0  0  0  0  0  0  0  0  0  0
  144.1356   69.2668  220.4605 H   0  0  0  0  0  0  0  0  0  0  0  0
  144.0500   66.7698  220.4184 H   0  0  0  0  0  0  0  0  0  0  0  0
  146.8322   66.6933  217.2368 H   0  0  0  0  0  0  0  0  0  0  0  0
  146.9787   69.1652  217.2004 H   0  0  0  0  0  0  0  0  0  0  0  0
  142.8834   75.0202  219.7866 H   0  0  0  0  0  0  0  0  0  0  0  0
  141.7315   76.6540  219.4922 H   0  0  0  0  0  0  0  0  0  0  0  0
  139.9182   76.4542  219.7284 H   0  0  0  0  0  0  0  0  0  0  0  0
  141.2242   78.7865  219.4025 H   0  0  0  0  0  0  0  0  0  0  0  0
  139.5981   78.4952  220.2212 H   0  0  0  0  0  0  0  0  0  0  0  0
  141.4096   80.8508  220.5561 H   0  0  0  0  0  0  0  0  0  0  0  0
  142.2285   81.9566  222.6201 H   0  0  0  0  0  0  0  0  0  0  0  0
  142.4521   80.6482  224.7326 H   0  0  0  0  0  0  0  0  0  0  0  0
  141.8402   78.2349  224.7289 H   0  0  0  0  0  0  0  0  0  0  0  0
  141.6127   76.2938  223.3969 H   0  0  0  0  0  0  0  0  0  0  0  0
  139.8915   76.7274  222.9939 H   0  0  0  0  0  0  0  0  0  0  0  0
  139.2519   70.9848  221.4688 H   0  0  0  0  0  0  0  0  0  0  0  0
  140.1688   69.7242  222.3323 H   0  0  0  0  0  0  0  0  0  0  0  0
  137.9454   71.4506  223.6232 H   0  0  0  0  0  0  0  0  0  0  0  0
  137.6592   69.8257  223.0255 H   0  0  0  0  0  0  0  0  0  0  0  0
  137.7169   68.3085  224.8966 H   0  0  0  0  0  0  0  0  0  0  0  0
  138.8330   67.4520  226.9524 H   0  0  0  0  0  0  0  0  0  0  0  0
  140.8307   68.6667  227.8247 H   0  0  0  0  0  0  0  0  0  0  0  0
  141.6864   70.6889  226.6764 H   0  0  0  0  0  0  0  0  0  0  0  0
  140.1657   72.7572  224.7899 H   0  0  0  0  0  0  0  0  0  0  0  0
  141.7755   72.0030  224.6475 H   0  0  0  0  0  0  0  0  0  0  0  0
  1  2  2  0
  2  3  1  0
  3  4  1  0
  4  5  1  0
  5  6  2  0
  6  7  1  0
  7  8  2  0
  8  9  1  0
  9 10  2  0
  2 11  1  0
 11 12  2  0
 12 13  1  0
 13 14  1  0
 14 15  1  0
 15 16  1  0
 16 17  1  0
 17 18  2  0
 18 19  1  0
 19 20  2  0
 20 21  1  0
 21 22  2  0
 22 23  1  0
 13 24  2  0
 24 25  1  0
 25 26  1  0
 26 27  1  0
 27 28  1  0
 28 29  1  0
 29 30  2  0
 30 31  1  0
 31 32  2  0
 32 33  1  0
 33 34  2  0
 34 35  1  0
 25 36  2  0
 10  5  1  0
 36 11  1  0
 23 14  1  0
 35 26  1  0
 22 17  1  0
 34 29  1  0
  3 37  1  0
  4 38  1  0
  4 39  1  0
  6 40  1  0
  7 41  1  0
  9 42  1  0
 10 43  1  0
 12 44  1  0
 15 45  1  0
 15 46  1  0
 16 47  1  0
 16 48  1  0
 18 49  1  0
 19 50  1  0
 20 51  1  0
 21 52  1  0
 23 53  1  0
 23 54  1  0
 27 55  1  0
 27 56  1  0
 28 57  1  0
 28 58  1  0
 30 59  1  0
 31 60  1  0
 32 61  1  0
 33 62  1  0
 35 63  1  0
 35 64  1  0
M  END
>  <smiles>  (43) 
O=C(NCc1ccncc1)c1cc(N2CCc3ccccc3C2)nc(N2CCc3ccccc3C2)n1

>  <score_type>  (43) 
oracle

>  <origin>  (43) 
autodockgpu

>  <m_score__min__energy>  (43) 
-10.279999999999999

>  <m_primary>  (43) 
energy

>  <rmsd>  (43) 
10.968093327404654

>  <m_score__min__rmsd>  (43) 
10.968093327404654

>  <meeko>  (43) 
{"free_energy": -9.94, "intermolecular_energy": -11.43, "internal_energy": -1.14, "cluster_size": 19, "cluster_id": 2, "rank_in_cluster": 10}

>  <energy>  (43) 
-9.75

>  <cluster_rmsd>  (43) 
0.93

>  <cluster>  (43) 
2

$$$$

     RDKit          3D

 64 69  0  0  0  0  0  0  0  0999 V2000
  135.6630   74.2480  221.4990 O   0  0  0  0  0  0  0  0  0  0  0  0
  136.6240   73.9200  222.2410 C   0  0  0  0  0  0  0  0  0  0  0  0
  136.4400   73.0530  223.3410 N   0  0  0  0  0  0  0  0  0  0  0  0
  135.1950   72.4620  223.7360 C   0  0  0  0  0  0  0  0  0  0  0  0
  134.5220   73.1610  224.8640 C   0  0  0  0  0  0  0  0  0  0  0  0
  133.7520   72.3600  225.7030 C   0  0  0  0  0  0  0  0  0  0  0  0
  133.0930   72.9570  226.7760 C   0  0  0  0  0  0  0  0  0  0  0  0
  133.1970   74.2820  226.9950 N   0  0  0  0  0  0  0  0  0  0  0  0
  133.9520   75.0410  226.1640 C   0  0  0  0  0  0  0  0  0  0  0  0
  134.6320   74.5170  225.0850 C   0  0  0  0  0  0  0  0  0  0  0  0
  137.9670   74.4580  221.9470 C   0  0  0  0  0  0  0  0  0  0  0  0
  138.8980   73.6590  221.3150 C   0  0  0  0  0  0  0  0  0  0  0  0
  140.1730   74.1080  221.0210 C   0  0  0  0  0  0  0  0  0  0  0  0
  141.1280   73.2800  220.3680 N   0  0  0  0  0  0  0  0  0  0  0  0
  140.9220   71.8540  220.4200 C   0  0  0  0  0  0  0  0  0  0  0  0
  142.0430   71.0350  219.8890 C   0  0  0  0  0  0  0  0  0  0  0  0
  143.3320   71.7130  219.7980 C   0  0  0  0  0  0  0  0  0  0  0  0
  144.4890   70.9620  219.8050 C   0  0  0  0  0  0  0  0  0  0  0  0
  145.7410   71.5650  219.7180 C   0  0  0  0  0  0  0  0  0  0  0  0
  145.8420   72.9420  219.6220 C   0  0  0  0  0  0  0  0  0  0  0  0
  144.6840   73.6930  219.6150 C   0  0  0  0  0  0  0  0  0  0  0  0
  143.4600   73.0750  219.7020 C   0  0  0  0  0  0  0  0  0  0  0  0
  142.2460   73.9120  219.6930 C   0  0  0  0  0  0  0  0  0  0  0  0
  140.4610   75.3750  221.3870 N   0  0  0  0  0  0  0  0  0  0  0  0
  139.5670   76.1710  222.0040 C   0  0  0  0  0  0  0  0  0  0  0  0
  139.9820   77.4920  222.3490 N   0  0  0  0  0  0  0  0  0  0  0  0
  139.0620   78.3280  223.1000 C   0  0  0  0  0  0  0  0  0  0  0  0
  139.2600   79.7770  222.6220 C   0  0  0  0  0  0  0  0  0  0  0  0
  140.6680   80.1030  223.0520 C   0  0  0  0  0  0  0  0  0  0  0  0
  140.9530   81.2540  223.7500 C   0  0  0  0  0  0  0  0  0  0  0  0
  142.2460   81.5250  224.1360 C   0  0  0  0  0  0  0  0  0  0  0  0
  143.2350   80.6090  223.7990 C   0  0  0  0  0  0  0  0  0  0  0  0
  142.9310   79.4470  223.0880 C   0  0  0  0  0  0  0  0  0  0  0  0
  141.6200   79.1690  222.6960 C   0  0  0  0  0  0  0  0  0  0  0  0
  141.3010   77.9310  221.9390 C   0  0  0  0  0  0  0  0  0  0  0  0
  138.3280   75.7050  222.2790 N   0  0  0  0  0  0  0  0  0  0  0  0
  137.3150   72.8350  223.9080 H   0  0  0  0  0  0  0  0  0  0  0  0
  134.5174   72.4723  222.8696 H   0  0  0  0  0  0  0  0  0  0  0  0
  135.4234   71.4439  224.0844 H   0  0  0  0  0  0  0  0  0  0  0  0
  133.6656   71.2783  225.5226 H   0  0  0  0  0  0  0  0  0  0  0  0
  132.4817   72.3400  227.4510 H   0  0  0  0  0  0  0  0  0  0  0  0
  134.0254   76.1212  226.3586 H   0  0  0  0  0  0  0  0  0  0  0  0
  135.2385   75.1561  224.4264 H   0  0  0  0  0  0  0  0  0  0  0  0
  138.6173   72.6326  221.0362 H   0  0  0  0  0  0  0  0  0  0  0  0
  140.7612   71.5711  221.4708 H   0  0  0  0  0  0  0  0  0  0  0  0
  140.0572   71.6457  219.7729 H   0  0  0  0  0  0  0  0  0  0  0  0
  142.1656   70.1621  220.5471 H   0  0  0  0  0  0  0  0  0  0  0  0
  141.7648   70.7782  218.8562 H   0  0  0  0  0  0  0  0  0  0  0  0
  144.4213   69.8667  219.8807 H   0  0  0  0  0  0  0  0  0  0  0  0
  146.6506   70.9465  219.7256 H   0  0  0  0  0  0  0  0  0  0  0  0
  146.8261   73.4285  219.5526 H   0  0  0  0  0  0  0  0  0  0  0  0
  144.7412   74.7889  219.5396 H   0  0  0  0  0  0  0  0  0  0  0  0
  142.4702   74.8634  220.1976 H   0  0  0  0  0  0  0  0  0  0  0  0
  141.9566   74.0681  218.6433 H   0  0  0  0  0  0  0  0  0  0  0  0
  138.0261   78.0089  222.9129 H   0  0  0  0  0  0  0  0  0  0  0  0
  139.2563   78.2458  224.1796 H   0  0  0  0  0  0  0  0  0  0  0  0
  139.1568   79.8476  221.5291 H   0  0  0  0  0  0  0  0  0  0  0  0
  138.5145   80.4702  223.0388 H   0  0  0  0  0  0  0  0  0  0  0  0
  140.1462   81.9587  223.9999 H   0  0  0  0  0  0  0  0  0  0  0  0
  142.4895   82.4404  224.6952 H   0  0  0  0  0  0  0  0  0  0  0  0
  144.2757   80.8030  224.0978 H   0  0  0  0  0  0  0  0  0  0  0  0
  143.7349   78.7408  222.8331 H   0  0  0  0  0  0  0  0  0  0  0  0
  141.3075   78.1399  220.8590 H   0  0  0  0  0  0  0  0  0  0  0  0
  142.0482   77.1503  222.1443 H   0  0  0  0  0  0  0  0  0  0  0  0
  1  2  2  0
  2  3  1  0
  3  4  1  0
  4  5  1  0
  5  6  2  0
  6  7  1  0
  7  8  2  0
  8  9  1  0
  9 10  2  0
  2 11  1  0
 11 12  2  0
 12 13  1  0
 13 14  1  0
 14 15  1  0
 15 16  1  0
 16 17  1  0
 17 18  2  0
 18 19  1  0
 19 20  2  0
 20 21  1  0
 21 22  2  0
 22 23  1  0
 13 24  2  0
 24 25  1  0
 25 26  1  0
 26 27  1  0
 27 28  1  0
 28 29  1  0
 29 30  2  0
 30 31  1  0
 31 32  2  0
 32 33  1  0
 33 34  2  0
 34 35  1  0
 25 36  2  0
 10  5  1  0
 36 11  1  0
 23 14  1  0
 35 26  1  0
 22 17  1  0
 34 29  1  0
  3 37  1  0
  4 38  1  0
  4 39  1  0
  6 40  1  0
  7 41  1  0
  9 42  1  0
 10 43  1  0
 12 44  1  0
 15 45  1  0
 15 46  1  0
 16 47  1  0
 16 48  1  0
 18 49  1  0
 19 50  1  0
 20 51  1  0
 21 52  1  0
 23 53  1  0
 23 54  1  0
 27 55  1  0
 27 56  1  0
 28 57  1  0
 28 58  1  0
 30 59  1  0
 31 60  1  0
 32 61  1  0
 33 62  1  0
 35 63  1  0
 35 64  1  0
M  END
>  <smiles>  (44) 
O=C(NCc1ccncc1)c1cc(N2CCc3ccccc3C2)nc(N2CCc3ccccc3C2)n1

>  <score_type>  (44) 
oracle

>  <origin>  (44) 
autodockgpu

>  <m_score__min__energy>  (44) 
-10.279999999999999

>  <m_primary>  (44) 
energy

>  <rmsd>  (44) 
8.83128618419417

>  <m_score__min__rmsd>  (44) 
8.83128618419417

>  <meeko>  (44) 
{"free_energy": -9.24, "intermolecular_energy": -10.73, "internal_energy": -0.99, "cluster_size": 1, "cluster_id": 4, "rank_in_cluster": 1}

>  <energy>  (44) 
-9.72

>  <cluster_rmsd>  (44) 
0.69

>  <cluster>  (44) 
2

$$$$

     RDKit          3D

 64 69  0  0  0  0  0  0  0  0999 V2000
  143.2600   72.4700  218.1530 O   0  0  0  0  0  0  0  0  0  0  0  0
  143.4410   72.1960  219.3670 C   0  0  0  0  0  0  0  0  0  0  0  0
  144.5320   71.4020  219.7850 N   0  0  0  0  0  0  0  0  0  0  0  0
  145.5260   70.8310  218.9240 C   0  0  0  0  0  0  0  0  0  0  0  0
  145.4970   69.3460  218.8620 C   0  0  0  0  0  0  0  0  0  0  0  0
  144.5750   68.7200  219.6990 C   0  0  0  0  0  0  0  0  0  0  0  0
  144.5030   67.3290  219.6890 C   0  0  0  0  0  0  0  0  0  0  0  0
  145.3090   66.6040  218.8900 N   0  0  0  0  0  0  0  0  0  0  0  0
  146.1980   67.2350  218.0850 C   0  0  0  0  0  0  0  0  0  0  0  0
  146.3230   68.6070  218.0420 C   0  0  0  0  0  0  0  0  0  0  0  0
  142.4890   72.7210  220.3670 C   0  0  0  0  0  0  0  0  0  0  0  0
  142.1900   74.0670  220.3820 C   0  0  0  0  0  0  0  0  0  0  0  0
  141.3110   74.6150  221.2990 C   0  0  0  0  0  0  0  0  0  0  0  0
  141.0060   76.0040  221.3090 N   0  0  0  0  0  0  0  0  0  0  0  0
  140.9790   76.6910  220.0410 C   0  0  0  0  0  0  0  0  0  0  0  0
  140.8430   78.1690  220.1270 C   0  0  0  0  0  0  0  0  0  0  0  0
  141.1860   78.7600  221.4170 C   0  0  0  0  0  0  0  0  0  0  0  0
  141.5710   80.0830  221.4700 C   0  0  0  0  0  0  0  0  0  0  0  0
  141.9060   80.6910  222.6770 C   0  0  0  0  0  0  0  0  0  0  0  0
  141.8560   79.9650  223.8550 C   0  0  0  0  0  0  0  0  0  0  0  0
  141.4710   78.6410  223.8010 C   0  0  0  0  0  0  0  0  0  0  0  0
  141.1450   78.0630  222.5980 C   0  0  0  0  0  0  0  0  0  0  0  0
  140.7400   76.6460  222.5830 C   0  0  0  0  0  0  0  0  0  0  0  0
  140.7590   73.7580  222.1830 N   0  0  0  0  0  0  0  0  0  0  0  0
  141.0370   72.4400  222.1840 C   0  0  0  0  0  0  0  0  0  0  0  0
  140.3980   71.6290  223.1690 N   0  0  0  0  0  0  0  0  0  0  0  0
  139.4800   70.5960  222.7200 C   0  0  0  0  0  0  0  0  0  0  0  0
  138.3550   70.4910  223.7630 C   0  0  0  0  0  0  0  0  0  0  0  0
  139.0630   70.0020  225.0020 C   0  0  0  0  0  0  0  0  0  0  0  0
  138.5890   68.9260  225.7160 C   0  0  0  0  0  0  0  0  0  0  0  0
  139.2580   68.4960  226.8400 C   0  0  0  0  0  0  0  0  0  0  0  0
  140.4080   69.1780  227.2180 C   0  0  0  0  0  0  0  0  0  0  0  0
  140.8740   70.2690  226.4840 C   0  0  0  0  0  0  0  0  0  0  0  0
  140.1990   70.7080  225.3440 C   0  0  0  0  0  0  0  0  0  0  0  0
  140.6980   71.8710  224.5660 C   0  0  0  0  0  0  0  0  0  0  0  0
  141.9000   71.9330  221.2770 N   0  0  0  0  0  0  0  0  0  0  0  0
  144.5990   71.2260  220.8340 H   0  0  0  0  0  0  0  0  0  0  0  0
  145.3683   71.2220  217.9080 H   0  0  0  0  0  0  0  0  0  0  0  0
  146.5046   71.1113  219.3409 H   0  0  0  0  0  0  0  0  0  0  0  0
  143.9182   69.3118  220.3535 H   0  0  0  0  0  0  0  0  0  0  0  0
  143.7799   66.8170  220.3409 H   0  0  0  0  0  0  0  0  0  0  0  0
  146.8474   66.6265  217.4385 H   0  0  0  0  0  0  0  0  0  0  0  0
  147.0536   69.0935  217.3790 H   0  0  0  0  0  0  0  0  0  0  0  0
  142.6657   74.7262  219.6410 H   0  0  0  0  0  0  0  0  0  0  0  0
  141.9162   76.4653  219.5112 H   0  0  0  0  0  0  0  0  0  0  0  0
  140.0816   76.3309  219.5167 H   0  0  0  0  0  0  0  0  0  0  0  0
  141.5001   78.6142  219.3654 H   0  0  0  0  0  0  0  0  0  0  0  0
  139.7750   78.3824  219.9727 H   0  0  0  0  0  0  0  0  0  0  0  0
  141.6143   80.6696  220.5405 H   0  0  0  0  0  0  0  0  0  0  0  0
  142.2103   81.7479  222.6947 H   0  0  0  0  0  0  0  0  0  0  0  0
  142.1180   80.4343  224.8147 H   0  0  0  0  0  0  0  0  0  0  0  0
  141.4249   78.0459  224.7250 H   0  0  0  0  0  0  0  0  0  0  0  0
  141.2945   76.1126  223.3691 H   0  0  0  0  0  0  0  0  0  0  0  0
  139.6543   76.6075  222.7557 H   0  0  0  0  0  0  0  0  0  0  0  0
  139.0596   70.8673  221.7404 H   0  0  0  0  0  0  0  0  0  0  0  0
  140.0018   69.6333  222.6153 H   0  0  0  0  0  0  0  0  0  0  0  0
  137.8894   71.4721  223.9383 H   0  0  0  0  0  0  0  0  0  0  0  0
  137.5396   69.8242  223.4459 H   0  0  0  0  0  0  0  0  0  0  0  0
  137.6750   68.4088  225.3888 H   0  0  0  0  0  0  0  0  0  0  0  0
  138.8925   67.6371  227.4220 H   0  0  0  0  0  0  0  0  0  0  0  0
  140.9606   68.8520  228.1115 H   0  0  0  0  0  0  0  0  0  0  0  0
  141.7865   70.7907  226.8084 H   0  0  0  0  0  0  0  0  0  0  0  0
  140.1963   72.7901  224.9030 H   0  0  0  0  0  0  0  0  0  0  0  0
  141.7813   71.9950  224.7112 H   0  0  0  0  0  0  0  0  0  0  0  0
  1  2  2  0
  2  3  1  0
  3  4  1  0
  4  5  1  0
  5  6  2  0
  6  7  1  0
  7  8  2  0
  8  9  1  0
  9 10  2  0
  2 11  1  0
 11 12  2  0
 12 13  1  0
 13 14  1  0
 14 15  1  0
 15 16  1  0
 16 17  1  0
 17 18  2  0
 18 19  1  0
 19 20  2  0
 20 21  1  0
 21 22  2  0
 22 23  1  0
 13 24  2  0
 24 25  1  0
 25 26  1  0
 26 27  1  0
 27 28  1  0
 28 29  1  0
 29 30  2  0
 30 31  1  0
 31 32  2  0
 32 33  1  0
 33 34  2  0
 34 35  1  0
 25 36  2  0
 10  5  1  0
 36 11  1  0
 23 14  1  0
 35 26  1  0
 22 17  1  0
 34 29  1  0
  3 37  1  0
  4 38  1  0
  4 39  1  0
  6 40  1  0
  7 41  1  0
  9 42  1  0
 10 43  1  0
 12 44  1  0
 15 45  1  0
 15 46  1  0
 16 47  1  0
 16 48  1  0
 18 49  1  0
 19 50  1  0
 20 51  1  0
 21 52  1  0
 23 53  1  0
 23 54  1  0
 27 55  1  0
 27 56  1  0
 28 57  1  0
 28 58  1  0
 30 59  1  0
 31 60  1  0
 32 61  1  0
 33 62  1  0
 35 63  1  0
 35 64  1  0
M  END
>  <smiles>  (45) 
O=C(NCc1ccncc1)c1cc(N2CCc3ccccc3C2)nc(N2CCc3ccccc3C2)n1

>  <score_type>  (45) 
oracle

>  <origin>  (45) 
autodockgpu

>  <m_score__min__energy>  (45) 
-10.279999999999999

>  <m_primary>  (45) 
energy

>  <rmsd>  (45) 
10.951205003488779

>  <m_score__min__rmsd>  (45) 
10.951205003488779

>  <meeko>  (45) 
{"free_energy": -10.08, "intermolecular_energy": -11.58, "internal_energy": -1.06, "cluster_size": 19, "cluster_id": 2, "rank_in_cluster": 3}

>  <energy>  (45) 
-9.68

>  <cluster_rmsd>  (45) 
0.91

>  <cluster>  (45) 
2

$$$$

     RDKit          3D

 64 69  0  0  0  0  0  0  0  0999 V2000
  144.6430   73.2020  218.7440 O   0  0  0  0  0  0  0  0  0  0  0  0
  144.1380   72.4210  219.5910 C   0  0  0  0  0  0  0  0  0  0  0  0
  144.6120   71.0990  219.7460 N   0  0  0  0  0  0  0  0  0  0  0  0
  145.6770   70.5030  218.9950 C   0  0  0  0  0  0  0  0  0  0  0  0
  145.5420   69.0340  218.8090 C   0  0  0  0  0  0  0  0  0  0  0  0
  144.6900   68.6250  217.7860 C   0  0  0  0  0  0  0  0  0  0  0  0
  144.5180   67.2610  217.5650 C   0  0  0  0  0  0  0  0  0  0  0  0
  145.1610   66.3550  218.3260 N   0  0  0  0  0  0  0  0  0  0  0  0
  145.9850   66.7760  219.3160 C   0  0  0  0  0  0  0  0  0  0  0  0
  146.2020   68.1100  219.5900 C   0  0  0  0  0  0  0  0  0  0  0  0
  143.0280   72.9060  220.4360 C   0  0  0  0  0  0  0  0  0  0  0  0
  142.7090   74.2490  220.4370 C   0  0  0  0  0  0  0  0  0  0  0  0
  141.6840   74.7600  221.2130 C   0  0  0  0  0  0  0  0  0  0  0  0
  141.3590   76.1450  221.2080 N   0  0  0  0  0  0  0  0  0  0  0  0
  141.4300   76.8430  219.9490 C   0  0  0  0  0  0  0  0  0  0  0  0
  141.2660   78.3180  220.0350 C   0  0  0  0  0  0  0  0  0  0  0  0
  141.4910   78.9020  221.3540 C   0  0  0  0  0  0  0  0  0  0  0  0
  141.8510   80.2300  221.4500 C   0  0  0  0  0  0  0  0  0  0  0  0
  142.0740   80.8310  222.6860 C   0  0  0  0  0  0  0  0  0  0  0  0
  141.9350   80.0930  223.8500 C   0  0  0  0  0  0  0  0  0  0  0  0
  141.5750   78.7640  223.7530 C   0  0  0  0  0  0  0  0  0  0  0  0
  141.3610   78.1940  222.5210 C   0  0  0  0  0  0  0  0  0  0  0  0
  140.9790   76.7710  222.4610 C   0  0  0  0  0  0  0  0  0  0  0  0
  141.0100   73.8730  221.9740 N   0  0  0  0  0  0  0  0  0  0  0  0
  141.3050   72.5590  221.9870 C   0  0  0  0  0  0  0  0  0  0  0  0
  140.5280   71.7130  222.8340 N   0  0  0  0  0  0  0  0  0  0  0  0
  139.6120   70.7720  222.2130 C   0  0  0  0  0  0  0  0  0  0  0  0
  138.3810   70.6530  223.1270 C   0  0  0  0  0  0  0  0  0  0  0  0
  138.9320   70.0320  224.3860 C   0  0  0  0  0  0  0  0  0  0  0  0
  138.3350   68.9330  224.9600 C   0  0  0  0  0  0  0  0  0  0  0  0
  138.8610   68.3810  226.1060 C   0  0  0  0  0  0  0  0  0  0  0  0
  139.9980   68.9660  226.6510 C   0  0  0  0  0  0  0  0  0  0  0  0
  140.5910   70.0810  226.0580 C   0  0  0  0  0  0  0  0  0  0  0  0
  140.0600   70.6430  224.8960 C   0  0  0  0  0  0  0  0  0  0  0  0
  140.6940   71.8310  224.2690 C   0  0  0  0  0  0  0  0  0  0  0  0
  142.3120   72.0870  221.2180 N   0  0  0  0  0  0  0  0  0  0  0  0
  144.1190   70.5160  220.4900 H   0  0  0  0  0  0  0  0  0  0  0  0
  145.7058   70.9755  218.0021 H   0  0  0  0  0  0  0  0  0  0  0  0
  146.6002   70.6659  219.5706 H   0  0  0  0  0  0  0  0  0  0  0  0
  144.1635   69.3647  217.1650 H   0  0  0  0  0  0  0  0  0  0  0  0
  143.8499   66.9200  216.7604 H   0  0  0  0  0  0  0  0  0  0  0  0
  146.5027   66.0218  219.9269 H   0  0  0  0  0  0  0  0  0  0  0  0
  146.8758   68.4244  220.4006 H   0  0  0  0  0  0  0  0  0  0  0  0
  143.2880   74.9345  219.8007 H   0  0  0  0  0  0  0  0  0  0  0  0
  142.4120   76.6351  219.4991 H   0  0  0  0  0  0  0  0  0  0  0  0
  140.5855   76.4757  219.3473 H   0  0  0  0  0  0  0  0  0  0  0  0
  141.9782   78.7791  219.3348 H   0  0  0  0  0  0  0  0  0  0  0  0
  140.2117   78.5181  219.7933 H   0  0  0  0  0  0  0  0  0  0  0  0
  141.9641   80.8258  220.5323 H   0  0  0  0  0  0  0  0  0  0  0  0
  142.3605   81.8917  222.7382 H   0  0  0  0  0  0  0  0  0  0  0  0
  142.1081   80.5569  224.8323 H   0  0  0  0  0  0  0  0  0  0  0  0
  141.4591   78.1593  224.6646 H   0  0  0  0  0  0  0  0  0  0  0  0
  141.4743   76.2379  223.2859 H   0  0  0  0  0  0  0  0  0  0  0  0
  139.8835   76.7157  222.5431 H   0  0  0  0  0  0  0  0  0  0  0  0
  139.3095   71.1409  221.2218 H   0  0  0  0  0  0  0  0  0  0  0  0
  140.0935   69.7917  222.0823 H   0  0  0  0  0  0  0  0  0  0  0  0
  137.9487   71.6430  223.3342 H   0  0  0  0  0  0  0  0  0  0  0  0
  137.5709   70.0601  222.6774 H   0  0  0  0  0  0  0  0  0  0  0  0
  137.4359   68.4949  224.5022 H   0  0  0  0  0  0  0  0  0  0  0  0
  138.3952   67.5027  226.5767 H   0  0  0  0  0  0  0  0  0  0  0  0
  140.4380   68.5424  227.5659 H   0  0  0  0  0  0  0  0  0  0  0  0
  141.4897   70.5234  226.5126 H   0  0  0  0  0  0  0  0  0  0  0  0
  140.2065   72.7493  224.6283 H   0  0  0  0  0  0  0  0  0  0  0  0
  141.7613   71.8813  224.5306 H   0  0  0  0  0  0  0  0  0  0  0  0
  1  2  2  0
  2  3  1  0
  3  4  1  0
  4  5  1  0
  5  6  2  0
  6  7  1  0
  7  8  2  0
  8  9  1  0
  9 10  2  0
  2 11  1  0
 11 12  2  0
 12 13  1  0
 13 14  1  0
 14 15  1  0
 15 16  1  0
 16 17  1  0
 17 18  2  0
 18 19  1  0
 19 20  2  0
 20 21  1  0
 21 22  2  0
 22 23  1  0
 13 24  2  0
 24 25  1  0
 25 26  1  0
 26 27  1  0
 27 28  1  0
 28 29  1  0
 29 30  2  0
 30 31  1  0
 31 32  2  0
 32 33  1  0
 33 34  2  0
 34 35  1  0
 25 36  2  0
 10  5  1  0
 36 11  1  0
 23 14  1  0
 35 26  1  0
 22 17  1  0
 34 29  1  0
  3 37  1  0
  4 38  1  0
  4 39  1  0
  6 40  1  0
  7 41  1  0
  9 42  1  0
 10 43  1  0
 12 44  1  0
 15 45  1  0
 15 46  1  0
 16 47  1  0
 16 48  1  0
 18 49  1  0
 19 50  1  0
 20 51  1  0
 21 52  1  0
 23 53  1  0
 23 54  1  0
 27 55  1  0
 27 56  1  0
 28 57  1  0
 28 58  1  0
 30 59  1  0
 31 60  1  0
 32 61  1  0
 33 62  1  0
 35 63  1  0
 35 64  1  0
M  END
>  <smiles>  (46) 
O=C(NCc1ccncc1)c1cc(N2CCc3ccccc3C2)nc(N2CCc3ccccc3C2)n1

>  <score_type>  (46) 
oracle

>  <origin>  (46) 
autodockgpu

>  <m_score__min__energy>  (46) 
-10.279999999999999

>  <m_primary>  (46) 
energy

>  <rmsd>  (46) 
11.110006058005306

>  <m_score__min__rmsd>  (46) 
11.110006058005306

>  <meeko>  (46) 
{"free_energy": -9.82, "intermolecular_energy": -11.31, "internal_energy": -1.18, "cluster_size": 19, "cluster_id": 2, "rank_in_cluster": 12}

>  <energy>  (46) 
-9.6

>  <cluster_rmsd>  (46) 
0.84

>  <cluster>  (46) 
2

$$$$

     RDKit          3D

 64 69  0  0  0  0  0  0  0  0999 V2000
  142.9780   71.5190  218.4250 O   0  0  0  0  0  0  0  0  0  0  0  0
  143.2640   72.5580  219.0750 C   0  0  0  0  0  0  0  0  0  0  0  0
  144.4320   73.3010  218.7940 N   0  0  0  0  0  0  0  0  0  0  0  0
  145.3970   72.9860  217.7820 C   0  0  0  0  0  0  0  0  0  0  0  0
  145.5430   74.0330  216.7360 C   0  0  0  0  0  0  0  0  0  0  0  0
  144.4230   74.8280  216.5090 C   0  0  0  0  0  0  0  0  0  0  0  0
  144.4960   75.8230  215.5370 C   0  0  0  0  0  0  0  0  0  0  0  0
  145.6270   76.0120  214.8300 N   0  0  0  0  0  0  0  0  0  0  0  0
  146.7050   75.2250  215.0680 C   0  0  0  0  0  0  0  0  0  0  0  0
  146.7030   74.2230  216.0150 C   0  0  0  0  0  0  0  0  0  0  0  0
  142.3530   72.9990  220.1510 C   0  0  0  0  0  0  0  0  0  0  0  0
  142.0450   74.3380  220.2770 C   0  0  0  0  0  0  0  0  0  0  0  0
  141.2040   74.8080  221.2690 C   0  0  0  0  0  0  0  0  0  0  0  0
  140.8900   76.1890  221.3940 N   0  0  0  0  0  0  0  0  0  0  0  0
  140.6000   76.9200  220.1850 C   0  0  0  0  0  0  0  0  0  0  0  0
  140.4670   78.3910  220.3530 C   0  0  0  0  0  0  0  0  0  0  0  0
  141.0540   78.9430  221.5700 C   0  0  0  0  0  0  0  0  0  0  0  0
  141.4250   80.2710  221.5950 C   0  0  0  0  0  0  0  0  0  0  0  0
  141.9880   80.8420  222.7340 C   0  0  0  0  0  0  0  0  0  0  0  0
  142.1840   80.0740  223.8690 C   0  0  0  0  0  0  0  0  0  0  0  0
  141.8130   78.7450  223.8420 C   0  0  0  0  0  0  0  0  0  0  0  0
  141.2600   78.2050  222.7070 C   0  0  0  0  0  0  0  0  0  0  0  0
  140.8780   76.7810  222.7190 C   0  0  0  0  0  0  0  0  0  0  0  0
  140.6980   73.8840  222.1120 N   0  0  0  0  0  0  0  0  0  0  0  0
  140.9850   72.5720  222.0050 C   0  0  0  0  0  0  0  0  0  0  0  0
  140.3950   71.6850  222.9550 N   0  0  0  0  0  0  0  0  0  0  0  0
  139.5320   70.6250  222.4630 C   0  0  0  0  0  0  0  0  0  0  0  0
  138.4200   70.4140  223.5040 C   0  0  0  0  0  0  0  0  0  0  0  0
  139.1600   69.9100  224.7180 C   0  0  0  0  0  0  0  0  0  0  0  0
  138.7490   68.7790  225.3850 C   0  0  0  0  0  0  0  0  0  0  0  0
  139.4460   68.3360  226.4870 C   0  0  0  0  0  0  0  0  0  0  0  0
  140.5600   69.0630  226.8920 C   0  0  0  0  0  0  0  0  0  0  0  0
  140.9620   70.2090  226.2050 C   0  0  0  0  0  0  0  0  0  0  0  0
  140.2590   70.6600  225.0870 C   0  0  0  0  0  0  0  0  0  0  0  0
  140.6900   71.8810  224.3600 C   0  0  0  0  0  0  0  0  0  0  0  0
  141.8100   72.1410  221.0260 N   0  0  0  0  0  0  0  0  0  0  0  0
  144.5850   74.1650  219.4000 H   0  0  0  0  0  0  0  0  0  0  0  0
  146.3737   72.8445  218.2679 H   0  0  0  0  0  0  0  0  0  0  0  0
  145.0397   72.0779  217.2744 H   0  0  0  0  0  0  0  0  0  0  0  0
  143.4991   74.6735  217.0856 H   0  0  0  0  0  0  0  0  0  0  0  0
  143.6209   76.4612  215.3447 H   0  0  0  0  0  0  0  0  0  0  0  0
  147.6198   75.3930  214.4807 H   0  0  0  0  0  0  0  0  0  0  0  0
  147.5923   73.5993  216.1887 H   0  0  0  0  0  0  0  0  0  0  0  0
  142.4823   75.0543  219.5659 H   0  0  0  0  0  0  0  0  0  0  0  0
  141.4137   76.7311  219.4693 H   0  0  0  0  0  0  0  0  0  0  0  0
  139.6193   76.5617  219.8387 H   0  0  0  0  0  0  0  0  0  0  0  0
  140.9532   78.8750  219.4932 H   0  0  0  0  0  0  0  0  0  0  0  0
  139.3873   78.5891  220.4234 H   0  0  0  0  0  0  0  0  0  0  0  0
  141.2735   80.8908  220.6989 H   0  0  0  0  0  0  0  0  0  0  0  0
  142.2769   81.9034  222.7316 H   0  0  0  0  0  0  0  0  0  0  0  0
  142.6267   80.5144  224.7746 H   0  0  0  0  0  0  0  0  0  0  0  0
  141.9607   78.1163  224.7325 H   0  0  0  0  0  0  0  0  0  0  0  0
  141.5861   76.2316  223.3568 H   0  0  0  0  0  0  0  0  0  0  0  0
  139.8498   76.7150  223.1042 H   0  0  0  0  0  0  0  0  0  0  0  0
  139.0924   70.9162  221.4976 H   0  0  0  0  0  0  0  0  0  0  0  0
  140.1041   69.6974  222.3137 H   0  0  0  0  0  0  0  0  0  0  0  0
  137.9035   71.3600  223.7238 H   0  0  0  0  0  0  0  0  0  0  0  0
  137.6398   69.7188  223.1604 H   0  0  0  0  0  0  0  0  0  0  0  0
  137.8626   68.2280  225.0376 H   0  0  0  0  0  0  0  0  0  0  0  0
  139.1307   67.4334  227.0310 H   0  0  0  0  0  0  0  0  0  0  0  0
  141.1341   68.7290  227.7689 H   0  0  0  0  0  0  0  0  0  0  0  0
  141.8462   70.7652  226.5498 H   0  0  0  0  0  0  0  0  0  0  0  0
  140.1417   72.7559  224.7393 H   0  0  0  0  0  0  0  0  0  0  0  0
  141.7659   72.0568  224.5066 H   0  0  0  0  0  0  0  0  0  0  0  0
  1  2  2  0
  2  3  1  0
  3  4  1  0
  4  5  1  0
  5  6  2  0
  6  7  1  0
  7  8  2  0
  8  9  1  0
  9 10  2  0
  2 11  1  0
 11 12  2  0
 12 13  1  0
 13 14  1  0
 14 15  1  0
 15 16  1  0
 16 17  1  0
 17 18  2  0
 18 19  1  0
 19 20  2  0
 20 21  1  0
 21 22  2  0
 22 23  1  0
 13 24  2  0
 24 25  1  0
 25 26  1  0
 26 27  1  0
 27 28  1  0
 28 29  1  0
 29 30  2  0
 30 31  1  0
 31 32  2  0
 32 33  1  0
 33 34  2  0
 34 35  1  0
 25 36  2  0
 10  5  1  0
 36 11  1  0
 23 14  1  0
 35 26  1  0
 22 17  1  0
 34 29  1  0
  3 37  1  0
  4 38  1  0
  4 39  1  0
  6 40  1  0
  7 41  1  0
  9 42  1  0
 10 43  1  0
 12 44  1  0
 15 45  1  0
 15 46  1  0
 16 47  1  0
 16 48  1  0
 18 49  1  0
 19 50  1  0
 20 51  1  0
 21 52  1  0
 23 53  1  0
 23 54  1  0
 27 55  1  0
 27 56  1  0
 28 57  1  0
 28 58  1  0
 30 59  1  0
 31 60  1  0
 32 61  1  0
 33 62  1  0
 35 63  1  0
 35 64  1  0
M  END
>  <smiles>  (47) 
O=C(NCc1ccncc1)c1cc(N2CCc3ccccc3C2)nc(N2CCc3ccccc3C2)n1

>  <score_type>  (47) 
oracle

>  <origin>  (47) 
autodockgpu

>  <m_score__min__energy>  (47) 
-10.279999999999999

>  <m_primary>  (47) 
energy

>  <rmsd>  (47) 
8.08564371523169

>  <m_score__min__rmsd>  (47) 
8.08564371523169

>  <meeko>  (47) 
{"free_energy": -8.89, "intermolecular_energy": -10.38, "internal_energy": -0.96, "cluster_size": 1, "cluster_id": 5, "rank_in_cluster": 1}

>  <energy>  (47) 
-9.31

>  <cluster_rmsd>  (47) 
0.0

>  <cluster>  (47) 
3

$$$$

     RDKit          3D

 64 69  0  0  0  0  0  0  0  0999 V2000
  138.5150   76.1360  222.0840 O   0  0  0  0  0  0  0  0  0  0  0  0
  139.7620   76.0180  221.9720 C   0  0  0  0  0  0  0  0  0  0  0  0
  140.6050   77.1510  221.9310 N   0  0  0  0  0  0  0  0  0  0  0  0
  140.1720   78.5150  222.0070 C   0  0  0  0  0  0  0  0  0  0  0  0
  141.1600   79.4320  222.6350 C   0  0  0  0  0  0  0  0  0  0  0  0
  140.6340   80.5730  223.2380 C   0  0  0  0  0  0  0  0  0  0  0  0
  141.5100   81.4730  223.8410 C   0  0  0  0  0  0  0  0  0  0  0  0
  142.8370   81.2460  223.8400 N   0  0  0  0  0  0  0  0  0  0  0  0
  143.3260   80.1290  223.2470 C   0  0  0  0  0  0  0  0  0  0  0  0
  142.5180   79.1960  222.6330 C   0  0  0  0  0  0  0  0  0  0  0  0
  140.3450   74.6640  221.8840 C   0  0  0  0  0  0  0  0  0  0  0  0
  141.2940   74.3920  220.9190 C   0  0  0  0  0  0  0  0  0  0  0  0
  141.8690   73.1420  220.7860 C   0  0  0  0  0  0  0  0  0  0  0  0
  142.8470   72.8680  219.7900 N   0  0  0  0  0  0  0  0  0  0  0  0
  144.0790   72.2530  220.2160 C   0  0  0  0  0  0  0  0  0  0  0  0
  145.1340   72.1640  219.1720 C   0  0  0  0  0  0  0  0  0  0  0  0
  144.9720   73.0620  218.0330 C   0  0  0  0  0  0  0  0  0  0  0  0
  146.0800   73.4200  217.2940 C   0  0  0  0  0  0  0  0  0  0  0  0
  145.9740   74.2730  216.1990 C   0  0  0  0  0  0  0  0  0  0  0  0
  144.7380   74.7780  215.8320 C   0  0  0  0  0  0  0  0  0  0  0  0
  143.6300   74.4200  216.5710 C   0  0  0  0  0  0  0  0  0  0  0  0
  143.7600   73.5770  217.6490 C   0  0  0  0  0  0  0  0  0  0  0  0
  142.5520   73.2200  218.4130 C   0  0  0  0  0  0  0  0  0  0  0  0
  141.4510   72.1960  221.6530 N   0  0  0  0  0  0  0  0  0  0  0  0
  140.5280   72.4410  222.6020 C   0  0  0  0  0  0  0  0  0  0  0  0
  140.1580   71.3640  223.4610 N   0  0  0  0  0  0  0  0  0  0  0  0
  139.5740   70.1750  222.8640 C   0  0  0  0  0  0  0  0  0  0  0  0
  138.5360   69.6220  223.8540 C   0  0  0  0  0  0  0  0  0  0  0  0
  139.3650   69.2060  225.0440 C   0  0  0  0  0  0  0  0  0  0  0  0
  139.2280   67.9590  225.6070 C   0  0  0  0  0  0  0  0  0  0  0  0
  140.0030   67.6010  226.6880 C   0  0  0  0  0  0  0  0  0  0  0  0
  140.9100   68.5320  227.1790 C   0  0  0  0  0  0  0  0  0  0  0  0
  141.0350   69.7940  226.5970 C   0  0  0  0  0  0  0  0  0  0  0  0
  140.2530   70.1600  225.5010 C   0  0  0  0  0  0  0  0  0  0  0  0
  140.3880   71.5050  224.8850 C   0  0  0  0  0  0  0  0  0  0  0  0
  139.9820   73.6730  222.7090 N   0  0  0  0  0  0  0  0  0  0  0  0
  141.6470   76.9470  221.8350 H   0  0  0  0  0  0  0  0  0  0  0  0
  139.9709   78.8709  220.9858 H   0  0  0  0  0  0  0  0  0  0  0  0
  139.2766   78.5282  222.6458 H   0  0  0  0  0  0  0  0  0  0  0  0
  139.5499   80.7591  223.2379 H   0  0  0  0  0  0  0  0  0  0  0  0
  141.1132   82.3787  224.3230 H   0  0  0  0  0  0  0  0  0  0  0  0
  144.4129   79.9602  223.2562 H   0  0  0  0  0  0  0  0  0  0  0  0
  142.9408   78.2976  222.1596 H   0  0  0  0  0  0  0  0  0  0  0  0
  141.6025   75.1956  220.2341 H   0  0  0  0  0  0  0  0  0  0  0  0
  144.4797   72.8392  221.0561 H   0  0  0  0  0  0  0  0  0  0  0  0
  143.8267   71.2168  220.4854 H   0  0  0  0  0  0  0  0  0  0  0  0
  146.0999   72.3908  219.6469 H   0  0  0  0  0  0  0  0  0  0  0  0
  145.0674   71.1449  218.7633 H   0  0  0  0  0  0  0  0  0  0  0  0
  147.0668   73.0238  217.5753 H   0  0  0  0  0  0  0  0  0  0  0  0
  146.8720   74.5458  215.6253 H   0  0  0  0  0  0  0  0  0  0  0  0
  144.6418   75.4517  214.9678 H   0  0  0  0  0  0  0  0  0  0  0  0
  142.6388   74.8104  216.2969 H   0  0  0  0  0  0  0  0  0  0  0  0
  141.8652   74.0793  218.4083 H   0  0  0  0  0  0  0  0  0  0  0  0
  142.1019   72.3387  217.9326 H   0  0  0  0  0  0  0  0  0  0  0  0
  139.0853   70.4337  221.9131 H   0  0  0  0  0  0  0  0  0  0  0  0
  140.3508   69.4239  222.6579 H   0  0  0  0  0  0  0  0  0  0  0  0
  137.8086   70.3981  224.1344 H   0  0  0  0  0  0  0  0  0  0  0  0
  137.9452   68.7941  223.4350 H   0  0  0  0  0  0  0  0  0  0  0  0
  138.4988   67.2466  225.1937 H   0  0  0  0  0  0  0  0  0  0  0  0
  139.9066   66.6070  227.1491 H   0  0  0  0  0  0  0  0  0  0  0  0
  141.5404   68.2697  228.0414 H   0  0  0  0  0  0  0  0  0  0  0  0
  141.7608   70.5109  227.0084 H   0  0  0  0  0  0  0  0  0  0  0  0
  139.6454   72.1914  225.3180 H   0  0  0  0  0  0  0  0  0  0  0  0
  141.3908   71.9158  225.0739 H   0  0  0  0  0  0  0  0  0  0  0  0
  1  2  2  0
  2  3  1  0
  3  4  1  0
  4  5  1  0
  5  6  2  0
  6  7  1  0
  7  8  2  0
  8  9  1  0
  9 10  2  0
  2 11  1  0
 11 12  2  0
 12 13  1  0
 13 14  1  0
 14 15  1  0
 15 16  1  0
 16 17  1  0
 17 18  2  0
 18 19  1  0
 19 20  2  0
 20 21  1  0
 21 22  2  0
 22 23  1  0
 13 24  2  0
 24 25  1  0
 25 26  1  0
 26 27  1  0
 27 28  1  0
 28 29  1  0
 29 30  2  0
 30 31  1  0
 31 32  2  0
 32 33  1  0
 33 34  2  0
 34 35  1  0
 25 36  2  0
 10  5  1  0
 36 11  1  0
 23 14  1  0
 35 26  1  0
 22 17  1  0
 34 29  1  0
  3 37  1  0
  4 38  1  0
  4 39  1  0
  6 40  1  0
  7 41  1  0
  9 42  1  0
 10 43  1  0
 12 44  1  0
 15 45  1  0
 15 46  1  0
 16 47  1  0
 16 48  1  0
 18 49  1  0
 19 50  1  0
 20 51  1  0
 21 52  1  0
 23 53  1  0
 23 54  1  0
 27 55  1  0
 27 56  1  0
 28 57  1  0
 28 58  1  0
 30 59  1  0
 31 60  1  0
 32 61  1  0
 33 62  1  0
 35 63  1  0
 35 64  1  0
M  END
>  <smiles>  (48) 
O=C(NCc1ccncc1)c1cc(N2CCc3ccccc3C2)nc(N2CCc3ccccc3C2)n1

>  <score_type>  (48) 
oracle

>  <origin>  (48) 
autodockgpu

>  <m_score__min__energy>  (48) 
-10.279999999999999

>  <m_primary>  (48) 
energy

>  <rmsd>  (48) 
3.7359951833706786

>  <m_score__min__rmsd>  (48) 
3.7359951833706786

>  <meeko>  (48) 
{"free_energy": -9.78, "intermolecular_energy": -11.28, "internal_energy": -0.86, "cluster_size": 27, "cluster_id": 1, "rank_in_cluster": 13}

>  <energy>  (48) 
-9.3

>  <cluster_rmsd>  (48) 
0.39

>  <cluster>  (48) 
3

$$$$

     RDKit          3D

 64 69  0  0  0  0  0  0  0  0999 V2000
  144.2700   73.2780  218.8020 O   0  0  0  0  0  0  0  0  0  0  0  0
  143.7860   72.4720  219.6390 C   0  0  0  0  0  0  0  0  0  0  0  0
  144.2560   71.1430  219.7340 N   0  0  0  0  0  0  0  0  0  0  0  0
  145.2940   70.5660  218.9310 C   0  0  0  0  0  0  0  0  0  0  0  0
  145.2730   69.0800  218.8870 C   0  0  0  0  0  0  0  0  0  0  0  0
  144.1030   68.4740  219.3390 C   0  0  0  0  0  0  0  0  0  0  0  0
  144.0250   67.0830  219.3270 C   0  0  0  0  0  0  0  0  0  0  0  0
  145.0590   66.3400  218.8890 N   0  0  0  0  0  0  0  0  0  0  0  0
  146.1870   66.9520  218.4540 C   0  0  0  0  0  0  0  0  0  0  0  0
  146.3330   68.3230  218.4380 C   0  0  0  0  0  0  0  0  0  0  0  0
  142.7060   72.9350  220.5330 C   0  0  0  0  0  0  0  0  0  0  0  0
  142.3710   74.2740  220.5610 C   0  0  0  0  0  0  0  0  0  0  0  0
  141.3740   74.7650  221.3830 C   0  0  0  0  0  0  0  0  0  0  0  0
  141.0320   76.1450  221.4060 N   0  0  0  0  0  0  0  0  0  0  0  0
  140.9000   76.8220  220.1400 C   0  0  0  0  0  0  0  0  0  0  0  0
  140.7300   78.2960  220.2270 C   0  0  0  0  0  0  0  0  0  0  0  0
  141.1450   78.9060  221.4860 C   0  0  0  0  0  0  0  0  0  0  0  0
  141.4960   80.2400  221.5050 C   0  0  0  0  0  0  0  0  0  0  0  0
  141.8970   80.8650  222.6830 C   0  0  0  0  0  0  0  0  0  0  0  0
  141.9470   80.1460  223.8650 C   0  0  0  0  0  0  0  0  0  0  0  0
  141.5960   78.8120  223.8460 C   0  0  0  0  0  0  0  0  0  0  0  0
  141.2050   78.2180  222.6710 C   0  0  0  0  0  0  0  0  0  0  0  0
  140.8380   76.7900  222.6920 C   0  0  0  0  0  0  0  0  0  0  0  0
  140.7420   73.8620  222.1620 N   0  0  0  0  0  0  0  0  0  0  0  0
  141.0530   72.5520  222.1500 C   0  0  0  0  0  0  0  0  0  0  0  0
  140.3220   71.6880  223.0190 N   0  0  0  0  0  0  0  0  0  0  0  0
  139.1930   70.9560  222.4720 C   0  0  0  0  0  0  0  0  0  0  0  0
  138.1310   70.8500  223.5800 C   0  0  0  0  0  0  0  0  0  0  0  0
  138.7960   69.9960  224.6300 C   0  0  0  0  0  0  0  0  0  0  0  0
  138.1590   68.9020  225.1690 C   0  0  0  0  0  0  0  0  0  0  0  0
  138.7910   68.1350  226.1210 C   0  0  0  0  0  0  0  0  0  0  0  0
  140.0740   68.5010  226.5100 C   0  0  0  0  0  0  0  0  0  0  0  0
  140.7060   69.6150  225.9550 C   0  0  0  0  0  0  0  0  0  0  0  0
  140.0680   70.3940  224.9890 C   0  0  0  0  0  0  0  0  0  0  0  0
  140.7450   71.5800  224.4010 C   0  0  0  0  0  0  0  0  0  0  0  0
  142.0330   72.1000  221.3360 N   0  0  0  0  0  0  0  0  0  0  0  0
  143.7830   70.5390  220.4740 H   0  0  0  0  0  0  0  0  0  0  0  0
  145.1859   70.9435  217.9035 H   0  0  0  0  0  0  0  0  0  0  0  0
  146.2497   70.8560  219.3921 H   0  0  0  0  0  0  0  0  0  0  0  0
  143.2586   69.0808  219.6978 H   0  0  0  0  0  0  0  0  0  0  0  0
  143.1088   66.5864  219.6791 H   0  0  0  0  0  0  0  0  0  0  0  0
  147.0211   66.3290  218.0988 H   0  0  0  0  0  0  0  0  0  0  0  0
  147.2603   68.7943  218.0804 H   0  0  0  0  0  0  0  0  0  0  0  0
  142.9149   74.9726  219.9082 H   0  0  0  0  0  0  0  0  0  0  0  0
  141.8047   76.6178  219.5486 H   0  0  0  0  0  0  0  0  0  0  0  0
  139.9789   76.4344  219.6804 H   0  0  0  0  0  0  0  0  0  0  0  0
  141.3202   78.7529  219.4190 H   0  0  0  0  0  0  0  0  0  0  0  0
  139.6483   78.4791  220.1464 H   0  0  0  0  0  0  0  0  0  0  0  0
  141.4584   80.8211  220.5718 H   0  0  0  0  0  0  0  0  0  0  0  0
  142.1739   81.9295  222.6744 H   0  0  0  0  0  0  0  0  0  0  0  0
  142.2608   80.6294  224.8019 H   0  0  0  0  0  0  0  0  0  0  0  0
  141.6293   78.2226  224.7742 H   0  0  0  0  0  0  0  0  0  0  0  0
  141.4598   76.2774  223.4407 H   0  0  0  0  0  0  0  0  0  0  0  0
  139.7683   76.7244  222.9397 H   0  0  0  0  0  0  0  0  0  0  0  0
  138.7801   71.4943  221.6061 H   0  0  0  0  0  0  0  0  0  0  0  0
  139.5050   69.9558  222.1370 H   0  0  0  0  0  0  0  0  0  0  0  0
  137.8824   71.8434  223.9817 H   0  0  0  0  0  0  0  0  0  0  0  0
  137.1818   70.4246  223.2222 H   0  0  0  0  0  0  0  0  0  0  0  0
  137.1431   68.6400  224.8385 H   0  0  0  0  0  0  0  0  0  0  0  0
  138.2949   67.2575  226.5614 H   0  0  0  0  0  0  0  0  0  0  0  0
  140.6004   67.9026  227.2682 H   0  0  0  0  0  0  0  0  0  0  0  0
  141.7211   69.8825  226.2837 H   0  0  0  0  0  0  0  0  0  0  0  0
  140.4579   72.4873  224.9528 H   0  0  0  0  0  0  0  0  0  0  0  0
  141.8378   71.4699  224.4622 H   0  0  0  0  0  0  0  0  0  0  0  0
  1  2  2  0
  2  3  1  0
  3  4  1  0
  4  5  1  0
  5  6  2  0
  6  7  1  0
  7  8  2  0
  8  9  1  0
  9 10  2  0
  2 11  1  0
 11 12  2  0
 12 13  1  0
 13 14  1  0
 14 15  1  0
 15 16  1  0
 16 17  1  0
 17 18  2  0
 18 19  1  0
 19 20  2  0
 20 21  1  0
 21 22  2  0
 22 23  1  0
 13 24  2  0
 24 25  1  0
 25 26  1  0
 26 27  1  0
 27 28  1  0
 28 29  1  0
 29 30  2  0
 30 31  1  0
 31 32  2  0
 32 33  1  0
 33 34  2  0
 34 35  1  0
 25 36  2  0
 10  5  1  0
 36 11  1  0
 23 14  1  0
 35 26  1  0
 22 17  1  0
 34 29  1  0
  3 37  1  0
  4 38  1  0
  4 39  1  0
  6 40  1  0
  7 41  1  0
  9 42  1  0
 10 43  1  0
 12 44  1  0
 15 45  1  0
 15 46  1  0
 16 47  1  0
 16 48  1  0
 18 49  1  0
 19 50  1  0
 20 51  1  0
 21 52  1  0
 23 53  1  0
 23 54  1  0
 27 55  1  0
 27 56  1  0
 28 57  1  0
 28 58  1  0
 30 59  1  0
 31 60  1  0
 32 61  1  0
 33 62  1  0
 35 63  1  0
 35 64  1  0
M  END
>  <smiles>  (49) 
O=C(NCc1ccncc1)c1cc(N2CCc3ccccc3C2)nc(N2CCc3ccccc3C2)n1

>  <score_type>  (49) 
oracle

>  <origin>  (49) 
autodockgpu

>  <m_score__min__energy>  (49) 
-10.279999999999999

>  <m_primary>  (49) 
energy

>  <rmsd>  (49) 
11.052098751261473

>  <m_score__min__rmsd>  (49) 
11.052098751261473

>  <meeko>  (49) 
{"free_energy": -9.75, "intermolecular_energy": -11.25, "internal_energy": -1.19, "cluster_size": 19, "cluster_id": 2, "rank_in_cluster": 15}

>  <energy>  (49) 
-9.24

>  <cluster_rmsd>  (49) 
0.0

>  <cluster>  (49) 
4

$$$$

     RDKit          3D

 64 69  0  0  0  0  0  0  0  0999 V2000
  140.7900   76.2710  220.5420 O   0  0  0  0  0  0  0  0  0  0  0  0
  140.3270   75.5810  221.4870 C   0  0  0  0  0  0  0  0  0  0  0  0
  139.4470   76.1400  222.4400 N   0  0  0  0  0  0  0  0  0  0  0  0
  138.9900   77.4990  222.4570 C   0  0  0  0  0  0  0  0  0  0  0  0
  140.0480   78.4920  222.7830 C   0  0  0  0  0  0  0  0  0  0  0  0
  139.6770   79.8310  222.6880 C   0  0  0  0  0  0  0  0  0  0  0  0
  140.6260   80.8090  222.9770 C   0  0  0  0  0  0  0  0  0  0  0  0
  141.8770   80.4670  223.3390 N   0  0  0  0  0  0  0  0  0  0  0  0
  142.2150   79.1570  223.4250 C   0  0  0  0  0  0  0  0  0  0  0  0
  141.3280   78.1380  223.1540 C   0  0  0  0  0  0  0  0  0  0  0  0
  140.7160   74.1610  221.5910 C   0  0  0  0  0  0  0  0  0  0  0  0
  141.5310   73.6050  220.6260 C   0  0  0  0  0  0  0  0  0  0  0  0
  141.9220   72.2790  220.6690 C   0  0  0  0  0  0  0  0  0  0  0  0
  142.7630   71.7120  219.6720 N   0  0  0  0  0  0  0  0  0  0  0  0
  142.3730   71.8800  218.2940 C   0  0  0  0  0  0  0  0  0  0  0  0
  143.1800   71.1100  217.3110 C   0  0  0  0  0  0  0  0  0  0  0  0
  143.9400   69.9900  217.8580 C   0  0  0  0  0  0  0  0  0  0  0  0
  144.3000   68.9510  217.0260 C   0  0  0  0  0  0  0  0  0  0  0  0
  145.0260   67.8620  217.5010 C   0  0  0  0  0  0  0  0  0  0  0  0
  145.4010   67.8090  218.8330 C   0  0  0  0  0  0  0  0  0  0  0  0
  145.0410   68.8490  219.6650 C   0  0  0  0  0  0  0  0  0  0  0  0
  144.3240   69.9120  219.1720 C   0  0  0  0  0  0  0  0  0  0  0  0
  143.9570   71.0030  220.0940 C   0  0  0  0  0  0  0  0  0  0  0  0
  141.4610   71.5530  221.7090 N   0  0  0  0  0  0  0  0  0  0  0  0
  140.6660   72.0760  222.6610 C   0  0  0  0  0  0  0  0  0  0  0  0
  140.2350   71.2140  223.7130 N   0  0  0  0  0  0  0  0  0  0  0  0
  139.5590   69.9780  223.3570 C   0  0  0  0  0  0  0  0  0  0  0  0
  138.5000   69.7020  224.4370 C   0  0  0  0  0  0  0  0  0  0  0  0
  139.3170   69.4640  225.6830 C   0  0  0  0  0  0  0  0  0  0  0  0
  139.1010   68.3610  226.4760 C   0  0  0  0  0  0  0  0  0  0  0  0
  139.8650   68.1630  227.6050 C   0  0  0  0  0  0  0  0  0  0  0  0
  140.8440   69.1030  227.9050 C   0  0  0  0  0  0  0  0  0  0  0  0
  141.0480   70.2170  227.0910 C   0  0  0  0  0  0  0  0  0  0  0  0
  140.2760   70.4200  225.9460 C   0  0  0  0  0  0  0  0  0  0  0  0
  140.4970   71.6090  225.0830 C   0  0  0  0  0  0  0  0  0  0  0  0
  140.3000   73.3750  222.5930 N   0  0  0  0  0  0  0  0  0  0  0  0
  139.1090   75.4760  223.2010 H   0  0  0  0  0  0  0  0  0  0  0  0
  138.5851   77.7396  221.4630 H   0  0  0  0  0  0  0  0  0  0  0  0
  138.2336   77.5691  223.2526 H   0  0  0  0  0  0  0  0  0  0  0  0
  138.6555   80.1106  222.3908 H   0  0  0  0  0  0  0  0  0  0  0  0
  140.3505   81.8717  222.9088 H   0  0  0  0  0  0  0  0  0  0  0  0
  143.2411   78.8964  223.7239 H   0  0  0  0  0  0  0  0  0  0  0  0
  141.6294   77.0829  223.2307 H   0  0  0  0  0  0  0  0  0  0  0  0
  141.8808   74.2366  219.7961 H   0  0  0  0  0  0  0  0  0  0  0  0
  141.3241   71.5636  218.1959 H   0  0  0  0  0  0  0  0  0  0  0  0
  142.5346   72.9421  218.0576 H   0  0  0  0  0  0  0  0  0  0  0  0
  142.4947   70.7132  216.5475 H   0  0  0  0  0  0  0  0  0  0  0  0
  143.9259   71.8153  216.9159 H   0  0  0  0  0  0  0  0  0  0  0  0
  144.0078   68.9831  215.9660 H   0  0  0  0  0  0  0  0  0  0  0  0
  145.3015   67.0443  216.8187 H   0  0  0  0  0  0  0  0  0  0  0  0
  145.9749   66.9542  219.2202 H   0  0  0  0  0  0  0  0  0  0  0  0
  145.3290   68.8269  220.7264 H   0  0  0  0  0  0  0  0  0  0  0  0
  143.7791   70.5760  221.0920 H   0  0  0  0  0  0  0  0  0  0  0  0
  144.7872   71.7246  220.1037 H   0  0  0  0  0  0  0  0  0  0  0  0
  139.0749   70.0842  222.3750 H   0  0  0  0  0  0  0  0  0  0  0  0
  140.2773   69.1470  223.2978 H   0  0  0  0  0  0  0  0  0  0  0  0
  137.8336   70.5679  224.5639 H   0  0  0  0  0  0  0  0  0  0  0  0
  137.8455   68.8541  224.1868 H   0  0  0  0  0  0  0  0  0  0  0  0
  138.3177   67.6366  226.2084 H   0  0  0  0  0  0  0  0  0  0  0  0
  139.7050   67.2866  228.2503 H   0  0  0  0  0  0  0  0  0  0  0  0
  141.4687   68.9659  228.8000 H   0  0  0  0  0  0  0  0  0  0  0  0
  141.8283   70.9459  227.3551 H   0  0  0  0  0  0  0  0  0  0  0  0
  139.8121   72.4180  225.3772 H   0  0  0  0  0  0  0  0  0  0  0  0
  141.5291   71.9747  225.1879 H   0  0  0  0  0  0  0  0  0  0  0  0
  1  2  2  0
  2  3  1  0
  3  4  1  0
  4  5  1  0
  5  6  2  0
  6  7  1  0
  7  8  2  0
  8  9  1  0
  9 10  2  0
  2 11  1  0
 11 12  2  0
 12 13  1  0
 13 14  1  0
 14 15  1  0
 15 16  1  0
 16 17  1  0
 17 18  2  0
 18 19  1  0
 19 20  2  0
 20 21  1  0
 21 22  2  0
 22 23  1  0
 13 24  2  0
 24 25  1  0
 25 26  1  0
 26 27  1  0
 27 28  1  0
 28 29  1  0
 29 30  2  0
 30 31  1  0
 31 32  2  0
 32 33  1  0
 33 34  2  0
 34 35  1  0
 25 36  2  0
 10  5  1  0
 36 11  1  0
 23 14  1  0
 35 26  1  0
 22 17  1  0
 34 29  1  0
  3 37  1  0
  4 38  1  0
  4 39  1  0
  6 40  1  0
  7 41  1  0
  9 42  1  0
 10 43  1  0
 12 44  1  0
 15 45  1  0
 15 46  1  0
 16 47  1  0
 16 48  1  0
 18 49  1  0
 19 50  1  0
 20 51  1  0
 21 52  1  0
 23 53  1  0
 23 54  1  0
 27 55  1  0
 27 56  1  0
 28 57  1  0
 28 58  1  0
 30 59  1  0
 31 60  1  0
 32 61  1  0
 33 62  1  0
 35 63  1  0
 35 64  1  0
M  END
>  <smiles>  (50) 
O=C(NCc1ccncc1)c1cc(N2CCc3ccccc3C2)nc(N2CCc3ccccc3C2)n1

>  <score_type>  (50) 
oracle

>  <origin>  (50) 
autodockgpu

>  <m_score__min__energy>  (50) 
-10.279999999999999

>  <m_primary>  (50) 
energy

>  <rmsd>  (50) 
3.9335873551085743

>  <m_score__min__rmsd>  (50) 
3.9335873551085743

>  <meeko>  (50) 
{"free_energy": -9.6, "intermolecular_energy": -11.09, "internal_energy": -1.28, "cluster_size": 27, "cluster_id": 1, "rank_in_cluster": 26}

>  <energy>  (50) 
-8.89

>  <cluster_rmsd>  (50) 
0.0

>  <cluster>  (50) 
5

$$$$
