@<TRIPOS>MOLECULE
*****
 59 64 0 0 0
SMALL
GASTEIGER

@<TRIPOS>ATOM
      1 N         140.2150   67.7510  227.6150 N.am    1  UNL1       -0.3253
      2 C         140.0630   69.1320  227.2790 C.2     1  UNL1        0.2416
      3 O         140.1160   70.0460  228.1390 O.2     1  UNL1       -0.2704
      4 C         139.8340   69.5270  225.8820 C.ar    1  UNL1        0.0385
      5 C         139.4060   68.5690  224.9930 C.ar    1  UNL1       -0.0490
      6 C         139.1810   68.9040  223.6760 C.ar    1  UNL1       -0.0519
      7 C         139.3890   70.2030  223.2540 C.ar    1  UNL1        0.0004
      8 C         139.2420   70.7940  222.0160 C.ar    1  UNL1       -0.0241
      9 C         139.5850   72.1400  222.1390 C.ar    1  UNL1        0.1033
     10 C         139.5640   73.1100  221.0780 C.2     1  UNL1        0.2672
     11 O         138.6570   72.9740  220.1920 O.2     1  UNL1       -0.2680
     12 N         140.4570   74.1830  220.9460 N.am    1  UNL1       -0.2651
     13 C         140.7900   75.1960  221.9590 C.3     1  UNL1        0.0310
     14 C         140.7980   76.4320  221.0820 C.3     1  UNL1        0.0275
     15 C         139.3480   76.8040  220.8480 C.3     1  UNL1       -0.0278
     16 C         139.1670   77.8280  221.9780 C.3     1  UNL1        0.0001
     17 N         140.3840   78.6010  221.8110 N.3     1  UNL1       -0.2972
     18 C         140.5900   79.5270  222.9060 C.3     1  UNL1        0.0241
     19 C         140.7440   80.9400  222.4200 C.3     1  UNL1       -0.0236
     20 C         142.1940   80.9940  222.0520 C.3     1  UNL1       -0.0026
     21 N         142.8880   80.1130  222.9390 N.3     1  UNL1       -0.3144
     22 C         141.9500   79.1880  223.5160 C.3     1  UNL1        0.0116
     23 C         141.4450   77.6220  221.7220 C.3     1  UNL1        0.0104
     24 C         141.4800   75.9390  219.8710 C.ar    1  UNL1       -0.0170
     25 C         142.2280   76.5110  218.8720 C.ar    1  UNL1       -0.0562
     26 C         142.7370   75.7300  217.8440 C.ar    1  UNL1       -0.0614
     27 C         142.5120   74.3680  217.7890 C.ar    1  UNL1       -0.0600
     28 C         141.7640   73.7830  218.7840 C.ar    1  UNL1       -0.0400
     29 C         141.2570   74.5710  219.8110 C.ar    1  UNL1        0.0404
     30 N         139.9310   72.3460  223.4320 N.ar    1  UNL1       -0.3505
     31 C         139.8220   71.1950  224.1290 C.ar    1  UNL1        0.0477
     32 C         140.0310   70.8080  225.4330 C.ar    1  UNL1       -0.0257
     33 H         139.6090   66.9960  227.2420 H       1  UNL1        0.1453
     34 H         140.9760   67.4300  228.2810 H       1  UNL1        0.1453
     35 H         139.2434   67.5357  225.3335 H       1  UNL1        0.0625
     36 H         138.8370   68.1402  222.9630 H       1  UNL1        0.0624
     37 H         138.9124   70.2919  221.0944 H       1  UNL1        0.0646
     38 H         140.0243   75.2563  222.7464 H       1  UNL1        0.0478
     39 H         141.7194   75.0120  222.5179 H       1  UNL1        0.0478
     40 H         139.1943   77.2548  219.8565 H       1  UNL1        0.0287
     41 H         138.6398   75.9624  220.8593 H       1  UNL1        0.0287
     42 H         138.2679   78.4444  221.8309 H       1  UNL1        0.0427
     43 H         139.0257   77.3947  222.9792 H       1  UNL1        0.0427
     44 H         139.7335   79.4467  223.5915 H       1  UNL1        0.0475
     45 H         140.1038   81.1329  221.5465 H       1  UNL1        0.0293
     46 H         140.4494   81.6960  223.1627 H       1  UNL1        0.0293
     47 H         142.3312   80.6659  221.0111 H       1  UNL1        0.0424
     48 H         142.5810   82.0200  222.1385 H       1  UNL1        0.0424
     49 H         143.6330   79.6340  222.3640 H       1  UNL1        0.1220
     50 H         142.2322   78.1540  223.2686 H       1  UNL1        0.0439
     51 H         141.9296   79.2683  224.6129 H       1  UNL1        0.0439
     52 H         142.2709   77.9979  221.1002 H       1  UNL1        0.0436
     53 H         141.8821   77.3856  222.7034 H       1  UNL1        0.0436
     54 H         142.4247   77.5932  218.8864 H       1  UNL1        0.0621
     55 H         143.3345   76.2072  217.0533 H       1  UNL1        0.0618
     56 H         142.9226   73.7639  216.9665 H       1  UNL1        0.0618
     57 H         141.5686   72.7006  218.7673 H       1  UNL1        0.0636
     58 H         140.2420   73.2340  223.8820 H       1  UNL1        0.1660
     59 H         140.3740   71.5657  226.1529 H       1  UNL1        0.0646
@<TRIPOS>BOND
     1     1     2   am
     2     2     3    2
     3     2     4    1
     4     4     5   ar
     5     5     6   ar
     6     6     7   ar
     7     7     8   ar
     8     8     9   ar
     9     9    10    1
    10    10    11    2
    11    10    12   am
    12    12    13    1
    13    14    13    1
    14    14    15    1
    15    15    16    1
    16    16    17    1
    17    17    18    1
    18    18    19    1
    19    19    20    1
    20    20    21    1
    21    21    22    1
    22    17    23    1
    23    14    24    1
    24    24    25   ar
    25    25    26   ar
    26    26    27   ar
    27    27    28   ar
    28    28    29   ar
    29     9    30   ar
    30    30    31   ar
    31    31    32   ar
    32    32     4   ar
    33    31     7   ar
    34    29    12    1
    35    23    14    1
    36    29    24   ar
    37    22    18    1
    38     1    33    1
    39     1    34    1
    40     5    35    1
    41     6    36    1
    42     8    37    1
    43    13    38    1
    44    13    39    1
    45    15    40    1
    46    15    41    1
    47    16    42    1
    48    16    43    1
    49    18    44    1
    50    19    45    1
    51    19    46    1
    52    20    47    1
    53    20    48    1
    54    21    49    1
    55    22    50    1
    56    22    51    1
    57    23    52    1
    58    23    53    1
    59    25    54    1
    60    26    55    1
    61    27    56    1
    62    28    57    1
    63    30    58    1
    64    32    59    1
