@<TRIPOS>MOLECULE
*****
 63 67 0 0 0
SMALL
GASTEIGER

@<TRIPOS>ATOM
      1 N         138.0360   73.9400  222.2610 N.3     1  UNL1       -0.3259
      2 C         138.1670   73.3720  220.9360 C.3     1  UNL1        0.0229
      3 C         138.1320   74.4730  219.9000 C.3     1  UNL1       -0.0090
      4 C         139.5700   74.9610  219.9550 C.3     1  UNL1        0.1039
      5 C         139.7320   75.6550  221.2590 C.2     1  UNL1        0.2362
      6 O         140.2660   75.1150  222.2670 O.2     1  UNL1       -0.2736
      7 N         139.2770   76.9940  221.4270 N.am    1  UNL1       -0.2994
      8 C         138.9350   77.8530  220.3090 C.3     1  UNL1        0.0153
      9 C         138.0220   78.8750  220.9470 C.3     1  UNL1       -0.0289
     10 C         137.7470   78.4040  222.3430 C.3     1  UNL1        0.0014
     11 C         137.3830   79.4520  223.2950 C.ar    1  UNL1       -0.0427
     12 C         136.0740   79.7130  223.6040 C.ar    1  UNL1       -0.0583
     13 C         135.7210   80.7110  224.5120 C.ar    1  UNL1       -0.0615
     14 C         136.6850   81.4870  225.1440 C.ar    1  UNL1       -0.0617
     15 C         138.0060   81.2250  224.8340 C.ar    1  UNL1       -0.0615
     16 C         138.3480   80.2360  223.9350 C.ar    1  UNL1       -0.0583
     17 C         139.0790   77.7230  222.6850 C.3     1  UNL1        0.0216
     18 N         140.3070   73.7030  220.0090 N.am    1  UNL1       -0.2871
     19 C         141.5830   73.4020  219.4450 C.2     1  UNL1        0.2334
     20 O         141.7340   72.6260  218.4660 O.2     1  UNL1       -0.2739
     21 C         142.7700   74.0490  220.0620 C.3     1  UNL1        0.0887
     22 N         142.4740   75.3940  220.5090 N.am    1  UNL1       -0.3015
     23 C         142.4920   76.4450  219.5370 C.2     1  UNL1        0.2629
     24 O         142.7660   76.1630  218.3230 O.2     1  UNL1       -0.2685
     25 C         142.1960   77.8140  219.9610 C.ar    1  UNL1        0.1278
     26 C         142.0230   78.7710  218.9580 C.ar    1  UNL1       -0.0305
     27 C         141.7430   80.0720  219.3230 C.ar    1  UNL1       -0.0489
     28 C         141.6360   80.4200  220.6440 C.ar    1  UNL1        0.0192
     29 C         141.3520   81.7370  221.0040 C.ar    1  UNL1       -0.0496
     30 C         141.2540   82.0420  222.3430 C.ar    1  UNL1       -0.0429
     31 C         141.4370   81.0420  223.2860 C.ar    1  UNL1        0.0300
     32 N         141.7090   79.7890  222.8780 N.ar    1  UNL1       -0.2357
     33 C         141.8180   79.4240  221.5830 C.ar    1  UNL1        0.1605
     34 N         142.0930   78.1480  221.2610 N.ar    1  UNL1       -0.2227
     35 C         139.5290   72.7510  220.7490 C.3     1  UNL1        0.0308
     36 H         138.0430   74.9970  222.2450 H       1  UNL1        0.1185
     37 H         138.8270   73.6110  222.8760 H       1  UNL1        0.1185
     38 H         137.3527   72.6407  220.8264 H       1  UNL1        0.0474
     39 H         137.8744   74.0837  218.9040 H       1  UNL1        0.0303
     40 H         137.3789   75.2523  220.0886 H       1  UNL1        0.0303
     41 H         139.8794   75.6282  219.1370 H       1  UNL1        0.0597
     42 H         139.8313   78.3302  219.8860 H       1  UNL1        0.0465
     43 H         138.4709   77.3149  219.4693 H       1  UNL1        0.0465
     44 H         138.5135   79.8588  220.9699 H       1  UNL1        0.0287
     45 H         137.0877   78.9784  220.3758 H       1  UNL1        0.0287
     46 H         136.8608   77.7554  222.4063 H       1  UNL1        0.0365
     47 H         135.2814   79.1204  223.1238 H       1  UNL1        0.0620
     48 H         134.6578   80.8874  224.7323 H       1  UNL1        0.0618
     49 H         136.4087   82.2753  225.8597 H       1  UNL1        0.0618
     50 H         138.8001   81.8164  225.3133 H       1  UNL1        0.0618
     51 H         139.4112   80.0589  223.7151 H       1  UNL1        0.0620
     52 H         139.8813   78.4517  222.8729 H       1  UNL1        0.0470
     53 H         139.0827   77.1106  223.5988 H       1  UNL1        0.0470
     54 H         143.0945   73.4496  220.9254 H       1  UNL1        0.0558
     55 H         143.5633   74.1066  219.3021 H       1  UNL1        0.0558
     56 H         142.2460   75.6360  221.5070 H       1  UNL1        0.1496
     57 H         142.1084   78.4927  217.8972 H       1  UNL1        0.0641
     58 H         141.6043   80.8376  218.5455 H       1  UNL1        0.0625
     59 H         141.2098   82.5128  220.2373 H       1  UNL1        0.0625
     60 H         141.0322   83.0710  222.6623 H       1  UNL1        0.0633
     61 H         141.3604   81.2712  224.3591 H       1  UNL1        0.0830
     62 H         139.4444   71.8091  220.1871 H       1  UNL1        0.0480
     63 H         139.9979   72.5165  221.7160 H       1  UNL1        0.0480
@<TRIPOS>BOND
     1     1     2    1
     2     2     3    1
     3     3     4    1
     4     4     5    1
     5     5     6    2
     6     5     7   am
     7     7     8    1
     8     8     9    1
     9     9    10    1
    10    10    11    1
    11    11    12   ar
    12    12    13   ar
    13    13    14   ar
    14    14    15   ar
    15    15    16   ar
    16    10    17    1
    17     4    18    1
    18    18    19   am
    19    19    20    2
    20    19    21    1
    21    21    22    1
    22    22    23   am
    23    23    24    2
    24    23    25    1
    25    25    26   ar
    26    26    27   ar
    27    27    28   ar
    28    28    29   ar
    29    29    30   ar
    30    30    31   ar
    31    31    32   ar
    32    32    33   ar
    33    33    34   ar
    34    18    35    1
    35    35     2    1
    36    17     7    1
    37    34    25   ar
    38    16    11   ar
    39    33    28   ar
    40     1    36    1
    41     1    37    1
    42     2    38    1
    43     3    39    1
    44     3    40    1
    45     4    41    1
    46     8    42    1
    47     8    43    1
    48     9    44    1
    49     9    45    1
    50    10    46    1
    51    12    47    1
    52    13    48    1
    53    14    49    1
    54    15    50    1
    55    16    51    1
    56    17    52    1
    57    17    53    1
    58    21    54    1
    59    21    55    1
    60    22    56    1
    61    26    57    1
    62    27    58    1
    63    29    59    1
    64    30    60    1
    65    31    61    1
    66    35    62    1
    67    35    63    1
