@<TRIPOS>MOLECULE
*****
 61 65 0 0 0
SMALL
GASTEIGER

@<TRIPOS>ATOM
      1 C         137.1720   81.2990  223.3760 C.3     1  UNL1       -0.0126
      2 N         137.6640   79.9640  223.5010 N.3     1  UNL1       -0.3024
      3 C         138.9110   79.8500  224.2340 C.3     1  UNL1        0.0145
      4 C         139.9640   80.7300  223.6370 C.3     1  UNL1        0.0278
      5 N         140.0390   80.6100  222.1650 N.am    1  UNL1       -0.2951
      6 C         141.3040   80.9390  221.6180 C.2     1  UNL1        0.2467
      7 O         142.1950   81.2870  222.4690 O.2     1  UNL1       -0.2700
      8 C         141.6990   80.9250  220.2380 C.ar    1  UNL1        0.0375
      9 C         141.8000   82.0320  219.4260 C.ar    1  UNL1       -0.0496
     10 C         142.1660   81.9110  218.1040 C.ar    1  UNL1       -0.0604
     11 C         142.4360   80.6660  217.5740 C.ar    1  UNL1       -0.0528
     12 C         142.3480   79.5360  218.3470 C.ar    1  UNL1       -0.0026
     13 C         142.6290   78.2130  217.7520 C.2     1  UNL1        0.0579
     14 N         142.8340   77.3200  218.6410 N.2     1  UNL1       -0.2493
     15 C         143.1210   75.9350  218.4900 C.ar    1  UNL1        0.0854
     16 C         143.4740   75.3790  219.7100 C.ar    1  UNL1       -0.0333
     17 C         143.7960   74.0340  219.7640 C.ar    1  UNL1       -0.0442
     18 C         143.7610   73.2710  218.6180 C.ar    1  UNL1        0.0272
     19 C         144.1140   71.8780  218.7680 C.1     1  UNL1       -0.0610
     20 C         144.3890   70.7070  218.9010 C.1     1  UNL1       -0.0610
     21 C         144.7370   69.3250  219.0700 C.ar    1  UNL1        0.0253
     22 C         146.0540   68.9550  219.3050 C.ar    1  UNL1       -0.0463
     23 C         146.3960   67.6130  219.4690 C.ar    1  UNL1       -0.0606
     24 C         145.4200   66.6190  219.4000 C.ar    1  UNL1       -0.0617
     25 C         144.1070   66.9910  219.1670 C.ar    1  UNL1       -0.0606
     26 C         143.7960   68.3180  219.0080 C.ar    1  UNL1       -0.0463
     27 C         143.4130   73.7890  217.3850 C.ar    1  UNL1       -0.0230
     28 C         143.0960   75.1400  217.3630 C.ar    1  UNL1        0.0602
     29 N         142.7530   75.5850  216.0590 N.am    1  UNL1       -0.2834
     30 C         142.6700   76.9230  215.6200 C.2     1  UNL1        0.2231
     31 O         142.6520   77.0210  214.3510 O.2     1  UNL1       -0.2751
     32 C         142.5990   78.2410  216.2800 C.3     1  UNL1        0.0671
     33 C         141.9810   79.6930  219.6630 C.ar    1  UNL1       -0.0407
     34 C         138.8990   80.1930  221.3780 C.3     1  UNL1        0.0278
     35 C         137.9130   79.4000  222.1960 C.3     1  UNL1        0.0145
     36 H         137.0143   81.7269  224.3770 H       1  UNL1        0.0391
     37 H         137.9041   81.9097  222.8274 H       1  UNL1        0.0391
     38 H         136.2186   81.2886  222.8274 H       1  UNL1        0.0391
     39 H         138.7428   80.1481  225.2794 H       1  UNL1        0.0442
     40 H         139.2547   78.8063  224.1825 H       1  UNL1        0.0442
     41 H         139.7368   81.7751  223.8940 H       1  UNL1        0.0477
     42 H         140.9344   80.4128  224.0467 H       1  UNL1        0.0477
     43 H         141.5851   83.0284  219.8395 H       1  UNL1        0.0625
     44 H         142.2431   82.8069  217.4705 H       1  UNL1        0.0618
     45 H         142.7260   80.5782  216.5165 H       1  UNL1        0.0624
     46 H         143.4978   75.9966  220.6200 H       1  UNL1        0.0640
     47 H         144.0799   73.5745  220.7223 H       1  UNL1        0.0630
     48 H         146.8351   69.7274  219.3624 H       1  UNL1        0.0630
     49 H         147.4443   67.3361  219.6543 H       1  UNL1        0.0618
     50 H         145.6883   65.5600  219.5282 H       1  UNL1        0.0618
     51 H         143.3175   66.2271  219.1097 H       1  UNL1        0.0618
     52 H         142.7469   68.5918  218.8223 H       1  UNL1        0.0630
     53 H         143.3887   73.1687  216.4769 H       1  UNL1        0.0649
     54 H         142.5430   74.8030  215.3700 H       1  UNL1        0.1549
     55 H         143.4545   78.8400  215.9345 H       1  UNL1        0.0423
     56 H         141.6221   78.6653  216.0049 H       1  UNL1        0.0423
     57 H         141.9069   78.7948  220.2937 H       1  UNL1        0.0631
     58 H         138.3948   81.0863  220.9808 H       1  UNL1        0.0477
     59 H         139.2632   79.5491  220.5639 H       1  UNL1        0.0477
     60 H         136.9604   79.3568  221.6476 H       1  UNL1        0.0442
     61 H         138.3495   78.4024  222.3520 H       1  UNL1        0.0442
@<TRIPOS>BOND
     1     1     2    1
     2     2     3    1
     3     3     4    1
     4     4     5    1
     5     5     6   am
     6     6     7    2
     7     6     8    1
     8     8     9   ar
     9     9    10   ar
    10    10    11   ar
    11    11    12   ar
    12    12    13    1
    13    13    14    2
    14    14    15    1
    15    15    16   ar
    16    16    17   ar
    17    17    18   ar
    18    18    19    1
    19    19    20    3
    20    20    21    1
    21    21    22   ar
    22    22    23   ar
    23    23    24   ar
    24    24    25   ar
    25    25    26   ar
    26    18    27   ar
    27    27    28   ar
    28    28    29    1
    29    29    30   am
    30    30    31    2
    31    30    32    1
    32    12    33   ar
    33     5    34    1
    34    34    35    1
    35    35     2    1
    36    33     8   ar
    37    32    13    1
    38    28    15   ar
    39    26    21   ar
    40     1    36    1
    41     1    37    1
    42     1    38    1
    43     3    39    1
    44     3    40    1
    45     4    41    1
    46     4    42    1
    47     9    43    1
    48    10    44    1
    49    11    45    1
    50    16    46    1
    51    17    47    1
    52    22    48    1
    53    23    49    1
    54    24    50    1
    55    25    51    1
    56    26    52    1
    57    27    53    1
    58    29    54    1
    59    32    55    1
    60    32    56    1
    61    33    57    1
    62    34    58    1
    63    34    59    1
    64    35    60    1
    65    35    61    1
