
 63 66  0  0  0  0  0  0  0  0999 V2000
  142.3320   71.5120  220.4580 C   0  0  0  0  0  0  0  0  0  0  0  0
  142.5230   72.9640  220.8490 C   0  0  0  0  0  0  0  0  0  0  0  0
  143.9420   73.3900  220.6450 C   0  0  0  0  0  0  0  0  0  0  0  0
  141.4730   73.8570  220.3030 C   0  0  0  0  0  0  0  0  0  0  0  0
  140.1150   73.7780  220.8910 C   0  0  1  0  0  0  0  0  0  0  0  0
  140.2880   73.1020  222.1980 N   0  0  0  0  0  0  0  0  0  0  0  0
  139.4510   71.9670  222.4720 C   0  0  0  0  0  0  0  0  0  0  0  0
  138.6300   71.6280  221.5820 O   0  0  0  0  0  0  0  0  0  0  0  0
  139.5840   71.2680  223.7450 C   0  0  0  0  0  0  0  0  0  0  0  0
  139.0070   69.9990  223.8270 C   0  0  0  0  0  0  0  0  0  0  0  0
  139.1330   69.3400  225.0270 C   0  0  0  0  0  0  0  0  0  0  0  0
  139.7880   69.8960  226.0840 C   0  0  0  0  0  0  0  0  0  0  0  0
  139.9600   69.3130  227.3110 C   0  0  0  0  0  0  0  0  0  0  0  0
  140.6210   69.8970  228.3470 C   0  0  0  0  0  0  0  0  0  0  0  0
  141.1760   71.1650  228.2020 C   0  0  0  0  0  0  0  0  0  0  0  0
  141.0060   71.7590  226.9670 C   0  0  0  0  0  0  0  0  0  0  0  0
  140.3380   71.1680  225.9220 C   0  0  0  0  0  0  0  0  0  0  0  0
  140.2330   71.8370  224.7640 N   0  0  0  0  0  0  0  0  0  0  0  0
  139.5070   75.1140  221.2650 C   0  0  2  0  0  0  0  0  0  0  0  0
  139.5850   75.3120  222.6610 O   0  0  0  0  0  0  0  0  0  0  0  0
  138.0420   75.0430  220.8460 C   0  0  0  0  0  0  0  0  0  0  0  0
  137.2450   74.2440  221.7550 N   0  0  0  0  0  0  0  0  0  0  0  0
  136.5820   74.7480  222.8900 C   0  0  0  0  0  0  0  0  0  0  0  0
  136.6660   75.9810  223.1630 O   0  0  0  0  0  0  0  0  0  0  0  0
  135.7800   73.9420  223.8030 C   0  0  0  0  0  0  0  0  0  0  0  0
  135.9370   72.5750  223.7900 C   0  0  0  0  0  0  0  0  0  0  0  0
  135.2050   71.7340  224.6340 C   0  0  0  0  0  0  0  0  0  0  0  0
  134.2960   72.2980  225.5080 C   0  0  0  0  0  0  0  0  0  0  0  0
  133.5830   71.4440  226.3340 C   0  0  0  0  0  0  0  0  0  0  0  0
  132.6830   72.0070  227.1980 C   0  0  0  0  0  0  0  0  0  0  0  0
  132.4650   73.3600  227.2760 C   0  0  0  0  0  0  0  0  0  0  0  0
  133.2020   74.1760  226.4280 C   0  0  0  0  0  0  0  0  0  0  0  0
  134.1210   73.6700  225.5380 C   0  0  0  0  0  0  0  0  0  0  0  0
  134.8660   74.4740  224.6850 C   0  0  0  0  0  0  0  0  0  0  0  0
  142.2509   70.8955  221.3654 H   0  0  0  0  0  0  0  0  0  0  0  0
  141.4128   71.4105  219.8624 H   0  0  0  0  0  0  0  0  0  0  0  0
  143.1937   71.1763  219.8624 H   0  0  0  0  0  0  0  0  0  0  0  0
  142.3602   73.0645  221.9322 H   0  0  0  0  0  0  0  0  0  0  0  0
  144.4254   73.5351  221.6224 H   0  0  0  0  0  0  0  0  0  0  0  0
  144.4804   72.6139  220.0813 H   0  0  0  0  0  0  0  0  0  0  0  0
  143.9639   74.3343  220.0813 H   0  0  0  0  0  0  0  0  0  0  0  0
  141.8248   74.8913  220.4311 H   0  0  0  0  0  0  0  0  0  0  0  0
  141.3414   73.5214  219.2637 H   0  0  0  0  0  0  0  0  0  0  0  0
  139.4711   73.2897  220.1447 H   0  0  0  0  0  0  0  0  0  0  0  0
  140.9890   73.4620  222.8530 H   0  0  0  0  0  0  0  0  0  0  0  0
  138.4780   69.5490  222.9739 H   0  0  0  0  0  0  0  0  0  0  0  0
  138.6934   68.3376  225.1364 H   0  0  0  0  0  0  0  0  0  0  0  0
  139.5374   68.3098  227.4690 H   0  0  0  0  0  0  0  0  0  0  0  0
  140.7173   69.3640  229.3044 H   0  0  0  0  0  0  0  0  0  0  0  0
  141.7165   71.6631  229.0203 H   0  0  0  0  0  0  0  0  0  0  0  0
  141.4294   72.7622  226.8111 H   0  0  0  0  0  0  0  0  0  0  0  0
  140.0370   75.9433  220.7737 H   0  0  0  0  0  0  0  0  0  0  0  0
  138.6960   75.1850  223.0690 H   0  0  0  0  0  0  0  0  0  0  0  0
  137.6321   76.0635  220.8206 H   0  0  0  0  0  0  0  0  0  0  0  0
  137.9994   74.5664  219.8555 H   0  0  0  0  0  0  0  0  0  0  0  0
  137.1380   73.2030  221.5750 H   0  0  0  0  0  0  0  0  0  0  0  0
  136.6619   72.1293  223.0930 H   0  0  0  0  0  0  0  0  0  0  0  0
  135.3503   70.6441  224.6026 H   0  0  0  0  0  0  0  0  0  0  0  0
  133.7345   70.3551  226.2968 H   0  0  0  0  0  0  0  0  0  0  0  0
  132.1075   71.3442  227.8609 H   0  0  0  0  0  0  0  0  0  0  0  0
  131.7349   73.7814  227.9827 H   0  0  0  0  0  0  0  0  0  0  0  0
  133.0457   75.2641  226.4692 H   0  0  0  0  0  0  0  0  0  0  0  0
  134.7222   75.5642  224.7147 H   0  0  0  0  0  0  0  0  0  0  0  0
  1  2  1  0
  2  3  1  0
  2  4  1  0
  4  5  1  0
  5  6  1  0
  6  7  1  0
  7  8  2  0
  7  9  1  0
  9 10  2  0
 10 11  1  0
 11 12  2  0
 12 13  1  0
 13 14  2  0
 14 15  1  0
 15 16  2  0
 16 17  1  0
 17 18  2  0
  5 19  1  0
 19 20  1  0
 19 21  1  0
 21 22  1  0
 22 23  1  0
 23 24  2  0
 23 25  1  0
 25 26  2  0
 26 27  1  0
 27 28  2  0
 28 29  1  0
 29 30  2  0
 30 31  1  0
 31 32  2  0
 32 33  1  0
 33 34  2  0
 18  9  1  0
 34 25  1  0
 17 12  1  0
 33 28  1  0
  1 35  1  0
  1 36  1  0
  1 37  1  0
  2 38  1  0
  3 39  1  0
  3 40  1  0
  3 41  1  0
  4 42  1  0
  4 43  1  0
  5 44  1  6
  6 45  1  0
 10 46  1  0
 11 47  1  0
 13 48  1  0
 14 49  1  0
 15 50  1  0
 16 51  1  0
 19 52  1  6
 20 53  1  0
 21 54  1  0
 21 55  1  0
 22 56  1  0
 26 57  1  0
 27 58  1  0
 29 59  1  0
 30 60  1  0
 31 61  1  0
 32 62  1  0
 34 63  1  0
M  END
