
     RDKit          3D

 62 65  0  0  0  0  0  0  0  0999 V2000
  144.5700   74.3810  216.3220 C   0  0  0  0  0  0  0  0  0  0  0  0
  143.3360   73.8060  216.5040 O   0  0  0  0  0  0  0  0  0  0  0  0
  142.5820   74.6240  217.3420 C   0  0  1  0  0  0  0  0  0  0  0  0
  141.2480   73.9810  217.6670 C   0  0  0  0  0  0  0  0  0  0  0  0
  140.5120   75.0370  218.5080 C   0  0  0  0  0  0  0  0  0  0  0  0
  141.2760   75.0010  219.8010 N   0  0  0  0  0  0  0  0  0  0  0  0
  140.5520   74.5170  220.8790 C   0  0  0  0  0  0  0  0  0  0  0  0
  140.6940   75.2760  221.9590 O   0  0  0  0  0  0  0  0  0  0  0  0
  139.6890   73.3840  221.0960 C   0  0  0  0  0  0  0  0  0  0  0  0
  139.6050   72.7720  222.3890 N   0  0  0  0  0  0  0  0  0  0  0  0
  140.0350   71.4010  222.4880 C   0  0  0  0  0  0  0  0  0  0  0  0
  140.4410   70.8850  221.4130 O   0  0  0  0  0  0  0  0  0  0  0  0
  140.0030   70.6670  223.7440 C   0  0  0  0  0  0  0  0  0  0  0  0
  139.3410   69.4610  223.7600 C   0  0  0  0  0  0  0  0  0  0  0  0
  139.2350   68.6650  224.8870 C   0  0  0  0  0  0  0  0  0  0  0  0
  139.8500   69.1630  226.0340 C   0  0  0  0  0  0  0  0  0  0  0  0
  139.7510   68.3740  227.1680 C   0  0  0  0  0  0  0  0  0  0  0  0
  140.3540   68.8510  228.3180 C   0  0  0  0  0  0  0  0  0  0  0  0
  140.2520   68.0740  229.4210 F   0  0  0  0  0  0  0  0  0  0  0  0
  141.0320   70.0710  228.3350 C   0  0  0  0  0  0  0  0  0  0  0  0
  141.1110   70.8310  227.1840 C   0  0  0  0  0  0  0  0  0  0  0  0
  140.5170   70.3750  226.0270 C   0  0  0  0  0  0  0  0  0  0  0  0
  140.5800   71.1060  224.8780 N   0  0  0  0  0  0  0  0  0  0  0  0
  142.5940   75.5210  219.7020 C   0  0  2  0  0  0  0  0  0  0  0  0
  142.5740   77.0200  219.4370 C   0  0  0  0  0  0  0  0  0  0  0  0
  143.2190   77.5230  218.4870 O   0  0  0  0  0  0  0  0  0  0  0  0
  141.8200   77.8690  220.2690 N   0  0  0  0  0  0  0  0  0  0  0  0
  141.7130   79.2950  220.1290 C   0  0  0  0  0  0  0  0  0  0  0  0
  141.8510   80.0530  221.3780 C   0  0  0  0  0  0  0  0  0  0  0  0
  142.4920   79.4210  222.4410 C   0  0  0  0  0  0  0  0  0  0  0  0
  142.6480   80.0880  223.6360 C   0  0  0  0  0  0  0  0  0  0  0  0
  142.1800   81.3810  223.8050 C   0  0  0  0  0  0  0  0  0  0  0  0
  142.3380   82.0360  224.9950 F   0  0  0  0  0  0  0  0  0  0  0  0
  141.5440   82.0190  222.7630 C   0  0  0  0  0  0  0  0  0  0  0  0
  141.3970   81.3370  221.5790 C   0  0  0  0  0  0  0  0  0  0  0  0
  143.3480   74.7890  218.6170 C   0  0  0  0  0  0  0  0  0  0  0  0
  145.0240   74.5925  217.3014 H   0  0  0  0  0  0  0  0  0  0  0  0
  145.2165   73.6914  215.7594 H   0  0  0  0  0  0  0  0  0  0  0  0
  144.4578   75.3196  215.7594 H   0  0  0  0  0  0  0  0  0  0  0  0
  142.3966   75.5877  216.8451 H   0  0  0  0  0  0  0  0  0  0  0  0
  140.6889   73.7570  216.7466 H   0  0  0  0  0  0  0  0  0  0  0  0
  141.3609   73.0246  218.1985 H   0  0  0  0  0  0  0  0  0  0  0  0
  140.5681   76.0304  218.0390 H   0  0  0  0  0  0  0  0  0  0  0  0
  139.4365   74.8377  218.6247 H   0  0  0  0  0  0  0  0  0  0  0  0
  138.6711   73.7082  220.8338 H   0  0  0  0  0  0  0  0  0  0  0  0
  140.1512   72.5988  220.4797 H   0  0  0  0  0  0  0  0  0  0  0  0
  139.2560   73.2510  223.2570 H   0  0  0  0  0  0  0  0  0  0  0  0
  138.8716   69.1114  222.8286 H   0  0  0  0  0  0  0  0  0  0  0  0
  138.7009   67.7034  224.8780 H   0  0  0  0  0  0  0  0  0  0  0  0
  139.2174   67.4122  227.1548 H   0  0  0  0  0  0  0  0  0  0  0  0
  141.5027   70.4267  229.2634 H   0  0  0  0  0  0  0  0  0  0  0  0
  141.6441   71.7931  227.1910 H   0  0  0  0  0  0  0  0  0  0  0  0
  143.1092   75.3649  220.6612 H   0  0  0  0  0  0  0  0  0  0  0  0
  141.2930   77.3880  221.0620 H   0  0  0  0  0  0  0  0  0  0  0  0
  142.5004   79.6300  219.4378 H   0  0  0  0  0  0  0  0  0  0  0  0
  140.6954   79.4922  219.7606 H   0  0  0  0  0  0  0  0  0  0  0  0
  142.8715   78.3949  222.3267 H   0  0  0  0  0  0  0  0  0  0  0  0
  143.1541   79.5841  224.4726 H   0  0  0  0  0  0  0  0  0  0  0  0
  141.1645   83.0453  222.8754 H   0  0  0  0  0  0  0  0  0  0  0  0
  140.8887   81.8450  220.7462 H   0  0  0  0  0  0  0  0  0  0  0  0
  144.2676   75.3510  218.3967 H   0  0  0  0  0  0  0  0  0  0  0  0
  143.5481   73.7770  218.9988 H   0  0  0  0  0  0  0  0  0  0  0  0
  1  2  1  0
  2  3  1  0
  3  4  1  0
  4  5  1  0
  5  6  1  0
  6  7  1  0
  7  8  2  0
  7  9  1  0
  9 10  1  0
 10 11  1  0
 11 12  2  0
 11 13  1  0
 13 14  2  0
 14 15  1  0
 15 16  2  0
 16 17  1  0
 17 18  2  0
 18 19  1  0
 18 20  1  0
 20 21  2  0
 21 22  1  0
 22 23  2  0
  6 24  1  0
 24 25  1  0
 25 26  2  0
 25 27  1  0
 27 28  1  0
 28 29  1  0
 29 30  2  0
 30 31  1  0
 31 32  2  0
 32 33  1  0
 32 34  1  0
 34 35  2  0
 24 36  1  0
 36  3  1  0
 23 13  1  0
 35 29  1  0
 22 16  1  0
  1 37  1  0
  1 38  1  0
  1 39  1  0
  3 40  1  6
  4 41  1  0
  4 42  1  0
  5 43  1  0
  5 44  1  0
  9 45  1  0
  9 46  1  0
 10 47  1  0
 14 48  1  0
 15 49  1  0
 17 50  1  0
 20 51  1  0
 21 52  1  0
 24 53  1  1
 27 54  1  0
 28 55  1  0
 28 56  1  0
 30 57  1  0
 31 58  1  0
 34 59  1  0
 35 60  1  0
 36 61  1  0
 36 62  1  0
M  END
>  <smiles>  (1) 
CO[C@H]1CCN(C(=O)CNC(=O)c2ccc3cc(F)ccc3n2)[C@H](C(=O)NCc2ccc(F)cc2)C1

>  <score_type>  (1) 
oracle

>  <origin>  (1) 
autodockgpu

>  <m_score__min__energy>  (1) 
-9.6500000000000004

>  <m_primary>  (1) 
energy

>  <rmsd>  (1) 
2.4215809493427205

>  <m_score__min__rmsd>  (1) 
2.4215809493427205

>  <meeko>  (1) 
{"free_energy": -8.51, "intermolecular_energy": -10.9, "internal_energy": -2.13, "cluster_size": 17, "cluster_id": 1, "rank_in_cluster": 13}

>  <energy>  (1) 
-9.65

>  <cluster_rmsd>  (1) 
0.0

>  <cluster>  (1) 
1

$$$$

     RDKit          3D

 62 65  0  0  0  0  0  0  0  0999 V2000
  143.3100   73.3450  220.4700 C   0  0  0  0  0  0  0  0  0  0  0  0
  143.2250   74.6070  219.9330 O   0  0  0  0  0  0  0  0  0  0  0  0
  141.9580   75.1210  220.2000 C   0  0  1  0  0  0  0  0  0  0  0  0
  140.9860   74.7650  219.0930 C   0  0  0  0  0  0  0  0  0  0  0  0
  139.6820   75.4780  219.4890 C   0  0  0  0  0  0  0  0  0  0  0  0
  139.2250   74.6680  220.6680 N   0  0  0  0  0  0  0  0  0  0  0  0
  138.0580   73.9520  220.4530 C   0  0  0  0  0  0  0  0  0  0  0  0
  137.5030   74.2410  219.2820 O   0  0  0  0  0  0  0  0  0  0  0  0
  137.3110   72.9760  221.2050 C   0  0  0  0  0  0  0  0  0  0  0  0
  137.7640   72.5520  222.4960 N   0  0  0  0  0  0  0  0  0  0  0  0
  138.8360   71.5910  222.5260 C   0  0  0  0  0  0  0  0  0  0  0  0
  139.2600   71.2220  221.3990 O   0  0  0  0  0  0  0  0  0  0  0  0
  139.3870   71.0830  223.7730 C   0  0  0  0  0  0  0  0  0  0  0  0
  140.3000   71.8710  224.4340 C   0  0  0  0  0  0  0  0  0  0  0  0
  140.9000   71.5060  225.6270 C   0  0  0  0  0  0  0  0  0  0  0  0
  140.5190   70.2660  226.1360 C   0  0  0  0  0  0  0  0  0  0  0  0
  141.1120   69.8910  227.3290 C   0  0  0  0  0  0  0  0  0  0  0  0
  140.7480   68.6630  227.8510 C   0  0  0  0  0  0  0  0  0  0  0  0
  141.3330   68.3040  229.0180 F   0  0  0  0  0  0  0  0  0  0  0  0
  139.8240   67.8390  227.2060 C   0  0  0  0  0  0  0  0  0  0  0  0
  139.2520   68.2470  226.0160 C   0  0  0  0  0  0  0  0  0  0  0  0
  139.6010   69.4670  225.4780 C   0  0  0  0  0  0  0  0  0  0  0  0
  139.0510   69.8930  224.3040 N   0  0  0  0  0  0  0  0  0  0  0  0
  140.0440   74.8200  221.8190 C   0  0  2  0  0  0  0  0  0  0  0  0
  139.9300   76.2260  222.3910 C   0  0  0  0  0  0  0  0  0  0  0  0
  138.8200   76.7120  222.7120 O   0  0  0  0  0  0  0  0  0  0  0  0
  141.0880   77.0070  222.5670 N   0  0  0  0  0  0  0  0  0  0  0  0
  141.1210   78.3430  223.0970 C   0  0  0  0  0  0  0  0  0  0  0  0
  141.3450   79.3980  222.1030 C   0  0  0  0  0  0  0  0  0  0  0  0
  141.5730   79.0000  220.7880 C   0  0  0  0  0  0  0  0  0  0  0  0
  141.7890   79.9510  219.8160 C   0  0  0  0  0  0  0  0  0  0  0  0
  141.7830   81.3030  220.1170 C   0  0  0  0  0  0  0  0  0  0  0  0
  141.9990   82.2420  219.1460 F   0  0  0  0  0  0  0  0  0  0  0  0
  141.5590   81.7130  221.4130 C   0  0  0  0  0  0  0  0  0  0  0  0
  141.3460   80.7490  222.3700 C   0  0  0  0  0  0  0  0  0  0  0  0
  141.4760   74.4910  221.4690 C   0  0  0  0  0  0  0  0  0  0  0  0
  143.3054   73.4126  221.5679 H   0  0  0  0  0  0  0  0  0  0  0  0
  142.4502   72.7457  220.1360 H   0  0  0  0  0  0  0  0  0  0  0  0
  144.2424   72.8664  220.1360 H   0  0  0  0  0  0  0  0  0  0  0  0
  142.0157   76.2166  220.2792 H   0  0  0  0  0  0  0  0  0  0  0  0
  141.3506   75.1306  218.1217 H   0  0  0  0  0  0  0  0  0  0  0  0
  140.8543   73.6785  218.9825 H   0  0  0  0  0  0  0  0  0  0  0  0
  139.8693   76.5243  219.7721 H   0  0  0  0  0  0  0  0  0  0  0  0
  138.9429   75.5316  218.6761 H   0  0  0  0  0  0  0  0  0  0  0  0
  136.3020   73.3910  221.3455 H   0  0  0  0  0  0  0  0  0  0  0  0
  137.4101   72.0652  220.5962 H   0  0  0  0  0  0  0  0  0  0  0  0
  137.3720   72.8930  223.4090 H   0  0  0  0  0  0  0  0  0  0  0  0
  140.5675   72.8420  223.9917 H   0  0  0  0  0  0  0  0  0  0  0  0
  141.6288   72.1516  226.1389 H   0  0  0  0  0  0  0  0  0  0  0  0
  141.8395   70.5399  227.8387 H   0  0  0  0  0  0  0  0  0  0  0  0
  139.5519   66.8673  227.6439 H   0  0  0  0  0  0  0  0  0  0  0  0
  138.5235   67.6028  225.5019 H   0  0  0  0  0  0  0  0  0  0  0  0
  139.6981   74.1218  222.5955 H   0  0  0  0  0  0  0  0  0  0  0  0
  142.0040   76.5450  222.2770 H   0  0  0  0  0  0  0  0  0  0  0  0
  140.1577   78.5382  223.5909 H   0  0  0  0  0  0  0  0  0  0  0  0
  141.9791   78.3804  223.7842 H   0  0  0  0  0  0  0  0  0  0  0  0
  141.5805   77.9314  220.5272 H   0  0  0  0  0  0  0  0  0  0  0  0
  141.9700   79.6305  218.7794 H   0  0  0  0  0  0  0  0  0  0  0  0
  141.5508   82.7814  221.6748 H   0  0  0  0  0  0  0  0  0  0  0  0
  141.1666   81.0746  223.4053 H   0  0  0  0  0  0  0  0  0  0  0  0
  142.1200   74.8357  222.2915 H   0  0  0  0  0  0  0  0  0  0  0  0
  141.5224   73.4023  221.3187 H   0  0  0  0  0  0  0  0  0  0  0  0
  1  2  1  0
  2  3  1  0
  3  4  1  0
  4  5  1  0
  5  6  1  0
  6  7  1  0
  7  8  2  0
  7  9  1  0
  9 10  1  0
 10 11  1  0
 11 12  2  0
 11 13  1  0
 13 14  2  0
 14 15  1  0
 15 16  2  0
 16 17  1  0
 17 18  2  0
 18 19  1  0
 18 20  1  0
 20 21  2  0
 21 22  1  0
 22 23  2  0
  6 24  1  0
 24 25  1  0
 25 26  2  0
 25 27  1  0
 27 28  1  0
 28 29  1  0
 29 30  2  0
 30 31  1  0
 31 32  2  0
 32 33  1  0
 32 34  1  0
 34 35  2  0
 24 36  1  0
 36  3  1  0
 23 13  1  0
 35 29  1  0
 22 16  1  0
  1 37  1  0
  1 38  1  0
  1 39  1  0
  3 40  1  1
  4 41  1  0
  4 42  1  0
  5 43  1  0
  5 44  1  0
  9 45  1  0
  9 46  1  0
 10 47  1  0
 14 48  1  0
 15 49  1  0
 17 50  1  0
 20 51  1  0
 21 52  1  0
 24 53  1  1
 27 54  1  0
 28 55  1  0
 28 56  1  0
 30 57  1  0
 31 58  1  0
 34 59  1  0
 35 60  1  0
 36 61  1  0
 36 62  1  0
M  END
>  <smiles>  (2) 
CO[C@H]1CCN(C(=O)CNC(=O)c2ccc3cc(F)ccc3n2)[C@H](C(=O)NCc2ccc(F)cc2)C1

>  <score_type>  (2) 
oracle

>  <origin>  (2) 
autodockgpu

>  <m_score__min__energy>  (2) 
-9.6500000000000004

>  <m_primary>  (2) 
energy

>  <rmsd>  (2) 
3.0238383225998353

>  <m_score__min__rmsd>  (2) 
3.0238383225998353

>  <meeko>  (2) 
{"free_energy": -8.07, "intermolecular_energy": -10.45, "internal_energy": -2.22, "cluster_size": 1, "cluster_id": 6, "rank_in_cluster": 1}

>  <energy>  (2) 
-9.39

>  <cluster_rmsd>  (2) 
0.97

>  <cluster>  (2) 
1

$$$$

     RDKit          3D

 62 65  0  0  0  0  0  0  0  0999 V2000
  140.6960   67.3810  226.4570 C   0  0  0  0  0  0  0  0  0  0  0  0
  139.5780   67.2460  225.6700 O   0  0  0  0  0  0  0  0  0  0  0  0
  139.0660   68.5140  225.4010 C   0  0  1  0  0  0  0  0  0  0  0  0
  140.1400   69.5730  225.5480 C   0  0  0  0  0  0  0  0  0  0  0  0
  139.3990   70.9000  225.3150 C   0  0  0  0  0  0  0  0  0  0  0  0
  139.1160   70.8490  223.8400 N   0  0  0  0  0  0  0  0  0  0  0  0
  139.7990   71.7980  223.0950 C   0  0  0  0  0  0  0  0  0  0  0  0
  141.0740   71.8930  223.4520 O   0  0  0  0  0  0  0  0  0  0  0  0
  139.4430   72.7000  222.0290 C   0  0  0  0  0  0  0  0  0  0  0  0
  139.6120   74.1140  222.1880 N   0  0  0  0  0  0  0  0  0  0  0  0
  140.7340   74.7140  221.5130 C   0  0  0  0  0  0  0  0  0  0  0  0
  141.4540   73.9180  220.8530 O   0  0  0  0  0  0  0  0  0  0  0  0
  141.0140   76.1390  221.5920 C   0  0  0  0  0  0  0  0  0  0  0  0
  141.5250   76.7510  220.4710 C   0  0  0  0  0  0  0  0  0  0  0  0
  141.8360   78.0990  220.4130 C   0  0  0  0  0  0  0  0  0  0  0  0
  141.5970   78.8210  221.5800 C   0  0  0  0  0  0  0  0  0  0  0  0
  141.9040   80.1700  221.5340 C   0  0  0  0  0  0  0  0  0  0  0  0
  141.6750   80.9050  222.6830 C   0  0  0  0  0  0  0  0  0  0  0  0
  141.9770   82.2230  222.6280 F   0  0  0  0  0  0  0  0  0  0  0  0
  141.1570   80.3150  223.8370 C   0  0  0  0  0  0  0  0  0  0  0  0
  140.8630   78.9650  223.8470 C   0  0  0  0  0  0  0  0  0  0  0  0
  141.0840   78.2140  222.7130 C   0  0  0  0  0  0  0  0  0  0  0  0
  140.8020   76.8790  222.6960 N   0  0  0  0  0  0  0  0  0  0  0  0
  138.1560   69.8690  223.4750 C   0  0  2  0  0  0  0  0  0  0  0  0
  136.7760   70.2290  224.0060 C   0  0  0  0  0  0  0  0  0  0  0  0
  135.9310   69.3430  224.2810 O   0  0  0  0  0  0  0  0  0  0  0  0
  136.4280   71.5790  224.1970 N   0  0  0  0  0  0  0  0  0  0  0  0
  135.1650   72.0540  224.6920 C   0  0  0  0  0  0  0  0  0  0  0  0
  135.0200   73.5130  224.7220 C   0  0  0  0  0  0  0  0  0  0  0  0
  134.2320   74.0560  225.7340 C   0  0  0  0  0  0  0  0  0  0  0  0
  134.0630   75.4210  225.8070 C   0  0  0  0  0  0  0  0  0  0  0  0
  134.6630   76.2720  224.8930 C   0  0  0  0  0  0  0  0  0  0  0  0
  134.4900   77.6260  224.9720 F   0  0  0  0  0  0  0  0  0  0  0  0
  135.4450   75.7490  223.8860 C   0  0  0  0  0  0  0  0  0  0  0  0
  135.6010   74.3840  223.8290 C   0  0  0  0  0  0  0  0  0  0  0  0
  138.5950   68.5150  223.9800 C   0  0  0  0  0  0  0  0  0  0  0  0
  140.4046   67.3458  227.5171 H   0  0  0  0  0  0  0  0  0  0  0  0
  141.3969   66.5610  226.2420 H   0  0  0  0  0  0  0  0  0  0  0  0
  141.1816   68.3443  226.2420 H   0  0  0  0  0  0  0  0  0  0  0  0
  138.2519   68.7389  226.1058 H   0  0  0  0  0  0  0  0  0  0  0  0
  140.5804   69.5442  226.5556 H   0  0  0  0  0  0  0  0  0  0  0  0
  140.9730   69.4275  224.8445 H   0  0  0  0  0  0  0  0  0  0  0  0
  138.4677   70.9449  225.8987 H   0  0  0  0  0  0  0  0  0  0  0  0
  139.9717   71.7866  225.6250 H   0  0  0  0  0  0  0  0  0  0  0  0
  140.0424   72.4070  221.1544 H   0  0  0  0  0  0  0  0  0  0  0  0
  138.3509   72.5866  221.9623 H   0  0  0  0  0  0  0  0  0  0  0  0
  138.9800   74.7330  222.7540 H   0  0  0  0  0  0  0  0  0  0  0  0
  141.6954   76.1376  219.5740 H   0  0  0  0  0  0  0  0  0  0  0  0
  142.2445   78.5684  219.5059 H   0  0  0  0  0  0  0  0  0  0  0  0
  142.3116   80.6362  220.6249 H   0  0  0  0  0  0  0  0  0  0  0  0
  140.9832   80.9236  224.7367 H   0  0  0  0  0  0  0  0  0  0  0  0
  140.4556   78.4933  224.7534 H   0  0  0  0  0  0  0  0  0  0  0  0
  138.0859   69.8335  222.3778 H   0  0  0  0  0  0  0  0  0  0  0  0
  137.1830   72.2890  223.9460 H   0  0  0  0  0  0  0  0  0  0  0  0
  134.3712   71.6454  224.0494 H   0  0  0  0  0  0  0  0  0  0  0  0
  135.0980   71.7169  225.7369 H   0  0  0  0  0  0  0  0  0  0  0  0
  133.7474   73.3985  226.4707 H   0  0  0  0  0  0  0  0  0  0  0  0
  133.4387   75.8443  226.6077 H   0  0  0  0  0  0  0  0  0  0  0  0
  135.9307   76.4050  223.1486 H   0  0  0  0  0  0  0  0  0  0  0  0
  136.2245   73.9653  223.0253 H   0  0  0  0  0  0  0  0  0  0  0  0
  137.7435   67.8235  223.8982 H   0  0  0  0  0  0  0  0  0  0  0  0
  139.4524   68.2096  223.3622 H   0  0  0  0  0  0  0  0  0  0  0  0
  1  2  1  0
  2  3  1  0
  3  4  1  0
  4  5  1  0
  5  6  1  0
  6  7  1  0
  7  8  2  0
  7  9  1  0
  9 10  1  0
 10 11  1  0
 11 12  2  0
 11 13  1  0
 13 14  2  0
 14 15  1  0
 15 16  2  0
 16 17  1  0
 17 18  2  0
 18 19  1  0
 18 20  1  0
 20 21  2  0
 21 22  1  0
 22 23  2  0
  6 24  1  0
 24 25  1  0
 25 26  2  0
 25 27  1  0
 27 28  1  0
 28 29  1  0
 29 30  2  0
 30 31  1  0
 31 32  2  0
 32 33  1  0
 32 34  1  0
 34 35  2  0
 24 36  1  0
 36  3  1  0
 23 13  1  0
 35 29  1  0
 22 16  1  0
  1 37  1  0
  1 38  1  0
  1 39  1  0
  3 40  1  1
  4 41  1  0
  4 42  1  0
  5 43  1  0
  5 44  1  0
  9 45  1  0
  9 46  1  0
 10 47  1  0
 14 48  1  0
 15 49  1  0
 17 50  1  0
 20 51  1  0
 21 52  1  0
 24 53  1  6
 27 54  1  0
 28 55  1  0
 28 56  1  0
 30 57  1  0
 31 58  1  0
 34 59  1  0
 35 60  1  0
 36 61  1  0
 36 62  1  0
M  END
>  <smiles>  (3) 
CO[C@H]1CCN(C(=O)CNC(=O)c2ccc3cc(F)ccc3n2)[C@H](C(=O)NCc2ccc(F)cc2)C1

>  <score_type>  (3) 
oracle

>  <origin>  (3) 
autodockgpu

>  <m_score__min__energy>  (3) 
-9.6500000000000004

>  <m_primary>  (3) 
energy

>  <rmsd>  (3) 
9.06648409241122

>  <m_score__min__rmsd>  (3) 
9.06648409241122

>  <meeko>  (3) 
{"free_energy": -8.79, "intermolecular_energy": -11.18, "internal_energy": -1.74, "cluster_size": 1, "cluster_id": 3, "rank_in_cluster": 1}

>  <energy>  (3) 
-9.2

>  <cluster_rmsd>  (3) 
0.69

>  <cluster>  (3) 
1

$$$$

     RDKit          3D

 62 65  0  0  0  0  0  0  0  0999 V2000
  142.5540   79.7480  222.8620 C   0  0  0  0  0  0  0  0  0  0  0  0
  142.0060   79.8870  221.6100 O   0  0  0  0  0  0  0  0  0  0  0  0
  141.2590   78.7470  221.3210 C   0  0  1  0  0  0  0  0  0  0  0  0
  141.8760   77.9730  220.1740 C   0  0  0  0  0  0  0  0  0  0  0  0
  140.8930   76.8170  219.9240 C   0  0  0  0  0  0  0  0  0  0  0  0
  141.1130   75.9480  221.1290 N   0  0  0  0  0  0  0  0  0  0  0  0
  141.6870   74.7180  220.8500 C   0  0  0  0  0  0  0  0  0  0  0  0
  143.0120   74.7840  220.7950 O   0  0  0  0  0  0  0  0  0  0  0  0
  141.1790   73.3920  220.6040 C   0  0  0  0  0  0  0  0  0  0  0  0
  141.2290   72.3930  221.6290 N   0  0  0  0  0  0  0  0  0  0  0  0
  140.3130   72.5440  222.7290 C   0  0  0  0  0  0  0  0  0  0  0  0
  139.5600   73.5520  222.6690 O   0  0  0  0  0  0  0  0  0  0  0  0
  140.2620   71.5960  223.8320 C   0  0  0  0  0  0  0  0  0  0  0  0
  139.7140   70.3590  223.5850 C   0  0  0  0  0  0  0  0  0  0  0  0
  139.6050   69.3680  224.5450 C   0  0  0  0  0  0  0  0  0  0  0  0
  140.0930   69.6980  225.8070 C   0  0  0  0  0  0  0  0  0  0  0  0
  139.9890   68.7150  226.7750 C   0  0  0  0  0  0  0  0  0  0  0  0
  140.4680   69.0230  228.0370 C   0  0  0  0  0  0  0  0  0  0  0  0
  140.3620   68.0550  228.9770 F   0  0  0  0  0  0  0  0  0  0  0  0
  141.0290   70.2690  228.3210 C   0  0  0  0  0  0  0  0  0  0  0  0
  141.1160   71.2270  227.3290 C   0  0  0  0  0  0  0  0  0  0  0  0
  140.6460   70.9400  226.0650 C   0  0  0  0  0  0  0  0  0  0  0  0
  140.7190   71.8690  225.0680 N   0  0  0  0  0  0  0  0  0  0  0  0
  140.6440   76.5210  222.3410 C   0  0  2  0  0  0  0  0  0  0  0  0
  139.1250   76.6210  222.3490 C   0  0  0  0  0  0  0  0  0  0  0  0
  138.5370   77.5800  222.9030 O   0  0  0  0  0  0  0  0  0  0  0  0
  138.3530   75.6220  221.7250 N   0  0  0  0  0  0  0  0  0  0  0  0
  136.9180   75.5970  221.6580 C   0  0  0  0  0  0  0  0  0  0  0  0
  136.2540   74.9830  222.8130 C   0  0  0  0  0  0  0  0  0  0  0  0
  135.8000   75.8360  223.8160 C   0  0  0  0  0  0  0  0  0  0  0  0
  135.1690   75.3100  224.9220 C   0  0  0  0  0  0  0  0  0  0  0  0
  134.9750   73.9460  225.0610 C   0  0  0  0  0  0  0  0  0  0  0  0
  134.3490   73.4320  226.1630 F   0  0  0  0  0  0  0  0  0  0  0  0
  135.4190   73.0900  224.0770 C   0  0  0  0  0  0  0  0  0  0  0  0
  136.0460   73.6320  222.9810 C   0  0  0  0  0  0  0  0  0  0  0  0
  141.2770   77.8780  222.5390 C   0  0  0  0  0  0  0  0  0  0  0  0
  141.7841   79.9433  223.6230 H   0  0  0  0  0  0  0  0  0  0  0  0
  142.9375   78.7241  222.9828 H   0  0  0  0  0  0  0  0  0  0  0  0
  143.3792   80.4653  222.9828 H   0  0  0  0  0  0  0  0  0  0  0  0
  140.2370   79.0394  221.0382 H   0  0  0  0  0  0  0  0  0  0  0  0
  141.9670   78.6074  219.2800 H   0  0  0  0  0  0  0  0  0  0  0  0
  142.8917   77.6189  220.4040 H   0  0  0  0  0  0  0  0  0  0  0  0
  139.8553   77.1788  219.8772 H   0  0  0  0  0  0  0  0  0  0  0  0
  141.0564   76.2970  218.9685 H   0  0  0  0  0  0  0  0  0  0  0  0
  140.1207   73.5063  220.3266 H   0  0  0  0  0  0  0  0  0  0  0  0
  141.8691   72.9999  219.8424 H   0  0  0  0  0  0  0  0  0  0  0  0
  141.8800   71.5690  221.6300 H   0  0  0  0  0  0  0  0  0  0  0  0
  139.3430   70.1461  222.5716 H   0  0  0  0  0  0  0  0  0  0  0  0
  139.1624   68.3851  224.3258 H   0  0  0  0  0  0  0  0  0  0  0  0
  139.5458   67.7332  226.5521 H   0  0  0  0  0  0  0  0  0  0  0  0
  141.4012   70.4880  229.3327 H   0  0  0  0  0  0  0  0  0  0  0  0
  141.5569   72.2111  227.5461 H   0  0  0  0  0  0  0  0  0  0  0  0
  140.9337   75.8673  223.1769 H   0  0  0  0  0  0  0  0  0  0  0  0
  138.9050   74.8300  221.2710 H   0  0  0  0  0  0  0  0  0  0  0  0
  136.5623   76.6343  221.5716 H   0  0  0  0  0  0  0  0  0  0  0  0
  136.6617   74.9735  220.7888 H   0  0  0  0  0  0  0  0  0  0  0  0
  135.9443   76.9227  223.7257 H   0  0  0  0  0  0  0  0  0  0  0  0
  134.8118   75.9878  225.7113 H   0  0  0  0  0  0  0  0  0  0  0  0
  135.2756   72.0030  224.1662 H   0  0  0  0  0  0  0  0  0  0  0  0
  136.4012   72.9495  222.1948 H   0  0  0  0  0  0  0  0  0  0  0  0
  140.7339   78.3981  223.3419 H   0  0  0  0  0  0  0  0  0  0  0  0
  142.3343   77.7006  222.7851 H   0  0  0  0  0  0  0  0  0  0  0  0
  1  2  1  0
  2  3  1  0
  3  4  1  0
  4  5  1  0
  5  6  1  0
  6  7  1  0
  7  8  2  0
  7  9  1  0
  9 10  1  0
 10 11  1  0
 11 12  2  0
 11 13  1  0
 13 14  2  0
 14 15  1  0
 15 16  2  0
 16 17  1  0
 17 18  2  0
 18 19  1  0
 18 20  1  0
 20 21  2  0
 21 22  1  0
 22 23  2  0
  6 24  1  0
 24 25  1  0
 25 26  2  0
 25 27  1  0
 27 28  1  0
 28 29  1  0
 29 30  2  0
 30 31  1  0
 31 32  2  0
 32 33  1  0
 32 34  1  0
 34 35  2  0
 24 36  1  0
 36  3  1  0
 23 13  1  0
 35 29  1  0
 22 16  1  0
  1 37  1  0
  1 38  1  0
  1 39  1  0
  3 40  1  6
  4 41  1  0
  4 42  1  0
  5 43  1  0
  5 44  1  0
  9 45  1  0
  9 46  1  0
 10 47  1  0
 14 48  1  0
 15 49  1  0
 17 50  1  0
 20 51  1  0
 21 52  1  0
 24 53  1  1
 27 54  1  0
 28 55  1  0
 28 56  1  0
 30 57  1  0
 31 58  1  0
 34 59  1  0
 35 60  1  0
 36 61  1  0
 36 62  1  0
M  END
>  <smiles>  (4) 
CO[C@H]1CCN(C(=O)CNC(=O)c2ccc3cc(F)ccc3n2)[C@H](C(=O)NCc2ccc(F)cc2)C1

>  <score_type>  (4) 
oracle

>  <origin>  (4) 
autodockgpu

>  <m_score__min__energy>  (4) 
-9.6500000000000004

>  <m_primary>  (4) 
energy

>  <rmsd>  (4) 
4.878533296419192

>  <m_score__min__rmsd>  (4) 
4.878533296419192

>  <meeko>  (4) 
{"free_energy": -8.21, "intermolecular_energy": -10.6, "internal_energy": -2.84, "cluster_size": 14, "cluster_id": 2, "rank_in_cluster": 8}

>  <energy>  (4) 
-9.18

>  <cluster_rmsd>  (4) 
0.73

>  <cluster>  (4) 
1

$$$$

     RDKit          3D

 62 65  0  0  0  0  0  0  0  0999 V2000
  146.3370   73.3720  221.3660 C   0  0  0  0  0  0  0  0  0  0  0  0
  146.2790   73.3810  219.9940 O   0  0  0  0  0  0  0  0  0  0  0  0
  145.0100   73.8040  219.6040 C   0  0  1  0  0  0  0  0  0  0  0  0
  144.4530   72.9080  218.5150 C   0  0  0  0  0  0  0  0  0  0  0  0
  143.1110   73.5590  218.1380 C   0  0  0  0  0  0  0  0  0  0  0  0
  142.2660   73.2600  219.3440 N   0  0  0  0  0  0  0  0  0  0  0  0
  141.2170   72.3860  219.1040 C   0  0  0  0  0  0  0  0  0  0  0  0
  141.4690   71.5680  218.0880 O   0  0  0  0  0  0  0  0  0  0  0  0
  139.9240   72.1630  219.6990 C   0  0  0  0  0  0  0  0  0  0  0  0
  139.7990   71.3860  220.8950 N   0  0  0  0  0  0  0  0  0  0  0  0
  139.9590   72.0850  222.1440 C   0  0  0  0  0  0  0  0  0  0  0  0
  140.1990   73.3170  222.0440 O   0  0  0  0  0  0  0  0  0  0  0  0
  139.8530   71.4110  223.4290 C   0  0  0  0  0  0  0  0  0  0  0  0
  139.0540   70.2940  223.4990 C   0  0  0  0  0  0  0  0  0  0  0  0
  138.8660   69.5620  224.6590 C   0  0  0  0  0  0  0  0  0  0  0  0
  139.5480   70.0290  225.7800 C   0  0  0  0  0  0  0  0  0  0  0  0
  139.3680   69.3050  226.9460 C   0  0  0  0  0  0  0  0  0  0  0  0
  140.0360   69.7530  228.0720 C   0  0  0  0  0  0  0  0  0  0  0  0
  139.8540   69.0380  229.2070 F   0  0  0  0  0  0  0  0  0  0  0  0
  140.8540   70.8830  228.0350 C   0  0  0  0  0  0  0  0  0  0  0  0
  141.0100   71.5810  226.8530 C   0  0  0  0  0  0  0  0  0  0  0  0
  140.3540   71.1520  225.7200 C   0  0  0  0  0  0  0  0  0  0  0  0
  140.4910   71.8240  224.5400 N   0  0  0  0  0  0  0  0  0  0  0  0
  142.6580   73.9710  220.5090 C   0  0  2  0  0  0  0  0  0  0  0  0
  142.3990   75.4630  220.3550 C   0  0  0  0  0  0  0  0  0  0  0  0
  143.2990   76.2440  219.9640 O   0  0  0  0  0  0  0  0  0  0  0  0
  141.1280   75.9890  220.6540 N   0  0  0  0  0  0  0  0  0  0  0  0
  140.7510   77.3720  220.5500 C   0  0  0  0  0  0  0  0  0  0  0  0
  141.3350   78.2520  221.5680 C   0  0  0  0  0  0  0  0  0  0  0  0
  141.2360   77.8460  222.8970 C   0  0  0  0  0  0  0  0  0  0  0  0
  141.7680   78.6360  223.8920 C   0  0  0  0  0  0  0  0  0  0  0  0
  142.4030   79.8320  223.6000 C   0  0  0  0  0  0  0  0  0  0  0  0
  142.9270   80.6110  224.5940 F   0  0  0  0  0  0  0  0  0  0  0  0
  142.5080   80.2470  222.2910 C   0  0  0  0  0  0  0  0  0  0  0  0
  141.9710   79.4450  221.3110 C   0  0  0  0  0  0  0  0  0  0  0  0
  144.1150   73.7020  220.8000 C   0  0  0  0  0  0  0  0  0  0  0  0
  145.3286   73.5284  221.7766 H   0  0  0  0  0  0  0  0  0  0  0  0
  146.7268   72.4027  221.7102 H   0  0  0  0  0  0  0  0  0  0  0  0
  147.0021   74.1777  221.7102 H   0  0  0  0  0  0  0  0  0  0  0  0
  145.0681   74.8327  219.2188 H   0  0  0  0  0  0  0  0  0  0  0  0
  145.1300   72.8806  217.6485 H   0  0  0  0  0  0  0  0  0  0  0  0
  144.3365   71.8656  218.8465 H   0  0  0  0  0  0  0  0  0  0  0  0
  143.2216   74.6429  217.9868 H   0  0  0  0  0  0  0  0  0  0  0  0
  142.6860   73.1829  217.1957 H   0  0  0  0  0  0  0  0  0  0  0  0
  139.5045   73.1550  219.9223 H   0  0  0  0  0  0  0  0  0  0  0  0
  139.4091   71.5459  218.9480 H   0  0  0  0  0  0  0  0  0  0  0  0
  139.5980   70.3550  220.9220 H   0  0  0  0  0  0  0  0  0  0  0  0
  138.5372   69.9648  222.5855 H   0  0  0  0  0  0  0  0  0  0  0  0
  138.2213   68.6714  224.6930 H   0  0  0  0  0  0  0  0  0  0  0  0
  138.7234   68.4142  226.9761 H   0  0  0  0  0  0  0  0  0  0  0  0
  141.3735   71.2173  228.9451 H   0  0  0  0  0  0  0  0  0  0  0  0
  141.6532   72.4726  226.8168 H   0  0  0  0  0  0  0  0  0  0  0  0
  142.0536   73.6198  221.3583 H   0  0  0  0  0  0  0  0  0  0  0  0
  140.4020   75.2800  220.9830 H   0  0  0  0  0  0  0  0  0  0  0  0
  141.0655   77.7380  219.5615 H   0  0  0  0  0  0  0  0  0  0  0  0
  139.6621   77.4061  220.7022 H   0  0  0  0  0  0  0  0  0  0  0  0
  140.7357   76.8997  223.1503 H   0  0  0  0  0  0  0  0  0  0  0  0
  141.6870   78.3106  224.9396 H   0  0  0  0  0  0  0  0  0  0  0  0
  143.0074   81.1934  222.0363 H   0  0  0  0  0  0  0  0  0  0  0  0
  142.0544   79.7752  220.2650 H   0  0  0  0  0  0  0  0  0  0  0  0
  144.4571   74.4307  221.5497 H   0  0  0  0  0  0  0  0  0  0  0  0
  144.1793   72.6627  221.1545 H   0  0  0  0  0  0  0  0  0  0  0  0
  1  2  1  0
  2  3  1  0
  3  4  1  0
  4  5  1  0
  5  6  1  0
  6  7  1  0
  7  8  2  0
  7  9  1  0
  9 10  1  0
 10 11  1  0
 11 12  2  0
 11 13  1  0
 13 14  2  0
 14 15  1  0
 15 16  2  0
 16 17  1  0
 17 18  2  0
 18 19  1  0
 18 20  1  0
 20 21  2  0
 21 22  1  0
 22 23  2  0
  6 24  1  0
 24 25  1  0
 25 26  2  0
 25 27  1  0
 27 28  1  0
 28 29  1  0
 29 30  2  0
 30 31  1  0
 31 32  2  0
 32 33  1  0
 32 34  1  0
 34 35  2  0
 24 36  1  0
 36  3  1  0
 23 13  1  0
 35 29  1  0
 22 16  1  0
  1 37  1  0
  1 38  1  0
  1 39  1  0
  3 40  1  6
  4 41  1  0
  4 42  1  0
  5 43  1  0
  5 44  1  0
  9 45  1  0
  9 46  1  0
 10 47  1  0
 14 48  1  0
 15 49  1  0
 17 50  1  0
 20 51  1  0
 21 52  1  0
 24 53  1  1
 27 54  1  0
 28 55  1  0
 28 56  1  0
 30 57  1  0
 31 58  1  0
 34 59  1  0
 35 60  1  0
 36 61  1  0
 36 62  1  0
M  END
>  <smiles>  (5) 
CO[C@H]1CCN(C(=O)CNC(=O)c2ccc3cc(F)ccc3n2)[C@H](C(=O)NCc2ccc(F)cc2)C1

>  <score_type>  (5) 
oracle

>  <origin>  (5) 
autodockgpu

>  <m_score__min__energy>  (5) 
-9.6500000000000004

>  <m_primary>  (5) 
energy

>  <rmsd>  (5) 
3.5267262860804176

>  <m_score__min__rmsd>  (5) 
3.5267262860804176

>  <meeko>  (5) 
{"free_energy": -8.97, "intermolecular_energy": -11.36, "internal_energy": -2.49, "cluster_size": 17, "cluster_id": 1, "rank_in_cluster": 8}

>  <energy>  (5) 
-9.17

>  <cluster_rmsd>  (5) 
0.71

>  <cluster>  (5) 
1

$$$$

     RDKit          3D

 62 65  0  0  0  0  0  0  0  0999 V2000
  146.3000   73.3510  220.9380 C   0  0  0  0  0  0  0  0  0  0  0  0
  146.1530   73.1490  219.5870 O   0  0  0  0  0  0  0  0  0  0  0  0
  144.8320   73.4220  219.2370 C   0  0  1  0  0  0  0  0  0  0  0  0
  144.2000   72.2320  218.5430 C   0  0  0  0  0  0  0  0  0  0  0  0
  142.7990   72.7260  218.1440 C   0  0  0  0  0  0  0  0  0  0  0  0
  142.1010   72.8050  219.4720 N   0  0  0  0  0  0  0  0  0  0  0  0
  141.0720   71.8910  219.6320 C   0  0  0  0  0  0  0  0  0  0  0  0
  141.1970   70.8480  218.8210 O   0  0  0  0  0  0  0  0  0  0  0  0
  139.9020   71.8150  220.4710 C   0  0  0  0  0  0  0  0  0  0  0  0
  139.9310   71.0670  221.6920 N   0  0  0  0  0  0  0  0  0  0  0  0
  140.3280   71.7770  222.8800 C   0  0  0  0  0  0  0  0  0  0  0  0
  140.6140   72.9920  222.7110 O   0  0  0  0  0  0  0  0  0  0  0  0
  140.3950   71.1330  224.1830 C   0  0  0  0  0  0  0  0  0  0  0  0
  140.9290   71.8550  225.2240 C   0  0  0  0  0  0  0  0  0  0  0  0
  141.0510   71.3610  226.5110 C   0  0  0  0  0  0  0  0  0  0  0  0
  140.5930   70.0590  226.7000 C   0  0  0  0  0  0  0  0  0  0  0  0
  140.7100   69.5540  227.9840 C   0  0  0  0  0  0  0  0  0  0  0  0
  140.2610   68.2620  228.1930 C   0  0  0  0  0  0  0  0  0  0  0  0
  140.3800   67.7770  229.4510 F   0  0  0  0  0  0  0  0  0  0  0  0
  139.7160   67.5010  227.1570 C   0  0  0  0  0  0  0  0  0  0  0  0
  139.6150   68.0390  225.8880 C   0  0  0  0  0  0  0  0  0  0  0  0
  140.0550   69.3240  225.6580 C   0  0  0  0  0  0  0  0  0  0  0  0
  139.9670   69.8780  224.4150 N   0  0  0  0  0  0  0  0  0  0  0  0
  142.5870   73.8410  220.3130 C   0  0  2  0  0  0  0  0  0  0  0  0
  142.2500   75.2120  219.7440 C   0  0  0  0  0  0  0  0  0  0  0  0
  142.1340   75.3950  218.5090 O   0  0  0  0  0  0  0  0  0  0  0  0
  142.0620   76.3050  220.6110 N   0  0  0  0  0  0  0  0  0  0  0  0
  141.7390   77.6460  220.2070 C   0  0  0  0  0  0  0  0  0  0  0  0
  141.8010   78.6480  221.2770 C   0  0  0  0  0  0  0  0  0  0  0  0
  141.4930   78.2240  222.5670 C   0  0  0  0  0  0  0  0  0  0  0  0
  141.5370   79.1250  223.6080 C   0  0  0  0  0  0  0  0  0  0  0  0
  141.8810   80.4510  223.4000 C   0  0  0  0  0  0  0  0  0  0  0  0
  141.9210   81.3390  224.4390 F   0  0  0  0  0  0  0  0  0  0  0  0
  142.1870   80.8850  222.1290 C   0  0  0  0  0  0  0  0  0  0  0  0
  142.1380   79.9710  221.1030 C   0  0  0  0  0  0  0  0  0  0  0  0
  144.0770   73.6850  220.5020 C   0  0  0  0  0  0  0  0  0  0  0  0
  145.7392   72.5803  221.4871 H   0  0  0  0  0  0  0  0  0  0  0  0
  147.3655   73.2887  221.2043 H   0  0  0  0  0  0  0  0  0  0  0  0
  145.9131   74.3457  221.2043 H   0  0  0  0  0  0  0  0  0  0  0  0
  144.8038   74.2836  218.5538 H   0  0  0  0  0  0  0  0  0  0  0  0
  144.7805   71.9460  217.6535 H   0  0  0  0  0  0  0  0  0  0  0  0
  144.1643   71.3402  219.1860 H   0  0  0  0  0  0  0  0  0  0  0  0
  142.8468   73.7122  217.6591 H   0  0  0  0  0  0  0  0  0  0  0  0
  142.2918   72.0755  217.4163 H   0  0  0  0  0  0  0  0  0  0  0  0
  139.6398   72.8487  220.7407 H   0  0  0  0  0  0  0  0  0  0  0  0
  139.1894   71.2505  219.8517 H   0  0  0  0  0  0  0  0  0  0  0  0
  139.6830   70.0500  221.7770 H   0  0  0  0  0  0  0  0  0  0  0  0
  141.2775   72.8789  225.0235 H   0  0  0  0  0  0  0  0  0  0  0  0
  141.4808   71.9566  227.3299 H   0  0  0  0  0  0  0  0  0  0  0  0
  141.1402   70.1526  228.8005 H   0  0  0  0  0  0  0  0  0  0  0  0
  139.3678   66.4756  227.3504 H   0  0  0  0  0  0  0  0  0  0  0  0
  139.1862   67.4452  225.0673 H   0  0  0  0  0  0  0  0  0  0  0  0
  142.0938   73.7619  221.2931 H   0  0  0  0  0  0  0  0  0  0  0  0
  142.1730   76.0930  221.6500 H   0  0  0  0  0  0  0  0  0  0  0  0
  142.4457   77.9445  219.4187 H   0  0  0  0  0  0  0  0  0  0  0  0
  140.6925   77.6216  219.8691 H   0  0  0  0  0  0  0  0  0  0  0  0
  141.2162   77.1759  222.7537 H   0  0  0  0  0  0  0  0  0  0  0  0
  141.2940   78.7848  224.6255 H   0  0  0  0  0  0  0  0  0  0  0  0
  142.4627   81.9330  221.9402 H   0  0  0  0  0  0  0  0  0  0  0  0
  142.3815   80.3161  220.0873 H   0  0  0  0  0  0  0  0  0  0  0  0
  144.4666   74.6110  220.9500 H   0  0  0  0  0  0  0  0  0  0  0  0
  144.2234   72.8053  221.1460 H   0  0  0  0  0  0  0  0  0  0  0  0
  1  2  1  0
  2  3  1  0
  3  4  1  0
  4  5  1  0
  5  6  1  0
  6  7  1  0
  7  8  2  0
  7  9  1  0
  9 10  1  0
 10 11  1  0
 11 12  2  0
 11 13  1  0
 13 14  2  0
 14 15  1  0
 15 16  2  0
 16 17  1  0
 17 18  2  0
 18 19  1  0
 18 20  1  0
 20 21  2  0
 21 22  1  0
 22 23  2  0
  6 24  1  0
 24 25  1  0
 25 26  2  0
 25 27  1  0
 27 28  1  0
 28 29  1  0
 29 30  2  0
 30 31  1  0
 31 32  2  0
 32 33  1  0
 32 34  1  0
 34 35  2  0
 24 36  1  0
 36  3  1  0
 23 13  1  0
 35 29  1  0
 22 16  1  0
  1 37  1  0
  1 38  1  0
  1 39  1  0
  3 40  1  6
  4 41  1  0
  4 42  1  0
  5 43  1  0
  5 44  1  0
  9 45  1  0
  9 46  1  0
 10 47  1  0
 14 48  1  0
 15 49  1  0
 17 50  1  0
 20 51  1  0
 21 52  1  0
 24 53  1  1
 27 54  1  0
 28 55  1  0
 28 56  1  0
 30 57  1  0
 31 58  1  0
 34 59  1  0
 35 60  1  0
 36 61  1  0
 36 62  1  0
M  END
>  <smiles>  (6) 
CO[C@H]1CCN(C(=O)CNC(=O)c2ccc3cc(F)ccc3n2)[C@H](C(=O)NCc2ccc(F)cc2)C1

>  <score_type>  (6) 
oracle

>  <origin>  (6) 
autodockgpu

>  <m_score__min__energy>  (6) 
-9.6500000000000004

>  <m_primary>  (6) 
energy

>  <rmsd>  (6) 
3.885725621408377

>  <m_score__min__rmsd>  (6) 
3.885725621408377

>  <meeko>  (6) 
{"free_energy": -9.65, "intermolecular_energy": -12.04, "internal_energy": -1.75, "cluster_size": 17, "cluster_id": 1, "rank_in_cluster": 1}

>  <energy>  (6) 
-9.16

>  <cluster_rmsd>  (6) 
1.15

>  <cluster>  (6) 
1

$$$$

     RDKit          3D

 62 65  0  0  0  0  0  0  0  0999 V2000
  144.4820   74.1840  220.4660 C   0  0  0  0  0  0  0  0  0  0  0  0
  143.3660   73.4710  220.8300 O   0  0  0  0  0  0  0  0  0  0  0  0
  142.2360   74.1520  220.3850 C   0  0  1  0  0  0  0  0  0  0  0  0
  141.3890   73.2690  219.4900 C   0  0  0  0  0  0  0  0  0  0  0  0
  140.2510   74.1880  219.0160 C   0  0  0  0  0  0  0  0  0  0  0  0
  139.4360   74.3530  220.2670 N   0  0  0  0  0  0  0  0  0  0  0  0
  138.1780   73.7740  220.2090 C   0  0  0  0  0  0  0  0  0  0  0  0
  137.6790   73.7800  218.9790 O   0  0  0  0  0  0  0  0  0  0  0  0
  137.2900   73.1740  221.1730 C   0  0  0  0  0  0  0  0  0  0  0  0
  137.7860   72.7400  222.4450 N   0  0  0  0  0  0  0  0  0  0  0  0
  138.7290   71.6510  222.4380 C   0  0  0  0  0  0  0  0  0  0  0  0
  139.0140   71.1930  221.3000 O   0  0  0  0  0  0  0  0  0  0  0  0
  139.3080   71.1190  223.6620 C   0  0  0  0  0  0  0  0  0  0  0  0
  140.2530   71.8840  224.3050 C   0  0  0  0  0  0  0  0  0  0  0  0
  140.8810   71.4960  225.4750 C   0  0  0  0  0  0  0  0  0  0  0  0
  140.4960   70.2560  225.9800 C   0  0  0  0  0  0  0  0  0  0  0  0
  141.1170   69.8560  227.1510 C   0  0  0  0  0  0  0  0  0  0  0  0
  140.7490   68.6270  227.6690 C   0  0  0  0  0  0  0  0  0  0  0  0
  141.3620   68.2450  228.8130 F   0  0  0  0  0  0  0  0  0  0  0  0
  139.7940   67.8260  227.0400 C   0  0  0  0  0  0  0  0  0  0  0  0
  139.1940   68.2570  225.8730 C   0  0  0  0  0  0  0  0  0  0  0  0
  139.5460   69.4780  225.3400 C   0  0  0  0  0  0  0  0  0  0  0  0
  138.9690   69.9270  224.1880 N   0  0  0  0  0  0  0  0  0  0  0  0
  140.0800   75.1210  221.2730 C   0  0  2  0  0  0  0  0  0  0  0  0
  140.2230   76.5750  220.8450 C   0  0  0  0  0  0  0  0  0  0  0  0
  139.2270   77.2540  220.4990 O   0  0  0  0  0  0  0  0  0  0  0  0
  141.4930   77.1810  220.8330 N   0  0  0  0  0  0  0  0  0  0  0  0
  141.7660   78.5400  220.4550 C   0  0  0  0  0  0  0  0  0  0  0  0
  141.8760   79.4840  221.5730 C   0  0  0  0  0  0  0  0  0  0  0  0
  142.1570   78.9560  222.8310 C   0  0  0  0  0  0  0  0  0  0  0  0
  142.2700   79.7990  223.9140 C   0  0  0  0  0  0  0  0  0  0  0  0
  142.1100   81.1690  223.7800 C   0  0  0  0  0  0  0  0  0  0  0  0
  142.2230   81.9990  224.8610 F   0  0  0  0  0  0  0  0  0  0  0  0
  141.8310   81.7060  222.5430 C   0  0  0  0  0  0  0  0  0  0  0  0
  141.7220   80.8480  221.4730 C   0  0  0  0  0  0  0  0  0  0  0  0
  141.4260   74.5150  221.5900 C   0  0  0  0  0  0  0  0  0  0  0  0
  145.0116   74.5223  221.3688 H   0  0  0  0  0  0  0  0  0  0  0  0
  145.1477   73.5435  219.8688 H   0  0  0  0  0  0  0  0  0  0  0  0
  144.1806   75.0572  219.8688 H   0  0  0  0  0  0  0  0  0  0  0  0
  142.5447   75.0394  219.8130 H   0  0  0  0  0  0  0  0  0  0  0  0
  141.9764   72.9035  218.6348 H   0  0  0  0  0  0  0  0  0  0  0  0
  141.0172   72.3751  220.0122 H   0  0  0  0  0  0  0  0  0  0  0  0
  140.6396   75.1545  218.6625 H   0  0  0  0  0  0  0  0  0  0  0  0
  139.6806   73.7833  218.1670 H   0  0  0  0  0  0  0  0  0  0  0  0
  136.5009   73.9126  221.3774 H   0  0  0  0  0  0  0  0  0  0  0  0
  136.9961   72.2321  220.6869 H   0  0  0  0  0  0  0  0  0  0  0  0
  137.5120   73.1580  223.3690 H   0  0  0  0  0  0  0  0  0  0  0  0
  140.5237   72.8555  223.8658 H   0  0  0  0  0  0  0  0  0  0  0  0
  141.6339   72.1245  225.9732 H   0  0  0  0  0  0  0  0  0  0  0  0
  141.8691   70.4869  227.6472 H   0  0  0  0  0  0  0  0  0  0  0  0
  139.5198   66.8528  227.4733 H   0  0  0  0  0  0  0  0  0  0  0  0
  138.4409   67.6304  225.3729 H   0  0  0  0  0  0  0  0  0  0  0  0
  139.4601   75.1060  222.1815 H   0  0  0  0  0  0  0  0  0  0  0  0
  142.3040   76.5570  221.1350 H   0  0  0  0  0  0  0  0  0  0  0  0
  142.7158   78.5558  219.9003 H   0  0  0  0  0  0  0  0  0  0  0  0
  140.9051   78.8716  219.8560 H   0  0  0  0  0  0  0  0  0  0  0  0
  142.2879   77.8713  222.9587 H   0  0  0  0  0  0  0  0  0  0  0  0
  142.4917   79.3765  224.9052 H   0  0  0  0  0  0  0  0  0  0  0  0
  141.6990   82.7904  222.4140 H   0  0  0  0  0  0  0  0  0  0  0  0
  141.4997   81.2753  220.4841 H   0  0  0  0  0  0  0  0  0  0  0  0
  141.9995   75.2411  222.1849 H   0  0  0  0  0  0  0  0  0  0  0  0
  141.2304   73.5783  222.1325 H   0  0  0  0  0  0  0  0  0  0  0  0
  1  2  1  0
  2  3  1  0
  3  4  1  0
  4  5  1  0
  5  6  1  0
  6  7  1  0
  7  8  2  0
  7  9  1  0
  9 10  1  0
 10 11  1  0
 11 12  2  0
 11 13  1  0
 13 14  2  0
 14 15  1  0
 15 16  2  0
 16 17  1  0
 17 18  2  0
 18 19  1  0
 18 20  1  0
 20 21  2  0
 21 22  1  0
 22 23  2  0
  6 24  1  0
 24 25  1  0
 25 26  2  0
 25 27  1  0
 27 28  1  0
 28 29  1  0
 29 30  2  0
 30 31  1  0
 31 32  2  0
 32 33  1  0
 32 34  1  0
 34 35  2  0
 24 36  1  0
 36  3  1  0
 23 13  1  0
 35 29  1  0
 22 16  1  0
  1 37  1  0
  1 38  1  0
  1 39  1  0
  3 40  1  6
  4 41  1  0
  4 42  1  0
  5 43  1  0
  5 44  1  0
  9 45  1  0
  9 46  1  0
 10 47  1  0
 14 48  1  0
 15 49  1  0
 17 50  1  0
 20 51  1  0
 21 52  1  0
 24 53  1  1
 27 54  1  0
 28 55  1  0
 28 56  1  0
 30 57  1  0
 31 58  1  0
 34 59  1  0
 35 60  1  0
 36 61  1  0
 36 62  1  0
M  END
>  <smiles>  (7) 
CO[C@H]1CCN(C(=O)CNC(=O)c2ccc3cc(F)ccc3n2)[C@H](C(=O)NCc2ccc(F)cc2)C1

>  <score_type>  (7) 
oracle

>  <origin>  (7) 
autodockgpu

>  <m_score__min__energy>  (7) 
-9.6500000000000004

>  <m_primary>  (7) 
energy

>  <rmsd>  (7) 
3.186203837621746

>  <m_score__min__rmsd>  (7) 
3.186203837621746

>  <meeko>  (7) 
{"free_energy": -8.52, "intermolecular_energy": -10.91, "internal_energy": -2.04, "cluster_size": 17, "cluster_id": 1, "rank_in_cluster": 12}

>  <energy>  (7) 
-9.1

>  <cluster_rmsd>  (7) 
0.68

>  <cluster>  (7) 
1

$$$$

     RDKit          3D

 62 65  0  0  0  0  0  0  0  0999 V2000
  146.3300   73.1210  221.3770 C   0  0  0  0  0  0  0  0  0  0  0  0
  146.1980   72.3820  220.2270 O   0  0  0  0  0  0  0  0  0  0  0  0
  144.9540   72.6550  219.6610 C   0  0  1  0  0  0  0  0  0  0  0  0
  144.0910   71.4100  219.6260 C   0  0  0  0  0  0  0  0  0  0  0  0
  142.8120   71.8540  218.8980 C   0  0  0  0  0  0  0  0  0  0  0  0
  142.1580   72.7400  219.9200 N   0  0  0  0  0  0  0  0  0  0  0  0
  140.9690   72.2420  220.4310 C   0  0  0  0  0  0  0  0  0  0  0  0
  140.8750   70.9260  220.2890 O   0  0  0  0  0  0  0  0  0  0  0  0
  139.8170   72.8230  221.0740 C   0  0  0  0  0  0  0  0  0  0  0  0
  139.9470   74.0150  221.8570 N   0  0  0  0  0  0  0  0  0  0  0  0
  140.0920   75.2530  221.1360 C   0  0  0  0  0  0  0  0  0  0  0  0
  140.0930   75.1490  219.8800 O   0  0  0  0  0  0  0  0  0  0  0  0
  140.2290   76.5340  221.8130 C   0  0  0  0  0  0  0  0  0  0  0  0
  139.1070   77.0650  222.4050 C   0  0  0  0  0  0  0  0  0  0  0  0
  139.1010   78.2740  223.0790 C   0  0  0  0  0  0  0  0  0  0  0  0
  140.3230   78.9410  223.1280 C   0  0  0  0  0  0  0  0  0  0  0  0
  140.3290   80.1500  223.8000 C   0  0  0  0  0  0  0  0  0  0  0  0
  141.5330   80.8290  223.8600 C   0  0  0  0  0  0  0  0  0  0  0  0
  141.5290   82.0110  224.5200 F   0  0  0  0  0  0  0  0  0  0  0  0
  142.6900   80.3180  223.2700 C   0  0  0  0  0  0  0  0  0  0  0  0
  142.6470   79.1060  222.6070 C   0  0  0  0  0  0  0  0  0  0  0  0
  141.4570   78.4140  222.5360 C   0  0  0  0  0  0  0  0  0  0  0  0
  141.3870   77.2160  221.8870 N   0  0  0  0  0  0  0  0  0  0  0  0
  142.8480   73.9610  220.1460 C   0  0  2  0  0  0  0  0  0  0  0  0
  142.7830   74.8620  218.9200 C   0  0  0  0  0  0  0  0  0  0  0  0
  143.2160   74.4810  217.8070 O   0  0  0  0  0  0  0  0  0  0  0  0
  142.2280   76.1510  219.0270 N   0  0  0  0  0  0  0  0  0  0  0  0
  142.1050   77.0980  217.9530 C   0  0  0  0  0  0  0  0  0  0  0  0
  141.9140   78.4900  218.3730 C   0  0  0  0  0  0  0  0  0  0  0  0
  140.8550   78.7580  219.2360 C   0  0  0  0  0  0  0  0  0  0  0  0
  140.6320   80.0490  219.6610 C   0  0  0  0  0  0  0  0  0  0  0  0
  141.4410   81.0940  219.2470 C   0  0  0  0  0  0  0  0  0  0  0  0
  141.2130   82.3730  219.6730 F   0  0  0  0  0  0  0  0  0  0  0  0
  142.4930   80.8450  218.3920 C   0  0  0  0  0  0  0  0  0  0  0  0
  142.6990   79.5500  217.9790 C   0  0  0  0  0  0  0  0  0  0  0  0
  144.2790   73.6710  220.5290 C   0  0  0  0  0  0  0  0  0  0  0  0
  146.2125   72.4634  222.2509 H   0  0  0  0  0  0  0  0  0  0  0  0
  147.3258   73.5878  221.4006 H   0  0  0  0  0  0  0  0  0  0  0  0
  145.5574   73.9037  221.4006 H   0  0  0  0  0  0  0  0  0  0  0  0
  145.0907   73.0174  218.6314 H   0  0  0  0  0  0  0  0  0  0  0  0
  144.5938   70.6029  219.0730 H   0  0  0  0  0  0  0  0  0  0  0  0
  143.8858   71.0128  220.6311 H   0  0  0  0  0  0  0  0  0  0  0  0
  143.0486   72.4113  217.9796 H   0  0  0  0  0  0  0  0  0  0  0  0
  142.1784   71.0177  218.5677 H   0  0  0  0  0  0  0  0  0  0  0  0
  139.0907   73.0459  220.2785 H   0  0  0  0  0  0  0  0  0  0  0  0
  139.5413   72.0644  221.8213 H   0  0  0  0  0  0  0  0  0  0  0  0
  139.9400   74.0460  222.9060 H   0  0  0  0  0  0  0  0  0  0  0  0
  138.1656   76.4997  222.3395 H   0  0  0  0  0  0  0  0  0  0  0  0
  138.1916   78.6811  223.5450 H   0  0  0  0  0  0  0  0  0  0  0  0
  139.4177   80.5534  224.2657 H   0  0  0  0  0  0  0  0  0  0  0  0
  143.6343   80.8787  223.3325 H   0  0  0  0  0  0  0  0  0  0  0  0
  143.5550   78.6970  222.1398 H   0  0  0  0  0  0  0  0  0  0  0  0
  142.3594   74.4966  220.9733 H   0  0  0  0  0  0  0  0  0  0  0  0
  141.8770   76.4230  219.9960 H   0  0  0  0  0  0  0  0  0  0  0  0
  143.0214   77.0472  217.3466 H   0  0  0  0  0  0  0  0  0  0  0  0
  141.1978   76.8171  217.3979 H   0  0  0  0  0  0  0  0  0  0  0  0
  140.1997   77.9429  219.5767 H   0  0  0  0  0  0  0  0  0  0  0  0
  139.7940   80.2543  220.3434 H   0  0  0  0  0  0  0  0  0  0  0  0
  143.1489   81.6591  218.0499 H   0  0  0  0  0  0  0  0  0  0  0  0
  143.5376   79.3497  217.2959 H   0  0  0  0  0  0  0  0  0  0  0  0
  144.8492   74.6097  220.4682 H   0  0  0  0  0  0  0  0  0  0  0  0
  144.2548   73.2514  221.5456 H   0  0  0  0  0  0  0  0  0  0  0  0
  1  2  1  0
  2  3  1  0
  3  4  1  0
  4  5  1  0
  5  6  1  0
  6  7  1  0
  7  8  2  0
  7  9  1  0
  9 10  1  0
 10 11  1  0
 11 12  2  0
 11 13  1  0
 13 14  2  0
 14 15  1  0
 15 16  2  0
 16 17  1  0
 17 18  2  0
 18 19  1  0
 18 20  1  0
 20 21  2  0
 21 22  1  0
 22 23  2  0
  6 24  1  0
 24 25  1  0
 25 26  2  0
 25 27  1  0
 27 28  1  0
 28 29  1  0
 29 30  2  0
 30 31  1  0
 31 32  2  0
 32 33  1  0
 32 34  1  0
 34 35  2  0
 24 36  1  0
 36  3  1  0
 23 13  1  0
 35 29  1  0
 22 16  1  0
  1 37  1  0
  1 38  1  0
  1 39  1  0
  3 40  1  6
  4 41  1  0
  4 42  1  0
  5 43  1  0
  5 44  1  0
  9 45  1  0
  9 46  1  0
 10 47  1  0
 14 48  1  0
 15 49  1  0
 17 50  1  0
 20 51  1  0
 21 52  1  0
 24 53  1  1
 27 54  1  0
 28 55  1  0
 28 56  1  0
 30 57  1  0
 31 58  1  0
 34 59  1  0
 35 60  1  0
 36 61  1  0
 36 62  1  0
M  END
>  <smiles>  (8) 
CO[C@H]1CCN(C(=O)CNC(=O)c2ccc3cc(F)ccc3n2)[C@H](C(=O)NCc2ccc(F)cc2)C1

>  <score_type>  (8) 
oracle

>  <origin>  (8) 
autodockgpu

>  <m_score__min__energy>  (8) 
-9.6500000000000004

>  <m_primary>  (8) 
energy

>  <rmsd>  (8) 
6.713319347012427

>  <m_score__min__rmsd>  (8) 
6.713319347012427

>  <meeko>  (8) 
{"free_energy": -6.5, "intermolecular_energy": -8.88, "internal_energy": -4.08, "cluster_size": 9, "cluster_id": 10, "rank_in_cluster": 9}

>  <energy>  (8) 
-8.97

>  <cluster_rmsd>  (8) 
1.05

>  <cluster>  (8) 
1

$$$$

     RDKit          3D

 62 65  0  0  0  0  0  0  0  0999 V2000
  145.5750   71.3250  219.3530 C   0  0  0  0  0  0  0  0  0  0  0  0
  145.8190   72.6300  219.0020 O   0  0  0  0  0  0  0  0  0  0  0  0
  144.6120   73.3260  219.0080 C   0  0  1  0  0  0  0  0  0  0  0  0
  143.4380   72.3720  219.0890 C   0  0  0  0  0  0  0  0  0  0  0  0
  142.2010   73.2810  218.9910 C   0  0  0  0  0  0  0  0  0  0  0  0
  142.2150   73.9780  220.3210 N   0  0  0  0  0  0  0  0  0  0  0  0
  141.1550   73.6460  221.1510 C   0  0  0  0  0  0  0  0  0  0  0  0
  141.4910   72.7300  222.0510 O   0  0  0  0  0  0  0  0  0  0  0  0
  139.7800   74.0640  221.2590 C   0  0  0  0  0  0  0  0  0  0  0  0
  139.4150   75.1460  222.1230 N   0  0  0  0  0  0  0  0  0  0  0  0
  139.4740   76.4720  221.5630 C   0  0  0  0  0  0  0  0  0  0  0  0
  139.8480   76.5340  220.3620 O   0  0  0  0  0  0  0  0  0  0  0  0
  139.1260   77.6550  222.3350 C   0  0  0  0  0  0  0  0  0  0  0  0
  140.1260   78.2620  223.0580 C   0  0  0  0  0  0  0  0  0  0  0  0
  139.9290   79.3920  223.8330 C   0  0  0  0  0  0  0  0  0  0  0  0
  138.6300   79.8950  223.8420 C   0  0  0  0  0  0  0  0  0  0  0  0
  138.4210   81.0250  224.6130 C   0  0  0  0  0  0  0  0  0  0  0  0
  137.1380   81.5400  224.6360 C   0  0  0  0  0  0  0  0  0  0  0  0
  136.9430   82.6460  225.3930 F   0  0  0  0  0  0  0  0  0  0  0  0
  136.1000   80.9490  223.9140 C   0  0  0  0  0  0  0  0  0  0  0  0
  136.3450   79.8210  223.1550 C   0  0  0  0  0  0  0  0  0  0  0  0
  137.6170   79.2910  223.1180 C   0  0  0  0  0  0  0  0  0  0  0  0
  137.8860   78.1780  222.3760 N   0  0  0  0  0  0  0  0  0  0  0  0
  143.2860   74.8970  220.4750 C   0  0  2  0  0  0  0  0  0  0  0  0
  143.1240   76.0890  219.5430 C   0  0  0  0  0  0  0  0  0  0  0  0
  143.6870   76.1230  218.4230 O   0  0  0  0  0  0  0  0  0  0  0  0
  142.3290   77.1830  219.9340 N   0  0  0  0  0  0  0  0  0  0  0  0
  142.0910   78.3640  219.1520 C   0  0  0  0  0  0  0  0  0  0  0  0
  141.8510   79.5850  219.9300 C   0  0  0  0  0  0  0  0  0  0  0  0
  141.2360   80.6490  219.2750 C   0  0  0  0  0  0  0  0  0  0  0  0
  140.9870   81.8180  219.9600 C   0  0  0  0  0  0  0  0  0  0  0  0
  141.3360   81.9600  221.2930 C   0  0  0  0  0  0  0  0  0  0  0  0
  141.0860   83.1240  221.9650 F   0  0  0  0  0  0  0  0  0  0  0  0
  141.9450   80.9160  221.9540 C   0  0  0  0  0  0  0  0  0  0  0  0
  142.1860   79.7580  221.2540 C   0  0  0  0  0  0  0  0  0  0  0  0
  144.5990   74.1920  220.2290 C   0  0  0  0  0  0  0  0  0  0  0  0
  145.5586   71.2371  220.4494 H   0  0  0  0  0  0  0  0  0  0  0  0
  144.6026   71.0113  218.9454 H   0  0  0  0  0  0  0  0  0  0  0  0
  146.3683   70.6812  218.9454 H   0  0  0  0  0  0  0  0  0  0  0  0
  144.5236   73.9150  218.0832 H   0  0  0  0  0  0  0  0  0  0  0  0
  143.4610   71.6544  218.2557 H   0  0  0  0  0  0  0  0  0  0  0  0
  143.4467   71.7728  220.0114 H   0  0  0  0  0  0  0  0  0  0  0  0
  142.2979   73.9989  218.1632 H   0  0  0  0  0  0  0  0  0  0  0  0
  141.2673   72.7364  218.7871 H   0  0  0  0  0  0  0  0  0  0  0  0
  139.4560   74.3462  220.2464 H   0  0  0  0  0  0  0  0  0  0  0  0
  139.2941   73.1967  221.7299 H   0  0  0  0  0  0  0  0  0  0  0  0
  139.1100   75.0380  223.1220 H   0  0  0  0  0  0  0  0  0  0  0  0
  141.1355   77.8268  223.0184 H   0  0  0  0  0  0  0  0  0  0  0  0
  140.7439   79.8614  224.4036 H   0  0  0  0  0  0  0  0  0  0  0  0
  139.2384   81.4923  225.1817 H   0  0  0  0  0  0  0  0  0  0  0  0
  135.0888   81.3805  223.9493 H   0  0  0  0  0  0  0  0  0  0  0  0
  135.5313   79.3494  222.5845 H   0  0  0  0  0  0  0  0  0  0  0  0
  143.2762   75.2826  221.5052 H   0  0  0  0  0  0  0  0  0  0  0  0
  141.8750   77.1020  220.8960 H   0  0  0  0  0  0  0  0  0  0  0  0
  142.9706   78.5335  218.5136 H   0  0  0  0  0  0  0  0  0  0  0  0
  141.1685   78.1755  218.5833 H   0  0  0  0  0  0  0  0  0  0  0  0
  140.9507   80.5565  218.2167 H   0  0  0  0  0  0  0  0  0  0  0  0
  140.5013   82.6555  219.4379 H   0  0  0  0  0  0  0  0  0  0  0  0
  142.2304   81.0066  223.0124 H   0  0  0  0  0  0  0  0  0  0  0  0
  142.6731   78.9240  221.7804 H   0  0  0  0  0  0  0  0  0  0  0  0
  145.3845   74.9543  220.1195 H   0  0  0  0  0  0  0  0  0  0  0  0
  144.7666   73.5273  221.0893 H   0  0  0  0  0  0  0  0  0  0  0  0
  1  2  1  0
  2  3  1  0
  3  4  1  0
  4  5  1  0
  5  6  1  0
  6  7  1  0
  7  8  2  0
  7  9  1  0
  9 10  1  0
 10 11  1  0
 11 12  2  0
 11 13  1  0
 13 14  2  0
 14 15  1  0
 15 16  2  0
 16 17  1  0
 17 18  2  0
 18 19  1  0
 18 20  1  0
 20 21  2  0
 21 22  1  0
 22 23  2  0
  6 24  1  0
 24 25  1  0
 25 26  2  0
 25 27  1  0
 27 28  1  0
 28 29  1  0
 29 30  2  0
 30 31  1  0
 31 32  2  0
 32 33  1  0
 32 34  1  0
 34 35  2  0
 24 36  1  0
 36  3  1  0
 23 13  1  0
 35 29  1  0
 22 16  1  0
  1 37  1  0
  1 38  1  0
  1 39  1  0
  3 40  1  6
  4 41  1  0
  4 42  1  0
  5 43  1  0
  5 44  1  0
  9 45  1  0
  9 46  1  0
 10 47  1  0
 14 48  1  0
 15 49  1  0
 17 50  1  0
 20 51  1  0
 21 52  1  0
 24 53  1  1
 27 54  1  0
 28 55  1  0
 28 56  1  0
 30 57  1  0
 31 58  1  0
 34 59  1  0
 35 60  1  0
 36 61  1  0
 36 62  1  0
M  END
>  <smiles>  (9) 
CO[C@H]1CCN(C(=O)CNC(=O)c2ccc3cc(F)ccc3n2)[C@H](C(=O)NCc2ccc(F)cc2)C1

>  <score_type>  (9) 
oracle

>  <origin>  (9) 
autodockgpu

>  <m_score__min__energy>  (9) 
-9.6500000000000004

>  <m_primary>  (9) 
energy

>  <rmsd>  (9) 
6.971043761559254

>  <m_score__min__rmsd>  (9) 
6.971043761559254

>  <meeko>  (9) 
{"free_energy": -7.07, "intermolecular_energy": -9.46, "internal_energy": -3.23, "cluster_size": 9, "cluster_id": 10, "rank_in_cluster": 5}

>  <energy>  (9) 
-8.81

>  <cluster_rmsd>  (9) 
1.24

>  <cluster>  (9) 
1

$$$$

     RDKit          3D

 62 65  0  0  0  0  0  0  0  0999 V2000
  146.0380   72.9370  220.4060 C   0  0  0  0  0  0  0  0  0  0  0  0
  145.5880   72.8930  219.1090 O   0  0  0  0  0  0  0  0  0  0  0  0
  144.4600   73.7040  219.0000 C   0  0  1  0  0  0  0  0  0  0  0  0
  143.3230   72.9590  218.3290 C   0  0  0  0  0  0  0  0  0  0  0  0
  142.2050   74.0080  218.2020 C   0  0  0  0  0  0  0  0  0  0  0  0
  141.7620   74.1710  219.6280 N   0  0  0  0  0  0  0  0  0  0  0  0
  140.4770   73.7170  219.8820 C   0  0  0  0  0  0  0  0  0  0  0  0
  139.6430   74.7090  220.1720 O   0  0  0  0  0  0  0  0  0  0  0  0
  139.8430   72.4230  219.9070 C   0  0  0  0  0  0  0  0  0  0  0  0
  140.0040   71.5570  221.0370 N   0  0  0  0  0  0  0  0  0  0  0  0
  139.8440   72.1510  222.3390 C   0  0  0  0  0  0  0  0  0  0  0  0
  139.5810   73.3820  222.3410 O   0  0  0  0  0  0  0  0  0  0  0  0
  139.9790   71.3790  223.5650 C   0  0  0  0  0  0  0  0  0  0  0  0
  139.5850   70.0620  223.5360 C   0  0  0  0  0  0  0  0  0  0  0  0
  139.6600   69.2190  224.6310 C   0  0  0  0  0  0  0  0  0  0  0  0
  140.1700   69.7910  225.7950 C   0  0  0  0  0  0  0  0  0  0  0  0
  140.2500   68.9570  226.8970 C   0  0  0  0  0  0  0  0  0  0  0  0
  140.7530   69.5060  228.0630 C   0  0  0  0  0  0  0  0  0  0  0  0
  140.8280   68.6830  229.1360 F   0  0  0  0  0  0  0  0  0  0  0  0
  141.1620   70.8390  228.1270 C   0  0  0  0  0  0  0  0  0  0  0  0
  141.0670   71.6420  227.0060 C   0  0  0  0  0  0  0  0  0  0  0  0
  140.5690   71.1150  225.8340 C   0  0  0  0  0  0  0  0  0  0  0  0
  140.4650   71.8860  224.7130 N   0  0  0  0  0  0  0  0  0  0  0  0
  142.7210   74.8120  220.4560 C   0  0  2  0  0  0  0  0  0  0  0  0
  142.9020   76.2700  220.0570 C   0  0  0  0  0  0  0  0  0  0  0  0
  144.0280   76.7260  219.7450 O   0  0  0  0  0  0  0  0  0  0  0  0
  141.7920   77.1350  220.0340 N   0  0  0  0  0  0  0  0  0  0  0  0
  141.8240   78.5260  219.6760 C   0  0  0  0  0  0  0  0  0  0  0  0
  141.8830   79.4570  220.8080 C   0  0  0  0  0  0  0  0  0  0  0  0
  142.1340   78.9170  222.0670 C   0  0  0  0  0  0  0  0  0  0  0  0
  142.2000   79.7470  223.1640 C   0  0  0  0  0  0  0  0  0  0  0  0
  142.0210   81.1160  223.0430 C   0  0  0  0  0  0  0  0  0  0  0  0
  142.0870   81.9330  224.1370 F   0  0  0  0  0  0  0  0  0  0  0  0
  141.7710   81.6650  221.8050 C   0  0  0  0  0  0  0  0  0  0  0  0
  141.7090   80.8200  220.7210 C   0  0  0  0  0  0  0  0  0  0  0  0
  144.0310   74.0650  220.3880 C   0  0  0  0  0  0  0  0  0  0  0  0
  145.1835   72.8534  221.0936 H   0  0  0  0  0  0  0  0  0  0  0  0
  146.7328   72.1025  220.5815 H   0  0  0  0  0  0  0  0  0  0  0  0
  146.5580   73.8903  220.5815 H   0  0  0  0  0  0  0  0  0  0  0  0
  144.7026   74.5928  218.3990 H   0  0  0  0  0  0  0  0  0  0  0  0
  143.6283   72.5927  217.3377 H   0  0  0  0  0  0  0  0  0  0  0  0
  143.0060   72.0734  218.8992 H   0  0  0  0  0  0  0  0  0  0  0  0
  142.5897   74.9539  217.7929 H   0  0  0  0  0  0  0  0  0  0  0  0
  141.3957   73.7114  217.5186 H   0  0  0  0  0  0  0  0  0  0  0  0
  138.7629   72.5989  219.7959 H   0  0  0  0  0  0  0  0  0  0  0  0
  140.3589   71.8787  219.1022 H   0  0  0  0  0  0  0  0  0  0  0  0
  140.2260   70.5320  220.9790 H   0  0  0  0  0  0  0  0  0  0  0  0
  139.1894   69.6571  222.5928 H   0  0  0  0  0  0  0  0  0  0  0  0
  139.3386   68.1680  224.5856 H   0  0  0  0  0  0  0  0  0  0  0  0
  139.9284   67.9062  226.8478 H   0  0  0  0  0  0  0  0  0  0  0  0
  141.5589   71.2494  229.0672 H   0  0  0  0  0  0  0  0  0  0  0  0
  141.3865   72.6937  227.0490 H   0  0  0  0  0  0  0  0  0  0  0  0
  142.3579   74.7987  221.4943 H   0  0  0  0  0  0  0  0  0  0  0  0
  140.8600   76.6950  220.3100 H   0  0  0  0  0  0  0  0  0  0  0  0
  142.7108   78.6962  219.0478 H   0  0  0  0  0  0  0  0  0  0  0  0
  140.8755   78.7317  219.1583 H   0  0  0  0  0  0  0  0  0  0  0  0
  142.2788   77.8329  222.1846 H   0  0  0  0  0  0  0  0  0  0  0  0
  142.3987   79.3149  224.1558 H   0  0  0  0  0  0  0  0  0  0  0  0
  141.6250   82.7488  221.6861 H   0  0  0  0  0  0  0  0  0  0  0  0
  141.5097   81.2570  219.7314 H   0  0  0  0  0  0  0  0  0  0  0  0
  144.8118   74.6963  220.8372 H   0  0  0  0  0  0  0  0  0  0  0  0
  143.8840   73.1189  220.9296 H   0  0  0  0  0  0  0  0  0  0  0  0
  1  2  1  0
  2  3  1  0
  3  4  1  0
  4  5  1  0
  5  6  1  0
  6  7  1  0
  7  8  2  0
  7  9  1  0
  9 10  1  0
 10 11  1  0
 11 12  2  0
 11 13  1  0
 13 14  2  0
 14 15  1  0
 15 16  2  0
 16 17  1  0
 17 18  2  0
 18 19  1  0
 18 20  1  0
 20 21  2  0
 21 22  1  0
 22 23  2  0
  6 24  1  0
 24 25  1  0
 25 26  2  0
 25 27  1  0
 27 28  1  0
 28 29  1  0
 29 30  2  0
 30 31  1  0
 31 32  2  0
 32 33  1  0
 32 34  1  0
 34 35  2  0
 24 36  1  0
 36  3  1  0
 23 13  1  0
 35 29  1  0
 22 16  1  0
  1 37  1  0
  1 38  1  0
  1 39  1  0
  3 40  1  6
  4 41  1  0
  4 42  1  0
  5 43  1  0
  5 44  1  0
  9 45  1  0
  9 46  1  0
 10 47  1  0
 14 48  1  0
 15 49  1  0
 17 50  1  0
 20 51  1  0
 21 52  1  0
 24 53  1  1
 27 54  1  0
 28 55  1  0
 28 56  1  0
 30 57  1  0
 31 58  1  0
 34 59  1  0
 35 60  1  0
 36 61  1  0
 36 62  1  0
M  END
>  <smiles>  (10) 
CO[C@H]1CCN(C(=O)CNC(=O)c2ccc3cc(F)ccc3n2)[C@H](C(=O)NCc2ccc(F)cc2)C1

>  <score_type>  (10) 
oracle

>  <origin>  (10) 
autodockgpu

>  <m_score__min__energy>  (10) 
-9.6500000000000004

>  <m_primary>  (10) 
energy

>  <rmsd>  (10) 
3.032883801610211

>  <m_score__min__rmsd>  (10) 
3.032883801610211

>  <meeko>  (10) 
{"free_energy": -8.81, "intermolecular_energy": -11.2, "internal_energy": -1.96, "cluster_size": 17, "cluster_id": 1, "rank_in_cluster": 9}

>  <energy>  (10) 
-8.75

>  <cluster_rmsd>  (10) 
1.34

>  <cluster>  (10) 
1

$$$$

     RDKit          3D

 62 65  0  0  0  0  0  0  0  0999 V2000
  142.9690   77.6110  216.1920 C   0  0  0  0  0  0  0  0  0  0  0  0
  143.1260   76.2690  216.4410 O   0  0  0  0  0  0  0  0  0  0  0  0
  142.2860   75.9090  217.4930 C   0  0  1  0  0  0  0  0  0  0  0  0
  141.6900   74.5350  217.2620 C   0  0  0  0  0  0  0  0  0  0  0  0
  140.7300   74.3330  218.4460 C   0  0  0  0  0  0  0  0  0  0  0  0
  141.6810   74.1460  219.5950 N   0  0  0  0  0  0  0  0  0  0  0  0
  141.6650   72.8750  220.1480 C   0  0  0  0  0  0  0  0  0  0  0  0
  142.8790   72.4610  220.4890 O   0  0  0  0  0  0  0  0  0  0  0  0
  140.6380   71.9040  220.4350 C   0  0  0  0  0  0  0  0  0  0  0  0
  140.6820   71.1360  221.6430 N   0  0  0  0  0  0  0  0  0  0  0  0
  140.5310   71.8600  222.8790 C   0  0  0  0  0  0  0  0  0  0  0  0
  140.3790   73.1050  222.7590 O   0  0  0  0  0  0  0  0  0  0  0  0
  140.5540   71.1970  224.1730 C   0  0  0  0  0  0  0  0  0  0  0  0
  141.0320   71.9110  225.2470 C   0  0  0  0  0  0  0  0  0  0  0  0
  141.1090   71.3990  226.5310 C   0  0  0  0  0  0  0  0  0  0  0  0
  140.6640   70.0880  226.6810 C   0  0  0  0  0  0  0  0  0  0  0  0
  140.7350   69.5650  227.9610 C   0  0  0  0  0  0  0  0  0  0  0  0
  140.2990   68.2630  228.1320 C   0  0  0  0  0  0  0  0  0  0  0  0
  140.3720   67.7600  229.3860 F   0  0  0  0  0  0  0  0  0  0  0  0
  139.8080   67.5100  227.0630 C   0  0  0  0  0  0  0  0  0  0  0  0
  139.7520   68.0650  225.7990 C   0  0  0  0  0  0  0  0  0  0  0  0
  140.1810   69.3610  225.6070 C   0  0  0  0  0  0  0  0  0  0  0  0
  140.1360   69.9320  224.3690 N   0  0  0  0  0  0  0  0  0  0  0  0
  142.3930   75.3230  219.9460 C   0  0  2  0  0  0  0  0  0  0  0  0
  141.4610   76.3740  220.5310 C   0  0  0  0  0  0  0  0  0  0  0  0
  141.3420   77.5060  220.0060 O   0  0  0  0  0  0  0  0  0  0  0  0
  140.7100   76.0820  221.6860 N   0  0  0  0  0  0  0  0  0  0  0  0
  139.7950   76.9790  222.3370 C   0  0  0  0  0  0  0  0  0  0  0  0
  140.3820   78.2480  222.7820 C   0  0  0  0  0  0  0  0  0  0  0  0
  141.6550   78.2000  223.3460 C   0  0  0  0  0  0  0  0  0  0  0  0
  142.2510   79.3630  223.7800 C   0  0  0  0  0  0  0  0  0  0  0  0
  141.6110   80.5870  223.6670 C   0  0  0  0  0  0  0  0  0  0  0  0
  142.2100   81.7370  224.1010 F   0  0  0  0  0  0  0  0  0  0  0  0
  140.3520   80.6500  223.1120 C   0  0  0  0  0  0  0  0  0  0  0  0
  139.7720   79.4780  222.6840 C   0  0  0  0  0  0  0  0  0  0  0  0
  143.1200   75.8570  218.7350 C   0  0  0  0  0  0  0  0  0  0  0  0
  142.9053   78.1558  217.1455 H   0  0  0  0  0  0  0  0  0  0  0  0
  143.8301   77.9802  215.6156 H   0  0  0  0  0  0  0  0  0  0  0  0
  142.0460   77.7714  215.6156 H   0  0  0  0  0  0  0  0  0  0  0  0
  141.4671   76.6387  217.5760 H   0  0  0  0  0  0  0  0  0  0  0  0
  141.1439   74.5026  216.3077 H   0  0  0  0  0  0  0  0  0  0  0  0
  142.4570   73.7487  217.2041 H   0  0  0  0  0  0  0  0  0  0  0  0
  140.0907   75.2154  218.5965 H   0  0  0  0  0  0  0  0  0  0  0  0
  140.0303   73.4952  218.3101 H   0  0  0  0  0  0  0  0  0  0  0  0
  139.6823   72.4486  220.4423 H   0  0  0  0  0  0  0  0  0  0  0  0
  140.7892   71.1450  219.6533 H   0  0  0  0  0  0  0  0  0  0  0  0
  140.8130   70.0950  221.6860 H   0  0  0  0  0  0  0  0  0  0  0  0
  141.3711   72.9435  225.0767 H   0  0  0  0  0  0  0  0  0  0  0  0
  141.4956   71.9880  227.3757 H   0  0  0  0  0  0  0  0  0  0  0  0
  141.1205   70.1576  228.8037 H   0  0  0  0  0  0  0  0  0  0  0  0
  139.4666   66.4773  227.2271 H   0  0  0  0  0  0  0  0  0  0  0  0
  139.3680   67.4772  224.9522 H   0  0  0  0  0  0  0  0  0  0  0  0
  143.1313   75.0718  220.7218 H   0  0  0  0  0  0  0  0  0  0  0  0
  140.8510   75.1050  222.0920 H   0  0  0  0  0  0  0  0  0  0  0  0
  138.9818   77.2076  221.6324 H   0  0  0  0  0  0  0  0  0  0  0  0
  139.4528   76.4629  223.2461 H   0  0  0  0  0  0  0  0  0  0  0  0
  142.1809   77.2388  223.4440 H   0  0  0  0  0  0  0  0  0  0  0  0
  143.2558   79.3196  224.2255 H   0  0  0  0  0  0  0  0  0  0  0  0
  139.8249   81.6105  223.0137 H   0  0  0  0  0  0  0  0  0  0  0  0
  138.7669   79.5266  222.2397 H   0  0  0  0  0  0  0  0  0  0  0  0
  143.4655   76.8765  218.9616 H   0  0  0  0  0  0  0  0  0  0  0  0
  143.9481   75.1622  218.5312 H   0  0  0  0  0  0  0  0  0  0  0  0
  1  2  1  0
  2  3  1  0
  3  4  1  0
  4  5  1  0
  5  6  1  0
  6  7  1  0
  7  8  2  0
  7  9  1  0
  9 10  1  0
 10 11  1  0
 11 12  2  0
 11 13  1  0
 13 14  2  0
 14 15  1  0
 15 16  2  0
 16 17  1  0
 17 18  2  0
 18 19  1  0
 18 20  1  0
 20 21  2  0
 21 22  1  0
 22 23  2  0
  6 24  1  0
 24 25  1  0
 25 26  2  0
 25 27  1  0
 27 28  1  0
 28 29  1  0
 29 30  2  0
 30 31  1  0
 31 32  2  0
 32 33  1  0
 32 34  1  0
 34 35  2  0
 24 36  1  0
 36  3  1  0
 23 13  1  0
 35 29  1  0
 22 16  1  0
  1 37  1  0
  1 38  1  0
  1 39  1  0
  3 40  1  1
  4 41  1  0
  4 42  1  0
  5 43  1  0
  5 44  1  0
  9 45  1  0
  9 46  1  0
 10 47  1  0
 14 48  1  0
 15 49  1  0
 17 50  1  0
 20 51  1  0
 21 52  1  0
 24 53  1  1
 27 54  1  0
 28 55  1  0
 28 56  1  0
 30 57  1  0
 31 58  1  0
 34 59  1  0
 35 60  1  0
 36 61  1  0
 36 62  1  0
M  END
>  <smiles>  (11) 
CO[C@H]1CCN(C(=O)CNC(=O)c2ccc3cc(F)ccc3n2)[C@H](C(=O)NCc2ccc(F)cc2)C1

>  <score_type>  (11) 
oracle

>  <origin>  (11) 
autodockgpu

>  <m_score__min__energy>  (11) 
-9.6500000000000004

>  <m_primary>  (11) 
energy

>  <rmsd>  (11) 
3.301478815269398

>  <m_score__min__rmsd>  (11) 
3.301478815269398

>  <meeko>  (11) 
{"free_energy": -8.0, "intermolecular_energy": -10.38, "internal_energy": -2.65, "cluster_size": 17, "cluster_id": 1, "rank_in_cluster": 16}

>  <energy>  (11) 
-8.52

>  <cluster_rmsd>  (11) 
1.97

>  <cluster>  (11) 
1

$$$$

     RDKit          3D

 62 65  0  0  0  0  0  0  0  0999 V2000
  146.2400   73.3900  221.1780 C   0  0  0  0  0  0  0  0  0  0  0  0
  146.1040   73.2810  219.8160 O   0  0  0  0  0  0  0  0  0  0  0  0
  144.8630   73.7970  219.4490 C   0  0  1  0  0  0  0  0  0  0  0  0
  144.0740   72.7860  218.6410 C   0  0  0  0  0  0  0  0  0  0  0  0
  142.7920   73.5350  218.2410 C   0  0  0  0  0  0  0  0  0  0  0  0
  142.0600   73.6290  219.5490 N   0  0  0  0  0  0  0  0  0  0  0  0
  140.8880   72.8910  219.6020 C   0  0  0  0  0  0  0  0  0  0  0  0
  140.8410   71.9580  218.6590 O   0  0  0  0  0  0  0  0  0  0  0  0
  139.7150   72.9060  220.4390 C   0  0  0  0  0  0  0  0  0  0  0  0
  138.9970   74.1250  220.6620 N   0  0  0  0  0  0  0  0  0  0  0  0
  139.4790   74.9800  221.7160 C   0  0  0  0  0  0  0  0  0  0  0  0
  140.4900   74.5540  222.3350 O   0  0  0  0  0  0  0  0  0  0  0  0
  138.8390   76.2460  222.0410 C   0  0  0  0  0  0  0  0  0  0  0  0
  137.5480   76.4380  221.6070 C   0  0  0  0  0  0  0  0  0  0  0  0
  136.8270   77.5940  221.8480 C   0  0  0  0  0  0  0  0  0  0  0  0
  137.4960   78.5790  222.5710 C   0  0  0  0  0  0  0  0  0  0  0  0
  136.7850   79.7410  222.8180 C   0  0  0  0  0  0  0  0  0  0  0  0
  137.4310   80.7320  223.5340 C   0  0  0  0  0  0  0  0  0  0  0  0
  136.7280   81.8640  223.7710 F   0  0  0  0  0  0  0  0  0  0  0  0
  138.7420   80.5700  223.9880 C   0  0  0  0  0  0  0  0  0  0  0  0
  139.4210   79.3960  223.7220 C   0  0  0  0  0  0  0  0  0  0  0  0
  138.7950   78.3950  223.0110 C   0  0  0  0  0  0  0  0  0  0  0  0
  139.4440   77.2280  222.7350 N   0  0  0  0  0  0  0  0  0  0  0  0
  142.6720   74.5030  220.4860 C   0  0  2  0  0  0  0  0  0  0  0  0
  142.5900   75.9500  220.0220 C   0  0  0  0  0  0  0  0  0  0  0  0
  143.2720   76.3650  219.0540 O   0  0  0  0  0  0  0  0  0  0  0  0
  141.7350   76.8520  220.6830 N   0  0  0  0  0  0  0  0  0  0  0  0
  141.5610   78.2380  220.3460 C   0  0  0  0  0  0  0  0  0  0  0  0
  141.8340   79.1800  221.4370 C   0  0  0  0  0  0  0  0  0  0  0  0
  141.5820   80.5290  221.1950 C   0  0  0  0  0  0  0  0  0  0  0  0
  141.8210   81.4550  222.1860 C   0  0  0  0  0  0  0  0  0  0  0  0
  142.3080   81.0740  223.4250 C   0  0  0  0  0  0  0  0  0  0  0  0
  142.5440   82.0000  224.4030 F   0  0  0  0  0  0  0  0  0  0  0  0
  142.5630   79.7440  223.6800 C   0  0  0  0  0  0  0  0  0  0  0  0
  142.3190   78.8350  222.6780 C   0  0  0  0  0  0  0  0  0  0  0  0
  144.1060   74.0860  220.7080 C   0  0  0  0  0  0  0  0  0  0  0  0
  145.4736   72.7758  221.6733 H   0  0  0  0  0  0  0  0  0  0  0  0
  147.2394   73.0399  221.4759 H   0  0  0  0  0  0  0  0  0  0  0  0
  146.1160   74.4416  221.4759 H   0  0  0  0  0  0  0  0  0  0  0  0
  145.0078   74.7001  218.8380 H   0  0  0  0  0  0  0  0  0  0  0  0
  144.6377   72.4749  217.7491 H   0  0  0  0  0  0  0  0  0  0  0  0
  143.8638   71.8672  219.2082 H   0  0  0  0  0  0  0  0  0  0  0  0
  143.0217   74.5331  217.8396 H   0  0  0  0  0  0  0  0  0  0  0  0
  142.2171   73.0350  217.4476 H   0  0  0  0  0  0  0  0  0  0  0  0
  139.0014   72.1967  219.9943 H   0  0  0  0  0  0  0  0  0  0  0  0
  140.1186   72.6707  221.4349 H   0  0  0  0  0  0  0  0  0  0  0  0
  138.1550   74.4320  220.1140 H   0  0  0  0  0  0  0  0  0  0  0  0
  137.0635   75.6304  221.0387 H   0  0  0  0  0  0  0  0  0  0  0  0
  135.7945   77.7264  221.4925 H   0  0  0  0  0  0  0  0  0  0  0  0
  135.7527   79.8701  222.4607 H   0  0  0  0  0  0  0  0  0  0  0  0
  139.2326   81.3745  224.5556 H   0  0  0  0  0  0  0  0  0  0  0  0
  140.4540   79.2615  224.0753 H   0  0  0  0  0  0  0  0  0  0  0  0
  142.1294   74.4339  221.4404 H   0  0  0  0  0  0  0  0  0  0  0  0
  141.1800   76.4470  221.4990 H   0  0  0  0  0  0  0  0  0  0  0  0
  142.2395   78.4745  219.5131 H   0  0  0  0  0  0  0  0  0  0  0  0
  140.4980   78.3616  220.0917 H   0  0  0  0  0  0  0  0  0  0  0  0
  141.1943   80.8525  220.2178 H   0  0  0  0  0  0  0  0  0  0  0  0
  141.6210   82.5186  221.9893 H   0  0  0  0  0  0  0  0  0  0  0  0
  142.9505   79.4191  224.6569 H   0  0  0  0  0  0  0  0  0  0  0  0
  142.5227   77.7729  222.8792 H   0  0  0  0  0  0  0  0  0  0  0  0
  144.6223   74.8970  221.2425 H   0  0  0  0  0  0  0  0  0  0  0  0
  144.0772   73.1480  221.2819 H   0  0  0  0  0  0  0  0  0  0  0  0
  1  2  1  0
  2  3  1  0
  3  4  1  0
  4  5  1  0
  5  6  1  0
  6  7  1  0
  7  8  2  0
  7  9  1  0
  9 10  1  0
 10 11  1  0
 11 12  2  0
 11 13  1  0
 13 14  2  0
 14 15  1  0
 15 16  2  0
 16 17  1  0
 17 18  2  0
 18 19  1  0
 18 20  1  0
 20 21  2  0
 21 22  1  0
 22 23  2  0
  6 24  1  0
 24 25  1  0
 25 26  2  0
 25 27  1  0
 27 28  1  0
 28 29  1  0
 29 30  2  0
 30 31  1  0
 31 32  2  0
 32 33  1  0
 32 34  1  0
 34 35  2  0
 24 36  1  0
 36  3  1  0
 23 13  1  0
 35 29  1  0
 22 16  1  0
  1 37  1  0
  1 38  1  0
  1 39  1  0
  3 40  1  6
  4 41  1  0
  4 42  1  0
  5 43  1  0
  5 44  1  0
  9 45  1  0
  9 46  1  0
 10 47  1  0
 14 48  1  0
 15 49  1  0
 17 50  1  0
 20 51  1  0
 21 52  1  0
 24 53  1  1
 27 54  1  0
 28 55  1  0
 28 56  1  0
 30 57  1  0
 31 58  1  0
 34 59  1  0
 35 60  1  0
 36 61  1  0
 36 62  1  0
M  END
>  <smiles>  (12) 
CO[C@H]1CCN(C(=O)CNC(=O)c2ccc3cc(F)ccc3n2)[C@H](C(=O)NCc2ccc(F)cc2)C1

>  <score_type>  (12) 
oracle

>  <origin>  (12) 
autodockgpu

>  <m_score__min__energy>  (12) 
-9.6500000000000004

>  <m_primary>  (12) 
energy

>  <rmsd>  (12) 
6.547265596879592

>  <m_score__min__rmsd>  (12) 
6.547265596879592

>  <meeko>  (12) 
{"free_energy": -7.07, "intermolecular_energy": -9.46, "internal_energy": -3.98, "cluster_size": 9, "cluster_id": 10, "rank_in_cluster": 4}

>  <energy>  (12) 
-8.52

>  <cluster_rmsd>  (12) 
1.96

>  <cluster>  (12) 
1

$$$$

     RDKit          3D

 62 65  0  0  0  0  0  0  0  0999 V2000
  146.2790   73.3760  220.9420 C   0  0  0  0  0  0  0  0  0  0  0  0
  146.0340   73.2000  219.6010 O   0  0  0  0  0  0  0  0  0  0  0  0
  144.8060   73.7800  219.2920 C   0  0  1  0  0  0  0  0  0  0  0  0
  143.9430   72.8230  218.4930 C   0  0  0  0  0  0  0  0  0  0  0  0
  142.6830   73.6390  218.1580 C   0  0  0  0  0  0  0  0  0  0  0  0
  142.0030   73.7350  219.4940 N   0  0  0  0  0  0  0  0  0  0  0  0
  140.8020   73.0490  219.5750 C   0  0  0  0  0  0  0  0  0  0  0  0
  140.5550   72.3390  218.4810 O   0  0  0  0  0  0  0  0  0  0  0  0
  139.7630   72.9330  220.5670 C   0  0  0  0  0  0  0  0  0  0  0  0
  138.9520   74.0640  220.9060 N   0  0  0  0  0  0  0  0  0  0  0  0
  139.4880   74.9790  221.8800 C   0  0  0  0  0  0  0  0  0  0  0  0
  140.6230   74.6780  222.3350 O   0  0  0  0  0  0  0  0  0  0  0  0
  138.7640   76.1670  222.3080 C   0  0  0  0  0  0  0  0  0  0  0  0
  137.3900   76.1140  222.2990 C   0  0  0  0  0  0  0  0  0  0  0  0
  136.5840   77.1720  222.6810 C   0  0  0  0  0  0  0  0  0  0  0  0
  137.2560   78.3240  223.0850 C   0  0  0  0  0  0  0  0  0  0  0  0
  136.4600   79.3890  223.4700 C   0  0  0  0  0  0  0  0  0  0  0  0
  137.1080   80.5420  223.8750 C   0  0  0  0  0  0  0  0  0  0  0  0
  136.3210   81.5780  224.2490 F   0  0  0  0  0  0  0  0  0  0  0  0
  138.5010   80.6290  223.8950 C   0  0  0  0  0  0  0  0  0  0  0  0
  139.2640   79.5450  223.5040 C   0  0  0  0  0  0  0  0  0  0  0  0
  138.6380   78.3860  223.0980 C   0  0  0  0  0  0  0  0  0  0  0  0
  139.3680   77.3020  222.7070 N   0  0  0  0  0  0  0  0  0  0  0  0
  142.6890   74.5590  220.4260 C   0  0  2  0  0  0  0  0  0  0  0  0
  142.6560   76.0190  219.9960 C   0  0  0  0  0  0  0  0  0  0  0  0
  143.4080   76.4490  219.0890 O   0  0  0  0  0  0  0  0  0  0  0  0
  141.7680   76.9150  220.6210 N   0  0  0  0  0  0  0  0  0  0  0  0
  141.6340   78.3110  220.3100 C   0  0  0  0  0  0  0  0  0  0  0  0
  141.8490   79.2210  221.4400 C   0  0  0  0  0  0  0  0  0  0  0  0
  141.6450   80.5800  221.2140 C   0  0  0  0  0  0  0  0  0  0  0  0
  141.8340   81.4780  222.2420 C   0  0  0  0  0  0  0  0  0  0  0  0
  142.2230   81.0570  223.5030 C   0  0  0  0  0  0  0  0  0  0  0  0
  142.4090   81.9540  224.5180 F   0  0  0  0  0  0  0  0  0  0  0  0
  142.4290   79.7160  223.7420 C   0  0  0  0  0  0  0  0  0  0  0  0
  142.2370   78.8360  222.7030 C   0  0  0  0  0  0  0  0  0  0  0  0
  144.1090   74.0730  220.5840 C   0  0  0  0  0  0  0  0  0  0  0  0
  145.5226   72.8326  221.5273 H   0  0  0  0  0  0  0  0  0  0  0  0
  147.2792   72.9887  221.1859 H   0  0  0  0  0  0  0  0  0  0  0  0
  146.2312   74.4476  221.1859 H   0  0  0  0  0  0  0  0  0  0  0  0
  144.9695   74.6900  218.6960 H   0  0  0  0  0  0  0  0  0  0  0  0
  144.4588   72.5073  217.5741 H   0  0  0  0  0  0  0  0  0  0  0  0
  143.7124   71.9013  219.0474 H   0  0  0  0  0  0  0  0  0  0  0  0
  142.9440   74.6350  217.7708 H   0  0  0  0  0  0  0  0  0  0  0  0
  142.0575   73.1844  217.3757 H   0  0  0  0  0  0  0  0  0  0  0  0
  139.0776   72.1479  220.2152 H   0  0  0  0  0  0  0  0  0  0  0  0
  140.3254   72.7453  221.4935 H   0  0  0  0  0  0  0  0  0  0  0  0
  138.0070   74.2670  220.4950 H   0  0  0  0  0  0  0  0  0  0  0  0
  136.9063   75.1820  221.9711 H   0  0  0  0  0  0  0  0  0  0  0  0
  135.4860   77.1079  222.6667 H   0  0  0  0  0  0  0  0  0  0  0  0
  135.3622   79.3215  223.4546 H   0  0  0  0  0  0  0  0  0  0  0  0
  138.9905   81.5585  224.2213 H   0  0  0  0  0  0  0  0  0  0  0  0
  140.3622   79.6067  223.5167 H   0  0  0  0  0  0  0  0  0  0  0  0
  142.1799   74.4925  221.3988 H   0  0  0  0  0  0  0  0  0  0  0  0
  141.1530   76.4960  221.3850 H   0  0  0  0  0  0  0  0  0  0  0  0
  142.3673   78.5584  219.5283 H   0  0  0  0  0  0  0  0  0  0  0  0
  140.5910   78.4565  219.9921 H   0  0  0  0  0  0  0  0  0  0  0  0
  141.3346   80.9347  220.2201 H   0  0  0  0  0  0  0  0  0  0  0  0
  141.6728   82.5504  222.0576 H   0  0  0  0  0  0  0  0  0  0  0  0
  142.7382   79.3594  224.7356 H   0  0  0  0  0  0  0  0  0  0  0  0
  142.4027   77.7651  222.8918 H   0  0  0  0  0  0  0  0  0  0  0  0
  144.6810   74.8471  221.1165 H   0  0  0  0  0  0  0  0  0  0  0  0
  144.0578   73.1236  221.1373 H   0  0  0  0  0  0  0  0  0  0  0  0
  1  2  1  0
  2  3  1  0
  3  4  1  0
  4  5  1  0
  5  6  1  0
  6  7  1  0
  7  8  2  0
  7  9  1  0
  9 10  1  0
 10 11  1  0
 11 12  2  0
 11 13  1  0
 13 14  2  0
 14 15  1  0
 15 16  2  0
 16 17  1  0
 17 18  2  0
 18 19  1  0
 18 20  1  0
 20 21  2  0
 21 22  1  0
 22 23  2  0
  6 24  1  0
 24 25  1  0
 25 26  2  0
 25 27  1  0
 27 28  1  0
 28 29  1  0
 29 30  2  0
 30 31  1  0
 31 32  2  0
 32 33  1  0
 32 34  1  0
 34 35  2  0
 24 36  1  0
 36  3  1  0
 23 13  1  0
 35 29  1  0
 22 16  1  0
  1 37  1  0
  1 38  1  0
  1 39  1  0
  3 40  1  6
  4 41  1  0
  4 42  1  0
  5 43  1  0
  5 44  1  0
  9 45  1  0
  9 46  1  0
 10 47  1  0
 14 48  1  0
 15 49  1  0
 17 50  1  0
 20 51  1  0
 21 52  1  0
 24 53  1  1
 27 54  1  0
 28 55  1  0
 28 56  1  0
 30 57  1  0
 31 58  1  0
 34 59  1  0
 35 60  1  0
 36 61  1  0
 36 62  1  0
M  END
>  <smiles>  (13) 
CO[C@H]1CCN(C(=O)CNC(=O)c2ccc3cc(F)ccc3n2)[C@H](C(=O)NCc2ccc(F)cc2)C1

>  <score_type>  (13) 
oracle

>  <origin>  (13) 
autodockgpu

>  <m_score__min__energy>  (13) 
-9.6500000000000004

>  <m_primary>  (13) 
energy

>  <rmsd>  (13) 
6.434663786602415

>  <m_score__min__rmsd>  (13) 
6.434663786602415

>  <meeko>  (13) 
{"free_energy": -7.25, "intermolecular_energy": -9.64, "internal_energy": -3.75, "cluster_size": 9, "cluster_id": 10, "rank_in_cluster": 1}

>  <energy>  (13) 
-8.51

>  <cluster_rmsd>  (13) 
1.68

>  <cluster>  (13) 
1

$$$$

     RDKit          3D

 62 65  0  0  0  0  0  0  0  0999 V2000
  142.1900   79.6820  223.4900 C   0  0  0  0  0  0  0  0  0  0  0  0
  141.9770   79.8720  222.1460 O   0  0  0  0  0  0  0  0  0  0  0  0
  141.2250   78.8060  221.6580 C   0  0  1  0  0  0  0  0  0  0  0  0
  141.9380   78.1240  220.5070 C   0  0  0  0  0  0  0  0  0  0  0  0
  140.9470   77.0490  220.0300 C   0  0  0  0  0  0  0  0  0  0  0  0
  140.9980   76.0520  221.1520 N   0  0  0  0  0  0  0  0  0  0  0  0
  141.5540   74.8300  220.8060 C   0  0  0  0  0  0  0  0  0  0  0  0
  142.8450   74.9320  220.5150 O   0  0  0  0  0  0  0  0  0  0  0  0
  141.0540   73.4830  220.6880 C   0  0  0  0  0  0  0  0  0  0  0  0
  141.1940   72.5590  221.7730 N   0  0  0  0  0  0  0  0  0  0  0  0
  140.0820   72.4510  222.6820 C   0  0  0  0  0  0  0  0  0  0  0  0
  139.0990   73.1940  222.4200 O   0  0  0  0  0  0  0  0  0  0  0  0
  140.0970   71.5470  223.8210 C   0  0  0  0  0  0  0  0  0  0  0  0
  139.5850   70.2830  223.6400 C   0  0  0  0  0  0  0  0  0  0  0  0
  139.5380   69.3280  224.6400 C   0  0  0  0  0  0  0  0  0  0  0  0
  140.0520   69.7250  225.8730 C   0  0  0  0  0  0  0  0  0  0  0  0
  140.0110   68.7770  226.8820 C   0  0  0  0  0  0  0  0  0  0  0  0
  140.5160   69.1520  228.1140 C   0  0  0  0  0  0  0  0  0  0  0  0
  140.4720   68.2190  229.0940 F   0  0  0  0  0  0  0  0  0  0  0  0
  141.0420   70.4260  228.3320 C   0  0  0  0  0  0  0  0  0  0  0  0
  141.0660   71.3460  227.3020 C   0  0  0  0  0  0  0  0  0  0  0  0
  140.5690   70.9940  226.0660 C   0  0  0  0  0  0  0  0  0  0  0  0
  140.5810   71.8840  225.0320 N   0  0  0  0  0  0  0  0  0  0  0  0
  140.4180   76.5190  222.3610 C   0  0  2  0  0  0  0  0  0  0  0  0
  138.9120   76.6910  222.2160 C   0  0  0  0  0  0  0  0  0  0  0  0
  138.4130   77.7810  221.8470 O   0  0  0  0  0  0  0  0  0  0  0  0
  138.0520   75.6140  222.4990 N   0  0  0  0  0  0  0  0  0  0  0  0
  136.6190   75.6410  222.4000 C   0  0  0  0  0  0  0  0  0  0  0  0
  135.9090   74.9970  223.5110 C   0  0  0  0  0  0  0  0  0  0  0  0
  135.7970   73.6090  223.4790 C   0  0  0  0  0  0  0  0  0  0  0  0
  135.1400   72.9560  224.4980 C   0  0  0  0  0  0  0  0  0  0  0  0
  134.5850   73.6500  225.5600 C   0  0  0  0  0  0  0  0  0  0  0  0
  133.9330   72.9940  226.5670 F   0  0  0  0  0  0  0  0  0  0  0  0
  134.6860   75.0240  225.6050 C   0  0  0  0  0  0  0  0  0  0  0  0
  135.3460   75.6590  224.5790 C   0  0  0  0  0  0  0  0  0  0  0  0
  141.0740   77.8160  222.7700 C   0  0  0  0  0  0  0  0  0  0  0  0
  141.4898   80.3066  224.0641 H   0  0  0  0  0  0  0  0  0  0  0  0
  142.0275   78.6234  223.7410 H   0  0  0  0  0  0  0  0  0  0  0  0
  143.2232   79.9639  223.7410 H   0  0  0  0  0  0  0  0  0  0  0  0
  140.2527   79.1760  221.3006 H   0  0  0  0  0  0  0  0  0  0  0  0
  142.1523   78.8415  219.7013 H   0  0  0  0  0  0  0  0  0  0  0  0
  142.9076   77.6990  220.8057 H   0  0  0  0  0  0  0  0  0  0  0  0
  139.9353   77.4638  219.9105 H   0  0  0  0  0  0  0  0  0  0  0  0
  141.1971   76.6220  219.0476 H   0  0  0  0  0  0  0  0  0  0  0  0
  139.9770   73.5636  220.4794 H   0  0  0  0  0  0  0  0  0  0  0  0
  141.6958   73.0480  219.9077 H   0  0  0  0  0  0  0  0  0  0  0  0
  142.0410   71.9610  221.9460 H   0  0  0  0  0  0  0  0  0  0  0  0
  139.1921   70.0175  222.6475 H   0  0  0  0  0  0  0  0  0  0  0  0
  139.1229   68.3231  224.4731 H   0  0  0  0  0  0  0  0  0  0  0  0
  139.5961   67.7726  226.7116 H   0  0  0  0  0  0  0  0  0  0  0  0
  141.4368   70.6971  229.3223 H   0  0  0  0  0  0  0  0  0  0  0  0
  141.4788   72.3521  227.4672 H   0  0  0  0  0  0  0  0  0  0  0  0
  140.5882   75.7698  223.1483 H   0  0  0  0  0  0  0  0  0  0  0  0
  138.5300   74.7120  222.8090 H   0  0  0  0  0  0  0  0  0  0  0  0
  136.2997   76.6927  222.3547 H   0  0  0  0  0  0  0  0  0  0  0  0
  136.3621   75.0677  221.4971 H   0  0  0  0  0  0  0  0  0  0  0  0
  136.2307   73.0379  222.6449 H   0  0  0  0  0  0  0  0  0  0  0  0
  135.0543   71.8598  224.4677 H   0  0  0  0  0  0  0  0  0  0  0  0
  134.2512   75.5962  226.4377 H   0  0  0  0  0  0  0  0  0  0  0  0
  135.4286   76.7554  224.6135 H   0  0  0  0  0  0  0  0  0  0  0  0
  140.4638   78.2765  223.5610 H   0  0  0  0  0  0  0  0  0  0  0  0
  142.0900   77.5630  223.1073 H   0  0  0  0  0  0  0  0  0  0  0  0
  1  2  1  0
  2  3  1  0
  3  4  1  0
  4  5  1  0
  5  6  1  0
  6  7  1  0
  7  8  2  0
  7  9  1  0
  9 10  1  0
 10 11  1  0
 11 12  2  0
 11 13  1  0
 13 14  2  0
 14 15  1  0
 15 16  2  0
 16 17  1  0
 17 18  2  0
 18 19  1  0
 18 20  1  0
 20 21  2  0
 21 22  1  0
 22 23  2  0
  6 24  1  0
 24 25  1  0
 25 26  2  0
 25 27  1  0
 27 28  1  0
 28 29  1  0
 29 30  2  0
 30 31  1  0
 31 32  2  0
 32 33  1  0
 32 34  1  0
 34 35  2  0
 24 36  1  0
 36  3  1  0
 23 13  1  0
 35 29  1  0
 22 16  1  0
  1 37  1  0
  1 38  1  0
  1 39  1  0
  3 40  1  6
  4 41  1  0
  4 42  1  0
  5 43  1  0
  5 44  1  0
  9 45  1  0
  9 46  1  0
 10 47  1  0
 14 48  1  0
 15 49  1  0
 17 50  1  0
 20 51  1  0
 21 52  1  0
 24 53  1  1
 27 54  1  0
 28 55  1  0
 28 56  1  0
 30 57  1  0
 31 58  1  0
 34 59  1  0
 35 60  1  0
 36 61  1  0
 36 62  1  0
M  END
>  <smiles>  (14) 
CO[C@H]1CCN(C(=O)CNC(=O)c2ccc3cc(F)ccc3n2)[C@H](C(=O)NCc2ccc(F)cc2)C1

>  <score_type>  (14) 
oracle

>  <origin>  (14) 
autodockgpu

>  <m_score__min__energy>  (14) 
-9.6500000000000004

>  <m_primary>  (14) 
energy

>  <rmsd>  (14) 
5.088457759607775

>  <m_score__min__rmsd>  (14) 
5.088457759607775

>  <meeko>  (14) 
{"free_energy": -8.68, "intermolecular_energy": -11.07, "internal_energy": -2.69, "cluster_size": 14, "cluster_id": 2, "rank_in_cluster": 2}

>  <energy>  (14) 
-8.49

>  <cluster_rmsd>  (14) 
1.17

>  <cluster>  (14) 
1

$$$$

     RDKit          3D

 62 65  0  0  0  0  0  0  0  0999 V2000
  145.5800   71.6370  219.3880 C   0  0  0  0  0  0  0  0  0  0  0  0
  145.6900   72.7670  218.6140 O   0  0  0  0  0  0  0  0  0  0  0  0
  144.4930   73.4760  218.6880 C   0  0  1  0  0  0  0  0  0  0  0  0
  143.3550   72.6810  218.0780 C   0  0  0  0  0  0  0  0  0  0  0  0
  142.1470   73.6280  218.1530 C   0  0  0  0  0  0  0  0  0  0  0  0
  141.8500   73.6470  219.6250 N   0  0  0  0  0  0  0  0  0  0  0  0
  140.6430   73.0590  219.9720 C   0  0  0  0  0  0  0  0  0  0  0  0
  140.3980   71.9620  219.2650 O   0  0  0  0  0  0  0  0  0  0  0  0
  139.5980   73.3660  220.9160 C   0  0  0  0  0  0  0  0  0  0  0  0
  139.7220   72.9750  222.2890 N   0  0  0  0  0  0  0  0  0  0  0  0
  140.0000   71.5860  222.5460 C   0  0  0  0  0  0  0  0  0  0  0  0
  140.1020   70.8580  221.5230 O   0  0  0  0  0  0  0  0  0  0  0  0
  140.1510   71.0620  223.8950 C   0  0  0  0  0  0  0  0  0  0  0  0
  140.7100   71.8900  224.8410 C   0  0  0  0  0  0  0  0  0  0  0  0
  140.9100   71.5160  226.1590 C   0  0  0  0  0  0  0  0  0  0  0  0
  140.5060   70.2230  226.4840 C   0  0  0  0  0  0  0  0  0  0  0  0
  140.7010   69.8380  227.7990 C   0  0  0  0  0  0  0  0  0  0  0  0
  140.3060   68.5570  228.1430 C   0  0  0  0  0  0  0  0  0  0  0  0
  140.5000   68.1890  229.4310 F   0  0  0  0  0  0  0  0  0  0  0  0
  139.7360   67.6920  227.2070 C   0  0  0  0  0  0  0  0  0  0  0  0
  139.5570   68.1110  225.9030 C   0  0  0  0  0  0  0  0  0  0  0  0
  139.9430   69.3830  225.5390 C   0  0  0  0  0  0  0  0  0  0  0  0
  139.7770   69.8210  224.2580 N   0  0  0  0  0  0  0  0  0  0  0  0
  142.8360   74.3120  220.4000 C   0  0  2  0  0  0  0  0  0  0  0  0
  142.8500   75.8050  220.1040 C   0  0  0  0  0  0  0  0  0  0  0  0
  143.8880   76.3800  219.6970 O   0  0  0  0  0  0  0  0  0  0  0  0
  141.6820   76.5680  220.2880 N   0  0  0  0  0  0  0  0  0  0  0  0
  141.5580   77.9790  220.0450 C   0  0  0  0  0  0  0  0  0  0  0  0
  141.7110   78.8280  221.2320 C   0  0  0  0  0  0  0  0  0  0  0  0
  142.0530   80.1620  221.0240 C   0  0  0  0  0  0  0  0  0  0  0  0
  142.2090   81.0020  222.1040 C   0  0  0  0  0  0  0  0  0  0  0  0
  142.0310   80.5480  223.4010 C   0  0  0  0  0  0  0  0  0  0  0  0
  142.1880   81.3890  224.4680 F   0  0  0  0  0  0  0  0  0  0  0  0
  141.6930   79.2320  223.6230 C   0  0  0  0  0  0  0  0  0  0  0  0
  141.5420   78.4080  222.5320 C   0  0  0  0  0  0  0  0  0  0  0  0
  144.1890   73.6950  220.1370 C   0  0  0  0  0  0  0  0  0  0  0  0
  145.6072   71.9169  220.4514 H   0  0  0  0  0  0  0  0  0  0  0  0
  144.6284   71.1318  219.1661 H   0  0  0  0  0  0  0  0  0  0  0  0
  146.4163   70.9577  219.1661 H   0  0  0  0  0  0  0  0  0  0  0  0
  144.5940   74.4243  218.1398 H   0  0  0  0  0  0  0  0  0  0  0  0
  143.5795   72.4177  217.0338 H   0  0  0  0  0  0  0  0  0  0  0  0
  143.1773   71.7309  218.6032 H   0  0  0  0  0  0  0  0  0  0  0  0
  142.4040   74.6322  217.7849 H   0  0  0  0  0  0  0  0  0  0  0  0
  141.2955   73.3075  217.5348 H   0  0  0  0  0  0  0  0  0  0  0  0
  139.4779   74.4594  220.9090 H   0  0  0  0  0  0  0  0  0  0  0  0
  138.7549   72.7560  220.5596 H   0  0  0  0  0  0  0  0  0  0  0  0
  139.6260   73.6260  223.1080 H   0  0  0  0  0  0  0  0  0  0  0  0
  141.0138   72.9017  224.5343 H   0  0  0  0  0  0  0  0  0  0  0  0
  141.3580   72.1945  226.9000 H   0  0  0  0  0  0  0  0  0  0  0  0
  141.1495   70.5192  228.5371 H   0  0  0  0  0  0  0  0  0  0  0  0
  139.4301   66.6790  227.5073 H   0  0  0  0  0  0  0  0  0  0  0  0
  139.1095   67.4342  225.1603 H   0  0  0  0  0  0  0  0  0  0  0  0
  142.5907   74.1910  221.4655 H   0  0  0  0  0  0  0  0  0  0  0  0
  140.8300   76.0290  220.6370 H   0  0  0  0  0  0  0  0  0  0  0  0
  142.3293   78.2689  219.3163 H   0  0  0  0  0  0  0  0  0  0  0  0
  140.5321   78.1397  219.6820 H   0  0  0  0  0  0  0  0  0  0  0  0
  142.1978   80.5427  220.0022 H   0  0  0  0  0  0  0  0  0  0  0  0
  142.4803   82.0543  221.9337 H   0  0  0  0  0  0  0  0  0  0  0  0
  141.5477   78.8501  224.6443 H   0  0  0  0  0  0  0  0  0  0  0  0
  141.2716   77.3564  222.7079 H   0  0  0  0  0  0  0  0  0  0  0  0
  144.9587   74.3611  220.5540 H   0  0  0  0  0  0  0  0  0  0  0  0
  144.1811   72.7026  220.6115 H   0  0  0  0  0  0  0  0  0  0  0  0
  1  2  1  0
  2  3  1  0
  3  4  1  0
  4  5  1  0
  5  6  1  0
  6  7  1  0
  7  8  2  0
  7  9  1  0
  9 10  1  0
 10 11  1  0
 11 12  2  0
 11 13  1  0
 13 14  2  0
 14 15  1  0
 15 16  2  0
 16 17  1  0
 17 18  2  0
 18 19  1  0
 18 20  1  0
 20 21  2  0
 21 22  1  0
 22 23  2  0
  6 24  1  0
 24 25  1  0
 25 26  2  0
 25 27  1  0
 27 28  1  0
 28 29  1  0
 29 30  2  0
 30 31  1  0
 31 32  2  0
 32 33  1  0
 32 34  1  0
 34 35  2  0
 24 36  1  0
 36  3  1  0
 23 13  1  0
 35 29  1  0
 22 16  1  0
  1 37  1  0
  1 38  1  0
  1 39  1  0
  3 40  1  6
  4 41  1  0
  4 42  1  0
  5 43  1  0
  5 44  1  0
  9 45  1  0
  9 46  1  0
 10 47  1  0
 14 48  1  0
 15 49  1  0
 17 50  1  0
 20 51  1  0
 21 52  1  0
 24 53  1  1
 27 54  1  0
 28 55  1  0
 28 56  1  0
 30 57  1  0
 31 58  1  0
 34 59  1  0
 35 60  1  0
 36 61  1  0
 36 62  1  0
M  END
>  <smiles>  (15) 
CO[C@H]1CCN(C(=O)CNC(=O)c2ccc3cc(F)ccc3n2)[C@H](C(=O)NCc2ccc(F)cc2)C1

>  <score_type>  (15) 
oracle

>  <origin>  (15) 
autodockgpu

>  <m_score__min__energy>  (15) 
-9.6500000000000004

>  <m_primary>  (15) 
energy

>  <rmsd>  (15) 
3.7076307811135285

>  <m_score__min__rmsd>  (15) 
3.7076307811135285

>  <meeko>  (15) 
{"free_energy": -9.16, "intermolecular_energy": -11.54, "internal_energy": -1.5, "cluster_size": 17, "cluster_id": 1, "rank_in_cluster": 6}

>  <energy>  (15) 
-8.2

>  <cluster_rmsd>  (15) 
1.62

>  <cluster>  (15) 
1

$$$$

     RDKit          3D

 62 65  0  0  0  0  0  0  0  0999 V2000
  142.2650   79.7860  223.4300 C   0  0  0  0  0  0  0  0  0  0  0  0
  141.9860   79.9780  222.0980 O   0  0  0  0  0  0  0  0  0  0  0  0
  141.2020   78.9170  221.6490 C   0  0  1  0  0  0  0  0  0  0  0  0
  141.8700   78.2050  220.4900 C   0  0  0  0  0  0  0  0  0  0  0  0
  140.8480   77.1400  220.0590 C   0  0  0  0  0  0  0  0  0  0  0  0
  140.9160   76.1590  221.1950 N   0  0  0  0  0  0  0  0  0  0  0  0
  141.4410   74.9230  220.8520 C   0  0  0  0  0  0  0  0  0  0  0  0
  142.7160   75.0040  220.4910 O   0  0  0  0  0  0  0  0  0  0  0  0
  140.9240   73.5800  220.7950 C   0  0  0  0  0  0  0  0  0  0  0  0
  141.0940   72.6880  221.9040 N   0  0  0  0  0  0  0  0  0  0  0  0
  139.9260   72.4060  222.6960 C   0  0  0  0  0  0  0  0  0  0  0  0
  138.8700   72.9850  222.3240 O   0  0  0  0  0  0  0  0  0  0  0  0
  139.9650   71.5160  223.8460 C   0  0  0  0  0  0  0  0  0  0  0  0
  139.4100   70.2650  223.7030 C   0  0  0  0  0  0  0  0  0  0  0  0
  139.3800   69.3240  224.7170 C   0  0  0  0  0  0  0  0  0  0  0  0
  139.9580   69.7200  225.9210 C   0  0  0  0  0  0  0  0  0  0  0  0
  139.9350   68.7860  226.9430 C   0  0  0  0  0  0  0  0  0  0  0  0
  140.5030   69.1600  228.1480 C   0  0  0  0  0  0  0  0  0  0  0  0
  140.4760   68.2410  229.1410 F   0  0  0  0  0  0  0  0  0  0  0  0
  141.0750   70.4220  228.3260 C   0  0  0  0  0  0  0  0  0  0  0  0
  141.0800   71.3280  227.2830 C   0  0  0  0  0  0  0  0  0  0  0  0
  140.5190   70.9760  226.0750 C   0  0  0  0  0  0  0  0  0  0  0  0
  140.5100   71.8530  225.0300 N   0  0  0  0  0  0  0  0  0  0  0  0
  140.3790   76.6550  222.4120 C   0  0  2  0  0  0  0  0  0  0  0  0
  138.8730   76.8500  222.3080 C   0  0  0  0  0  0  0  0  0  0  0  0
  138.3820   77.9130  221.8570 O   0  0  0  0  0  0  0  0  0  0  0  0
  138.0020   75.8250  222.7240 N   0  0  0  0  0  0  0  0  0  0  0  0
  136.5670   75.8790  222.6770 C   0  0  0  0  0  0  0  0  0  0  0  0
  135.8830   75.0290  223.6580 C   0  0  0  0  0  0  0  0  0  0  0  0
  135.8460   73.6600  223.4020 C   0  0  0  0  0  0  0  0  0  0  0  0
  135.2160   72.8180  224.2910 C   0  0  0  0  0  0  0  0  0  0  0  0
  134.6150   73.3030  225.4410 C   0  0  0  0  0  0  0  0  0  0  0  0
  133.9910   72.4600  226.3180 F   0  0  0  0  0  0  0  0  0  0  0  0
  134.6430   74.6540  225.7080 C   0  0  0  0  0  0  0  0  0  0  0  0
  135.2760   75.4800  224.8080 C   0  0  0  0  0  0  0  0  0  0  0  0
  141.0680   77.9470  222.7820 C   0  0  0  0  0  0  0  0  0  0  0  0
  141.5114   80.3046  224.0409 H   0  0  0  0  0  0  0  0  0  0  0  0
  142.2443   78.7100  223.6576 H   0  0  0  0  0  0  0  0  0  0  0  0
  143.2626   80.1898  223.6576 H   0  0  0  0  0  0  0  0  0  0  0  0
  140.2259   79.2975  221.3137 H   0  0  0  0  0  0  0  0  0  0  0  0
  142.0731   78.9059  219.6669 H   0  0  0  0  0  0  0  0  0  0  0  0
  142.8405   77.7682  220.7680 H   0  0  0  0  0  0  0  0  0  0  0  0
  139.8401   77.5699  219.9628 H   0  0  0  0  0  0  0  0  0  0  0  0
  141.0617   76.6942  219.0764 H   0  0  0  0  0  0  0  0  0  0  0  0
  139.8410   73.6661  220.6228 H   0  0  0  0  0  0  0  0  0  0  0  0
  141.5327   73.1135  220.0064 H   0  0  0  0  0  0  0  0  0  0  0  0
  142.0020   72.2320  222.1710 H   0  0  0  0  0  0  0  0  0  0  0  0
  138.9671   69.9991  222.7319 H   0  0  0  0  0  0  0  0  0  0  0  0
  138.9298   68.3296  224.5814 H   0  0  0  0  0  0  0  0  0  0  0  0
  139.4856   67.7918  226.8032 H   0  0  0  0  0  0  0  0  0  0  0  0
  141.5204   70.6937  229.2944 H   0  0  0  0  0  0  0  0  0  0  0  0
  141.5288   72.3234  227.4162 H   0  0  0  0  0  0  0  0  0  0  0  0
  140.5597   75.9153  223.2058 H   0  0  0  0  0  0  0  0  0  0  0  0
  138.4730   74.9450  223.1000 H   0  0  0  0  0  0  0  0  0  0  0  0
  136.2586   76.9200  222.8533 H   0  0  0  0  0  0  0  0  0  0  0  0
  136.2770   75.5000  221.6859 H   0  0  0  0  0  0  0  0  0  0  0  0
  136.3174   73.2540  222.4948 H   0  0  0  0  0  0  0  0  0  0  0  0
  135.1894   71.7380  224.0837 H   0  0  0  0  0  0  0  0  0  0  0  0
  134.1725   75.0610  226.6152 H   0  0  0  0  0  0  0  0  0  0  0  0
  135.2982   76.5594  225.0190 H   0  0  0  0  0  0  0  0  0  0  0  0
  140.4889   78.4298  223.5829 H   0  0  0  0  0  0  0  0  0  0  0  0
  142.0890   77.6827  223.0946 H   0  0  0  0  0  0  0  0  0  0  0  0
  1  2  1  0
  2  3  1  0
  3  4  1  0
  4  5  1  0
  5  6  1  0
  6  7  1  0
  7  8  2  0
  7  9  1  0
  9 10  1  0
 10 11  1  0
 11 12  2  0
 11 13  1  0
 13 14  2  0
 14 15  1  0
 15 16  2  0
 16 17  1  0
 17 18  2  0
 18 19  1  0
 18 20  1  0
 20 21  2  0
 21 22  1  0
 22 23  2  0
  6 24  1  0
 24 25  1  0
 25 26  2  0
 25 27  1  0
 27 28  1  0
 28 29  1  0
 29 30  2  0
 30 31  1  0
 31 32  2  0
 32 33  1  0
 32 34  1  0
 34 35  2  0
 24 36  1  0
 36  3  1  0
 23 13  1  0
 35 29  1  0
 22 16  1  0
  1 37  1  0
  1 38  1  0
  1 39  1  0
  3 40  1  6
  4 41  1  0
  4 42  1  0
  5 43  1  0
  5 44  1  0
  9 45  1  0
  9 46  1  0
 10 47  1  0
 14 48  1  0
 15 49  1  0
 17 50  1  0
 20 51  1  0
 21 52  1  0
 24 53  1  1
 27 54  1  0
 28 55  1  0
 28 56  1  0
 30 57  1  0
 31 58  1  0
 34 59  1  0
 35 60  1  0
 36 61  1  0
 36 62  1  0
M  END
>  <smiles>  (16) 
CO[C@H]1CCN(C(=O)CNC(=O)c2ccc3cc(F)ccc3n2)[C@H](C(=O)NCc2ccc(F)cc2)C1

>  <score_type>  (16) 
oracle

>  <origin>  (16) 
autodockgpu

>  <m_score__min__energy>  (16) 
-9.6500000000000004

>  <m_primary>  (16) 
energy

>  <rmsd>  (16) 
5.141348916485678

>  <m_score__min__rmsd>  (16) 
5.141348916485678

>  <meeko>  (16) 
{"free_energy": -8.59, "intermolecular_energy": -10.98, "internal_energy": -2.7, "cluster_size": 14, "cluster_id": 2, "rank_in_cluster": 3}

>  <energy>  (16) 
-8.0

>  <cluster_rmsd>  (16) 
1.53

>  <cluster>  (16) 
1

$$$$

     RDKit          3D

 62 65  0  0  0  0  0  0  0  0999 V2000
  142.2940   79.6050  222.8850 C   0  0  0  0  0  0  0  0  0  0  0  0
  141.7320   79.8170  221.6490 O   0  0  0  0  0  0  0  0  0  0  0  0
  141.0740   78.6550  221.2530 C   0  0  1  0  0  0  0  0  0  0  0  0
  141.8660   77.9200  220.1900 C   0  0  0  0  0  0  0  0  0  0  0  0
  140.9700   76.7320  219.8010 C   0  0  0  0  0  0  0  0  0  0  0  0
  141.0640   75.8550  221.0170 N   0  0  0  0  0  0  0  0  0  0  0  0
  141.7170   74.6510  220.8040 C   0  0  0  0  0  0  0  0  0  0  0  0
  143.0370   74.7840  220.8420 O   0  0  0  0  0  0  0  0  0  0  0  0
  141.2940   73.2970  220.5500 C   0  0  0  0  0  0  0  0  0  0  0  0
  141.3100   72.3220  221.5990 N   0  0  0  0  0  0  0  0  0  0  0  0
  140.3730   72.5120  222.6760 C   0  0  0  0  0  0  0  0  0  0  0  0
  139.6370   73.5300  222.5770 O   0  0  0  0  0  0  0  0  0  0  0  0
  140.2860   71.5920  223.8000 C   0  0  0  0  0  0  0  0  0  0  0  0
  139.6990   70.3680  223.5780 C   0  0  0  0  0  0  0  0  0  0  0  0
  139.5530   69.4030  224.5590 C   0  0  0  0  0  0  0  0  0  0  0  0
  140.0460   69.7460  225.8160 C   0  0  0  0  0  0  0  0  0  0  0  0
  139.9060   68.7880  226.8060 C   0  0  0  0  0  0  0  0  0  0  0  0
  140.3880   69.1090  228.0620 C   0  0  0  0  0  0  0  0  0  0  0  0
  140.2470   68.1670  229.0230 F   0  0  0  0  0  0  0  0  0  0  0  0
  140.9900   70.3420  228.3210 C   0  0  0  0  0  0  0  0  0  0  0  0
  141.1120   71.2740  227.3080 C   0  0  0  0  0  0  0  0  0  0  0  0
  140.6380   70.9750  226.0490 C   0  0  0  0  0  0  0  0  0  0  0  0
  140.7470   71.8770  225.0320 N   0  0  0  0  0  0  0  0  0  0  0  0
  140.4170   76.3920  222.1620 C   0  0  2  0  0  0  0  0  0  0  0  0
  138.9080   76.4350  221.9690 C   0  0  0  0  0  0  0  0  0  0  0  0
  138.3320   75.6740  221.1560 O   0  0  0  0  0  0  0  0  0  0  0  0
  138.1320   77.3440  222.7130 N   0  0  0  0  0  0  0  0  0  0  0  0
  136.7040   77.4850  222.6300 C   0  0  0  0  0  0  0  0  0  0  0  0
  135.9400   76.5880  223.5050 C   0  0  0  0  0  0  0  0  0  0  0  0
  134.8850   77.1440  224.2250 C   0  0  0  0  0  0  0  0  0  0  0  0
  134.1360   76.3450  225.0610 C   0  0  0  0  0  0  0  0  0  0  0  0
  134.4100   74.9940  225.2030 C   0  0  0  0  0  0  0  0  0  0  0  0
  133.6620   74.2090  226.0350 F   0  0  0  0  0  0  0  0  0  0  0  0
  135.4500   74.4310  224.4980 C   0  0  0  0  0  0  0  0  0  0  0  0
  136.1870   75.2440  223.6680 C   0  0  0  0  0  0  0  0  0  0  0  0
  140.9650   77.7690  222.4540 C   0  0  0  0  0  0  0  0  0  0  0  0
  141.5712   79.8777  223.6681 H   0  0  0  0  0  0  0  0  0  0  0  0
  142.5633   78.5435  222.9881 H   0  0  0  0  0  0  0  0  0  0  0  0
  143.1973   80.2242  222.9881 H   0  0  0  0  0  0  0  0  0  0  0  0
  140.0878   78.9146  220.8406 H   0  0  0  0  0  0  0  0  0  0  0  0
  142.0496   78.5701  219.3219 H   0  0  0  0  0  0  0  0  0  0  0  0
  142.8552   77.6000  220.5494 H   0  0  0  0  0  0  0  0  0  0  0  0
  139.9341   77.0554  219.6211 H   0  0  0  0  0  0  0  0  0  0  0  0
  141.2771   76.2324  218.8704 H   0  0  0  0  0  0  0  0  0  0  0  0
  140.2569   73.3534  220.1879 H   0  0  0  0  0  0  0  0  0  0  0  0
  142.0603   72.9246  219.8542 H   0  0  0  0  0  0  0  0  0  0  0  0
  141.9480   71.4890  221.6330 H   0  0  0  0  0  0  0  0  0  0  0  0
  139.3261   70.1445  222.5676 H   0  0  0  0  0  0  0  0  0  0  0  0
  139.0794   68.4304  224.3597 H   0  0  0  0  0  0  0  0  0  0  0  0
  139.4330   67.8159  226.6028 H   0  0  0  0  0  0  0  0  0  0  0  0
  141.3662   70.5709  229.3290 H   0  0  0  0  0  0  0  0  0  0  0  0
  141.5842   72.2477  227.5052 H   0  0  0  0  0  0  0  0  0  0  0  0
  140.6188   75.7379  223.0230 H   0  0  0  0  0  0  0  0  0  0  0  0
  138.6730   77.9670  223.3880 H   0  0  0  0  0  0  0  0  0  0  0  0
  136.4474   78.5211  222.8959 H   0  0  0  0  0  0  0  0  0  0  0  0
  136.4282   77.2173  221.5993 H   0  0  0  0  0  0  0  0  0  0  0  0
  134.6513   78.2144  224.1267 H   0  0  0  0  0  0  0  0  0  0  0  0
  133.3037   76.7884  225.6272 H   0  0  0  0  0  0  0  0  0  0  0  0
  135.6852   73.3609  224.5956 H   0  0  0  0  0  0  0  0  0  0  0  0
  137.0184   74.7956  223.1044 H   0  0  0  0  0  0  0  0  0  0  0  0
  140.3011   78.2567  223.1829 H   0  0  0  0  0  0  0  0  0  0  0  0
  141.9871   77.6273  222.8352 H   0  0  0  0  0  0  0  0  0  0  0  0
  1  2  1  0
  2  3  1  0
  3  4  1  0
  4  5  1  0
  5  6  1  0
  6  7  1  0
  7  8  2  0
  7  9  1  0
  9 10  1  0
 10 11  1  0
 11 12  2  0
 11 13  1  0
 13 14  2  0
 14 15  1  0
 15 16  2  0
 16 17  1  0
 17 18  2  0
 18 19  1  0
 18 20  1  0
 20 21  2  0
 21 22  1  0
 22 23  2  0
  6 24  1  0
 24 25  1  0
 25 26  2  0
 25 27  1  0
 27 28  1  0
 28 29  1  0
 29 30  2  0
 30 31  1  0
 31 32  2  0
 32 33  1  0
 32 34  1  0
 34 35  2  0
 24 36  1  0
 36  3  1  0
 23 13  1  0
 35 29  1  0
 22 16  1  0
  1 37  1  0
  1 38  1  0
  1 39  1  0
  3 40  1  6
  4 41  1  0
  4 42  1  0
  5 43  1  0
  5 44  1  0
  9 45  1  0
  9 46  1  0
 10 47  1  0
 14 48  1  0
 15 49  1  0
 17 50  1  0
 20 51  1  0
 21 52  1  0
 24 53  1  1
 27 54  1  0
 28 55  1  0
 28 56  1  0
 30 57  1  0
 31 58  1  0
 34 59  1  0
 35 60  1  0
 36 61  1  0
 36 62  1  0
M  END
>  <smiles>  (17) 
CO[C@H]1CCN(C(=O)CNC(=O)c2ccc3cc(F)ccc3n2)[C@H](C(=O)NCc2ccc(F)cc2)C1

>  <score_type>  (17) 
oracle

>  <origin>  (17) 
autodockgpu

>  <m_score__min__energy>  (17) 
-9.6500000000000004

>  <m_primary>  (17) 
energy

>  <rmsd>  (17) 
4.581518823122591

>  <m_score__min__rmsd>  (17) 
4.581518823122591

>  <meeko>  (17) 
{"free_energy": -8.08, "intermolecular_energy": -10.47, "internal_energy": -1.93, "cluster_size": 14, "cluster_id": 2, "rank_in_cluster": 11}

>  <energy>  (17) 
-7.92

>  <cluster_rmsd>  (17) 
1.87

>  <cluster>  (17) 
1

$$$$

     RDKit          3D

 62 65  0  0  0  0  0  0  0  0999 V2000
  146.3300   73.3920  220.7070 C   0  0  0  0  0  0  0  0  0  0  0  0
  146.0140   73.3630  219.3710 O   0  0  0  0  0  0  0  0  0  0  0  0
  144.6620   73.6660  219.2260 C   0  0  1  0  0  0  0  0  0  0  0  0
  143.9780   72.6630  218.3180 C   0  0  0  0  0  0  0  0  0  0  0  0
  142.5380   73.1880  218.1890 C   0  0  0  0  0  0  0  0  0  0  0  0
  141.9760   72.9090  219.5540 N   0  0  0  0  0  0  0  0  0  0  0  0
  140.9790   71.9460  219.5750 C   0  0  0  0  0  0  0  0  0  0  0  0
  141.1680   71.0080  218.6550 O   0  0  0  0  0  0  0  0  0  0  0  0
  139.7900   71.7330  220.3610 C   0  0  0  0  0  0  0  0  0  0  0  0
  139.8530   71.0030  221.5920 N   0  0  0  0  0  0  0  0  0  0  0  0
  140.1630   71.7580  222.7790 C   0  0  0  0  0  0  0  0  0  0  0  0
  140.3490   72.9910  222.6000 O   0  0  0  0  0  0  0  0  0  0  0  0
  140.2540   71.1360  224.0910 C   0  0  0  0  0  0  0  0  0  0  0  0
  140.7340   71.9020  225.1270 C   0  0  0  0  0  0  0  0  0  0  0  0
  140.8720   71.4330  226.4220 C   0  0  0  0  0  0  0  0  0  0  0  0
  140.4880   70.1090  226.6250 C   0  0  0  0  0  0  0  0  0  0  0  0
  140.6210   69.6290  227.9170 C   0  0  0  0  0  0  0  0  0  0  0  0
  140.2470   68.3160  228.1390 C   0  0  0  0  0  0  0  0  0  0  0  0
  140.3800   67.8560  229.4050 F   0  0  0  0  0  0  0  0  0  0  0  0
  139.7560   67.5110  227.1100 C   0  0  0  0  0  0  0  0  0  0  0  0
  139.6370   68.0250  225.8320 C   0  0  0  0  0  0  0  0  0  0  0  0
  140.0050   69.3310  225.5890 C   0  0  0  0  0  0  0  0  0  0  0  0
  139.8970   69.8620  224.3370 N   0  0  0  0  0  0  0  0  0  0  0  0
  142.5300   73.7210  220.5780 C   0  0  2  0  0  0  0  0  0  0  0  0
  142.1210   75.1770  220.4060 C   0  0  0  0  0  0  0  0  0  0  0  0
  142.8410   75.9870  219.7750 O   0  0  0  0  0  0  0  0  0  0  0  0
  140.9120   75.6360  220.9620 N   0  0  0  0  0  0  0  0  0  0  0  0
  140.4080   76.9790  220.8710 C   0  0  0  0  0  0  0  0  0  0  0  0
  141.1130   77.9630  221.7010 C   0  0  0  0  0  0  0  0  0  0  0  0
  141.1160   77.7520  223.0780 C   0  0  0  0  0  0  0  0  0  0  0  0
  141.7630   78.6460  223.9020 C   0  0  0  0  0  0  0  0  0  0  0  0
  142.4150   79.7560  223.3910 C   0  0  0  0  0  0  0  0  0  0  0  0
  143.0540   80.6390  224.2160 F   0  0  0  0  0  0  0  0  0  0  0  0
  142.4190   79.9780  222.0310 C   0  0  0  0  0  0  0  0  0  0  0  0
  141.7680   79.0750  221.2240 C   0  0  0  0  0  0  0  0  0  0  0  0
  144.0340   73.5780  220.5820 C   0  0  0  0  0  0  0  0  0  0  0  0
  145.4096   73.3075  221.3034 H   0  0  0  0  0  0  0  0  0  0  0  0
  146.9989   72.5515  220.9439 H   0  0  0  0  0  0  0  0  0  0  0  0
  146.8347   74.3402  220.9439 H   0  0  0  0  0  0  0  0  0  0  0  0
  144.5553   74.6688  218.7866 H   0  0  0  0  0  0  0  0  0  0  0  0
  144.4699   72.6287  217.3347 H   0  0  0  0  0  0  0  0  0  0  0  0
  144.0179   71.6388  218.7173 H   0  0  0  0  0  0  0  0  0  0  0  0
  142.5245   74.2647  217.9644 H   0  0  0  0  0  0  0  0  0  0  0  0
  141.9685   72.7200  217.3725 H   0  0  0  0  0  0  0  0  0  0  0  0
  139.3911   72.7286  220.6051 H   0  0  0  0  0  0  0  0  0  0  0  0
  139.1818   71.0804  219.7174 H   0  0  0  0  0  0  0  0  0  0  0  0
  139.6900   69.9700  221.6850 H   0  0  0  0  0  0  0  0  0  0  0  0
  141.0235   72.9420  224.9157 H   0  0  0  0  0  0  0  0  0  0  0  0
  141.2589   72.0633  227.2363 H   0  0  0  0  0  0  0  0  0  0  0  0
  141.0063   70.2627  228.7294 H   0  0  0  0  0  0  0  0  0  0  0  0
  139.4645   66.4704  227.3152 H   0  0  0  0  0  0  0  0  0  0  0  0
  139.2516   67.3966  225.0155 H   0  0  0  0  0  0  0  0  0  0  0  0
  142.1374   73.3828  221.5483 H   0  0  0  0  0  0  0  0  0  0  0  0
  140.3410   74.9060  221.4890 H   0  0  0  0  0  0  0  0  0  0  0  0
  140.4826   77.3013  219.8219 H   0  0  0  0  0  0  0  0  0  0  0  0
  139.3740   76.9456  221.2448 H   0  0  0  0  0  0  0  0  0  0  0  0
  140.6046   76.8765  223.5047 H   0  0  0  0  0  0  0  0  0  0  0  0
  141.7619   78.4749  224.9886 H   0  0  0  0  0  0  0  0  0  0  0  0
  142.9290   80.8535  221.6028 H   0  0  0  0  0  0  0  0  0  0  0  0
  141.7710   79.2511  220.1382 H   0  0  0  0  0  0  0  0  0  0  0  0
  144.4549   74.3773  221.2097 H   0  0  0  0  0  0  0  0  0  0  0  0
  144.2550   72.5720  220.9682 H   0  0  0  0  0  0  0  0  0  0  0  0
  1  2  1  0
  2  3  1  0
  3  4  1  0
  4  5  1  0
  5  6  1  0
  6  7  1  0
  7  8  2  0
  7  9  1  0
  9 10  1  0
 10 11  1  0
 11 12  2  0
 11 13  1  0
 13 14  2  0
 14 15  1  0
 15 16  2  0
 16 17  1  0
 17 18  2  0
 18 19  1  0
 18 20  1  0
 20 21  2  0
 21 22  1  0
 22 23  2  0
  6 24  1  0
 24 25  1  0
 25 26  2  0
 25 27  1  0
 27 28  1  0
 28 29  1  0
 29 30  2  0
 30 31  1  0
 31 32  2  0
 32 33  1  0
 32 34  1  0
 34 35  2  0
 24 36  1  0
 36  3  1  0
 23 13  1  0
 35 29  1  0
 22 16  1  0
  1 37  1  0
  1 38  1  0
  1 39  1  0
  3 40  1  6
  4 41  1  0
  4 42  1  0
  5 43  1  0
  5 44  1  0
  9 45  1  0
  9 46  1  0
 10 47  1  0
 14 48  1  0
 15 49  1  0
 17 50  1  0
 20 51  1  0
 21 52  1  0
 24 53  1  1
 27 54  1  0
 28 55  1  0
 28 56  1  0
 30 57  1  0
 31 58  1  0
 34 59  1  0
 35 60  1  0
 36 61  1  0
 36 62  1  0
M  END
>  <smiles>  (18) 
CO[C@H]1CCN(C(=O)CNC(=O)c2ccc3cc(F)ccc3n2)[C@H](C(=O)NCc2ccc(F)cc2)C1

>  <score_type>  (18) 
oracle

>  <origin>  (18) 
autodockgpu

>  <m_score__min__energy>  (18) 
-9.6500000000000004

>  <m_primary>  (18) 
energy

>  <rmsd>  (18) 
3.9133666380089625

>  <m_score__min__rmsd>  (18) 
3.9133666380089625

>  <meeko>  (18) 
{"free_energy": -9.17, "intermolecular_energy": -11.56, "internal_energy": -2.7, "cluster_size": 17, "cluster_id": 1, "rank_in_cluster": 5}

>  <energy>  (18) 
-8.8

>  <cluster_rmsd>  (18) 
0.0

>  <cluster>  (18) 
2

$$$$

     RDKit          3D

 62 65  0  0  0  0  0  0  0  0999 V2000
  142.1310   79.6830  223.7770 C   0  0  0  0  0  0  0  0  0  0  0  0
  141.9780   79.9090  222.4310 O   0  0  0  0  0  0  0  0  0  0  0  0
  141.1840   78.8960  221.8960 C   0  0  1  0  0  0  0  0  0  0  0  0
  141.8310   78.2960  220.6640 C   0  0  0  0  0  0  0  0  0  0  0  0
  140.7980   77.2780  220.1520 C   0  0  0  0  0  0  0  0  0  0  0  0
  140.8810   76.1940  221.1890 N   0  0  0  0  0  0  0  0  0  0  0  0
  141.3970   74.9950  220.7230 C   0  0  0  0  0  0  0  0  0  0  0  0
  142.5870   75.1490  220.1540 O   0  0  0  0  0  0  0  0  0  0  0  0
  140.9390   73.6280  220.7110 C   0  0  0  0  0  0  0  0  0  0  0  0
  141.0590   72.8120  221.8820 N   0  0  0  0  0  0  0  0  0  0  0  0
  139.8320   72.3800  222.5010 C   0  0  0  0  0  0  0  0  0  0  0  0
  138.7770   72.7760  221.9390 O   0  0  0  0  0  0  0  0  0  0  0  0
  139.8170   71.5460  223.6930 C   0  0  0  0  0  0  0  0  0  0  0  0
  139.0470   70.4060  223.6630 C   0  0  0  0  0  0  0  0  0  0  0  0
  138.9440   69.5280  224.7280 C   0  0  0  0  0  0  0  0  0  0  0  0
  139.6810   69.8680  225.8600 C   0  0  0  0  0  0  0  0  0  0  0  0
  139.5860   68.9970  226.9310 C   0  0  0  0  0  0  0  0  0  0  0  0
  140.3100   69.3170  228.0660 C   0  0  0  0  0  0  0  0  0  0  0  0
  140.2110   68.4590  229.1080 F   0  0  0  0  0  0  0  0  0  0  0  0
  141.1000   70.4660  228.1290 C   0  0  0  0  0  0  0  0  0  0  0  0
  141.1710   71.3130  227.0400 C   0  0  0  0  0  0  0  0  0  0  0  0
  140.4580   71.0130  225.8990 C   0  0  0  0  0  0  0  0  0  0  0  0
  140.5100   71.8330  224.8100 N   0  0  0  0  0  0  0  0  0  0  0  0
  140.3650   76.5740  222.4560 C   0  0  2  0  0  0  0  0  0  0  0  0
  138.8580   76.7810  222.3950 C   0  0  0  0  0  0  0  0  0  0  0  0
  138.3630   77.9150  222.1880 O   0  0  0  0  0  0  0  0  0  0  0  0
  137.9920   75.6860  222.5740 N   0  0  0  0  0  0  0  0  0  0  0  0
  136.5570   75.7430  222.5380 C   0  0  0  0  0  0  0  0  0  0  0  0
  135.8810   75.0140  223.6180 C   0  0  0  0  0  0  0  0  0  0  0  0
  135.8150   73.6270  223.5090 C   0  0  0  0  0  0  0  0  0  0  0  0
  135.1910   72.8960  224.4950 C   0  0  0  0  0  0  0  0  0  0  0  0
  134.6250   73.5110  225.5990 C   0  0  0  0  0  0  0  0  0  0  0  0
  134.0070   72.7770  226.5740 F   0  0  0  0  0  0  0  0  0  0  0  0
  134.6810   74.8820  225.7210 C   0  0  0  0  0  0  0  0  0  0  0  0
  135.3080   75.5950  224.7260 C   0  0  0  0  0  0  0  0  0  0  0  0
  141.0650   77.8240  222.9340 C   0  0  0  0  0  0  0  0  0  0  0  0
  141.6020   80.4643  224.3424 H   0  0  0  0  0  0  0  0  0  0  0  0
  141.7130   78.6983  224.0333 H   0  0  0  0  0  0  0  0  0  0  0  0
  143.2005   79.7053  224.0333 H   0  0  0  0  0  0  0  0  0  0  0  0
  140.2039   79.3078  221.6136 H   0  0  0  0  0  0  0  0  0  0  0  0
  142.0227   79.0712  219.9075 H   0  0  0  0  0  0  0  0  0  0  0  0
  142.8049   77.8337  220.8828 H   0  0  0  0  0  0  0  0  0  0  0  0
  139.7902   77.7171  220.1137 H   0  0  0  0  0  0  0  0  0  0  0  0
  140.9941   76.9262  219.1284 H   0  0  0  0  0  0  0  0  0  0  0  0
  139.8697   73.6559  220.4542 H   0  0  0  0  0  0  0  0  0  0  0  0
  141.6240   73.1433  219.9998 H   0  0  0  0  0  0  0  0  0  0  0  0
  141.9690   72.5110  222.3110 H   0  0  0  0  0  0  0  0  0  0  0  0
  138.4842   70.1808  222.7451 H   0  0  0  0  0  0  0  0  0  0  0  0
  138.3216   68.6221  224.6834 H   0  0  0  0  0  0  0  0  0  0  0  0
  138.9633   68.0915  226.8824 H   0  0  0  0  0  0  0  0  0  0  0  0
  141.6651   70.6966  229.0442 H   0  0  0  0  0  0  0  0  0  0  0  0
  141.7918   72.2200  227.0830 H   0  0  0  0  0  0  0  0  0  0  0  0
  140.5550   75.7626  223.1740 H   0  0  0  0  0  0  0  0  0  0  0  0
  138.4670   74.7470  222.7480 H   0  0  0  0  0  0  0  0  0  0  0  0
  136.2556   76.7992  222.5982 H   0  0  0  0  0  0  0  0  0  0  0  0
  136.2529   75.2554  221.6000 H   0  0  0  0  0  0  0  0  0  0  0  0
  136.2588   73.1186  222.6403 H   0  0  0  0  0  0  0  0  0  0  0  0
  135.1411   71.8009  224.4038 H   0  0  0  0  0  0  0  0  0  0  0  0
  134.2372   75.3916  226.5889 H   0  0  0  0  0  0  0  0  0  0  0  0
  135.3540   76.6899  224.8211 H   0  0  0  0  0  0  0  0  0  0  0  0
  140.5011   78.2305  223.7866 H   0  0  0  0  0  0  0  0  0  0  0  0
  142.0901   77.5290  223.2026 H   0  0  0  0  0  0  0  0  0  0  0  0
  1  2  1  0
  2  3  1  0
  3  4  1  0
  4  5  1  0
  5  6  1  0
  6  7  1  0
  7  8  2  0
  7  9  1  0
  9 10  1  0
 10 11  1  0
 11 12  2  0
 11 13  1  0
 13 14  2  0
 14 15  1  0
 15 16  2  0
 16 17  1  0
 17 18  2  0
 18 19  1  0
 18 20  1  0
 20 21  2  0
 21 22  1  0
 22 23  2  0
  6 24  1  0
 24 25  1  0
 25 26  2  0
 25 27  1  0
 27 28  1  0
 28 29  1  0
 29 30  2  0
 30 31  1  0
 31 32  2  0
 32 33  1  0
 32 34  1  0
 34 35  2  0
 24 36  1  0
 36  3  1  0
 23 13  1  0
 35 29  1  0
 22 16  1  0
  1 37  1  0
  1 38  1  0
  1 39  1  0
  3 40  1  6
  4 41  1  0
  4 42  1  0
  5 43  1  0
  5 44  1  0
  9 45  1  0
  9 46  1  0
 10 47  1  0
 14 48  1  0
 15 49  1  0
 17 50  1  0
 20 51  1  0
 21 52  1  0
 24 53  1  1
 27 54  1  0
 28 55  1  0
 28 56  1  0
 30 57  1  0
 31 58  1  0
 34 59  1  0
 35 60  1  0
 36 61  1  0
 36 62  1  0
M  END
>  <smiles>  (19) 
CO[C@H]1CCN(C(=O)CNC(=O)c2ccc3cc(F)ccc3n2)[C@H](C(=O)NCc2ccc(F)cc2)C1

>  <score_type>  (19) 
oracle

>  <origin>  (19) 
autodockgpu

>  <m_score__min__energy>  (19) 
-9.6500000000000004

>  <m_primary>  (19) 
energy

>  <rmsd>  (19) 
5.144825534385333

>  <m_score__min__rmsd>  (19) 
5.144825534385333

>  <meeko>  (19) 
{"free_energy": -8.31, "intermolecular_energy": -10.69, "internal_energy": -2.81, "cluster_size": 14, "cluster_id": 2, "rank_in_cluster": 6}

>  <energy>  (19) 
-8.68

>  <cluster_rmsd>  (19) 
0.34

>  <cluster>  (19) 
2

$$$$

     RDKit          3D

 62 65  0  0  0  0  0  0  0  0999 V2000
  134.3840   68.8400  225.1290 C   0  0  0  0  0  0  0  0  0  0  0  0
  134.7170   68.4650  223.8500 O   0  0  0  0  0  0  0  0  0  0  0  0
  135.9040   69.1030  223.4940 C   0  0  1  0  0  0  0  0  0  0  0  0
  135.8930   69.4850  222.0270 C   0  0  0  0  0  0  0  0  0  0  0  0
  137.2890   70.0810  221.7790 C   0  0  0  0  0  0  0  0  0  0  0  0
  137.2070   71.3910  222.5120 N   0  0  0  0  0  0  0  0  0  0  0  0
  137.2490   72.5080  221.6920 C   0  0  0  0  0  0  0  0  0  0  0  0
  136.2180   73.3190  221.8990 O   0  0  0  0  0  0  0  0  0  0  0  0
  138.1460   72.9860  220.6710 C   0  0  0  0  0  0  0  0  0  0  0  0
  138.6030   74.3430  220.6840 N   0  0  0  0  0  0  0  0  0  0  0  0
  139.6580   74.6650  221.6100 C   0  0  0  0  0  0  0  0  0  0  0  0
  140.0640   73.7060  222.3190 O   0  0  0  0  0  0  0  0  0  0  0  0
  140.2120   76.0060  221.7190 C   0  0  0  0  0  0  0  0  0  0  0  0
  141.2100   76.3570  220.8390 C   0  0  0  0  0  0  0  0  0  0  0  0
  141.8220   77.5980  220.8360 C   0  0  0  0  0  0  0  0  0  0  0  0
  141.3610   78.4970  221.7950 C   0  0  0  0  0  0  0  0  0  0  0  0
  141.9660   79.7420  221.8010 C   0  0  0  0  0  0  0  0  0  0  0  0
  141.5230   80.6500  222.7470 C   0  0  0  0  0  0  0  0  0  0  0  0
  142.1200   81.8650  222.7450 F   0  0  0  0  0  0  0  0  0  0  0  0
  140.5130   80.3260  223.6540 C   0  0  0  0  0  0  0  0  0  0  0  0
  139.9320   79.0730  223.6190 C   0  0  0  0  0  0  0  0  0  0  0  0
  140.3580   78.1530  222.6850 C   0  0  0  0  0  0  0  0  0  0  0  0
  139.8020   76.9090  222.6290 N   0  0  0  0  0  0  0  0  0  0  0  0
  137.1550   71.2540  223.9240 C   0  0  2  0  0  0  0  0  0  0  0  0
  138.4690   70.7150  224.4720 C   0  0  0  0  0  0  0  0  0  0  0  0
  138.5410   69.5750  224.9900 O   0  0  0  0  0  0  0  0  0  0  0  0
  139.6340   71.5020  224.4030 N   0  0  0  0  0  0  0  0  0  0  0  0
  140.9330   71.1140  224.8780 C   0  0  0  0  0  0  0  0  0  0  0  0
  140.9260   70.2260  226.0460 C   0  0  0  0  0  0  0  0  0  0  0  0
  140.3650   70.7200  227.2210 C   0  0  0  0  0  0  0  0  0  0  0  0
  140.3330   69.9260  228.3460 C   0  0  0  0  0  0  0  0  0  0  0  0
  140.8500   68.6410  228.3360 C   0  0  0  0  0  0  0  0  0  0  0  0
  140.8150   67.8600  229.4580 F   0  0  0  0  0  0  0  0  0  0  0  0
  141.4090   68.1390  227.1820 C   0  0  0  0  0  0  0  0  0  0  0  0
  141.4320   68.9460  226.0690 C   0  0  0  0  0  0  0  0  0  0  0  0
  136.0010   70.3570  224.3050 C   0  0  0  0  0  0  0  0  0  0  0  0
  134.9362   68.2181  225.8489 H   0  0  0  0  0  0  0  0  0  0  0  0
  134.6462   69.8974  225.2811 H   0  0  0  0  0  0  0  0  0  0  0  0
  133.3030   68.7047  225.2811 H   0  0  0  0  0  0  0  0  0  0  0  0
  136.7527   68.4273  223.6761 H   0  0  0  0  0  0  0  0  0  0  0  0
  135.7294   68.5997  221.3950 H   0  0  0  0  0  0  0  0  0  0  0  0
  135.0853   70.1906  221.7825 H   0  0  0  0  0  0  0  0  0  0  0  0
  138.0776   69.4382  222.1972 H   0  0  0  0  0  0  0  0  0  0  0  0
  137.5429   70.1851  220.7138 H   0  0  0  0  0  0  0  0  0  0  0  0
  139.0428   72.3507  220.7165 H   0  0  0  0  0  0  0  0  0  0  0  0
  137.5316   72.9400  219.7598 H   0  0  0  0  0  0  0  0  0  0  0  0
  138.2270   75.1080  220.0700 H   0  0  0  0  0  0  0  0  0  0  0  0
  141.5384   75.6121  220.0993 H   0  0  0  0  0  0  0  0  0  0  0  0
  142.6193   77.8573  220.1239 H   0  0  0  0  0  0  0  0  0  0  0  0
  142.7624   79.9980  221.0867 H   0  0  0  0  0  0  0  0  0  0  0  0
  140.1800   81.0671  224.3956 H   0  0  0  0  0  0  0  0  0  0  0  0
  139.1355   78.8115  224.3311 H   0  0  0  0  0  0  0  0  0  0  0  0
  136.9966   72.2470  224.3700 H   0  0  0  0  0  0  0  0  0  0  0  0
  139.5140   72.4620  223.9550 H   0  0  0  0  0  0  0  0  0  0  0  0
  141.4554   70.5972  224.0595 H   0  0  0  0  0  0  0  0  0  0  0  0
  141.4325   72.0401  225.1987 H   0  0  0  0  0  0  0  0  0  0  0  0
  139.9499   71.7383  227.2505 H   0  0  0  0  0  0  0  0  0  0  0  0
  139.8877   70.3204  229.2713 H   0  0  0  0  0  0  0  0  0  0  0  0
  141.8253   67.1213  227.1515 H   0  0  0  0  0  0  0  0  0  0  0  0
  141.8792   68.5470  225.1466 H   0  0  0  0  0  0  0  0  0  0  0  0
  136.1172   70.0759  225.3621 H   0  0  0  0  0  0  0  0  0  0  0  0
  135.0806   70.9284  224.1142 H   0  0  0  0  0  0  0  0  0  0  0  0
  1  2  1  0
  2  3  1  0
  3  4  1  0
  4  5  1  0
  5  6  1  0
  6  7  1  0
  7  8  2  0
  7  9  1  0
  9 10  1  0
 10 11  1  0
 11 12  2  0
 11 13  1  0
 13 14  2  0
 14 15  1  0
 15 16  2  0
 16 17  1  0
 17 18  2  0
 18 19  1  0
 18 20  1  0
 20 21  2  0
 21 22  1  0
 22 23  2  0
  6 24  1  0
 24 25  1  0
 25 26  2  0
 25 27  1  0
 27 28  1  0
 28 29  1  0
 29 30  2  0
 30 31  1  0
 31 32  2  0
 32 33  1  0
 32 34  1  0
 34 35  2  0
 24 36  1  0
 36  3  1  0
 23 13  1  0
 35 29  1  0
 22 16  1  0
  1 37  1  0
  1 38  1  0
  1 39  1  0
  3 40  1  6
  4 41  1  0
  4 42  1  0
  5 43  1  0
  5 44  1  0
  9 45  1  0
  9 46  1  0
 10 47  1  0
 14 48  1  0
 15 49  1  0
 17 50  1  0
 20 51  1  0
 21 52  1  0
 24 53  1  1
 27 54  1  0
 28 55  1  0
 28 56  1  0
 30 57  1  0
 31 58  1  0
 34 59  1  0
 35 60  1  0
 36 61  1  0
 36 62  1  0
M  END
>  <smiles>  (20) 
CO[C@H]1CCN(C(=O)CNC(=O)c2ccc3cc(F)ccc3n2)[C@H](C(=O)NCc2ccc(F)cc2)C1

>  <score_type>  (20) 
oracle

>  <origin>  (20) 
autodockgpu

>  <m_score__min__energy>  (20) 
-9.6500000000000004

>  <m_primary>  (20) 
energy

>  <rmsd>  (20) 
9.776048976783967

>  <m_score__min__rmsd>  (20) 
9.776048976783967

>  <meeko>  (20) 
{"free_energy": -8.47, "intermolecular_energy": -10.85, "internal_energy": -2.44, "cluster_size": 1, "cluster_id": 4, "rank_in_cluster": 1}

>  <energy>  (20) 
-8.59

>  <cluster_rmsd>  (20) 
0.49

>  <cluster>  (20) 
2

$$$$

     RDKit          3D

 62 65  0  0  0  0  0  0  0  0999 V2000
  144.0650   72.0790  219.6140 C   0  0  0  0  0  0  0  0  0  0  0  0
  143.2430   72.3600  218.5500 O   0  0  0  0  0  0  0  0  0  0  0  0
  142.4380   73.4480  218.8820 C   0  0  1  0  0  0  0  0  0  0  0  0
  140.9710   73.1090  218.7020 C   0  0  0  0  0  0  0  0  0  0  0  0
  140.2370   74.4240  219.0130 C   0  0  0  0  0  0  0  0  0  0  0  0
  140.4190   74.5430  220.4990 N   0  0  0  0  0  0  0  0  0  0  0  0
  139.2470   74.4210  221.2290 C   0  0  0  0  0  0  0  0  0  0  0  0
  138.9310   75.5460  221.8600 O   0  0  0  0  0  0  0  0  0  0  0  0
  138.3000   73.3600  221.4620 C   0  0  0  0  0  0  0  0  0  0  0  0
  138.3750   72.5690  222.6540 N   0  0  0  0  0  0  0  0  0  0  0  0
  139.5110   71.6930  222.7820 C   0  0  0  0  0  0  0  0  0  0  0  0
  140.3220   71.7180  221.8190 O   0  0  0  0  0  0  0  0  0  0  0  0
  139.7050   70.8400  223.9450 C   0  0  0  0  0  0  0  0  0  0  0  0
  139.2370   69.5480  223.8720 C   0  0  0  0  0  0  0  0  0  0  0  0
  139.3570   68.6350  224.9060 C   0  0  0  0  0  0  0  0  0  0  0  0
  139.9920   69.1060  226.0530 C   0  0  0  0  0  0  0  0  0  0  0  0
  140.1170   68.2010  227.0930 C   0  0  0  0  0  0  0  0  0  0  0  0
  140.7440   68.6500  228.2420 C   0  0  0  0  0  0  0  0  0  0  0  0
  140.8620   67.7580  229.2530 F   0  0  0  0  0  0  0  0  0  0  0  0
  141.2290   69.9540  228.3480 C   0  0  0  0  0  0  0  0  0  0  0  0
  141.0860   70.8300  227.2890 C   0  0  0  0  0  0  0  0  0  0  0  0
  140.4650   70.4040  226.1350 C   0  0  0  0  0  0  0  0  0  0  0  0
  140.3100   71.2490  225.0750 N   0  0  0  0  0  0  0  0  0  0  0  0
  141.7560   74.8130  220.8930 C   0  0  2  0  0  0  0  0  0  0  0  0
  142.1870   76.2050  220.4520 C   0  0  0  0  0  0  0  0  0  0  0  0
  143.2780   76.3940  219.8630 O   0  0  0  0  0  0  0  0  0  0  0  0
  141.3540   77.3110  220.7060 N   0  0  0  0  0  0  0  0  0  0  0  0
  141.6390   78.6710  220.3420 C   0  0  0  0  0  0  0  0  0  0  0  0
  141.8380   79.5860  221.4720 C   0  0  0  0  0  0  0  0  0  0  0  0
  142.2680   79.0320  222.6740 C   0  0  0  0  0  0  0  0  0  0  0  0
  142.4710   79.8470  223.7660 C   0  0  0  0  0  0  0  0  0  0  0  0
  142.2540   81.2140  223.6950 C   0  0  0  0  0  0  0  0  0  0  0  0
  142.4570   82.0160  224.7830 F   0  0  0  0  0  0  0  0  0  0  0  0
  141.8280   81.7770  222.5120 C   0  0  0  0  0  0  0  0  0  0  0  0
  141.6310   80.9470  221.4330 C   0  0  0  0  0  0  0  0  0  0  0  0
  142.6750   73.7570  220.3270 C   0  0  0  0  0  0  0  0  0  0  0  0
  143.5243   72.2638  220.5539 H   0  0  0  0  0  0  0  0  0  0  0  0
  144.3740   71.0242  219.5701 H   0  0  0  0  0  0  0  0  0  0  0  0
  144.9550   72.7239  219.5701 H   0  0  0  0  0  0  0  0  0  0  0  0
  142.6852   74.3002  218.2319 H   0  0  0  0  0  0  0  0  0  0  0  0
  140.7696   72.7848  217.6703 H   0  0  0  0  0  0  0  0  0  0  0  0
  140.6474   72.2828  219.3522 H   0  0  0  0  0  0  0  0  0  0  0  0
  140.6972   75.2724  218.4853 H   0  0  0  0  0  0  0  0  0  0  0  0
  139.1841   74.4288  218.6946 H   0  0  0  0  0  0  0  0  0  0  0  0
  137.3012   73.8207  221.4515 H   0  0  0  0  0  0  0  0  0  0  0  0
  138.5383   72.6362  220.6687 H   0  0  0  0  0  0  0  0  0  0  0  0
  137.6660   72.5860  223.4290 H   0  0  0  0  0  0  0  0  0  0  0  0
  138.7422   69.2239  222.9446 H   0  0  0  0  0  0  0  0  0  0  0  0
  138.9762   67.6060  224.8270 H   0  0  0  0  0  0  0  0  0  0  0  0
  139.7356   67.1726  227.0099 H   0  0  0  0  0  0  0  0  0  0  0  0
  141.7243   70.2841  229.2730 H   0  0  0  0  0  0  0  0  0  0  0  0
  141.4650   71.8597  227.3666 H   0  0  0  0  0  0  0  0  0  0  0  0
  141.8143   74.7841  221.9911 H   0  0  0  0  0  0  0  0  0  0  0  0
  140.4400   77.0930  221.2100 H   0  0  0  0  0  0  0  0  0  0  0  0
  142.5549   78.6766  219.7328 H   0  0  0  0  0  0  0  0  0  0  0  0
  140.7535   79.0371  219.8018 H   0  0  0  0  0  0  0  0  0  0  0  0
  142.4449   77.9491  222.7518 H   0  0  0  0  0  0  0  0  0  0  0  0
  142.8121   79.4039  224.7133 H   0  0  0  0  0  0  0  0  0  0  0  0
  141.6504   82.8597  222.4326 H   0  0  0  0  0  0  0  0  0  0  0  0
  141.2897   81.3945  220.4879 H   0  0  0  0  0  0  0  0  0  0  0  0
  143.7121   74.1060  220.4395 H   0  0  0  0  0  0  0  0  0  0  0  0
  142.4740   72.8308  220.8854 H   0  0  0  0  0  0  0  0  0  0  0  0
  1  2  1  0
  2  3  1  0
  3  4  1  0
  4  5  1  0
  5  6  1  0
  6  7  1  0
  7  8  2  0
  7  9  1  0
  9 10  1  0
 10 11  1  0
 11 12  2  0
 11 13  1  0
 13 14  2  0
 14 15  1  0
 15 16  2  0
 16 17  1  0
 17 18  2  0
 18 19  1  0
 18 20  1  0
 20 21  2  0
 21 22  1  0
 22 23  2  0
  6 24  1  0
 24 25  1  0
 25 26  2  0
 25 27  1  0
 27 28  1  0
 28 29  1  0
 29 30  2  0
 30 31  1  0
 31 32  2  0
 32 33  1  0
 32 34  1  0
 34 35  2  0
 24 36  1  0
 36  3  1  0
 23 13  1  0
 35 29  1  0
 22 16  1  0
  1 37  1  0
  1 38  1  0
  1 39  1  0
  3 40  1  6
  4 41  1  0
  4 42  1  0
  5 43  1  0
  5 44  1  0
  9 45  1  0
  9 46  1  0
 10 47  1  0
 14 48  1  0
 15 49  1  0
 17 50  1  0
 20 51  1  0
 21 52  1  0
 24 53  1  1
 27 54  1  0
 28 55  1  0
 28 56  1  0
 30 57  1  0
 31 58  1  0
 34 59  1  0
 35 60  1  0
 36 61  1  0
 36 62  1  0
M  END
>  <smiles>  (21) 
CO[C@H]1CCN(C(=O)CNC(=O)c2ccc3cc(F)ccc3n2)[C@H](C(=O)NCc2ccc(F)cc2)C1

>  <score_type>  (21) 
oracle

>  <origin>  (21) 
autodockgpu

>  <m_score__min__energy>  (21) 
-9.6500000000000004

>  <m_primary>  (21) 
energy

>  <rmsd>  (21) 
2.5888931682330614

>  <m_score__min__rmsd>  (21) 
2.5888931682330614

>  <meeko>  (21) 
{"free_energy": -8.2, "intermolecular_energy": -10.59, "internal_energy": -2.47, "cluster_size": 17, "cluster_id": 1, "rank_in_cluster": 15}

>  <energy>  (21) 
-8.55

>  <cluster_rmsd>  (21) 
0.4

>  <cluster>  (21) 
2

$$$$

     RDKit          3D

 62 65  0  0  0  0  0  0  0  0999 V2000
  146.3430   73.3650  221.1560 C   0  0  0  0  0  0  0  0  0  0  0  0
  146.1550   73.3340  219.7950 O   0  0  0  0  0  0  0  0  0  0  0  0
  144.8200   73.6260  219.5230 C   0  0  1  0  0  0  0  0  0  0  0  0
  144.2260   72.6010  218.5770 C   0  0  0  0  0  0  0  0  0  0  0  0
  142.8010   73.1150  218.3080 C   0  0  0  0  0  0  0  0  0  0  0  0
  142.1190   72.8580  219.6220 N   0  0  0  0  0  0  0  0  0  0  0  0
  141.1290   71.8890  219.5720 C   0  0  0  0  0  0  0  0  0  0  0  0
  141.3570   70.9870  218.6240 O   0  0  0  0  0  0  0  0  0  0  0  0
  139.9140   71.6400  220.3050 C   0  0  0  0  0  0  0  0  0  0  0  0
  139.9500   70.9350  221.5520 N   0  0  0  0  0  0  0  0  0  0  0  0
  140.2410   71.7120  222.7290 C   0  0  0  0  0  0  0  0  0  0  0  0
  140.4390   72.9400  222.5290 O   0  0  0  0  0  0  0  0  0  0  0  0
  140.3040   71.1170  224.0550 C   0  0  0  0  0  0  0  0  0  0  0  0
  140.7300   71.9140  225.0920 C   0  0  0  0  0  0  0  0  0  0  0  0
  140.8360   71.4730  226.4000 C   0  0  0  0  0  0  0  0  0  0  0  0
  140.4790   70.1430  226.6150 C   0  0  0  0  0  0  0  0  0  0  0  0
  140.5810   69.6900  227.9190 C   0  0  0  0  0  0  0  0  0  0  0  0
  140.2310   68.3720  228.1540 C   0  0  0  0  0  0  0  0  0  0  0  0
  140.3340   67.9380  229.4320 F   0  0  0  0  0  0  0  0  0  0  0  0
  139.7960   67.5370  227.1240 C   0  0  0  0  0  0  0  0  0  0  0  0
  139.7070   68.0230  225.8340 C   0  0  0  0  0  0  0  0  0  0  0  0
  140.0500   69.3340  225.5780 C   0  0  0  0  0  0  0  0  0  0  0  0
  139.9710   69.8390  224.3130 N   0  0  0  0  0  0  0  0  0  0  0  0
  142.5750   73.6920  220.6760 C   0  0  2  0  0  0  0  0  0  0  0  0
  142.1760   75.1420  220.4390 C   0  0  0  0  0  0  0  0  0  0  0  0
  142.8740   75.9030  219.7280 O   0  0  0  0  0  0  0  0  0  0  0  0
  141.0020   75.6510  221.0260 N   0  0  0  0  0  0  0  0  0  0  0  0
  140.5120   76.9950  220.8820 C   0  0  0  0  0  0  0  0  0  0  0  0
  141.1850   77.9940  221.7190 C   0  0  0  0  0  0  0  0  0  0  0  0
  141.1860   77.7780  223.0950 C   0  0  0  0  0  0  0  0  0  0  0  0
  141.8050   78.6860  223.9250 C   0  0  0  0  0  0  0  0  0  0  0  0
  142.4300   79.8150  223.4210 C   0  0  0  0  0  0  0  0  0  0  0  0
  143.0420   80.7120  224.2530 F   0  0  0  0  0  0  0  0  0  0  0  0
  142.4370   80.0420  222.0620 C   0  0  0  0  0  0  0  0  0  0  0  0
  141.8140   79.1250  221.2490 C   0  0  0  0  0  0  0  0  0  0  0  0
  144.0730   73.5590  220.8180 C   0  0  0  0  0  0  0  0  0  0  0  0
  145.3798   73.2062  221.6629 H   0  0  0  0  0  0  0  0  0  0  0  0
  147.0460   72.5706  221.4472 H   0  0  0  0  0  0  0  0  0  0  0  0
  146.7537   74.3430  221.4472 H   0  0  0  0  0  0  0  0  0  0  0  0
  144.7483   74.6197  219.0567 H   0  0  0  0  0  0  0  0  0  0  0  0
  144.8051   72.5506  217.6431 H   0  0  0  0  0  0  0  0  0  0  0  0
  144.2344   71.5849  218.9983 H   0  0  0  0  0  0  0  0  0  0  0  0
  142.8032   74.1873  218.0625 H   0  0  0  0  0  0  0  0  0  0  0  0
  142.3098   72.6286  217.4524 H   0  0  0  0  0  0  0  0  0  0  0  0
  139.4628   72.6219  220.5107 H   0  0  0  0  0  0  0  0  0  0  0  0
  139.3638   70.9516  219.6467 H   0  0  0  0  0  0  0  0  0  0  0  0
  139.7780   69.9050  221.6630 H   0  0  0  0  0  0  0  0  0  0  0  0
  141.0007   72.9569  224.8703 H   0  0  0  0  0  0  0  0  0  0  0  0
  141.1788   72.1280  227.2145 H   0  0  0  0  0  0  0  0  0  0  0  0
  140.9245   70.3476  228.7312 H   0  0  0  0  0  0  0  0  0  0  0  0
  139.5243   66.4930  227.3391 H   0  0  0  0  0  0  0  0  0  0  0  0
  139.3653   67.3697  225.0176 H   0  0  0  0  0  0  0  0  0  0  0  0
  142.0990   73.3693  221.6137 H   0  0  0  0  0  0  0  0  0  0  0  0
  140.4480   74.9620  221.6220 H   0  0  0  0  0  0  0  0  0  0  0  0
  140.6356   77.2922  219.8302 H   0  0  0  0  0  0  0  0  0  0  0  0
  139.4624   76.9760  221.2105 H   0  0  0  0  0  0  0  0  0  0  0  0
  140.6956   76.8879  223.5160 H   0  0  0  0  0  0  0  0  0  0  0  0
  141.8031   78.5112  225.0110 H   0  0  0  0  0  0  0  0  0  0  0  0
  142.9271   80.9316  221.6396 H   0  0  0  0  0  0  0  0  0  0  0  0
  141.8183   79.3047  220.1638 H   0  0  0  0  0  0  0  0  0  0  0  0
  144.4317   74.3725  221.4657 H   0  0  0  0  0  0  0  0  0  0  0  0
  144.2632   72.5618  221.2415 H   0  0  0  0  0  0  0  0  0  0  0  0
  1  2  1  0
  2  3  1  0
  3  4  1  0
  4  5  1  0
  5  6  1  0
  6  7  1  0
  7  8  2  0
  7  9  1  0
  9 10  1  0
 10 11  1  0
 11 12  2  0
 11 13  1  0
 13 14  2  0
 14 15  1  0
 15 16  2  0
 16 17  1  0
 17 18  2  0
 18 19  1  0
 18 20  1  0
 20 21  2  0
 21 22  1  0
 22 23  2  0
  6 24  1  0
 24 25  1  0
 25 26  2  0
 25 27  1  0
 27 28  1  0
 28 29  1  0
 29 30  2  0
 30 31  1  0
 31 32  2  0
 32 33  1  0
 32 34  1  0
 34 35  2  0
 24 36  1  0
 36  3  1  0
 23 13  1  0
 35 29  1  0
 22 16  1  0
  1 37  1  0
  1 38  1  0
  1 39  1  0
  3 40  1  6
  4 41  1  0
  4 42  1  0
  5 43  1  0
  5 44  1  0
  9 45  1  0
  9 46  1  0
 10 47  1  0
 14 48  1  0
 15 49  1  0
 17 50  1  0
 20 51  1  0
 21 52  1  0
 24 53  1  1
 27 54  1  0
 28 55  1  0
 28 56  1  0
 30 57  1  0
 31 58  1  0
 34 59  1  0
 35 60  1  0
 36 61  1  0
 36 62  1  0
M  END
>  <smiles>  (22) 
CO[C@H]1CCN(C(=O)CNC(=O)c2ccc3cc(F)ccc3n2)[C@H](C(=O)NCc2ccc(F)cc2)C1

>  <score_type>  (22) 
oracle

>  <origin>  (22) 
autodockgpu

>  <m_score__min__energy>  (22) 
-9.6500000000000004

>  <m_primary>  (22) 
energy

>  <rmsd>  (22) 
3.9870287319866407

>  <m_score__min__rmsd>  (22) 
3.9870287319866407

>  <meeko>  (22) 
{"free_energy": -9.2, "intermolecular_energy": -11.59, "internal_energy": -2.67, "cluster_size": 17, "cluster_id": 1, "rank_in_cluster": 3}

>  <energy>  (22) 
-8.32

>  <cluster_rmsd>  (22) 
0.58

>  <cluster>  (22) 
2

$$$$

     RDKit          3D

 62 65  0  0  0  0  0  0  0  0999 V2000
  142.1710   80.9160  221.5880 C   0  0  0  0  0  0  0  0  0  0  0  0
  141.8880   79.9990  222.5710 O   0  0  0  0  0  0  0  0  0  0  0  0
  141.1340   78.9680  222.0140 C   0  0  1  0  0  0  0  0  0  0  0  0
  141.8350   78.3770  220.8070 C   0  0  0  0  0  0  0  0  0  0  0  0
  140.8430   77.3350  220.2640 C   0  0  0  0  0  0  0  0  0  0  0  0
  140.9140   76.2570  221.3080 N   0  0  0  0  0  0  0  0  0  0  0  0
  141.4710   75.0680  220.8640 C   0  0  0  0  0  0  0  0  0  0  0  0
  142.7070   75.2330  220.4080 O   0  0  0  0  0  0  0  0  0  0  0  0
  141.0190   73.7020  220.7830 C   0  0  0  0  0  0  0  0  0  0  0  0
  141.1420   72.8280  221.9100 N   0  0  0  0  0  0  0  0  0  0  0  0
  139.9250   72.4760  222.5960 C   0  0  0  0  0  0  0  0  0  0  0  0
  138.8740   72.9860  222.1230 O   0  0  0  0  0  0  0  0  0  0  0  0
  139.9130   71.5940  223.7530 C   0  0  0  0  0  0  0  0  0  0  0  0
  139.2690   70.3860  223.6270 C   0  0  0  0  0  0  0  0  0  0  0  0
  139.1840   69.4570  224.6490 C   0  0  0  0  0  0  0  0  0  0  0  0
  139.8020   69.8200  225.8440 C   0  0  0  0  0  0  0  0  0  0  0  0
  139.7240   68.8990  226.8740 C   0  0  0  0  0  0  0  0  0  0  0  0
  140.3310   69.2410  228.0690 C   0  0  0  0  0  0  0  0  0  0  0  0
  140.2500   68.3340  229.0700 F   0  0  0  0  0  0  0  0  0  0  0  0
  140.9930   70.4600  228.2300 C   0  0  0  0  0  0  0  0  0  0  0  0
  141.0500   71.3550  227.1790 C   0  0  0  0  0  0  0  0  0  0  0  0
  140.4530   71.0340  225.9800 C   0  0  0  0  0  0  0  0  0  0  0  0
  140.4950   71.9010  224.9270 N   0  0  0  0  0  0  0  0  0  0  0  0
  140.3480   76.6300  222.5560 C   0  0  2  0  0  0  0  0  0  0  0  0
  138.8400   76.8040  222.4440 C   0  0  0  0  0  0  0  0  0  0  0  0
  138.3260   77.9290  222.2400 O   0  0  0  0  0  0  0  0  0  0  0  0
  137.9940   75.6860  222.5700 N   0  0  0  0  0  0  0  0  0  0  0  0
  136.5600   75.7100  222.4830 C   0  0  0  0  0  0  0  0  0  0  0  0
  135.8620   74.9460  223.5240 C   0  0  0  0  0  0  0  0  0  0  0  0
  135.2970   75.6660  224.5740 C   0  0  0  0  0  0  0  0  0  0  0  0
  134.6310   74.9970  225.5760 C   0  0  0  0  0  0  0  0  0  0  0  0
  134.5090   73.6170  225.5650 C   0  0  0  0  0  0  0  0  0  0  0  0
  133.8470   72.9600  226.5650 F   0  0  0  0  0  0  0  0  0  0  0  0
  135.0640   72.8910  224.5330 C   0  0  0  0  0  0  0  0  0  0  0  0
  135.7250   73.5770  223.5410 C   0  0  0  0  0  0  0  0  0  0  0  0
  141.0030   77.8970  223.0520 C   0  0  0  0  0  0  0  0  0  0  0  0
  142.4654   81.8698  222.0501 H   0  0  0  0  0  0  0  0  0  0  0  0
  142.9953   80.5414  220.9634 H   0  0  0  0  0  0  0  0  0  0  0  0
  141.2789   81.0711  220.9634 H   0  0  0  0  0  0  0  0  0  0  0  0
  140.1556   79.3582  221.6971 H   0  0  0  0  0  0  0  0  0  0  0  0
  142.0357   79.1534  220.0540 H   0  0  0  0  0  0  0  0  0  0  0  0
  142.8102   77.9363  221.0614 H   0  0  0  0  0  0  0  0  0  0  0  0
  139.8277   77.7517  220.1891 H   0  0  0  0  0  0  0  0  0  0  0  0
  141.0818   76.9840  219.2492 H   0  0  0  0  0  0  0  0  0  0  0  0
  139.9496   73.7385  220.5277 H   0  0  0  0  0  0  0  0  0  0  0  0
  141.7066   73.2571  220.0487 H   0  0  0  0  0  0  0  0  0  0  0  0
  142.0470   72.4300  222.2640 H   0  0  0  0  0  0  0  0  0  0  0  0
  138.7965   70.1453  222.6632 H   0  0  0  0  0  0  0  0  0  0  0  0
  138.6632   68.4959  224.5263 H   0  0  0  0  0  0  0  0  0  0  0  0
  139.2029   67.9385  226.7481 H   0  0  0  0  0  0  0  0  0  0  0  0
  141.4678   70.7070  229.1910 H   0  0  0  0  0  0  0  0  0  0  0  0
  141.5687   72.3176  227.2990 H   0  0  0  0  0  0  0  0  0  0  0  0
  140.5326   75.8253  223.2829 H   0  0  0  0  0  0  0  0  0  0  0  0
  138.4840   74.7540  222.7440 H   0  0  0  0  0  0  0  0  0  0  0  0
  136.2316   76.7577  222.5507 H   0  0  0  0  0  0  0  0  0  0  0  0
  136.3022   75.2322  221.5263 H   0  0  0  0  0  0  0  0  0  0  0  0
  135.3824   76.7623  224.6024 H   0  0  0  0  0  0  0  0  0  0  0  0
  134.1863   75.5702  226.4028 H   0  0  0  0  0  0  0  0  0  0  0  0
  134.9806   71.7946  224.5037 H   0  0  0  0  0  0  0  0  0  0  0  0
  136.1683   72.9997  222.7162 H   0  0  0  0  0  0  0  0  0  0  0  0
  140.4012   78.2938  223.8829 H   0  0  0  0  0  0  0  0  0  0  0  0
  142.0246   77.6259  223.3567 H   0  0  0  0  0  0  0  0  0  0  0  0
  1  2  1  0
  2  3  1  0
  3  4  1  0
  4  5  1  0
  5  6  1  0
  6  7  1  0
  7  8  2  0
  7  9  1  0
  9 10  1  0
 10 11  1  0
 11 12  2  0
 11 13  1  0
 13 14  2  0
 14 15  1  0
 15 16  2  0
 16 17  1  0
 17 18  2  0
 18 19  1  0
 18 20  1  0
 20 21  2  0
 21 22  1  0
 22 23  2  0
  6 24  1  0
 24 25  1  0
 25 26  2  0
 25 27  1  0
 27 28  1  0
 28 29  1  0
 29 30  2  0
 30 31  1  0
 31 32  2  0
 32 33  1  0
 32 34  1  0
 34 35  2  0
 24 36  1  0
 36  3  1  0
 23 13  1  0
 35 29  1  0
 22 16  1  0
  1 37  1  0
  1 38  1  0
  1 39  1  0
  3 40  1  6
  4 41  1  0
  4 42  1  0
  5 43  1  0
  5 44  1  0
  9 45  1  0
  9 46  1  0
 10 47  1  0
 14 48  1  0
 15 49  1  0
 17 50  1  0
 20 51  1  0
 21 52  1  0
 24 53  1  1
 27 54  1  0
 28 55  1  0
 28 56  1  0
 30 57  1  0
 31 58  1  0
 34 59  1  0
 35 60  1  0
 36 61  1  0
 36 62  1  0
M  END
>  <smiles>  (23) 
CO[C@H]1CCN(C(=O)CNC(=O)c2ccc3cc(F)ccc3n2)[C@H](C(=O)NCc2ccc(F)cc2)C1

>  <score_type>  (23) 
oracle

>  <origin>  (23) 
autodockgpu

>  <m_score__min__energy>  (23) 
-9.6500000000000004

>  <m_primary>  (23) 
energy

>  <rmsd>  (23) 
5.157360448863425

>  <m_score__min__rmsd>  (23) 
5.157360448863425

>  <meeko>  (23) 
{"free_energy": -8.24, "intermolecular_energy": -10.63, "internal_energy": -2.74, "cluster_size": 14, "cluster_id": 2, "rank_in_cluster": 7}

>  <energy>  (23) 
-8.31

>  <cluster_rmsd>  (23) 
0.61

>  <cluster>  (23) 
2

$$$$

     RDKit          3D

 62 65  0  0  0  0  0  0  0  0999 V2000
  141.8050   79.6430  223.8800 C   0  0  0  0  0  0  0  0  0  0  0  0
  142.0550   79.6150  222.5290 O   0  0  0  0  0  0  0  0  0  0  0  0
  141.2040   78.6840  221.9370 C   0  0  1  0  0  0  0  0  0  0  0  0
  141.7880   78.1670  220.6380 C   0  0  0  0  0  0  0  0  0  0  0  0
  140.6990   77.2390  220.0740 C   0  0  0  0  0  0  0  0  0  0  0  0
  140.7660   76.0680  221.0120 N   0  0  0  0  0  0  0  0  0  0  0  0
  141.2160   74.8940  220.4290 C   0  0  0  0  0  0  0  0  0  0  0  0
  142.2790   75.0930  219.6580 O   0  0  0  0  0  0  0  0  0  0  0  0
  140.7970   73.5150  220.4650 C   0  0  0  0  0  0  0  0  0  0  0  0
  140.9160   72.7510  221.6700 N   0  0  0  0  0  0  0  0  0  0  0  0
  139.6900   72.3720  222.3230 C   0  0  0  0  0  0  0  0  0  0  0  0
  138.6350   72.7620  221.7560 O   0  0  0  0  0  0  0  0  0  0  0  0
  139.6740   71.5930  223.5520 C   0  0  0  0  0  0  0  0  0  0  0  0
  138.8430   70.4980  223.6020 C   0  0  0  0  0  0  0  0  0  0  0  0
  138.7330   69.6740  224.7090 C   0  0  0  0  0  0  0  0  0  0  0  0
  139.5290   70.0230  225.7980 C   0  0  0  0  0  0  0  0  0  0  0  0
  139.4280   69.2060  226.9110 C   0  0  0  0  0  0  0  0  0  0  0  0
  140.2100   69.5350  228.0040 C   0  0  0  0  0  0  0  0  0  0  0  0
  140.1040   68.7310  229.0870 F   0  0  0  0  0  0  0  0  0  0  0  0
  141.0640   70.6390  227.9860 C   0  0  0  0  0  0  0  0  0  0  0  0
  141.1390   71.4320  226.8570 C   0  0  0  0  0  0  0  0  0  0  0  0
  140.3680   71.1220  225.7570 C   0  0  0  0  0  0  0  0  0  0  0  0
  140.4240   71.8890  224.6300 N   0  0  0  0  0  0  0  0  0  0  0  0
  140.3040   76.3570  222.3230 C   0  0  2  0  0  0  0  0  0  0  0  0
  138.8060   76.6280  222.3300 C   0  0  0  0  0  0  0  0  0  0  0  0
  138.3480   77.7700  222.0860 O   0  0  0  0  0  0  0  0  0  0  0  0
  137.9050   75.5840  222.6140 N   0  0  0  0  0  0  0  0  0  0  0  0
  136.4740   75.7030  222.6500 C   0  0  0  0  0  0  0  0  0  0  0  0
  135.8050   74.8470  223.6360 C   0  0  0  0  0  0  0  0  0  0  0  0
  135.8230   73.4730  223.4050 C   0  0  0  0  0  0  0  0  0  0  0  0
  135.2100   72.6250  224.3000 C   0  0  0  0  0  0  0  0  0  0  0  0
  134.5720   73.1080  225.4300 C   0  0  0  0  0  0  0  0  0  0  0  0
  133.9650   72.2580  226.3130 F   0  0  0  0  0  0  0  0  0  0  0  0
  134.5450   74.4640  225.6720 C   0  0  0  0  0  0  0  0  0  0  0  0
  135.1630   75.2960  224.7670 C   0  0  0  0  0  0  0  0  0  0  0  0
  141.0690   77.5320  222.8830 C   0  0  0  0  0  0  0  0  0  0  0  0
  142.7515   79.5370  224.4303 H   0  0  0  0  0  0  0  0  0  0  0  0
  141.3316   80.5998  224.1456 H   0  0  0  0  0  0  0  0  0  0  0  0
  141.1317   78.8146  224.1456 H   0  0  0  0  0  0  0  0  0  0  0  0
  140.2345   79.1577  221.7234 H   0  0  0  0  0  0  0  0  0  0  0  0
  141.9905   78.9965  219.9445 H   0  0  0  0  0  0  0  0  0  0  0  0
  142.7468   77.6484  220.7855 H   0  0  0  0  0  0  0  0  0  0  0  0
  139.7099   77.7193  220.1051 H   0  0  0  0  0  0  0  0  0  0  0  0
  140.8507   76.9695  219.0184 H   0  0  0  0  0  0  0  0  0  0  0  0
  139.7328   73.5015  220.1870 H   0  0  0  0  0  0  0  0  0  0  0  0
  141.5099   73.0219  219.7878 H   0  0  0  0  0  0  0  0  0  0  0  0
  141.8260   72.4520  222.1020 H   0  0  0  0  0  0  0  0  0  0  0  0
  138.2340   70.2649  222.7161 H   0  0  0  0  0  0  0  0  0  0  0  0
  138.0623   68.8024  224.7276 H   0  0  0  0  0  0  0  0  0  0  0  0
  138.7565   68.3348  226.9258 H   0  0  0  0  0  0  0  0  0  0  0  0
  141.6758   70.8771  228.8686 H   0  0  0  0  0  0  0  0  0  0  0  0
  141.8090   72.3042  226.8360 H   0  0  0  0  0  0  0  0  0  0  0  0
  140.4811   75.4793  222.9619 H   0  0  0  0  0  0  0  0  0  0  0  0
  138.3490   74.6350  222.8150 H   0  0  0  0  0  0  0  0  0  0  0  0
  136.2243   76.7491  222.8811 H   0  0  0  0  0  0  0  0  0  0  0  0
  136.1135   75.3754  221.6637 H   0  0  0  0  0  0  0  0  0  0  0  0
  136.3238   73.0683  222.5132 H   0  0  0  0  0  0  0  0  0  0  0  0
  135.2275   71.5411  224.1134 H   0  0  0  0  0  0  0  0  0  0  0  0
  134.0438   74.8699  226.5631 H   0  0  0  0  0  0  0  0  0  0  0  0
  135.1427   76.3791  224.9581 H   0  0  0  0  0  0  0  0  0  0  0  0
  140.5470   77.8854  223.7845 H   0  0  0  0  0  0  0  0  0  0  0  0
  142.0879   77.1745  223.0928 H   0  0  0  0  0  0  0  0  0  0  0  0
  1  2  1  0
  2  3  1  0
  3  4  1  0
  4  5  1  0
  5  6  1  0
  6  7  1  0
  7  8  2  0
  7  9  1  0
  9 10  1  0
 10 11  1  0
 11 12  2  0
 11 13  1  0
 13 14  2  0
 14 15  1  0
 15 16  2  0
 16 17  1  0
 17 18  2  0
 18 19  1  0
 18 20  1  0
 20 21  2  0
 21 22  1  0
 22 23  2  0
  6 24  1  0
 24 25  1  0
 25 26  2  0
 25 27  1  0
 27 28  1  0
 28 29  1  0
 29 30  2  0
 30 31  1  0
 31 32  2  0
 32 33  1  0
 32 34  1  0
 34 35  2  0
 24 36  1  0
 36  3  1  0
 23 13  1  0
 35 29  1  0
 22 16  1  0
  1 37  1  0
  1 38  1  0
  1 39  1  0
  3 40  1  6
  4 41  1  0
  4 42  1  0
  5 43  1  0
  5 44  1  0
  9 45  1  0
  9 46  1  0
 10 47  1  0
 14 48  1  0
 15 49  1  0
 17 50  1  0
 20 51  1  0
 21 52  1  0
 24 53  1  1
 27 54  1  0
 28 55  1  0
 28 56  1  0
 30 57  1  0
 31 58  1  0
 34 59  1  0
 35 60  1  0
 36 61  1  0
 36 62  1  0
M  END
>  <smiles>  (24) 
CO[C@H]1CCN(C(=O)CNC(=O)c2ccc3cc(F)ccc3n2)[C@H](C(=O)NCc2ccc(F)cc2)C1

>  <score_type>  (24) 
oracle

>  <origin>  (24) 
autodockgpu

>  <m_score__min__energy>  (24) 
-9.6500000000000004

>  <m_primary>  (24) 
energy

>  <rmsd>  (24) 
5.224430685380478

>  <m_score__min__rmsd>  (24) 
5.224430685380478

>  <meeko>  (24) 
{"free_energy": -8.07, "intermolecular_energy": -10.46, "internal_energy": -2.92, "cluster_size": 14, "cluster_id": 2, "rank_in_cluster": 12}

>  <energy>  (24) 
-8.24

>  <cluster_rmsd>  (24) 
0.63

>  <cluster>  (24) 
2

$$$$

     RDKit          3D

 62 65  0  0  0  0  0  0  0  0999 V2000
  135.8710   80.0120  223.3210 C   0  0  0  0  0  0  0  0  0  0  0  0
  135.4310   79.0230  222.4760 O   0  0  0  0  0  0  0  0  0  0  0  0
  136.4650   78.1090  222.2820 C   0  0  1  0  0  0  0  0  0  0  0  0
  136.1700   76.8010  222.9880 C   0  0  0  0  0  0  0  0  0  0  0  0
  137.4320   75.9520  222.7580 C   0  0  0  0  0  0  0  0  0  0  0  0
  137.3290   75.6240  221.2960 N   0  0  0  0  0  0  0  0  0  0  0  0
  137.1120   74.2830  221.0250 C   0  0  0  0  0  0  0  0  0  0  0  0
  135.8190   73.9850  220.9720 O   0  0  0  0  0  0  0  0  0  0  0  0
  137.9620   73.1430  220.7910 C   0  0  0  0  0  0  0  0  0  0  0  0
  138.1660   72.1660  221.8200 N   0  0  0  0  0  0  0  0  0  0  0  0
  139.2710   72.3890  222.7160 C   0  0  0  0  0  0  0  0  0  0  0  0
  139.9450   73.4290  222.4920 O   0  0  0  0  0  0  0  0  0  0  0  0
  139.5840   71.4740  223.8040 C   0  0  0  0  0  0  0  0  0  0  0  0
  139.3170   70.1390  223.6100 C   0  0  0  0  0  0  0  0  0  0  0  0
  139.5660   69.1650  224.5610 C   0  0  0  0  0  0  0  0  0  0  0  0
  140.1160   69.6220  225.7570 C   0  0  0  0  0  0  0  0  0  0  0  0
  140.3700   68.6580  226.7170 C   0  0  0  0  0  0  0  0  0  0  0  0
  140.9150   69.0900  227.9130 C   0  0  0  0  0  0  0  0  0  0  0  0
  141.1600   68.1400  228.8450 F   0  0  0  0  0  0  0  0  0  0  0  0
  141.1970   70.4380  228.1420 C   0  0  0  0  0  0  0  0  0  0  0  0
  140.9300   71.3740  227.1600 C   0  0  0  0  0  0  0  0  0  0  0  0
  140.3870   70.9640  225.9620 C   0  0  0  0  0  0  0  0  0  0  0  0
  140.1140   71.8670  224.9770 N   0  0  0  0  0  0  0  0  0  0  0  0
  137.5260   76.7430  220.4430 C   0  0  2  0  0  0  0  0  0  0  0  0
  138.9640   77.2390  220.5120 C   0  0  0  0  0  0  0  0  0  0  0  0
  139.3240   78.2800  219.9140 O   0  0  0  0  0  0  0  0  0  0  0  0
  139.9180   76.5220  221.2590 N   0  0  0  0  0  0  0  0  0  0  0  0
  141.3010   76.8800  221.4090 C   0  0  0  0  0  0  0  0  0  0  0  0
  141.5400   78.1690  222.0680 C   0  0  0  0  0  0  0  0  0  0  0  0
  141.4700   78.1980  223.4590 C   0  0  0  0  0  0  0  0  0  0  0  0
  141.6870   79.3820  224.1270 C   0  0  0  0  0  0  0  0  0  0  0  0
  141.9750   80.5530  223.4440 C   0  0  0  0  0  0  0  0  0  0  0  0
  142.1880   81.7250  224.1160 F   0  0  0  0  0  0  0  0  0  0  0  0
  142.0470   80.5400  222.0690 C   0  0  0  0  0  0  0  0  0  0  0  0
  141.8280   79.3480  221.4190 C   0  0  0  0  0  0  0  0  0  0  0  0
  136.5560   77.8400  220.8120 C   0  0  0  0  0  0  0  0  0  0  0  0
  135.7291   79.6930  224.3641 H   0  0  0  0  0  0  0  0  0  0  0  0
  136.9388   80.2025  223.1379 H   0  0  0  0  0  0  0  0  0  0  0  0
  135.2976   80.9327  223.1379 H   0  0  0  0  0  0  0  0  0  0  0  0
  137.4013   78.5227  222.6847 H   0  0  0  0  0  0  0  0  0  0  0  0
  136.0026   76.9672  224.0624 H   0  0  0  0  0  0  0  0  0  0  0  0
  135.2604   76.3136  222.6071 H   0  0  0  0  0  0  0  0  0  0  0  0
  138.3446   76.5265  222.9749 H   0  0  0  0  0  0  0  0  0  0  0  0
  137.4934   75.0659  223.4069 H   0  0  0  0  0  0  0  0  0  0  0  0
  137.5413   72.6079  219.9269 H   0  0  0  0  0  0  0  0  0  0  0  0
  138.9582   73.5954  220.6774 H   0  0  0  0  0  0  0  0  0  0  0  0
  137.5710   71.3120  221.9620 H   0  0  0  0  0  0  0  0  0  0  0  0
  138.8826   69.8290  222.6481 H   0  0  0  0  0  0  0  0  0  0  0  0
  139.3447   68.1020  224.3848 H   0  0  0  0  0  0  0  0  0  0  0  0
  140.1484   67.5957  226.5371 H   0  0  0  0  0  0  0  0  0  0  0  0
  141.6308   70.7549  229.1019 H   0  0  0  0  0  0  0  0  0  0  0  0
  141.1494   72.4378  227.3339 H   0  0  0  0  0  0  0  0  0  0  0  0
  137.3354   76.4343  219.4045 H   0  0  0  0  0  0  0  0  0  0  0  0
  139.5570   75.6440  221.7460 H   0  0  0  0  0  0  0  0  0  0  0  0
  141.7938   76.0964  222.0033 H   0  0  0  0  0  0  0  0  0  0  0  0
  141.7059   76.9756  220.3907 H   0  0  0  0  0  0  0  0  0  0  0  0
  141.2426   77.2799  224.0205 H   0  0  0  0  0  0  0  0  0  0  0  0
  141.6306   79.3990  225.2254 H   0  0  0  0  0  0  0  0  0  0  0  0
  142.2734   81.4575  221.5061 H   0  0  0  0  0  0  0  0  0  0  0  0
  141.8862   79.3362  220.3206 H   0  0  0  0  0  0  0  0  0  0  0  0
  136.8751   78.7658  220.3109 H   0  0  0  0  0  0  0  0  0  0  0  0
  135.5597   77.5030  220.4898 H   0  0  0  0  0  0  0  0  0  0  0  0
  1  2  1  0
  2  3  1  0
  3  4  1  0
  4  5  1  0
  5  6  1  0
  6  7  1  0
  7  8  2  0
  7  9  1  0
  9 10  1  0
 10 11  1  0
 11 12  2  0
 11 13  1  0
 13 14  2  0
 14 15  1  0
 15 16  2  0
 16 17  1  0
 17 18  2  0
 18 19  1  0
 18 20  1  0
 20 21  2  0
 21 22  1  0
 22 23  2  0
  6 24  1  0
 24 25  1  0
 25 26  2  0
 25 27  1  0
 27 28  1  0
 28 29  1  0
 29 30  2  0
 30 31  1  0
 31 32  2  0
 32 33  1  0
 32 34  1  0
 34 35  2  0
 24 36  1  0
 36  3  1  0
 23 13  1  0
 35 29  1  0
 22 16  1  0
  1 37  1  0
  1 38  1  0
  1 39  1  0
  3 40  1  1
  4 41  1  0
  4 42  1  0
  5 43  1  0
  5 44  1  0
  9 45  1  0
  9 46  1  0
 10 47  1  0
 14 48  1  0
 15 49  1  0
 17 50  1  0
 20 51  1  0
 21 52  1  0
 24 53  1  6
 27 54  1  0
 28 55  1  0
 28 56  1  0
 30 57  1  0
 31 58  1  0
 34 59  1  0
 35 60  1  0
 36 61  1  0
 36 62  1  0
M  END
>  <smiles>  (25) 
CO[C@H]1CCN(C(=O)CNC(=O)c2ccc3cc(F)ccc3n2)[C@H](C(=O)NCc2ccc(F)cc2)C1

>  <score_type>  (25) 
oracle

>  <origin>  (25) 
autodockgpu

>  <m_score__min__energy>  (25) 
-9.6500000000000004

>  <m_primary>  (25) 
energy

>  <rmsd>  (25) 
3.663983452435186

>  <m_score__min__rmsd>  (25) 
3.663983452435186

>  <meeko>  (25) 
{"free_energy": -7.38, "intermolecular_energy": -9.77, "internal_energy": -2.41, "cluster_size": 3, "cluster_id": 9, "rank_in_cluster": 3}

>  <energy>  (25) 
-8.21

>  <cluster_rmsd>  (25) 
0.51

>  <cluster>  (25) 
2

$$$$

     RDKit          3D

 62 65  0  0  0  0  0  0  0  0999 V2000
  146.3290   73.3740  221.1510 C   0  0  0  0  0  0  0  0  0  0  0  0
  146.1010   73.1160  219.8210 O   0  0  0  0  0  0  0  0  0  0  0  0
  144.8860   73.6940  219.4560 C   0  0  1  0  0  0  0  0  0  0  0  0
  144.1660   72.8370  218.4340 C   0  0  0  0  0  0  0  0  0  0  0  0
  142.9110   73.6500  218.0740 C   0  0  0  0  0  0  0  0  0  0  0  0
  142.0850   73.5250  219.3220 N   0  0  0  0  0  0  0  0  0  0  0  0
  140.9170   72.7950  219.1640 C   0  0  0  0  0  0  0  0  0  0  0  0
  140.9100   72.1020  218.0320 O   0  0  0  0  0  0  0  0  0  0  0  0
  139.7170   72.6180  219.9410 C   0  0  0  0  0  0  0  0  0  0  0  0
  139.7000   71.7230  221.0590 N   0  0  0  0  0  0  0  0  0  0  0  0
  140.0490   72.2790  222.3410 C   0  0  0  0  0  0  0  0  0  0  0  0
  140.3380   73.5050  222.3360 O   0  0  0  0  0  0  0  0  0  0  0  0
  140.0680   71.4770  223.5550 C   0  0  0  0  0  0  0  0  0  0  0  0
  139.5640   70.2000  223.4830 C   0  0  0  0  0  0  0  0  0  0  0  0
  139.5220   69.3340  224.5630 C   0  0  0  0  0  0  0  0  0  0  0  0
  140.0310   69.8400  225.7570 C   0  0  0  0  0  0  0  0  0  0  0  0
  139.9940   68.9830  226.8440 C   0  0  0  0  0  0  0  0  0  0  0  0
  140.4940   69.4660  228.0400 C   0  0  0  0  0  0  0  0  0  0  0  0
  140.4550   68.6210  229.0970 F   0  0  0  0  0  0  0  0  0  0  0  0
  141.0130   70.7580  228.1470 C   0  0  0  0  0  0  0  0  0  0  0  0
  141.0330   71.5850  227.0410 C   0  0  0  0  0  0  0  0  0  0  0  0
  140.5400   71.1240  225.8390 C   0  0  0  0  0  0  0  0  0  0  0  0
  140.5480   71.9210  224.7320 N   0  0  0  0  0  0  0  0  0  0  0  0
  142.6200   74.2250  220.4360 C   0  0  2  0  0  0  0  0  0  0  0  0
  142.5610   75.7300  220.2170 C   0  0  0  0  0  0  0  0  0  0  0  0
  143.5880   76.3880  219.9240 O   0  0  0  0  0  0  0  0  0  0  0  0
  141.3360   76.4100  220.3450 N   0  0  0  0  0  0  0  0  0  0  0  0
  141.1410   77.8230  220.1640 C   0  0  0  0  0  0  0  0  0  0  0  0
  141.5790   78.6580  221.2880 C   0  0  0  0  0  0  0  0  0  0  0  0
  141.4330   78.1320  222.5700 C   0  0  0  0  0  0  0  0  0  0  0  0
  141.8280   78.8750  223.6600 C   0  0  0  0  0  0  0  0  0  0  0  0
  142.3700   80.1410  223.5110 C   0  0  0  0  0  0  0  0  0  0  0  0
  142.7590   80.8730  224.5980 F   0  0  0  0  0  0  0  0  0  0  0  0
  142.5210   80.6750  222.2500 C   0  0  0  0  0  0  0  0  0  0  0  0
  142.1200   79.9180  221.1740 C   0  0  0  0  0  0  0  0  0  0  0  0
  144.0380   73.7690  220.6870 C   0  0  0  0  0  0  0  0  0  0  0  0
  145.7250   72.6905  221.7659 H   0  0  0  0  0  0  0  0  0  0  0  0
  147.3953   73.2243  221.3760 H   0  0  0  0  0  0  0  0  0  0  0  0
  146.0492   74.4138  221.3760 H   0  0  0  0  0  0  0  0  0  0  0  0
  145.0676   74.6867  219.0183 H   0  0  0  0  0  0  0  0  0  0  0  0
  144.7953   72.6778  217.5460 H   0  0  0  0  0  0  0  0  0  0  0  0
  143.9223   71.8365  218.8209 H   0  0  0  0  0  0  0  0  0  0  0  0
  143.1622   74.7004  217.8653 H   0  0  0  0  0  0  0  0  0  0  0  0
  142.3990   73.2947  217.1675 H   0  0  0  0  0  0  0  0  0  0  0  0
  139.4428   73.6106  220.3278 H   0  0  0  0  0  0  0  0  0  0  0  0
  139.0301   72.1372  219.2290 H   0  0  0  0  0  0  0  0  0  0  0  0
  139.4520   70.7040  221.0080 H   0  0  0  0  0  0  0  0  0  0  0  0
  139.1736   69.8475  222.5169 H   0  0  0  0  0  0  0  0  0  0  0  0
  139.1143   68.3155  224.4834 H   0  0  0  0  0  0  0  0  0  0  0  0
  139.5858   67.9650  226.7603 H   0  0  0  0  0  0  0  0  0  0  0  0
  141.4051   71.1164  229.1102 H   0  0  0  0  0  0  0  0  0  0  0  0
  141.4394   72.6042  227.1187 H   0  0  0  0  0  0  0  0  0  0  0  0
  142.0106   73.9990  221.3234 H   0  0  0  0  0  0  0  0  0  0  0  0
  140.4960   75.8030  220.5980 H   0  0  0  0  0  0  0  0  0  0  0  0
  141.7015   78.1331  219.2697 H   0  0  0  0  0  0  0  0  0  0  0  0
  140.0553   77.9745  220.0731 H   0  0  0  0  0  0  0  0  0  0  0  0
  141.0045   77.1287  222.7106 H   0  0  0  0  0  0  0  0  0  0  0  0
  141.7107   78.4546  224.6697 H   0  0  0  0  0  0  0  0  0  0  0  0
  142.9499   81.6779  222.1079 H   0  0  0  0  0  0  0  0  0  0  0  0
  142.2383   80.3434  220.1665 H   0  0  0  0  0  0  0  0  0  0  0  0
  144.5084   74.4749  221.3873 H   0  0  0  0  0  0  0  0  0  0  0  0
  143.9746   72.7473  221.0895 H   0  0  0  0  0  0  0  0  0  0  0  0
  1  2  1  0
  2  3  1  0
  3  4  1  0
  4  5  1  0
  5  6  1  0
  6  7  1  0
  7  8  2  0
  7  9  1  0
  9 10  1  0
 10 11  1  0
 11 12  2  0
 11 13  1  0
 13 14  2  0
 14 15  1  0
 15 16  2  0
 16 17  1  0
 17 18  2  0
 18 19  1  0
 18 20  1  0
 20 21  2  0
 21 22  1  0
 22 23  2  0
  6 24  1  0
 24 25  1  0
 25 26  2  0
 25 27  1  0
 27 28  1  0
 28 29  1  0
 29 30  2  0
 30 31  1  0
 31 32  2  0
 32 33  1  0
 32 34  1  0
 34 35  2  0
 24 36  1  0
 36  3  1  0
 23 13  1  0
 35 29  1  0
 22 16  1  0
  1 37  1  0
  1 38  1  0
  1 39  1  0
  3 40  1  6
  4 41  1  0
  4 42  1  0
  5 43  1  0
  5 44  1  0
  9 45  1  0
  9 46  1  0
 10 47  1  0
 14 48  1  0
 15 49  1  0
 17 50  1  0
 20 51  1  0
 21 52  1  0
 24 53  1  1
 27 54  1  0
 28 55  1  0
 28 56  1  0
 30 57  1  0
 31 58  1  0
 34 59  1  0
 35 60  1  0
 36 61  1  0
 36 62  1  0
M  END
>  <smiles>  (26) 
CO[C@H]1CCN(C(=O)CNC(=O)c2ccc3cc(F)ccc3n2)[C@H](C(=O)NCc2ccc(F)cc2)C1

>  <score_type>  (26) 
oracle

>  <origin>  (26) 
autodockgpu

>  <m_score__min__energy>  (26) 
-9.6500000000000004

>  <m_primary>  (26) 
energy

>  <rmsd>  (26) 
3.3729447584840746

>  <m_score__min__rmsd>  (26) 
3.3729447584840746

>  <meeko>  (26) 
{"free_energy": -9.39, "intermolecular_energy": -11.77, "internal_energy": -1.97, "cluster_size": 17, "cluster_id": 1, "rank_in_cluster": 2}

>  <energy>  (26) 
-8.18

>  <cluster_rmsd>  (26) 
0.66

>  <cluster>  (26) 
2

$$$$

     RDKit          3D

 62 65  0  0  0  0  0  0  0  0999 V2000
  142.2230   80.3340  218.4570 C   0  0  0  0  0  0  0  0  0  0  0  0
  141.4360   80.2000  219.5760 O   0  0  0  0  0  0  0  0  0  0  0  0
  141.6810   78.9530  220.1470 C   0  0  1  0  0  0  0  0  0  0  0  0
  140.8400   78.7540  221.3920 C   0  0  0  0  0  0  0  0  0  0  0  0
  141.2940   77.3920  221.9430 C   0  0  0  0  0  0  0  0  0  0  0  0
  140.7160   76.4360  220.9390 N   0  0  0  0  0  0  0  0  0  0  0  0
  139.7110   75.6220  221.4370 C   0  0  0  0  0  0  0  0  0  0  0  0
  138.9480   76.2530  222.3230 O   0  0  0  0  0  0  0  0  0  0  0  0
  139.3080   74.2560  221.2190 C   0  0  0  0  0  0  0  0  0  0  0  0
  139.1280   73.3650  222.3260 N   0  0  0  0  0  0  0  0  0  0  0  0
  140.2670   72.5750  222.7160 C   0  0  0  0  0  0  0  0  0  0  0  0
  141.3070   72.7550  222.0290 O   0  0  0  0  0  0  0  0  0  0  0  0
  140.2150   71.6360  223.8260 C   0  0  0  0  0  0  0  0  0  0  0  0
  139.6550   70.4010  223.5900 C   0  0  0  0  0  0  0  0  0  0  0  0
  139.5440   69.4180  224.5580 C   0  0  0  0  0  0  0  0  0  0  0  0
  140.0430   69.7530  225.8140 C   0  0  0  0  0  0  0  0  0  0  0  0
  139.9380   68.7760  226.7900 C   0  0  0  0  0  0  0  0  0  0  0  0
  140.4270   69.0890  228.0460 C   0  0  0  0  0  0  0  0  0  0  0  0
  140.3200   68.1280  228.9930 F   0  0  0  0  0  0  0  0  0  0  0  0
  141.0010   70.3320  228.3180 C   0  0  0  0  0  0  0  0  0  0  0  0
  141.0890   71.2830  227.3190 C   0  0  0  0  0  0  0  0  0  0  0  0
  140.6080   70.9920  226.0610 C   0  0  0  0  0  0  0  0  0  0  0  0
  140.6830   71.9130  225.0570 N   0  0  0  0  0  0  0  0  0  0  0  0
  141.3390   76.4980  219.6640 C   0  0  2  0  0  0  0  0  0  0  0  0
  142.7730   75.9920  219.7300 C   0  0  0  0  0  0  0  0  0  0  0  0
  143.6980   76.5690  219.1090 O   0  0  0  0  0  0  0  0  0  0  0  0
  143.0810   74.8550  220.5000 N   0  0  0  0  0  0  0  0  0  0  0  0
  144.3880   74.2760  220.6490 C   0  0  0  0  0  0  0  0  0  0  0  0
  144.5070   72.8860  220.1950 C   0  0  0  0  0  0  0  0  0  0  0  0
  143.3490   72.1110  220.2010 C   0  0  0  0  0  0  0  0  0  0  0  0
  143.4060   70.8000  219.7850 C   0  0  0  0  0  0  0  0  0  0  0  0
  144.5940   70.2300  219.3570 C   0  0  0  0  0  0  0  0  0  0  0  0
  144.6410   68.9270  218.9460 F   0  0  0  0  0  0  0  0  0  0  0  0
  145.7470   70.9830  219.3460 C   0  0  0  0  0  0  0  0  0  0  0  0
  145.6710   72.2910  219.7650 C   0  0  0  0  0  0  0  0  0  0  0  0
  141.2880   77.9150  219.1430 C   0  0  0  0  0  0  0  0  0  0  0  0
  143.2652   80.5115  218.7608 H   0  0  0  0  0  0  0  0  0  0  0  0
  142.1676   79.4135  217.8574 H   0  0  0  0  0  0  0  0  0  0  0  0
  141.8660   81.1843  217.8574 H   0  0  0  0  0  0  0  0  0  0  0  0
  142.7429   78.8780  220.4241 H   0  0  0  0  0  0  0  0  0  0  0  0
  141.0308   79.5534  222.1231 H   0  0  0  0  0  0  0  0  0  0  0  0
  139.7611   78.7831  221.1796 H   0  0  0  0  0  0  0  0  0  0  0  0
  142.3912   77.3207  221.9762 H   0  0  0  0  0  0  0  0  0  0  0  0
  140.9653   77.2010  222.9752 H   0  0  0  0  0  0  0  0  0  0  0  0
  138.3473   74.2925  220.6845 H   0  0  0  0  0  0  0  0  0  0  0  0
  140.1721   73.8245  220.6925 H   0  0  0  0  0  0  0  0  0  0  0  0
  138.2330   73.2540  222.8650 H   0  0  0  0  0  0  0  0  0  0  0  0
  139.2763   70.1841  222.5803 H   0  0  0  0  0  0  0  0  0  0  0  0
  139.0917   68.4373  224.3490 H   0  0  0  0  0  0  0  0  0  0  0  0
  139.4865   67.7959  226.5764 H   0  0  0  0  0  0  0  0  0  0  0  0
  141.3826   70.5542  229.3255 H   0  0  0  0  0  0  0  0  0  0  0  0
  141.5396   72.2648  227.5266 H   0  0  0  0  0  0  0  0  0  0  0  0
  140.7918   75.8434  218.9697 H   0  0  0  0  0  0  0  0  0  0  0  0
  142.2570   74.4030  221.0050 H   0  0  0  0  0  0  0  0  0  0  0  0
  145.0988   74.8854  220.0716 H   0  0  0  0  0  0  0  0  0  0  0  0
  144.5976   74.2652  221.7288 H   0  0  0  0  0  0  0  0  0  0  0  0
  142.3950   72.5442  220.5361 H   0  0  0  0  0  0  0  0  0  0  0  0
  142.4892   70.1923  219.7926 H   0  0  0  0  0  0  0  0  0  0  0  0
  146.7016   70.5508  219.0116 H   0  0  0  0  0  0  0  0  0  0  0  0
  146.5908   72.8943  219.7559 H   0  0  0  0  0  0  0  0  0  0  0  0
  141.9700   77.9911  218.2833 H   0  0  0  0  0  0  0  0  0  0  0  0
  140.2401   78.1155  218.8752 H   0  0  0  0  0  0  0  0  0  0  0  0
  1  2  1  0
  2  3  1  0
  3  4  1  0
  4  5  1  0
  5  6  1  0
  6  7  1  0
  7  8  2  0
  7  9  1  0
  9 10  1  0
 10 11  1  0
 11 12  2  0
 11 13  1  0
 13 14  2  0
 14 15  1  0
 15 16  2  0
 16 17  1  0
 17 18  2  0
 18 19  1  0
 18 20  1  0
 20 21  2  0
 21 22  1  0
 22 23  2  0
  6 24  1  0
 24 25  1  0
 25 26  2  0
 25 27  1  0
 27 28  1  0
 28 29  1  0
 29 30  2  0
 30 31  1  0
 31 32  2  0
 32 33  1  0
 32 34  1  0
 34 35  2  0
 24 36  1  0
 36  3  1  0
 23 13  1  0
 35 29  1  0
 22 16  1  0
  1 37  1  0
  1 38  1  0
  1 39  1  0
  3 40  1  1
  4 41  1  0
  4 42  1  0
  5 43  1  0
  5 44  1  0
  9 45  1  0
  9 46  1  0
 10 47  1  0
 14 48  1  0
 15 49  1  0
 17 50  1  0
 20 51  1  0
 21 52  1  0
 24 53  1  6
 27 54  1  0
 28 55  1  0
 28 56  1  0
 30 57  1  0
 31 58  1  0
 34 59  1  0
 35 60  1  0
 36 61  1  0
 36 62  1  0
M  END
>  <smiles>  (27) 
CO[C@H]1CCN(C(=O)CNC(=O)c2ccc3cc(F)ccc3n2)[C@H](C(=O)NCc2ccc(F)cc2)C1

>  <score_type>  (27) 
oracle

>  <origin>  (27) 
autodockgpu

>  <m_score__min__energy>  (27) 
-9.6500000000000004

>  <m_primary>  (27) 
energy

>  <rmsd>  (27) 
5.63151542953774

>  <m_score__min__rmsd>  (27) 
5.63151542953774

>  <meeko>  (27) 
{"free_energy": -8.27, "intermolecular_energy": -10.66, "internal_energy": -2.64, "cluster_size": 1, "cluster_id": 5, "rank_in_cluster": 1}

>  <energy>  (27) 
-8.16

>  <cluster_rmsd>  (27) 
0.73

>  <cluster>  (27) 
2

$$$$

     RDKit          3D

 62 65  0  0  0  0  0  0  0  0999 V2000
  142.0550   79.2310  222.8070 C   0  0  0  0  0  0  0  0  0  0  0  0
  141.9930   79.2170  221.4350 O   0  0  0  0  0  0  0  0  0  0  0  0
  141.3000   78.0770  221.0310 C   0  0  1  0  0  0  0  0  0  0  0  0
  142.1220   77.2630  220.0520 C   0  0  0  0  0  0  0  0  0  0  0  0
  141.1910   76.1110  219.6400 C   0  0  0  0  0  0  0  0  0  0  0  0
  141.1520   75.2750  220.8870 N   0  0  0  0  0  0  0  0  0  0  0  0
  141.7510   74.0310  220.7600 C   0  0  0  0  0  0  0  0  0  0  0  0
  143.0560   74.1240  220.5330 O   0  0  0  0  0  0  0  0  0  0  0  0
  141.2850   72.6690  220.8160 C   0  0  0  0  0  0  0  0  0  0  0  0
  141.4330   71.8980  222.0140 N   0  0  0  0  0  0  0  0  0  0  0  0
  140.4760   72.1390  223.0640 C   0  0  0  0  0  0  0  0  0  0  0  0
  139.6060   73.0130  222.8090 O   0  0  0  0  0  0  0  0  0  0  0  0
  140.5160   71.4200  224.3280 C   0  0  0  0  0  0  0  0  0  0  0  0
  141.0230   72.0830  225.4220 C   0  0  0  0  0  0  0  0  0  0  0  0
  141.1170   71.5160  226.6810 C   0  0  0  0  0  0  0  0  0  0  0  0
  140.6590   70.2040  226.7840 C   0  0  0  0  0  0  0  0  0  0  0  0
  140.7480   69.6260  228.0390 C   0  0  0  0  0  0  0  0  0  0  0  0
  140.2990   68.3230  228.1630 C   0  0  0  0  0  0  0  0  0  0  0  0
  140.3900   67.7670  229.3930 F   0  0  0  0  0  0  0  0  0  0  0  0
  139.7800   67.6230  227.0730 C   0  0  0  0  0  0  0  0  0  0  0  0
  139.7070   68.2320  225.8350 C   0  0  0  0  0  0  0  0  0  0  0  0
  140.1480   69.5290  225.6890 C   0  0  0  0  0  0  0  0  0  0  0  0
  140.0870   70.1540  224.4780 N   0  0  0  0  0  0  0  0  0  0  0  0
  140.4590   75.8870  221.9650 C   0  0  2  0  0  0  0  0  0  0  0  0
  138.9710   76.0020  221.6650 C   0  0  0  0  0  0  0  0  0  0  0  0
  138.5360   76.8320  220.8320 O   0  0  0  0  0  0  0  0  0  0  0  0
  138.0550   75.1660  222.3310 N   0  0  0  0  0  0  0  0  0  0  0  0
  136.6300   75.1700  222.1410 C   0  0  0  0  0  0  0  0  0  0  0  0
  135.8460   74.7870  223.3200 C   0  0  0  0  0  0  0  0  0  0  0  0
  135.4980   73.4440  223.4470 C   0  0  0  0  0  0  0  0  0  0  0  0
  134.7630   73.0310  224.5350 C   0  0  0  0  0  0  0  0  0  0  0  0
  134.3590   73.9260  225.5130 C   0  0  0  0  0  0  0  0  0  0  0  0
  133.6280   73.5080  226.5900 F   0  0  0  0  0  0  0  0  0  0  0  0
  134.6940   75.2570  225.4010 C   0  0  0  0  0  0  0  0  0  0  0  0
  135.4290   75.6510  224.3070 C   0  0  0  0  0  0  0  0  0  0  0  0
  141.0610   77.2420  222.2510 C   0  0  0  0  0  0  0  0  0  0  0  0
  141.0610   79.0065  223.2213 H   0  0  0  0  0  0  0  0  0  0  0  0
  142.7746   78.4728  223.1493 H   0  0  0  0  0  0  0  0  0  0  0  0
  142.3790   80.2249  223.1493 H   0  0  0  0  0  0  0  0  0  0  0  0
  140.3604   78.3726  220.5414 H   0  0  0  0  0  0  0  0  0  0  0  0
  142.4009   77.8701  219.1782 H   0  0  0  0  0  0  0  0  0  0  0  0
  143.0649   76.9048  220.4910 H   0  0  0  0  0  0  0  0  0  0  0  0
  140.1895   76.4820  219.3768 H   0  0  0  0  0  0  0  0  0  0  0  0
  141.5337   75.5622  218.7504 H   0  0  0  0  0  0  0  0  0  0  0  0
  140.2090   72.6946  220.5888 H   0  0  0  0  0  0  0  0  0  0  0  0
  141.9473   72.1519  220.1061 H   0  0  0  0  0  0  0  0  0  0  0  0
  142.1820   71.1790  222.1750 H   0  0  0  0  0  0  0  0  0  0  0  0
  141.3718   73.1177  225.2889 H   0  0  0  0  0  0  0  0  0  0  0  0
  141.5258   72.0643  227.5425 H   0  0  0  0  0  0  0  0  0  0  0  0
  141.1570   70.1775  228.8984 H   0  0  0  0  0  0  0  0  0  0  0  0
  139.4296   66.5880  227.1993 H   0  0  0  0  0  0  0  0  0  0  0  0
  139.2996   67.6851  224.9719 H   0  0  0  0  0  0  0  0  0  0  0  0
  140.5649   75.2550  222.8591 H   0  0  0  0  0  0  0  0  0  0  0  0
  138.4790   74.4810  223.0290 H   0  0  0  0  0  0  0  0  0  0  0  0
  136.3280   76.1857  221.8457 H   0  0  0  0  0  0  0  0  0  0  0  0
  136.4203   74.4111  221.3728 H   0  0  0  0  0  0  0  0  0  0  0  0
  135.8090   72.7175  222.6818 H   0  0  0  0  0  0  0  0  0  0  0  0
  134.4909   71.9695  224.6302 H   0  0  0  0  0  0  0  0  0  0  0  0
  134.3826   75.9847  226.1649 H   0  0  0  0  0  0  0  0  0  0  0  0
  135.6980   76.7137  224.2161 H   0  0  0  0  0  0  0  0  0  0  0  0
  140.3771   77.7901  222.9157 H   0  0  0  0  0  0  0  0  0  0  0  0
  142.0450   77.0608  222.7080 H   0  0  0  0  0  0  0  0  0  0  0  0
  1  2  1  0
  2  3  1  0
  3  4  1  0
  4  5  1  0
  5  6  1  0
  6  7  1  0
  7  8  2  0
  7  9  1  0
  9 10  1  0
 10 11  1  0
 11 12  2  0
 11 13  1  0
 13 14  2  0
 14 15  1  0
 15 16  2  0
 16 17  1  0
 17 18  2  0
 18 19  1  0
 18 20  1  0
 20 21  2  0
 21 22  1  0
 22 23  2  0
  6 24  1  0
 24 25  1  0
 25 26  2  0
 25 27  1  0
 27 28  1  0
 28 29  1  0
 29 30  2  0
 30 31  1  0
 31 32  2  0
 32 33  1  0
 32 34  1  0
 34 35  2  0
 24 36  1  0
 36  3  1  0
 23 13  1  0
 35 29  1  0
 22 16  1  0
  1 37  1  0
  1 38  1  0
  1 39  1  0
  3 40  1  6
  4 41  1  0
  4 42  1  0
  5 43  1  0
  5 44  1  0
  9 45  1  0
  9 46  1  0
 10 47  1  0
 14 48  1  0
 15 49  1  0
 17 50  1  0
 20 51  1  0
 21 52  1  0
 24 53  1  1
 27 54  1  0
 28 55  1  0
 28 56  1  0
 30 57  1  0
 31 58  1  0
 34 59  1  0
 35 60  1  0
 36 61  1  0
 36 62  1  0
M  END
>  <smiles>  (28) 
CO[C@H]1CCN(C(=O)CNC(=O)c2ccc3cc(F)ccc3n2)[C@H](C(=O)NCc2ccc(F)cc2)C1

>  <score_type>  (28) 
oracle

>  <origin>  (28) 
autodockgpu

>  <m_score__min__energy>  (28) 
-9.6500000000000004

>  <m_primary>  (28) 
energy

>  <rmsd>  (28) 
5.341388023570363

>  <m_score__min__rmsd>  (28) 
5.341388023570363

>  <meeko>  (28) 
{"free_energy": -8.16, "intermolecular_energy": -10.54, "internal_energy": -2.53, "cluster_size": 14, "cluster_id": 2, "rank_in_cluster": 10}

>  <energy>  (28) 
-8.08

>  <cluster_rmsd>  (28) 
0.88

>  <cluster>  (28) 
2

$$$$

     RDKit          3D

 62 65  0  0  0  0  0  0  0  0999 V2000
  146.3180   73.2370  220.4200 C   0  0  0  0  0  0  0  0  0  0  0  0
  145.9090   73.2650  219.1090 O   0  0  0  0  0  0  0  0  0  0  0  0
  144.6180   73.7850  219.0560 C   0  0  1  0  0  0  0  0  0  0  0  0
  143.6460   72.7640  218.4980 C   0  0  0  0  0  0  0  0  0  0  0  0
  142.3080   73.5170  218.4180 C   0  0  0  0  0  0  0  0  0  0  0  0
  141.9310   73.6460  219.8660 N   0  0  0  0  0  0  0  0  0  0  0  0
  140.8080   72.9200  220.2310 C   0  0  0  0  0  0  0  0  0  0  0  0
  141.1220   71.7650  220.8060 O   0  0  0  0  0  0  0  0  0  0  0  0
  139.3860   73.1280  220.1270 C   0  0  0  0  0  0  0  0  0  0  0  0
  138.8280   74.4350  220.3030 N   0  0  0  0  0  0  0  0  0  0  0  0
  139.1890   75.1400  221.5060 C   0  0  0  0  0  0  0  0  0  0  0  0
  139.9630   74.5180  222.2820 O   0  0  0  0  0  0  0  0  0  0  0  0
  138.6920   76.4750  221.8020 C   0  0  0  0  0  0  0  0  0  0  0  0
  137.5650   76.8980  221.1370 C   0  0  0  0  0  0  0  0  0  0  0  0
  136.9910   78.1430  221.3250 C   0  0  0  0  0  0  0  0  0  0  0  0
  137.6320   78.9660  222.2480 C   0  0  0  0  0  0  0  0  0  0  0  0
  137.0660   80.2140  222.4450 C   0  0  0  0  0  0  0  0  0  0  0  0
  137.6880   81.0480  223.3570 C   0  0  0  0  0  0  0  0  0  0  0  0
  137.1280   82.2660  223.5430 F   0  0  0  0  0  0  0  0  0  0  0  0
  138.8340   80.6500  224.0480 C   0  0  0  0  0  0  0  0  0  0  0  0
  139.3710   79.3960  223.8260 C   0  0  0  0  0  0  0  0  0  0  0  0
  138.7670   78.5500  222.9220 C   0  0  0  0  0  0  0  0  0  0  0  0
  139.2770   77.3070  222.6840 N   0  0  0  0  0  0  0  0  0  0  0  0
  142.7630   74.5330  220.5980 C   0  0  2  0  0  0  0  0  0  0  0  0
  142.5720   75.9710  220.1370 C   0  0  0  0  0  0  0  0  0  0  0  0
  143.2730   76.4610  219.2190 O   0  0  0  0  0  0  0  0  0  0  0  0
  141.5910   76.7780  220.7440 N   0  0  0  0  0  0  0  0  0  0  0  0
  141.3070   78.1450  220.4040 C   0  0  0  0  0  0  0  0  0  0  0  0
  141.6720   79.1290  221.4290 C   0  0  0  0  0  0  0  0  0  0  0  0
  141.4400   80.4710  221.1390 C   0  0  0  0  0  0  0  0  0  0  0  0
  141.7650   81.4350  222.0670 C   0  0  0  0  0  0  0  0  0  0  0  0
  142.3210   81.0980  223.2910 C   0  0  0  0  0  0  0  0  0  0  0  0
  142.6410   82.0610  224.2070 F   0  0  0  0  0  0  0  0  0  0  0  0
  142.5570   79.7750  223.5920 C   0  0  0  0  0  0  0  0  0  0  0  0
  142.2260   78.8270  222.6520 C   0  0  0  0  0  0  0  0  0  0  0  0
  144.2050   74.1080  220.4590 C   0  0  0  0  0  0  0  0  0  0  0  0
  145.4397   73.2971  221.0795 H   0  0  0  0  0  0  0  0  0  0  0  0
  146.8596   72.2997  220.6152 H   0  0  0  0  0  0  0  0  0  0  0  0
  146.9823   74.0918  220.6152 H   0  0  0  0  0  0  0  0  0  0  0  0
  144.6072   74.6734  218.4075 H   0  0  0  0  0  0  0  0  0  0  0  0
  143.9642   72.4279  217.5001 H   0  0  0  0  0  0  0  0  0  0  0  0
  143.5826   71.8598  219.1212 H   0  0  0  0  0  0  0  0  0  0  0  0
  142.4330   74.5040  217.9487 H   0  0  0  0  0  0  0  0  0  0  0  0
  141.5490   73.0060  217.8074 H   0  0  0  0  0  0  0  0  0  0  0  0
  139.0910   72.7921  219.1219 H   0  0  0  0  0  0  0  0  0  0  0  0
  138.9908   72.5720  220.9900 H   0  0  0  0  0  0  0  0  0  0  0  0
  138.1840   74.9080  219.6210 H   0  0  0  0  0  0  0  0  0  0  0  0
  137.0953   76.2107  220.4180 H   0  0  0  0  0  0  0  0  0  0  0  0
  136.0889   78.4614  220.7819 H   0  0  0  0  0  0  0  0  0  0  0  0
  136.1629   80.5282  221.9012 H   0  0  0  0  0  0  0  0  0  0  0  0
  139.3086   81.3332  224.7677 H   0  0  0  0  0  0  0  0  0  0  0  0
  140.2737   79.0759  224.3670 H   0  0  0  0  0  0  0  0  0  0  0  0
  142.4791   74.4883  221.6598 H   0  0  0  0  0  0  0  0  0  0  0  0
  141.0260   76.3120  221.5190 H   0  0  0  0  0  0  0  0  0  0  0  0
  141.8593   78.3895  219.4847 H   0  0  0  0  0  0  0  0  0  0  0  0
  140.2151   78.2121  220.2894 H   0  0  0  0  0  0  0  0  0  0  0  0
  140.9993   80.7596  220.1734 H   0  0  0  0  0  0  0  0  0  0  0  0
  141.5797   82.4935  221.8322 H   0  0  0  0  0  0  0  0  0  0  0  0
  142.9978   79.4846  224.5570 H   0  0  0  0  0  0  0  0  0  0  0  0
  142.4144   77.7699  222.8908 H   0  0  0  0  0  0  0  0  0  0  0  0
  144.8425   74.9257  220.8265 H   0  0  0  0  0  0  0  0  0  0  0  0
  144.3192   73.1827  221.0428 H   0  0  0  0  0  0  0  0  0  0  0  0
  1  2  1  0
  2  3  1  0
  3  4  1  0
  4  5  1  0
  5  6  1  0
  6  7  1  0
  7  8  2  0
  7  9  1  0
  9 10  1  0
 10 11  1  0
 11 12  2  0
 11 13  1  0
 13 14  2  0
 14 15  1  0
 15 16  2  0
 16 17  1  0
 17 18  2  0
 18 19  1  0
 18 20  1  0
 20 21  2  0
 21 22  1  0
 22 23  2  0
  6 24  1  0
 24 25  1  0
 25 26  2  0
 25 27  1  0
 27 28  1  0
 28 29  1  0
 29 30  2  0
 30 31  1  0
 31 32  2  0
 32 33  1  0
 32 34  1  0
 34 35  2  0
 24 36  1  0
 36  3  1  0
 23 13  1  0
 35 29  1  0
 22 16  1  0
  1 37  1  0
  1 38  1  0
  1 39  1  0
  3 40  1  6
  4 41  1  0
  4 42  1  0
  5 43  1  0
  5 44  1  0
  9 45  1  0
  9 46  1  0
 10 47  1  0
 14 48  1  0
 15 49  1  0
 17 50  1  0
 20 51  1  0
 21 52  1  0
 24 53  1  1
 27 54  1  0
 28 55  1  0
 28 56  1  0
 30 57  1  0
 31 58  1  0
 34 59  1  0
 35 60  1  0
 36 61  1  0
 36 62  1  0
M  END
>  <smiles>  (29) 
CO[C@H]1CCN(C(=O)CNC(=O)c2ccc3cc(F)ccc3n2)[C@H](C(=O)NCc2ccc(F)cc2)C1

>  <score_type>  (29) 
oracle

>  <origin>  (29) 
autodockgpu

>  <m_score__min__energy>  (29) 
-9.6500000000000004

>  <m_primary>  (29) 
energy

>  <rmsd>  (29) 
6.635159083187262

>  <m_score__min__rmsd>  (29) 
6.635159083187262

>  <meeko>  (29) 
{"free_energy": -6.93, "intermolecular_energy": -9.32, "internal_energy": -3.97, "cluster_size": 9, "cluster_id": 10, "rank_in_cluster": 7}

>  <energy>  (29) 
-8.07

>  <cluster_rmsd>  (29) 
0.75

>  <cluster>  (29) 
2

$$$$

     RDKit          3D

 62 65  0  0  0  0  0  0  0  0999 V2000
  146.4070   73.3910  220.2730 C   0  0  0  0  0  0  0  0  0  0  0  0
  145.9730   73.3720  218.9700 O   0  0  0  0  0  0  0  0  0  0  0  0
  144.6120   73.6680  218.9470 C   0  0  1  0  0  0  0  0  0  0  0  0
  143.8480   72.6400  218.1370 C   0  0  0  0  0  0  0  0  0  0  0  0
  142.4010   73.1590  218.1330 C   0  0  0  0  0  0  0  0  0  0  0  0
  141.9740   72.9150  219.5530 N   0  0  0  0  0  0  0  0  0  0  0  0
  140.9880   71.9510  219.6960 C   0  0  0  0  0  0  0  0  0  0  0  0
  141.1910   70.9060  218.9030 O   0  0  0  0  0  0  0  0  0  0  0  0
  139.7990   71.8260  220.5000 C   0  0  0  0  0  0  0  0  0  0  0  0
  139.8250   71.0870  221.7260 N   0  0  0  0  0  0  0  0  0  0  0  0
  140.2970   71.7850  222.8950 C   0  0  0  0  0  0  0  0  0  0  0  0
  140.6410   72.9820  222.7050 O   0  0  0  0  0  0  0  0  0  0  0  0
  140.3710   71.1480  224.2010 C   0  0  0  0  0  0  0  0  0  0  0  0
  140.8770   71.8890  225.2440 C   0  0  0  0  0  0  0  0  0  0  0  0
  141.0020   71.4040  226.5340 C   0  0  0  0  0  0  0  0  0  0  0  0
  140.5770   70.0920  226.7250 C   0  0  0  0  0  0  0  0  0  0  0  0
  140.6960   69.5950  228.0120 C   0  0  0  0  0  0  0  0  0  0  0  0
  140.2800   68.2930  228.2230 C   0  0  0  0  0  0  0  0  0  0  0  0
  140.4010   67.8170  229.4850 F   0  0  0  0  0  0  0  0  0  0  0  0
  139.7620   67.5140  227.1870 C   0  0  0  0  0  0  0  0  0  0  0  0
  139.6570   68.0430  225.9150 C   0  0  0  0  0  0  0  0  0  0  0  0
  140.0660   69.3380  225.6830 C   0  0  0  0  0  0  0  0  0  0  0  0
  139.9740   69.8840  224.4360 N   0  0  0  0  0  0  0  0  0  0  0  0
  142.6210   73.7550  220.4970 C   0  0  2  0  0  0  0  0  0  0  0  0
  142.1900   75.2050  220.3270 C   0  0  0  0  0  0  0  0  0  0  0  0
  142.8490   76.0020  219.6170 O   0  0  0  0  0  0  0  0  0  0  0  0
  141.0310   75.6740  220.9740 N   0  0  0  0  0  0  0  0  0  0  0  0
  140.5150   77.0120  220.8960 C   0  0  0  0  0  0  0  0  0  0  0  0
  141.1530   77.9770  221.7990 C   0  0  0  0  0  0  0  0  0  0  0  0
  141.7430   79.0980  221.2210 C   0  0  0  0  0  0  0  0  0  0  0  0
  142.3560   80.0350  222.0240 C   0  0  0  0  0  0  0  0  0  0  0  0
  142.3980   79.8870  223.4010 C   0  0  0  0  0  0  0  0  0  0  0  0
  143.0090   80.8210  224.1900 F   0  0  0  0  0  0  0  0  0  0  0  0
  141.8190   78.7830  223.9870 C   0  0  0  0  0  0  0  0  0  0  0  0
  141.2120   77.8580  223.1690 C   0  0  0  0  0  0  0  0  0  0  0  0
  144.1180   73.6150  220.3590 C   0  0  0  0  0  0  0  0  0  0  0  0
  145.5399   73.3530  220.9488 H   0  0  0  0  0  0  0  0  0  0  0  0
  147.0536   72.5203  220.4568 H   0  0  0  0  0  0  0  0  0  0  0  0
  146.9750   74.3149  220.4568 H   0  0  0  0  0  0  0  0  0  0  0  0
  144.4593   74.6580  218.4924 H   0  0  0  0  0  0  0  0  0  0  0  0
  144.2431   72.5794  217.1122 H   0  0  0  0  0  0  0  0  0  0  0  0
  143.9302   71.6272  218.5583 H   0  0  0  0  0  0  0  0  0  0  0  0
  142.3616   74.2294  217.8827 H   0  0  0  0  0  0  0  0  0  0  0  0
  141.7576   72.6690  217.3874 H   0  0  0  0  0  0  0  0  0  0  0  0
  139.4820   72.8481  220.7548 H   0  0  0  0  0  0  0  0  0  0  0  0
  139.1321   71.2258  219.8636 H   0  0  0  0  0  0  0  0  0  0  0  0
  139.5270   70.0860  221.8290 H   0  0  0  0  0  0  0  0  0  0  0  0
  141.1991   72.9212  225.0418 H   0  0  0  0  0  0  0  0  0  0  0  0
  141.4098   72.0141  227.3535 H   0  0  0  0  0  0  0  0  0  0  0  0
  141.1030   70.2081  228.8296 H   0  0  0  0  0  0  0  0  0  0  0  0
  139.4381   66.4812  227.3829 H   0  0  0  0  0  0  0  0  0  0  0  0
  139.2499   67.4348  225.0937 H   0  0  0  0  0  0  0  0  0  0  0  0
  142.3263   73.4422  221.5096 H   0  0  0  0  0  0  0  0  0  0  0  0
  140.5110   74.9540  221.5660 H   0  0  0  0  0  0  0  0  0  0  0  0
  140.6492   77.3698  219.8645 H   0  0  0  0  0  0  0  0  0  0  0  0
  139.4608   76.9531  221.2045 H   0  0  0  0  0  0  0  0  0  0  0  0
  141.7198   79.2347  220.1298 H   0  0  0  0  0  0  0  0  0  0  0  0
  142.8215   80.9184  221.5625 H   0  0  0  0  0  0  0  0  0  0  0  0
  141.8413   78.6448  225.0781 H   0  0  0  0  0  0  0  0  0  0  0  0
  140.7489   76.9758  223.6351 H   0  0  0  0  0  0  0  0  0  0  0  0
  144.5941   74.4314  220.9218 H   0  0  0  0  0  0  0  0  0  0  0  0
  144.3794   72.6199  220.7480 H   0  0  0  0  0  0  0  0  0  0  0  0
  1  2  1  0
  2  3  1  0
  3  4  1  0
  4  5  1  0
  5  6  1  0
  6  7  1  0
  7  8  2  0
  7  9  1  0
  9 10  1  0
 10 11  1  0
 11 12  2  0
 11 13  1  0
 13 14  2  0
 14 15  1  0
 15 16  2  0
 16 17  1  0
 17 18  2  0
 18 19  1  0
 18 20  1  0
 20 21  2  0
 21 22  1  0
 22 23  2  0
  6 24  1  0
 24 25  1  0
 25 26  2  0
 25 27  1  0
 27 28  1  0
 28 29  1  0
 29 30  2  0
 30 31  1  0
 31 32  2  0
 32 33  1  0
 32 34  1  0
 34 35  2  0
 24 36  1  0
 36  3  1  0
 23 13  1  0
 35 29  1  0
 22 16  1  0
  1 37  1  0
  1 38  1  0
  1 39  1  0
  3 40  1  6
  4 41  1  0
  4 42  1  0
  5 43  1  0
  5 44  1  0
  9 45  1  0
  9 46  1  0
 10 47  1  0
 14 48  1  0
 15 49  1  0
 17 50  1  0
 20 51  1  0
 21 52  1  0
 24 53  1  1
 27 54  1  0
 28 55  1  0
 28 56  1  0
 30 57  1  0
 31 58  1  0
 34 59  1  0
 35 60  1  0
 36 61  1  0
 36 62  1  0
M  END
>  <smiles>  (30) 
CO[C@H]1CCN(C(=O)CNC(=O)c2ccc3cc(F)ccc3n2)[C@H](C(=O)NCc2ccc(F)cc2)C1

>  <score_type>  (30) 
oracle

>  <origin>  (30) 
autodockgpu

>  <m_score__min__energy>  (30) 
-9.6500000000000004

>  <m_primary>  (30) 
energy

>  <rmsd>  (30) 
4.04617545832824

>  <m_score__min__rmsd>  (30) 
4.04617545832824

>  <meeko>  (30) 
{"free_energy": -9.1, "intermolecular_energy": -11.49, "internal_energy": -2.59, "cluster_size": 17, "cluster_id": 1, "rank_in_cluster": 7}

>  <energy>  (30) 
-7.76

>  <cluster_rmsd>  (30) 
0.89

>  <cluster>  (30) 
2

$$$$

     RDKit          3D

 62 65  0  0  0  0  0  0  0  0999 V2000
  141.5780   79.8030  223.8510 C   0  0  0  0  0  0  0  0  0  0  0  0
  142.0450   79.5530  222.5840 O   0  0  0  0  0  0  0  0  0  0  0  0
  141.2110   78.6150  221.9780 C   0  0  1  0  0  0  0  0  0  0  0  0
  141.8360   78.0790  220.7050 C   0  0  0  0  0  0  0  0  0  0  0  0
  140.7640   77.1440  220.1210 C   0  0  0  0  0  0  0  0  0  0  0  0
  140.7990   75.9860  221.0770 N   0  0  0  0  0  0  0  0  0  0  0  0
  141.2660   74.8030  220.5250 C   0  0  0  0  0  0  0  0  0  0  0  0
  142.3970   74.9770  219.8520 O   0  0  0  0  0  0  0  0  0  0  0  0
  140.8070   73.4380  220.5120 C   0  0  0  0  0  0  0  0  0  0  0  0
  141.0160   72.5900  221.6480 N   0  0  0  0  0  0  0  0  0  0  0  0
  139.8760   72.3450  222.4940 C   0  0  0  0  0  0  0  0  0  0  0  0
  138.8100   72.9130  222.1380 O   0  0  0  0  0  0  0  0  0  0  0  0
  139.9550   71.5010  223.6760 C   0  0  0  0  0  0  0  0  0  0  0  0
  139.4710   70.2170  223.5760 C   0  0  0  0  0  0  0  0  0  0  0  0
  139.4850   69.3130  224.6240 C   0  0  0  0  0  0  0  0  0  0  0  0
  140.0310   69.7840  225.8160 C   0  0  0  0  0  0  0  0  0  0  0  0
  140.0510   68.8880  226.8710 C   0  0  0  0  0  0  0  0  0  0  0  0
  140.5880   69.3370  228.0640 C   0  0  0  0  0  0  0  0  0  0  0  0
  140.6040   68.4540  229.0900 F   0  0  0  0  0  0  0  0  0  0  0  0
  141.0880   70.6340  228.1990 C   0  0  0  0  0  0  0  0  0  0  0  0
  141.0510   71.5010  227.1240 C   0  0  0  0  0  0  0  0  0  0  0  0
  140.5200   71.0740  225.9260 C   0  0  0  0  0  0  0  0  0  0  0  0
  140.4720   71.9100  224.8490 N   0  0  0  0  0  0  0  0  0  0  0  0
  140.2960   76.2950  222.3690 C   0  0  2  0  0  0  0  0  0  0  0  0
  138.7990   76.5670  222.3240 C   0  0  0  0  0  0  0  0  0  0  0  0
  138.3510   77.7070  222.0510 O   0  0  0  0  0  0  0  0  0  0  0  0
  137.8880   75.5280  222.5920 N   0  0  0  0  0  0  0  0  0  0  0  0
  136.4560   75.6490  222.5800 C   0  0  0  0  0  0  0  0  0  0  0  0
  135.7630   74.9100  223.6420 C   0  0  0  0  0  0  0  0  0  0  0  0
  135.3040   75.6420  224.7340 C   0  0  0  0  0  0  0  0  0  0  0  0
  134.6460   74.9960  225.7580 C   0  0  0  0  0  0  0  0  0  0  0  0
  134.4300   73.6280  225.7260 C   0  0  0  0  0  0  0  0  0  0  0  0
  133.7770   72.9950  226.7470 F   0  0  0  0  0  0  0  0  0  0  0  0
  134.8790   72.8910  224.6520 C   0  0  0  0  0  0  0  0  0  0  0  0
  135.5330   73.5530  223.6400 C   0  0  0  0  0  0  0  0  0  0  0  0
  141.0450   77.4770  222.9360 C   0  0  0  0  0  0  0  0  0  0  0  0
  142.2969   79.4182  224.5893 H   0  0  0  0  0  0  0  0  0  0  0  0
  141.4554   80.8874  223.9893 H   0  0  0  0  0  0  0  0  0  0  0  0
  140.6076   79.3037  223.9893 H   0  0  0  0  0  0  0  0  0  0  0  0
  140.2493   79.0862  221.7267 H   0  0  0  0  0  0  0  0  0  0  0  0
  142.0612   78.8983  220.0064 H   0  0  0  0  0  0  0  0  0  0  0  0
  142.7894   77.5623  220.8897 H   0  0  0  0  0  0  0  0  0  0  0  0
  139.7752   77.6259  220.1141 H   0  0  0  0  0  0  0  0  0  0  0  0
  140.9489   76.8589  219.0748 H   0  0  0  0  0  0  0  0  0  0  0  0
  139.7211   73.4722  220.3397 H   0  0  0  0  0  0  0  0  0  0  0  0
  141.4345   72.9732  219.7373 H   0  0  0  0  0  0  0  0  0  0  0  0
  141.9310   72.1410  221.8990 H   0  0  0  0  0  0  0  0  0  0  0  0
  139.0509   69.8919  222.6128 H   0  0  0  0  0  0  0  0  0  0  0  0
  139.0913   68.2909  224.5225 H   0  0  0  0  0  0  0  0  0  0  0  0
  139.6579   67.8661  226.7655 H   0  0  0  0  0  0  0  0  0  0  0  0
  141.5104   70.9646  229.1593 H   0  0  0  0  0  0  0  0  0  0  0  0
  141.4423   72.5242  227.2235 H   0  0  0  0  0  0  0  0  0  0  0  0
  140.4515   75.4270  223.0265 H   0  0  0  0  0  0  0  0  0  0  0  0
  138.3240   74.5810  222.8190 H   0  0  0  0  0  0  0  0  0  0  0  0
  136.2025   76.7143  222.6841 H   0  0  0  0  0  0  0  0  0  0  0  0
  136.1180   75.2110  221.6293 H   0  0  0  0  0  0  0  0  0  0  0  0
  135.4657   76.7291  224.7789 H   0  0  0  0  0  0  0  0  0  0  0  0
  134.2849   75.5785  226.6184 H   0  0  0  0  0  0  0  0  0  0  0  0
  134.7187   71.8037  224.6055 H   0  0  0  0  0  0  0  0  0  0  0  0
  135.8921   72.9661  222.7818 H   0  0  0  0  0  0  0  0  0  0  0  0
  140.4956   77.8438  223.8156 H   0  0  0  0  0  0  0  0  0  0  0  0
  142.0563   77.1215  223.1829 H   0  0  0  0  0  0  0  0  0  0  0  0
  1  2  1  0
  2  3  1  0
  3  4  1  0
  4  5  1  0
  5  6  1  0
  6  7  1  0
  7  8  2  0
  7  9  1  0
  9 10  1  0
 10 11  1  0
 11 12  2  0
 11 13  1  0
 13 14  2  0
 14 15  1  0
 15 16  2  0
 16 17  1  0
 17 18  2  0
 18 19  1  0
 18 20  1  0
 20 21  2  0
 21 22  1  0
 22 23  2  0
  6 24  1  0
 24 25  1  0
 25 26  2  0
 25 27  1  0
 27 28  1  0
 28 29  1  0
 29 30  2  0
 30 31  1  0
 31 32  2  0
 32 33  1  0
 32 34  1  0
 34 35  2  0
 24 36  1  0
 36  3  1  0
 23 13  1  0
 35 29  1  0
 22 16  1  0
  1 37  1  0
  1 38  1  0
  1 39  1  0
  3 40  1  6
  4 41  1  0
  4 42  1  0
  5 43  1  0
  5 44  1  0
  9 45  1  0
  9 46  1  0
 10 47  1  0
 14 48  1  0
 15 49  1  0
 17 50  1  0
 20 51  1  0
 21 52  1  0
 24 53  1  1
 27 54  1  0
 28 55  1  0
 28 56  1  0
 30 57  1  0
 31 58  1  0
 34 59  1  0
 35 60  1  0
 36 61  1  0
 36 62  1  0
M  END
>  <smiles>  (31) 
CO[C@H]1CCN(C(=O)CNC(=O)c2ccc3cc(F)ccc3n2)[C@H](C(=O)NCc2ccc(F)cc2)C1

>  <score_type>  (31) 
oracle

>  <origin>  (31) 
autodockgpu

>  <m_score__min__energy>  (31) 
-9.6500000000000004

>  <m_primary>  (31) 
energy

>  <rmsd>  (31) 
5.156013485119048

>  <m_score__min__rmsd>  (31) 
5.156013485119048

>  <meeko>  (31) 
{"free_energy": -8.32, "intermolecular_energy": -10.7, "internal_energy": -2.68, "cluster_size": 14, "cluster_id": 2, "rank_in_cluster": 5}

>  <energy>  (31) 
-7.71

>  <cluster_rmsd>  (31) 
0.7

>  <cluster>  (31) 
2

$$$$

     RDKit          3D

 62 65  0  0  0  0  0  0  0  0999 V2000
  146.3390   73.3790  220.8160 C   0  0  0  0  0  0  0  0  0  0  0  0
  146.0280   73.3100  219.4800 O   0  0  0  0  0  0  0  0  0  0  0  0
  144.6810   73.6280  219.3180 C   0  0  1  0  0  0  0  0  0  0  0  0
  144.0000   72.6380  218.3950 C   0  0  0  0  0  0  0  0  0  0  0  0
  142.5680   73.1780  218.2490 C   0  0  0  0  0  0  0  0  0  0  0  0
  141.9840   72.8960  219.6040 N   0  0  0  0  0  0  0  0  0  0  0  0
  140.9770   71.9430  219.6060 C   0  0  0  0  0  0  0  0  0  0  0  0
  141.1480   71.0320  218.6550 O   0  0  0  0  0  0  0  0  0  0  0  0
  139.7930   71.7180  220.3950 C   0  0  0  0  0  0  0  0  0  0  0  0
  139.8680   70.9900  221.6270 N   0  0  0  0  0  0  0  0  0  0  0  0
  140.1590   71.7510  222.8140 C   0  0  0  0  0  0  0  0  0  0  0  0
  140.3200   72.9880  222.6360 O   0  0  0  0  0  0  0  0  0  0  0  0
  140.2600   71.1310  224.1270 C   0  0  0  0  0  0  0  0  0  0  0  0
  140.7390   71.9020  225.1600 C   0  0  0  0  0  0  0  0  0  0  0  0
  140.8860   71.4350  226.4550 C   0  0  0  0  0  0  0  0  0  0  0  0
  140.5110   70.1090  226.6610 C   0  0  0  0  0  0  0  0  0  0  0  0
  140.6520   69.6320  227.9530 C   0  0  0  0  0  0  0  0  0  0  0  0
  140.2870   68.3160  228.1790 C   0  0  0  0  0  0  0  0  0  0  0  0
  140.4280   67.8580  229.4440 F   0  0  0  0  0  0  0  0  0  0  0  0
  139.7970   67.5070  227.1520 C   0  0  0  0  0  0  0  0  0  0  0  0
  139.6690   68.0190  225.8740 C   0  0  0  0  0  0  0  0  0  0  0  0
  140.0280   69.3260  225.6280 C   0  0  0  0  0  0  0  0  0  0  0  0
  139.9120   69.8550  224.3760 N   0  0  0  0  0  0  0  0  0  0  0  0
  142.5320   73.6960  220.6420 C   0  0  2  0  0  0  0  0  0  0  0  0
  142.1400   75.1570  220.4730 C   0  0  0  0  0  0  0  0  0  0  0  0
  142.8970   75.9730  219.8970 O   0  0  0  0  0  0  0  0  0  0  0  0
  140.9050   75.6130  220.9710 N   0  0  0  0  0  0  0  0  0  0  0  0
  140.4140   76.9610  220.8770 C   0  0  0  0  0  0  0  0  0  0  0  0
  141.1270   77.9400  221.7040 C   0  0  0  0  0  0  0  0  0  0  0  0
  141.1470   77.7210  223.0790 C   0  0  0  0  0  0  0  0  0  0  0  0
  141.8040   78.6100  223.9010 C   0  0  0  0  0  0  0  0  0  0  0  0
  142.4490   79.7240  223.3880 C   0  0  0  0  0  0  0  0  0  0  0  0
  143.0980   80.6030  224.2110 F   0  0  0  0  0  0  0  0  0  0  0  0
  142.4370   79.9540  222.0300 C   0  0  0  0  0  0  0  0  0  0  0  0
  141.7770   79.0550  221.2260 C   0  0  0  0  0  0  0  0  0  0  0  0
  144.0340   73.5370  220.6650 C   0  0  0  0  0  0  0  0  0  0  0  0
  145.4372   73.1789  221.4132 H   0  0  0  0  0  0  0  0  0  0  0  0
  147.1090   72.6298  221.0524 H   0  0  0  0  0  0  0  0  0  0  0  0
  146.7199   74.3835  221.0524 H   0  0  0  0  0  0  0  0  0  0  0  0
  144.5902   74.6345  218.8835 H   0  0  0  0  0  0  0  0  0  0  0  0
  144.5053   72.6044  217.4185 H   0  0  0  0  0  0  0  0  0  0  0  0
  144.0239   71.6112  218.7888 H   0  0  0  0  0  0  0  0  0  0  0  0
  142.5684   74.2562  218.0312 H   0  0  0  0  0  0  0  0  0  0  0  0
  142.0055   72.7210  217.4215 H   0  0  0  0  0  0  0  0  0  0  0  0
  139.3837   72.7094  220.6391 H   0  0  0  0  0  0  0  0  0  0  0  0
  139.1899   71.0582  219.7539 H   0  0  0  0  0  0  0  0  0  0  0  0
  139.7250   69.9540  221.7190 H   0  0  0  0  0  0  0  0  0  0  0  0
  141.0199   72.9438  224.9463 H   0  0  0  0  0  0  0  0  0  0  0  0
  141.2729   72.0684  227.2669 H   0  0  0  0  0  0  0  0  0  0  0  0
  141.0364   70.2695  228.7628 H   0  0  0  0  0  0  0  0  0  0  0  0
  139.5134   66.4646  227.3591 H   0  0  0  0  0  0  0  0  0  0  0  0
  139.2835   67.3875  225.0600 H   0  0  0  0  0  0  0  0  0  0  0  0
  142.1230   73.3565  221.6050 H   0  0  0  0  0  0  0  0  0  0  0  0
  140.3020   74.8770  221.4530 H   0  0  0  0  0  0  0  0  0  0  0  0
  140.4920   77.2800  219.8272 H   0  0  0  0  0  0  0  0  0  0  0  0
  139.3798   76.9380  221.2511 H   0  0  0  0  0  0  0  0  0  0  0  0
  140.6409   76.8429  223.5065 H   0  0  0  0  0  0  0  0  0  0  0  0
  141.8169   78.4320  224.9864 H   0  0  0  0  0  0  0  0  0  0  0  0
  142.9413   80.8323  221.6008 H   0  0  0  0  0  0  0  0  0  0  0  0
  141.7679   79.2369  220.1412 H   0  0  0  0  0  0  0  0  0  0  0  0
  144.4549   74.3272  221.3040 H   0  0  0  0  0  0  0  0  0  0  0  0
  144.2392   72.5260  221.0468 H   0  0  0  0  0  0  0  0  0  0  0  0
  1  2  1  0
  2  3  1  0
  3  4  1  0
  4  5  1  0
  5  6  1  0
  6  7  1  0
  7  8  2  0
  7  9  1  0
  9 10  1  0
 10 11  1  0
 11 12  2  0
 11 13  1  0
 13 14  2  0
 14 15  1  0
 15 16  2  0
 16 17  1  0
 17 18  2  0
 18 19  1  0
 18 20  1  0
 20 21  2  0
 21 22  1  0
 22 23  2  0
  6 24  1  0
 24 25  1  0
 25 26  2  0
 25 27  1  0
 27 28  1  0
 28 29  1  0
 29 30  2  0
 30 31  1  0
 31 32  2  0
 32 33  1  0
 32 34  1  0
 34 35  2  0
 24 36  1  0
 36  3  1  0
 23 13  1  0
 35 29  1  0
 22 16  1  0
  1 37  1  0
  1 38  1  0
  1 39  1  0
  3 40  1  6
  4 41  1  0
  4 42  1  0
  5 43  1  0
  5 44  1  0
  9 45  1  0
  9 46  1  0
 10 47  1  0
 14 48  1  0
 15 49  1  0
 17 50  1  0
 20 51  1  0
 21 52  1  0
 24 53  1  1
 27 54  1  0
 28 55  1  0
 28 56  1  0
 30 57  1  0
 31 58  1  0
 34 59  1  0
 35 60  1  0
 36 61  1  0
 36 62  1  0
M  END
>  <smiles>  (32) 
CO[C@H]1CCN(C(=O)CNC(=O)c2ccc3cc(F)ccc3n2)[C@H](C(=O)NCc2ccc(F)cc2)C1

>  <score_type>  (32) 
oracle

>  <origin>  (32) 
autodockgpu

>  <m_score__min__energy>  (32) 
-9.6500000000000004

>  <m_primary>  (32) 
energy

>  <rmsd>  (32) 
3.9391353867503147

>  <m_score__min__rmsd>  (32) 
3.9391353867503147

>  <meeko>  (32) 
{"free_energy": -9.18, "intermolecular_energy": -11.56, "internal_energy": -2.7, "cluster_size": 17, "cluster_id": 1, "rank_in_cluster": 4}

>  <energy>  (32) 
-8.79

>  <cluster_rmsd>  (32) 
0.0

>  <cluster>  (32) 
3

$$$$

     RDKit          3D

 62 65  0  0  0  0  0  0  0  0999 V2000
  134.3790   77.3170  223.8300 C   0  0  0  0  0  0  0  0  0  0  0  0
  134.4180   76.3090  222.8970 O   0  0  0  0  0  0  0  0  0  0  0  0
  135.7470   75.9520  222.6800 C   0  0  1  0  0  0  0  0  0  0  0  0
  135.8740   74.4620  222.4360 C   0  0  0  0  0  0  0  0  0  0  0  0
  137.3880   74.2250  222.3120 C   0  0  0  0  0  0  0  0  0  0  0  0
  137.6990   74.8540  220.9840 N   0  0  0  0  0  0  0  0  0  0  0  0
  138.0910   73.9550  220.0040 C   0  0  0  0  0  0  0  0  0  0  0  0
  137.5970   74.2680  218.8120 O   0  0  0  0  0  0  0  0  0  0  0  0
  138.9030   72.7650  219.9830 C   0  0  0  0  0  0  0  0  0  0  0  0
  138.9230   71.8780  221.1070 N   0  0  0  0  0  0  0  0  0  0  0  0
  139.7310   72.2730  222.2320 C   0  0  0  0  0  0  0  0  0  0  0  0
  140.3420   73.3670  222.0990 O   0  0  0  0  0  0  0  0  0  0  0  0
  139.8340   71.4620  223.4360 C   0  0  0  0  0  0  0  0  0  0  0  0
  139.3860   70.1630  223.3690 C   0  0  0  0  0  0  0  0  0  0  0  0
  139.4260   69.2870  224.4400 C   0  0  0  0  0  0  0  0  0  0  0  0
  139.9580   69.8050  225.6190 C   0  0  0  0  0  0  0  0  0  0  0  0
  140.0030   68.9380  226.6980 C   0  0  0  0  0  0  0  0  0  0  0  0
  140.5270   69.4330  227.8790 C   0  0  0  0  0  0  0  0  0  0  0  0
  140.5670   68.5780  228.9270 F   0  0  0  0  0  0  0  0  0  0  0  0
  140.9890   70.7460  227.9800 C   0  0  0  0  0  0  0  0  0  0  0  0
  140.9280   71.5830  226.8820 C   0  0  0  0  0  0  0  0  0  0  0  0
  140.4100   71.1110  225.6960 C   0  0  0  0  0  0  0  0  0  0  0  0
  140.3380   71.9170  224.5980 N   0  0  0  0  0  0  0  0  0  0  0  0
  137.5870   76.2690  220.9810 C   0  0  2  0  0  0  0  0  0  0  0  0
  138.6670   76.9060  221.8450 C   0  0  0  0  0  0  0  0  0  0  0  0
  138.4520   77.9660  222.4810 O   0  0  0  0  0  0  0  0  0  0  0  0
  139.9350   76.3040  221.9400 N   0  0  0  0  0  0  0  0  0  0  0  0
  141.0380   76.7980  222.7190 C   0  0  0  0  0  0  0  0  0  0  0  0
  141.2540   78.2470  222.6390 C   0  0  0  0  0  0  0  0  0  0  0  0
  141.2720   78.9570  223.8370 C   0  0  0  0  0  0  0  0  0  0  0  0
  141.4720   80.3200  223.8170 C   0  0  0  0  0  0  0  0  0  0  0  0
  141.6560   81.0040  222.6270 C   0  0  0  0  0  0  0  0  0  0  0  0
  141.8520   82.3570  222.6160 F   0  0  0  0  0  0  0  0  0  0  0  0
  141.6390   80.3150  221.4340 C   0  0  0  0  0  0  0  0  0  0  0  0
  141.4390   78.9550  221.4730 C   0  0  0  0  0  0  0  0  0  0  0  0
  136.2100   76.6710  221.4510 C   0  0  0  0  0  0  0  0  0  0  0  0
  134.3958   76.8823  224.8403 H   0  0  0  0  0  0  0  0  0  0  0  0
  135.2525   77.9725  223.6983 H   0  0  0  0  0  0  0  0  0  0  0  0
  133.4575   77.9031  223.6983 H   0  0  0  0  0  0  0  0  0  0  0  0
  136.3468   76.2161  223.5634 H   0  0  0  0  0  0  0  0  0  0  0  0
  135.4582   73.8921  223.2800 H   0  0  0  0  0  0  0  0  0  0  0  0
  135.3227   74.1340  221.5424 H   0  0  0  0  0  0  0  0  0  0  0  0
  137.9373   74.7200  223.1264 H   0  0  0  0  0  0  0  0  0  0  0  0
  137.6762   73.1655  222.3774 H   0  0  0  0  0  0  0  0  0  0  0  0
  138.5695   72.1713  219.1191 H   0  0  0  0  0  0  0  0  0  0  0  0
  139.9274   73.1653  219.9660 H   0  0  0  0  0  0  0  0  0  0  0  0
  138.3930   70.9730  221.1650 H   0  0  0  0  0  0  0  0  0  0  0  0
  138.9747   69.8018  222.4149 H   0  0  0  0  0  0  0  0  0  0  0  0
  139.0622   68.2516  224.3653 H   0  0  0  0  0  0  0  0  0  0  0  0
  139.6388   67.9030  226.6197 H   0  0  0  0  0  0  0  0  0  0  0  0
  141.4008   71.1139  228.9314 H   0  0  0  0  0  0  0  0  0  0  0  0
  141.2906   72.6190  226.9546 H   0  0  0  0  0  0  0  0  0  0  0  0
  137.7317   76.6333  219.9532 H   0  0  0  0  0  0  0  0  0  0  0  0
  140.0630   75.4070  221.3780 H   0  0  0  0  0  0  0  0  0  0  0  0
  140.8556   76.5378  223.7721 H   0  0  0  0  0  0  0  0  0  0  0  0
  141.9421   76.3291  222.3035 H   0  0  0  0  0  0  0  0  0  0  0  0
  141.1274   78.4328  224.7932 H   0  0  0  0  0  0  0  0  0  0  0  0
  141.4858   80.8764  224.7658 H   0  0  0  0  0  0  0  0  0  0  0  0
  141.7815   80.8382  220.4770 H   0  0  0  0  0  0  0  0  0  0  0  0
  141.4261   78.4033  220.5215 H   0  0  0  0  0  0  0  0  0  0  0  0
  136.2200   77.7498  221.6656 H   0  0  0  0  0  0  0  0  0  0  0  0
  135.5103   76.4032  220.6456 H   0  0  0  0  0  0  0  0  0  0  0  0
  1  2  1  0
  2  3  1  0
  3  4  1  0
  4  5  1  0
  5  6  1  0
  6  7  1  0
  7  8  2  0
  7  9  1  0
  9 10  1  0
 10 11  1  0
 11 12  2  0
 11 13  1  0
 13 14  2  0
 14 15  1  0
 15 16  2  0
 16 17  1  0
 17 18  2  0
 18 19  1  0
 18 20  1  0
 20 21  2  0
 21 22  1  0
 22 23  2  0
  6 24  1  0
 24 25  1  0
 25 26  2  0
 25 27  1  0
 27 28  1  0
 28 29  1  0
 29 30  2  0
 30 31  1  0
 31 32  2  0
 32 33  1  0
 32 34  1  0
 34 35  2  0
 24 36  1  0
 36  3  1  0
 23 13  1  0
 35 29  1  0
 22 16  1  0
  1 37  1  0
  1 38  1  0
  1 39  1  0
  3 40  1  1
  4 41  1  0
  4 42  1  0
  5 43  1  0
  5 44  1  0
  9 45  1  0
  9 46  1  0
 10 47  1  0
 14 48  1  0
 15 49  1  0
 17 50  1  0
 20 51  1  0
 21 52  1  0
 24 53  1  6
 27 54  1  0
 28 55  1  0
 28 56  1  0
 30 57  1  0
 31 58  1  0
 34 59  1  0
 35 60  1  0
 36 61  1  0
 36 62  1  0
M  END
>  <smiles>  (33) 
CO[C@H]1CCN(C(=O)CNC(=O)c2ccc3cc(F)ccc3n2)[C@H](C(=O)NCc2ccc(F)cc2)C1

>  <score_type>  (33) 
oracle

>  <origin>  (33) 
autodockgpu

>  <m_score__min__energy>  (33) 
-9.6500000000000004

>  <m_primary>  (33) 
energy

>  <rmsd>  (33) 
3.6041195738356793

>  <m_score__min__rmsd>  (33) 
3.6041195738356793

>  <meeko>  (33) 
{"free_energy": -7.49, "intermolecular_energy": -9.88, "internal_energy": -2.59, "cluster_size": 3, "cluster_id": 9, "rank_in_cluster": 2}

>  <energy>  (33) 
-8.47

>  <cluster_rmsd>  (33) 
0.0

>  <cluster>  (33) 
4

$$$$

     RDKit          3D

 62 65  0  0  0  0  0  0  0  0999 V2000
  146.3230   73.1410  220.6910 C   0  0  0  0  0  0  0  0  0  0  0  0
  146.0280   73.2400  219.3530 O   0  0  0  0  0  0  0  0  0  0  0  0
  144.7220   73.7080  219.2180 C   0  0  1  0  0  0  0  0  0  0  0  0
  143.8070   72.6140  218.7050 C   0  0  0  0  0  0  0  0  0  0  0  0
  142.4480   73.3090  218.5240 C   0  0  0  0  0  0  0  0  0  0  0  0
  142.0140   73.5300  219.9450 N   0  0  0  0  0  0  0  0  0  0  0  0
  140.9040   72.7920  220.3250 C   0  0  0  0  0  0  0  0  0  0  0  0
  141.2340   71.5900  220.7830 O   0  0  0  0  0  0  0  0  0  0  0  0
  139.4820   73.0280  220.3340 C   0  0  0  0  0  0  0  0  0  0  0  0
  138.9670   74.3620  220.4130 N   0  0  0  0  0  0  0  0  0  0  0  0
  139.4430   75.1790  221.5000 C   0  0  0  0  0  0  0  0  0  0  0  0
  140.2670   74.6210  222.2720 O   0  0  0  0  0  0  0  0  0  0  0  0
  138.9990   76.5510  221.6900 C   0  0  0  0  0  0  0  0  0  0  0  0
  138.1410   77.0790  220.7540 C   0  0  0  0  0  0  0  0  0  0  0  0
  137.6450   78.3700  220.8160 C   0  0  0  0  0  0  0  0  0  0  0  0
  138.0730   79.1250  221.9050 C   0  0  0  0  0  0  0  0  0  0  0  0
  137.5840   80.4180  221.9780 C   0  0  0  0  0  0  0  0  0  0  0  0
  137.9970   81.1860  223.0530 C   0  0  0  0  0  0  0  0  0  0  0  0
  137.5130   82.4480  223.1160 F   0  0  0  0  0  0  0  0  0  0  0  0
  138.8680   80.6810  224.0200 C   0  0  0  0  0  0  0  0  0  0  0  0
  139.3370   79.3850  223.9140 C   0  0  0  0  0  0  0  0  0  0  0  0
  138.9370   78.6030  222.8520 C   0  0  0  0  0  0  0  0  0  0  0  0
  139.3850   77.3210  222.7240 N   0  0  0  0  0  0  0  0  0  0  0  0
  142.7890   74.4990  220.6360 C   0  0  2  0  0  0  0  0  0  0  0  0
  142.5650   75.8910  220.0620 C   0  0  0  0  0  0  0  0  0  0  0  0
  143.0640   76.2310  218.9630 O   0  0  0  0  0  0  0  0  0  0  0  0
  141.7850   76.8240  220.7700 N   0  0  0  0  0  0  0  0  0  0  0  0
  141.4940   78.1650  220.3410 C   0  0  0  0  0  0  0  0  0  0  0  0
  141.7480   79.2050  221.3450 C   0  0  0  0  0  0  0  0  0  0  0  0
  142.2510   78.7950  222.5770 C   0  0  0  0  0  0  0  0  0  0  0  0
  142.5070   79.7310  223.5540 C   0  0  0  0  0  0  0  0  0  0  0  0
  142.2750   81.0800  223.3380 C   0  0  0  0  0  0  0  0  0  0  0  0
  142.5300   82.0030  224.3140 F   0  0  0  0  0  0  0  0  0  0  0  0
  141.7770   81.5010  222.1250 C   0  0  0  0  0  0  0  0  0  0  0  0
  141.5270   80.5510  221.1620 C   0  0  0  0  0  0  0  0  0  0  0  0
  144.2490   74.1170  220.5770 C   0  0  0  0  0  0  0  0  0  0  0  0
  145.4441   73.4360  221.2830 H   0  0  0  0  0  0  0  0  0  0  0  0
  146.5948   72.1024  220.9307 H   0  0  0  0  0  0  0  0  0  0  0  0
  147.1663   73.8054  220.9307 H   0  0  0  0  0  0  0  0  0  0  0  0
  144.7038   74.5459  218.5055 H   0  0  0  0  0  0  0  0  0  0  0  0
  144.1728   72.2179  217.7462 H   0  0  0  0  0  0  0  0  0  0  0  0
  143.7521   71.7560  219.3912 H   0  0  0  0  0  0  0  0  0  0  0  0
  142.5560   74.2628  217.9869 H   0  0  0  0  0  0  0  0  0  0  0  0
  141.7298   72.7268  217.9280 H   0  0  0  0  0  0  0  0  0  0  0  0
  139.0842   72.5910  219.4062 H   0  0  0  0  0  0  0  0  0  0  0  0
  139.1635   72.5830  221.2882 H   0  0  0  0  0  0  0  0  0  0  0  0
  138.2770   74.7780  219.7400 H   0  0  0  0  0  0  0  0  0  0  0  0
  137.8326   76.4421  219.9118 H   0  0  0  0  0  0  0  0  0  0  0  0
  136.9589   78.7723  220.0561 H   0  0  0  0  0  0  0  0  0  0  0  0
  136.8982   80.8171  221.2161 H   0  0  0  0  0  0  0  0  0  0  0  0
  139.1804   81.3130  224.8644 H   0  0  0  0  0  0  0  0  0  0  0  0
  140.0244   78.9808  224.6717 H   0  0  0  0  0  0  0  0  0  0  0  0
  142.4697   74.5232  221.6884 H   0  0  0  0  0  0  0  0  0  0  0  0
  141.3860   76.4820  221.6980 H   0  0  0  0  0  0  0  0  0  0  0  0
  142.1137   78.3834  219.4588 H   0  0  0  0  0  0  0  0  0  0  0  0
  140.4142   78.1945  220.1334 H   0  0  0  0  0  0  0  0  0  0  0  0
  142.4429   77.7290  222.7688 H   0  0  0  0  0  0  0  0  0  0  0  0
  142.9037   79.4012  224.5255 H   0  0  0  0  0  0  0  0  0  0  0  0
  141.5846   82.5666  221.9317 H   0  0  0  0  0  0  0  0  0  0  0  0
  141.1287   80.8855  220.1927 H   0  0  0  0  0  0  0  0  0  0  0  0
  144.8452   74.9817  220.9039 H   0  0  0  0  0  0  0  0  0  0  0  0
  144.3731   73.2415  221.2313 H   0  0  0  0  0  0  0  0  0  0  0  0
  1  2  1  0
  2  3  1  0
  3  4  1  0
  4  5  1  0
  5  6  1  0
  6  7  1  0
  7  8  2  0
  7  9  1  0
  9 10  1  0
 10 11  1  0
 11 12  2  0
 11 13  1  0
 13 14  2  0
 14 15  1  0
 15 16  2  0
 16 17  1  0
 17 18  2  0
 18 19  1  0
 18 20  1  0
 20 21  2  0
 21 22  1  0
 22 23  2  0
  6 24  1  0
 24 25  1  0
 25 26  2  0
 25 27  1  0
 27 28  1  0
 28 29  1  0
 29 30  2  0
 30 31  1  0
 31 32  2  0
 32 33  1  0
 32 34  1  0
 34 35  2  0
 24 36  1  0
 36  3  1  0
 23 13  1  0
 35 29  1  0
 22 16  1  0
  1 37  1  0
  1 38  1  0
  1 39  1  0
  3 40  1  6
  4 41  1  0
  4 42  1  0
  5 43  1  0
  5 44  1  0
  9 45  1  0
  9 46  1  0
 10 47  1  0
 14 48  1  0
 15 49  1  0
 17 50  1  0
 20 51  1  0
 21 52  1  0
 24 53  1  1
 27 54  1  0
 28 55  1  0
 28 56  1  0
 30 57  1  0
 31 58  1  0
 34 59  1  0
 35 60  1  0
 36 61  1  0
 36 62  1  0
M  END
>  <smiles>  (34) 
CO[C@H]1CCN(C(=O)CNC(=O)c2ccc3cc(F)ccc3n2)[C@H](C(=O)NCc2ccc(F)cc2)C1

>  <score_type>  (34) 
oracle

>  <origin>  (34) 
autodockgpu

>  <m_score__min__energy>  (34) 
-9.6500000000000004

>  <m_primary>  (34) 
energy

>  <rmsd>  (34) 
6.692029040443192

>  <m_score__min__rmsd>  (34) 
6.692029040443192

>  <meeko>  (34) 
{"free_energy": -7.06, "intermolecular_energy": -9.45, "internal_energy": -4.04, "cluster_size": 9, "cluster_id": 10, "rank_in_cluster": 6}

>  <energy>  (34) 
-8.27

>  <cluster_rmsd>  (34) 
0.0

>  <cluster>  (34) 
5

$$$$

     RDKit          3D

 62 65  0  0  0  0  0  0  0  0999 V2000
  146.1020   73.5700  217.0910 C   0  0  0  0  0  0  0  0  0  0  0  0
  146.2670   73.3800  218.4410 O   0  0  0  0  0  0  0  0  0  0  0  0
  145.0980   72.8260  218.9600 C   0  0  1  0  0  0  0  0  0  0  0  0
  144.7600   73.4370  220.3050 C   0  0  0  0  0  0  0  0  0  0  0  0
  143.5180   72.6620  220.7740 C   0  0  0  0  0  0  0  0  0  0  0  0
  142.4550   73.1770  219.8470 N   0  0  0  0  0  0  0  0  0  0  0  0
  141.4720   73.9310  220.4670 C   0  0  0  0  0  0  0  0  0  0  0  0
  141.8390   75.1970  220.6290 O   0  0  0  0  0  0  0  0  0  0  0  0
  140.1520   73.6580  220.9770 C   0  0  0  0  0  0  0  0  0  0  0  0
  139.9790   73.0900  222.2810 N   0  0  0  0  0  0  0  0  0  0  0  0
  140.2680   71.6860  222.4210 C   0  0  0  0  0  0  0  0  0  0  0  0
  140.6410   71.1050  221.3670 O   0  0  0  0  0  0  0  0  0  0  0  0
  140.1350   70.9910  223.6920 C   0  0  0  0  0  0  0  0  0  0  0  0
  139.4400   69.8040  223.6990 C   0  0  0  0  0  0  0  0  0  0  0  0
  139.2400   69.0440  224.8390 C   0  0  0  0  0  0  0  0  0  0  0  0
  139.7950   69.5590  226.0080 C   0  0  0  0  0  0  0  0  0  0  0  0
  139.6030   68.8070  227.1550 C   0  0  0  0  0  0  0  0  0  0  0  0
  140.1460   69.3010  228.3270 C   0  0  0  0  0  0  0  0  0  0  0  0
  139.9520   68.5600  229.4430 F   0  0  0  0  0  0  0  0  0  0  0  0
  140.8560   70.5030  228.3540 C   0  0  0  0  0  0  0  0  0  0  0  0
  141.0290   71.2260  227.1900 C   0  0  0  0  0  0  0  0  0  0  0  0
  140.4960   70.7520  226.0110 C   0  0  0  0  0  0  0  0  0  0  0  0
  140.6520   71.4470  224.8470 N   0  0  0  0  0  0  0  0  0  0  0  0
  142.6160   72.7550  218.5000 C   0  0  2  0  0  0  0  0  0  0  0  0
  142.3940   71.2550  218.3650 C   0  0  0  0  0  0  0  0  0  0  0  0
  142.4460   70.6850  217.2490 O   0  0  0  0  0  0  0  0  0  0  0  0
  142.1230   70.4800  219.5090 N   0  0  0  0  0  0  0  0  0  0  0  0
  141.8970   69.0610  219.5220 C   0  0  0  0  0  0  0  0  0  0  0  0
  143.1060   68.2400  219.3980 C   0  0  0  0  0  0  0  0  0  0  0  0
  144.3220   68.8400  219.7180 C   0  0  0  0  0  0  0  0  0  0  0  0
  145.4870   68.1130  219.6190 C   0  0  0  0  0  0  0  0  0  0  0  0
  145.4780   66.7900  219.2070 C   0  0  0  0  0  0  0  0  0  0  0  0
  146.6400   66.0760  219.1100 F   0  0  0  0  0  0  0  0  0  0  0  0
  144.2840   66.1830  218.8860 C   0  0  0  0  0  0  0  0  0  0  0  0
  143.1310   66.9250  218.9910 C   0  0  0  0  0  0  0  0  0  0  0  0
  143.9890   73.1460  218.0070 C   0  0  0  0  0  0  0  0  0  0  0  0
  145.3895   74.3905  216.9206 H   0  0  0  0  0  0  0  0  0  0  0  0
  147.0703   73.8247  216.6355 H   0  0  0  0  0  0  0  0  0  0  0  0
  145.7140   72.6469  216.6355 H   0  0  0  0  0  0  0  0  0  0  0  0
  145.2319   71.7419  219.0899 H   0  0  0  0  0  0  0  0  0  0  0  0
  145.5917   73.3051  221.0128 H   0  0  0  0  0  0  0  0  0  0  0  0
  144.5795   74.5202  220.2407 H   0  0  0  0  0  0  0  0  0  0  0  0
  143.6573   71.5771  220.6578 H   0  0  0  0  0  0  0  0  0  0  0  0
  143.2833   72.8062  221.8390 H   0  0  0  0  0  0  0  0  0  0  0  0
  139.6096   74.6150  220.9757 H   0  0  0  0  0  0  0  0  0  0  0  0
  139.7892   72.8617  220.3104 H   0  0  0  0  0  0  0  0  0  0  0  0
  139.6630   73.6230  223.1290 H   0  0  0  0  0  0  0  0  0  0  0  0
  139.0212   69.4395  222.7494 H   0  0  0  0  0  0  0  0  0  0  0  0
  138.6804   68.0971  224.8225 H   0  0  0  0  0  0  0  0  0  0  0  0
  139.0440   67.8598  227.1347 H   0  0  0  0  0  0  0  0  0  0  0  0
  141.2767   70.8734  229.3005 H   0  0  0  0  0  0  0  0  0  0  0  0
  141.5881   72.1732  227.2040 H   0  0  0  0  0  0  0  0  0  0  0  0
  141.8586   73.2554  217.8788 H   0  0  0  0  0  0  0  0  0  0  0  0
  142.0890   71.0160  220.4310 H   0  0  0  0  0  0  0  0  0  0  0  0
  141.4048   68.8025  220.4711 H   0  0  0  0  0  0  0  0  0  0  0  0
  141.2825   68.8393  218.6370 H   0  0  0  0  0  0  0  0  0  0  0  0
  144.3511   69.8889  220.0480 H   0  0  0  0  0  0  0  0  0  0  0  0
  146.4443   68.5921  219.8721 H   0  0  0  0  0  0  0  0  0  0  0  0
  144.2536   65.1344  218.5550 H   0  0  0  0  0  0  0  0  0  0  0  0
  142.1765   66.4415  218.7359 H   0  0  0  0  0  0  0  0  0  0  0  0
  144.1810   72.6142  217.0634 H   0  0  0  0  0  0  0  0  0  0  0  0
  143.9818   74.2394  217.8866 H   0  0  0  0  0  0  0  0  0  0  0  0
  1  2  1  0
  2  3  1  0
  3  4  1  0
  4  5  1  0
  5  6  1  0
  6  7  1  0
  7  8  2  0
  7  9  1  0
  9 10  1  0
 10 11  1  0
 11 12  2  0
 11 13  1  0
 13 14  2  0
 14 15  1  0
 15 16  2  0
 16 17  1  0
 17 18  2  0
 18 19  1  0
 18 20  1  0
 20 21  2  0
 21 22  1  0
 22 23  2  0
  6 24  1  0
 24 25  1  0
 25 26  2  0
 25 27  1  0
 27 28  1  0
 28 29  1  0
 29 30  2  0
 30 31  1  0
 31 32  2  0
 32 33  1  0
 32 34  1  0
 34 35  2  0
 24 36  1  0
 36  3  1  0
 23 13  1  0
 35 29  1  0
 22 16  1  0
  1 37  1  0
  1 38  1  0
  1 39  1  0
  3 40  1  1
  4 41  1  0
  4 42  1  0
  5 43  1  0
  5 44  1  0
  9 45  1  0
  9 46  1  0
 10 47  1  0
 14 48  1  0
 15 49  1  0
 17 50  1  0
 20 51  1  0
 21 52  1  0
 24 53  1  6
 27 54  1  0
 28 55  1  0
 28 56  1  0
 30 57  1  0
 31 58  1  0
 34 59  1  0
 35 60  1  0
 36 61  1  0
 36 62  1  0
M  END
>  <smiles>  (35) 
CO[C@H]1CCN(C(=O)CNC(=O)c2ccc3cc(F)ccc3n2)[C@H](C(=O)NCc2ccc(F)cc2)C1

>  <score_type>  (35) 
oracle

>  <origin>  (35) 
autodockgpu

>  <m_score__min__energy>  (35) 
-9.6500000000000004

>  <m_primary>  (35) 
energy

>  <rmsd>  (35) 
7.6481760694504874

>  <m_score__min__rmsd>  (35) 
7.6481760694504874

>  <meeko>  (35) 
{"free_energy": -7.87, "intermolecular_energy": -10.25, "internal_energy": -2.73, "cluster_size": 1, "cluster_id": 7, "rank_in_cluster": 1}

>  <energy>  (35) 
-8.07

>  <cluster_rmsd>  (35) 
0.0

>  <cluster>  (35) 
6

$$$$

     RDKit          3D

 62 65  0  0  0  0  0  0  0  0999 V2000
  146.3100   73.1400  220.7360 C   0  0  0  0  0  0  0  0  0  0  0  0
  145.9910   72.9870  219.4090 O   0  0  0  0  0  0  0  0  0  0  0  0
  144.7890   73.6470  219.1600 C   0  0  1  0  0  0  0  0  0  0  0  0
  143.9150   72.8410  218.2200 C   0  0  0  0  0  0  0  0  0  0  0  0
  142.6900   73.7390  217.9770 C   0  0  0  0  0  0  0  0  0  0  0  0
  141.9830   73.6750  219.3010 N   0  0  0  0  0  0  0  0  0  0  0  0
  140.7580   73.0280  219.2650 C   0  0  0  0  0  0  0  0  0  0  0  0
  139.7610   73.8590  218.9850 O   0  0  0  0  0  0  0  0  0  0  0  0
  140.3210   71.6690  219.4620 C   0  0  0  0  0  0  0  0  0  0  0  0
  140.5060   71.0230  220.7260 N   0  0  0  0  0  0  0  0  0  0  0  0
  139.6940   71.4910  221.8200 C   0  0  0  0  0  0  0  0  0  0  0  0
  138.9050   72.4320  221.5410 O   0  0  0  0  0  0  0  0  0  0  0  0
  139.7840   70.9160  223.1540 C   0  0  0  0  0  0  0  0  0  0  0  0
  139.2370   69.6700  223.3490 C   0  0  0  0  0  0  0  0  0  0  0  0
  139.2540   69.0110  224.5660 C   0  0  0  0  0  0  0  0  0  0  0  0
  139.8700   69.6970  225.6110 C   0  0  0  0  0  0  0  0  0  0  0  0
  139.8940   69.0480  226.8330 C   0  0  0  0  0  0  0  0  0  0  0  0
  140.5010   69.7120  227.8840 C   0  0  0  0  0  0  0  0  0  0  0  0
  140.5190   69.0700  229.0760 F   0  0  0  0  0  0  0  0  0  0  0  0
  141.0650   70.9790  227.7200 C   0  0  0  0  0  0  0  0  0  0  0  0
  141.0230   71.5960  226.4850 C   0  0  0  0  0  0  0  0  0  0  0  0
  140.4230   70.9520  225.4240 C   0  0  0  0  0  0  0  0  0  0  0  0
  140.3680   71.5390  224.1940 N   0  0  0  0  0  0  0  0  0  0  0  0
  142.6730   74.3380  220.3510 C   0  0  2  0  0  0  0  0  0  0  0  0
  142.6980   75.8430  220.1260 C   0  0  0  0  0  0  0  0  0  0  0  0
  143.7480   76.4340  219.7780 O   0  0  0  0  0  0  0  0  0  0  0  0
  141.5250   76.6000  220.3100 N   0  0  0  0  0  0  0  0  0  0  0  0
  141.4110   78.0210  220.1300 C   0  0  0  0  0  0  0  0  0  0  0  0
  141.6990   78.8230  221.3240 C   0  0  0  0  0  0  0  0  0  0  0  0
  142.1800   80.1150  221.1260 C   0  0  0  0  0  0  0  0  0  0  0  0
  142.4660   80.9090  222.2140 C   0  0  0  0  0  0  0  0  0  0  0  0
  142.2850   80.4500  223.5090 C   0  0  0  0  0  0  0  0  0  0  0  0
  142.5730   81.2460  224.5830 F   0  0  0  0  0  0  0  0  0  0  0  0
  141.8110   79.1750  223.7210 C   0  0  0  0  0  0  0  0  0  0  0  0
  141.5320   78.3960  222.6220 C   0  0  0  0  0  0  0  0  0  0  0  0
  144.0730   73.7850  220.4670 C   0  0  0  0  0  0  0  0  0  0  0  0
  145.4916   72.7475  221.3574 H   0  0  0  0  0  0  0  0  0  0  0  0
  147.2353   72.5877  220.9567 H   0  0  0  0  0  0  0  0  0  0  0  0
  146.4585   74.2073  220.9567 H   0  0  0  0  0  0  0  0  0  0  0  0
  144.9951   74.6239  218.6982 H   0  0  0  0  0  0  0  0  0  0  0  0
  144.4421   72.6371  217.2763 H   0  0  0  0  0  0  0  0  0  0  0  0
  143.6415   71.8606  218.6370 H   0  0  0  0  0  0  0  0  0  0  0  0
  142.9919   74.7688  217.7353 H   0  0  0  0  0  0  0  0  0  0  0  0
  142.0683   73.4181  217.1281 H   0  0  0  0  0  0  0  0  0  0  0  0
  139.2409   71.6519  219.2543 H   0  0  0  0  0  0  0  0  0  0  0  0
  140.9807   71.0972  218.7927 H   0  0  0  0  0  0  0  0  0  0  0  0
  141.1830   70.2400  220.9050 H   0  0  0  0  0  0  0  0  0  0  0  0
  138.7606   69.1703  222.4926 H   0  0  0  0  0  0  0  0  0  0  0  0
  138.8111   68.0130  224.6994 H   0  0  0  0  0  0  0  0  0  0  0  0
  139.4507   68.0497  226.9628 H   0  0  0  0  0  0  0  0  0  0  0  0
  141.5418   71.4846  228.5727 H   0  0  0  0  0  0  0  0  0  0  0  0
  141.4651   72.5940  226.3490 H   0  0  0  0  0  0  0  0  0  0  0  0
  142.1390   74.1563  221.2954 H   0  0  0  0  0  0  0  0  0  0  0  0
  140.6630   76.0470  220.6080 H   0  0  0  0  0  0  0  0  0  0  0  0
  142.1138   78.3221  219.3392 H   0  0  0  0  0  0  0  0  0  0  0  0
  140.3583   78.2149  219.8764 H   0  0  0  0  0  0  0  0  0  0  0  0
  142.3305   80.4989  220.1062 H   0  0  0  0  0  0  0  0  0  0  0  0
  142.8459   81.9285  222.0519 H   0  0  0  0  0  0  0  0  0  0  0  0
  141.6597   78.7900  224.7403 H   0  0  0  0  0  0  0  0  0  0  0  0
  141.1549   77.3763  222.7896 H   0  0  0  0  0  0  0  0  0  0  0  0
  144.6575   74.4585  221.1110 H   0  0  0  0  0  0  0  0  0  0  0  0
  143.9787   72.7715  220.8840 H   0  0  0  0  0  0  0  0  0  0  0  0
  1  2  1  0
  2  3  1  0
  3  4  1  0
  4  5  1  0
  5  6  1  0
  6  7  1  0
  7  8  2  0
  7  9  1  0
  9 10  1  0
 10 11  1  0
 11 12  2  0
 11 13  1  0
 13 14  2  0
 14 15  1  0
 15 16  2  0
 16 17  1  0
 17 18  2  0
 18 19  1  0
 18 20  1  0
 20 21  2  0
 21 22  1  0
 22 23  2  0
  6 24  1  0
 24 25  1  0
 25 26  2  0
 25 27  1  0
 27 28  1  0
 28 29  1  0
 29 30  2  0
 30 31  1  0
 31 32  2  0
 32 33  1  0
 32 34  1  0
 34 35  2  0
 24 36  1  0
 36  3  1  0
 23 13  1  0
 35 29  1  0
 22 16  1  0
  1 37  1  0
  1 38  1  0
  1 39  1  0
  3 40  1  6
  4 41  1  0
  4 42  1  0
  5 43  1  0
  5 44  1  0
  9 45  1  0
  9 46  1  0
 10 47  1  0
 14 48  1  0
 15 49  1  0
 17 50  1  0
 20 51  1  0
 21 52  1  0
 24 53  1  1
 27 54  1  0
 28 55  1  0
 28 56  1  0
 30 57  1  0
 31 58  1  0
 34 59  1  0
 35 60  1  0
 36 61  1  0
 36 62  1  0
M  END
>  <smiles>  (36) 
CO[C@H]1CCN(C(=O)CNC(=O)c2ccc3cc(F)ccc3n2)[C@H](C(=O)NCc2ccc(F)cc2)C1

>  <score_type>  (36) 
oracle

>  <origin>  (36) 
autodockgpu

>  <m_score__min__energy>  (36) 
-9.6500000000000004

>  <m_primary>  (36) 
energy

>  <rmsd>  (36) 
3.4712847674456673

>  <m_score__min__rmsd>  (36) 
3.4712847674456673

>  <meeko>  (36) 
{"free_energy": -8.49, "intermolecular_energy": -10.87, "internal_energy": -1.78, "cluster_size": 17, "cluster_id": 1, "rank_in_cluster": 14}

>  <energy>  (36) 
-7.87

>  <cluster_rmsd>  (36) 
0.0

>  <cluster>  (36) 
7

$$$$

     RDKit          3D

 62 65  0  0  0  0  0  0  0  0999 V2000
  142.5430   79.7150  223.1420 C   0  0  0  0  0  0  0  0  0  0  0  0
  141.8740   80.0260  221.9840 O   0  0  0  0  0  0  0  0  0  0  0  0
  141.1490   78.9090  221.5740 C   0  0  1  0  0  0  0  0  0  0  0  0
  141.7730   78.2820  220.3430 C   0  0  0  0  0  0  0  0  0  0  0  0
  140.8140   77.1390  219.9710 C   0  0  0  0  0  0  0  0  0  0  0  0
  141.0640   76.1460  221.0690 N   0  0  0  0  0  0  0  0  0  0  0  0
  141.6630   74.9690  220.6500 C   0  0  0  0  0  0  0  0  0  0  0  0
  142.9020   75.1640  220.2150 O   0  0  0  0  0  0  0  0  0  0  0  0
  141.2510   73.5900  220.5750 C   0  0  0  0  0  0  0  0  0  0  0  0
  141.2990   72.7530  221.7370 N   0  0  0  0  0  0  0  0  0  0  0  0
  140.0450   72.4660  222.3830 C   0  0  0  0  0  0  0  0  0  0  0  0
  139.0320   72.9910  221.8500 O   0  0  0  0  0  0  0  0  0  0  0  0
  139.9580   71.6270  223.5690 C   0  0  0  0  0  0  0  0  0  0  0  0
  139.1690   70.5020  223.4980 C   0  0  0  0  0  0  0  0  0  0  0  0
  139.0000   69.6220  224.5530 C   0  0  0  0  0  0  0  0  0  0  0  0
  139.6880   69.9450  225.7200 C   0  0  0  0  0  0  0  0  0  0  0  0
  139.5260   69.0710  226.7820 C   0  0  0  0  0  0  0  0  0  0  0  0
  140.2010   69.3730  227.9510 C   0  0  0  0  0  0  0  0  0  0  0  0
  140.0370   68.5140  228.9840 F   0  0  0  0  0  0  0  0  0  0  0  0
  141.0080   70.5070  228.0570 C   0  0  0  0  0  0  0  0  0  0  0  0
  141.1460   71.3570  226.9760 C   0  0  0  0  0  0  0  0  0  0  0  0
  140.4830   71.0740  225.8010 C   0  0  0  0  0  0  0  0  0  0  0  0
  140.6020   71.8970  224.7200 N   0  0  0  0  0  0  0  0  0  0  0  0
  140.5930   76.5680  222.3410 C   0  0  2  0  0  0  0  0  0  0  0  0
  139.0730   76.6310  222.3700 C   0  0  0  0  0  0  0  0  0  0  0  0
  138.4690   77.5370  222.9920 O   0  0  0  0  0  0  0  0  0  0  0  0
  138.3180   75.6580  221.6880 N   0  0  0  0  0  0  0  0  0  0  0  0
  136.8830   75.6030  221.6330 C   0  0  0  0  0  0  0  0  0  0  0  0
  136.2440   74.9300  222.7690 C   0  0  0  0  0  0  0  0  0  0  0  0
  135.7710   75.7330  223.8040 C   0  0  0  0  0  0  0  0  0  0  0  0
  135.1620   75.1500  224.8940 C   0  0  0  0  0  0  0  0  0  0  0  0
  135.0090   73.7770  224.9850 C   0  0  0  0  0  0  0  0  0  0  0  0
  134.4050   73.2060  226.0710 F   0  0  0  0  0  0  0  0  0  0  0  0
  135.4730   72.9690  223.9690 C   0  0  0  0  0  0  0  0  0  0  0  0
  136.0770   73.5680  222.8890 C   0  0  0  0  0  0  0  0  0  0  0  0
  141.1970   77.9090  222.6860 C   0  0  0  0  0  0  0  0  0  0  0  0
  141.9285   80.0007  224.0085 H   0  0  0  0  0  0  0  0  0  0  0  0
  142.7396   78.6331  223.1726 H   0  0  0  0  0  0  0  0  0  0  0  0
  143.4968   80.2620  223.1726 H   0  0  0  0  0  0  0  0  0  0  0  0
  140.1184   79.2086  221.3331 H   0  0  0  0  0  0  0  0  0  0  0  0
  141.8421   79.0144  219.5252 H   0  0  0  0  0  0  0  0  0  0  0  0
  142.7982   77.9277  220.5257 H   0  0  0  0  0  0  0  0  0  0  0  0
  139.7681   77.4796  219.9717 H   0  0  0  0  0  0  0  0  0  0  0  0
  140.9804   76.7334  218.9622 H   0  0  0  0  0  0  0  0  0  0  0  0
  140.2064   73.5913  220.2304 H   0  0  0  0  0  0  0  0  0  0  0  0
  142.0078   73.1410  219.9150 H   0  0  0  0  0  0  0  0  0  0  0  0
  142.1760   72.3400  222.1420 H   0  0  0  0  0  0  0  0  0  0  0  0
  138.6454   70.2910  222.5539 H   0  0  0  0  0  0  0  0  0  0  0  0
  138.3648   68.7274  224.4749 H   0  0  0  0  0  0  0  0  0  0  0  0
  138.8897   68.1775  226.6997 H   0  0  0  0  0  0  0  0  0  0  0  0
  141.5330   70.7237  228.9990 H   0  0  0  0  0  0  0  0  0  0  0  0
  141.7801   72.2526  227.0526 H   0  0  0  0  0  0  0  0  0  0  0  0
  140.9048   75.8315  223.0962 H   0  0  0  0  0  0  0  0  0  0  0  0
  138.8820   74.9110  221.1770 H   0  0  0  0  0  0  0  0  0  0  0  0
  136.5035   76.6346  221.5901 H   0  0  0  0  0  0  0  0  0  0  0  0
  136.6323   75.0077  220.7426 H   0  0  0  0  0  0  0  0  0  0  0  0
  135.8829   76.8260  223.7517 H   0  0  0  0  0  0  0  0  0  0  0  0
  134.7898   75.7886  225.7086 H   0  0  0  0  0  0  0  0  0  0  0  0
  135.3631   71.8757  224.0210 H   0  0  0  0  0  0  0  0  0  0  0  0
  136.4469   72.9249  222.0769 H   0  0  0  0  0  0  0  0  0  0  0  0
  140.6495   78.3228  223.5456 H   0  0  0  0  0  0  0  0  0  0  0  0
  142.2603   77.7296  222.9034 H   0  0  0  0  0  0  0  0  0  0  0  0
  1  2  1  0
  2  3  1  0
  3  4  1  0
  4  5  1  0
  5  6  1  0
  6  7  1  0
  7  8  2  0
  7  9  1  0
  9 10  1  0
 10 11  1  0
 11 12  2  0
 11 13  1  0
 13 14  2  0
 14 15  1  0
 15 16  2  0
 16 17  1  0
 17 18  2  0
 18 19  1  0
 18 20  1  0
 20 21  2  0
 21 22  1  0
 22 23  2  0
  6 24  1  0
 24 25  1  0
 25 26  2  0
 25 27  1  0
 27 28  1  0
 28 29  1  0
 29 30  2  0
 30 31  1  0
 31 32  2  0
 32 33  1  0
 32 34  1  0
 34 35  2  0
 24 36  1  0
 36  3  1  0
 23 13  1  0
 35 29  1  0
 22 16  1  0
  1 37  1  0
  1 38  1  0
  1 39  1  0
  3 40  1  6
  4 41  1  0
  4 42  1  0
  5 43  1  0
  5 44  1  0
  9 45  1  0
  9 46  1  0
 10 47  1  0
 14 48  1  0
 15 49  1  0
 17 50  1  0
 20 51  1  0
 21 52  1  0
 24 53  1  1
 27 54  1  0
 28 55  1  0
 28 56  1  0
 30 57  1  0
 31 58  1  0
 34 59  1  0
 35 60  1  0
 36 61  1  0
 36 62  1  0
M  END
>  <smiles>  (37) 
CO[C@H]1CCN(C(=O)CNC(=O)c2ccc3cc(F)ccc3n2)[C@H](C(=O)NCc2ccc(F)cc2)C1

>  <score_type>  (37) 
oracle

>  <origin>  (37) 
autodockgpu

>  <m_score__min__energy>  (37) 
-9.6500000000000004

>  <m_primary>  (37) 
energy

>  <rmsd>  (37) 
4.9326048814645755

>  <m_score__min__rmsd>  (37) 
4.9326048814645755

>  <meeko>  (37) 
{"free_energy": -7.71, "intermolecular_energy": -10.1, "internal_energy": -3.07, "cluster_size": 14, "cluster_id": 2, "rank_in_cluster": 14}

>  <energy>  (37) 
-7.82

>  <cluster_rmsd>  (37) 
0.0

>  <cluster>  (37) 
8

$$$$

     RDKit          3D

 62 65  0  0  0  0  0  0  0  0999 V2000
  143.1290   77.2410  216.6320 C   0  0  0  0  0  0  0  0  0  0  0  0
  143.6250   76.5350  217.7000 O   0  0  0  0  0  0  0  0  0  0  0  0
  142.5560   76.0230  218.4320 C   0  0  1  0  0  0  0  0  0  0  0  0
  141.9390   74.8310  217.7280 C   0  0  0  0  0  0  0  0  0  0  0  0
  140.7340   74.4530  218.6050 C   0  0  0  0  0  0  0  0  0  0  0  0
  141.3990   73.8720  219.8210 N   0  0  0  0  0  0  0  0  0  0  0  0
  141.1830   72.5150  219.9960 C   0  0  0  0  0  0  0  0  0  0  0  0
  142.2540   71.7930  219.6890 O   0  0  0  0  0  0  0  0  0  0  0  0
  140.0680   71.7110  220.4300 C   0  0  0  0  0  0  0  0  0  0  0  0
  140.1370   70.9750  221.6570 N   0  0  0  0  0  0  0  0  0  0  0  0
  140.2330   71.7440  222.8710 C   0  0  0  0  0  0  0  0  0  0  0  0
  140.2500   72.9940  222.7170 O   0  0  0  0  0  0  0  0  0  0  0  0
  140.3070   71.1170  224.1820 C   0  0  0  0  0  0  0  0  0  0  0  0
  140.7700   71.8810  225.2280 C   0  0  0  0  0  0  0  0  0  0  0  0
  140.8900   71.4080  226.5230 C   0  0  0  0  0  0  0  0  0  0  0  0
  140.5070   70.0820  226.7160 C   0  0  0  0  0  0  0  0  0  0  0  0
  140.6230   69.5970  228.0070 C   0  0  0  0  0  0  0  0  0  0  0  0
  140.2480   68.2830  228.2200 C   0  0  0  0  0  0  0  0  0  0  0  0
  140.3640   67.8180  229.4850 F   0  0  0  0  0  0  0  0  0  0  0  0
  139.7750   67.4800  227.1800 C   0  0  0  0  0  0  0  0  0  0  0  0
  139.6730   67.9980  225.9030 C   0  0  0  0  0  0  0  0  0  0  0  0
  140.0410   69.3060  225.6690 C   0  0  0  0  0  0  0  0  0  0  0  0
  139.9500   69.8410  224.4180 N   0  0  0  0  0  0  0  0  0  0  0  0
  142.0900   74.8310  220.6090 C   0  0  2  0  0  0  0  0  0  0  0  0
  141.1200   75.8040  221.2650 C   0  0  0  0  0  0  0  0  0  0  0  0
  140.4050   75.4580  222.2350 O   0  0  0  0  0  0  0  0  0  0  0  0
  141.0140   77.1210  220.7810 N   0  0  0  0  0  0  0  0  0  0  0  0
  140.1440   78.1370  221.3080 C   0  0  0  0  0  0  0  0  0  0  0  0
  140.7950   79.1170  222.1840 C   0  0  0  0  0  0  0  0  0  0  0  0
  142.1860   79.1670  222.1650 C   0  0  0  0  0  0  0  0  0  0  0  0
  142.8470   80.0700  222.9680 C   0  0  0  0  0  0  0  0  0  0  0  0
  142.1550   80.9340  223.8000 C   0  0  0  0  0  0  0  0  0  0  0  0
  142.8180   81.8270  224.5960 F   0  0  0  0  0  0  0  0  0  0  0  0
  140.7780   80.8960  223.8320 C   0  0  0  0  0  0  0  0  0  0  0  0
  140.1360   79.9880  223.0220 C   0  0  0  0  0  0  0  0  0  0  0  0
  143.0940   75.5630  219.7510 C   0  0  0  0  0  0  0  0  0  0  0  0
  142.5328   78.0896  216.9985 H   0  0  0  0  0  0  0  0  0  0  0  0
  143.9633   77.6158  216.0209 H   0  0  0  0  0  0  0  0  0  0  0  0
  142.4935   76.5832  216.0209 H   0  0  0  0  0  0  0  0  0  0  0  0
  141.7861   76.8000  218.5484 H   0  0  0  0  0  0  0  0  0  0  0  0
  141.6123   75.1038  216.7137 H   0  0  0  0  0  0  0  0  0  0  0  0
  142.6492   73.9995  217.6091 H   0  0  0  0  0  0  0  0  0  0  0  0
  140.1344   75.3385  218.8626 H   0  0  0  0  0  0  0  0  0  0  0  0
  140.0288   73.7653  218.1153 H   0  0  0  0  0  0  0  0  0  0  0  0
  139.2057   72.3884  220.5168 H   0  0  0  0  0  0  0  0  0  0  0  0
  140.0226   70.9187  219.6682 H   0  0  0  0  0  0  0  0  0  0  0  0
  140.1200   69.9270  221.7290 H   0  0  0  0  0  0  0  0  0  0  0  0
  141.0600   72.9224  225.0245 H   0  0  0  0  0  0  0  0  0  0  0  0
  141.2628   72.0367  227.3451 H   0  0  0  0  0  0  0  0  0  0  0  0
  140.9966   70.2282  228.8267 H   0  0  0  0  0  0  0  0  0  0  0  0
  139.4843   66.4375  227.3769 H   0  0  0  0  0  0  0  0  0  0  0  0
  139.3009   67.3713  225.0791 H   0  0  0  0  0  0  0  0  0  0  0  0
  142.6245   74.3079  221.4156 H   0  0  0  0  0  0  0  0  0  0  0  0
  141.6440   77.3610  219.9540 H   0  0  0  0  0  0  0  0  0  0  0  0
  139.6997   78.6791  220.4603 H   0  0  0  0  0  0  0  0  0  0  0  0
  139.4018   77.6143  221.9293 H   0  0  0  0  0  0  0  0  0  0  0  0
  142.7545   78.4887  221.5118 H   0  0  0  0  0  0  0  0  0  0  0  0
  143.9462   80.1055  222.9480 H   0  0  0  0  0  0  0  0  0  0  0  0
  140.2084   81.5723  224.4864 H   0  0  0  0  0  0  0  0  0  0  0  0
  139.0367   79.9563  223.0452 H   0  0  0  0  0  0  0  0  0  0  0  0
  143.4444   76.4451  220.3070 H   0  0  0  0  0  0  0  0  0  0  0  0
  143.9012   74.8488  219.5309 H   0  0  0  0  0  0  0  0  0  0  0  0
  1  2  1  0
  2  3  1  0
  3  4  1  0
  4  5  1  0
  5  6  1  0
  6  7  1  0
  7  8  2  0
  7  9  1  0
  9 10  1  0
 10 11  1  0
 11 12  2  0
 11 13  1  0
 13 14  2  0
 14 15  1  0
 15 16  2  0
 16 17  1  0
 17 18  2  0
 18 19  1  0
 18 20  1  0
 20 21  2  0
 21 22  1  0
 22 23  2  0
  6 24  1  0
 24 25  1  0
 25 26  2  0
 25 27  1  0
 27 28  1  0
 28 29  1  0
 29 30  2  0
 30 31  1  0
 31 32  2  0
 32 33  1  0
 32 34  1  0
 34 35  2  0
 24 36  1  0
 36  3  1  0
 23 13  1  0
 35 29  1  0
 22 16  1  0
  1 37  1  0
  1 38  1  0
  1 39  1  0
  3 40  1  1
  4 41  1  0
  4 42  1  0
  5 43  1  0
  5 44  1  0
  9 45  1  0
  9 46  1  0
 10 47  1  0
 14 48  1  0
 15 49  1  0
 17 50  1  0
 20 51  1  0
 21 52  1  0
 24 53  1  1
 27 54  1  0
 28 55  1  0
 28 56  1  0
 30 57  1  0
 31 58  1  0
 34 59  1  0
 35 60  1  0
 36 61  1  0
 36 62  1  0
M  END
>  <smiles>  (38) 
CO[C@H]1CCN(C(=O)CNC(=O)c2ccc3cc(F)ccc3n2)[C@H](C(=O)NCc2ccc(F)cc2)C1

>  <score_type>  (38) 
oracle

>  <origin>  (38) 
autodockgpu

>  <m_score__min__energy>  (38) 
-9.6500000000000004

>  <m_primary>  (38) 
energy

>  <rmsd>  (38) 
3.3288062287346807

>  <m_score__min__rmsd>  (38) 
3.3288062287346807

>  <meeko>  (38) 
{"free_energy": -8.75, "intermolecular_energy": -11.14, "internal_energy": -1.87, "cluster_size": 17, "cluster_id": 1, "rank_in_cluster": 10}

>  <energy>  (38) 
-7.8

>  <cluster_rmsd>  (38) 
0.0

>  <cluster>  (38) 
9

$$$$

     RDKit          3D

 62 65  0  0  0  0  0  0  0  0999 V2000
  141.8920   79.5610  223.8400 C   0  0  0  0  0  0  0  0  0  0  0  0
  141.9610   79.7290  222.4780 O   0  0  0  0  0  0  0  0  0  0  0  0
  141.1700   78.7570  221.8680 C   0  0  1  0  0  0  0  0  0  0  0  0
  141.8360   78.2290  220.6130 C   0  0  0  0  0  0  0  0  0  0  0  0
  140.8060   77.2530  220.0190 C   0  0  0  0  0  0  0  0  0  0  0  0
  140.8630   76.1070  220.9890 N   0  0  0  0  0  0  0  0  0  0  0  0
  141.3790   74.9350  220.4580 C   0  0  0  0  0  0  0  0  0  0  0  0
  142.5080   75.1410  219.7920 O   0  0  0  0  0  0  0  0  0  0  0  0
  140.9720   73.5520  220.4620 C   0  0  0  0  0  0  0  0  0  0  0  0
  141.0510   72.7750  221.6630 N   0  0  0  0  0  0  0  0  0  0  0  0
  139.8030   72.3870  222.2680 C   0  0  0  0  0  0  0  0  0  0  0  0
  138.7680   72.7820  221.6690 O   0  0  0  0  0  0  0  0  0  0  0  0
  139.7460   71.5950  223.4870 C   0  0  0  0  0  0  0  0  0  0  0  0
  138.9210   70.4950  223.4940 C   0  0  0  0  0  0  0  0  0  0  0  0
  138.7740   69.6590  224.5880 C   0  0  0  0  0  0  0  0  0  0  0  0
  139.5260   70.0000  225.7100 C   0  0  0  0  0  0  0  0  0  0  0  0
  139.3870   69.1710  226.8100 C   0  0  0  0  0  0  0  0  0  0  0  0
  140.1250   69.4930  227.9350 C   0  0  0  0  0  0  0  0  0  0  0  0
  139.9830   68.6770  229.0050 F   0  0  0  0  0  0  0  0  0  0  0  0
  140.9710   70.6030  227.9610 C   0  0  0  0  0  0  0  0  0  0  0  0
  141.0840   71.4090  226.8440 C   0  0  0  0  0  0  0  0  0  0  0  0
  140.3580   71.1060  225.7120 C   0  0  0  0  0  0  0  0  0  0  0  0
  140.4510   71.8850  224.5960 N   0  0  0  0  0  0  0  0  0  0  0  0
  140.3260   76.4120  222.2680 C   0  0  2  0  0  0  0  0  0  0  0  0
  138.8220   76.6330  222.1930 C   0  0  0  0  0  0  0  0  0  0  0  0
  138.3420   77.7540  221.8980 O   0  0  0  0  0  0  0  0  0  0  0  0
  137.9420   75.5670  222.4580 N   0  0  0  0  0  0  0  0  0  0  0  0
  136.5070   75.6400  222.4200 C   0  0  0  0  0  0  0  0  0  0  0  0
  135.8220   74.9590  223.5240 C   0  0  0  0  0  0  0  0  0  0  0  0
  135.7280   73.5710  223.4580 C   0  0  0  0  0  0  0  0  0  0  0  0
  135.0950   72.8830  224.4690 C   0  0  0  0  0  0  0  0  0  0  0  0
  134.5470   73.5430  225.5570 C   0  0  0  0  0  0  0  0  0  0  0  0
  133.9190   72.8520  226.5560 F   0  0  0  0  0  0  0  0  0  0  0  0
  134.6310   74.9150  225.6350 C   0  0  0  0  0  0  0  0  0  0  0  0
  135.2670   75.5850  224.6170 C   0  0  0  0  0  0  0  0  0  0  0  0
  141.0250   77.6240  222.8350 C   0  0  0  0  0  0  0  0  0  0  0  0
  142.2641   80.4671  224.3405 H   0  0  0  0  0  0  0  0  0  0  0  0
  140.8475   79.3819  224.1349 H   0  0  0  0  0  0  0  0  0  0  0  0
  142.5091   78.6995  224.1349 H   0  0  0  0  0  0  0  0  0  0  0  0
  140.1977   79.1929  221.5947 H   0  0  0  0  0  0  0  0  0  0  0  0
  142.0475   79.0481  219.9099 H   0  0  0  0  0  0  0  0  0  0  0  0
  142.8021   77.7458  220.8210 H   0  0  0  0  0  0  0  0  0  0  0  0
  139.8020   77.7013  219.9891 H   0  0  0  0  0  0  0  0  0  0  0  0
  141.0184   76.9639  218.9792 H   0  0  0  0  0  0  0  0  0  0  0  0
  139.9197   73.5321  220.1422 H   0  0  0  0  0  0  0  0  0  0  0  0
  141.7154   73.0731  219.8078 H   0  0  0  0  0  0  0  0  0  0  0  0
  141.9450   72.4720  222.1230 H   0  0  0  0  0  0  0  0  0  0  0  0
  138.3480   70.2673  222.5831 H   0  0  0  0  0  0  0  0  0  0  0  0
  138.1078   68.7838  224.5722 H   0  0  0  0  0  0  0  0  0  0  0  0
  138.7203   68.2963  226.7904 H   0  0  0  0  0  0  0  0  0  0  0  0
  141.5467   70.8358  228.8689 H   0  0  0  0  0  0  0  0  0  0  0  0
  141.7483   72.2857  226.8581 H   0  0  0  0  0  0  0  0  0  0  0  0
  140.4976   75.5565  222.9379 H   0  0  0  0  0  0  0  0  0  0  0  0
  138.4040   74.6380  222.7040 H   0  0  0  0  0  0  0  0  0  0  0  0
  136.2186   76.7013  222.4424 H   0  0  0  0  0  0  0  0  0  0  0  0
  136.1972   75.1224  221.5001 H   0  0  0  0  0  0  0  0  0  0  0  0
  136.1569   73.0275  222.6032 H   0  0  0  0  0  0  0  0  0  0  0  0
  135.0229   71.7869  224.4116 H   0  0  0  0  0  0  0  0  0  0  0  0
  134.2011   75.4600  226.4883 H   0  0  0  0  0  0  0  0  0  0  0  0
  135.3361   76.6811  224.6793 H   0  0  0  0  0  0  0  0  0  0  0  0
  140.4483   77.9812  223.7009 H   0  0  0  0  0  0  0  0  0  0  0  0
  142.0430   77.3051  223.1032 H   0  0  0  0  0  0  0  0  0  0  0  0
  1  2  1  0
  2  3  1  0
  3  4  1  0
  4  5  1  0
  5  6  1  0
  6  7  1  0
  7  8  2  0
  7  9  1  0
  9 10  1  0
 10 11  1  0
 11 12  2  0
 11 13  1  0
 13 14  2  0
 14 15  1  0
 15 16  2  0
 16 17  1  0
 17 18  2  0
 18 19  1  0
 18 20  1  0
 20 21  2  0
 21 22  1  0
 22 23  2  0
  6 24  1  0
 24 25  1  0
 25 26  2  0
 25 27  1  0
 27 28  1  0
 28 29  1  0
 29 30  2  0
 30 31  1  0
 31 32  2  0
 32 33  1  0
 32 34  1  0
 34 35  2  0
 24 36  1  0
 36  3  1  0
 23 13  1  0
 35 29  1  0
 22 16  1  0
  1 37  1  0
  1 38  1  0
  1 39  1  0
  3 40  1  6
  4 41  1  0
  4 42  1  0
  5 43  1  0
  5 44  1  0
  9 45  1  0
  9 46  1  0
 10 47  1  0
 14 48  1  0
 15 49  1  0
 17 50  1  0
 20 51  1  0
 21 52  1  0
 24 53  1  1
 27 54  1  0
 28 55  1  0
 28 56  1  0
 30 57  1  0
 31 58  1  0
 34 59  1  0
 35 60  1  0
 36 61  1  0
 36 62  1  0
M  END
>  <smiles>  (39) 
CO[C@H]1CCN(C(=O)CNC(=O)c2ccc3cc(F)ccc3n2)[C@H](C(=O)NCc2ccc(F)cc2)C1

>  <score_type>  (39) 
oracle

>  <origin>  (39) 
autodockgpu

>  <m_score__min__energy>  (39) 
-9.6500000000000004

>  <m_primary>  (39) 
energy

>  <rmsd>  (39) 
5.138856351999221

>  <m_score__min__rmsd>  (39) 
5.138856351999221

>  <meeko>  (39) 
{"free_energy": -8.18, "intermolecular_energy": -10.57, "internal_energy": -2.84, "cluster_size": 14, "cluster_id": 2, "rank_in_cluster": 9}

>  <energy>  (39) 
-7.49

>  <cluster_rmsd>  (39) 
1.66

>  <cluster>  (39) 
9

$$$$

     RDKit          3D

 62 65  0  0  0  0  0  0  0  0999 V2000
  143.3130   80.8790  224.2120 C   0  0  0  0  0  0  0  0  0  0  0  0
  142.0840   81.4800  224.0870 O   0  0  0  0  0  0  0  0  0  0  0  0
  141.4100   80.9000  223.0140 C   0  0  1  0  0  0  0  0  0  0  0  0
  140.9980   81.9510  222.0030 C   0  0  0  0  0  0  0  0  0  0  0  0
  140.1960   81.1700  220.9490 C   0  0  0  0  0  0  0  0  0  0  0  0
  141.2700   80.3800  220.2570 N   0  0  0  0  0  0  0  0  0  0  0  0
  141.4900   80.7470  218.9380 C   0  0  0  0  0  0  0  0  0  0  0  0
  141.2480   82.0360  218.7300 O   0  0  0  0  0  0  0  0  0  0  0  0
  141.9160   80.0550  217.7490 C   0  0  0  0  0  0  0  0  0  0  0  0
  142.7850   78.9200  217.8400 N   0  0  0  0  0  0  0  0  0  0  0  0
  142.1910   77.6790  218.2650 C   0  0  0  0  0  0  0  0  0  0  0  0
  140.9580   77.7300  218.5150 O   0  0  0  0  0  0  0  0  0  0  0  0
  142.9650   76.4540  218.3960 C   0  0  0  0  0  0  0  0  0  0  0  0
  143.2010   75.7240  217.2540 C   0  0  0  0  0  0  0  0  0  0  0  0
  143.9210   74.5420  217.2390 C   0  0  0  0  0  0  0  0  0  0  0  0
  144.4060   74.1200  218.4750 C   0  0  0  0  0  0  0  0  0  0  0  0
  145.1280   72.9390  218.4730 C   0  0  0  0  0  0  0  0  0  0  0  0
  145.6190   72.5010  219.6910 C   0  0  0  0  0  0  0  0  0  0  0  0
  146.3240   71.3460  219.6790 F   0  0  0  0  0  0  0  0  0  0  0  0
  145.3980   73.2180  220.8680 C   0  0  0  0  0  0  0  0  0  0  0  0
  144.6720   74.3940  220.8320 C   0  0  0  0  0  0  0  0  0  0  0  0
  144.1740   74.8470  219.6290 C   0  0  0  0  0  0  0  0  0  0  0  0
  143.4550   76.0040  219.5660 N   0  0  0  0  0  0  0  0  0  0  0  0
  141.8370   79.3570  221.0620 C   0  0  2  0  0  0  0  0  0  0  0  0
  140.8240   78.2560  221.3430 C   0  0  0  0  0  0  0  0  0  0  0  0
  139.6110   78.5160  221.5250 O   0  0  0  0  0  0  0  0  0  0  0  0
  141.2450   76.9140  221.4020 N   0  0  0  0  0  0  0  0  0  0  0  0
  140.3960   75.7830  221.6550 C   0  0  0  0  0  0  0  0  0  0  0  0
  140.7970   74.5430  220.9810 C   0  0  0  0  0  0  0  0  0  0  0  0
  140.5510   74.4510  219.6130 C   0  0  0  0  0  0  0  0  0  0  0  0
  140.9080   73.3080  218.9320 C   0  0  0  0  0  0  0  0  0  0  0  0
  141.5110   72.2420  219.5800 C   0  0  0  0  0  0  0  0  0  0  0  0
  141.8620   71.1110  218.8970 F   0  0  0  0  0  0  0  0  0  0  0  0
  141.7600   72.3180  220.9330 C   0  0  0  0  0  0  0  0  0  0  0  0
  141.3960   73.4670  221.5960 C   0  0  0  0  0  0  0  0  0  0  0  0
  142.3590   79.9530  222.3480 C   0  0  0  0  0  0  0  0  0  0  0  0
  143.5563   80.7600  225.2782 H   0  0  0  0  0  0  0  0  0  0  0  0
  143.2889   79.8910  223.7290 H   0  0  0  0  0  0  0  0  0  0  0  0
  144.0780   81.5047  223.7290 H   0  0  0  0  0  0  0  0  0  0  0  0
  140.5064   80.3902  223.3795 H   0  0  0  0  0  0  0  0  0  0  0  0
  140.3725   82.7225  222.4758 H   0  0  0  0  0  0  0  0  0  0  0  0
  141.8606   82.4781  221.5693 H   0  0  0  0  0  0  0  0  0  0  0  0
  139.4550   80.5081  221.4210 H   0  0  0  0  0  0  0  0  0  0  0  0
  139.6131   81.8117  220.2719 H   0  0  0  0  0  0  0  0  0  0  0  0
  141.0032   79.7129  217.2394 H   0  0  0  0  0  0  0  0  0  0  0  0
  142.5393   80.8032  217.2374 H   0  0  0  0  0  0  0  0  0  0  0  0
  143.8120   78.9330  217.6190 H   0  0  0  0  0  0  0  0  0  0  0  0
  142.7961   76.0995  216.3026 H   0  0  0  0  0  0  0  0  0  0  0  0
  144.0983   73.9742  216.3137 H   0  0  0  0  0  0  0  0  0  0  0  0
  145.3037   72.3741  217.5456 H   0  0  0  0  0  0  0  0  0  0  0  0
  145.8007   72.8481  221.8224 H   0  0  0  0  0  0  0  0  0  0  0  0
  144.4932   74.9636  221.7559 H   0  0  0  0  0  0  0  0  0  0  0  0
  142.6752   78.9004  220.5153 H   0  0  0  0  0  0  0  0  0  0  0  0
  142.2870   76.7500  221.2410 H   0  0  0  0  0  0  0  0  0  0  0  0
  140.3910   75.5959  222.7390 H   0  0  0  0  0  0  0  0  0  0  0  0
  139.4066   76.0454  221.2523 H   0  0  0  0  0  0  0  0  0  0  0  0
  140.0743   75.2865  219.0794 H   0  0  0  0  0  0  0  0  0  0  0  0
  140.7104   73.2402  217.8520 H   0  0  0  0  0  0  0  0  0  0  0  0
  142.2365   71.4833  221.4680 H   0  0  0  0  0  0  0  0  0  0  0  0
  141.5943   73.5293  222.6762 H   0  0  0  0  0  0  0  0  0  0  0  0
  142.5739   79.1313  223.0470 H   0  0  0  0  0  0  0  0  0  0  0  0
  143.2552   80.5348  222.0864 H   0  0  0  0  0  0  0  0  0  0  0  0
  1  2  1  0
  2  3  1  0
  3  4  1  0
  4  5  1  0
  5  6  1  0
  6  7  1  0
  7  8  2  0
  7  9  1  0
  9 10  1  0
 10 11  1  0
 11 12  2  0
 11 13  1  0
 13 14  2  0
 14 15  1  0
 15 16  2  0
 16 17  1  0
 17 18  2  0
 18 19  1  0
 18 20  1  0
 20 21  2  0
 21 22  1  0
 22 23  2  0
  6 24  1  0
 24 25  1  0
 25 26  2  0
 25 27  1  0
 27 28  1  0
 28 29  1  0
 29 30  2  0
 30 31  1  0
 31 32  2  0
 32 33  1  0
 32 34  1  0
 34 35  2  0
 24 36  1  0
 36  3  1  0
 23 13  1  0
 35 29  1  0
 22 16  1  0
  1 37  1  0
  1 38  1  0
  1 39  1  0
  3 40  1  1
  4 41  1  0
  4 42  1  0
  5 43  1  0
  5 44  1  0
  9 45  1  0
  9 46  1  0
 10 47  1  0
 14 48  1  0
 15 49  1  0
 17 50  1  0
 20 51  1  0
 21 52  1  0
 24 53  1  6
 27 54  1  0
 28 55  1  0
 28 56  1  0
 30 57  1  0
 31 58  1  0
 34 59  1  0
 35 60  1  0
 36 61  1  0
 36 62  1  0
M  END
>  <smiles>  (40) 
CO[C@H]1CCN(C(=O)CNC(=O)c2ccc3cc(F)ccc3n2)[C@H](C(=O)NCc2ccc(F)cc2)C1

>  <score_type>  (40) 
oracle

>  <origin>  (40) 
autodockgpu

>  <m_score__min__energy>  (40) 
-9.6500000000000004

>  <m_primary>  (40) 
energy

>  <rmsd>  (40) 
8.09839562708426

>  <m_score__min__rmsd>  (40) 
8.09839562708426

>  <meeko>  (40) 
{"free_energy": -6.78, "intermolecular_energy": -9.17, "internal_energy": -4.15, "cluster_size": 1, "cluster_id": 11, "rank_in_cluster": 1}

>  <energy>  (40) 
-7.38

>  <cluster_rmsd>  (40) 
1.55

>  <cluster>  (40) 
9

$$$$

     RDKit          3D

 62 65  0  0  0  0  0  0  0  0999 V2000
  142.5320   78.2090  216.0880 C   0  0  0  0  0  0  0  0  0  0  0  0
  142.8930   77.0360  216.7050 O   0  0  0  0  0  0  0  0  0  0  0  0
  141.9380   76.7270  217.6720 C   0  0  1  0  0  0  0  0  0  0  0  0
  141.0300   75.6110  217.1970 C   0  0  0  0  0  0  0  0  0  0  0  0
  139.9920   75.4610  218.3210 C   0  0  0  0  0  0  0  0  0  0  0  0
  140.8060   74.8440  219.4230 N   0  0  0  0  0  0  0  0  0  0  0  0
  140.4450   73.5450  219.7410 C   0  0  0  0  0  0  0  0  0  0  0  0
  139.1300   73.4040  219.8550 O   0  0  0  0  0  0  0  0  0  0  0  0
  141.1650   72.3190  219.9780 C   0  0  0  0  0  0  0  0  0  0  0  0
  140.8740   71.5170  221.1290 N   0  0  0  0  0  0  0  0  0  0  0  0
  140.6870   72.2120  222.3760 C   0  0  0  0  0  0  0  0  0  0  0  0
  140.8040   73.4650  222.3170 O   0  0  0  0  0  0  0  0  0  0  0  0
  140.3840   71.5140  223.6160 C   0  0  0  0  0  0  0  0  0  0  0  0
  139.5660   70.4110  223.5420 C   0  0  0  0  0  0  0  0  0  0  0  0
  139.2000   69.6580  224.6450 C   0  0  0  0  0  0  0  0  0  0  0  0
  139.7180   70.0880  225.8640 C   0  0  0  0  0  0  0  0  0  0  0  0
  139.3600   69.3430  226.9740 C   0  0  0  0  0  0  0  0  0  0  0  0
  139.8640   69.7540  228.1950 C   0  0  0  0  0  0  0  0  0  0  0  0
  139.5070   69.0190  229.2750 F   0  0  0  0  0  0  0  0  0  0  0  0
  140.6960   70.8690  228.3040 C   0  0  0  0  0  0  0  0  0  0  0  0
  141.0330   71.5900  227.1740 C   0  0  0  0  0  0  0  0  0  0  0  0
  140.5420   71.1970  225.9480 C   0  0  0  0  0  0  0  0  0  0  0  0
  140.8600   71.8910  224.8170 N   0  0  0  0  0  0  0  0  0  0  0  0
  141.7720   75.7230  219.9820 C   0  0  2  0  0  0  0  0  0  0  0  0
  141.1030   76.8610  220.7400 C   0  0  0  0  0  0  0  0  0  0  0  0
  141.2300   78.0530  220.3720 O   0  0  0  0  0  0  0  0  0  0  0  0
  140.3250   76.5830  221.8800 N   0  0  0  0  0  0  0  0  0  0  0  0
  139.6410   77.5600  222.6820 C   0  0  0  0  0  0  0  0  0  0  0  0
  140.4550   78.7140  223.0820 C   0  0  0  0  0  0  0  0  0  0  0  0
  139.8300   79.9590  223.1040 C   0  0  0  0  0  0  0  0  0  0  0  0
  140.5490   81.0740  223.4720 C   0  0  0  0  0  0  0  0  0  0  0  0
  141.8860   80.9870  223.8240 C   0  0  0  0  0  0  0  0  0  0  0  0
  142.5930   82.0990  224.1870 F   0  0  0  0  0  0  0  0  0  0  0  0
  142.5170   79.7620  223.8060 C   0  0  0  0  0  0  0  0  0  0  0  0
  141.7840   78.6600  223.4360 C   0  0  0  0  0  0  0  0  0  0  0  0
  142.6690   76.2530  218.8890 C   0  0  0  0  0  0  0  0  0  0  0  0
  142.2986   78.9673  216.8499 H   0  0  0  0  0  0  0  0  0  0  0  0
  143.3626   78.5637  215.4600 H   0  0  0  0  0  0  0  0  0  0  0  0
  141.6457   78.0353  215.4600 H   0  0  0  0  0  0  0  0  0  0  0  0
  141.3241   77.6159  217.8796 H   0  0  0  0  0  0  0  0  0  0  0  0
  140.5417   75.8826  216.2495 H   0  0  0  0  0  0  0  0  0  0  0  0
  141.5780   74.6770  217.0038 H   0  0  0  0  0  0  0  0  0  0  0  0
  139.5870   76.4381  218.6231 H   0  0  0  0  0  0  0  0  0  0  0  0
  139.1129   74.8653  218.0342 H   0  0  0  0  0  0  0  0  0  0  0  0
  140.9983   71.6802  219.0981 H   0  0  0  0  0  0  0  0  0  0  0  0
  142.1904   72.6671  220.1712 H   0  0  0  0  0  0  0  0  0  0  0  0
  140.7880   70.4700  221.1220 H   0  0  0  0  0  0  0  0  0  0  0  0
  139.1825   70.1114  222.5555 H   0  0  0  0  0  0  0  0  0  0  0  0
  138.5439   68.7789  224.5637 H   0  0  0  0  0  0  0  0  0  0  0  0
  138.7044   68.4638  226.8892 H   0  0  0  0  0  0  0  0  0  0  0  0
  141.0830   71.1736  229.2876 H   0  0  0  0  0  0  0  0  0  0  0  0
  141.6878   72.4703  227.2528 H   0  0  0  0  0  0  0  0  0  0  0  0
  142.3847   75.1635  220.7042 H   0  0  0  0  0  0  0  0  0  0  0  0
  140.2530   75.5540  222.1490 H   0  0  0  0  0  0  0  0  0  0  0  0
  138.7808   77.9323  222.1063 H   0  0  0  0  0  0  0  0  0  0  0  0
  139.3551   77.0481  223.6127 H   0  0  0  0  0  0  0  0  0  0  0  0
  138.7688   80.0505  222.8291 H   0  0  0  0  0  0  0  0  0  0  0  0
  140.0512   82.0548  223.4868 H   0  0  0  0  0  0  0  0  0  0  0  0
  143.5782   79.6688  224.0802 H   0  0  0  0  0  0  0  0  0  0  0  0
  142.2867   77.6817  223.4220 H   0  0  0  0  0  0  0  0  0  0  0  0
  143.2463   77.0966  219.2952 H   0  0  0  0  0  0  0  0  0  0  0  0
  143.3064   75.4155  218.5690 H   0  0  0  0  0  0  0  0  0  0  0  0
  1  2  1  0
  2  3  1  0
  3  4  1  0
  4  5  1  0
  5  6  1  0
  6  7  1  0
  7  8  2  0
  7  9  1  0
  9 10  1  0
 10 11  1  0
 11 12  2  0
 11 13  1  0
 13 14  2  0
 14 15  1  0
 15 16  2  0
 16 17  1  0
 17 18  2  0
 18 19  1  0
 18 20  1  0
 20 21  2  0
 21 22  1  0
 22 23  2  0
  6 24  1  0
 24 25  1  0
 25 26  2  0
 25 27  1  0
 27 28  1  0
 28 29  1  0
 29 30  2  0
 30 31  1  0
 31 32  2  0
 32 33  1  0
 32 34  1  0
 34 35  2  0
 24 36  1  0
 36  3  1  0
 23 13  1  0
 35 29  1  0
 22 16  1  0
  1 37  1  0
  1 38  1  0
  1 39  1  0
  3 40  1  1
  4 41  1  0
  4 42  1  0
  5 43  1  0
  5 44  1  0
  9 45  1  0
  9 46  1  0
 10 47  1  0
 14 48  1  0
 15 49  1  0
 17 50  1  0
 20 51  1  0
 21 52  1  0
 24 53  1  1
 27 54  1  0
 28 55  1  0
 28 56  1  0
 30 57  1  0
 31 58  1  0
 34 59  1  0
 35 60  1  0
 36 61  1  0
 36 62  1  0
M  END
>  <smiles>  (41) 
CO[C@H]1CCN(C(=O)CNC(=O)c2ccc3cc(F)ccc3n2)[C@H](C(=O)NCc2ccc(F)cc2)C1

>  <score_type>  (41) 
oracle

>  <origin>  (41) 
autodockgpu

>  <m_score__min__energy>  (41) 
-9.6500000000000004

>  <m_primary>  (41) 
energy

>  <rmsd>  (41) 
2.5849787514942375

>  <m_score__min__rmsd>  (41) 
2.5849787514942375

>  <meeko>  (41) 
{"free_energy": -7.92, "intermolecular_energy": -10.31, "internal_energy": -2.26, "cluster_size": 17, "cluster_id": 1, "rank_in_cluster": 17}

>  <energy>  (41) 
-7.25

>  <cluster_rmsd>  (41) 
0.0

>  <cluster>  (41) 
10

$$$$

     RDKit          3D

 62 65  0  0  0  0  0  0  0  0999 V2000
  144.2890   73.3460  220.5050 C   0  0  0  0  0  0  0  0  0  0  0  0
  143.2090   72.5080  220.6370 O   0  0  0  0  0  0  0  0  0  0  0  0
  142.0530   73.2140  220.3100 C   0  0  1  0  0  0  0  0  0  0  0  0
  141.0650   72.3260  219.5810 C   0  0  0  0  0  0  0  0  0  0  0  0
  139.9060   73.2680  219.2140 C   0  0  0  0  0  0  0  0  0  0  0  0
  139.2710   73.5240  220.5510 N   0  0  0  0  0  0  0  0  0  0  0  0
  137.9970   72.9960  220.6890 C   0  0  0  0  0  0  0  0  0  0  0  0
  137.3790   72.8660  219.5210 O   0  0  0  0  0  0  0  0  0  0  0  0
  137.1930   72.5600  221.8030 C   0  0  0  0  0  0  0  0  0  0  0  0
  137.8110   72.0540  222.9910 N   0  0  0  0  0  0  0  0  0  0  0  0
  138.1470   70.6530  223.0030 C   0  0  0  0  0  0  0  0  0  0  0  0
  137.8520   70.0200  221.9550 O   0  0  0  0  0  0  0  0  0  0  0  0
  138.7800   70.0170  224.1480 C   0  0  0  0  0  0  0  0  0  0  0  0
  138.8250   68.6420  224.1700 C   0  0  0  0  0  0  0  0  0  0  0  0
  139.3970   67.9140  225.1980 C   0  0  0  0  0  0  0  0  0  0  0  0
  139.9400   68.6670  226.2370 C   0  0  0  0  0  0  0  0  0  0  0  0
  140.5150   67.9500  227.2720 C   0  0  0  0  0  0  0  0  0  0  0  0
  141.0600   68.6790  228.3140 C   0  0  0  0  0  0  0  0  0  0  0  0
  141.6200   67.9690  229.3210 F   0  0  0  0  0  0  0  0  0  0  0  0
  141.0310   70.0740  228.3230 C   0  0  0  0  0  0  0  0  0  0  0  0
  140.4470   70.7570  227.2730 C   0  0  0  0  0  0  0  0  0  0  0  0
  139.8990   70.0500  226.2240 C   0  0  0  0  0  0  0  0  0  0  0  0
  139.3170   70.7010  225.1760 N   0  0  0  0  0  0  0  0  0  0  0  0
  140.0690   74.3100  221.4230 C   0  0  2  0  0  0  0  0  0  0  0  0
  140.2050   75.7360  220.9070 C   0  0  0  0  0  0  0  0  0  0  0  0
  139.2510   76.3160  220.3350 O   0  0  0  0  0  0  0  0  0  0  0  0
  141.4200   76.4280  221.0680 N   0  0  0  0  0  0  0  0  0  0  0  0
  141.6790   77.7720  220.6310 C   0  0  0  0  0  0  0  0  0  0  0  0
  141.7960   78.7620  221.7080 C   0  0  0  0  0  0  0  0  0  0  0  0
  142.0850   80.0740  221.3410 C   0  0  0  0  0  0  0  0  0  0  0  0
  142.2050   81.0430  222.3130 C   0  0  0  0  0  0  0  0  0  0  0  0
  142.0440   80.7400  223.6550 C   0  0  0  0  0  0  0  0  0  0  0  0
  142.1660   81.7080  224.6140 F   0  0  0  0  0  0  0  0  0  0  0  0
  141.7590   79.4470  224.0340 C   0  0  0  0  0  0  0  0  0  0  0  0
  141.6420   78.4940  223.0490 C   0  0  0  0  0  0  0  0  0  0  0  0
  141.4240   73.6650  221.5920 C   0  0  0  0  0  0  0  0  0  0  0  0
  144.6561   73.6308  221.5021 H   0  0  0  0  0  0  0  0  0  0  0  0
  145.0886   72.8296  219.9536 H   0  0  0  0  0  0  0  0  0  0  0  0
  143.9874   74.2488  219.9536 H   0  0  0  0  0  0  0  0  0  0  0  0
  142.3124   74.0609  219.6577 H   0  0  0  0  0  0  0  0  0  0  0  0
  141.5203   71.8975  218.6760 H   0  0  0  0  0  0  0  0  0  0  0  0
  140.7357   71.4731  220.1927 H   0  0  0  0  0  0  0  0  0  0  0  0
  140.2770   74.2004  218.7634 H   0  0  0  0  0  0  0  0  0  0  0  0
  139.2140   72.8480  218.4692 H   0  0  0  0  0  0  0  0  0  0  0  0
  136.5829   73.4229  222.1082 H   0  0  0  0  0  0  0  0  0  0  0  0
  136.6707   71.6791  221.4014 H   0  0  0  0  0  0  0  0  0  0  0  0
  138.0340   72.6280  223.8420 H   0  0  0  0  0  0  0  0  0  0  0  0
  138.3829   68.0926  223.3258 H   0  0  0  0  0  0  0  0  0  0  0  0
  139.4215   66.8143  225.1953 H   0  0  0  0  0  0  0  0  0  0  0  0
  140.5376   66.8502  227.2663 H   0  0  0  0  0  0  0  0  0  0  0  0
  141.4721   70.6290  229.1641 H   0  0  0  0  0  0  0  0  0  0  0  0
  140.4196   71.8567  227.2743 H   0  0  0  0  0  0  0  0  0  0  0  0
  139.5741   74.3616  222.4040 H   0  0  0  0  0  0  0  0  0  0  0  0
  142.1960   75.8870  221.5600 H   0  0  0  0  0  0  0  0  0  0  0  0
  142.6218   77.7710  220.0643 H   0  0  0  0  0  0  0  0  0  0  0  0
  140.8086   78.0731  220.0295 H   0  0  0  0  0  0  0  0  0  0  0  0
  142.2168   80.3352  220.2806 H   0  0  0  0  0  0  0  0  0  0  0  0
  142.4332   82.0777  222.0175 H   0  0  0  0  0  0  0  0  0  0  0  0
  141.6287   79.1839  225.0941 H   0  0  0  0  0  0  0  0  0  0  0  0
  141.4128   77.4610  223.3497 H   0  0  0  0  0  0  0  0  0  0  0  0
  142.0961   74.3939  222.0684 H   0  0  0  0  0  0  0  0  0  0  0  0
  141.2711   72.7635  222.2035 H   0  0  0  0  0  0  0  0  0  0  0  0
  1  2  1  0
  2  3  1  0
  3  4  1  0
  4  5  1  0
  5  6  1  0
  6  7  1  0
  7  8  2  0
  7  9  1  0
  9 10  1  0
 10 11  1  0
 11 12  2  0
 11 13  1  0
 13 14  2  0
 14 15  1  0
 15 16  2  0
 16 17  1  0
 17 18  2  0
 18 19  1  0
 18 20  1  0
 20 21  2  0
 21 22  1  0
 22 23  2  0
  6 24  1  0
 24 25  1  0
 25 26  2  0
 25 27  1  0
 27 28  1  0
 28 29  1  0
 29 30  2  0
 30 31  1  0
 31 32  2  0
 32 33  1  0
 32 34  1  0
 34 35  2  0
 24 36  1  0
 36  3  1  0
 23 13  1  0
 35 29  1  0
 22 16  1  0
  1 37  1  0
  1 38  1  0
  1 39  1  0
  3 40  1  6
  4 41  1  0
  4 42  1  0
  5 43  1  0
  5 44  1  0
  9 45  1  0
  9 46  1  0
 10 47  1  0
 14 48  1  0
 15 49  1  0
 17 50  1  0
 20 51  1  0
 21 52  1  0
 24 53  1  1
 27 54  1  0
 28 55  1  0
 28 56  1  0
 30 57  1  0
 31 58  1  0
 34 59  1  0
 35 60  1  0
 36 61  1  0
 36 62  1  0
M  END
>  <smiles>  (42) 
CO[C@H]1CCN(C(=O)CNC(=O)c2ccc3cc(F)ccc3n2)[C@H](C(=O)NCc2ccc(F)cc2)C1

>  <score_type>  (42) 
oracle

>  <origin>  (42) 
autodockgpu

>  <m_score__min__energy>  (42) 
-9.6500000000000004

>  <m_primary>  (42) 
energy

>  <rmsd>  (42) 
3.1096521678591813

>  <m_score__min__rmsd>  (42) 
3.1096521678591813

>  <meeko>  (42) 
{"free_energy": -8.52, "intermolecular_energy": -10.91, "internal_energy": -1.91, "cluster_size": 17, "cluster_id": 1, "rank_in_cluster": 11}

>  <energy>  (42) 
-7.11

>  <cluster_rmsd>  (42) 
0.69

>  <cluster>  (42) 
10

$$$$

     RDKit          3D

 62 65  0  0  0  0  0  0  0  0999 V2000
  135.1520   76.6220  223.5240 C   0  0  0  0  0  0  0  0  0  0  0  0
  135.4570   77.5160  222.5260 O   0  0  0  0  0  0  0  0  0  0  0  0
  136.8190   77.4260  222.2480 C   0  0  1  0  0  0  0  0  0  0  0  0
  137.4650   76.3200  223.0590 C   0  0  0  0  0  0  0  0  0  0  0  0
  138.9590   76.4170  222.7110 C   0  0  0  0  0  0  0  0  0  0  0  0
  138.9880   75.9140  221.2960 N   0  0  0  0  0  0  0  0  0  0  0  0
  139.6480   74.7060  221.1310 C   0  0  0  0  0  0  0  0  0  0  0  0
  140.8830   74.8690  220.6720 O   0  0  0  0  0  0  0  0  0  0  0  0
  139.3020   73.3230  221.3410 C   0  0  0  0  0  0  0  0  0  0  0  0
  139.5590   72.6930  222.6010 N   0  0  0  0  0  0  0  0  0  0  0  0
  139.3350   71.2720  222.6750 C   0  0  0  0  0  0  0  0  0  0  0  0
  138.9300   70.7340  221.6100 O   0  0  0  0  0  0  0  0  0  0  0  0
  139.5610   70.5130  223.8960 C   0  0  0  0  0  0  0  0  0  0  0  0
  139.1470   69.2020  223.9170 C   0  0  0  0  0  0  0  0  0  0  0  0
  139.3010   68.3710  225.0140 C   0  0  0  0  0  0  0  0  0  0  0  0
  139.9130   68.9500  226.1230 C   0  0  0  0  0  0  0  0  0  0  0  0
  140.0730   68.1290  227.2260 C   0  0  0  0  0  0  0  0  0  0  0  0
  140.6790   68.6840  228.3390 C   0  0  0  0  0  0  0  0  0  0  0  0
  140.8310   67.8740  229.4130 F   0  0  0  0  0  0  0  0  0  0  0  0
  141.1100   70.0120  228.3510 C   0  0  0  0  0  0  0  0  0  0  0  0
  140.9340   70.8020  227.2310 C   0  0  0  0  0  0  0  0  0  0  0  0
  140.3330   70.2690  226.1110 C   0  0  0  0  0  0  0  0  0  0  0  0
  140.1470   71.0270  224.9930 N   0  0  0  0  0  0  0  0  0  0  0  0
  138.3760   76.7930  220.3630 C   0  0  2  0  0  0  0  0  0  0  0  0
  139.1790   78.0780  220.2140 C   0  0  0  0  0  0  0  0  0  0  0  0
  138.6170   79.1750  219.9810 O   0  0  0  0  0  0  0  0  0  0  0  0
  140.5810   78.0470  220.3370 N   0  0  0  0  0  0  0  0  0  0  0  0
  141.4540   79.1830  220.2200 C   0  0  0  0  0  0  0  0  0  0  0  0
  141.7510   79.8680  221.4830 C   0  0  0  0  0  0  0  0  0  0  0  0
  141.5150   81.2400  221.5360 C   0  0  0  0  0  0  0  0  0  0  0  0
  141.7760   81.9320  222.6980 C   0  0  0  0  0  0  0  0  0  0  0  0
  142.2710   81.2910  223.8220 C   0  0  0  0  0  0  0  0  0  0  0  0
  142.5290   81.9850  224.9710 F   0  0  0  0  0  0  0  0  0  0  0  0
  142.5100   79.9350  223.7850 C   0  0  0  0  0  0  0  0  0  0  0  0
  142.2430   79.2610  222.6160 C   0  0  0  0  0  0  0  0  0  0  0  0
  136.9600   77.0870  220.7970 C   0  0  0  0  0  0  0  0  0  0  0  0
  135.3138   77.0963  224.5032 H   0  0  0  0  0  0  0  0  0  0  0  0
  134.0990   76.3170  223.4339 H   0  0  0  0  0  0  0  0  0  0  0  0
  135.7990   75.7370  223.4339 H   0  0  0  0  0  0  0  0  0  0  0  0
  137.3079   78.3788  222.4991 H   0  0  0  0  0  0  0  0  0  0  0  0
  137.3043   76.4812  224.1352 H   0  0  0  0  0  0  0  0  0  0  0  0
  137.0436   75.3300  222.8303 H   0  0  0  0  0  0  0  0  0  0  0  0
  139.3163   77.4555  222.7726 H   0  0  0  0  0  0  0  0  0  0  0  0
  139.6094   75.8513  223.3943 H   0  0  0  0  0  0  0  0  0  0  0  0
  138.2202   73.2379  221.1609 H   0  0  0  0  0  0  0  0  0  0  0  0
  139.9791   72.7917  220.6560 H   0  0  0  0  0  0  0  0  0  0  0  0
  139.8960   73.1910  223.4620 H   0  0  0  0  0  0  0  0  0  0  0  0
  138.6685   68.7919  223.0154 H   0  0  0  0  0  0  0  0  0  0  0  0
  138.9628   67.3243  225.0098 H   0  0  0  0  0  0  0  0  0  0  0  0
  139.7337   67.0827  227.2179 H   0  0  0  0  0  0  0  0  0  0  0  0
  141.5885   70.4283  229.2498 H   0  0  0  0  0  0  0  0  0  0  0  0
  141.2712   71.8490  227.2333 H   0  0  0  0  0  0  0  0  0  0  0  0
  138.3522   76.3043  219.3778 H   0  0  0  0  0  0  0  0  0  0  0  0
  141.0050   77.0890  220.5330 H   0  0  0  0  0  0  0  0  0  0  0  0
  142.4047   78.8398  219.7859 H   0  0  0  0  0  0  0  0  0  0  0  0
  140.9256   79.9138  219.5901 H   0  0  0  0  0  0  0  0  0  0  0  0
  141.1223   81.7679  220.6545 H   0  0  0  0  0  0  0  0  0  0  0  0
  141.5877   83.0151  222.7342 H   0  0  0  0  0  0  0  0  0  0  0  0
  142.9033   79.4059  224.6656 H   0  0  0  0  0  0  0  0  0  0  0  0
  142.4330   78.1780  222.5850 H   0  0  0  0  0  0  0  0  0  0  0  0
  136.5882   77.9375  220.2067 H   0  0  0  0  0  0  0  0  0  0  0  0
  136.3817   76.1662  220.6307 H   0  0  0  0  0  0  0  0  0  0  0  0
  1  2  1  0
  2  3  1  0
  3  4  1  0
  4  5  1  0
  5  6  1  0
  6  7  1  0
  7  8  2  0
  7  9  1  0
  9 10  1  0
 10 11  1  0
 11 12  2  0
 11 13  1  0
 13 14  2  0
 14 15  1  0
 15 16  2  0
 16 17  1  0
 17 18  2  0
 18 19  1  0
 18 20  1  0
 20 21  2  0
 21 22  1  0
 22 23  2  0
  6 24  1  0
 24 25  1  0
 25 26  2  0
 25 27  1  0
 27 28  1  0
 28 29  1  0
 29 30  2  0
 30 31  1  0
 31 32  2  0
 32 33  1  0
 32 34  1  0
 34 35  2  0
 24 36  1  0
 36  3  1  0
 23 13  1  0
 35 29  1  0
 22 16  1  0
  1 37  1  0
  1 38  1  0
  1 39  1  0
  3 40  1  6
  4 41  1  0
  4 42  1  0
  5 43  1  0
  5 44  1  0
  9 45  1  0
  9 46  1  0
 10 47  1  0
 14 48  1  0
 15 49  1  0
 17 50  1  0
 20 51  1  0
 21 52  1  0
 24 53  1  6
 27 54  1  0
 28 55  1  0
 28 56  1  0
 30 57  1  0
 31 58  1  0
 34 59  1  0
 35 60  1  0
 36 61  1  0
 36 62  1  0
M  END
>  <smiles>  (43) 
CO[C@H]1CCN(C(=O)CNC(=O)c2ccc3cc(F)ccc3n2)[C@H](C(=O)NCc2ccc(F)cc2)C1

>  <score_type>  (43) 
oracle

>  <origin>  (43) 
autodockgpu

>  <m_score__min__energy>  (43) 
-9.6500000000000004

>  <m_primary>  (43) 
energy

>  <rmsd>  (43) 
3.4425359019164388

>  <m_score__min__rmsd>  (43) 
3.4425359019164388

>  <meeko>  (43) 
{"free_energy": -7.8, "intermolecular_energy": -10.19, "internal_energy": -2.48, "cluster_size": 3, "cluster_id": 9, "rank_in_cluster": 1}

>  <energy>  (43) 
-7.1

>  <cluster_rmsd>  (43) 
0.84

>  <cluster>  (43) 
10

$$$$

     RDKit          3D

 62 65  0  0  0  0  0  0  0  0999 V2000
  142.9060   80.8440  223.8960 C   0  0  0  0  0  0  0  0  0  0  0  0
  141.6380   80.9540  223.3810 O   0  0  0  0  0  0  0  0  0  0  0  0
  141.4150   79.8890  222.5110 C   0  0  1  0  0  0  0  0  0  0  0  0
  141.3780   78.5740  223.2640 C   0  0  0  0  0  0  0  0  0  0  0  0
  141.2230   77.5100  222.1650 C   0  0  0  0  0  0  0  0  0  0  0  0
  139.8070   77.7280  221.7110 N   0  0  0  0  0  0  0  0  0  0  0  0
  138.9470   76.6810  222.0020 C   0  0  0  0  0  0  0  0  0  0  0  0
  138.1750   76.9430  223.0500 O   0  0  0  0  0  0  0  0  0  0  0  0
  138.7010   75.3800  221.4330 C   0  0  0  0  0  0  0  0  0  0  0  0
  138.5960   74.2260  222.2760 N   0  0  0  0  0  0  0  0  0  0  0  0
  139.7500   73.3670  222.3480 C   0  0  0  0  0  0  0  0  0  0  0  0
  140.7340   73.7280  221.6510 O   0  0  0  0  0  0  0  0  0  0  0  0
  139.7720   72.1660  223.1700 C   0  0  0  0  0  0  0  0  0  0  0  0
  139.1330   71.0490  222.6830 C   0  0  0  0  0  0  0  0  0  0  0  0
  139.0790   69.8450  223.3640 C   0  0  0  0  0  0  0  0  0  0  0  0
  139.7240   69.8240  224.5990 C   0  0  0  0  0  0  0  0  0  0  0  0
  139.6770   68.6250  225.2880 C   0  0  0  0  0  0  0  0  0  0  0  0
  140.3100   68.5830  226.5170 C   0  0  0  0  0  0  0  0  0  0  0  0
  140.2590   67.4060  227.1840 F   0  0  0  0  0  0  0  0  0  0  0  0
  140.9670   69.6980  227.0400 C   0  0  0  0  0  0  0  0  0  0  0  0
  140.9930   70.8790  226.3230 C   0  0  0  0  0  0  0  0  0  0  0  0
  140.3690   70.9430  225.0960 C   0  0  0  0  0  0  0  0  0  0  0  0
  140.3800   72.0970  224.3690 N   0  0  0  0  0  0  0  0  0  0  0  0
  139.6100   78.9500  221.0160 C   0  0  2  0  0  0  0  0  0  0  0  0
  140.3290   78.9390  219.6740 C   0  0  0  0  0  0  0  0  0  0  0  0
  139.6950   78.8450  218.5950 O   0  0  0  0  0  0  0  0  0  0  0  0
  141.7320   79.0350  219.6290 N   0  0  0  0  0  0  0  0  0  0  0  0
  142.5310   79.0390  218.4340 C   0  0  0  0  0  0  0  0  0  0  0  0
  142.9520   77.7140  217.9660 C   0  0  0  0  0  0  0  0  0  0  0  0
  143.0420   76.6990  218.9160 C   0  0  0  0  0  0  0  0  0  0  0  0
  143.4330   75.4360  218.5290 C   0  0  0  0  0  0  0  0  0  0  0  0
  143.7410   75.1500  217.2090 C   0  0  0  0  0  0  0  0  0  0  0  0
  144.1290   73.8940  216.8340 F   0  0  0  0  0  0  0  0  0  0  0  0
  143.6570   76.1430  216.2580 C   0  0  0  0  0  0  0  0  0  0  0  0
  143.2650   77.3980  216.6630 C   0  0  0  0  0  0  0  0  0  0  0  0
  140.0790   80.1020  221.8710 C   0  0  0  0  0  0  0  0  0  0  0  0
  142.8571   80.8482  224.9949 H   0  0  0  0  0  0  0  0  0  0  0  0
  143.3608   79.9030  223.5528 H   0  0  0  0  0  0  0  0  0  0  0  0
  143.5160   81.6926  223.5528 H   0  0  0  0  0  0  0  0  0  0  0  0
  142.2254   79.8470  221.7684 H   0  0  0  0  0  0  0  0  0  0  0  0
  142.3111   78.4205  223.8259 H   0  0  0  0  0  0  0  0  0  0  0  0
  140.5641   78.5360  224.0030 H   0  0  0  0  0  0  0  0  0  0  0  0
  141.9356   77.6777  221.3439 H   0  0  0  0  0  0  0  0  0  0  0  0
  141.4235   76.4851  222.5106 H   0  0  0  0  0  0  0  0  0  0  0  0
  137.7538   75.4525  220.8784 H   0  0  0  0  0  0  0  0  0  0  0  0
  139.6180   75.1839  220.8579 H   0  0  0  0  0  0  0  0  0  0  0  0
  137.7460   73.9710  222.8380 H   0  0  0  0  0  0  0  0  0  0  0  0
  138.6397   71.1162  221.7021 H   0  0  0  0  0  0  0  0  0  0  0  0
  138.5614   68.9637  222.9573 H   0  0  0  0  0  0  0  0  0  0  0  0
  139.1598   67.7454  224.8771 H   0  0  0  0  0  0  0  0  0  0  0  0
  141.4626   69.6367  228.0201 H   0  0  0  0  0  0  0  0  0  0  0  0
  141.5083   71.7620  226.7289 H   0  0  0  0  0  0  0  0  0  0  0  0
  138.5359   79.0721  220.8125 H   0  0  0  0  0  0  0  0  0  0  0  0
  142.2190   79.1120  220.5740 H   0  0  0  0  0  0  0  0  0  0  0  0
  141.9450   79.5136  217.6332 H   0  0  0  0  0  0  0  0  0  0  0  0
  143.4531   79.5850  218.6823 H   0  0  0  0  0  0  0  0  0  0  0  0
  142.8021   76.9050  219.9696 H   0  0  0  0  0  0  0  0  0  0  0  0
  143.5020   74.6384  219.2834 H   0  0  0  0  0  0  0  0  0  0  0  0
  143.8967   75.9382  215.2041 H   0  0  0  0  0  0  0  0  0  0  0  0
  143.1980   78.1920  215.9047 H   0  0  0  0  0  0  0  0  0  0  0  0
  140.1395   80.9992  221.2374 H   0  0  0  0  0  0  0  0  0  0  0  0
  139.3504   80.2049  222.6887 H   0  0  0  0  0  0  0  0  0  0  0  0
  1  2  1  0
  2  3  1  0
  3  4  1  0
  4  5  1  0
  5  6  1  0
  6  7  1  0
  7  8  2  0
  7  9  1  0
  9 10  1  0
 10 11  1  0
 11 12  2  0
 11 13  1  0
 13 14  2  0
 14 15  1  0
 15 16  2  0
 16 17  1  0
 17 18  2  0
 18 19  1  0
 18 20  1  0
 20 21  2  0
 21 22  1  0
 22 23  2  0
  6 24  1  0
 24 25  1  0
 25 26  2  0
 25 27  1  0
 27 28  1  0
 28 29  1  0
 29 30  2  0
 30 31  1  0
 31 32  2  0
 32 33  1  0
 32 34  1  0
 34 35  2  0
 24 36  1  0
 36  3  1  0
 23 13  1  0
 35 29  1  0
 22 16  1  0
  1 37  1  0
  1 38  1  0
  1 39  1  0
  3 40  1  6
  4 41  1  0
  4 42  1  0
  5 43  1  0
  5 44  1  0
  9 45  1  0
  9 46  1  0
 10 47  1  0
 14 48  1  0
 15 49  1  0
 17 50  1  0
 20 51  1  0
 21 52  1  0
 24 53  1  6
 27 54  1  0
 28 55  1  0
 28 56  1  0
 30 57  1  0
 31 58  1  0
 34 59  1  0
 35 60  1  0
 36 61  1  0
 36 62  1  0
M  END
>  <smiles>  (44) 
CO[C@H]1CCN(C(=O)CNC(=O)c2ccc3cc(F)ccc3n2)[C@H](C(=O)NCc2ccc(F)cc2)C1

>  <score_type>  (44) 
oracle

>  <origin>  (44) 
autodockgpu

>  <m_score__min__energy>  (44) 
-9.6500000000000004

>  <m_primary>  (44) 
energy

>  <rmsd>  (44) 
4.651955296090805

>  <m_score__min__rmsd>  (44) 
4.651955296090805

>  <meeko>  (44) 
{"free_energy": -7.82, "intermolecular_energy": -10.2, "internal_energy": -1.81, "cluster_size": 1, "cluster_id": 8, "rank_in_cluster": 1}

>  <energy>  (44) 
-7.07

>  <cluster_rmsd>  (44) 
0.35

>  <cluster>  (44) 
10

$$$$

     RDKit          3D

 62 65  0  0  0  0  0  0  0  0999 V2000
  142.9570   79.7830  223.0160 C   0  0  0  0  0  0  0  0  0  0  0  0
  141.6950   80.2280  222.7060 O   0  0  0  0  0  0  0  0  0  0  0  0
  141.0120   79.2070  222.0480 C   0  0  1  0  0  0  0  0  0  0  0  0
  141.7450   78.7890  220.7890 C   0  0  0  0  0  0  0  0  0  0  0  0
  140.8240   77.7400  220.1430 C   0  0  0  0  0  0  0  0  0  0  0  0
  140.9750   76.5720  221.0750 N   0  0  0  0  0  0  0  0  0  0  0  0
  141.6100   75.4740  220.5160 C   0  0  0  0  0  0  0  0  0  0  0  0
  142.7560   75.8020  219.9300 O   0  0  0  0  0  0  0  0  0  0  0  0
  141.3140   74.0670  220.4230 C   0  0  0  0  0  0  0  0  0  0  0  0
  141.3270   73.2420  221.5940 N   0  0  0  0  0  0  0  0  0  0  0  0
  140.0500   72.8070  222.0970 C   0  0  0  0  0  0  0  0  0  0  0  0
  139.0490   73.2070  221.4440 O   0  0  0  0  0  0  0  0  0  0  0  0
  139.9270   71.9650  223.2770 C   0  0  0  0  0  0  0  0  0  0  0  0
  139.0300   70.9230  223.2260 C   0  0  0  0  0  0  0  0  0  0  0  0
  138.8160   70.0490  224.2770 C   0  0  0  0  0  0  0  0  0  0  0  0
  139.5770   70.2860  225.4200 C   0  0  0  0  0  0  0  0  0  0  0  0
  139.3720   69.4180  226.4780 C   0  0  0  0  0  0  0  0  0  0  0  0
  140.1180   69.6360  227.6220 C   0  0  0  0  0  0  0  0  0  0  0  0
  139.9110   68.7820  228.6520 F   0  0  0  0  0  0  0  0  0  0  0  0
  141.0370   70.6850  227.7070 C   0  0  0  0  0  0  0  0  0  0  0  0
  141.2150   71.5320  226.6300 C   0  0  0  0  0  0  0  0  0  0  0  0
  140.4820   71.3320  225.4800 C   0  0  0  0  0  0  0  0  0  0  0  0
  140.6390   72.1540  224.4030 N   0  0  0  0  0  0  0  0  0  0  0  0
  140.3910   76.7790  222.3530 C   0  0  2  0  0  0  0  0  0  0  0  0
  138.8740   76.8580  222.2560 C   0  0  0  0  0  0  0  0  0  0  0  0
  138.2950   77.9280  221.9510 O   0  0  0  0  0  0  0  0  0  0  0  0
  138.0940   75.7140  222.5110 N   0  0  0  0  0  0  0  0  0  0  0  0
  136.6590   75.6520  222.4520 C   0  0  0  0  0  0  0  0  0  0  0  0
  136.0490   74.6170  223.2940 C   0  0  0  0  0  0  0  0  0  0  0  0
  135.2920   75.0420  224.3830 C   0  0  0  0  0  0  0  0  0  0  0  0
  134.6970   74.1100  225.2040 C   0  0  0  0  0  0  0  0  0  0  0  0
  134.8340   72.7520  224.9710 C   0  0  0  0  0  0  0  0  0  0  0  0
  134.2410   71.8330  225.7920 F   0  0  0  0  0  0  0  0  0  0  0  0
  135.5800   72.3160  223.8980 C   0  0  0  0  0  0  0  0  0  0  0  0
  136.1670   73.2600  223.0890 C   0  0  0  0  0  0  0  0  0  0  0  0
  140.9600   78.0320  222.9740 C   0  0  0  0  0  0  0  0  0  0  0  0
  143.0731   79.7420  224.1091 H   0  0  0  0  0  0  0  0  0  0  0  0
  143.1056   78.7783  222.5936 H   0  0  0  0  0  0  0  0  0  0  0  0
  143.7029   80.4723  222.5936 H   0  0  0  0  0  0  0  0  0  0  0  0
  140.0073   79.5580  221.7697 H   0  0  0  0  0  0  0  0  0  0  0  0
  141.8875   79.6486  220.1176 H   0  0  0  0  0  0  0  0  0  0  0  0
  142.7496   78.3934  220.9995 H   0  0  0  0  0  0  0  0  0  0  0  0
  139.7820   78.0908  220.1081 H   0  0  0  0  0  0  0  0  0  0  0  0
  141.0807   77.5089  219.0986 H   0  0  0  0  0  0  0  0  0  0  0  0
  140.3057   73.9851  219.9910 H   0  0  0  0  0  0  0  0  0  0  0  0
  142.1573   73.6753  219.8353 H   0  0  0  0  0  0  0  0  0  0  0  0
  142.1940   72.9370  222.1020 H   0  0  0  0  0  0  0  0  0  0  0  0
  138.4527   70.7771  222.3011 H   0  0  0  0  0  0  0  0  0  0  0  0
  138.0933   69.2221  224.2145 H   0  0  0  0  0  0  0  0  0  0  0  0
  138.6485   68.5920  226.4121 H   0  0  0  0  0  0  0  0  0  0  0  0
  141.6174   70.8362  228.6291 H   0  0  0  0  0  0  0  0  0  0  0  0
  141.9366   72.3601  226.6899 H   0  0  0  0  0  0  0  0  0  0  0  0
  140.6341   75.9209  222.9968 H   0  0  0  0  0  0  0  0  0  0  0  0
  138.6380   74.8330  222.7670 H   0  0  0  0  0  0  0  0  0  0  0  0
  136.2618   76.6277  222.7686 H   0  0  0  0  0  0  0  0  0  0  0  0
  136.4044   75.3936  221.4135 H   0  0  0  0  0  0  0  0  0  0  0  0
  135.1700   76.1162  224.5863 H   0  0  0  0  0  0  0  0  0  0  0  0
  134.1005   74.4516  226.0628 H   0  0  0  0  0  0  0  0  0  0  0  0
  135.7026   71.2420  223.6941 H   0  0  0  0  0  0  0  0  0  0  0  0
  136.7629   72.9130  222.2320 H   0  0  0  0  0  0  0  0  0  0  0  0
  140.3366   78.3019  223.8391 H   0  0  0  0  0  0  0  0  0  0  0  0
  141.9992   77.8028  223.2523 H   0  0  0  0  0  0  0  0  0  0  0  0
  1  2  1  0
  2  3  1  0
  3  4  1  0
  4  5  1  0
  5  6  1  0
  6  7  1  0
  7  8  2  0
  7  9  1  0
  9 10  1  0
 10 11  1  0
 11 12  2  0
 11 13  1  0
 13 14  2  0
 14 15  1  0
 15 16  2  0
 16 17  1  0
 17 18  2  0
 18 19  1  0
 18 20  1  0
 20 21  2  0
 21 22  1  0
 22 23  2  0
  6 24  1  0
 24 25  1  0
 25 26  2  0
 25 27  1  0
 27 28  1  0
 28 29  1  0
 29 30  2  0
 30 31  1  0
 31 32  2  0
 32 33  1  0
 32 34  1  0
 34 35  2  0
 24 36  1  0
 36  3  1  0
 23 13  1  0
 35 29  1  0
 22 16  1  0
  1 37  1  0
  1 38  1  0
  1 39  1  0
  3 40  1  6
  4 41  1  0
  4 42  1  0
  5 43  1  0
  5 44  1  0
  9 45  1  0
  9 46  1  0
 10 47  1  0
 14 48  1  0
 15 49  1  0
 17 50  1  0
 20 51  1  0
 21 52  1  0
 24 53  1  1
 27 54  1  0
 28 55  1  0
 28 56  1  0
 30 57  1  0
 31 58  1  0
 34 59  1  0
 35 60  1  0
 36 61  1  0
 36 62  1  0
M  END
>  <smiles>  (45) 
CO[C@H]1CCN(C(=O)CNC(=O)c2ccc3cc(F)ccc3n2)[C@H](C(=O)NCc2ccc(F)cc2)C1

>  <score_type>  (45) 
oracle

>  <origin>  (45) 
autodockgpu

>  <m_score__min__energy>  (45) 
-9.6500000000000004

>  <m_primary>  (45) 
energy

>  <rmsd>  (45) 
5.274023177803409

>  <m_score__min__rmsd>  (45) 
5.274023177803409

>  <meeko>  (45) 
{"free_energy": -7.76, "intermolecular_energy": -10.15, "internal_energy": -3.1, "cluster_size": 14, "cluster_id": 2, "rank_in_cluster": 13}

>  <energy>  (45) 
-7.07

>  <cluster_rmsd>  (45) 
1.47

>  <cluster>  (45) 
10

$$$$

     RDKit          3D

 62 65  0  0  0  0  0  0  0  0999 V2000
  142.5680   79.5790  222.8890 C   0  0  0  0  0  0  0  0  0  0  0  0
  142.1070   79.7860  221.6110 O   0  0  0  0  0  0  0  0  0  0  0  0
  141.3550   78.6790  221.2230 C   0  0  1  0  0  0  0  0  0  0  0  0
  142.0860   77.8730  220.1670 C   0  0  0  0  0  0  0  0  0  0  0  0
  141.0950   76.7600  219.7860 C   0  0  0  0  0  0  0  0  0  0  0  0
  141.1150   75.8870  221.0090 N   0  0  0  0  0  0  0  0  0  0  0  0
  141.6670   74.6320  220.8060 C   0  0  0  0  0  0  0  0  0  0  0  0
  142.9940   74.6550  220.8560 O   0  0  0  0  0  0  0  0  0  0  0  0
  141.1360   73.3170  220.5520 C   0  0  0  0  0  0  0  0  0  0  0  0
  141.1620   72.3140  221.5740 N   0  0  0  0  0  0  0  0  0  0  0  0
  140.3370   72.5440  222.7320 C   0  0  0  0  0  0  0  0  0  0  0  0
  139.6790   73.6180  222.7200 O   0  0  0  0  0  0  0  0  0  0  0  0
  140.2720   71.6010  223.8380 C   0  0  0  0  0  0  0  0  0  0  0  0
  139.7080   70.3700  223.5940 C   0  0  0  0  0  0  0  0  0  0  0  0
  139.5840   69.3840  224.5570 C   0  0  0  0  0  0  0  0  0  0  0  0
  140.0750   69.7120  225.8190 C   0  0  0  0  0  0  0  0  0  0  0  0
  139.9570   68.7330  226.7910 C   0  0  0  0  0  0  0  0  0  0  0  0
  140.4380   69.0390  228.0510 C   0  0  0  0  0  0  0  0  0  0  0  0
  140.3180   68.0760  228.9940 F   0  0  0  0  0  0  0  0  0  0  0  0
  141.0160   70.2780  228.3320 C   0  0  0  0  0  0  0  0  0  0  0  0
  141.1160   71.2320  227.3370 C   0  0  0  0  0  0  0  0  0  0  0  0
  140.6440   70.9480  226.0740 C   0  0  0  0  0  0  0  0  0  0  0  0
  140.7310   71.8710  225.0740 N   0  0  0  0  0  0  0  0  0  0  0  0
  140.5150   76.4850  222.1490 C   0  0  2  0  0  0  0  0  0  0  0  0
  139.0140   76.6500  221.9540 C   0  0  0  0  0  0  0  0  0  0  0  0
  138.5380   77.6520  221.3680 O   0  0  0  0  0  0  0  0  0  0  0  0
  138.1310   75.6660  222.4370 N   0  0  0  0  0  0  0  0  0  0  0  0
  136.6990   75.6980  222.3190 C   0  0  0  0  0  0  0  0  0  0  0  0
  135.9720   75.0350  223.4070 C   0  0  0  0  0  0  0  0  0  0  0  0
  135.4140   75.8480  224.3910 C   0  0  0  0  0  0  0  0  0  0  0  0
  134.7210   75.2760  225.4350 C   0  0  0  0  0  0  0  0  0  0  0  0
  134.5650   73.9030  225.5290 C   0  0  0  0  0  0  0  0  0  0  0  0
  133.8760   73.3430  226.5700 F   0  0  0  0  0  0  0  0  0  0  0  0
  135.1120   73.0860  224.5650 C   0  0  0  0  0  0  0  0  0  0  0  0
  135.8000   73.6750  223.5300 C   0  0  0  0  0  0  0  0  0  0  0  0
  141.1730   77.8140  222.4310 C   0  0  0  0  0  0  0  0  0  0  0  0
  141.8112   79.9188  223.6113 H   0  0  0  0  0  0  0  0  0  0  0  0
  142.7630   78.5069  223.0393 H   0  0  0  0  0  0  0  0  0  0  0  0
  143.4988   80.1456  223.0393 H   0  0  0  0  0  0  0  0  0  0  0  0
  140.3936   79.0154  220.8075 H   0  0  0  0  0  0  0  0  0  0  0  0
  142.3237   78.4988  219.2942 H   0  0  0  0  0  0  0  0  0  0  0  0
  143.0453   77.4758  220.5303 H   0  0  0  0  0  0  0  0  0  0  0  0
  140.0895   77.1666  219.6023 H   0  0  0  0  0  0  0  0  0  0  0  0
  141.3606   76.2295  218.8597 H   0  0  0  0  0  0  0  0  0  0  0  0
  140.0816   73.4519  220.2692 H   0  0  0  0  0  0  0  0  0  0  0  0
  141.8225   72.9149  219.7924 H   0  0  0  0  0  0  0  0  0  0  0  0
  141.7320   71.4330  221.5340 H   0  0  0  0  0  0  0  0  0  0  0  0
  139.3362   70.1586  222.5805 H   0  0  0  0  0  0  0  0  0  0  0  0
  139.1282   68.4065  224.3406 H   0  0  0  0  0  0  0  0  0  0  0  0
  139.5014   67.7563  226.5710 H   0  0  0  0  0  0  0  0  0  0  0  0
  141.3911   70.4947  229.3431 H   0  0  0  0  0  0  0  0  0  0  0  0
  141.5692   72.2110  227.5518 H   0  0  0  0  0  0  0  0  0  0  0  0
  140.6635   75.8238  223.0155 H   0  0  0  0  0  0  0  0  0  0  0  0
  138.5890   74.8370  222.9280 H   0  0  0  0  0  0  0  0  0  0  0  0
  136.3826   76.7511  222.2893 H   0  0  0  0  0  0  0  0  0  0  0  0
  136.4538   75.1420  221.4021 H   0  0  0  0  0  0  0  0  0  0  0  0
  135.5262   76.9408  224.3346 H   0  0  0  0  0  0  0  0  0  0  0  0
  134.2827   75.9226  226.2095 H   0  0  0  0  0  0  0  0  0  0  0  0
  135.0018   71.9930  224.6211 H   0  0  0  0  0  0  0  0  0  0  0  0
  136.2366   73.0237  222.7585 H   0  0  0  0  0  0  0  0  0  0  0  0
  140.5506   78.3600  223.1552 H   0  0  0  0  0  0  0  0  0  0  0  0
  142.1798   77.5923  222.8147 H   0  0  0  0  0  0  0  0  0  0  0  0
  1  2  1  0
  2  3  1  0
  3  4  1  0
  4  5  1  0
  5  6  1  0
  6  7  1  0
  7  8  2  0
  7  9  1  0
  9 10  1  0
 10 11  1  0
 11 12  2  0
 11 13  1  0
 13 14  2  0
 14 15  1  0
 15 16  2  0
 16 17  1  0
 17 18  2  0
 18 19  1  0
 18 20  1  0
 20 21  2  0
 21 22  1  0
 22 23  2  0
  6 24  1  0
 24 25  1  0
 25 26  2  0
 25 27  1  0
 27 28  1  0
 28 29  1  0
 29 30  2  0
 30 31  1  0
 31 32  2  0
 32 33  1  0
 32 34  1  0
 34 35  2  0
 24 36  1  0
 36  3  1  0
 23 13  1  0
 35 29  1  0
 22 16  1  0
  1 37  1  0
  1 38  1  0
  1 39  1  0
  3 40  1  6
  4 41  1  0
  4 42  1  0
  5 43  1  0
  5 44  1  0
  9 45  1  0
  9 46  1  0
 10 47  1  0
 14 48  1  0
 15 49  1  0
 17 50  1  0
 20 51  1  0
 21 52  1  0
 24 53  1  1
 27 54  1  0
 28 55  1  0
 28 56  1  0
 30 57  1  0
 31 58  1  0
 34 59  1  0
 35 60  1  0
 36 61  1  0
 36 62  1  0
M  END
>  <smiles>  (46) 
CO[C@H]1CCN(C(=O)CNC(=O)c2ccc3cc(F)ccc3n2)[C@H](C(=O)NCc2ccc(F)cc2)C1

>  <score_type>  (46) 
oracle

>  <origin>  (46) 
autodockgpu

>  <m_score__min__energy>  (46) 
-9.6500000000000004

>  <m_primary>  (46) 
energy

>  <rmsd>  (46) 
4.981975873560726

>  <m_score__min__rmsd>  (46) 
4.981975873560726

>  <meeko>  (46) 
{"free_energy": -8.8, "intermolecular_energy": -11.19, "internal_energy": -2.57, "cluster_size": 14, "cluster_id": 2, "rank_in_cluster": 1}

>  <energy>  (46) 
-7.06

>  <cluster_rmsd>  (46) 
0.91

>  <cluster>  (46) 
10

$$$$

     RDKit          3D

 62 65  0  0  0  0  0  0  0  0999 V2000
  146.3130   73.3440  220.7030 C   0  0  0  0  0  0  0  0  0  0  0  0
  146.0360   73.2440  219.3610 O   0  0  0  0  0  0  0  0  0  0  0  0
  144.7540   73.7400  219.1320 C   0  0  1  0  0  0  0  0  0  0  0  0
  143.8570   72.6700  218.5420 C   0  0  0  0  0  0  0  0  0  0  0  0
  142.5300   73.3960  218.2660 C   0  0  0  0  0  0  0  0  0  0  0  0
  141.9960   73.6150  219.6530 N   0  0  0  0  0  0  0  0  0  0  0  0
  140.8450   72.8990  219.9410 C   0  0  0  0  0  0  0  0  0  0  0  0
  140.8180   71.7240  219.3230 O   0  0  0  0  0  0  0  0  0  0  0  0
  139.6770   73.1360  220.7510 C   0  0  0  0  0  0  0  0  0  0  0  0
  139.0650   74.4310  220.7830 N   0  0  0  0  0  0  0  0  0  0  0  0
  139.6540   75.4050  221.6650 C   0  0  0  0  0  0  0  0  0  0  0  0
  140.6510   75.0050  222.3220 O   0  0  0  0  0  0  0  0  0  0  0  0
  139.1290   76.7570  221.7880 C   0  0  0  0  0  0  0  0  0  0  0  0
  138.3280   77.2250  220.7720 C   0  0  0  0  0  0  0  0  0  0  0  0
  137.7670   78.4900  220.7650 C   0  0  0  0  0  0  0  0  0  0  0  0
  138.0640   79.2850  221.8700 C   0  0  0  0  0  0  0  0  0  0  0  0
  137.5070   80.5520  221.8730 C   0  0  0  0  0  0  0  0  0  0  0  0
  137.7900   81.3580  222.9620 C   0  0  0  0  0  0  0  0  0  0  0  0
  137.2420   82.5950  222.9570 F   0  0  0  0  0  0  0  0  0  0  0  0
  138.6000   80.9140  224.0090 C   0  0  0  0  0  0  0  0  0  0  0  0
  139.1380   79.6430  223.9710 C   0  0  0  0  0  0  0  0  0  0  0  0
  138.8690   78.8230  222.8960 C   0  0  0  0  0  0  0  0  0  0  0  0
  139.3880   77.5630  222.8340 N   0  0  0  0  0  0  0  0  0  0  0  0
  142.7360   74.5620  220.4090 C   0  0  2  0  0  0  0  0  0  0  0  0
  142.5850   75.9630  219.8320 C   0  0  0  0  0  0  0  0  0  0  0  0
  142.9370   76.2260  218.6570 O   0  0  0  0  0  0  0  0  0  0  0  0
  142.0420   76.9920  220.6230 N   0  0  0  0  0  0  0  0  0  0  0  0
  141.8430   78.3520  220.2020 C   0  0  0  0  0  0  0  0  0  0  0  0
  141.9110   79.3490  221.2760 C   0  0  0  0  0  0  0  0  0  0  0  0
  142.2540   78.8970  222.5480 C   0  0  0  0  0  0  0  0  0  0  0  0
  142.3320   79.7920  223.5910 C   0  0  0  0  0  0  0  0  0  0  0  0
  142.0760   81.1410  223.4040 C   0  0  0  0  0  0  0  0  0  0  0  0
  142.1550   82.0230  224.4460 F   0  0  0  0  0  0  0  0  0  0  0  0
  141.7360   81.6040  222.1520 C   0  0  0  0  0  0  0  0  0  0  0  0
  141.6630   80.6950  221.1230 C   0  0  0  0  0  0  0  0  0  0  0  0
  144.1880   74.1490  220.4560 C   0  0  0  0  0  0  0  0  0  0  0  0
  145.4341   73.0267  221.2834 H   0  0  0  0  0  0  0  0  0  0  0  0
  147.1683   72.6979  220.9500 H   0  0  0  0  0  0  0  0  0  0  0  0
  146.5584   74.3875  220.9500 H   0  0  0  0  0  0  0  0  0  0  0  0
  144.8074   74.5828  218.4271 H   0  0  0  0  0  0  0  0  0  0  0  0
  144.2852   72.2731  217.6097 H   0  0  0  0  0  0  0  0  0  0  0  0
  143.7326   71.8084  219.2144 H   0  0  0  0  0  0  0  0  0  0  0  0
  142.6981   74.3515  217.7475 H   0  0  0  0  0  0  0  0  0  0  0  0
  141.8463   72.8346  217.6123 H   0  0  0  0  0  0  0  0  0  0  0  0
  138.9059   72.4314  220.4060 H   0  0  0  0  0  0  0  0  0  0  0  0
  140.0584   73.0172  221.7759 H   0  0  0  0  0  0  0  0  0  0  0  0
  138.2300   74.7130  220.2120 H   0  0  0  0  0  0  0  0  0  0  0  0
  138.1228   76.5590  219.9209 H   0  0  0  0  0  0  0  0  0  0  0  0
  137.1291   78.8443  219.9419 H   0  0  0  0  0  0  0  0  0  0  0  0
  136.8690   80.9022  221.0482 H   0  0  0  0  0  0  0  0  0  0  0  0
  138.8092   81.5756  224.8626 H   0  0  0  0  0  0  0  0  0  0  0  0
  139.7768   79.2872  224.7928 H   0  0  0  0  0  0  0  0  0  0  0  0
  142.3387   74.5857  221.4345 H   0  0  0  0  0  0  0  0  0  0  0  0
  141.7610   76.7130  221.6130 H   0  0  0  0  0  0  0  0  0  0  0  0
  142.6173   78.5964  219.4598 H   0  0  0  0  0  0  0  0  0  0  0  0
  140.8207   78.4030  219.7990 H   0  0  0  0  0  0  0  0  0  0  0  0
  142.4615   77.8303  222.7183 H   0  0  0  0  0  0  0  0  0  0  0  0
  142.6031   79.4289  224.5934 H   0  0  0  0  0  0  0  0  0  0  0  0
  141.5288   82.6706  221.9803 H   0  0  0  0  0  0  0  0  0  0  0  0
  141.3916   81.0631  220.1226 H   0  0  0  0  0  0  0  0  0  0  0  0
  144.7758   74.9981  220.8347 H   0  0  0  0  0  0  0  0  0  0  0  0
  144.2439   73.2659  221.1094 H   0  0  0  0  0  0  0  0  0  0  0  0
  1  2  1  0
  2  3  1  0
  3  4  1  0
  4  5  1  0
  5  6  1  0
  6  7  1  0
  7  8  2  0
  7  9  1  0
  9 10  1  0
 10 11  1  0
 11 12  2  0
 11 13  1  0
 13 14  2  0
 14 15  1  0
 15 16  2  0
 16 17  1  0
 17 18  2  0
 18 19  1  0
 18 20  1  0
 20 21  2  0
 21 22  1  0
 22 23  2  0
  6 24  1  0
 24 25  1  0
 25 26  2  0
 25 27  1  0
 27 28  1  0
 28 29  1  0
 29 30  2  0
 30 31  1  0
 31 32  2  0
 32 33  1  0
 32 34  1  0
 34 35  2  0
 24 36  1  0
 36  3  1  0
 23 13  1  0
 35 29  1  0
 22 16  1  0
  1 37  1  0
  1 38  1  0
  1 39  1  0
  3 40  1  6
  4 41  1  0
  4 42  1  0
  5 43  1  0
  5 44  1  0
  9 45  1  0
  9 46  1  0
 10 47  1  0
 14 48  1  0
 15 49  1  0
 17 50  1  0
 20 51  1  0
 21 52  1  0
 24 53  1  1
 27 54  1  0
 28 55  1  0
 28 56  1  0
 30 57  1  0
 31 58  1  0
 34 59  1  0
 35 60  1  0
 36 61  1  0
 36 62  1  0
M  END
>  <smiles>  (47) 
CO[C@H]1CCN(C(=O)CNC(=O)c2ccc3cc(F)ccc3n2)[C@H](C(=O)NCc2ccc(F)cc2)C1

>  <score_type>  (47) 
oracle

>  <origin>  (47) 
autodockgpu

>  <m_score__min__energy>  (47) 
-9.6500000000000004

>  <m_primary>  (47) 
energy

>  <rmsd>  (47) 
6.783318682973437

>  <m_score__min__rmsd>  (47) 
6.783318682973437

>  <meeko>  (47) 
{"free_energy": -7.1, "intermolecular_energy": -9.48, "internal_energy": -4.0, "cluster_size": 9, "cluster_id": 10, "rank_in_cluster": 3}

>  <energy>  (47) 
-6.93

>  <cluster_rmsd>  (47) 
0.77

>  <cluster>  (47) 
10

$$$$

     RDKit          3D

 62 65  0  0  0  0  0  0  0  0999 V2000
  142.2300   79.7220  223.3660 C   0  0  0  0  0  0  0  0  0  0  0  0
  141.8220   79.9650  222.0770 O   0  0  0  0  0  0  0  0  0  0  0  0
  141.0950   78.8660  221.6250 C   0  0  1  0  0  0  0  0  0  0  0  0
  141.8240   78.1620  220.4980 C   0  0  0  0  0  0  0  0  0  0  0  0
  140.8580   77.0500  220.0570 C   0  0  0  0  0  0  0  0  0  0  0  0
  140.9300   76.0920  221.2110 N   0  0  0  0  0  0  0  0  0  0  0  0
  141.5130   74.8720  220.9060 C   0  0  0  0  0  0  0  0  0  0  0  0
  142.8100   74.9880  220.6460 O   0  0  0  0  0  0  0  0  0  0  0  0
  141.0380   73.5150  220.8040 C   0  0  0  0  0  0  0  0  0  0  0  0
  141.1610   72.6170  221.9130 N   0  0  0  0  0  0  0  0  0  0  0  0
  139.9840   72.4130  222.7170 C   0  0  0  0  0  0  0  0  0  0  0  0
  138.9640   73.0580  222.3540 O   0  0  0  0  0  0  0  0  0  0  0  0
  139.9760   71.5240  223.8690 C   0  0  0  0  0  0  0  0  0  0  0  0
  139.3320   70.3150  223.7370 C   0  0  0  0  0  0  0  0  0  0  0  0
  139.2510   69.3800  224.7540 C   0  0  0  0  0  0  0  0  0  0  0  0
  139.8720   69.7370  225.9490 C   0  0  0  0  0  0  0  0  0  0  0  0
  139.7970   68.8090  226.9740 C   0  0  0  0  0  0  0  0  0  0  0  0
  140.4070   69.1450  228.1690 C   0  0  0  0  0  0  0  0  0  0  0  0
  140.3290   68.2310  229.1650 F   0  0  0  0  0  0  0  0  0  0  0  0
  141.0670   70.3630  228.3360 C   0  0  0  0  0  0  0  0  0  0  0  0
  141.1220   71.2650  227.2910 C   0  0  0  0  0  0  0  0  0  0  0  0
  140.5210   70.9510  226.0910 C   0  0  0  0  0  0  0  0  0  0  0  0
  140.5600   71.8240  225.0440 N   0  0  0  0  0  0  0  0  0  0  0  0
  140.3380   76.5860  222.4040 C   0  0  2  0  0  0  0  0  0  0  0  0
  138.8290   76.7200  222.2530 C   0  0  0  0  0  0  0  0  0  0  0  0
  138.3000   77.8080  221.9230 O   0  0  0  0  0  0  0  0  0  0  0  0
  138.0000   75.6070  222.4850 N   0  0  0  0  0  0  0  0  0  0  0  0
  136.5670   75.5960  222.3760 C   0  0  0  0  0  0  0  0  0  0  0  0
  135.8650   74.9460  223.4890 C   0  0  0  0  0  0  0  0  0  0  0  0
  135.4320   75.7610  224.5330 C   0  0  0  0  0  0  0  0  0  0  0  0
  134.7670   75.2010  225.6020 C   0  0  0  0  0  0  0  0  0  0  0  0
  134.5190   73.8400  225.6630 C   0  0  0  0  0  0  0  0  0  0  0  0
  133.8590   73.2920  226.7290 F   0  0  0  0  0  0  0  0  0  0  0  0
  134.9420   73.0220  224.6390 C   0  0  0  0  0  0  0  0  0  0  0  0
  135.6040   73.5980  223.5800 C   0  0  0  0  0  0  0  0  0  0  0  0
  140.9650   77.9110  222.7700 C   0  0  0  0  0  0  0  0  0  0  0  0
  141.5028   80.1551  224.0686 H   0  0  0  0  0  0  0  0  0  0  0  0
  142.2974   78.6365  223.5308 H   0  0  0  0  0  0  0  0  0  0  0  0
  143.2165   80.1798  223.5308 H   0  0  0  0  0  0  0  0  0  0  0  0
  140.1150   79.2016  221.2549 H   0  0  0  0  0  0  0  0  0  0  0  0
  142.0231   78.8567  219.6687 H   0  0  0  0  0  0  0  0  0  0  0  0
  142.8025   77.7690  220.8112 H   0  0  0  0  0  0  0  0  0  0  0  0
  139.8374   77.4379  219.9236 H   0  0  0  0  0  0  0  0  0  0  0  0
  141.1187   76.5964  219.0894 H   0  0  0  0  0  0  0  0  0  0  0  0
  139.9663   73.5734  220.5630 H   0  0  0  0  0  0  0  0  0  0  0  0
  141.7090   73.0736  220.0524 H   0  0  0  0  0  0  0  0  0  0  0  0
  142.0390   72.1040  222.1730 H   0  0  0  0  0  0  0  0  0  0  0  0
  138.8570   70.0796  222.7732 H   0  0  0  0  0  0  0  0  0  0  0  0
  138.7310   68.4190  224.6273 H   0  0  0  0  0  0  0  0  0  0  0  0
  139.2763   67.8488  226.8439 H   0  0  0  0  0  0  0  0  0  0  0  0
  141.5427   70.6046  229.2980 H   0  0  0  0  0  0  0  0  0  0  0  0
  141.6415   72.2265  227.4157 H   0  0  0  0  0  0  0  0  0  0  0  0
  140.5237   75.8671  223.2156 H   0  0  0  0  0  0  0  0  0  0  0  0
  138.5020   74.7080  222.7640 H   0  0  0  0  0  0  0  0  0  0  0  0
  136.2213   76.6386  222.3170 H   0  0  0  0  0  0  0  0  0  0  0  0
  136.3317   75.0061  221.4779 H   0  0  0  0  0  0  0  0  0  0  0  0
  135.6199   76.8445  224.5039 H   0  0  0  0  0  0  0  0  0  0  0  0
  134.4262   75.8482  226.4236 H   0  0  0  0  0  0  0  0  0  0  0  0
  134.7556   71.9383  224.6673 H   0  0  0  0  0  0  0  0  0  0  0  0
  135.9431   72.9459  222.7616 H   0  0  0  0  0  0  0  0  0  0  0  0
  140.3439   78.3841  223.5448 H   0  0  0  0  0  0  0  0  0  0  0  0
  141.9859   77.6924  223.1164 H   0  0  0  0  0  0  0  0  0  0  0  0
  1  2  1  0
  2  3  1  0
  3  4  1  0
  4  5  1  0
  5  6  1  0
  6  7  1  0
  7  8  2  0
  7  9  1  0
  9 10  1  0
 10 11  1  0
 11 12  2  0
 11 13  1  0
 13 14  2  0
 14 15  1  0
 15 16  2  0
 16 17  1  0
 17 18  2  0
 18 19  1  0
 18 20  1  0
 20 21  2  0
 21 22  1  0
 22 23  2  0
  6 24  1  0
 24 25  1  0
 25 26  2  0
 25 27  1  0
 27 28  1  0
 28 29  1  0
 29 30  2  0
 30 31  1  0
 31 32  2  0
 32 33  1  0
 32 34  1  0
 34 35  2  0
 24 36  1  0
 36  3  1  0
 23 13  1  0
 35 29  1  0
 22 16  1  0
  1 37  1  0
  1 38  1  0
  1 39  1  0
  3 40  1  6
  4 41  1  0
  4 42  1  0
  5 43  1  0
  5 44  1  0
  9 45  1  0
  9 46  1  0
 10 47  1  0
 14 48  1  0
 15 49  1  0
 17 50  1  0
 20 51  1  0
 21 52  1  0
 24 53  1  1
 27 54  1  0
 28 55  1  0
 28 56  1  0
 30 57  1  0
 31 58  1  0
 34 59  1  0
 35 60  1  0
 36 61  1  0
 36 62  1  0
M  END
>  <smiles>  (48) 
CO[C@H]1CCN(C(=O)CNC(=O)c2ccc3cc(F)ccc3n2)[C@H](C(=O)NCc2ccc(F)cc2)C1

>  <score_type>  (48) 
oracle

>  <origin>  (48) 
autodockgpu

>  <m_score__min__energy>  (48) 
-9.6500000000000004

>  <m_primary>  (48) 
energy

>  <rmsd>  (48) 
5.083977570884963

>  <m_score__min__rmsd>  (48) 
5.083977570884963

>  <meeko>  (48) 
{"free_energy": -8.55, "intermolecular_energy": -10.94, "internal_energy": -2.71, "cluster_size": 14, "cluster_id": 2, "rank_in_cluster": 4}

>  <energy>  (48) 
-6.73

>  <cluster_rmsd>  (48) 
1.14

>  <cluster>  (48) 
10

$$$$

     RDKit          3D

 62 65  0  0  0  0  0  0  0  0999 V2000
  146.3090   73.1830  220.6670 C   0  0  0  0  0  0  0  0  0  0  0  0
  145.9090   73.1210  219.3550 O   0  0  0  0  0  0  0  0  0  0  0  0
  144.6130   73.6240  219.2590 C   0  0  1  0  0  0  0  0  0  0  0  0
  143.6450   72.5450  218.8180 C   0  0  0  0  0  0  0  0  0  0  0  0
  142.3000   73.2770  218.6730 C   0  0  0  0  0  0  0  0  0  0  0  0
  141.9340   73.5530  220.1030 N   0  0  0  0  0  0  0  0  0  0  0  0
  140.8190   72.8620  220.5510 C   0  0  0  0  0  0  0  0  0  0  0  0
  140.5840   71.7700  219.8330 O   0  0  0  0  0  0  0  0  0  0  0  0
  139.8610   73.0560  221.6090 C   0  0  0  0  0  0  0  0  0  0  0  0
  139.5360   74.3760  222.0620 N   0  0  0  0  0  0  0  0  0  0  0  0
  139.1300   75.3250  221.0590 C   0  0  0  0  0  0  0  0  0  0  0  0
  139.1080   74.8860  219.8780 O   0  0  0  0  0  0  0  0  0  0  0  0
  138.7720   76.6970  221.3880 C   0  0  0  0  0  0  0  0  0  0  0  0
  137.9280   77.3600  220.5270 C   0  0  0  0  0  0  0  0  0  0  0  0
  137.5110   78.6650  220.7230 C   0  0  0  0  0  0  0  0  0  0  0  0
  138.0030   79.2870  221.8680 C   0  0  0  0  0  0  0  0  0  0  0  0
  137.5910   80.5920  222.0750 C   0  0  0  0  0  0  0  0  0  0  0  0
  138.0690   81.2290  223.2060 C   0  0  0  0  0  0  0  0  0  0  0  0
  137.6620   82.5050  223.4000 F   0  0  0  0  0  0  0  0  0  0  0  0
  138.9270   80.5850  224.1000 C   0  0  0  0  0  0  0  0  0  0  0  0
  139.3160   79.2810  223.8620 C   0  0  0  0  0  0  0  0  0  0  0  0
  138.8520   78.6280  222.7400 C   0  0  0  0  0  0  0  0  0  0  0  0
  139.2210   77.3410  222.4810 N   0  0  0  0  0  0  0  0  0  0  0  0
  142.7660   74.5170  220.7310 C   0  0  2  0  0  0  0  0  0  0  0  0
  142.5600   75.8980  220.1240 C   0  0  0  0  0  0  0  0  0  0  0  0
  143.0830   76.2130  219.0290 O   0  0  0  0  0  0  0  0  0  0  0  0
  141.7690   76.8490  220.7960 N   0  0  0  0  0  0  0  0  0  0  0  0
  141.4940   78.1810  220.3340 C   0  0  0  0  0  0  0  0  0  0  0  0
  141.7410   79.2420  221.3180 C   0  0  0  0  0  0  0  0  0  0  0  0
  142.2480   78.8580  222.5570 C   0  0  0  0  0  0  0  0  0  0  0  0
  142.4980   79.8150  223.5160 C   0  0  0  0  0  0  0  0  0  0  0  0
  142.2560   81.1570  223.2750 C   0  0  0  0  0  0  0  0  0  0  0  0
  142.5070   82.1010  224.2320 F   0  0  0  0  0  0  0  0  0  0  0  0
  141.7540   81.5520  222.0540 C   0  0  0  0  0  0  0  0  0  0  0  0
  141.5110   80.5830  221.1090 C   0  0  0  0  0  0  0  0  0  0  0  0
  144.2100   74.0880  220.6240 C   0  0  0  0  0  0  0  0  0  0  0  0
  145.4365   73.0478  221.3231 H   0  0  0  0  0  0  0  0  0  0  0  0
  147.0430   72.3879  220.8645 H   0  0  0  0  0  0  0  0  0  0  0  0
  146.7679   74.1630  220.8645 H   0  0  0  0  0  0  0  0  0  0  0  0
  144.5895   74.4399  218.5216 H   0  0  0  0  0  0  0  0  0  0  0  0
  143.9575   72.1102  217.8571 H   0  0  0  0  0  0  0  0  0  0  0  0
  143.5938   71.7093  219.5314 H   0  0  0  0  0  0  0  0  0  0  0  0
  142.4135   74.2108  218.1029 H   0  0  0  0  0  0  0  0  0  0  0  0
  141.5398   72.7002  218.1258 H   0  0  0  0  0  0  0  0  0  0  0  0
  138.9199   72.5984  221.2700 H   0  0  0  0  0  0  0  0  0  0  0  0
  140.3620   72.6111  222.4814 H   0  0  0  0  0  0  0  0  0  0  0  0
  139.5730   74.6910  223.0630 H   0  0  0  0  0  0  0  0  0  0  0  0
  137.5659   76.8250  219.6367 H   0  0  0  0  0  0  0  0  0  0  0  0
  136.8360   79.1769  220.0213 H   0  0  0  0  0  0  0  0  0  0  0  0
  136.9141   81.0996  221.3720 H   0  0  0  0  0  0  0  0  0  0  0  0
  139.2924   81.1150  224.9920 H   0  0  0  0  0  0  0  0  0  0  0  0
  139.9910   78.7675  224.5625 H   0  0  0  0  0  0  0  0  0  0  0  0
  142.4921   74.5823  221.7944 H   0  0  0  0  0  0  0  0  0  0  0  0
  141.3510   76.5280  221.7230 H   0  0  0  0  0  0  0  0  0  0  0  0
  142.1277   78.3754  219.4562 H   0  0  0  0  0  0  0  0  0  0  0  0
  140.4173   78.2130  220.1109 H   0  0  0  0  0  0  0  0  0  0  0  0
  142.4476   77.7972  222.7686 H   0  0  0  0  0  0  0  0  0  0  0  0
  142.8981   79.5068  224.4932 H   0  0  0  0  0  0  0  0  0  0  0  0
  141.5533   82.6124  221.8413 H   0  0  0  0  0  0  0  0  0  0  0  0
  141.1112   80.8964  220.1333 H   0  0  0  0  0  0  0  0  0  0  0  0
  144.8451   74.9429  220.8992 H   0  0  0  0  0  0  0  0  0  0  0  0
  144.3353   73.2290  221.2995 H   0  0  0  0  0  0  0  0  0  0  0  0
  1  2  1  0
  2  3  1  0
  3  4  1  0
  4  5  1  0
  5  6  1  0
  6  7  1  0
  7  8  2  0
  7  9  1  0
  9 10  1  0
 10 11  1  0
 11 12  2  0
 11 13  1  0
 13 14  2  0
 14 15  1  0
 15 16  2  0
 16 17  1  0
 17 18  2  0
 18 19  1  0
 18 20  1  0
 20 21  2  0
 21 22  1  0
 22 23  2  0
  6 24  1  0
 24 25  1  0
 25 26  2  0
 25 27  1  0
 27 28  1  0
 28 29  1  0
 29 30  2  0
 30 31  1  0
 31 32  2  0
 32 33  1  0
 32 34  1  0
 34 35  2  0
 24 36  1  0
 36  3  1  0
 23 13  1  0
 35 29  1  0
 22 16  1  0
  1 37  1  0
  1 38  1  0
  1 39  1  0
  3 40  1  6
  4 41  1  0
  4 42  1  0
  5 43  1  0
  5 44  1  0
  9 45  1  0
  9 46  1  0
 10 47  1  0
 14 48  1  0
 15 49  1  0
 17 50  1  0
 20 51  1  0
 21 52  1  0
 24 53  1  1
 27 54  1  0
 28 55  1  0
 28 56  1  0
 30 57  1  0
 31 58  1  0
 34 59  1  0
 35 60  1  0
 36 61  1  0
 36 62  1  0
M  END
>  <smiles>  (49) 
CO[C@H]1CCN(C(=O)CNC(=O)c2ccc3cc(F)ccc3n2)[C@H](C(=O)NCc2ccc(F)cc2)C1

>  <score_type>  (49) 
oracle

>  <origin>  (49) 
autodockgpu

>  <m_score__min__energy>  (49) 
-9.6500000000000004

>  <m_primary>  (49) 
energy

>  <rmsd>  (49) 
6.724201524939355

>  <m_score__min__rmsd>  (49) 
6.724201524939355

>  <meeko>  (49) 
{"free_energy": -6.73, "intermolecular_energy": -9.11, "internal_energy": -3.74, "cluster_size": 9, "cluster_id": 10, "rank_in_cluster": 8}

>  <energy>  (49) 
-6.5

>  <cluster_rmsd>  (49) 
1.92

>  <cluster>  (49) 
10

$$$$

     RDKit          3D

 62 65  0  0  0  0  0  0  0  0999 V2000
  146.3210   73.3360  220.8190 C   0  0  0  0  0  0  0  0  0  0  0  0
  146.1170   73.2830  219.4610 O   0  0  0  0  0  0  0  0  0  0  0  0
  144.8420   73.7730  219.1830 C   0  0  1  0  0  0  0  0  0  0  0  0
  143.9910   72.7140  218.5110 C   0  0  0  0  0  0  0  0  0  0  0  0
  142.6710   73.4340  218.1900 C   0  0  0  0  0  0  0  0  0  0  0  0
  142.0620   73.6000  219.5540 N   0  0  0  0  0  0  0  0  0  0  0  0
  140.9070   72.8610  219.7580 C   0  0  0  0  0  0  0  0  0  0  0  0
  140.8760   71.7640  219.0100 O   0  0  0  0  0  0  0  0  0  0  0  0
  139.7390   73.0110  220.5870 C   0  0  0  0  0  0  0  0  0  0  0  0
  139.0860   74.2810  220.7010 N   0  0  0  0  0  0  0  0  0  0  0  0
  139.6470   75.2180  221.6400 C   0  0  0  0  0  0  0  0  0  0  0  0
  140.6600   74.8100  222.2680 O   0  0  0  0  0  0  0  0  0  0  0  0
  139.0790   76.5410  221.8470 C   0  0  0  0  0  0  0  0  0  0  0  0
  138.0050   76.9040  221.0680 C   0  0  0  0  0  0  0  0  0  0  0  0
  137.3740   78.1320  221.1630 C   0  0  0  0  0  0  0  0  0  0  0  0
  137.8970   79.0030  222.1150 C   0  0  0  0  0  0  0  0  0  0  0  0
  137.2730   80.2340  222.2200 C   0  0  0  0  0  0  0  0  0  0  0  0
  137.7780   81.1160  223.1600 C   0  0  0  0  0  0  0  0  0  0  0  0
  137.1610   82.3170  223.2550 F   0  0  0  0  0  0  0  0  0  0  0  0
  138.8660   80.7790  223.9660 C   0  0  0  0  0  0  0  0  0  0  0  0
  139.4640   79.5410  223.8340 C   0  0  0  0  0  0  0  0  0  0  0  0
  138.9770   78.6480  222.9040 C   0  0  0  0  0  0  0  0  0  0  0  0
  139.5490   77.4190  222.7530 N   0  0  0  0  0  0  0  0  0  0  0  0
  142.7510   74.5280  220.3790 C   0  0  2  0  0  0  0  0  0  0  0  0
  142.6120   75.9460  219.8430 C   0  0  0  0  0  0  0  0  0  0  0  0
  143.0460   76.2600  218.7090 O   0  0  0  0  0  0  0  0  0  0  0  0
  141.9870   76.9340  220.6260 N   0  0  0  0  0  0  0  0  0  0  0  0
  141.7900   78.3040  220.2410 C   0  0  0  0  0  0  0  0  0  0  0  0
  141.9590   79.2830  221.3210 C   0  0  0  0  0  0  0  0  0  0  0  0
  141.5430   80.5880  221.0710 C   0  0  0  0  0  0  0  0  0  0  0  0
  141.6800   81.5460  222.0520 C   0  0  0  0  0  0  0  0  0  0  0  0
  142.2240   81.2390  223.2880 C   0  0  0  0  0  0  0  0  0  0  0  0
  142.3580   82.1950  224.2560 F   0  0  0  0  0  0  0  0  0  0  0  0
  142.6410   79.9520  223.5500 C   0  0  0  0  0  0  0  0  0  0  0  0
  142.4960   79.0100  222.5580 C   0  0  0  0  0  0  0  0  0  0  0  0
  144.2030   74.1300  220.4890 C   0  0  0  0  0  0  0  0  0  0  0  0
  145.3835   73.0924  221.3404 H   0  0  0  0  0  0  0  0  0  0  0  0
  147.0972   72.6097  221.1018 H   0  0  0  0  0  0  0  0  0  0  0  0
  146.6455   74.3483  221.1018 H   0  0  0  0  0  0  0  0  0  0  0  0
  144.9206   74.6406  218.5114 H   0  0  0  0  0  0  0  0  0  0  0  0
  144.4725   72.3541  217.5898 H   0  0  0  0  0  0  0  0  0  0  0  0
  143.8427   71.8286  219.1466 H   0  0  0  0  0  0  0  0  0  0  0  0
  142.8535   74.4083  217.7132 H   0  0  0  0  0  0  0  0  0  0  0  0
  142.0297   72.8874  217.4829 H   0  0  0  0  0  0  0  0  0  0  0  0
  138.9882   72.3039  220.2044 H   0  0  0  0  0  0  0  0  0  0  0  0
  140.1321   72.8434  221.6006 H   0  0  0  0  0  0  0  0  0  0  0  0
  138.2390   74.5700  220.1510 H   0  0  0  0  0  0  0  0  0  0  0  0
  137.6278   76.1801  220.3307 H   0  0  0  0  0  0  0  0  0  0  0  0
  136.5167   78.4019  220.5288 H   0  0  0  0  0  0  0  0  0  0  0  0
  136.4147   80.4995  221.5853 H   0  0  0  0  0  0  0  0  0  0  0  0
  139.2470   81.4985  224.7057 H   0  0  0  0  0  0  0  0  0  0  0  0
  140.3223   79.2699  224.4663 H   0  0  0  0  0  0  0  0  0  0  0  0
  142.3014   74.5113  221.3828 H   0  0  0  0  0  0  0  0  0  0  0  0
  141.6380   76.6120  221.5820 H   0  0  0  0  0  0  0  0  0  0  0  0
  142.5138   78.5428  219.4478 H   0  0  0  0  0  0  0  0  0  0  0  0
  140.7423   78.3838  219.9154 H   0  0  0  0  0  0  0  0  0  0  0  0
  141.1076   80.8527  220.0962 H   0  0  0  0  0  0  0  0  0  0  0  0
  141.3505   82.5757  221.8492 H   0  0  0  0  0  0  0  0  0  0  0  0
  143.0772   79.6856  224.5241 H   0  0  0  0  0  0  0  0  0  0  0  0
  142.8277   77.9819  222.7652 H   0  0  0  0  0  0  0  0  0  0  0  0
  144.7593   74.9721  220.9265 H   0  0  0  0  0  0  0  0  0  0  0  0
  144.2365   73.2260  221.1149 H   0  0  0  0  0  0  0  0  0  0  0  0
  1  2  1  0
  2  3  1  0
  3  4  1  0
  4  5  1  0
  5  6  1  0
  6  7  1  0
  7  8  2  0
  7  9  1  0
  9 10  1  0
 10 11  1  0
 11 12  2  0
 11 13  1  0
 13 14  2  0
 14 15  1  0
 15 16  2  0
 16 17  1  0
 17 18  2  0
 18 19  1  0
 18 20  1  0
 20 21  2  0
 21 22  1  0
 22 23  2  0
  6 24  1  0
 24 25  1  0
 25 26  2  0
 25 27  1  0
 27 28  1  0
 28 29  1  0
 29 30  2  0
 30 31  1  0
 31 32  2  0
 32 33  1  0
 32 34  1  0
 34 35  2  0
 24 36  1  0
 36  3  1  0
 23 13  1  0
 35 29  1  0
 22 16  1  0
  1 37  1  0
  1 38  1  0
  1 39  1  0
  3 40  1  6
  4 41  1  0
  4 42  1  0
  5 43  1  0
  5 44  1  0
  9 45  1  0
  9 46  1  0
 10 47  1  0
 14 48  1  0
 15 49  1  0
 17 50  1  0
 20 51  1  0
 21 52  1  0
 24 53  1  1
 27 54  1  0
 28 55  1  0
 28 56  1  0
 30 57  1  0
 31 58  1  0
 34 59  1  0
 35 60  1  0
 36 61  1  0
 36 62  1  0
M  END
>  <smiles>  (50) 
CO[C@H]1CCN(C(=O)CNC(=O)c2ccc3cc(F)ccc3n2)[C@H](C(=O)NCc2ccc(F)cc2)C1

>  <score_type>  (50) 
oracle

>  <origin>  (50) 
autodockgpu

>  <m_score__min__energy>  (50) 
-9.6500000000000004

>  <m_primary>  (50) 
energy

>  <rmsd>  (50) 
6.705445246601066

>  <m_score__min__rmsd>  (50) 
6.705445246601066

>  <meeko>  (50) 
{"free_energy": -7.11, "intermolecular_energy": -9.49, "internal_energy": -3.98, "cluster_size": 9, "cluster_id": 10, "rank_in_cluster": 2}

>  <energy>  (50) 
-6.78

>  <cluster_rmsd>  (50) 
0.0

>  <cluster>  (50) 
11

$$$$
