@<TRIPOS>MOLECULE
*****
 61 66 0 0 0
SMALL
GASTEIGER

@<TRIPOS>ATOM
      1 O         139.5910   74.6950  222.4150 O.2     1  UNL1       -0.2669
      2 C         140.5850   74.8770  221.6830 C.ar    1  UNL1        0.2629
      3 C         141.4170   73.8490  221.3200 C.ar    1  UNL1        0.0720
      4 C         141.1940   72.5560  221.7520 C.ar    1  UNL1       -0.0106
      5 C         140.0840   72.1790  222.6070 C.2     1  UNL1       -0.0532
      6 C         140.0860   71.0370  223.3210 C.2     1  UNL1       -0.0526
      7 C         140.2460   71.0090  224.7620 C.ar    1  UNL1       -0.0069
      8 C         141.0380   71.8690  225.4830 C.ar    1  UNL1       -0.0517
      9 C         141.1210   71.7560  226.8600 C.ar    1  UNL1       -0.0430
     10 C         140.4210   70.7910  227.5430 C.ar    1  UNL1        0.0276
     11 N         139.6530   69.9600  226.8370 N.ar    1  UNL1       -0.2627
     12 C         139.5590   70.0520  225.4990 C.ar    1  UNL1        0.0347
     13 C         142.1040   71.6060  221.3210 C.ar    1  UNL1       -0.0537
     14 C         143.1860   71.9370  220.4950 C.ar    1  UNL1       -0.0592
     15 C         143.3870   73.2250  220.0790 C.ar    1  UNL1       -0.0355
     16 C         142.4760   74.1680  220.5130 C.ar    1  UNL1        0.0791
     17 N         142.6420   75.4150  220.1310 N.ar    1  UNL1       -0.2293
     18 C         141.8380   76.4770  220.4670 C.ar    1  UNL1        0.1372
     19 C         142.1970   77.7210  219.8870 C.2     1  UNL1       -0.0170
     20 C         141.6780   78.4330  218.9340 C.2     1  UNL1       -0.0314
     21 C         140.9290   79.6790  219.2230 C.ar    1  UNL1        0.0827
     22 C         139.6520   79.8580  218.7410 C.ar    1  UNL1        0.0537
     23 N         138.9550   80.9900  218.9960 N.ar    1  UNL1       -0.2513
     24 C         139.5180   81.9650  219.7350 C.ar    1  UNL1        0.0892
     25 C         138.8460   83.1390  220.0220 C.ar    1  UNL1       -0.0342
     26 C         139.4410   84.1420  220.7900 C.ar    1  UNL1       -0.0596
     27 C         140.7310   83.9440  221.2680 C.ar    1  UNL1       -0.0596
     28 C         141.4230   82.7770  220.9930 C.ar    1  UNL1       -0.0342
     29 C         140.7960   81.8120  220.2300 C.ar    1  UNL1        0.0898
     30 N         141.4610   80.6680  219.9550 N.ar    1  UNL1       -0.2442
     31 N         140.8060   76.1700  221.2530 N.ar    1  UNL1       -0.2883
     32 C         139.8450   77.1250  221.7530 C.3     1  UNL1        0.0531
     33 C         140.4400   78.2560  222.4910 C.ar    1  UNL1       -0.0276
     34 C         141.6760   78.2910  223.0690 C.ar    1  UNL1       -0.0569
     35 C         142.1720   79.4180  223.7380 C.ar    1  UNL1       -0.0614
     36 C         141.4190   80.5640  223.8470 C.ar    1  UNL1       -0.0617
     37 C         140.1670   80.5470  223.2720 C.ar    1  UNL1       -0.0614
     38 C         139.6920   79.4360  222.6170 C.ar    1  UNL1       -0.0569
     39 H         139.2129   72.8473  222.6742 H       1  UNL1        0.0624
     40 H         139.9607   70.0833  222.7874 H       1  UNL1        0.0624
     41 H         141.6095   72.6520  224.9631 H       1  UNL1        0.0624
     42 H         141.7612   72.4538  227.4196 H       1  UNL1        0.0633
     43 H         140.4918   70.7065  228.6375 H       1  UNL1        0.0829
     44 H         138.9116   69.3404  224.9657 H       1  UNL1        0.0835
     45 H         141.9737   70.5603  221.6364 H       1  UNL1        0.0624
     46 H         143.8846   71.1495  220.1760 H       1  UNL1        0.0618
     47 H         144.2330   73.4962  219.4304 H       1  UNL1        0.0639
     48 H         143.0948   78.1723  220.3345 H       1  UNL1        0.0655
     49 H         141.7964   78.1051  217.8907 H       1  UNL1        0.0640
     50 H         139.1884   79.0647  218.1361 H       1  UNL1        0.0851
     51 H         137.8253   83.2852  219.6388 H       1  UNL1        0.0639
     52 H         138.8983   85.0725  221.0128 H       1  UNL1        0.0618
     53 H         141.2097   84.7270  221.8744 H       1  UNL1        0.0618
     54 H         142.4441   82.6227  221.3718 H       1  UNL1        0.0639
     55 H         139.2838   77.5290  220.8976 H       1  UNL1        0.0543
     56 H         139.2060   76.5845  222.4668 H       1  UNL1        0.0543
     57 H         142.3109   77.3949  223.0069 H       1  UNL1        0.0621
     58 H         143.1778   79.3858  224.1823 H       1  UNL1        0.0618
     59 H         141.7993   81.4540  224.3697 H       1  UNL1        0.0618
     60 H         139.5329   81.4434  223.3387 H       1  UNL1        0.0618
     61 H         138.6858   79.4736  222.1742 H       1  UNL1        0.0621
@<TRIPOS>BOND
     1     1     2    2
     2     2     3   ar
     3     3     4   ar
     4     4     5    1
     5     5     6    2
     6     6     7    1
     7     7     8   ar
     8     8     9   ar
     9     9    10   ar
    10    10    11   ar
    11    11    12   ar
    12     4    13   ar
    13    13    14   ar
    14    14    15   ar
    15    15    16   ar
    16    16    17   ar
    17    17    18   ar
    18    18    19    1
    19    19    20    2
    20    20    21    1
    21    21    22   ar
    22    22    23   ar
    23    23    24   ar
    24    24    25   ar
    25    25    26   ar
    26    26    27   ar
    27    27    28   ar
    28    28    29   ar
    29    29    30   ar
    30    18    31   ar
    31    31    32    1
    32    32    33    1
    33    33    34   ar
    34    34    35   ar
    35    35    36   ar
    36    36    37   ar
    37    37    38   ar
    38    31     2   ar
    39    38    33   ar
    40    16     3   ar
    41    30    21   ar
    42    12     7   ar
    43    29    24   ar
    44     5    39    1
    45     6    40    1
    46     8    41    1
    47     9    42    1
    48    10    43    1
    49    12    44    1
    50    13    45    1
    51    14    46    1
    52    15    47    1
    53    19    48    1
    54    20    49    1
    55    22    50    1
    56    25    51    1
    57    26    52    1
    58    27    53    1
    59    28    54    1
    60    32    55    1
    61    32    56    1
    62    34    57    1
    63    35    58    1
    64    36    59    1
    65    37    60    1
    66    38    61    1
