@<TRIPOS>MOLECULE
*****
 52 55 0 0 0
SMALL
GASTEIGER

@<TRIPOS>ATOM
      1 O         140.0170   71.5740  221.0870 O.2     1  UNL1       -0.2685
      2 C         139.8600   72.1120  222.2260 C.2     1  UNL1        0.2628
      3 N         139.6790   73.5240  222.3580 N.am    1  UNL1       -0.3015
      4 C         139.6680   74.3940  221.2010 C.3     1  UNL1        0.0887
      5 C         140.3920   75.6800  221.5140 C.2     1  UNL1        0.2331
      6 O         140.1790   76.1420  222.6660 O.2     1  UNL1       -0.2739
      7 N         141.2460   76.3050  220.5630 N.am    1  UNL1       -0.2943
      8 C         141.5780   75.6860  219.2930 C.3     1  UNL1        0.0411
      9 C         142.5330   76.7080  218.6680 C.3     1  UNL1        0.0726
     10 O         143.8510   76.4150  219.0350 O.3     1  UNL1       -0.3902
     11 C         142.1790   78.0210  219.3490 C.3     1  UNL1       -0.0064
     12 C         141.8630   77.5730  220.7390 C.3     1  UNL1        0.0313
     13 C         141.1490   78.5770  221.5640 C.3     1  UNL1       -0.0223
     14 C         141.2590   79.9930  221.1330 C.3     1  UNL1       -0.0485
     15 C         140.6390   80.7080  222.3440 C.3     1  UNL1       -0.0527
     16 C         141.2400   79.9620  223.5210 C.3     1  UNL1       -0.0527
     17 C         141.7780   78.6480  222.9630 C.3     1  UNL1       -0.0485
     18 C         139.8630   71.2810  223.4210 C.ar    1  UNL1        0.1260
     19 C         139.3850   69.9870  223.3680 C.ar    1  UNL1       -0.0306
     20 C         139.3620   69.1530  224.4670 C.ar    1  UNL1       -0.0503
     21 C         139.8490   69.6740  225.6530 C.ar    1  UNL1        0.0031
     22 C         139.8520   68.8850  226.7830 C.ar    1  UNL1       -0.0173
     23 C         140.3290   69.3960  227.9480 C.ar    1  UNL1        0.1241
     24 F         140.3390   68.6290  229.0770 F       1  UNL1       -0.2055
     25 C         140.8110   70.6880  228.0200 C.ar    1  UNL1       -0.0244
     26 C         140.8220   71.5010  226.9090 C.ar    1  UNL1       -0.0330
     27 C         140.3330   70.9820  225.7090 C.ar    1  UNL1        0.0720
     28 N         140.3260   71.7520  224.5860 N.ar    1  UNL1       -0.2421
     29 H         139.5550   73.8970  223.3340 H       1  UNL1        0.1496
     30 H         140.1685   73.8895  220.3614 H       1  UNL1        0.0558
     31 H         138.6263   74.6230  220.9320 H       1  UNL1        0.0558
     32 H         142.0749   74.7158  219.4411 H       1  UNL1        0.0490
     33 H         140.6996   75.4663  218.6684 H       1  UNL1        0.0490
     34 H         142.4488   76.7209  217.5713 H       1  UNL1        0.0609
     35 H         144.4370   76.3220  218.2460 H       1  UNL1        0.2098
     36 H         143.0288   78.7194  219.3374 H       1  UNL1        0.0309
     37 H         141.3583   78.5672  218.8611 H       1  UNL1        0.0309
     38 H         142.7570   77.4655  221.3708 H       1  UNL1        0.0504
     39 H         140.1080   78.2285  221.4947 H       1  UNL1        0.0319
     40 H         142.3070   80.2899  220.9798 H       1  UNL1        0.0269
     41 H         140.7727   80.2170  220.1721 H       1  UNL1        0.0269
     42 H         140.9211   81.7710  222.3632 H       1  UNL1        0.0265
     43 H         139.5391   80.6980  222.3386 H       1  UNL1        0.0265
     44 H         142.0560   80.5489  223.9679 H       1  UNL1        0.0265
     45 H         140.4920   79.7865  224.3082 H       1  UNL1        0.0265
     46 H         142.8761   78.6659  222.9013 H       1  UNL1        0.0269
     47 H         141.5314   77.7795  223.5913 H       1  UNL1        0.0269
     48 H         139.0063   69.6045  222.4087 H       1  UNL1        0.0641
     49 H         138.9757   68.1250  224.4036 H       1  UNL1        0.0625
     50 H         139.4725   67.8533  226.7421 H       1  UNL1        0.0653
     51 H         141.1912   71.0728  228.9778 H       1  UNL1        0.0647
     52 H         141.2053   72.5305  226.9654 H       1  UNL1        0.0640
@<TRIPOS>BOND
     1     1     2    2
     2     2     3   am
     3     3     4    1
     4     4     5    1
     5     5     6    2
     6     5     7   am
     7     7     8    1
     8     8     9    1
     9     9    10    1
    10     9    11    1
    11    11    12    1
    12    12    13    1
    13    13    14    1
    14    14    15    1
    15    15    16    1
    16    16    17    1
    17     2    18    1
    18    18    19   ar
    19    19    20   ar
    20    20    21   ar
    21    21    22   ar
    22    22    23   ar
    23    23    24    1
    24    23    25   ar
    25    25    26   ar
    26    26    27   ar
    27    27    28   ar
    28    12     7    1
    29    17    13    1
    30    28    18   ar
    31    27    21   ar
    32     3    29    1
    33     4    30    1
    34     4    31    1
    35     8    32    1
    36     8    33    1
    37     9    34    1
    38    10    35    1
    39    11    36    1
    40    11    37    1
    41    12    38    1
    42    13    39    1
    43    14    40    1
    44    14    41    1
    45    15    42    1
    46    15    43    1
    47    16    44    1
    48    16    45    1
    49    17    46    1
    50    17    47    1
    51    19    48    1
    52    20    49    1
    53    22    50    1
    54    25    51    1
    55    26    52    1
