
     RDKit          3D

 59 62  0  0  0  0  0  0  0  0999 V2000
  141.8760   77.7290  219.5320 C   0  0  0  0  0  0  0  0  0  0  0  0
  142.4730   76.5730  219.8840 O   0  0  0  0  0  0  0  0  0  0  0  0
  143.5540   76.1760  219.2230 C   0  0  0  0  0  0  0  0  0  0  0  0
  144.0130   74.7530  219.2190 C   0  0  1  0  0  0  0  0  0  0  0  0
  144.7390   74.4060  220.4730 C   0  0  0  0  0  0  0  0  0  0  0  0
  144.2140   72.9950  220.7810 C   0  0  2  0  0  0  0  0  0  0  0  0
  144.8910   71.9550  219.9940 C   0  0  0  0  0  0  0  0  0  0  0  0
  145.9890   72.1170  219.3930 O   0  0  0  0  0  0  0  0  0  0  0  0
  144.3200   70.6380  219.8590 N   0  0  0  0  0  0  0  0  0  0  0  0
  145.0020   69.6390  219.0660 C   0  0  0  0  0  0  0  0  0  0  0  0
  145.3140   69.8980  217.7580 C   0  0  0  0  0  0  0  0  0  0  0  0
  145.9810   68.8700  217.0770 C   0  0  0  0  0  0  0  0  0  0  0  0
  146.2930   67.6820  217.7010 C   0  0  0  0  0  0  0  0  0  0  0  0
  145.9620   67.4560  219.0260 C   0  0  0  0  0  0  0  0  0  0  0  0
  145.2950   68.4690  219.7290 C   0  0  0  0  0  0  0  0  0  0  0  0
  142.8250   73.1340  220.4950 N   0  0  0  0  0  0  0  0  0  0  0  0
  141.6610   72.7490  221.2110 C   0  0  0  0  0  0  0  0  0  0  0  0
  141.6330   71.7720  221.9760 O   0  0  0  0  0  0  0  0  0  0  0  0
  140.4280   73.5890  221.0080 C   0  0  0  0  0  0  0  0  0  0  0  0
  140.6820   74.9550  221.4610 N   0  0  0  0  0  0  0  0  0  0  0  0
  139.5700   75.6910  222.0100 C   0  0  0  0  0  0  0  0  0  0  0  0
  138.4210   75.2000  222.1070 O   0  0  0  0  0  0  0  0  0  0  0  0
  139.8680   77.0690  222.4520 C   0  0  0  0  0  0  0  0  0  0  0  0
  138.8130   77.9240  222.7620 C   0  0  0  0  0  0  0  0  0  0  0  0
  139.0170   79.2190  223.1820 C   0  0  0  0  0  0  0  0  0  0  0  0
  140.3190   79.6550  223.2880 C   0  0  0  0  0  0  0  0  0  0  0  0
  140.6210   80.9470  223.7020 C   0  0  0  0  0  0  0  0  0  0  0  0
  141.9360   81.3550  223.7970 C   0  0  0  0  0  0  0  0  0  0  0  0
  143.0020   80.5000  223.4860 C   0  0  0  0  0  0  0  0  0  0  0  0
  142.6210   79.2300  223.0800 C   0  0  0  0  0  0  0  0  0  0  0  0
  141.3340   78.8030  222.9790 C   0  0  0  0  0  0  0  0  0  0  0  0
  141.1440   77.5170  222.5630 N   0  0  0  0  0  0  0  0  0  0  0  0
  142.7790   73.8280  219.2140 C   0  0  0  0  0  0  0  0  0  0  0  0
  141.5893   78.2841  220.4373 H   0  0  0  0  0  0  0  0  0  0  0  0
  142.5737   78.3353  218.9357 H   0  0  0  0  0  0  0  0  0  0  0  0
  140.9777   77.5110  218.9357 H   0  0  0  0  0  0  0  0  0  0  0  0
  143.3852   76.4460  218.1701 H   0  0  0  0  0  0  0  0  0  0  0  0
  144.3586   76.6720  219.7857 H   0  0  0  0  0  0  0  0  0  0  0  0
  144.6614   74.6285  218.3392 H   0  0  0  0  0  0  0  0  0  0  0  0
  145.8273   74.3993  220.3135 H   0  0  0  0  0  0  0  0  0  0  0  0
  144.5723   75.1240  221.2895 H   0  0  0  0  0  0  0  0  0  0  0  0
  144.4035   72.6565  221.8103 H   0  0  0  0  0  0  0  0  0  0  0  0
  143.4260   70.3650  220.3170 H   0  0  0  0  0  0  0  0  0  0  0  0
  145.0577   70.8514  217.2728 H   0  0  0  0  0  0  0  0  0  0  0  0
  146.2609   69.0149  216.0231 H   0  0  0  0  0  0  0  0  0  0  0  0
  146.8158   66.8971  217.1348 H   0  0  0  0  0  0  0  0  0  0  0  0
  146.2163   66.5043  219.5156 H   0  0  0  0  0  0  0  0  0  0  0  0
  145.0130   68.3323  220.7834 H   0  0  0  0  0  0  0  0  0  0  0  0
  140.1656   73.6009  219.9398 H   0  0  0  0  0  0  0  0  0  0  0  0
  139.5968   73.1617  221.5880 H   0  0  0  0  0  0  0  0  0  0  0  0
  141.6380   75.3670  221.3840 H   0  0  0  0  0  0  0  0  0  0  0  0
  137.7821   77.5519  222.6680 H   0  0  0  0  0  0  0  0  0  0  0  0
  138.1720   79.8805  223.4238 H   0  0  0  0  0  0  0  0  0  0  0  0
  139.8100   81.6459  223.9545 H   0  0  0  0  0  0  0  0  0  0  0  0
  142.1538   82.3816  224.1266 H   0  0  0  0  0  0  0  0  0  0  0  0
  144.0547   80.8109  223.5580 H   0  0  0  0  0  0  0  0  0  0  0  0
  143.4173   78.5166  222.8210 H   0  0  0  0  0  0  0  0  0  0  0  0
  142.8369   73.1100  218.3826 H   0  0  0  0  0  0  0  0  0  0  0  0
  141.8420   74.3885  219.0802 H   0  0  0  0  0  0  0  0  0  0  0  0
  1  2  1  0
  2  3  1  0
  3  4  1  0
  4  5  1  0
  5  6  1  0
  6  7  1  0
  7  8  2  0
  7  9  1  0
  9 10  1  0
 10 11  2  0
 11 12  1  0
 12 13  2  0
 13 14  1  0
 14 15  2  0
  6 16  1  0
 16 17  1  0
 17 18  2  0
 17 19  1  0
 19 20  1  0
 20 21  1  0
 21 22  2  0
 21 23  1  0
 23 24  2  0
 24 25  1  0
 25 26  2  0
 26 27  1  0
 27 28  2  0
 28 29  1  0
 29 30  2  0
 30 31  1  0
 31 32  2  0
 16 33  1  0
 33  4  1  0
 15 10  1  0
 32 23  1  0
 31 26  1  0
  1 34  1  0
  1 35  1  0
  1 36  1  0
  3 37  1  0
  3 38  1  0
  4 39  1  6
  5 40  1  0
  5 41  1  0
  6 42  1  1
  9 43  1  0
 11 44  1  0
 12 45  1  0
 13 46  1  0
 14 47  1  0
 15 48  1  0
 19 49  1  0
 19 50  1  0
 20 51  1  0
 24 52  1  0
 25 53  1  0
 27 54  1  0
 28 55  1  0
 29 56  1  0
 30 57  1  0
 33 58  1  0
 33 59  1  0
M  END
>  <smiles>  (1) 
COC[C@H]1C[C@H](C(=O)Nc2ccccc2)N(C(=O)CNC(=O)c2ccc3ccccc3n2)C1

>  <score_type>  (1) 
oracle

>  <origin>  (1) 
autodockgpu

>  <m_score__min__energy>  (1) 
-9.5399999999999991

>  <m_primary>  (1) 
energy

>  <rmsd>  (1) 
9.029849319779903

>  <m_score__min__rmsd>  (1) 
9.029849319779903

>  <meeko>  (1) 
{"free_energy": -7.98, "intermolecular_energy": -10.37, "internal_energy": -3.33, "cluster_size": 7, "cluster_id": 3, "rank_in_cluster": 2}

>  <energy>  (1) 
-9.54

>  <cluster_rmsd>  (1) 
0.0

>  <cluster>  (1) 
1

$$$$

     RDKit          3D

 59 62  0  0  0  0  0  0  0  0999 V2000
  146.1130   73.7480  221.0210 C   0  0  0  0  0  0  0  0  0  0  0  0
  145.0550   72.9160  220.9460 O   0  0  0  0  0  0  0  0  0  0  0  0
  143.9770   73.3000  220.2740 C   0  0  0  0  0  0  0  0  0  0  0  0
  143.1500   74.4740  220.6900 C   0  0  1  0  0  0  0  0  0  0  0  0
  142.7750   75.3230  219.5250 C   0  0  0  0  0  0  0  0  0  0  0  0
  141.3150   75.6880  219.8370 C   0  0  2  0  0  0  0  0  0  0  0  0
  141.2020   76.7970  220.7960 C   0  0  0  0  0  0  0  0  0  0  0  0
  140.3010   76.8900  221.6750 O   0  0  0  0  0  0  0  0  0  0  0  0
  142.1500   77.8830  220.7880 N   0  0  0  0  0  0  0  0  0  0  0  0
  142.0050   78.9670  221.7340 C   0  0  0  0  0  0  0  0  0  0  0  0
  142.0450   78.7130  223.0790 C   0  0  0  0  0  0  0  0  0  0  0  0
  141.9010   79.8310  223.9130 C   0  0  0  0  0  0  0  0  0  0  0  0
  141.7310   81.0950  223.3930 C   0  0  0  0  0  0  0  0  0  0  0  0
  141.6960   81.3140  222.0270 C   0  0  0  0  0  0  0  0  0  0  0  0
  141.8380   80.2130  221.1720 C   0  0  0  0  0  0  0  0  0  0  0  0
  140.8020   74.4470  220.3130 N   0  0  0  0  0  0  0  0  0  0  0  0
  139.6150   73.7280  220.0120 C   0  0  0  0  0  0  0  0  0  0  0  0
  139.4690   73.0790  218.9650 O   0  0  0  0  0  0  0  0  0  0  0  0
  138.5100   73.7810  221.0330 C   0  0  0  0  0  0  0  0  0  0  0  0
  138.9450   73.1230  222.2640 N   0  0  0  0  0  0  0  0  0  0  0  0
  138.8930   71.6820  222.3020 C   0  0  0  0  0  0  0  0  0  0  0  0
  138.4960   70.9980  221.3300 O   0  0  0  0  0  0  0  0  0  0  0  0
  139.3360   71.0570  223.5650 C   0  0  0  0  0  0  0  0  0  0  0  0
  139.2120   69.6780  223.7180 C   0  0  0  0  0  0  0  0  0  0  0  0
  139.6070   69.0290  224.8660 C   0  0  0  0  0  0  0  0  0  0  0  0
  140.1370   69.7960  225.8800 C   0  0  0  0  0  0  0  0  0  0  0  0
  140.5600   69.2270  227.0750 C   0  0  0  0  0  0  0  0  0  0  0  0
  141.0850   70.0230  228.0730 C   0  0  0  0  0  0  0  0  0  0  0  0
  141.2110   71.4110  227.9260 C   0  0  0  0  0  0  0  0  0  0  0  0
  140.7660   71.9030  226.7080 C   0  0  0  0  0  0  0  0  0  0  0  0
  140.2470   71.1410  225.7090 C   0  0  0  0  0  0  0  0  0  0  0  0
  139.8600   71.7960  224.5750 N   0  0  0  0  0  0  0  0  0  0  0  0
  141.8070   73.9680  221.2540 C   0  0  0  0  0  0  0  0  0  0  0  0
  146.3554   73.9386  222.0769 H   0  0  0  0  0  0  0  0  0  0  0  0
  146.9786   73.2861  220.5237 H   0  0  0  0  0  0  0  0  0  0  0  0
  145.8683   74.6981  220.5237 H   0  0  0  0  0  0  0  0  0  0  0  0
  144.3148   73.5115  219.2487 H   0  0  0  0  0  0  0  0  0  0  0  0
  143.2875   72.4620  220.4535 H   0  0  0  0  0  0  0  0  0  0  0  0
  143.7468   75.0434  221.4178 H   0  0  0  0  0  0  0  0  0  0  0  0
  143.4063   76.2220  219.4685 H   0  0  0  0  0  0  0  0  0  0  0  0
  142.9040   74.8196  218.5555 H   0  0  0  0  0  0  0  0  0  0  0  0
  140.7513   76.0774  218.9764 H   0  0  0  0  0  0  0  0  0  0  0  0
  142.9520   77.9230  220.1250 H   0  0  0  0  0  0  0  0  0  0  0  0
  142.1813   77.6975  223.4793 H   0  0  0  0  0  0  0  0  0  0  0  0
  141.9243   79.6958  225.0044 H   0  0  0  0  0  0  0  0  0  0  0  0
  141.6207   81.9486  224.0780 H   0  0  0  0  0  0  0  0  0  0  0  0
  141.5600   82.3278  221.6223 H   0  0  0  0  0  0  0  0  0  0  0  0
  141.8166   80.3407  220.0796 H   0  0  0  0  0  0  0  0  0  0  0  0
  138.2606   74.8306  221.2478 H   0  0  0  0  0  0  0  0  0  0  0  0
  137.6232   73.2643  220.6374 H   0  0  0  0  0  0  0  0  0  0  0  0
  139.2780   73.6880  223.0750 H   0  0  0  0  0  0  0  0  0  0  0  0
  138.7842   69.0880  222.8941 H   0  0  0  0  0  0  0  0  0  0  0  0
  139.5033   67.9388  224.9697 H   0  0  0  0  0  0  0  0  0  0  0  0
  140.4764   68.1406  227.2259 H   0  0  0  0  0  0  0  0  0  0  0  0
  141.4144   69.5538  229.0118 H   0  0  0  0  0  0  0  0  0  0  0  0
  141.6286   72.0572  228.7121 H   0  0  0  0  0  0  0  0  0  0  0  0
  140.8382   72.9874  226.5382 H   0  0  0  0  0  0  0  0  0  0  0  0
  141.6273   74.3827  222.2569 H   0  0  0  0  0  0  0  0  0  0  0  0
  141.7878   72.8732  221.3595 H   0  0  0  0  0  0  0  0  0  0  0  0
  1  2  1  0
  2  3  1  0
  3  4  1  0
  4  5  1  0
  5  6  1  0
  6  7  1  0
  7  8  2  0
  7  9  1  0
  9 10  1  0
 10 11  2  0
 11 12  1  0
 12 13  2  0
 13 14  1  0
 14 15  2  0
  6 16  1  0
 16 17  1  0
 17 18  2  0
 17 19  1  0
 19 20  1  0
 20 21  1  0
 21 22  2  0
 21 23  1  0
 23 24  2  0
 24 25  1  0
 25 26  2  0
 26 27  1  0
 27 28  2  0
 28 29  1  0
 29 30  2  0
 30 31  1  0
 31 32  2  0
 16 33  1  0
 33  4  1  0
 15 10  1  0
 32 23  1  0
 31 26  1  0
  1 34  1  0
  1 35  1  0
  1 36  1  0
  3 37  1  0
  3 38  1  0
  4 39  1  1
  5 40  1  0
  5 41  1  0
  6 42  1  6
  9 43  1  0
 11 44  1  0
 12 45  1  0
 13 46  1  0
 14 47  1  0
 15 48  1  0
 19 49  1  0
 19 50  1  0
 20 51  1  0
 24 52  1  0
 25 53  1  0
 27 54  1  0
 28 55  1  0
 29 56  1  0
 30 57  1  0
 33 58  1  0
 33 59  1  0
M  END
>  <smiles>  (2) 
COC[C@H]1C[C@H](C(=O)Nc2ccccc2)N(C(=O)CNC(=O)c2ccc3ccccc3n2)C1

>  <score_type>  (2) 
oracle

>  <origin>  (2) 
autodockgpu

>  <m_score__min__energy>  (2) 
-9.5399999999999991

>  <m_primary>  (2) 
energy

>  <rmsd>  (2) 
2.751164489597786

>  <m_score__min__rmsd>  (2) 
2.751164489597786

>  <meeko>  (2) 
{"free_energy": -9.02, "intermolecular_energy": -11.41, "internal_energy": -2.12, "cluster_size": 30, "cluster_id": 1, "rank_in_cluster": 20}

>  <energy>  (2) 
-9.51

>  <cluster_rmsd>  (2) 
0.34

>  <cluster>  (2) 
1

$$$$

     RDKit          3D

 59 62  0  0  0  0  0  0  0  0999 V2000
  145.1870   71.3070  218.3140 C   0  0  0  0  0  0  0  0  0  0  0  0
  145.8670   72.4290  218.6250 O   0  0  0  0  0  0  0  0  0  0  0  0
  145.5670   73.0770  219.7430 C   0  0  0  0  0  0  0  0  0  0  0  0
  144.6050   74.2220  219.7730 C   0  0  1  0  0  0  0  0  0  0  0  0
  143.8440   74.3330  218.4970 C   0  0  0  0  0  0  0  0  0  0  0  0
  142.4270   74.6730  218.9850 C   0  0  2  0  0  0  0  0  0  0  0  0
  142.2660   76.0970  219.3100 C   0  0  0  0  0  0  0  0  0  0  0  0
  142.5210   76.6040  220.4370 O   0  0  0  0  0  0  0  0  0  0  0  0
  141.7900   77.0330  218.3220 N   0  0  0  0  0  0  0  0  0  0  0  0
  141.6280   78.4260  218.6750 C   0  0  0  0  0  0  0  0  0  0  0  0
  142.5790   79.3420  218.3060 C   0  0  0  0  0  0  0  0  0  0  0  0
  142.3270   80.6670  218.6890 C   0  0  0  0  0  0  0  0  0  0  0  0
  141.1910   81.0060  219.3920 C   0  0  0  0  0  0  0  0  0  0  0  0
  140.2520   80.0530  219.7470 C   0  0  0  0  0  0  0  0  0  0  0  0
  140.4810   78.7210  219.3750 C   0  0  0  0  0  0  0  0  0  0  0  0
  142.2880   73.7980  220.1010 N   0  0  0  0  0  0  0  0  0  0  0  0
  141.2440   72.9210  220.5000 C   0  0  0  0  0  0  0  0  0  0  0  0
  141.1010   71.7840  220.0240 O   0  0  0  0  0  0  0  0  0  0  0  0
  140.2920   73.4310  221.5490 C   0  0  0  0  0  0  0  0  0  0  0  0
  140.5890   74.8310  221.8460 N   0  0  0  0  0  0  0  0  0  0  0  0
  139.4890   75.6750  222.2390 C   0  0  0  0  0  0  0  0  0  0  0  0
  138.3140   75.2490  222.3320 O   0  0  0  0  0  0  0  0  0  0  0  0
  139.8310   77.0840  222.5250 C   0  0  0  0  0  0  0  0  0  0  0  0
  138.8040   78.0030  222.7270 C   0  0  0  0  0  0  0  0  0  0  0  0
  139.0500   79.3300  223.0000 C   0  0  0  0  0  0  0  0  0  0  0  0
  140.3650   79.7320  223.0670 C   0  0  0  0  0  0  0  0  0  0  0  0
  140.7080   81.0520  223.3360 C   0  0  0  0  0  0  0  0  0  0  0  0
  142.0360   81.4240  223.3950 C   0  0  0  0  0  0  0  0  0  0  0  0
  143.0740   80.5040  223.1920 C   0  0  0  0  0  0  0  0  0  0  0  0
  142.6520   79.2100  222.9290 C   0  0  0  0  0  0  0  0  0  0  0  0
  141.3520   78.8170  222.8650 C   0  0  0  0  0  0  0  0  0  0  0  0
  141.1210   77.4990  222.5960 N   0  0  0  0  0  0  0  0  0  0  0  0
  143.5310   73.9480  220.8460 C   0  0  0  0  0  0  0  0  0  0  0  0
  144.8781   70.7973  219.2385 H   0  0  0  0  0  0  0  0  0  0  0  0
  144.2960   71.5697  217.7249 H   0  0  0  0  0  0  0  0  0  0  0  0
  145.8322   70.6387  217.7249 H   0  0  0  0  0  0  0  0  0  0  0  0
  145.1659   72.3224  220.4356 H   0  0  0  0  0  0  0  0  0  0  0  0
  146.5191   73.5752  219.9782 H   0  0  0  0  0  0  0  0  0  0  0  0
  145.1950   75.1309  219.9624 H   0  0  0  0  0  0  0  0  0  0  0  0
  144.2486   75.1341  217.8610 H   0  0  0  0  0  0  0  0  0  0  0  0
  143.8891   73.4245  217.8784 H   0  0  0  0  0  0  0  0  0  0  0  0
  141.6409   74.5259  218.2298 H   0  0  0  0  0  0  0  0  0  0  0  0
  141.5580   76.7500  217.3480 H   0  0  0  0  0  0  0  0  0  0  0  0
  143.4813   79.0559  217.7457 H   0  0  0  0  0  0  0  0  0  0  0  0
  143.0505   81.4518  218.4231 H   0  0  0  0  0  0  0  0  0  0  0  0
  141.0272   82.0558  219.6769 H   0  0  0  0  0  0  0  0  0  0  0  0
  139.3481   80.3340  220.3074 H   0  0  0  0  0  0  0  0  0  0  0  0
  139.7614   77.9312  219.6363 H   0  0  0  0  0  0  0  0  0  0  0  0
  139.2599   73.3471  221.1778 H   0  0  0  0  0  0  0  0  0  0  0  0
  140.4053   72.8327  222.4651 H   0  0  0  0  0  0  0  0  0  0  0  0
  141.5670   75.1900  221.7720 H   0  0  0  0  0  0  0  0  0  0  0  0
  137.7616   77.6571  222.6664 H   0  0  0  0  0  0  0  0  0  0  0  0
  138.2268   80.0421  223.1586 H   0  0  0  0  0  0  0  0  0  0  0  0
  139.9199   81.8012  223.5021 H   0  0  0  0  0  0  0  0  0  0  0  0
  142.2872   82.4736  223.6076 H   0  0  0  0  0  0  0  0  0  0  0  0
  144.1363   80.7858  223.2377 H   0  0  0  0  0  0  0  0  0  0  0  0
  143.4249   78.4458  222.7598 H   0  0  0  0  0  0  0  0  0  0  0  0
  143.4618   74.7914  221.5488 H   0  0  0  0  0  0  0  0  0  0  0  0
  143.7639   73.0570  221.4475 H   0  0  0  0  0  0  0  0  0  0  0  0
  1  2  1  0
  2  3  1  0
  3  4  1  0
  4  5  1  0
  5  6  1  0
  6  7  1  0
  7  8  2  0
  7  9  1  0
  9 10  1  0
 10 11  2  0
 11 12  1  0
 12 13  2  0
 13 14  1  0
 14 15  2  0
  6 16  1  0
 16 17  1  0
 17 18  2  0
 17 19  1  0
 19 20  1  0
 20 21  1  0
 21 22  2  0
 21 23  1  0
 23 24  2  0
 24 25  1  0
 25 26  2  0
 26 27  1  0
 27 28  2  0
 28 29  1  0
 29 30  2  0
 30 31  1  0
 31 32  2  0
 16 33  1  0
 33  4  1  0
 15 10  1  0
 32 23  1  0
 31 26  1  0
  1 34  1  0
  1 35  1  0
  1 36  1  0
  3 37  1  0
  3 38  1  0
  4 39  1  1
  5 40  1  0
  5 41  1  0
  6 42  1  6
  9 43  1  0
 11 44  1  0
 12 45  1  0
 13 46  1  0
 14 47  1  0
 15 48  1  0
 19 49  1  0
 19 50  1  0
 20 51  1  0
 24 52  1  0
 25 53  1  0
 27 54  1  0
 28 55  1  0
 29 56  1  0
 30 57  1  0
 33 58  1  0
 33 59  1  0
M  END
>  <smiles>  (3) 
COC[C@H]1C[C@H](C(=O)Nc2ccccc2)N(C(=O)CNC(=O)c2ccc3ccccc3n2)C1

>  <score_type>  (3) 
oracle

>  <origin>  (3) 
autodockgpu

>  <m_score__min__energy>  (3) 
-9.5399999999999991

>  <m_primary>  (3) 
energy

>  <rmsd>  (3) 
6.685014089219124

>  <m_score__min__rmsd>  (3) 
6.685014089219124

>  <meeko>  (3) 
{"free_energy": -6.89, "intermolecular_energy": -9.28, "internal_energy": -4.26, "cluster_size": 12, "cluster_id": 4, "rank_in_cluster": 10}

>  <energy>  (3) 
-9.47

>  <cluster_rmsd>  (3) 
0.24

>  <cluster>  (3) 
1

$$$$

     RDKit          3D

 59 62  0  0  0  0  0  0  0  0999 V2000
  145.3970   73.8550  220.7380 C   0  0  0  0  0  0  0  0  0  0  0  0
  144.2330   73.1800  220.8240 O   0  0  0  0  0  0  0  0  0  0  0  0
  143.1470   73.6900  220.2570 C   0  0  0  0  0  0  0  0  0  0  0  0
  142.6530   75.0670  220.5660 C   0  0  1  0  0  0  0  0  0  0  0  0
  142.1410   75.7540  219.3470 C   0  0  0  0  0  0  0  0  0  0  0  0
  140.8850   76.4680  219.8720 C   0  0  2  0  0  0  0  0  0  0  0  0
  141.1980   77.7290  220.5610 C   0  0  0  0  0  0  0  0  0  0  0  0
  141.2830   78.8510  219.9900 O   0  0  0  0  0  0  0  0  0  0  0  0
  141.4340   77.7570  221.9830 N   0  0  0  0  0  0  0  0  0  0  0  0
  141.7530   79.0100  222.6310 C   0  0  0  0  0  0  0  0  0  0  0  0
  143.0580   79.4180  222.7290 C   0  0  0  0  0  0  0  0  0  0  0  0
  143.2630   80.6490  223.3680 C   0  0  0  0  0  0  0  0  0  0  0  0
  142.2080   81.3850  223.8590 C   0  0  0  0  0  0  0  0  0  0  0  0
  140.9020   80.9410  223.7420 C   0  0  0  0  0  0  0  0  0  0  0  0
  140.6710   79.7140  223.1070 C   0  0  0  0  0  0  0  0  0  0  0  0
  140.3130   75.4690  220.7110 N   0  0  0  0  0  0  0  0  0  0  0  0
  138.9880   74.9740  220.8360 C   0  0  0  0  0  0  0  0  0  0  0  0
  137.9990   75.7170  220.9390 O   0  0  0  0  0  0  0  0  0  0  0  0
  138.8180   73.4780  220.8370 C   0  0  0  0  0  0  0  0  0  0  0  0
  139.1170   72.9500  222.1670 N   0  0  0  0  0  0  0  0  0  0  0  0
  139.5510   71.5770  222.2540 C   0  0  0  0  0  0  0  0  0  0  0  0
  139.6760   70.8460  221.2440 O   0  0  0  0  0  0  0  0  0  0  0  0
  139.8380   71.0810  223.6160 C   0  0  0  0  0  0  0  0  0  0  0  0
  139.5900   69.7440  223.9150 C   0  0  0  0  0  0  0  0  0  0  0  0
  139.8360   69.2120  225.1620 C   0  0  0  0  0  0  0  0  0  0  0  0
  140.3430   70.0570  226.1240 C   0  0  0  0  0  0  0  0  0  0  0  0
  140.6210   69.6100  227.4100 C   0  0  0  0  0  0  0  0  0  0  0  0
  141.1270   70.4820  228.3520 C   0  0  0  0  0  0  0  0  0  0  0  0
  141.3770   71.8300  228.0580 C   0  0  0  0  0  0  0  0  0  0  0  0
  141.0740   72.1990  226.7560 C   0  0  0  0  0  0  0  0  0  0  0  0
  140.5760   71.3610  225.8090 C   0  0  0  0  0  0  0  0  0  0  0  0
  140.3380   71.8980  224.5770 N   0  0  0  0  0  0  0  0  0  0  0  0
  141.4290   74.9640  221.5000 C   0  0  0  0  0  0  0  0  0  0  0  0
  145.7708   74.0717  221.7496 H   0  0  0  0  0  0  0  0  0  0  0  0
  146.1355   73.2450  220.1971 H   0  0  0  0  0  0  0  0  0  0  0  0
  145.2344   74.7989  220.1971 H   0  0  0  0  0  0  0  0  0  0  0  0
  143.3284   73.6663  219.1723 H   0  0  0  0  0  0  0  0  0  0  0  0
  142.3518   73.0626  220.6859 H   0  0  0  0  0  0  0  0  0  0  0  0
  143.4974   75.6184  221.0052 H   0  0  0  0  0  0  0  0  0  0  0  0
  142.8754   76.4750  218.9587 H   0  0  0  0  0  0  0  0  0  0  0  0
  141.9394   75.0699  218.5095 H   0  0  0  0  0  0  0  0  0  0  0  0
  140.1947   76.8068  219.0854 H   0  0  0  0  0  0  0  0  0  0  0  0
  141.3790   76.9050  222.5780 H   0  0  0  0  0  0  0  0  0  0  0  0
  143.8904   78.8184  222.3320 H   0  0  0  0  0  0  0  0  0  0  0  0
  144.2872   81.0345  223.4793 H   0  0  0  0  0  0  0  0  0  0  0  0
  142.4072   82.3465  224.3549 H   0  0  0  0  0  0  0  0  0  0  0  0
  140.0664   81.5369  224.1379 H   0  0  0  0  0  0  0  0  0  0  0  0
  139.6494   79.3228  222.9917 H   0  0  0  0  0  0  0  0  0  0  0  0
  137.7811   73.2275  220.5686 H   0  0  0  0  0  0  0  0  0  0  0  0
  139.5067   73.0322  220.1043 H   0  0  0  0  0  0  0  0  0  0  0  0
  139.0160   73.5560  223.0110 H   0  0  0  0  0  0  0  0  0  0  0  0
  139.1839   69.0902  223.1291 H   0  0  0  0  0  0  0  0  0  0  0  0
  139.6351   68.1529  225.3808 H   0  0  0  0  0  0  0  0  0  0  0  0
  140.4373   68.5590  227.6775 H   0  0  0  0  0  0  0  0  0  0  0  0
  141.3407   70.1084  229.3643 H   0  0  0  0  0  0  0  0  0  0  0  0
  141.7801   72.5363  228.7987 H   0  0  0  0  0  0  0  0  0  0  0  0
  141.2495   73.2462  226.4688 H   0  0  0  0  0  0  0  0  0  0  0  0
  141.5761   75.5787  222.4003 H   0  0  0  0  0  0  0  0  0  0  0  0
  141.2584   73.9344  221.8477 H   0  0  0  0  0  0  0  0  0  0  0  0
  1  2  1  0
  2  3  1  0
  3  4  1  0
  4  5  1  0
  5  6  1  0
  6  7  1  0
  7  8  2  0
  7  9  1  0
  9 10  1  0
 10 11  2  0
 11 12  1  0
 12 13  2  0
 13 14  1  0
 14 15  2  0
  6 16  1  0
 16 17  1  0
 17 18  2  0
 17 19  1  0
 19 20  1  0
 20 21  1  0
 21 22  2  0
 21 23  1  0
 23 24  2  0
 24 25  1  0
 25 26  2  0
 26 27  1  0
 27 28  2  0
 28 29  1  0
 29 30  2  0
 30 31  1  0
 31 32  2  0
 16 33  1  0
 33  4  1  0
 15 10  1  0
 32 23  1  0
 31 26  1  0
  1 34  1  0
  1 35  1  0
  1 36  1  0
  3 37  1  0
  3 38  1  0
  4 39  1  1
  5 40  1  0
  5 41  1  0
  6 42  1  6
  9 43  1  0
 11 44  1  0
 12 45  1  0
 13 46  1  0
 14 47  1  0
 15 48  1  0
 19 49  1  0
 19 50  1  0
 20 51  1  0
 24 52  1  0
 25 53  1  0
 27 54  1  0
 28 55  1  0
 29 56  1  0
 30 57  1  0
 33 58  1  0
 33 59  1  0
M  END
>  <smiles>  (4) 
COC[C@H]1C[C@H](C(=O)Nc2ccccc2)N(C(=O)CNC(=O)c2ccc3ccccc3n2)C1

>  <score_type>  (4) 
oracle

>  <origin>  (4) 
autodockgpu

>  <m_score__min__energy>  (4) 
-9.5399999999999991

>  <m_primary>  (4) 
energy

>  <rmsd>  (4) 
2.6762500749367364

>  <m_score__min__rmsd>  (4) 
2.6762500749367364

>  <meeko>  (4) 
{"free_energy": -9.15, "intermolecular_energy": -11.54, "internal_energy": -1.92, "cluster_size": 30, "cluster_id": 1, "rank_in_cluster": 17}

>  <energy>  (4) 
-9.46

>  <cluster_rmsd>  (4) 
0.58

>  <cluster>  (4) 
1

$$$$

     RDKit          3D

 59 62  0  0  0  0  0  0  0  0999 V2000
  138.2040   72.9500  218.7290 C   0  0  0  0  0  0  0  0  0  0  0  0
  137.4700   73.8250  219.4440 O   0  0  0  0  0  0  0  0  0  0  0  0
  137.6150   75.1250  219.2190 C   0  0  0  0  0  0  0  0  0  0  0  0
  138.4240   76.0080  220.1150 C   0  0  1  0  0  0  0  0  0  0  0  0
  138.3860   75.5400  221.5290 C   0  0  0  0  0  0  0  0  0  0  0  0
  139.8390   75.7450  221.9850 C   0  0  2  0  0  0  0  0  0  0  0  0
  140.1230   77.1380  222.3590 C   0  0  0  0  0  0  0  0  0  0  0  0
  139.2900   77.9140  222.9020 O   0  0  0  0  0  0  0  0  0  0  0  0
  141.4210   77.7190  222.1200 N   0  0  0  0  0  0  0  0  0  0  0  0
  141.6670   79.0970  222.4860 C   0  0  0  0  0  0  0  0  0  0  0  0
  141.3400   80.1050  221.6180 C   0  0  0  0  0  0  0  0  0  0  0  0
  141.6110   81.4050  222.0670 C   0  0  0  0  0  0  0  0  0  0  0  0
  142.1700   81.6330  223.3060 C   0  0  0  0  0  0  0  0  0  0  0  0
  142.4870   80.5880  224.1570 C   0  0  0  0  0  0  0  0  0  0  0  0
  142.2260   79.2790  223.7300 C   0  0  0  0  0  0  0  0  0  0  0  0
  140.5670   75.2830  220.8510 N   0  0  0  0  0  0  0  0  0  0  0  0
  141.6780   74.4080  220.7230 C   0  0  0  0  0  0  0  0  0  0  0  0
  142.8540   74.7970  220.7950 O   0  0  0  0  0  0  0  0  0  0  0  0
  141.3730   72.9520  220.4900 C   0  0  0  0  0  0  0  0  0  0  0  0
  141.3010   72.2530  221.7720 N   0  0  0  0  0  0  0  0  0  0  0  0
  139.9950   72.0580  222.3510 C   0  0  0  0  0  0  0  0  0  0  0  0
  138.9470   72.4600  221.7950 O   0  0  0  0  0  0  0  0  0  0  0  0
  139.9670   71.3520  223.6490 C   0  0  0  0  0  0  0  0  0  0  0  0
  139.3210   70.1210  223.7360 C   0  0  0  0  0  0  0  0  0  0  0  0
  139.2580   69.4070  224.9130 C   0  0  0  0  0  0  0  0  0  0  0  0
  139.8620   69.9550  226.0220 C   0  0  0  0  0  0  0  0  0  0  0  0
  139.8480   69.3080  227.2510 C   0  0  0  0  0  0  0  0  0  0  0  0
  140.4610   69.8840  228.3450 C   0  0  0  0  0  0  0  0  0  0  0  0
  141.1110   71.1230  228.2640 C   0  0  0  0  0  0  0  0  0  0  0  0
  141.0820   71.7060  227.0060 C   0  0  0  0  0  0  0  0  0  0  0  0
  140.4870   71.1600  225.9130 C   0  0  0  0  0  0  0  0  0  0  0  0
  140.5570   71.8760  224.7530 N   0  0  0  0  0  0  0  0  0  0  0  0
  139.9090   75.9080  219.7100 C   0  0  0  0  0  0  0  0  0  0  0  0
  138.7574   72.2903  219.4135 H   0  0  0  0  0  0  0  0  0  0  0  0
  137.5388   72.3455  218.0949 H   0  0  0  0  0  0  0  0  0  0  0  0
  138.9150   73.4999  218.0949 H   0  0  0  0  0  0  0  0  0  0  0  0
  138.0611   75.2143  218.2175 H   0  0  0  0  0  0  0  0  0  0  0  0
  136.5954   75.5000  219.3918 H   0  0  0  0  0  0  0  0  0  0  0  0
  138.0091   77.0227  220.0235 H   0  0  0  0  0  0  0  0  0  0  0  0
  137.6914   76.1455  222.1298 H   0  0  0  0  0  0  0  0  0  0  0  0
  138.0334   74.5039  221.6392 H   0  0  0  0  0  0  0  0  0  0  0  0
  140.1044   75.2064  222.9067 H   0  0  0  0  0  0  0  0  0  0  0  0
  142.2050   77.1840  221.6930 H   0  0  0  0  0  0  0  0  0  0  0  0
  140.8936   79.9071  220.6323 H   0  0  0  0  0  0  0  0  0  0  0  0
  141.3727   82.2602  221.4175 H   0  0  0  0  0  0  0  0  0  0  0  0
  142.3684   82.6668  223.6253 H   0  0  0  0  0  0  0  0  0  0  0  0
  142.9328   80.7804  225.1440 H   0  0  0  0  0  0  0  0  0  0  0  0
  142.4621   78.4185  224.3733 H   0  0  0  0  0  0  0  0  0  0  0  0
  140.4091   72.8592  219.9681 H   0  0  0  0  0  0  0  0  0  0  0  0
  142.1695   72.5064  219.8760 H   0  0  0  0  0  0  0  0  0  0  0  0
  142.1720   71.9140  222.2380 H   0  0  0  0  0  0  0  0  0  0  0  0
  138.8455   69.7051  222.8355 H   0  0  0  0  0  0  0  0  0  0  0  0
  138.7443   68.4356  224.9644 H   0  0  0  0  0  0  0  0  0  0  0  0
  139.3470   68.3340  227.3525 H   0  0  0  0  0  0  0  0  0  0  0  0
  140.4388   69.3550  229.3092 H   0  0  0  0  0  0  0  0  0  0  0  0
  141.6036   71.5943  229.1273 H   0  0  0  0  0  0  0  0  0  0  0  0
  141.5764   72.6810  226.8841 H   0  0  0  0  0  0  0  0  0  0  0  0
  140.3272   76.9079  219.5219 H   0  0  0  0  0  0  0  0  0  0  0  0
  140.0480   75.3306  218.7841 H   0  0  0  0  0  0  0  0  0  0  0  0
  1  2  1  0
  2  3  1  0
  3  4  1  0
  4  5  1  0
  5  6  1  0
  6  7  1  0
  7  8  2  0
  7  9  1  0
  9 10  1  0
 10 11  2  0
 11 12  1  0
 12 13  2  0
 13 14  1  0
 14 15  2  0
  6 16  1  0
 16 17  1  0
 17 18  2  0
 17 19  1  0
 19 20  1  0
 20 21  1  0
 21 22  2  0
 21 23  1  0
 23 24  2  0
 24 25  1  0
 25 26  2  0
 26 27  1  0
 27 28  2  0
 28 29  1  0
 29 30  2  0
 30 31  1  0
 31 32  2  0
 16 33  1  0
 33  4  1  0
 15 10  1  0
 32 23  1  0
 31 26  1  0
  1 34  1  0
  1 35  1  0
  1 36  1  0
  3 37  1  0
  3 38  1  0
  4 39  1  1
  5 40  1  0
  5 41  1  0
  6 42  1  1
  9 43  1  0
 11 44  1  0
 12 45  1  0
 13 46  1  0
 14 47  1  0
 15 48  1  0
 19 49  1  0
 19 50  1  0
 20 51  1  0
 24 52  1  0
 25 53  1  0
 27 54  1  0
 28 55  1  0
 29 56  1  0
 30 57  1  0
 33 58  1  0
 33 59  1  0
M  END
>  <smiles>  (5) 
COC[C@H]1C[C@H](C(=O)Nc2ccccc2)N(C(=O)CNC(=O)c2ccc3ccccc3n2)C1

>  <score_type>  (5) 
oracle

>  <origin>  (5) 
autodockgpu

>  <m_score__min__energy>  (5) 
-9.5399999999999991

>  <m_primary>  (5) 
energy

>  <rmsd>  (5) 
2.7396809602218917

>  <m_score__min__rmsd>  (5) 
2.7396809602218917

>  <meeko>  (5) 
{"free_energy": -8.19, "intermolecular_energy": -10.58, "internal_energy": -2.52, "cluster_size": 30, "cluster_id": 1, "rank_in_cluster": 27}

>  <energy>  (5) 
-9.41

>  <cluster_rmsd>  (5) 
0.33

>  <cluster>  (5) 
1

$$$$

     RDKit          3D

 59 62  0  0  0  0  0  0  0  0999 V2000
  145.5150   71.5170  219.3080 C   0  0  0  0  0  0  0  0  0  0  0  0
  145.9630   72.7840  219.2050 O   0  0  0  0  0  0  0  0  0  0  0  0
  145.7210   73.6370  220.1920 C   0  0  0  0  0  0  0  0  0  0  0  0
  144.4390   74.4000  220.2950 C   0  0  1  0  0  0  0  0  0  0  0  0
  143.9420   74.8240  218.9560 C   0  0  0  0  0  0  0  0  0  0  0  0
  142.4290   74.5810  219.0730 C   0  0  2  0  0  0  0  0  0  0  0  0
  141.7340   75.6690  219.7750 C   0  0  0  0  0  0  0  0  0  0  0  0
  141.5180   76.8110  219.2840 O   0  0  0  0  0  0  0  0  0  0  0  0
  141.2380   75.4870  221.1170 N   0  0  0  0  0  0  0  0  0  0  0  0
  140.5710   76.5800  221.7880 C   0  0  0  0  0  0  0  0  0  0  0  0
  139.2290   76.5030  222.0550 C   0  0  0  0  0  0  0  0  0  0  0  0
  138.6760   77.6110  222.7140 C   0  0  0  0  0  0  0  0  0  0  0  0
  139.4500   78.6960  223.0630 C   0  0  0  0  0  0  0  0  0  0  0  0
  140.8040   78.7380  222.7770 C   0  0  0  0  0  0  0  0  0  0  0  0
  141.3800   77.6430  222.1180 C   0  0  0  0  0  0  0  0  0  0  0  0
  142.3880   73.3270  219.7480 N   0  0  0  0  0  0  0  0  0  0  0  0
  141.6510   72.1380  219.5060 C   0  0  0  0  0  0  0  0  0  0  0  0
  142.1450   71.1390  218.9590 O   0  0  0  0  0  0  0  0  0  0  0  0
  140.2120   72.1280  219.9470 C   0  0  0  0  0  0  0  0  0  0  0  0
  140.0900   71.4050  221.2130 N   0  0  0  0  0  0  0  0  0  0  0  0
  140.2700   72.1590  222.4280 C   0  0  0  0  0  0  0  0  0  0  0  0
  140.5200   73.3870  222.4280 O   0  0  0  0  0  0  0  0  0  0  0  0
  140.1440   71.3910  223.6840 C   0  0  0  0  0  0  0  0  0  0  0  0
  139.4480   70.1840  223.6730 C   0  0  0  0  0  0  0  0  0  0  0  0
  139.2930   69.4150  224.8050 C   0  0  0  0  0  0  0  0  0  0  0  0
  139.8540   69.8820  225.9720 C   0  0  0  0  0  0  0  0  0  0  0  0
  139.7470   69.1750  227.1630 C   0  0  0  0  0  0  0  0  0  0  0  0
  140.3200   69.6700  228.3170 C   0  0  0  0  0  0  0  0  0  0  0  0
  141.0190   70.8850  228.3360 C   0  0  0  0  0  0  0  0  0  0  0  0
  141.0820   71.5310  227.1110 C   0  0  0  0  0  0  0  0  0  0  0  0
  140.5280   71.0640  225.9600 C   0  0  0  0  0  0  0  0  0  0  0  0
  140.6890   71.8340  224.8440 N   0  0  0  0  0  0  0  0  0  0  0  0
  143.3410   73.4650  220.8420 C   0  0  0  0  0  0  0  0  0  0  0  0
  145.4195   71.2470  220.3701 H   0  0  0  0  0  0  0  0  0  0  0  0
  144.5331   71.4344  218.8190 H   0  0  0  0  0  0  0  0  0  0  0  0
  146.2267   70.8355  218.8190 H   0  0  0  0  0  0  0  0  0  0  0  0
  145.8091   73.0595  221.1241 H   0  0  0  0  0  0  0  0  0  0  0  0
  146.4453   74.4379  219.9822 H   0  0  0  0  0  0  0  0  0  0  0  0
  144.6361   75.2712  220.9370 H   0  0  0  0  0  0  0  0  0  0  0  0
  144.1612   75.8854  218.7680 H   0  0  0  0  0  0  0  0  0  0  0  0
  144.4108   74.2819  218.1215 H   0  0  0  0  0  0  0  0  0  0  0  0
  141.8979   74.5609  218.1099 H   0  0  0  0  0  0  0  0  0  0  0  0
  141.3360   74.5890  221.6330 H   0  0  0  0  0  0  0  0  0  0  0  0
  138.6246   75.6289  221.7709 H   0  0  0  0  0  0  0  0  0  0  0  0
  137.6032   77.6136  222.9569 H   0  0  0  0  0  0  0  0  0  0  0  0
  138.9823   79.5470  223.5798 H   0  0  0  0  0  0  0  0  0  0  0  0
  141.4129   79.6093  223.0600 H   0  0  0  0  0  0  0  0  0  0  0  0
  142.4519   77.6338  221.8709 H   0  0  0  0  0  0  0  0  0  0  0  0
  139.8635   73.1626  220.0816 H   0  0  0  0  0  0  0  0  0  0  0  0
  139.5996   71.6289  219.1816 H   0  0  0  0  0  0  0  0  0  0  0  0
  139.8800   70.3830  221.2180 H   0  0  0  0  0  0  0  0  0  0  0  0
  139.0073   69.8334  222.7281 H   0  0  0  0  0  0  0  0  0  0  0  0
  138.7417   68.4635  224.7776 H   0  0  0  0  0  0  0  0  0  0  0  0
  139.2043   68.2185  227.1864 H   0  0  0  0  0  0  0  0  0  0  0  0
  140.2254   69.0941  229.2494 H   0  0  0  0  0  0  0  0  0  0  0  0
  141.4797   71.2924  229.2480 H   0  0  0  0  0  0  0  0  0  0  0  0
  141.6186   72.4902  227.0667 H   0  0  0  0  0  0  0  0  0  0  0  0
  142.8568   73.9106  221.7234 H   0  0  0  0  0  0  0  0  0  0  0  0
  143.7459   72.4942  221.1639 H   0  0  0  0  0  0  0  0  0  0  0  0
  1  2  1  0
  2  3  1  0
  3  4  1  0
  4  5  1  0
  5  6  1  0
  6  7  1  0
  7  8  2  0
  7  9  1  0
  9 10  1  0
 10 11  2  0
 11 12  1  0
 12 13  2  0
 13 14  1  0
 14 15  2  0
  6 16  1  0
 16 17  1  0
 17 18  2  0
 17 19  1  0
 19 20  1  0
 20 21  1  0
 21 22  2  0
 21 23  1  0
 23 24  2  0
 24 25  1  0
 25 26  2  0
 26 27  1  0
 27 28  2  0
 28 29  1  0
 29 30  2  0
 30 31  1  0
 31 32  2  0
 16 33  1  0
 33  4  1  0
 15 10  1  0
 32 23  1  0
 31 26  1  0
  1 34  1  0
  1 35  1  0
  1 36  1  0
  3 37  1  0
  3 38  1  0
  4 39  1  1
  5 40  1  0
  5 41  1  0
  6 42  1  6
  9 43  1  0
 11 44  1  0
 12 45  1  0
 13 46  1  0
 14 47  1  0
 15 48  1  0
 19 49  1  0
 19 50  1  0
 20 51  1  0
 24 52  1  0
 25 53  1  0
 27 54  1  0
 28 55  1  0
 29 56  1  0
 30 57  1  0
 33 58  1  0
 33 59  1  0
M  END
>  <smiles>  (6) 
COC[C@H]1C[C@H](C(=O)Nc2ccccc2)N(C(=O)CNC(=O)c2ccc3ccccc3n2)C1

>  <score_type>  (6) 
oracle

>  <origin>  (6) 
autodockgpu

>  <m_score__min__energy>  (6) 
-9.5399999999999991

>  <m_primary>  (6) 
energy

>  <rmsd>  (6) 
3.5630429521477986

>  <m_score__min__rmsd>  (6) 
3.5630429521477986

>  <meeko>  (6) 
{"free_energy": -8.59, "intermolecular_energy": -10.97, "internal_energy": -2.84, "cluster_size": 30, "cluster_id": 1, "rank_in_cluster": 25}

>  <energy>  (6) 
-9.39

>  <cluster_rmsd>  (6) 
1.63

>  <cluster>  (6) 
1

$$$$

     RDKit          3D

 59 62  0  0  0  0  0  0  0  0999 V2000
  145.3250   73.7120  220.8210 C   0  0  0  0  0  0  0  0  0  0  0  0
  144.2140   72.9510  220.7580 O   0  0  0  0  0  0  0  0  0  0  0  0
  143.0910   73.4840  220.2920 C   0  0  0  0  0  0  0  0  0  0  0  0
  142.6810   74.8880  220.6060 C   0  0  1  0  0  0  0  0  0  0  0  0
  142.2020   75.6060  219.3920 C   0  0  0  0  0  0  0  0  0  0  0  0
  140.9940   76.3910  219.9270 C   0  0  2  0  0  0  0  0  0  0  0  0
  141.3850   77.6300  220.6150 C   0  0  0  0  0  0  0  0  0  0  0  0
  141.8840   78.6370  220.0410 O   0  0  0  0  0  0  0  0  0  0  0  0
  141.2130   77.7720  222.0400 N   0  0  0  0  0  0  0  0  0  0  0  0
  141.6200   78.9980  222.6910 C   0  0  0  0  0  0  0  0  0  0  0  0
  142.9490   79.3230  222.7710 C   0  0  0  0  0  0  0  0  0  0  0  0
  143.2400   80.5330  223.4150 C   0  0  0  0  0  0  0  0  0  0  0  0
  142.2410   81.3300  223.9290 C   0  0  0  0  0  0  0  0  0  0  0  0
  140.9080   80.9690  223.8300 C   0  0  0  0  0  0  0  0  0  0  0  0
  140.5910   79.7630  223.1890 C   0  0  0  0  0  0  0  0  0  0  0  0
  140.3700   75.4260  220.7680 N   0  0  0  0  0  0  0  0  0  0  0  0
  139.0190   75.0100  220.9020 C   0  0  0  0  0  0  0  0  0  0  0  0
  138.0760   75.8090  221.0120 O   0  0  0  0  0  0  0  0  0  0  0  0
  138.7620   73.5260  220.9060 C   0  0  0  0  0  0  0  0  0  0  0  0
  139.0800   72.9740  222.2210 N   0  0  0  0  0  0  0  0  0  0  0  0
  139.3560   71.5610  222.3000 C   0  0  0  0  0  0  0  0  0  0  0  0
  139.3310   70.8140  221.2940 O   0  0  0  0  0  0  0  0  0  0  0  0
  139.6680   71.0420  223.6480 C   0  0  0  0  0  0  0  0  0  0  0  0
  139.3990   69.7080  223.9390 C   0  0  0  0  0  0  0  0  0  0  0  0
  139.6670   69.1570  225.1730 C   0  0  0  0  0  0  0  0  0  0  0  0
  140.2170   69.9790  226.1300 C   0  0  0  0  0  0  0  0  0  0  0  0
  140.5190   69.5110  227.4030 C   0  0  0  0  0  0  0  0  0  0  0  0
  141.0690   70.3610  228.3410 C   0  0  0  0  0  0  0  0  0  0  0  0
  141.3410   71.7060  228.0550 C   0  0  0  0  0  0  0  0  0  0  0  0
  141.0120   72.0970  226.7660 C   0  0  0  0  0  0  0  0  0  0  0  0
  140.4710   71.2800  225.8230 C   0  0  0  0  0  0  0  0  0  0  0  0
  140.2110   71.8370  224.6040 N   0  0  0  0  0  0  0  0  0  0  0  0
  141.4600   74.8550  221.5490 C   0  0  0  0  0  0  0  0  0  0  0  0
  145.5872   73.8916  221.8741 H   0  0  0  0  0  0  0  0  0  0  0  0
  146.1547   73.1917  220.3202 H   0  0  0  0  0  0  0  0  0  0  0  0
  145.1396   74.6737  220.3202 H   0  0  0  0  0  0  0  0  0  0  0  0
  143.1542   73.4214  219.1956 H   0  0  0  0  0  0  0  0  0  0  0  0
  142.3249   72.8995  220.8226 H   0  0  0  0  0  0  0  0  0  0  0  0
  143.5595   75.3885  221.0394 H   0  0  0  0  0  0  0  0  0  0  0  0
  142.9747   76.2836  218.9998 H   0  0  0  0  0  0  0  0  0  0  0  0
  141.9550   74.9367  218.5547 H   0  0  0  0  0  0  0  0  0  0  0  0
  140.3191   76.7711  219.1459 H   0  0  0  0  0  0  0  0  0  0  0  0
  140.7980   77.0240  222.6320 H   0  0  0  0  0  0  0  0  0  0  0  0
  143.7362   78.6760  222.3566 H   0  0  0  0  0  0  0  0  0  0  0  0
  144.2879   80.8530  223.5121 H   0  0  0  0  0  0  0  0  0  0  0  0
  142.5078   82.2730  224.4286 H   0  0  0  0  0  0  0  0  0  0  0  0
  140.1175   81.6122  224.2439 H   0  0  0  0  0  0  0  0  0  0  0  0
  139.5455   79.4367  223.0869 H   0  0  0  0  0  0  0  0  0  0  0  0
  137.7027   73.3379  220.6771 H   0  0  0  0  0  0  0  0  0  0  0  0
  139.3955   73.0448  220.1463 H   0  0  0  0  0  0  0  0  0  0  0  0
  139.1040   73.5930  223.0620 H   0  0  0  0  0  0  0  0  0  0  0  0
  138.9576   69.0721  223.1575 H   0  0  0  0  0  0  0  0  0  0  0  0
  139.4496   68.0998  225.3853 H   0  0  0  0  0  0  0  0  0  0  0  0
  140.3194   68.4611  227.6636 H   0  0  0  0  0  0  0  0  0  0  0  0
  141.3009   69.9712  229.3432 H   0  0  0  0  0  0  0  0  0  0  0  0
  141.7794   72.3946  228.7924 H   0  0  0  0  0  0  0  0  0  0  0  0
  141.2023   73.1436  226.4860 H   0  0  0  0  0  0  0  0  0  0  0  0
  141.6492   75.4585  222.4490 H   0  0  0  0  0  0  0  0  0  0  0  0
  141.2320   73.8368  221.8971 H   0  0  0  0  0  0  0  0  0  0  0  0
  1  2  1  0
  2  3  1  0
  3  4  1  0
  4  5  1  0
  5  6  1  0
  6  7  1  0
  7  8  2  0
  7  9  1  0
  9 10  1  0
 10 11  2  0
 11 12  1  0
 12 13  2  0
 13 14  1  0
 14 15  2  0
  6 16  1  0
 16 17  1  0
 17 18  2  0
 17 19  1  0
 19 20  1  0
 20 21  1  0
 21 22  2  0
 21 23  1  0
 23 24  2  0
 24 25  1  0
 25 26  2  0
 26 27  1  0
 27 28  2  0
 28 29  1  0
 29 30  2  0
 30 31  1  0
 31 32  2  0
 16 33  1  0
 33  4  1  0
 15 10  1  0
 32 23  1  0
 31 26  1  0
  1 34  1  0
  1 35  1  0
  1 36  1  0
  3 37  1  0
  3 38  1  0
  4 39  1  1
  5 40  1  0
  5 41  1  0
  6 42  1  6
  9 43  1  0
 11 44  1  0
 12 45  1  0
 13 46  1  0
 14 47  1  0
 15 48  1  0
 19 49  1  0
 19 50  1  0
 20 51  1  0
 24 52  1  0
 25 53  1  0
 27 54  1  0
 28 55  1  0
 29 56  1  0
 30 57  1  0
 33 58  1  0
 33 59  1  0
M  END
>  <smiles>  (7) 
COC[C@H]1C[C@H](C(=O)Nc2ccccc2)N(C(=O)CNC(=O)c2ccc3ccccc3n2)C1

>  <score_type>  (7) 
oracle

>  <origin>  (7) 
autodockgpu

>  <m_score__min__energy>  (7) 
-9.5399999999999991

>  <m_primary>  (7) 
energy

>  <rmsd>  (7) 
2.7051776582637554

>  <m_score__min__rmsd>  (7) 
2.7051776582637554

>  <meeko>  (7) 
{"free_energy": -9.0, "intermolecular_energy": -11.39, "internal_energy": -2.06, "cluster_size": 30, "cluster_id": 1, "rank_in_cluster": 22}

>  <energy>  (7) 
-9.37

>  <cluster_rmsd>  (7) 
1.71

>  <cluster>  (7) 
1

$$$$

     RDKit          3D

 59 62  0  0  0  0  0  0  0  0999 V2000
  141.8350   77.8130  219.5340 C   0  0  0  0  0  0  0  0  0  0  0  0
  142.4410   76.6620  219.8890 O   0  0  0  0  0  0  0  0  0  0  0  0
  143.4950   76.2470  219.1970 C   0  0  0  0  0  0  0  0  0  0  0  0
  143.9560   74.8250  219.2170 C   0  0  1  0  0  0  0  0  0  0  0  0
  144.6840   74.4990  220.4760 C   0  0  0  0  0  0  0  0  0  0  0  0
  144.1600   73.0930  220.8080 C   0  0  2  0  0  0  0  0  0  0  0  0
  144.8390   72.0410  220.0380 C   0  0  0  0  0  0  0  0  0  0  0  0
  145.9460   72.1880  219.4510 O   0  0  0  0  0  0  0  0  0  0  0  0
  144.2560   70.7290  219.9040 N   0  0  0  0  0  0  0  0  0  0  0  0
  144.9400   69.7180  219.1280 C   0  0  0  0  0  0  0  0  0  0  0  0
  145.2820   68.5240  219.7080 C   0  0  0  0  0  0  0  0  0  0  0  0
  145.9360   67.6080  218.8710 C   0  0  0  0  0  0  0  0  0  0  0  0
  146.2070   67.9080  217.5540 C   0  0  0  0  0  0  0  0  0  0  0  0
  145.8450   69.1250  217.0020 C   0  0  0  0  0  0  0  0  0  0  0  0
  145.1910   70.0580  217.8180 C   0  0  0  0  0  0  0  0  0  0  0  0
  142.7710   73.2260  220.5210 N   0  0  0  0  0  0  0  0  0  0  0  0
  141.6080   72.8510  221.2440 C   0  0  0  0  0  0  0  0  0  0  0  0
  141.5670   71.8540  221.9820 O   0  0  0  0  0  0  0  0  0  0  0  0
  140.3950   73.7280  221.0830 C   0  0  0  0  0  0  0  0  0  0  0  0
  140.7000   75.0800  221.5460 N   0  0  0  0  0  0  0  0  0  0  0  0
  139.6060   75.8720  222.0530 C   0  0  0  0  0  0  0  0  0  0  0  0
  138.4320   75.4390  222.1080 O   0  0  0  0  0  0  0  0  0  0  0  0
  139.9560   77.2340  222.5060 C   0  0  0  0  0  0  0  0  0  0  0  0
  138.9350   78.1160  222.8500 C   0  0  0  0  0  0  0  0  0  0  0  0
  139.1880   79.3990  223.2830 C   0  0  0  0  0  0  0  0  0  0  0  0
  140.5040   79.7940  223.3650 C   0  0  0  0  0  0  0  0  0  0  0  0
  140.8540   81.0700  223.7890 C   0  0  0  0  0  0  0  0  0  0  0  0
  142.1830   81.4370  223.8590 C   0  0  0  0  0  0  0  0  0  0  0  0
  143.2150   80.5550  223.5120 C   0  0  0  0  0  0  0  0  0  0  0  0
  142.7860   79.3020  223.0990 C   0  0  0  0  0  0  0  0  0  0  0  0
  141.4850   78.9160  223.0220 C   0  0  0  0  0  0  0  0  0  0  0  0
  141.2470   77.6420  222.5940 N   0  0  0  0  0  0  0  0  0  0  0  0
  142.7230   73.8970  219.2280 C   0  0  0  0  0  0  0  0  0  0  0  0
  141.5430   78.3676  220.4380 H   0  0  0  0  0  0  0  0  0  0  0  0
  142.5285   78.4236  218.9372 H   0  0  0  0  0  0  0  0  0  0  0  0
  140.9391   77.5868  218.9372 H   0  0  0  0  0  0  0  0  0  0  0  0
  143.2832   76.4854  218.1442 H   0  0  0  0  0  0  0  0  0  0  0  0
  144.3207   76.7606  219.7113 H   0  0  0  0  0  0  0  0  0  0  0  0
  144.6041   74.6877  218.3389 H   0  0  0  0  0  0  0  0  0  0  0  0
  145.7721   74.4901  220.3152 H   0  0  0  0  0  0  0  0  0  0  0  0
  144.5181   75.2304  221.2807 H   0  0  0  0  0  0  0  0  0  0  0  0
  144.3492   72.7714  221.8428 H   0  0  0  0  0  0  0  0  0  0  0  0
  143.3530   70.4680  220.3510 H   0  0  0  0  0  0  0  0  0  0  0  0
  145.0581   68.2989  220.7612 H   0  0  0  0  0  0  0  0  0  0  0  0
  146.2386   66.6304  219.2743 H   0  0  0  0  0  0  0  0  0  0  0  0
  146.7220   67.1647  216.9276 H   0  0  0  0  0  0  0  0  0  0  0  0
  146.0653   69.3540  215.9489 H   0  0  0  0  0  0  0  0  0  0  0  0
  144.8858   71.0376  217.4215 H   0  0  0  0  0  0  0  0  0  0  0  0
  140.1060   73.7613  220.0222 H   0  0  0  0  0  0  0  0  0  0  0  0
  139.5666   73.3171  221.6787 H   0  0  0  0  0  0  0  0  0  0  0  0
  141.6770   75.4450  221.5040 H   0  0  0  0  0  0  0  0  0  0  0  0
  137.8914   77.7769  222.7735 H   0  0  0  0  0  0  0  0  0  0  0  0
  138.3692   80.0821  223.5531 H   0  0  0  0  0  0  0  0  0  0  0  0
  140.0705   81.7893  224.0695 H   0  0  0  0  0  0  0  0  0  0  0  0
  142.4394   82.4518  224.1972 H   0  0  0  0  0  0  0  0  0  0  0  0
  144.2780   80.8332  223.5629 H   0  0  0  0  0  0  0  0  0  0  0  0
  143.5539   78.5681  222.8133 H   0  0  0  0  0  0  0  0  0  0  0  0
  142.7823   73.1647  218.4094 H   0  0  0  0  0  0  0  0  0  0  0  0
  141.7847   74.4529  219.0842 H   0  0  0  0  0  0  0  0  0  0  0  0
  1  2  1  0
  2  3  1  0
  3  4  1  0
  4  5  1  0
  5  6  1  0
  6  7  1  0
  7  8  2  0
  7  9  1  0
  9 10  1  0
 10 11  2  0
 11 12  1  0
 12 13  2  0
 13 14  1  0
 14 15  2  0
  6 16  1  0
 16 17  1  0
 17 18  2  0
 17 19  1  0
 19 20  1  0
 20 21  1  0
 21 22  2  0
 21 23  1  0
 23 24  2  0
 24 25  1  0
 25 26  2  0
 26 27  1  0
 27 28  2  0
 28 29  1  0
 29 30  2  0
 30 31  1  0
 31 32  2  0
 16 33  1  0
 33  4  1  0
 15 10  1  0
 32 23  1  0
 31 26  1  0
  1 34  1  0
  1 35  1  0
  1 36  1  0
  3 37  1  0
  3 38  1  0
  4 39  1  6
  5 40  1  0
  5 41  1  0
  6 42  1  1
  9 43  1  0
 11 44  1  0
 12 45  1  0
 13 46  1  0
 14 47  1  0
 15 48  1  0
 19 49  1  0
 19 50  1  0
 20 51  1  0
 24 52  1  0
 25 53  1  0
 27 54  1  0
 28 55  1  0
 29 56  1  0
 30 57  1  0
 33 58  1  0
 33 59  1  0
M  END
>  <smiles>  (8) 
COC[C@H]1C[C@H](C(=O)Nc2ccccc2)N(C(=O)CNC(=O)c2ccc3ccccc3n2)C1

>  <score_type>  (8) 
oracle

>  <origin>  (8) 
autodockgpu

>  <m_score__min__energy>  (8) 
-9.5399999999999991

>  <m_primary>  (8) 
energy

>  <rmsd>  (8) 
9.040812638068378

>  <m_score__min__rmsd>  (8) 
9.040812638068378

>  <meeko>  (8) 
{"free_energy": -7.93, "intermolecular_energy": -10.32, "internal_energy": -3.34, "cluster_size": 7, "cluster_id": 3, "rank_in_cluster": 4}

>  <energy>  (8) 
-9.34

>  <cluster_rmsd>  (8) 
0.29

>  <cluster>  (8) 
1

$$$$

     RDKit          3D

 59 62  0  0  0  0  0  0  0  0999 V2000
  146.2480   73.3900  221.4860 C   0  0  0  0  0  0  0  0  0  0  0  0
  145.7910   73.6470  220.2440 O   0  0  0  0  0  0  0  0  0  0  0  0
  144.4880   73.5730  220.0070 C   0  0  0  0  0  0  0  0  0  0  0  0
  143.5270   74.6160  220.4830 C   0  0  1  0  0  0  0  0  0  0  0  0
  142.9980   75.4330  219.3550 C   0  0  0  0  0  0  0  0  0  0  0  0
  141.5160   75.5910  219.7270 C   0  0  2  0  0  0  0  0  0  0  0  0
  141.2920   76.6530  220.7190 C   0  0  0  0  0  0  0  0  0  0  0  0
  140.3330   76.6700  221.5400 O   0  0  0  0  0  0  0  0  0  0  0  0
  142.1880   77.7780  220.8160 N   0  0  0  0  0  0  0  0  0  0  0  0
  141.9340   78.8140  221.7920 C   0  0  0  0  0  0  0  0  0  0  0  0
  141.8080   80.1180  221.3900 C   0  0  0  0  0  0  0  0  0  0  0  0
  141.5560   81.0460  222.4100 C   0  0  0  0  0  0  0  0  0  0  0  0
  141.4460   80.6530  223.7260 C   0  0  0  0  0  0  0  0  0  0  0  0
  141.5790   79.3250  224.0950 C   0  0  0  0  0  0  0  0  0  0  0  0
  141.8310   78.3780  223.0930 C   0  0  0  0  0  0  0  0  0  0  0  0
  141.1910   74.2820  220.1870 N   0  0  0  0  0  0  0  0  0  0  0  0
  140.1000   73.4170  219.9060 C   0  0  0  0  0  0  0  0  0  0  0  0
  140.1270   72.5740  218.9970 O   0  0  0  0  0  0  0  0  0  0  0  0
  138.8780   73.5610  220.7740 C   0  0  0  0  0  0  0  0  0  0  0  0
  139.1530   73.0250  222.1050 N   0  0  0  0  0  0  0  0  0  0  0  0
  139.4730   71.6230  222.2050 C   0  0  0  0  0  0  0  0  0  0  0  0
  139.5210   70.8720  221.2030 O   0  0  0  0  0  0  0  0  0  0  0  0
  139.7390   71.1200  223.5680 C   0  0  0  0  0  0  0  0  0  0  0  0
  139.3820   69.8130  223.8900 C   0  0  0  0  0  0  0  0  0  0  0  0
  139.6030   69.2780  225.1400 C   0  0  0  0  0  0  0  0  0  0  0  0
  140.1960   70.0880  226.0820 C   0  0  0  0  0  0  0  0  0  0  0  0
  140.4550   69.6350  227.3700 C   0  0  0  0  0  0  0  0  0  0  0  0
  141.0500   70.4720  228.2920 C   0  0  0  0  0  0  0  0  0  0  0  0
  141.4100   71.7890  227.9760 C   0  0  0  0  0  0  0  0  0  0  0  0
  141.1180   72.1670  226.6730 C   0  0  0  0  0  0  0  0  0  0  0  0
  140.5350   71.3630  225.7460 C   0  0  0  0  0  0  0  0  0  0  0  0
  140.3220   71.9030  224.5100 N   0  0  0  0  0  0  0  0  0  0  0  0
  142.2850   73.9210  221.0780 C   0  0  0  0  0  0  0  0  0  0  0  0
  145.5395   73.7884  222.2271 H   0  0  0  0  0  0  0  0  0  0  0  0
  146.3484   72.3031  221.6221 H   0  0  0  0  0  0  0  0  0  0  0  0
  147.2289   73.8688  221.6221 H   0  0  0  0  0  0  0  0  0  0  0  0
  144.3777   73.5314  218.9133 H   0  0  0  0  0  0  0  0  0  0  0  0
  144.1963   72.7023  220.6126 H   0  0  0  0  0  0  0  0  0  0  0  0
  144.0694   75.2438  221.2053 H   0  0  0  0  0  0  0  0  0  0  0  0
  143.5009   76.4098  219.3013 H   0  0  0  0  0  0  0  0  0  0  0  0
  143.1563   74.9736  218.3682 H   0  0  0  0  0  0  0  0  0  0  0  0
  140.8737   75.9199  218.8968 H   0  0  0  0  0  0  0  0  0  0  0  0
  143.0280   77.8790  220.2090 H   0  0  0  0  0  0  0  0  0  0  0  0
  141.8987   80.4171  220.3353 H   0  0  0  0  0  0  0  0  0  0  0  0
  141.4438   82.1100  222.1545 H   0  0  0  0  0  0  0  0  0  0  0  0
  141.2485   81.4098  224.4995 H   0  0  0  0  0  0  0  0  0  0  0  0
  141.4891   79.0209  225.1483 H   0  0  0  0  0  0  0  0  0  0  0  0
  141.9437   77.3122  223.3406 H   0  0  0  0  0  0  0  0  0  0  0  0
  138.6114   74.6250  220.8563 H   0  0  0  0  0  0  0  0  0  0  0  0
  138.0432   73.0046  220.3228 H   0  0  0  0  0  0  0  0  0  0  0  0
  139.1160   73.6480  222.9430 H   0  0  0  0  0  0  0  0  0  0  0  0
  138.9075   69.1867  223.1202 H   0  0  0  0  0  0  0  0  0  0  0  0
  139.3164   68.2427  225.3765 H   0  0  0  0  0  0  0  0  0  0  0  0
  140.1853   68.6074  227.6552 H   0  0  0  0  0  0  0  0  0  0  0  0
  141.2477   70.0938  229.3059 H   0  0  0  0  0  0  0  0  0  0  0  0
  141.8847   72.4669  228.7007 H   0  0  0  0  0  0  0  0  0  0  0  0
  141.3774   73.1918  226.3688 H   0  0  0  0  0  0  0  0  0  0  0  0
  142.0896   74.2842  222.0978 H   0  0  0  0  0  0  0  0  0  0  0  0
  142.4161   72.8314  221.1526 H   0  0  0  0  0  0  0  0  0  0  0  0
  1  2  1  0
  2  3  1  0
  3  4  1  0
  4  5  1  0
  5  6  1  0
  6  7  1  0
  7  8  2  0
  7  9  1  0
  9 10  1  0
 10 11  2  0
 11 12  1  0
 12 13  2  0
 13 14  1  0
 14 15  2  0
  6 16  1  0
 16 17  1  0
 17 18  2  0
 17 19  1  0
 19 20  1  0
 20 21  1  0
 21 22  2  0
 21 23  1  0
 23 24  2  0
 24 25  1  0
 25 26  2  0
 26 27  1  0
 27 28  2  0
 28 29  1  0
 29 30  2  0
 30 31  1  0
 31 32  2  0
 16 33  1  0
 33  4  1  0
 15 10  1  0
 32 23  1  0
 31 26  1  0
  1 34  1  0
  1 35  1  0
  1 36  1  0
  3 37  1  0
  3 38  1  0
  4 39  1  1
  5 40  1  0
  5 41  1  0
  6 42  1  6
  9 43  1  0
 11 44  1  0
 12 45  1  0
 13 46  1  0
 14 47  1  0
 15 48  1  0
 19 49  1  0
 19 50  1  0
 20 51  1  0
 24 52  1  0
 25 53  1  0
 27 54  1  0
 28 55  1  0
 29 56  1  0
 30 57  1  0
 33 58  1  0
 33 59  1  0
M  END
>  <smiles>  (9) 
COC[C@H]1C[C@H](C(=O)Nc2ccccc2)N(C(=O)CNC(=O)c2ccc3ccccc3n2)C1

>  <score_type>  (9) 
oracle

>  <origin>  (9) 
autodockgpu

>  <m_score__min__energy>  (9) 
-9.5399999999999991

>  <m_primary>  (9) 
energy

>  <rmsd>  (9) 
2.7817501520411545

>  <m_score__min__rmsd>  (9) 
2.7817501520411545

>  <meeko>  (9) 
{"free_energy": -9.51, "intermolecular_energy": -11.89, "internal_energy": -1.94, "cluster_size": 30, "cluster_id": 1, "rank_in_cluster": 2}

>  <energy>  (9) 
-9.32

>  <cluster_rmsd>  (9) 
1.68

>  <cluster>  (9) 
1

$$$$

     RDKit          3D

 59 62  0  0  0  0  0  0  0  0999 V2000
  146.4910   73.3870  221.6830 C   0  0  0  0  0  0  0  0  0  0  0  0
  146.4080   73.1080  220.3670 O   0  0  0  0  0  0  0  0  0  0  0  0
  145.2250   73.1560  219.7690 C   0  0  0  0  0  0  0  0  0  0  0  0
  144.3570   74.3730  219.8080 C   0  0  1  0  0  0  0  0  0  0  0  0
  143.6640   74.5970  218.5080 C   0  0  0  0  0  0  0  0  0  0  0  0
  142.2590   75.0310  218.9510 C   0  0  2  0  0  0  0  0  0  0  0  0
  142.1980   76.4500  219.3300 C   0  0  0  0  0  0  0  0  0  0  0  0
  142.5740   76.9070  220.4450 O   0  0  0  0  0  0  0  0  0  0  0  0
  141.6870   77.4400  218.4150 N   0  0  0  0  0  0  0  0  0  0  0  0
  141.6250   78.8270  218.8210 C   0  0  0  0  0  0  0  0  0  0  0  0
  140.7190   79.2240  219.7690 C   0  0  0  0  0  0  0  0  0  0  0  0
  140.7430   80.5870  220.0980 C   0  0  0  0  0  0  0  0  0  0  0  0
  141.6280   81.4540  219.4970 C   0  0  0  0  0  0  0  0  0  0  0  0
  142.5310   81.0160  218.5430 C   0  0  0  0  0  0  0  0  0  0  0  0
  142.5270   79.6580  218.1960 C   0  0  0  0  0  0  0  0  0  0  0  0
  142.0000   74.1270  220.0220 N   0  0  0  0  0  0  0  0  0  0  0  0
  140.8740   73.3240  220.3400 C   0  0  0  0  0  0  0  0  0  0  0  0
  140.7330   72.1650  219.9200 O   0  0  0  0  0  0  0  0  0  0  0  0
  139.8280   73.9410  221.2310 C   0  0  0  0  0  0  0  0  0  0  0  0
  140.2630   75.2710  221.6530 N   0  0  0  0  0  0  0  0  0  0  0  0
  139.2850   76.1210  222.2860 C   0  0  0  0  0  0  0  0  0  0  0  0
  138.1020   75.7560  222.4800 O   0  0  0  0  0  0  0  0  0  0  0  0
  139.7640   77.4580  222.6930 C   0  0  0  0  0  0  0  0  0  0  0  0
  138.8360   78.4210  223.0780 C   0  0  0  0  0  0  0  0  0  0  0  0
  139.2110   79.6870  223.4720 C   0  0  0  0  0  0  0  0  0  0  0  0
  140.5560   79.9790  223.4720 C   0  0  0  0  0  0  0  0  0  0  0  0
  141.0280   81.2300  223.8520 C   0  0  0  0  0  0  0  0  0  0  0  0
  142.3820   81.4930  223.8390 C   0  0  0  0  0  0  0  0  0  0  0  0
  143.3220   80.5290  223.4500 C   0  0  0  0  0  0  0  0  0  0  0  0
  142.7750   79.3070  223.0850 C   0  0  0  0  0  0  0  0  0  0  0  0
  141.4460   79.0230  223.0900 C   0  0  0  0  0  0  0  0  0  0  0  0
  141.0860   77.7650  222.6990 N   0  0  0  0  0  0  0  0  0  0  0  0
  143.2180   74.1460  220.8230 C   0  0  0  0  0  0  0  0  0  0  0  0
  146.2249   72.4923  222.2650 H   0  0  0  0  0  0  0  0  0  0  0  0
  147.5188   73.6921  221.9290 H   0  0  0  0  0  0  0  0  0  0  0  0
  145.7971   74.2043  221.9290 H   0  0  0  0  0  0  0  0  0  0  0  0
  145.4110   72.9467  218.7052 H   0  0  0  0  0  0  0  0  0  0  0  0
  144.6399   72.4408  220.3658 H   0  0  0  0  0  0  0  0  0  0  0  0
  145.0095   75.2220  220.0598 H   0  0  0  0  0  0  0  0  0  0  0  0
  144.1588   75.3875  217.9247 H   0  0  0  0  0  0  0  0  0  0  0  0
  143.6639   73.7132  217.8530 H   0  0  0  0  0  0  0  0  0  0  0  0
  141.4983   74.9777  218.1582 H   0  0  0  0  0  0  0  0  0  0  0  0
  141.3580   77.2010  217.4570 H   0  0  0  0  0  0  0  0  0  0  0  0
  140.0185   78.5196  220.2412 H   0  0  0  0  0  0  0  0  0  0  0  0
  140.0402   80.9715  220.8519 H   0  0  0  0  0  0  0  0  0  0  0  0
  141.6174   82.5167  219.7807 H   0  0  0  0  0  0  0  0  0  0  0  0
  143.2342   81.7166  218.0691 H   0  0  0  0  0  0  0  0  0  0  0  0
  143.2269   79.2662  217.4433 H   0  0  0  0  0  0  0  0  0  0  0  0
  138.8802   74.0243  220.6789 H   0  0  0  0  0  0  0  0  0  0  0  0
  139.6842   73.3062  222.1178 H   0  0  0  0  0  0  0  0  0  0  0  0
  141.2480   75.5790  221.4950 H   0  0  0  0  0  0  0  0  0  0  0  0
  137.7668   78.1627  223.0674 H   0  0  0  0  0  0  0  0  0  0  0  0
  138.4641   80.4356  223.7749 H   0  0  0  0  0  0  0  0  0  0  0  0
  140.3201   82.0121  224.1638 H   0  0  0  0  0  0  0  0  0  0  0  0
  142.7347   82.4895  224.1432 H   0  0  0  0  0  0  0  0  0  0  0  0
  144.4043   80.7249  223.4352 H   0  0  0  0  0  0  0  0  0  0  0  0
  143.4662   78.5117  222.7692 H   0  0  0  0  0  0  0  0  0  0  0  0
  143.1854   74.9642  221.5575 H   0  0  0  0  0  0  0  0  0  0  0  0
  143.3521   73.2159  221.3948 H   0  0  0  0  0  0  0  0  0  0  0  0
  1  2  1  0
  2  3  1  0
  3  4  1  0
  4  5  1  0
  5  6  1  0
  6  7  1  0
  7  8  2  0
  7  9  1  0
  9 10  1  0
 10 11  2  0
 11 12  1  0
 12 13  2  0
 13 14  1  0
 14 15  2  0
  6 16  1  0
 16 17  1  0
 17 18  2  0
 17 19  1  0
 19 20  1  0
 20 21  1  0
 21 22  2  0
 21 23  1  0
 23 24  2  0
 24 25  1  0
 25 26  2  0
 26 27  1  0
 27 28  2  0
 28 29  1  0
 29 30  2  0
 30 31  1  0
 31 32  2  0
 16 33  1  0
 33  4  1  0
 15 10  1  0
 32 23  1  0
 31 26  1  0
  1 34  1  0
  1 35  1  0
  1 36  1  0
  3 37  1  0
  3 38  1  0
  4 39  1  1
  5 40  1  0
  5 41  1  0
  6 42  1  6
  9 43  1  0
 11 44  1  0
 12 45  1  0
 13 46  1  0
 14 47  1  0
 15 48  1  0
 19 49  1  0
 19 50  1  0
 20 51  1  0
 24 52  1  0
 25 53  1  0
 27 54  1  0
 28 55  1  0
 29 56  1  0
 30 57  1  0
 33 58  1  0
 33 59  1  0
M  END
>  <smiles>  (10) 
COC[C@H]1C[C@H](C(=O)Nc2ccccc2)N(C(=O)CNC(=O)c2ccc3ccccc3n2)C1

>  <score_type>  (10) 
oracle

>  <origin>  (10) 
autodockgpu

>  <m_score__min__energy>  (10) 
-9.5399999999999991

>  <m_primary>  (10) 
energy

>  <rmsd>  (10) 
6.735801154933942

>  <m_score__min__rmsd>  (10) 
6.735801154933942

>  <meeko>  (10) 
{"free_energy": -7.06, "intermolecular_energy": -9.44, "internal_energy": -4.07, "cluster_size": 12, "cluster_id": 4, "rank_in_cluster": 8}

>  <energy>  (10) 
-9.32

>  <cluster_rmsd>  (10) 
1.4

>  <cluster>  (10) 
1

$$$$

     RDKit          3D

 59 62  0  0  0  0  0  0  0  0999 V2000
  146.3610   73.4170  221.2620 C   0  0  0  0  0  0  0  0  0  0  0  0
  146.0700   72.9400  220.0350 O   0  0  0  0  0  0  0  0  0  0  0  0
  144.8040   72.7000  219.7190 C   0  0  0  0  0  0  0  0  0  0  0  0
  143.7100   73.6810  219.9960 C   0  0  1  0  0  0  0  0  0  0  0  0
  143.1220   74.2190  218.7360 C   0  0  0  0  0  0  0  0  0  0  0  0
  141.6200   74.2520  219.0600 C   0  0  2  0  0  0  0  0  0  0  0  0
  141.2370   75.4320  219.8480 C   0  0  0  0  0  0  0  0  0  0  0  0
  141.5110   76.6210  219.5310 O   0  0  0  0  0  0  0  0  0  0  0  0
  140.4960   75.2920  221.0780 N   0  0  0  0  0  0  0  0  0  0  0  0
  140.1460   76.4700  221.8400 C   0  0  0  0  0  0  0  0  0  0  0  0
  141.1310   77.2860  222.3320 C   0  0  0  0  0  0  0  0  0  0  0  0
  140.6890   78.4050  223.0520 C   0  0  0  0  0  0  0  0  0  0  0  0
  139.3460   78.6500  223.2410 C   0  0  0  0  0  0  0  0  0  0  0  0
  138.3790   77.8030  222.7290 C   0  0  0  0  0  0  0  0  0  0  0  0
  138.7960   76.6770  222.0060 C   0  0  0  0  0  0  0  0  0  0  0  0
  141.4420   73.0110  219.7370 N   0  0  0  0  0  0  0  0  0  0  0  0
  140.4730   71.9810  219.6000 C   0  0  0  0  0  0  0  0  0  0  0  0
  140.6220   71.0150  218.8360 O   0  0  0  0  0  0  0  0  0  0  0  0
  139.2280   72.1040  220.4370 C   0  0  0  0  0  0  0  0  0  0  0  0
  139.3980   71.3630  221.6850 N   0  0  0  0  0  0  0  0  0  0  0  0
  140.0000   72.0600  222.7950 C   0  0  0  0  0  0  0  0  0  0  0  0
  140.3690   73.2550  222.7180 O   0  0  0  0  0  0  0  0  0  0  0  0
  140.1590   71.2740  224.0360 C   0  0  0  0  0  0  0  0  0  0  0  0
  140.7490   71.8730  225.1460 C   0  0  0  0  0  0  0  0  0  0  0  0
  140.9270   71.2020  226.3350 C   0  0  0  0  0  0  0  0  0  0  0  0
  140.4970   69.8950  226.3970 C   0  0  0  0  0  0  0  0  0  0  0  0
  140.6360   69.1390  227.5550 C   0  0  0  0  0  0  0  0  0  0  0  0
  140.1970   67.8310  227.5850 C   0  0  0  0  0  0  0  0  0  0  0  0
  139.6030   67.2220  226.4720 C   0  0  0  0  0  0  0  0  0  0  0  0
  139.5000   68.0390  225.3560 C   0  0  0  0  0  0  0  0  0  0  0  0
  139.9240   69.3300  225.3000 C   0  0  0  0  0  0  0  0  0  0  0  0
  139.7420   69.9850  224.1170 N   0  0  0  0  0  0  0  0  0  0  0  0
  142.5430   72.9480  220.6890 C   0  0  0  0  0  0  0  0  0  0  0  0
  145.9486   72.7410  222.0255 H   0  0  0  0  0  0  0  0  0  0  0  0
  147.4526   73.4819  221.3808 H   0  0  0  0  0  0  0  0  0  0  0  0
  145.9192   74.4173  221.3808 H   0  0  0  0  0  0  0  0  0  0  0  0
  144.7879   72.5219  218.6336 H   0  0  0  0  0  0  0  0  0  0  0  0
  144.5508   71.8781  220.4048 H   0  0  0  0  0  0  0  0  0  0  0  0
  144.1484   74.4864  220.6035 H   0  0  0  0  0  0  0  0  0  0  0  0
  143.5041   75.2271  218.5173 H   0  0  0  0  0  0  0  0  0  0  0  0
  143.3665   73.6201  217.8463 H   0  0  0  0  0  0  0  0  0  0  0  0
  140.9687   74.3506  218.1790 H   0  0  0  0  0  0  0  0  0  0  0  0
  140.1920   74.3680  221.4470 H   0  0  0  0  0  0  0  0  0  0  0  0
  142.1990   77.0767  222.1724 H   0  0  0  0  0  0  0  0  0  0  0  0
  141.4287   79.1010  223.4743 H   0  0  0  0  0  0  0  0  0  0  0  0
  139.0361   79.5381  223.8112 H   0  0  0  0  0  0  0  0  0  0  0  0
  137.3097   78.0082  222.8855 H   0  0  0  0  0  0  0  0  0  0  0  0
  138.0620   75.9761  221.5818 H   0  0  0  0  0  0  0  0  0  0  0  0
  139.0431   73.1644  220.6637 H   0  0  0  0  0  0  0  0  0  0  0  0
  138.3734   71.6905  219.8815 H   0  0  0  0  0  0  0  0  0  0  0  0
  139.0900   70.3680  221.7550 H   0  0  0  0  0  0  0  0  0  0  0  0
  141.0843   72.9179  225.0703 H   0  0  0  0  0  0  0  0  0  0  0  0
  141.3947   71.6910  227.2022 H   0  0  0  0  0  0  0  0  0  0  0  0
  141.0968   69.5841  228.4492 H   0  0  0  0  0  0  0  0  0  0  0  0
  140.3171   67.2491  228.5107 H   0  0  0  0  0  0  0  0  0  0  0  0
  139.2474   66.1811  226.4823 H   0  0  0  0  0  0  0  0  0  0  0  0
  139.0426   67.6122  224.4513 H   0  0  0  0  0  0  0  0  0  0  0  0
  142.2720   73.4529  221.6279 H   0  0  0  0  0  0  0  0  0  0  0  0
  142.8032   71.9123  220.9530 H   0  0  0  0  0  0  0  0  0  0  0  0
  1  2  1  0
  2  3  1  0
  3  4  1  0
  4  5  1  0
  5  6  1  0
  6  7  1  0
  7  8  2  0
  7  9  1  0
  9 10  1  0
 10 11  2  0
 11 12  1  0
 12 13  2  0
 13 14  1  0
 14 15  2  0
  6 16  1  0
 16 17  1  0
 17 18  2  0
 17 19  1  0
 19 20  1  0
 20 21  1  0
 21 22  2  0
 21 23  1  0
 23 24  2  0
 24 25  1  0
 25 26  2  0
 26 27  1  0
 27 28  2  0
 28 29  1  0
 29 30  2  0
 30 31  1  0
 31 32  2  0
 16 33  1  0
 33  4  1  0
 15 10  1  0
 32 23  1  0
 31 26  1  0
  1 34  1  0
  1 35  1  0
  1 36  1  0
  3 37  1  0
  3 38  1  0
  4 39  1  1
  5 40  1  0
  5 41  1  0
  6 42  1  6
  9 43  1  0
 11 44  1  0
 12 45  1  0
 13 46  1  0
 14 47  1  0
 15 48  1  0
 19 49  1  0
 19 50  1  0
 20 51  1  0
 24 52  1  0
 25 53  1  0
 27 54  1  0
 28 55  1  0
 29 56  1  0
 30 57  1  0
 33 58  1  0
 33 59  1  0
M  END
>  <smiles>  (11) 
COC[C@H]1C[C@H](C(=O)Nc2ccccc2)N(C(=O)CNC(=O)c2ccc3ccccc3n2)C1

>  <score_type>  (11) 
oracle

>  <origin>  (11) 
autodockgpu

>  <m_score__min__energy>  (11) 
-9.5399999999999991

>  <m_primary>  (11) 
energy

>  <rmsd>  (11) 
3.994157345818692

>  <m_score__min__rmsd>  (11) 
3.994157345818692

>  <meeko>  (11) 
{"free_energy": -7.88, "intermolecular_energy": -10.27, "internal_energy": -3.12, "cluster_size": 30, "cluster_id": 1, "rank_in_cluster": 30}

>  <energy>  (11) 
-9.24

>  <cluster_rmsd>  (11) 
0.6

>  <cluster>  (11) 
1

$$$$

     RDKit          3D

 59 62  0  0  0  0  0  0  0  0999 V2000
  145.4710   71.3660  219.1490 C   0  0  0  0  0  0  0  0  0  0  0  0
  145.8540   72.6400  218.9340 O   0  0  0  0  0  0  0  0  0  0  0  0
  145.6600   73.5440  219.8860 C   0  0  0  0  0  0  0  0  0  0  0  0
  144.3470   74.2310  220.0830 C   0  0  1  0  0  0  0  0  0  0  0  0
  143.6650   74.4960  218.7840 C   0  0  0  0  0  0  0  0  0  0  0  0
  142.1990   74.1700  219.1080 C   0  0  2  0  0  0  0  0  0  0  0  0
  141.5120   75.2730  219.7960 C   0  0  0  0  0  0  0  0  0  0  0  0
  141.4720   76.4610  219.3740 O   0  0  0  0  0  0  0  0  0  0  0  0
  140.8180   75.0520  221.0400 N   0  0  0  0  0  0  0  0  0  0  0  0
  140.1640   76.1590  221.7020 C   0  0  0  0  0  0  0  0  0  0  0  0
  138.8150   76.1160  221.9370 C   0  0  0  0  0  0  0  0  0  0  0  0
  138.2770   77.2350  222.5900 C   0  0  0  0  0  0  0  0  0  0  0  0
  139.0710   78.2970  222.9630 C   0  0  0  0  0  0  0  0  0  0  0  0
  140.4310   78.3050  222.7090 C   0  0  0  0  0  0  0  0  0  0  0  0
  140.9930   77.1980  222.0570 C   0  0  0  0  0  0  0  0  0  0  0  0
  142.3300   72.9850  219.8870 N   0  0  0  0  0  0  0  0  0  0  0  0
  141.6600   71.7340  219.8390 C   0  0  0  0  0  0  0  0  0  0  0  0
  142.1780   70.7090  219.3690 O   0  0  0  0  0  0  0  0  0  0  0  0
  140.2610   71.6910  220.3940 C   0  0  0  0  0  0  0  0  0  0  0  0
  140.2740   71.0660  221.7160 N   0  0  0  0  0  0  0  0  0  0  0  0
  140.2820   71.9390  222.8640 C   0  0  0  0  0  0  0  0  0  0  0  0
  140.2760   73.1870  222.7590 O   0  0  0  0  0  0  0  0  0  0  0  0
  140.3010   71.2670  224.1800 C   0  0  0  0  0  0  0  0  0  0  0  0
  140.7360   71.9780  225.2960 C   0  0  0  0  0  0  0  0  0  0  0  0
  140.7770   71.4160  226.5530 C   0  0  0  0  0  0  0  0  0  0  0  0
  140.3700   70.1070  226.6780 C   0  0  0  0  0  0  0  0  0  0  0  0
  140.3800   69.4570  227.9070 C   0  0  0  0  0  0  0  0  0  0  0  0
  139.9670   68.1440  227.9990 C   0  0  0  0  0  0  0  0  0  0  0  0
  139.5310   67.4220  226.8790 C   0  0  0  0  0  0  0  0  0  0  0  0
  139.5510   68.1380  225.6910 C   0  0  0  0  0  0  0  0  0  0  0  0
  139.9510   69.4320  225.5730 C   0  0  0  0  0  0  0  0  0  0  0  0
  139.9040   69.9780  224.3230 N   0  0  0  0  0  0  0  0  0  0  0  0
  143.3920   73.2840  220.8380 C   0  0  0  0  0  0  0  0  0  0  0  0
  145.4144   71.1778  220.2313 H   0  0  0  0  0  0  0  0  0  0  0  0
  144.4828   71.1987  218.6956 H   0  0  0  0  0  0  0  0  0  0  0  0
  146.2031   70.6815  218.6956 H   0  0  0  0  0  0  0  0  0  0  0  0
  145.8874   73.0403  220.8371 H   0  0  0  0  0  0  0  0  0  0  0  0
  146.2999   74.3717  219.5461 H   0  0  0  0  0  0  0  0  0  0  0  0
  144.5545   75.1682  220.6203 H   0  0  0  0  0  0  0  0  0  0  0  0
  143.7812   75.5470  218.4807 H   0  0  0  0  0  0  0  0  0  0  0  0
  144.0709   73.9091  217.9469 H   0  0  0  0  0  0  0  0  0  0  0  0
  141.5617   74.0266  218.2230 H   0  0  0  0  0  0  0  0  0  0  0  0
  140.7600   74.1150  221.4910 H   0  0  0  0  0  0  0  0  0  0  0  0
  138.1943   75.2600  221.6335 H   0  0  0  0  0  0  0  0  0  0  0  0
  137.1993   77.2649  222.8086 H   0  0  0  0  0  0  0  0  0  0  0  0
  138.6139   79.1573  223.4738 H   0  0  0  0  0  0  0  0  0  0  0  0
  141.0558   79.1584  223.0110 H   0  0  0  0  0  0  0  0  0  0  0  0
  142.0697   77.1613  221.8350 H   0  0  0  0  0  0  0  0  0  0  0  0
  139.8692   72.7155  220.4778 H   0  0  0  0  0  0  0  0  0  0  0  0
  139.6197   71.1041  219.7200 H   0  0  0  0  0  0  0  0  0  0  0  0
  140.2780   70.0260  221.8080 H   0  0  0  0  0  0  0  0  0  0  0  0
  141.0573   73.0224  225.1694 H   0  0  0  0  0  0  0  0  0  0  0  0
  141.1221   71.9918  227.4244 H   0  0  0  0  0  0  0  0  0  0  0  0
  140.7179   69.9907  228.8076 H   0  0  0  0  0  0  0  0  0  0  0  0
  139.9801   67.6484  228.9809 H   0  0  0  0  0  0  0  0  0  0  0  0
  139.2004   66.3745  226.9375 H   0  0  0  0  0  0  0  0  0  0  0  0
  139.2192   67.6214  224.7783 H   0  0  0  0  0  0  0  0  0  0  0  0
  142.9832   73.7785  221.7315 H   0  0  0  0  0  0  0  0  0  0  0  0
  143.9023   72.3745  221.1878 H   0  0  0  0  0  0  0  0  0  0  0  0
  1  2  1  0
  2  3  1  0
  3  4  1  0
  4  5  1  0
  5  6  1  0
  6  7  1  0
  7  8  2  0
  7  9  1  0
  9 10  1  0
 10 11  2  0
 11 12  1  0
 12 13  2  0
 13 14  1  0
 14 15  2  0
  6 16  1  0
 16 17  1  0
 17 18  2  0
 17 19  1  0
 19 20  1  0
 20 21  1  0
 21 22  2  0
 21 23  1  0
 23 24  2  0
 24 25  1  0
 25 26  2  0
 26 27  1  0
 27 28  2  0
 28 29  1  0
 29 30  2  0
 30 31  1  0
 31 32  2  0
 16 33  1  0
 33  4  1  0
 15 10  1  0
 32 23  1  0
 31 26  1  0
  1 34  1  0
  1 35  1  0
  1 36  1  0
  3 37  1  0
  3 38  1  0
  4 39  1  1
  5 40  1  0
  5 41  1  0
  6 42  1  6
  9 43  1  0
 11 44  1  0
 12 45  1  0
 13 46  1  0
 14 47  1  0
 15 48  1  0
 19 49  1  0
 19 50  1  0
 20 51  1  0
 24 52  1  0
 25 53  1  0
 27 54  1  0
 28 55  1  0
 29 56  1  0
 30 57  1  0
 33 58  1  0
 33 59  1  0
M  END
>  <smiles>  (12) 
COC[C@H]1C[C@H](C(=O)Nc2ccccc2)N(C(=O)CNC(=O)c2ccc3ccccc3n2)C1

>  <score_type>  (12) 
oracle

>  <origin>  (12) 
autodockgpu

>  <m_score__min__energy>  (12) 
-9.5399999999999991

>  <m_primary>  (12) 
energy

>  <rmsd>  (12) 
4.162939904484202

>  <m_score__min__rmsd>  (12) 
4.162939904484202

>  <meeko>  (12) 
{"free_energy": -8.25, "intermolecular_energy": -10.64, "internal_energy": -3.12, "cluster_size": 1, "cluster_id": 2, "rank_in_cluster": 1}

>  <energy>  (12) 
-9.22

>  <cluster_rmsd>  (12) 
0.97

>  <cluster>  (12) 
1

$$$$

     RDKit          3D

 59 62  0  0  0  0  0  0  0  0999 V2000
  142.9020   77.5120  215.9190 C   0  0  0  0  0  0  0  0  0  0  0  0
  143.8170   76.8350  216.6410 O   0  0  0  0  0  0  0  0  0  0  0  0
  143.4110   76.0850  217.6590 C   0  0  0  0  0  0  0  0  0  0  0  0
  142.8260   76.6730  218.9030 C   0  0  1  0  0  0  0  0  0  0  0  0
  141.3530   76.8670  218.7800 C   0  0  0  0  0  0  0  0  0  0  0  0
  140.8450   76.4350  220.1640 C   0  0  2  0  0  0  0  0  0  0  0  0
  140.9900   77.4920  221.1750 C   0  0  0  0  0  0  0  0  0  0  0  0
  140.3170   77.5560  222.2400 O   0  0  0  0  0  0  0  0  0  0  0  0
  141.9480   78.5560  221.0030 N   0  0  0  0  0  0  0  0  0  0  0  0
  142.0580   79.5900  222.0080 C   0  0  0  0  0  0  0  0  0  0  0  0
  142.9140   79.4290  223.0650 C   0  0  0  0  0  0  0  0  0  0  0  0
  142.9540   80.4900  223.9810 C   0  0  0  0  0  0  0  0  0  0  0  0
  142.1740   81.6130  223.8110 C   0  0  0  0  0  0  0  0  0  0  0  0
  141.3200   81.7400  222.7290 C   0  0  0  0  0  0  0  0  0  0  0  0
  141.2620   80.6930  221.7990 C   0  0  0  0  0  0  0  0  0  0  0  0
  141.6330   75.2740  220.4120 N   0  0  0  0  0  0  0  0  0  0  0  0
  141.2960   73.9750  220.8770 C   0  0  0  0  0  0  0  0  0  0  0  0
  142.1250   73.0550  220.9630 O   0  0  0  0  0  0  0  0  0  0  0  0
  139.8620   73.7460  221.2740 C   0  0  0  0  0  0  0  0  0  0  0  0
  139.8120   72.9850  222.5210 N   0  0  0  0  0  0  0  0  0  0  0  0
  140.0320   71.5620  222.4410 C   0  0  0  0  0  0  0  0  0  0  0  0
  140.2630   70.9770  221.3570 O   0  0  0  0  0  0  0  0  0  0  0  0
  139.9680   70.8300  223.7230 C   0  0  0  0  0  0  0  0  0  0  0  0
  139.2790   69.6210  223.7780 C   0  0  0  0  0  0  0  0  0  0  0  0
  139.1800   68.8840  224.9380 C   0  0  0  0  0  0  0  0  0  0  0  0
  139.7920   69.3870  226.0640 C   0  0  0  0  0  0  0  0  0  0  0  0
  139.7440   68.7140  227.2790 C   0  0  0  0  0  0  0  0  0  0  0  0
  140.3660   69.2450  228.3900 C   0  0  0  0  0  0  0  0  0  0  0  0
  141.0600   70.4630  228.3420 C   0  0  0  0  0  0  0  0  0  0  0  0
  141.0620   71.0740  227.0970 C   0  0  0  0  0  0  0  0  0  0  0  0
  140.4590   70.5720  225.9870 C   0  0  0  0  0  0  0  0  0  0  0  0
  140.5640   71.3090  224.8430 N   0  0  0  0  0  0  0  0  0  0  0  0
  142.9920   75.6670  220.0600 C   0  0  0  0  0  0  0  0  0  0  0  0
  142.2065   78.0266  216.5984 H   0  0  0  0  0  0  0  0  0  0  0  0
  143.4106   78.2530  215.2847 H   0  0  0  0  0  0  0  0  0  0  0  0
  142.3422   76.8090  215.2847 H   0  0  0  0  0  0  0  0  0  0  0  0
  142.6472   75.4055  217.2531 H   0  0  0  0  0  0  0  0  0  0  0  0
  144.3606   75.6707  218.0286 H   0  0  0  0  0  0  0  0  0  0  0  0
  143.3380   77.6313  219.0750 H   0  0  0  0  0  0  0  0  0  0  0  0
  141.1061   77.9194  218.5765 H   0  0  0  0  0  0  0  0  0  0  0  0
  140.9034   76.3007  217.9510 H   0  0  0  0  0  0  0  0  0  0  0  0
  139.7649   76.2310  220.2069 H   0  0  0  0  0  0  0  0  0  0  0  0
  142.5790   78.6140  220.1770 H   0  0  0  0  0  0  0  0  0  0  0  0
  143.5301   78.5260  223.1874 H   0  0  0  0  0  0  0  0  0  0  0  0
  143.6215   80.4244  224.8528 H   0  0  0  0  0  0  0  0  0  0  0  0
  142.2311   82.4254  224.5504 H   0  0  0  0  0  0  0  0  0  0  0  0
  140.7018   82.6409  222.6021 H   0  0  0  0  0  0  0  0  0  0  0  0
  140.5973   80.7514  220.9245 H   0  0  0  0  0  0  0  0  0  0  0  0
  139.3628   74.7157  221.4171 H   0  0  0  0  0  0  0  0  0  0  0  0
  139.3502   73.1807  220.4813 H   0  0  0  0  0  0  0  0  0  0  0  0
  139.6220   73.4680  223.4270 H   0  0  0  0  0  0  0  0  0  0  0  0
  138.7976   69.2416  222.8646 H   0  0  0  0  0  0  0  0  0  0  0  0
  138.6328   67.9301  224.9634 H   0  0  0  0  0  0  0  0  0  0  0  0
  139.2089   67.7559  227.3550 H   0  0  0  0  0  0  0  0  0  0  0  0
  140.3162   68.6967  229.3423 H   0  0  0  0  0  0  0  0  0  0  0  0
  141.5613   70.8977  229.2194 H   0  0  0  0  0  0  0  0  0  0  0  0
  141.5897   72.0343  227.0008 H   0  0  0  0  0  0  0  0  0  0  0  0
  143.4921   76.1417  220.9171 H   0  0  0  0  0  0  0  0  0  0  0  0
  143.6119   74.8046  219.7736 H   0  0  0  0  0  0  0  0  0  0  0  0
  1  2  1  0
  2  3  1  0
  3  4  1  0
  4  5  1  0
  5  6  1  0
  6  7  1  0
  7  8  2  0
  7  9  1  0
  9 10  1  0
 10 11  2  0
 11 12  1  0
 12 13  2  0
 13 14  1  0
 14 15  2  0
  6 16  1  0
 16 17  1  0
 17 18  2  0
 17 19  1  0
 19 20  1  0
 20 21  1  0
 21 22  2  0
 21 23  1  0
 23 24  2  0
 24 25  1  0
 25 26  2  0
 26 27  1  0
 27 28  2  0
 28 29  1  0
 29 30  2  0
 30 31  1  0
 31 32  2  0
 16 33  1  0
 33  4  1  0
 15 10  1  0
 32 23  1  0
 31 26  1  0
  1 34  1  0
  1 35  1  0
  1 36  1  0
  3 37  1  0
  3 38  1  0
  4 39  1  1
  5 40  1  0
  5 41  1  0
  6 42  1  6
  9 43  1  0
 11 44  1  0
 12 45  1  0
 13 46  1  0
 14 47  1  0
 15 48  1  0
 19 49  1  0
 19 50  1  0
 20 51  1  0
 24 52  1  0
 25 53  1  0
 27 54  1  0
 28 55  1  0
 29 56  1  0
 30 57  1  0
 33 58  1  0
 33 59  1  0
M  END
>  <smiles>  (13) 
COC[C@H]1C[C@H](C(=O)Nc2ccccc2)N(C(=O)CNC(=O)c2ccc3ccccc3n2)C1

>  <score_type>  (13) 
oracle

>  <origin>  (13) 
autodockgpu

>  <m_score__min__energy>  (13) 
-9.5399999999999991

>  <m_primary>  (13) 
energy

>  <rmsd>  (13) 
2.4500890784338387

>  <m_score__min__rmsd>  (13) 
2.4500890784338387

>  <meeko>  (13) 
{"free_energy": -9.21, "intermolecular_energy": -11.6, "internal_energy": -1.66, "cluster_size": 30, "cluster_id": 1, "rank_in_cluster": 13}

>  <energy>  (13) 
-9.21

>  <cluster_rmsd>  (13) 
1.4

>  <cluster>  (13) 
1

$$$$

     RDKit          3D

 59 62  0  0  0  0  0  0  0  0999 V2000
  145.9680   73.5810  220.9430 C   0  0  0  0  0  0  0  0  0  0  0  0
  145.1460   73.2070  219.9420 O   0  0  0  0  0  0  0  0  0  0  0  0
  144.4690   74.1360  219.2800 C   0  0  0  0  0  0  0  0  0  0  0  0
  143.5080   75.0610  219.9570 C   0  0  1  0  0  0  0  0  0  0  0  0
  142.6330   75.7610  218.9750 C   0  0  0  0  0  0  0  0  0  0  0  0
  141.2650   75.7370  219.6740 C   0  0  2  0  0  0  0  0  0  0  0  0
  141.1270   76.7940  220.6860 C   0  0  0  0  0  0  0  0  0  0  0  0
  140.1640   76.8850  221.4950 O   0  0  0  0  0  0  0  0  0  0  0  0
  142.1240   77.8280  220.8170 N   0  0  0  0  0  0  0  0  0  0  0  0
  141.9550   78.8640  221.8120 C   0  0  0  0  0  0  0  0  0  0  0  0
  141.7750   78.5270  223.1280 C   0  0  0  0  0  0  0  0  0  0  0  0
  141.6270   79.6020  224.0150 C   0  0  0  0  0  0  0  0  0  0  0  0
  141.6630   80.9060  223.5720 C   0  0  0  0  0  0  0  0  0  0  0  0
  141.8470   81.2090  222.2340 C   0  0  0  0  0  0  0  0  0  0  0  0
  141.9970   80.1510  221.3270 C   0  0  0  0  0  0  0  0  0  0  0  0
  141.2320   74.4140  220.2010 N   0  0  0  0  0  0  0  0  0  0  0  0
  140.2340   73.4040  220.1810 C   0  0  0  0  0  0  0  0  0  0  0  0
  140.3040   72.4030  219.4520 O   0  0  0  0  0  0  0  0  0  0  0  0
  139.0550   73.5940  221.0990 C   0  0  0  0  0  0  0  0  0  0  0  0
  139.2980   72.8990  222.3620 N   0  0  0  0  0  0  0  0  0  0  0  0
  139.2400   71.4590  222.3510 C   0  0  0  0  0  0  0  0  0  0  0  0
  138.9940   70.8040  221.3110 O   0  0  0  0  0  0  0  0  0  0  0  0
  139.4860   70.7960  223.6480 C   0  0  0  0  0  0  0  0  0  0  0  0
  139.1630   69.4490  223.7930 C   0  0  0  0  0  0  0  0  0  0  0  0
  139.3680   68.7670  224.9720 C   0  0  0  0  0  0  0  0  0  0  0  0
  139.9100   69.4690  226.0250 C   0  0  0  0  0  0  0  0  0  0  0  0
  140.1500   68.8640  227.2530 C   0  0  0  0  0  0  0  0  0  0  0  0
  140.6930   69.5950  228.2910 C   0  0  0  0  0  0  0  0  0  0  0  0
  141.0180   70.9510  228.1530 C   0  0  0  0  0  0  0  0  0  0  0  0
  140.7490   71.4820  226.9000 C   0  0  0  0  0  0  0  0  0  0  0  0
  140.2160   70.7850  225.8620 C   0  0  0  0  0  0  0  0  0  0  0  0
  140.0190   71.4700  224.6980 N   0  0  0  0  0  0  0  0  0  0  0  0
  142.5370   74.2310  220.8220 C   0  0  0  0  0  0  0  0  0  0  0  0
  145.4907   73.3638  221.9099 H   0  0  0  0  0  0  0  0  0  0  0  0
  146.9140   73.0247  220.8679 H   0  0  0  0  0  0  0  0  0  0  0  0
  146.1701   74.6597  220.8679 H   0  0  0  0  0  0  0  0  0  0  0  0
  145.2211   74.7764  218.7960 H   0  0  0  0  0  0  0  0  0  0  0  0
  143.7974   73.5270  218.6570 H   0  0  0  0  0  0  0  0  0  0  0  0
  144.1090   75.7796  220.5336 H   0  0  0  0  0  0  0  0  0  0  0  0
  142.9738   76.7927  218.8033 H   0  0  0  0  0  0  0  0  0  0  0  0
  142.6260   75.2912  217.9804 H   0  0  0  0  0  0  0  0  0  0  0  0
  140.4143   75.9504  219.0101 H   0  0  0  0  0  0  0  0  0  0  0  0
  142.9780   77.8620  220.2230 H   0  0  0  0  0  0  0  0  0  0  0  0
  141.7484   77.4806  223.4663 H   0  0  0  0  0  0  0  0  0  0  0  0
  141.4792   79.4005  225.0862 H   0  0  0  0  0  0  0  0  0  0  0  0
  141.5429   81.7242  224.2974 H   0  0  0  0  0  0  0  0  0  0  0  0
  141.8748   82.2538  221.8911 H   0  0  0  0  0  0  0  0  0  0  0  0
  142.1446   80.3447  220.2543 H   0  0  0  0  0  0  0  0  0  0  0  0
  138.9121   74.6672  221.2936 H   0  0  0  0  0  0  0  0  0  0  0  0
  138.1526   73.1819  220.6237 H   0  0  0  0  0  0  0  0  0  0  0  0
  139.5050   73.4400  223.2300 H   0  0  0  0  0  0  0  0  0  0  0  0
  138.7294   68.9115  222.9368 H   0  0  0  0  0  0  0  0  0  0  0  0
  139.1086   67.7024  225.0685 H   0  0  0  0  0  0  0  0  0  0  0  0
  139.9070   67.8011  227.3983 H   0  0  0  0  0  0  0  0  0  0  0  0
  140.8759   69.0980  229.2551 H   0  0  0  0  0  0  0  0  0  0  0  0
  141.4509   71.5456  228.9710 H   0  0  0  0  0  0  0  0  0  0  0  0
  140.9840   72.5438  226.7345 H   0  0  0  0  0  0  0  0  0  0  0  0
  142.5281   74.6014  221.8577 H   0  0  0  0  0  0  0  0  0  0  0  0
  142.8278   73.1712  220.8701 H   0  0  0  0  0  0  0  0  0  0  0  0
  1  2  1  0
  2  3  1  0
  3  4  1  0
  4  5  1  0
  5  6  1  0
  6  7  1  0
  7  8  2  0
  7  9  1  0
  9 10  1  0
 10 11  2  0
 11 12  1  0
 12 13  2  0
 13 14  1  0
 14 15  2  0
  6 16  1  0
 16 17  1  0
 17 18  2  0
 17 19  1  0
 19 20  1  0
 20 21  1  0
 21 22  2  0
 21 23  1  0
 23 24  2  0
 24 25  1  0
 25 26  2  0
 26 27  1  0
 27 28  2  0
 28 29  1  0
 29 30  2  0
 30 31  1  0
 31 32  2  0
 16 33  1  0
 33  4  1  0
 15 10  1  0
 32 23  1  0
 31 26  1  0
  1 34  1  0
  1 35  1  0
  1 36  1  0
  3 37  1  0
  3 38  1  0
  4 39  1  1
  5 40  1  0
  5 41  1  0
  6 42  1  6
  9 43  1  0
 11 44  1  0
 12 45  1  0
 13 46  1  0
 14 47  1  0
 15 48  1  0
 19 49  1  0
 19 50  1  0
 20 51  1  0
 24 52  1  0
 25 53  1  0
 27 54  1  0
 28 55  1  0
 29 56  1  0
 30 57  1  0
 33 58  1  0
 33 59  1  0
M  END
>  <smiles>  (14) 
COC[C@H]1C[C@H](C(=O)Nc2ccccc2)N(C(=O)CNC(=O)c2ccc3ccccc3n2)C1

>  <score_type>  (14) 
oracle

>  <origin>  (14) 
autodockgpu

>  <m_score__min__energy>  (14) 
-9.5399999999999991

>  <m_primary>  (14) 
energy

>  <rmsd>  (14) 
2.661949686469331

>  <m_score__min__rmsd>  (14) 
2.661949686469331

>  <meeko>  (14) 
{"free_energy": -9.41, "intermolecular_energy": -11.8, "internal_energy": -1.91, "cluster_size": 30, "cluster_id": 1, "rank_in_cluster": 5}

>  <energy>  (14) 
-9.18

>  <cluster_rmsd>  (14) 
0.67

>  <cluster>  (14) 
1

$$$$

     RDKit          3D

 59 62  0  0  0  0  0  0  0  0999 V2000
  144.1400   71.8180  220.1430 C   0  0  0  0  0  0  0  0  0  0  0  0
  144.4560   72.9230  220.8470 O   0  0  0  0  0  0  0  0  0  0  0  0
  144.8390   74.0150  220.1990 C   0  0  0  0  0  0  0  0  0  0  0  0
  143.8790   75.0940  219.8100 C   0  0  1  0  0  0  0  0  0  0  0  0
  143.6950   75.1600  218.3320 C   0  0  0  0  0  0  0  0  0  0  0  0
  142.1840   75.4030  218.1970 C   0  0  2  0  0  0  0  0  0  0  0  0
  141.8170   76.8120  218.3960 C   0  0  0  0  0  0  0  0  0  0  0  0
  140.6400   77.2600  218.3220 O   0  0  0  0  0  0  0  0  0  0  0  0
  142.8200   77.8030  218.6990 N   0  0  0  0  0  0  0  0  0  0  0  0
  142.4320   79.1850  218.8750 C   0  0  0  0  0  0  0  0  0  0  0  0
  141.7660   79.5710  220.0090 C   0  0  0  0  0  0  0  0  0  0  0  0
  141.4400   80.9320  220.0880 C   0  0  0  0  0  0  0  0  0  0  0  0
  141.7750   81.8090  219.0800 C   0  0  0  0  0  0  0  0  0  0  0  0
  142.4490   81.3830  217.9480 C   0  0  0  0  0  0  0  0  0  0  0  0
  142.7870   80.0260  217.8450 C   0  0  0  0  0  0  0  0  0  0  0  0
  141.6580   74.5170  219.1810 N   0  0  0  0  0  0  0  0  0  0  0  0
  140.5990   73.5710  219.1450 C   0  0  0  0  0  0  0  0  0  0  0  0
  140.7400   72.4190  218.7060 O   0  0  0  0  0  0  0  0  0  0  0  0
  139.2640   74.0260  219.6710 C   0  0  0  0  0  0  0  0  0  0  0  0
  139.3840   75.3750  220.2200 N   0  0  0  0  0  0  0  0  0  0  0  0
  139.7460   75.4970  221.6110 C   0  0  0  0  0  0  0  0  0  0  0  0
  139.9560   74.5000  222.3410 O   0  0  0  0  0  0  0  0  0  0  0  0
  139.8520   76.8770  222.1280 C   0  0  0  0  0  0  0  0  0  0  0  0
  138.6900   77.6220  222.3140 C   0  0  0  0  0  0  0  0  0  0  0  0
  138.7130   78.9120  222.7940 C   0  0  0  0  0  0  0  0  0  0  0  0
  139.9430   79.4580  223.0900 C   0  0  0  0  0  0  0  0  0  0  0  0
  140.0640   80.7530  223.5770 C   0  0  0  0  0  0  0  0  0  0  0  0
  141.3110   81.2720  223.8620 C   0  0  0  0  0  0  0  0  0  0  0  0
  142.4840   80.5290  223.6760 C   0  0  0  0  0  0  0  0  0  0  0  0
  142.2810   79.2470  223.1860 C   0  0  0  0  0  0  0  0  0  0  0  0
  141.0650   78.7120  222.8990 C   0  0  0  0  0  0  0  0  0  0  0  0
  141.0540   77.4320  222.4250 N   0  0  0  0  0  0  0  0  0  0  0  0
  142.4820   74.7450  220.3620 C   0  0  0  0  0  0  0  0  0  0  0  0
  143.9051   70.9965  220.8358 H   0  0  0  0  0  0  0  0  0  0  0  0
  143.2650   72.0247  219.5093 H   0  0  0  0  0  0  0  0  0  0  0  0
  144.9920   71.5309  219.5093 H   0  0  0  0  0  0  0  0  0  0  0  0
  145.5994   74.4956  220.8321 H   0  0  0  0  0  0  0  0  0  0  0  0
  145.1304   73.6071  219.2199 H   0  0  0  0  0  0  0  0  0  0  0  0
  144.2843   76.0391  220.2005 H   0  0  0  0  0  0  0  0  0  0  0  0
  144.2717   75.9890  217.8960 H   0  0  0  0  0  0  0  0  0  0  0  0
  144.0436   74.2593  217.8055 H   0  0  0  0  0  0  0  0  0  0  0  0
  141.7830   75.2064  217.1918 H   0  0  0  0  0  0  0  0  0  0  0  0
  143.8280   77.5660  218.8040 H   0  0  0  0  0  0  0  0  0  0  0  0
  141.5043   78.8589  220.8055 H   0  0  0  0  0  0  0  0  0  0  0  0
  140.9057   81.3074  220.9732 H   0  0  0  0  0  0  0  0  0  0  0  0
  141.5013   82.8700  219.1764 H   0  0  0  0  0  0  0  0  0  0  0  0
  142.7128   82.0917  217.1491 H   0  0  0  0  0  0  0  0  0  0  0  0
  143.3222   79.6434  216.9634 H   0  0  0  0  0  0  0  0  0  0  0  0
  138.5300   74.0287  218.8517 H   0  0  0  0  0  0  0  0  0  0  0  0
  138.9315   73.3389  220.4631 H   0  0  0  0  0  0  0  0  0  0  0  0
  139.2120   76.2090  219.6160 H   0  0  0  0  0  0  0  0  0  0  0  0
  137.7205   77.1638  222.0689 H   0  0  0  0  0  0  0  0  0  0  0  0
  137.7848   79.4851  222.9359 H   0  0  0  0  0  0  0  0  0  0  0  0
  139.1647   81.3661  223.7359 H   0  0  0  0  0  0  0  0  0  0  0  0
  141.3859   82.2998  224.2467 H   0  0  0  0  0  0  0  0  0  0  0  0
  143.4838   80.9292  223.9000 H   0  0  0  0  0  0  0  0  0  0  0  0
  143.1679   78.6184  223.0177 H   0  0  0  0  0  0  0  0  0  0  0  0
  142.0820   75.5786  220.9579 H   0  0  0  0  0  0  0  0  0  0  0  0
  142.5062   73.8680  221.0255 H   0  0  0  0  0  0  0  0  0  0  0  0
  1  2  1  0
  2  3  1  0
  3  4  1  0
  4  5  1  0
  5  6  1  0
  6  7  1  0
  7  8  2  0
  7  9  1  0
  9 10  1  0
 10 11  2  0
 11 12  1  0
 12 13  2  0
 13 14  1  0
 14 15  2  0
  6 16  1  0
 16 17  1  0
 17 18  2  0
 17 19  1  0
 19 20  1  0
 20 21  1  0
 21 22  2  0
 21 23  1  0
 23 24  2  0
 24 25  1  0
 25 26  2  0
 26 27  1  0
 27 28  2  0
 28 29  1  0
 29 30  2  0
 30 31  1  0
 31 32  2  0
 16 33  1  0
 33  4  1  0
 15 10  1  0
 32 23  1  0
 31 26  1  0
  1 34  1  0
  1 35  1  0
  1 36  1  0
  3 37  1  0
  3 38  1  0
  4 39  1  1
  5 40  1  0
  5 41  1  0
  6 42  1  6
  9 43  1  0
 11 44  1  0
 12 45  1  0
 13 46  1  0
 14 47  1  0
 15 48  1  0
 19 49  1  0
 19 50  1  0
 20 51  1  0
 24 52  1  0
 25 53  1  0
 27 54  1  0
 28 55  1  0
 29 56  1  0
 30 57  1  0
 33 58  1  0
 33 59  1  0
M  END
>  <smiles>  (15) 
COC[C@H]1C[C@H](C(=O)Nc2ccccc2)N(C(=O)CNC(=O)c2ccc3ccccc3n2)C1

>  <score_type>  (15) 
oracle

>  <origin>  (15) 
autodockgpu

>  <m_score__min__energy>  (15) 
-9.5399999999999991

>  <m_primary>  (15) 
energy

>  <rmsd>  (15) 
6.4306345469045265

>  <m_score__min__rmsd>  (15) 
6.4306345469045265

>  <meeko>  (15) 
{"free_energy": -6.86, "intermolecular_energy": -9.25, "internal_energy": -3.83, "cluster_size": 12, "cluster_id": 4, "rank_in_cluster": 11}

>  <energy>  (15) 
-9.17

>  <cluster_rmsd>  (15) 
1.61

>  <cluster>  (15) 
1

$$$$

     RDKit          3D

 59 62  0  0  0  0  0  0  0  0999 V2000
  143.2900   77.1710  215.2690 C   0  0  0  0  0  0  0  0  0  0  0  0
  144.1110   76.6340  216.1930 O   0  0  0  0  0  0  0  0  0  0  0  0
  143.5860   76.0310  217.2520 C   0  0  0  0  0  0  0  0  0  0  0  0
  142.9510   76.7910  218.3730 C   0  0  1  0  0  0  0  0  0  0  0  0
  141.4760   76.9030  218.1960 C   0  0  0  0  0  0  0  0  0  0  0  0
  140.9540   76.6830  219.6250 C   0  0  2  0  0  0  0  0  0  0  0  0
  141.0370   77.8960  220.4510 C   0  0  0  0  0  0  0  0  0  0  0  0
  140.6770   79.0430  220.0700 O   0  0  0  0  0  0  0  0  0  0  0  0
  141.5540   77.8430  221.7960 N   0  0  0  0  0  0  0  0  0  0  0  0
  141.6380   79.0550  222.5790 C   0  0  0  0  0  0  0  0  0  0  0  0
  140.4960   79.6370  223.0660 C   0  0  0  0  0  0  0  0  0  0  0  0
  140.6830   80.8040  223.8190 C   0  0  0  0  0  0  0  0  0  0  0  0
  141.9420   81.3180  224.0440 C   0  0  0  0  0  0  0  0  0  0  0  0
  143.0730   80.7030  223.5360 C   0  0  0  0  0  0  0  0  0  0  0  0
  142.9120   79.5330  222.7800 C   0  0  0  0  0  0  0  0  0  0  0  0
  141.7780   75.6110  220.0730 N   0  0  0  0  0  0  0  0  0  0  0  0
  141.4790   74.3930  220.7400 C   0  0  0  0  0  0  0  0  0  0  0  0
  142.3530   73.5840  221.0870 O   0  0  0  0  0  0  0  0  0  0  0  0
  140.0270   74.1100  221.0200 C   0  0  0  0  0  0  0  0  0  0  0  0
  139.9010   73.3990  222.2910 N   0  0  0  0  0  0  0  0  0  0  0  0
  140.2680   72.0050  222.3130 C   0  0  0  0  0  0  0  0  0  0  0  0
  140.6850   71.4040  221.2950 O   0  0  0  0  0  0  0  0  0  0  0  0
  140.1210   71.3220  223.6150 C   0  0  0  0  0  0  0  0  0  0  0  0
  139.4100   70.1270  223.6750 C   0  0  0  0  0  0  0  0  0  0  0  0
  139.2350   69.4350  224.8540 C   0  0  0  0  0  0  0  0  0  0  0  0
  139.7920   69.9710  225.9930 C   0  0  0  0  0  0  0  0  0  0  0  0
  139.6650   69.3450  227.2270 C   0  0  0  0  0  0  0  0  0  0  0  0
  140.2340   69.9080  228.3520 C   0  0  0  0  0  0  0  0  0  0  0  0
  140.9490   71.1120  228.2980 C   0  0  0  0  0  0  0  0  0  0  0  0
  141.0310   71.6760  227.0330 C   0  0  0  0  0  0  0  0  0  0  0  0
  140.4810   71.1410  225.9110 C   0  0  0  0  0  0  0  0  0  0  0  0
  140.6620   71.8340  224.7480 N   0  0  0  0  0  0  0  0  0  0  0  0
  143.1290   75.9950  219.6830 C   0  0  0  0  0  0  0  0  0  0  0  0
  142.4715   77.7063  215.7725 H   0  0  0  0  0  0  0  0  0  0  0  0
  143.8558   77.8741  214.6401 H   0  0  0  0  0  0  0  0  0  0  0  0
  142.8725   76.3708  214.6401 H   0  0  0  0  0  0  0  0  0  0  0  0
  142.8118   75.3520  216.8652 H   0  0  0  0  0  0  0  0  0  0  0  0
  144.4781   75.6106  217.7393 H   0  0  0  0  0  0  0  0  0  0  0  0
  143.4225   77.7846  218.3933 H   0  0  0  0  0  0  0  0  0  0  0  0
  141.1949   77.8972  217.8184 H   0  0  0  0  0  0  0  0  0  0  0  0
  141.0660   76.1915  217.4641 H   0  0  0  0  0  0  0  0  0  0  0  0
  139.8815   76.4456  219.6835 H   0  0  0  0  0  0  0  0  0  0  0  0
  141.8720   76.9560  222.2390 H   0  0  0  0  0  0  0  0  0  0  0  0
  139.4977   79.2152  222.8778 H   0  0  0  0  0  0  0  0  0  0  0  0
  139.8072   81.3203  224.2390 H   0  0  0  0  0  0  0  0  0  0  0  0
  142.0501   82.2363  224.6399 H   0  0  0  0  0  0  0  0  0  0  0  0
  144.0733   81.1216  223.7207 H   0  0  0  0  0  0  0  0  0  0  0  0
  143.7831   79.0103  222.3581 H   0  0  0  0  0  0  0  0  0  0  0  0
  139.4733   75.0589  221.0751 H   0  0  0  0  0  0  0  0  0  0  0  0
  139.6140   73.4885  220.2118 H   0  0  0  0  0  0  0  0  0  0  0  0
  139.5550   73.8960  223.1420 H   0  0  0  0  0  0  0  0  0  0  0  0
  138.9732   69.7213  222.7506 H   0  0  0  0  0  0  0  0  0  0  0  0
  138.6718   68.4906  224.8837 H   0  0  0  0  0  0  0  0  0  0  0  0
  139.1099   68.3988  227.3078 H   0  0  0  0  0  0  0  0  0  0  0  0
  140.1228   69.3963  229.3194 H   0  0  0  0  0  0  0  0  0  0  0  0
  141.4076   71.5722  229.1857 H   0  0  0  0  0  0  0  0  0  0  0  0
  141.5802   72.6236  226.9308 H   0  0  0  0  0  0  0  0  0  0  0  0
  143.5921   76.6233  220.4581 H   0  0  0  0  0  0  0  0  0  0  0  0
  143.7867   75.1230  219.5524 H   0  0  0  0  0  0  0  0  0  0  0  0
  1  2  1  0
  2  3  1  0
  3  4  1  0
  4  5  1  0
  5  6  1  0
  6  7  1  0
  7  8  2  0
  7  9  1  0
  9 10  1  0
 10 11  2  0
 11 12  1  0
 12 13  2  0
 13 14  1  0
 14 15  2  0
  6 16  1  0
 16 17  1  0
 17 18  2  0
 17 19  1  0
 19 20  1  0
 20 21  1  0
 21 22  2  0
 21 23  1  0
 23 24  2  0
 24 25  1  0
 25 26  2  0
 26 27  1  0
 27 28  2  0
 28 29  1  0
 29 30  2  0
 30 31  1  0
 31 32  2  0
 16 33  1  0
 33  4  1  0
 15 10  1  0
 32 23  1  0
 31 26  1  0
  1 34  1  0
  1 35  1  0
  1 36  1  0
  3 37  1  0
  3 38  1  0
  4 39  1  1
  5 40  1  0
  5 41  1  0
  6 42  1  6
  9 43  1  0
 11 44  1  0
 12 45  1  0
 13 46  1  0
 14 47  1  0
 15 48  1  0
 19 49  1  0
 19 50  1  0
 20 51  1  0
 24 52  1  0
 25 53  1  0
 27 54  1  0
 28 55  1  0
 29 56  1  0
 30 57  1  0
 33 58  1  0
 33 59  1  0
M  END
>  <smiles>  (16) 
COC[C@H]1C[C@H](C(=O)Nc2ccccc2)N(C(=O)CNC(=O)c2ccc3ccccc3n2)C1

>  <score_type>  (16) 
oracle

>  <origin>  (16) 
autodockgpu

>  <m_score__min__energy>  (16) 
-9.5399999999999991

>  <m_primary>  (16) 
energy

>  <rmsd>  (16) 
2.5022430538242695

>  <m_score__min__rmsd>  (16) 
2.5022430538242695

>  <meeko>  (16) 
{"free_energy": -9.39, "intermolecular_energy": -11.78, "internal_energy": -1.71, "cluster_size": 30, "cluster_id": 1, "rank_in_cluster": 6}

>  <energy>  (16) 
-9.16

>  <cluster_rmsd>  (16) 
0.35

>  <cluster>  (16) 
1

$$$$

     RDKit          3D

 59 62  0  0  0  0  0  0  0  0999 V2000
  142.2170   71.4880  220.2240 C   0  0  0  0  0  0  0  0  0  0  0  0
  142.8310   72.4560  220.9320 O   0  0  0  0  0  0  0  0  0  0  0  0
  143.0500   73.6340  220.3610 C   0  0  0  0  0  0  0  0  0  0  0  0
  142.4450   74.9000  220.8800 C   0  0  1  0  0  0  0  0  0  0  0  0
  142.0540   75.8170  219.7730 C   0  0  0  0  0  0  0  0  0  0  0  0
  140.7050   76.3680  220.2600 C   0  0  2  0  0  0  0  0  0  0  0  0
  140.8570   77.4600  221.2310 C   0  0  0  0  0  0  0  0  0  0  0  0
  140.0950   77.6460  222.2190 O   0  0  0  0  0  0  0  0  0  0  0  0
  141.9270   78.4190  221.1070 N   0  0  0  0  0  0  0  0  0  0  0  0
  142.0430   79.4920  222.0700 C   0  0  0  0  0  0  0  0  0  0  0  0
  142.9600   79.4060  223.0840 C   0  0  0  0  0  0  0  0  0  0  0  0
  142.9990   80.4990  223.9610 C   0  0  0  0  0  0  0  0  0  0  0  0
  142.1620   81.5800  223.7960 C   0  0  0  0  0  0  0  0  0  0  0  0
  141.2470   81.6320  222.7590 C   0  0  0  0  0  0  0  0  0  0  0  0
  141.1880   80.5510  221.8680 C   0  0  0  0  0  0  0  0  0  0  0  0
  140.0870   75.1970  220.7860 N   0  0  0  0  0  0  0  0  0  0  0  0
  138.7860   74.6510  220.6250 C   0  0  0  0  0  0  0  0  0  0  0  0
  137.7820   75.3520  220.4270 O   0  0  0  0  0  0  0  0  0  0  0  0
  138.6640   73.1520  220.7010 C   0  0  0  0  0  0  0  0  0  0  0  0
  138.9820   72.7010  222.0550 N   0  0  0  0  0  0  0  0  0  0  0  0
  139.3110   71.3080  222.2310 C   0  0  0  0  0  0  0  0  0  0  0  0
  139.3320   70.4960  221.2760 O   0  0  0  0  0  0  0  0  0  0  0  0
  139.6210   70.8920  223.6140 C   0  0  0  0  0  0  0  0  0  0  0  0
  139.2860   69.6040  224.0250 C   0  0  0  0  0  0  0  0  0  0  0  0
  139.5470   69.1480  225.2980 C   0  0  0  0  0  0  0  0  0  0  0  0
  140.1600   70.0190  226.1710 C   0  0  0  0  0  0  0  0  0  0  0  0
  140.4610   69.6470  227.4760 C   0  0  0  0  0  0  0  0  0  0  0  0
  141.0740   70.5430  228.3280 C   0  0  0  0  0  0  0  0  0  0  0  0
  141.4130   71.8410  227.9210 C   0  0  0  0  0  0  0  0  0  0  0  0
  141.0800   72.1370  226.6080 C   0  0  0  0  0  0  0  0  0  0  0  0
  140.4770   71.2730  225.7490 C   0  0  0  0  0  0  0  0  0  0  0  0
  140.2240   71.7350  224.4890 N   0  0  0  0  0  0  0  0  0  0  0  0
  141.1210   74.5660  221.5970 C   0  0  0  0  0  0  0  0  0  0  0  0
  141.7580   70.7644  220.9137 H   0  0  0  0  0  0  0  0  0  0  0  0
  141.4374   71.9357  219.5901 H   0  0  0  0  0  0  0  0  0  0  0  0
  142.9543   70.9736  219.5901 H   0  0  0  0  0  0  0  0  0  0  0  0
  144.1394   73.7853  220.3792 H   0  0  0  0  0  0  0  0  0  0  0  0
  142.5375   73.5168  219.3947 H   0  0  0  0  0  0  0  0  0  0  0  0
  143.1951   75.3682  221.5344 H   0  0  0  0  0  0  0  0  0  0  0  0
  142.7907   76.6239  219.6460 H   0  0  0  0  0  0  0  0  0  0  0  0
  141.9977   75.3221  218.7922 H   0  0  0  0  0  0  0  0  0  0  0  0
  140.1025   76.8490  219.4754 H   0  0  0  0  0  0  0  0  0  0  0  0
  142.6360   78.3720  220.3460 H   0  0  0  0  0  0  0  0  0  0  0  0
  143.6226   78.5360  223.2024 H   0  0  0  0  0  0  0  0  0  0  0  0
  143.7127   80.4930  224.7980 H   0  0  0  0  0  0  0  0  0  0  0  0
  142.2220   82.4201  224.5036 H   0  0  0  0  0  0  0  0  0  0  0  0
  140.5824   82.5000  222.6368 H   0  0  0  0  0  0  0  0  0  0  0  0
  140.4765   80.5496  221.0291 H   0  0  0  0  0  0  0  0  0  0  0  0
  137.6352   72.8554  220.4487 H   0  0  0  0  0  0  0  0  0  0  0  0
  139.3654   72.6923  219.9892 H   0  0  0  0  0  0  0  0  0  0  0  0
  138.9670   73.3740  222.8530 H   0  0  0  0  0  0  0  0  0  0  0  0
  138.7963   68.9281  223.3085 H   0  0  0  0  0  0  0  0  0  0  0  0
  139.2762   68.1272  225.6057 H   0  0  0  0  0  0  0  0  0  0  0  0
  140.2101   68.6363  227.8304 H   0  0  0  0  0  0  0  0  0  0  0  0
  141.3035   70.2294  229.3571 H   0  0  0  0  0  0  0  0  0  0  0  0
  141.9029   72.5652  228.5885 H   0  0  0  0  0  0  0  0  0  0  0  0
  141.3211   73.1432  226.2346 H   0  0  0  0  0  0  0  0  0  0  0  0
  141.1184   74.9780  222.6169 H   0  0  0  0  0  0  0  0  0  0  0  0
  140.9656   73.4816  221.6966 H   0  0  0  0  0  0  0  0  0  0  0  0
  1  2  1  0
  2  3  1  0
  3  4  1  0
  4  5  1  0
  5  6  1  0
  6  7  1  0
  7  8  2  0
  7  9  1  0
  9 10  1  0
 10 11  2  0
 11 12  1  0
 12 13  2  0
 13 14  1  0
 14 15  2  0
  6 16  1  0
 16 17  1  0
 17 18  2  0
 17 19  1  0
 19 20  1  0
 20 21  1  0
 21 22  2  0
 21 23  1  0
 23 24  2  0
 24 25  1  0
 25 26  2  0
 26 27  1  0
 27 28  2  0
 28 29  1  0
 29 30  2  0
 30 31  1  0
 31 32  2  0
 16 33  1  0
 33  4  1  0
 15 10  1  0
 32 23  1  0
 31 26  1  0
  1 34  1  0
  1 35  1  0
  1 36  1  0
  3 37  1  0
  3 38  1  0
  4 39  1  1
  5 40  1  0
  5 41  1  0
  6 42  1  6
  9 43  1  0
 11 44  1  0
 12 45  1  0
 13 46  1  0
 14 47  1  0
 15 48  1  0
 19 49  1  0
 19 50  1  0
 20 51  1  0
 24 52  1  0
 25 53  1  0
 27 54  1  0
 28 55  1  0
 29 56  1  0
 30 57  1  0
 33 58  1  0
 33 59  1  0
M  END
>  <smiles>  (17) 
COC[C@H]1C[C@H](C(=O)Nc2ccccc2)N(C(=O)CNC(=O)c2ccc3ccccc3n2)C1

>  <score_type>  (17) 
oracle

>  <origin>  (17) 
autodockgpu

>  <m_score__min__energy>  (17) 
-9.5399999999999991

>  <m_primary>  (17) 
energy

>  <rmsd>  (17) 
2.674259442807443

>  <m_score__min__rmsd>  (17) 
2.674259442807443

>  <meeko>  (17) 
{"free_energy": -8.86, "intermolecular_energy": -11.25, "internal_energy": -2.19, "cluster_size": 30, "cluster_id": 1, "rank_in_cluster": 24}

>  <energy>  (17) 
-9.15

>  <cluster_rmsd>  (17) 
1.16

>  <cluster>  (17) 
1

$$$$

     RDKit          3D

 59 62  0  0  0  0  0  0  0  0999 V2000
  145.0560   73.4840  220.7660 C   0  0  0  0  0  0  0  0  0  0  0  0
  144.1120   73.8720  219.8860 O   0  0  0  0  0  0  0  0  0  0  0  0
  142.8460   73.9290  220.2800 C   0  0  0  0  0  0  0  0  0  0  0  0
  142.2040   75.2020  220.7310 C   0  0  1  0  0  0  0  0  0  0  0  0
  141.5890   75.9410  219.5920 C   0  0  0  0  0  0  0  0  0  0  0  0
  140.2720   76.4490  220.1990 C   0  0  2  0  0  0  0  0  0  0  0  0
  140.4530   77.6640  221.0070 C   0  0  0  0  0  0  0  0  0  0  0  0
  139.5100   78.3980  221.4110 O   0  0  0  0  0  0  0  0  0  0  0  0
  141.7690   78.1040  221.3990 N   0  0  0  0  0  0  0  0  0  0  0  0
  141.9170   79.3110  222.1810 C   0  0  0  0  0  0  0  0  0  0  0  0
  142.3100   79.2350  223.4920 C   0  0  0  0  0  0  0  0  0  0  0  0
  142.4310   80.4600  224.1620 C   0  0  0  0  0  0  0  0  0  0  0  0
  142.1670   81.6530  223.5260 C   0  0  0  0  0  0  0  0  0  0  0  0
  141.7720   81.6920  222.2000 C   0  0  0  0  0  0  0  0  0  0  0  0
  141.6440   80.4800  221.5080 C   0  0  0  0  0  0  0  0  0  0  0  0
  139.8370   75.3130  220.9400 N   0  0  0  0  0  0  0  0  0  0  0  0
  138.5800   74.6570  221.0300 C   0  0  0  0  0  0  0  0  0  0  0  0
  137.5090   75.2700  221.1510 O   0  0  0  0  0  0  0  0  0  0  0  0
  138.5930   73.1530  220.9690 C   0  0  0  0  0  0  0  0  0  0  0  0
  139.0050   72.6110  222.2620 N   0  0  0  0  0  0  0  0  0  0  0  0
  138.9680   71.1790  222.4250 C   0  0  0  0  0  0  0  0  0  0  0  0
  138.6030   70.4070  221.5080 O   0  0  0  0  0  0  0  0  0  0  0  0
  139.3870   70.6730  223.7480 C   0  0  0  0  0  0  0  0  0  0  0  0
  139.2230   69.3200  224.0390 C   0  0  0  0  0  0  0  0  0  0  0  0
  139.5940   68.7800  225.2510 C   0  0  0  0  0  0  0  0  0  0  0  0
  140.1400   69.6300  226.1850 C   0  0  0  0  0  0  0  0  0  0  0  0
  140.5410   69.1740  227.4350 C   0  0  0  0  0  0  0  0  0  0  0  0
  141.0830   70.0520  228.3520 C   0  0  0  0  0  0  0  0  0  0  0  0
  141.2500   71.4140  228.0660 C   0  0  0  0  0  0  0  0  0  0  0  0
  140.8250   71.7920  226.8010 C   0  0  0  0  0  0  0  0  0  0  0  0
  140.2890   70.9480  225.8800 C   0  0  0  0  0  0  0  0  0  0  0  0
  139.9270   71.4950  224.6830 N   0  0  0  0  0  0  0  0  0  0  0  0
  141.0220   74.8660  221.6630 C   0  0  0  0  0  0  0  0  0  0  0  0
  144.6865   73.6359  221.7909 H   0  0  0  0  0  0  0  0  0  0  0  0
  145.2846   72.4190  220.6127 H   0  0  0  0  0  0  0  0  0  0  0  0
  145.9675   74.0804  220.6127 H   0  0  0  0  0  0  0  0  0  0  0  0
  142.2452   73.5667  219.4327 H   0  0  0  0  0  0  0  0  0  0  0  0
  142.8722   73.3457  221.2122 H   0  0  0  0  0  0  0  0  0  0  0  0
  142.9889   75.8023  221.2142 H   0  0  0  0  0  0  0  0  0  0  0  0
  142.2269   76.7771  219.2696 H   0  0  0  0  0  0  0  0  0  0  0  0
  141.4484   75.3233  218.6927 H   0  0  0  0  0  0  0  0  0  0  0  0
  139.5303   76.7807  219.4574 H   0  0  0  0  0  0  0  0  0  0  0  0
  142.6330   77.5820  221.1450 H   0  0  0  0  0  0  0  0  0  0  0  0
  142.5171   78.2744  223.9864 H   0  0  0  0  0  0  0  0  0  0  0  0
  142.7430   80.4690  225.2168 H   0  0  0  0  0  0  0  0  0  0  0  0
  142.2724   82.5951  224.0840 H   0  0  0  0  0  0  0  0  0  0  0  0
  141.5638   82.6503  221.7018 H   0  0  0  0  0  0  0  0  0  0  0  0
  141.3330   80.4635  220.4530 H   0  0  0  0  0  0  0  0  0  0  0  0
  137.5845   72.7883  220.7243 H   0  0  0  0  0  0  0  0  0  0  0  0
  139.3022   72.8260  220.1943 H   0  0  0  0  0  0  0  0  0  0  0  0
  139.3110   73.2500  223.0290 H   0  0  0  0  0  0  0  0  0  0  0  0
  138.7828   68.6614  223.2758 H   0  0  0  0  0  0  0  0  0  0  0  0
  139.4587   67.7093  225.4640 H   0  0  0  0  0  0  0  0  0  0  0  0
  140.4263   68.1112  227.6942 H   0  0  0  0  0  0  0  0  0  0  0  0
  141.3930   69.6715  229.3364 H   0  0  0  0  0  0  0  0  0  0  0  0
  141.6826   72.1246  228.7856 H   0  0  0  0  0  0  0  0  0  0  0  0
  140.9292   72.8512  226.5230 H   0  0  0  0  0  0  0  0  0  0  0  0
  141.1178   75.4022  222.6186 H   0  0  0  0  0  0  0  0  0  0  0  0
  140.9787   73.7945  221.9079 H   0  0  0  0  0  0  0  0  0  0  0  0
  1  2  1  0
  2  3  1  0
  3  4  1  0
  4  5  1  0
  5  6  1  0
  6  7  1  0
  7  8  2  0
  7  9  1  0
  9 10  1  0
 10 11  2  0
 11 12  1  0
 12 13  2  0
 13 14  1  0
 14 15  2  0
  6 16  1  0
 16 17  1  0
 17 18  2  0
 17 19  1  0
 19 20  1  0
 20 21  1  0
 21 22  2  0
 21 23  1  0
 23 24  2  0
 24 25  1  0
 25 26  2  0
 26 27  1  0
 27 28  2  0
 28 29  1  0
 29 30  2  0
 30 31  1  0
 31 32  2  0
 16 33  1  0
 33  4  1  0
 15 10  1  0
 32 23  1  0
 31 26  1  0
  1 34  1  0
  1 35  1  0
  1 36  1  0
  3 37  1  0
  3 38  1  0
  4 39  1  1
  5 40  1  0
  5 41  1  0
  6 42  1  6
  9 43  1  0
 11 44  1  0
 12 45  1  0
 13 46  1  0
 14 47  1  0
 15 48  1  0
 19 49  1  0
 19 50  1  0
 20 51  1  0
 24 52  1  0
 25 53  1  0
 27 54  1  0
 28 55  1  0
 29 56  1  0
 30 57  1  0
 33 58  1  0
 33 59  1  0
M  END
>  <smiles>  (18) 
COC[C@H]1C[C@H](C(=O)Nc2ccccc2)N(C(=O)CNC(=O)c2ccc3ccccc3n2)C1

>  <score_type>  (18) 
oracle

>  <origin>  (18) 
autodockgpu

>  <m_score__min__energy>  (18) 
-9.5399999999999991

>  <m_primary>  (18) 
energy

>  <rmsd>  (18) 
2.5233073274427813

>  <m_score__min__rmsd>  (18) 
2.5233073274427813

>  <meeko>  (18) 
{"free_energy": -9.01, "intermolecular_energy": -11.4, "internal_energy": -1.94, "cluster_size": 30, "cluster_id": 1, "rank_in_cluster": 21}

>  <energy>  (18) 
-9.08

>  <cluster_rmsd>  (18) 
1.44

>  <cluster>  (18) 
1

$$$$

     RDKit          3D

 59 62  0  0  0  0  0  0  0  0999 V2000
  146.5170   73.4050  222.0250 C   0  0  0  0  0  0  0  0  0  0  0  0
  146.0550   72.8500  220.8870 O   0  0  0  0  0  0  0  0  0  0  0  0
  145.5370   73.6350  219.9500 C   0  0  0  0  0  0  0  0  0  0  0  0
  144.2280   74.3380  220.1280 C   0  0  1  0  0  0  0  0  0  0  0  0
  143.5920   74.6560  218.8190 C   0  0  0  0  0  0  0  0  0  0  0  0
  142.1110   74.3440  219.0860 C   0  0  2  0  0  0  0  0  0  0  0  0
  141.4210   75.4350  219.7880 C   0  0  0  0  0  0  0  0  0  0  0  0
  141.1450   76.5530  219.2720 O   0  0  0  0  0  0  0  0  0  0  0  0
  141.0030   75.2860  221.1600 N   0  0  0  0  0  0  0  0  0  0  0  0
  140.3380   76.3820  221.8290 C   0  0  0  0  0  0  0  0  0  0  0  0
  141.0560   77.4820  222.2200 C   0  0  0  0  0  0  0  0  0  0  0  0
  140.3200   78.4930  222.8550 C   0  0  0  0  0  0  0  0  0  0  0  0
  138.9640   78.3680  223.0630 C   0  0  0  0  0  0  0  0  0  0  0  0
  138.2720   77.2410  222.6540 C   0  0  0  0  0  0  0  0  0  0  0  0
  138.9850   76.2170  222.0170 C   0  0  0  0  0  0  0  0  0  0  0  0
  142.2000   73.1320  219.8290 N   0  0  0  0  0  0  0  0  0  0  0  0
  141.5110   71.8950  219.7200 C   0  0  0  0  0  0  0  0  0  0  0  0
  142.0030   70.8970  219.1710 O   0  0  0  0  0  0  0  0  0  0  0  0
  140.1280   71.8320  220.3110 C   0  0  0  0  0  0  0  0  0  0  0  0
  140.1770   71.1640  221.6110 N   0  0  0  0  0  0  0  0  0  0  0  0
  140.2220   71.9980  222.7860 C   0  0  0  0  0  0  0  0  0  0  0  0
  140.2170   73.2490  222.7230 O   0  0  0  0  0  0  0  0  0  0  0  0
  140.2750   71.2840  224.0780 C   0  0  0  0  0  0  0  0  0  0  0  0
  140.7480   71.9550  225.2030 C   0  0  0  0  0  0  0  0  0  0  0  0
  140.8230   71.3520  226.4400 C   0  0  0  0  0  0  0  0  0  0  0  0
  140.4120   70.0410  226.5340 C   0  0  0  0  0  0  0  0  0  0  0  0
  140.4540   69.3520  227.7390 C   0  0  0  0  0  0  0  0  0  0  0  0
  140.0370   68.0380  227.8010 C   0  0  0  0  0  0  0  0  0  0  0  0
  139.5620   67.3560  226.6720 C   0  0  0  0  0  0  0  0  0  0  0  0
  139.5510   68.1100  225.5080 C   0  0  0  0  0  0  0  0  0  0  0  0
  139.9560   69.4050  225.4210 C   0  0  0  0  0  0  0  0  0  0  0  0
  139.8750   69.9920  224.1910 N   0  0  0  0  0  0  0  0  0  0  0  0
  143.2360   73.3820  220.8230 C   0  0  0  0  0  0  0  0  0  0  0  0
  146.0825   72.8830  222.8903 H   0  0  0  0  0  0  0  0  0  0  0  0
  147.6131   73.3179  222.0568 H   0  0  0  0  0  0  0  0  0  0  0  0
  146.2325   74.4671  222.0568 H   0  0  0  0  0  0  0  0  0  0  0  0
  146.2834   74.4208  219.7618 H   0  0  0  0  0  0  0  0  0  0  0  0
  145.3008   72.9133  219.1542 H   0  0  0  0  0  0  0  0  0  0  0  0
  144.4322   75.2546  220.7008 H   0  0  0  0  0  0  0  0  0  0  0  0
  143.7341   75.7142  218.5543 H   0  0  0  0  0  0  0  0  0  0  0  0
  144.0150   74.0897  217.9762 H   0  0  0  0  0  0  0  0  0  0  0  0
  141.4989   74.2400  218.1780 H   0  0  0  0  0  0  0  0  0  0  0  0
  141.1540   74.4090  221.6990 H   0  0  0  0  0  0  0  0  0  0  0  0
  142.1390   77.5664  222.0470 H   0  0  0  0  0  0  0  0  0  0  0  0
  140.8357   79.4037  223.1936 H   0  0  0  0  0  0  0  0  0  0  0  0
  138.4193   79.1813  223.5649 H   0  0  0  0  0  0  0  0  0  0  0  0
  137.1890   77.1517  222.8249 H   0  0  0  0  0  0  0  0  0  0  0  0
  138.4758   75.3037  221.6756 H   0  0  0  0  0  0  0  0  0  0  0  0
  139.7383   72.8527  220.4389 H   0  0  0  0  0  0  0  0  0  0  0  0
  139.4689   71.2666  219.6358 H   0  0  0  0  0  0  0  0  0  0  0  0
  140.1790   70.1220  221.6680 H   0  0  0  0  0  0  0  0  0  0  0  0
  141.0725   73.0011  225.1009 H   0  0  0  0  0  0  0  0  0  0  0  0
  141.1970   71.8973  227.3191 H   0  0  0  0  0  0  0  0  0  0  0  0
  140.8205   69.8548  228.6461 H   0  0  0  0  0  0  0  0  0  0  0  0
  140.0786   67.5099  228.7651 H   0  0  0  0  0  0  0  0  0  0  0  0
  139.2258   66.3092  226.7065 H   0  0  0  0  0  0  0  0  0  0  0  0
  139.1886   67.6256  224.5893 H   0  0  0  0  0  0  0  0  0  0  0  0
  142.8070   73.8537  221.7194 H   0  0  0  0  0  0  0  0  0  0  0  0
  143.7209   72.4537  221.1592 H   0  0  0  0  0  0  0  0  0  0  0  0
  1  2  1  0
  2  3  1  0
  3  4  1  0
  4  5  1  0
  5  6  1  0
  6  7  1  0
  7  8  2  0
  7  9  1  0
  9 10  1  0
 10 11  2  0
 11 12  1  0
 12 13  2  0
 13 14  1  0
 14 15  2  0
  6 16  1  0
 16 17  1  0
 17 18  2  0
 17 19  1  0
 19 20  1  0
 20 21  1  0
 21 22  2  0
 21 23  1  0
 23 24  2  0
 24 25  1  0
 25 26  2  0
 26 27  1  0
 27 28  2  0
 28 29  1  0
 29 30  2  0
 30 31  1  0
 31 32  2  0
 16 33  1  0
 33  4  1  0
 15 10  1  0
 32 23  1  0
 31 26  1  0
  1 34  1  0
  1 35  1  0
  1 36  1  0
  3 37  1  0
  3 38  1  0
  4 39  1  1
  5 40  1  0
  5 41  1  0
  6 42  1  6
  9 43  1  0
 11 44  1  0
 12 45  1  0
 13 46  1  0
 14 47  1  0
 15 48  1  0
 19 49  1  0
 19 50  1  0
 20 51  1  0
 24 52  1  0
 25 53  1  0
 27 54  1  0
 28 55  1  0
 29 56  1  0
 30 57  1  0
 33 58  1  0
 33 59  1  0
M  END
>  <smiles>  (19) 
COC[C@H]1C[C@H](C(=O)Nc2ccccc2)N(C(=O)CNC(=O)c2ccc3ccccc3n2)C1

>  <score_type>  (19) 
oracle

>  <origin>  (19) 
autodockgpu

>  <m_score__min__energy>  (19) 
-9.5399999999999991

>  <m_primary>  (19) 
energy

>  <rmsd>  (19) 
4.139845493588047

>  <m_score__min__rmsd>  (19) 
4.139845493588047

>  <meeko>  (19) 
{"free_energy": -8.01, "intermolecular_energy": -10.4, "internal_energy": -3.06, "cluster_size": 30, "cluster_id": 1, "rank_in_cluster": 28}

>  <energy>  (19) 
-9.06

>  <cluster_rmsd>  (19) 
1.63

>  <cluster>  (19) 
1

$$$$

     RDKit          3D

 59 62  0  0  0  0  0  0  0  0999 V2000
  145.4950   71.0030  219.0250 C   0  0  0  0  0  0  0  0  0  0  0  0
  145.9500   72.2130  218.6450 O   0  0  0  0  0  0  0  0  0  0  0  0
  145.2040   72.9610  217.8420 C   0  0  0  0  0  0  0  0  0  0  0  0
  144.4440   74.1520  218.3330 C   0  0  1  0  0  0  0  0  0  0  0  0
  143.1160   74.2700  217.6680 C   0  0  0  0  0  0  0  0  0  0  0  0
  142.2000   74.6890  218.8290 C   0  0  2  0  0  0  0  0  0  0  0  0
  142.2820   76.1270  219.1230 C   0  0  0  0  0  0  0  0  0  0  0  0
  142.8230   76.6150  220.1530 O   0  0  0  0  0  0  0  0  0  0  0  0
  141.7270   77.1010  218.2160 N   0  0  0  0  0  0  0  0  0  0  0  0
  141.8090   78.5080  218.5380 C   0  0  0  0  0  0  0  0  0  0  0  0
  142.6730   79.3200  217.8510 C   0  0  0  0  0  0  0  0  0  0  0  0
  142.6730   80.6690  218.2330 C   0  0  0  0  0  0  0  0  0  0  0  0
  141.8510   81.1290  219.2380 C   0  0  0  0  0  0  0  0  0  0  0  0
  140.9900   80.2790  219.9110 C   0  0  0  0  0  0  0  0  0  0  0  0
  140.9710   78.9260  219.5470 C   0  0  0  0  0  0  0  0  0  0  0  0
  142.6640   73.8490  219.8820 N   0  0  0  0  0  0  0  0  0  0  0  0
  141.9800   73.0340  220.8230 C   0  0  0  0  0  0  0  0  0  0  0  0
  142.3590   71.8920  221.1250 O   0  0  0  0  0  0  0  0  0  0  0  0
  140.7460   73.6180  221.4580 C   0  0  0  0  0  0  0  0  0  0  0  0
  140.9870   75.0170  221.8060 N   0  0  0  0  0  0  0  0  0  0  0  0
  139.8470   75.8110  222.1940 C   0  0  0  0  0  0  0  0  0  0  0  0
  138.6860   75.3420  222.2430 O   0  0  0  0  0  0  0  0  0  0  0  0
  140.1330   77.2210  222.5330 C   0  0  0  0  0  0  0  0  0  0  0  0
  139.0700   78.1000  222.7220 C   0  0  0  0  0  0  0  0  0  0  0  0
  139.2620   79.4260  223.0420 C   0  0  0  0  0  0  0  0  0  0  0  0
  140.5600   79.8670  223.1700 C   0  0  0  0  0  0  0  0  0  0  0  0
  140.8490   81.1890  223.4880 C   0  0  0  0  0  0  0  0  0  0  0  0
  142.1610   81.6010  223.6080 C   0  0  0  0  0  0  0  0  0  0  0  0
  143.2360   80.7210  223.4170 C   0  0  0  0  0  0  0  0  0  0  0  0
  142.8660   79.4220  223.1020 C   0  0  0  0  0  0  0  0  0  0  0  0
  141.5830   78.9910  222.9790 C   0  0  0  0  0  0  0  0  0  0  0  0
  141.4050   77.6740  222.6640 N   0  0  0  0  0  0  0  0  0  0  0  0
  144.1170   73.9560  219.8280 C   0  0  0  0  0  0  0  0  0  0  0  0
  145.4741   70.9475  220.1234 H   0  0  0  0  0  0  0  0  0  0  0  0
  144.4790   70.8530  218.6309 H   0  0  0  0  0  0  0  0  0  0  0  0
  146.1604   70.2207  218.6309 H   0  0  0  0  0  0  0  0  0  0  0  0
  145.8778   73.3311  217.0552 H   0  0  0  0  0  0  0  0  0  0  0  0
  144.3921   72.2680  217.5763 H   0  0  0  0  0  0  0  0  0  0  0  0
  145.0669   75.0355  218.1295 H   0  0  0  0  0  0  0  0  0  0  0  0
  143.1331   75.0359  216.8786 H   0  0  0  0  0  0  0  0  0  0  0  0
  142.7931   73.3463  217.1654 H   0  0  0  0  0  0  0  0  0  0  0  0
  141.1262   74.5616  218.6271 H   0  0  0  0  0  0  0  0  0  0  0  0
  141.2660   76.8350  217.3210 H   0  0  0  0  0  0  0  0  0  0  0  0
  143.3246   78.9380  217.0513 H   0  0  0  0  0  0  0  0  0  0  0  0
  143.3431   81.3744  217.7197 H   0  0  0  0  0  0  0  0  0  0  0  0
  141.8792   82.1941  219.5116 H   0  0  0  0  0  0  0  0  0  0  0  0
  140.3370   80.6565  220.7117 H   0  0  0  0  0  0  0  0  0  0  0  0
  140.3027   78.2152  220.0551 H   0  0  0  0  0  0  0  0  0  0  0  0
  139.9063   73.5566  220.7501 H   0  0  0  0  0  0  0  0  0  0  0  0
  140.5024   73.0523  222.3694 H   0  0  0  0  0  0  0  0  0  0  0  0
  141.9530   75.4120  221.7690 H   0  0  0  0  0  0  0  0  0  0  0  0
  138.0425   77.7230  222.6121 H   0  0  0  0  0  0  0  0  0  0  0  0
  138.4106   80.1067  223.1897 H   0  0  0  0  0  0  0  0  0  0  0  0
  140.0311   81.9078  223.6442 H   0  0  0  0  0  0  0  0  0  0  0  0
  142.3695   82.6510  223.8610 H   0  0  0  0  0  0  0  0  0  0  0  0
  144.2861   81.0351  223.5094 H   0  0  0  0  0  0  0  0  0  0  0  0
  143.6688   78.6877  222.9401 H   0  0  0  0  0  0  0  0  0  0  0  0
  144.4639   74.8181  220.4165 H   0  0  0  0  0  0  0  0  0  0  0  0
  144.6140   73.0692  220.2483 H   0  0  0  0  0  0  0  0  0  0  0  0
  1  2  1  0
  2  3  1  0
  3  4  1  0
  4  5  1  0
  5  6  1  0
  6  7  1  0
  7  8  2  0
  7  9  1  0
  9 10  1  0
 10 11  2  0
 11 12  1  0
 12 13  2  0
 13 14  1  0
 14 15  2  0
  6 16  1  0
 16 17  1  0
 17 18  2  0
 17 19  1  0
 19 20  1  0
 20 21  1  0
 21 22  2  0
 21 23  1  0
 23 24  2  0
 24 25  1  0
 25 26  2  0
 26 27  1  0
 27 28  2  0
 28 29  1  0
 29 30  2  0
 30 31  1  0
 31 32  2  0
 16 33  1  0
 33  4  1  0
 15 10  1  0
 32 23  1  0
 31 26  1  0
  1 34  1  0
  1 35  1  0
  1 36  1  0
  3 37  1  0
  3 38  1  0
  4 39  1  1
  5 40  1  0
  5 41  1  0
  6 42  1  6
  9 43  1  0
 11 44  1  0
 12 45  1  0
 13 46  1  0
 14 47  1  0
 15 48  1  0
 19 49  1  0
 19 50  1  0
 20 51  1  0
 24 52  1  0
 25 53  1  0
 27 54  1  0
 28 55  1  0
 29 56  1  0
 30 57  1  0
 33 58  1  0
 33 59  1  0
M  END
>  <smiles>  (20) 
COC[C@H]1C[C@H](C(=O)Nc2ccccc2)N(C(=O)CNC(=O)c2ccc3ccccc3n2)C1

>  <score_type>  (20) 
oracle

>  <origin>  (20) 
autodockgpu

>  <m_score__min__energy>  (20) 
-9.5399999999999991

>  <m_primary>  (20) 
energy

>  <rmsd>  (20) 
6.735338007185341

>  <m_score__min__rmsd>  (20) 
6.735338007185341

>  <meeko>  (20) 
{"free_energy": -7.21, "intermolecular_energy": -9.6, "internal_energy": -4.04, "cluster_size": 12, "cluster_id": 4, "rank_in_cluster": 3}

>  <energy>  (20) 
-9.02

>  <cluster_rmsd>  (20) 
0.55

>  <cluster>  (20) 
1

$$$$

     RDKit          3D

 59 62  0  0  0  0  0  0  0  0999 V2000
  147.0210   73.7990  216.3300 C   0  0  0  0  0  0  0  0  0  0  0  0
  146.3090   73.0440  217.1900 O   0  0  0  0  0  0  0  0  0  0  0  0
  144.9870   73.1570  217.2070 C   0  0  0  0  0  0  0  0  0  0  0  0
  144.2910   74.3120  217.8540 C   0  0  1  0  0  0  0  0  0  0  0  0
  142.8670   74.4060  217.4270 C   0  0  0  0  0  0  0  0  0  0  0  0
  142.1510   74.7700  218.7370 C   0  0  2  0  0  0  0  0  0  0  0  0
  142.2440   76.2030  219.0530 C   0  0  0  0  0  0  0  0  0  0  0  0
  142.7810   76.6690  220.0950 O   0  0  0  0  0  0  0  0  0  0  0  0
  141.7070   77.1960  218.1560 N   0  0  0  0  0  0  0  0  0  0  0  0
  141.8000   78.5970  218.5010 C   0  0  0  0  0  0  0  0  0  0  0  0
  142.6590   79.4150  217.8160 C   0  0  0  0  0  0  0  0  0  0  0  0
  142.6710   80.7580  218.2200 C   0  0  0  0  0  0  0  0  0  0  0  0
  141.8640   81.2050  219.2420 C   0  0  0  0  0  0  0  0  0  0  0  0
  141.0070   80.3480  219.9120 C   0  0  0  0  0  0  0  0  0  0  0  0
  140.9760   79.0010  219.5260 C   0  0  0  0  0  0  0  0  0  0  0  0
  142.8090   73.9200  219.6730 N   0  0  0  0  0  0  0  0  0  0  0  0
  142.3160   73.0630  220.6920 C   0  0  0  0  0  0  0  0  0  0  0  0
  142.8540   71.9830  220.9820 O   0  0  0  0  0  0  0  0  0  0  0  0
  141.0860   73.5210  221.4300 C   0  0  0  0  0  0  0  0  0  0  0  0
  141.2200   74.9330  221.7820 N   0  0  0  0  0  0  0  0  0  0  0  0
  140.0220   75.6420  222.1580 C   0  0  0  0  0  0  0  0  0  0  0  0
  138.8980   75.0900  222.1920 O   0  0  0  0  0  0  0  0  0  0  0  0
  140.2010   77.0670  222.5020 C   0  0  0  0  0  0  0  0  0  0  0  0
  139.0750   77.8670  222.6800 C   0  0  0  0  0  0  0  0  0  0  0  0
  139.1660   79.2030  223.0040 C   0  0  0  0  0  0  0  0  0  0  0  0
  140.4270   79.7370  223.1470 C   0  0  0  0  0  0  0  0  0  0  0  0
  140.6170   81.0750  223.4700 C   0  0  0  0  0  0  0  0  0  0  0  0
  141.8940   81.5810  223.6050 C   0  0  0  0  0  0  0  0  0  0  0  0
  143.0310   80.7820  223.4250 C   0  0  0  0  0  0  0  0  0  0  0  0
  142.7600   79.4600  223.1040 C   0  0  0  0  0  0  0  0  0  0  0  0
  141.5130   78.9370  222.9660 C   0  0  0  0  0  0  0  0  0  0  0  0
  141.4350   77.6120  222.6470 N   0  0  0  0  0  0  0  0  0  0  0  0
  144.2280   74.0720  219.3760 C   0  0  0  0  0  0  0  0  0  0  0  0
  147.6687   74.4858  216.8946 H   0  0  0  0  0  0  0  0  0  0  0  0
  147.6411   73.1475  215.6968 H   0  0  0  0  0  0  0  0  0  0  0  0
  146.3343   74.3799  215.6968 H   0  0  0  0  0  0  0  0  0  0  0  0
  144.6660   73.1564  216.1549 H   0  0  0  0  0  0  0  0  0  0  0  0
  144.6959   72.3213  217.8604 H   0  0  0  0  0  0  0  0  0  0  0  0
  144.8479   75.2182  217.5734 H   0  0  0  0  0  0  0  0  0  0  0  0
  142.7304   75.1904  216.6680 H   0  0  0  0  0  0  0  0  0  0  0  0
  142.4871   73.4851  216.9606 H   0  0  0  0  0  0  0  0  0  0  0  0
  141.0622   74.6147  218.7160 H   0  0  0  0  0  0  0  0  0  0  0  0
  141.2520   76.9480  217.2530 H   0  0  0  0  0  0  0  0  0  0  0  0
  143.2980   79.0427  217.0017 H   0  0  0  0  0  0  0  0  0  0  0  0
  143.3385   81.4683  217.7102 H   0  0  0  0  0  0  0  0  0  0  0  0
  141.9007   82.2653  219.5325 H   0  0  0  0  0  0  0  0  0  0  0  0
  140.3663   80.7154  220.7272 H   0  0  0  0  0  0  0  0  0  0  0  0
  140.3098   78.2851  220.0297 H   0  0  0  0  0  0  0  0  0  0  0  0
  140.2030   73.3864  220.7879 H   0  0  0  0  0  0  0  0  0  0  0  0
  140.9693   72.9262  222.3479 H   0  0  0  0  0  0  0  0  0  0  0  0
  142.1560   75.3970  221.7570 H   0  0  0  0  0  0  0  0  0  0  0  0
  138.0788   77.4168  222.5577 H   0  0  0  0  0  0  0  0  0  0  0  0
  138.2657   79.8195  223.1431 H   0  0  0  0  0  0  0  0  0  0  0  0
  139.7477   81.7325  223.6185 H   0  0  0  0  0  0  0  0  0  0  0  0
  142.0230   82.6429  223.8615 H   0  0  0  0  0  0  0  0  0  0  0  0
  144.0545   81.1712  223.5297 H   0  0  0  0  0  0  0  0  0  0  0  0
  143.6159   78.7864  222.9500 H   0  0  0  0  0  0  0  0  0  0  0  0
  144.6477   74.9304  219.9209 H   0  0  0  0  0  0  0  0  0  0  0  0
  144.8117   73.1909  219.6809 H   0  0  0  0  0  0  0  0  0  0  0  0
  1  2  1  0
  2  3  1  0
  3  4  1  0
  4  5  1  0
  5  6  1  0
  6  7  1  0
  7  8  2  0
  7  9  1  0
  9 10  1  0
 10 11  2  0
 11 12  1  0
 12 13  2  0
 13 14  1  0
 14 15  2  0
  6 16  1  0
 16 17  1  0
 17 18  2  0
 17 19  1  0
 19 20  1  0
 20 21  1  0
 21 22  2  0
 21 23  1  0
 23 24  2  0
 24 25  1  0
 25 26  2  0
 26 27  1  0
 27 28  2  0
 28 29  1  0
 29 30  2  0
 30 31  1  0
 31 32  2  0
 16 33  1  0
 33  4  1  0
 15 10  1  0
 32 23  1  0
 31 26  1  0
  1 34  1  0
  1 35  1  0
  1 36  1  0
  3 37  1  0
  3 38  1  0
  4 39  1  1
  5 40  1  0
  5 41  1  0
  6 42  1  6
  9 43  1  0
 11 44  1  0
 12 45  1  0
 13 46  1  0
 14 47  1  0
 15 48  1  0
 19 49  1  0
 19 50  1  0
 20 51  1  0
 24 52  1  0
 25 53  1  0
 27 54  1  0
 28 55  1  0
 29 56  1  0
 30 57  1  0
 33 58  1  0
 33 59  1  0
M  END
>  <smiles>  (21) 
COC[C@H]1C[C@H](C(=O)Nc2ccccc2)N(C(=O)CNC(=O)c2ccc3ccccc3n2)C1

>  <score_type>  (21) 
oracle

>  <origin>  (21) 
autodockgpu

>  <m_score__min__energy>  (21) 
-9.5399999999999991

>  <m_primary>  (21) 
energy

>  <rmsd>  (21) 
6.66472461000881

>  <m_score__min__rmsd>  (21) 
6.66472461000881

>  <meeko>  (21) 
{"free_energy": -6.8, "intermolecular_energy": -9.19, "internal_energy": -3.97, "cluster_size": 12, "cluster_id": 4, "rank_in_cluster": 12}

>  <energy>  (21) 
-9.01

>  <cluster_rmsd>  (21) 
1.0

>  <cluster>  (21) 
1

$$$$

     RDKit          3D

 59 62  0  0  0  0  0  0  0  0999 V2000
  145.6640   73.4320  220.1600 C   0  0  0  0  0  0  0  0  0  0  0  0
  144.5960   73.2050  219.3690 O   0  0  0  0  0  0  0  0  0  0  0  0
  144.0280   74.2270  218.7410 C   0  0  0  0  0  0  0  0  0  0  0  0
  143.4030   75.3700  219.4740 C   0  0  1  0  0  0  0  0  0  0  0  0
  142.1860   75.8720  218.7760 C   0  0  0  0  0  0  0  0  0  0  0  0
  141.2220   76.1400  219.9420 C   0  0  2  0  0  0  0  0  0  0  0  0
  141.4800   77.4260  220.6050 C   0  0  0  0  0  0  0  0  0  0  0  0
  141.9030   78.4590  220.0160 O   0  0  0  0  0  0  0  0  0  0  0  0
  141.2570   77.5880  222.0200 N   0  0  0  0  0  0  0  0  0  0  0  0
  141.5340   78.8610  222.6480 C   0  0  0  0  0  0  0  0  0  0  0  0
  142.8270   79.2970  222.7730 C   0  0  0  0  0  0  0  0  0  0  0  0
  142.9910   80.5450  223.3890 C   0  0  0  0  0  0  0  0  0  0  0  0
  141.9080   81.2720  223.8340 C   0  0  0  0  0  0  0  0  0  0  0  0
  140.6150   80.8000  223.6900 C   0  0  0  0  0  0  0  0  0  0  0  0
  140.4250   79.5540  223.0770 C   0  0  0  0  0  0  0  0  0  0  0  0
  141.4410   75.0010  220.7680 N   0  0  0  0  0  0  0  0  0  0  0  0
  140.5470   74.1070  221.4150 C   0  0  0  0  0  0  0  0  0  0  0  0
  139.7760   74.4630  222.3190 O   0  0  0  0  0  0  0  0  0  0  0  0
  140.5670   72.6730  220.9540 C   0  0  0  0  0  0  0  0  0  0  0  0
  140.6750   71.7860  222.1110 N   0  0  0  0  0  0  0  0  0  0  0  0
  139.4610   71.4680  222.8210 C   0  0  0  0  0  0  0  0  0  0  0  0
  138.3440   71.9210  222.4790 O   0  0  0  0  0  0  0  0  0  0  0  0
  139.6150   70.5720  223.9860 C   0  0  0  0  0  0  0  0  0  0  0  0
  139.0820   69.2870  223.9270 C   0  0  0  0  0  0  0  0  0  0  0  0
  139.1900   68.3980  224.9730 C   0  0  0  0  0  0  0  0  0  0  0  0
  139.8520   68.8250  226.1030 C   0  0  0  0  0  0  0  0  0  0  0  0
  140.0080   67.9980  227.2090 C   0  0  0  0  0  0  0  0  0  0  0  0
  140.6740   68.4550  228.3270 C   0  0  0  0  0  0  0  0  0  0  0  0
  141.2120   69.7480  228.3940 C   0  0  0  0  0  0  0  0  0  0  0  0
  141.0150   70.5120  227.2540 C   0  0  0  0  0  0  0  0  0  0  0  0
  140.3630   70.0850  226.1390 C   0  0  0  0  0  0  0  0  0  0  0  0
  140.2640   70.9740  225.1080 N   0  0  0  0  0  0  0  0  0  0  0  0
  142.8900   74.8700  220.8410 C   0  0  0  0  0  0  0  0  0  0  0  0
  145.3593   73.3672  221.2150 H   0  0  0  0  0  0  0  0  0  0  0  0
  146.4387   72.6785  219.9552 H   0  0  0  0  0  0  0  0  0  0  0  0
  146.0653   74.4355  219.9552 H   0  0  0  0  0  0  0  0  0  0  0  0
  144.8080   74.6642  218.1003 H   0  0  0  0  0  0  0  0  0  0  0  0
  143.1525   73.7495  218.2768 H   0  0  0  0  0  0  0  0  0  0  0  0
  144.1680   76.1567  219.5505 H   0  0  0  0  0  0  0  0  0  0  0  0
  142.4003   76.7948  218.2170 H   0  0  0  0  0  0  0  0  0  0  0  0
  141.7871   75.1696  218.0293 H   0  0  0  0  0  0  0  0  0  0  0  0
  140.1693   76.2493  219.6424 H   0  0  0  0  0  0  0  0  0  0  0  0
  140.8940   76.8200  222.6220 H   0  0  0  0  0  0  0  0  0  0  0  0
  143.6815   78.7053  222.4129 H   0  0  0  0  0  0  0  0  0  0  0  0
  144.0043   80.9525  223.5200 H   0  0  0  0  0  0  0  0  0  0  0  0
  142.0748   82.2478  224.3136 H   0  0  0  0  0  0  0  0  0  0  0  0
  139.7573   81.3884  224.0479 H   0  0  0  0  0  0  0  0  0  0  0  0
  139.4147   79.1403  222.9421 H   0  0  0  0  0  0  0  0  0  0  0  0
  139.6380   72.4511  220.4084 H   0  0  0  0  0  0  0  0  0  0  0  0
  141.4307   72.5149  220.2914 H   0  0  0  0  0  0  0  0  0  0  0  0
  141.6040   71.4040  222.3980 H   0  0  0  0  0  0  0  0  0  0  0  0
  138.5567   68.9712  223.0136 H   0  0  0  0  0  0  0  0  0  0  0  0
  138.7640   67.3859  224.9087 H   0  0  0  0  0  0  0  0  0  0  0  0
  139.5994   66.9768  227.1927 H   0  0  0  0  0  0  0  0  0  0  0  0
  140.7864   67.7849  229.1921 H   0  0  0  0  0  0  0  0  0  0  0  0
  141.7465   70.1252  229.2783 H   0  0  0  0  0  0  0  0  0  0  0  0
  141.4145   71.5369  227.2509 H   0  0  0  0  0  0  0  0  0  0  0  0
  143.2940   75.4887  221.6559 H   0  0  0  0  0  0  0  0  0  0  0  0
  143.2025   73.8358  221.0476 H   0  0  0  0  0  0  0  0  0  0  0  0
  1  2  1  0
  2  3  1  0
  3  4  1  0
  4  5  1  0
  5  6  1  0
  6  7  1  0
  7  8  2  0
  7  9  1  0
  9 10  1  0
 10 11  2  0
 11 12  1  0
 12 13  2  0
 13 14  1  0
 14 15  2  0
  6 16  1  0
 16 17  1  0
 17 18  2  0
 17 19  1  0
 19 20  1  0
 20 21  1  0
 21 22  2  0
 21 23  1  0
 23 24  2  0
 24 25  1  0
 25 26  2  0
 26 27  1  0
 27 28  2  0
 28 29  1  0
 29 30  2  0
 30 31  1  0
 31 32  2  0
 16 33  1  0
 33  4  1  0
 15 10  1  0
 32 23  1  0
 31 26  1  0
  1 34  1  0
  1 35  1  0
  1 36  1  0
  3 37  1  0
  3 38  1  0
  4 39  1  1
  5 40  1  0
  5 41  1  0
  6 42  1  6
  9 43  1  0
 11 44  1  0
 12 45  1  0
 13 46  1  0
 14 47  1  0
 15 48  1  0
 19 49  1  0
 19 50  1  0
 20 51  1  0
 24 52  1  0
 25 53  1  0
 27 54  1  0
 28 55  1  0
 29 56  1  0
 30 57  1  0
 33 58  1  0
 33 59  1  0
M  END
>  <smiles>  (22) 
COC[C@H]1C[C@H](C(=O)Nc2ccccc2)N(C(=O)CNC(=O)c2ccc3ccccc3n2)C1

>  <score_type>  (22) 
oracle

>  <origin>  (22) 
autodockgpu

>  <m_score__min__energy>  (22) 
-9.5399999999999991

>  <m_primary>  (22) 
energy

>  <rmsd>  (22) 
2.7366963661213033

>  <m_score__min__rmsd>  (22) 
2.7366963661213033

>  <meeko>  (22) 
{"free_energy": -9.08, "intermolecular_energy": -11.46, "internal_energy": -1.89, "cluster_size": 30, "cluster_id": 1, "rank_in_cluster": 18}

>  <energy>  (22) 
-9.0

>  <cluster_rmsd>  (22) 
1.18

>  <cluster>  (22) 
1

$$$$

     RDKit          3D

 59 62  0  0  0  0  0  0  0  0999 V2000
  144.8260   72.0090  220.0760 C   0  0  0  0  0  0  0  0  0  0  0  0
  145.1520   73.3150  220.1380 O   0  0  0  0  0  0  0  0  0  0  0  0
  144.4540   74.1900  219.4240 C   0  0  0  0  0  0  0  0  0  0  0  0
  143.4950   75.1510  220.0520 C   0  0  1  0  0  0  0  0  0  0  0  0
  142.7030   75.8870  219.0260 C   0  0  0  0  0  0  0  0  0  0  0  0
  141.2990   75.9160  219.6500 C   0  0  2  0  0  0  0  0  0  0  0  0
  141.1490   76.9760  220.6560 C   0  0  0  0  0  0  0  0  0  0  0  0
  140.1330   77.1240  221.3890 O   0  0  0  0  0  0  0  0  0  0  0  0
  142.1940   77.9460  220.8730 N   0  0  0  0  0  0  0  0  0  0  0  0
  142.0120   78.9870  221.8600 C   0  0  0  0  0  0  0  0  0  0  0  0
  142.0170   80.3030  221.4770 C   0  0  0  0  0  0  0  0  0  0  0  0
  141.8270   81.2350  222.5060 C   0  0  0  0  0  0  0  0  0  0  0  0
  141.6470   80.8340  223.8120 C   0  0  0  0  0  0  0  0  0  0  0  0
  141.6480   79.4950  224.1620 C   0  0  0  0  0  0  0  0  0  0  0  0
  141.8360   78.5430  223.1500 C   0  0  0  0  0  0  0  0  0  0  0  0
  141.1850   74.5940  220.1700 N   0  0  0  0  0  0  0  0  0  0  0  0
  140.1500   73.6250  220.0910 C   0  0  0  0  0  0  0  0  0  0  0  0
  140.1720   72.6800  219.2870 O   0  0  0  0  0  0  0  0  0  0  0  0
  138.9950   73.7860  221.0430 C   0  0  0  0  0  0  0  0  0  0  0  0
  139.3170   73.1520  222.3200 N   0  0  0  0  0  0  0  0  0  0  0  0
  139.2890   71.7110  222.3740 C   0  0  0  0  0  0  0  0  0  0  0  0
  139.0050   71.0070  221.3770 O   0  0  0  0  0  0  0  0  0  0  0  0
  139.6150   71.1110  223.6840 C   0  0  0  0  0  0  0  0  0  0  0  0
  139.3740   69.7550  223.8860 C   0  0  0  0  0  0  0  0  0  0  0  0
  139.6560   69.1290  225.0800 C   0  0  0  0  0  0  0  0  0  0  0  0
  140.1920   69.8970  226.0890 C   0  0  0  0  0  0  0  0  0  0  0  0
  140.5070   69.3520  227.3280 C   0  0  0  0  0  0  0  0  0  0  0  0
  141.0420   70.1490  228.3190 C   0  0  0  0  0  0  0  0  0  0  0  0
  141.2860   71.5150  228.1230 C   0  0  0  0  0  0  0  0  0  0  0  0
  140.9450   71.9840  226.8630 C   0  0  0  0  0  0  0  0  0  0  0  0
  140.4180   71.2210  225.8690 C   0  0  0  0  0  0  0  0  0  0  0  0
  140.1440   71.8520  224.6900 N   0  0  0  0  0  0  0  0  0  0  0  0
  142.4470   74.3590  220.8600 C   0  0  0  0  0  0  0  0  0  0  0  0
  144.7257   71.6073  221.0951 H   0  0  0  0  0  0  0  0  0  0  0  0
  143.8717   71.8943  219.5411 H   0  0  0  0  0  0  0  0  0  0  0  0
  145.6145   71.4593  219.5411 H   0  0  0  0  0  0  0  0  0  0  0  0
  145.1912   74.8020  218.8837 H   0  0  0  0  0  0  0  0  0  0  0  0
  143.7786   73.5331  218.8563 H   0  0  0  0  0  0  0  0  0  0  0  0
  144.0914   75.8441  220.6635 H   0  0  0  0  0  0  0  0  0  0  0  0
  143.0932   76.9046  218.8769 H   0  0  0  0  0  0  0  0  0  0  0  0
  142.7317   75.4197  218.0306 H   0  0  0  0  0  0  0  0  0  0  0  0
  140.4943   76.1634  218.9420 H   0  0  0  0  0  0  0  0  0  0  0  0
  143.0920   77.9290  220.3460 H   0  0  0  0  0  0  0  0  0  0  0  0
  142.1608   80.6078  220.4299 H   0  0  0  0  0  0  0  0  0  0  0  0
  141.8214   82.3086  222.2663 H   0  0  0  0  0  0  0  0  0  0  0  0
  141.4994   81.5944  224.5930 H   0  0  0  0  0  0  0  0  0  0  0  0
  141.5049   79.1855  225.2078 H   0  0  0  0  0  0  0  0  0  0  0  0
  141.8426   77.4677  223.3818 H   0  0  0  0  0  0  0  0  0  0  0  0
  138.8011   74.8566  221.2049 H   0  0  0  0  0  0  0  0  0  0  0  0
  138.1009   73.3093  220.6149 H   0  0  0  0  0  0  0  0  0  0  0  0
  139.5560   73.7350  223.1530 H   0  0  0  0  0  0  0  0  0  0  0  0
  138.9438   69.1635  223.0644 H   0  0  0  0  0  0  0  0  0  0  0  0
  139.4603   68.0559  225.2220 H   0  0  0  0  0  0  0  0  0  0  0  0
  140.3295   68.2833  227.5189 H   0  0  0  0  0  0  0  0  0  0  0  0
  141.2845   69.6984  229.2928 H   0  0  0  0  0  0  0  0  0  0  0  0
  141.7126   72.1618  228.9038 H   0  0  0  0  0  0  0  0  0  0  0  0
  141.1132   73.0506  226.6529 H   0  0  0  0  0  0  0  0  0  0  0  0
  142.3967   74.7281  221.8950 H   0  0  0  0  0  0  0  0  0  0  0  0
  142.6930   73.2885  220.9198 H   0  0  0  0  0  0  0  0  0  0  0  0
  1  2  1  0
  2  3  1  0
  3  4  1  0
  4  5  1  0
  5  6  1  0
  6  7  1  0
  7  8  2  0
  7  9  1  0
  9 10  1  0
 10 11  2  0
 11 12  1  0
 12 13  2  0
 13 14  1  0
 14 15  2  0
  6 16  1  0
 16 17  1  0
 17 18  2  0
 17 19  1  0
 19 20  1  0
 20 21  1  0
 21 22  2  0
 21 23  1  0
 23 24  2  0
 24 25  1  0
 25 26  2  0
 26 27  1  0
 27 28  2  0
 28 29  1  0
 29 30  2  0
 30 31  1  0
 31 32  2  0
 16 33  1  0
 33  4  1  0
 15 10  1  0
 32 23  1  0
 31 26  1  0
  1 34  1  0
  1 35  1  0
  1 36  1  0
  3 37  1  0
  3 38  1  0
  4 39  1  1
  5 40  1  0
  5 41  1  0
  6 42  1  6
  9 43  1  0
 11 44  1  0
 12 45  1  0
 13 46  1  0
 14 47  1  0
 15 48  1  0
 19 49  1  0
 19 50  1  0
 20 51  1  0
 24 52  1  0
 25 53  1  0
 27 54  1  0
 28 55  1  0
 29 56  1  0
 30 57  1  0
 33 58  1  0
 33 59  1  0
M  END
>  <smiles>  (23) 
COC[C@H]1C[C@H](C(=O)Nc2ccccc2)N(C(=O)CNC(=O)c2ccc3ccccc3n2)C1

>  <score_type>  (23) 
oracle

>  <origin>  (23) 
autodockgpu

>  <m_score__min__energy>  (23) 
-9.5399999999999991

>  <m_primary>  (23) 
energy

>  <rmsd>  (23) 
2.6420288107975534

>  <m_score__min__rmsd>  (23) 
2.6420288107975534

>  <meeko>  (23) 
{"free_energy": -9.16, "intermolecular_energy": -11.54, "internal_energy": -2.02, "cluster_size": 30, "cluster_id": 1, "rank_in_cluster": 16}

>  <energy>  (23) 
-8.95

>  <cluster_rmsd>  (23) 
0.88

>  <cluster>  (23) 
1

$$$$

     RDKit          3D

 59 62  0  0  0  0  0  0  0  0999 V2000
  146.3960   73.3900  221.6130 C   0  0  0  0  0  0  0  0  0  0  0  0
  146.3810   73.1460  220.2870 O   0  0  0  0  0  0  0  0  0  0  0  0
  145.2270   73.1950  219.6340 C   0  0  0  0  0  0  0  0  0  0  0  0
  144.3050   74.3690  219.7240 C   0  0  1  0  0  0  0  0  0  0  0  0
  143.5010   74.5340  218.4810 C   0  0  0  0  0  0  0  0  0  0  0  0
  142.1150   74.9080  219.0310 C   0  0  2  0  0  0  0  0  0  0  0  0
  142.0140   76.3290  219.3920 C   0  0  0  0  0  0  0  0  0  0  0  0
  142.2010   76.7840  220.5530 O   0  0  0  0  0  0  0  0  0  0  0  0
  141.6840   77.3240  218.4010 N   0  0  0  0  0  0  0  0  0  0  0  0
  141.5770   78.7130  218.7880 C   0  0  0  0  0  0  0  0  0  0  0  0
  140.6030   79.1060  219.6680 C   0  0  0  0  0  0  0  0  0  0  0  0
  140.5860   80.4720  219.9850 C   0  0  0  0  0  0  0  0  0  0  0  0
  141.5000   81.3450  219.4380 C   0  0  0  0  0  0  0  0  0  0  0  0
  142.4720   80.9110  218.5520 C   0  0  0  0  0  0  0  0  0  0  0  0
  142.5090   79.5500  218.2190 C   0  0  0  0  0  0  0  0  0  0  0  0
  141.9890   74.0130  220.1320 N   0  0  0  0  0  0  0  0  0  0  0  0
  140.9330   73.1620  220.5530 C   0  0  0  0  0  0  0  0  0  0  0  0
  140.8420   71.9770  220.1980 O   0  0  0  0  0  0  0  0  0  0  0  0
  139.9010   73.7620  221.4700 C   0  0  0  0  0  0  0  0  0  0  0  0
  140.3020   75.1170  221.8450 N   0  0  0  0  0  0  0  0  0  0  0  0
  139.2700   76.0130  222.3050 C   0  0  0  0  0  0  0  0  0  0  0  0
  138.0690   75.6670  222.3910 O   0  0  0  0  0  0  0  0  0  0  0  0
  139.7170   77.3730  222.6680 C   0  0  0  0  0  0  0  0  0  0  0  0
  138.7620   78.3430  222.9640 C   0  0  0  0  0  0  0  0  0  0  0  0
  139.1060   79.6300  223.3130 C   0  0  0  0  0  0  0  0  0  0  0  0
  140.4470   79.9380  223.3600 C   0  0  0  0  0  0  0  0  0  0  0  0
  140.8880   81.2110  223.7010 C   0  0  0  0  0  0  0  0  0  0  0  0
  142.2400   81.4890  223.7380 C   0  0  0  0  0  0  0  0  0  0  0  0
  143.2060   80.5190  223.4400 C   0  0  0  0  0  0  0  0  0  0  0  0
  142.6880   79.2750  223.1090 C   0  0  0  0  0  0  0  0  0  0  0  0
  141.3630   78.9750  223.0660 C   0  0  0  0  0  0  0  0  0  0  0  0
  141.0330   77.6960  222.7210 N   0  0  0  0  0  0  0  0  0  0  0  0
  143.2640   74.1060  220.8320 C   0  0  0  0  0  0  0  0  0  0  0  0
  146.3375   72.4384  222.1616 H   0  0  0  0  0  0  0  0  0  0  0  0
  147.3278   73.9102  221.8796 H   0  0  0  0  0  0  0  0  0  0  0  0
  145.5349   74.0205  221.8796 H   0  0  0  0  0  0  0  0  0  0  0  0
  145.4734   73.0804  218.5681 H   0  0  0  0  0  0  0  0  0  0  0  0
  144.6459   72.4109  220.1414 H   0  0  0  0  0  0  0  0  0  0  0  0
  144.9315   75.2541  219.9090 H   0  0  0  0  0  0  0  0  0  0  0  0
  143.9075   75.3363  217.8478 H   0  0  0  0  0  0  0  0  0  0  0  0
  143.4929   73.6394  217.8410 H   0  0  0  0  0  0  0  0  0  0  0  0
  141.2961   74.8031  218.3041 H   0  0  0  0  0  0  0  0  0  0  0  0
  141.5200   77.0860  217.4010 H   0  0  0  0  0  0  0  0  0  0  0  0
  139.8812   78.3960  220.0980 H   0  0  0  0  0  0  0  0  0  0  0  0
  139.8276   80.8537  220.6844 H   0  0  0  0  0  0  0  0  0  0  0  0
  141.4571   82.4098  219.7107 H   0  0  0  0  0  0  0  0  0  0  0  0
  143.1969   81.6168  218.1204 H   0  0  0  0  0  0  0  0  0  0  0  0
  143.2642   79.1609  217.5203 H   0  0  0  0  0  0  0  0  0  0  0  0
  138.9302   73.7978  220.9540 H   0  0  0  0  0  0  0  0  0  0  0  0
  139.8158   73.1439  222.3759 H   0  0  0  0  0  0  0  0  0  0  0  0
  141.3020   75.4090  221.7760 H   0  0  0  0  0  0  0  0  0  0  0  0
  137.6970   78.0718  222.9174 H   0  0  0  0  0  0  0  0  0  0  0  0
  138.3387   80.3831  223.5453 H   0  0  0  0  0  0  0  0  0  0  0  0
  140.1587   81.9985  223.9419 H   0  0  0  0  0  0  0  0  0  0  0  0
  142.5687   82.5030  224.0097 H   0  0  0  0  0  0  0  0  0  0  0  0
  144.2859   80.7265  223.4663 H   0  0  0  0  0  0  0  0  0  0  0  0
  143.4009   78.4740  222.8638 H   0  0  0  0  0  0  0  0  0  0  0  0
  143.2496   74.9353  221.5546 H   0  0  0  0  0  0  0  0  0  0  0  0
  143.4898   73.1948  221.4054 H   0  0  0  0  0  0  0  0  0  0  0  0
  1  2  1  0
  2  3  1  0
  3  4  1  0
  4  5  1  0
  5  6  1  0
  6  7  1  0
  7  8  2  0
  7  9  1  0
  9 10  1  0
 10 11  2  0
 11 12  1  0
 12 13  2  0
 13 14  1  0
 14 15  2  0
  6 16  1  0
 16 17  1  0
 17 18  2  0
 17 19  1  0
 19 20  1  0
 20 21  1  0
 21 22  2  0
 21 23  1  0
 23 24  2  0
 24 25  1  0
 25 26  2  0
 26 27  1  0
 27 28  2  0
 28 29  1  0
 29 30  2  0
 30 31  1  0
 31 32  2  0
 16 33  1  0
 33  4  1  0
 15 10  1  0
 32 23  1  0
 31 26  1  0
  1 34  1  0
  1 35  1  0
  1 36  1  0
  3 37  1  0
  3 38  1  0
  4 39  1  1
  5 40  1  0
  5 41  1  0
  6 42  1  6
  9 43  1  0
 11 44  1  0
 12 45  1  0
 13 46  1  0
 14 47  1  0
 15 48  1  0
 19 49  1  0
 19 50  1  0
 20 51  1  0
 24 52  1  0
 25 53  1  0
 27 54  1  0
 28 55  1  0
 29 56  1  0
 30 57  1  0
 33 58  1  0
 33 59  1  0
M  END
>  <smiles>  (24) 
COC[C@H]1C[C@H](C(=O)Nc2ccccc2)N(C(=O)CNC(=O)c2ccc3ccccc3n2)C1

>  <score_type>  (24) 
oracle

>  <origin>  (24) 
autodockgpu

>  <m_score__min__energy>  (24) 
-9.5399999999999991

>  <m_primary>  (24) 
energy

>  <rmsd>  (24) 
6.706388568370269

>  <m_score__min__rmsd>  (24) 
6.706388568370269

>  <meeko>  (24) 
{"free_energy": -7.08, "intermolecular_energy": -9.46, "internal_energy": -4.05, "cluster_size": 12, "cluster_id": 4, "rank_in_cluster": 7}

>  <energy>  (24) 
-8.86

>  <cluster_rmsd>  (24) 
1.17

>  <cluster>  (24) 
1

$$$$

     RDKit          3D

 59 62  0  0  0  0  0  0  0  0999 V2000
  146.3220   72.8770  220.6250 C   0  0  0  0  0  0  0  0  0  0  0  0
  146.1670   72.7510  219.2920 O   0  0  0  0  0  0  0  0  0  0  0  0
  144.9690   72.9530  218.7590 C   0  0  0  0  0  0  0  0  0  0  0  0
  144.1460   74.1610  219.0740 C   0  0  1  0  0  0  0  0  0  0  0  0
  143.0190   74.3260  218.1120 C   0  0  0  0  0  0  0  0  0  0  0  0
  141.8640   74.7620  219.0270 C   0  0  2  0  0  0  0  0  0  0  0  0
  141.9120   76.1940  219.3540 C   0  0  0  0  0  0  0  0  0  0  0  0
  142.3140   76.6600  220.4560 O   0  0  0  0  0  0  0  0  0  0  0  0
  141.4860   77.1870  218.4000 N   0  0  0  0  0  0  0  0  0  0  0  0
  141.5300   78.5880  218.7560 C   0  0  0  0  0  0  0  0  0  0  0  0
  140.6760   79.0810  219.7070 C   0  0  0  0  0  0  0  0  0  0  0  0
  140.8020   80.4490  219.9850 C   0  0  0  0  0  0  0  0  0  0  0  0
  141.7300   81.2300  219.3340 C   0  0  0  0  0  0  0  0  0  0  0  0
  142.5780   80.6970  218.3780 C   0  0  0  0  0  0  0  0  0  0  0  0
  142.4720   79.3320  218.0820 C   0  0  0  0  0  0  0  0  0  0  0  0
  142.0390   73.8990  220.1470 N   0  0  0  0  0  0  0  0  0  0  0  0
  141.1270   73.0960  220.8830 C   0  0  0  0  0  0  0  0  0  0  0  0
  141.2580   71.8680  221.0040 O   0  0  0  0  0  0  0  0  0  0  0  0
  139.9660   73.8040  221.5290 C   0  0  0  0  0  0  0  0  0  0  0  0
  140.3710   75.1510  221.9270 N   0  0  0  0  0  0  0  0  0  0  0  0
  139.3270   76.0840  222.2730 C   0  0  0  0  0  0  0  0  0  0  0  0
  138.1130   75.7750  222.2440 O   0  0  0  0  0  0  0  0  0  0  0  0
  139.7780   77.4350  222.6640 C   0  0  0  0  0  0  0  0  0  0  0  0
  138.8270   78.3940  223.0040 C   0  0  0  0  0  0  0  0  0  0  0  0
  139.1750   79.6730  223.3810 C   0  0  0  0  0  0  0  0  0  0  0  0
  140.5160   79.9830  223.4110 C   0  0  0  0  0  0  0  0  0  0  0  0
  140.9610   81.2480  223.7760 C   0  0  0  0  0  0  0  0  0  0  0  0
  142.3120   81.5280  223.7950 C   0  0  0  0  0  0  0  0  0  0  0  0
  143.2740   80.5680  223.4530 C   0  0  0  0  0  0  0  0  0  0  0  0
  142.7530   79.3330  223.0990 C   0  0  0  0  0  0  0  0  0  0  0  0
  141.4280   79.0300  223.0730 C   0  0  0  0  0  0  0  0  0  0  0  0
  141.0950   77.7600  222.7000 N   0  0  0  0  0  0  0  0  0  0  0  0
  143.4640   73.9620  220.4430 C   0  0  0  0  0  0  0  0  0  0  0  0
  145.5683   72.2643  221.1413 H   0  0  0  0  0  0  0  0  0  0  0  0
  147.3286   72.5378  220.9108 H   0  0  0  0  0  0  0  0  0  0  0  0
  146.1956   73.9317  220.9108 H   0  0  0  0  0  0  0  0  0  0  0  0
  145.1159   72.9585  217.6689 H   0  0  0  0  0  0  0  0  0  0  0  0
  144.3770   72.1486  219.2200 H   0  0  0  0  0  0  0  0  0  0  0  0
  144.8243   75.0263  219.0408 H   0  0  0  0  0  0  0  0  0  0  0  0
  143.2458   75.0983  217.3622 H   0  0  0  0  0  0  0  0  0  0  0  0
  142.8005   73.4175  217.5316 H   0  0  0  0  0  0  0  0  0  0  0  0
  140.8666   74.6686  218.5727 H   0  0  0  0  0  0  0  0  0  0  0  0
  141.1460   76.9400  217.4470 H   0  0  0  0  0  0  0  0  0  0  0  0
  139.9393   78.4446  220.2191 H   0  0  0  0  0  0  0  0  0  0  0  0
  140.1457   80.9080  220.7390 H   0  0  0  0  0  0  0  0  0  0  0  0
  141.7993   82.3003  219.5785 H   0  0  0  0  0  0  0  0  0  0  0  0
  143.3165   81.3297  217.8638 H   0  0  0  0  0  0  0  0  0  0  0  0
  143.1253   78.8661  217.3296 H   0  0  0  0  0  0  0  0  0  0  0  0
  139.1331   73.8689  220.8134 H   0  0  0  0  0  0  0  0  0  0  0  0
  139.6454   73.2419  222.4185 H   0  0  0  0  0  0  0  0  0  0  0  0
  141.3810   75.4130  221.9540 H   0  0  0  0  0  0  0  0  0  0  0  0
  137.7619   78.1212  222.9705 H   0  0  0  0  0  0  0  0  0  0  0  0
  138.4106   80.4177  223.6477 H   0  0  0  0  0  0  0  0  0  0  0  0
  140.2349   82.0274  224.0503 H   0  0  0  0  0  0  0  0  0  0  0  0
  142.6439   82.5351  224.0874 H   0  0  0  0  0  0  0  0  0  0  0  0
  144.3539   80.7772  223.4645 H   0  0  0  0  0  0  0  0  0  0  0  0
  143.4631   78.5410  222.8189 H   0  0  0  0  0  0  0  0  0  0  0  0
  143.6834   74.8079  221.1111 H   0  0  0  0  0  0  0  0  0  0  0  0
  143.8207   73.0562  220.9552 H   0  0  0  0  0  0  0  0  0  0  0  0
  1  2  1  0
  2  3  1  0
  3  4  1  0
  4  5  1  0
  5  6  1  0
  6  7  1  0
  7  8  2  0
  7  9  1  0
  9 10  1  0
 10 11  2  0
 11 12  1  0
 12 13  2  0
 13 14  1  0
 14 15  2  0
  6 16  1  0
 16 17  1  0
 17 18  2  0
 17 19  1  0
 19 20  1  0
 20 21  1  0
 21 22  2  0
 21 23  1  0
 23 24  2  0
 24 25  1  0
 25 26  2  0
 26 27  1  0
 27 28  2  0
 28 29  1  0
 29 30  2  0
 30 31  1  0
 31 32  2  0
 16 33  1  0
 33  4  1  0
 15 10  1  0
 32 23  1  0
 31 26  1  0
  1 34  1  0
  1 35  1  0
  1 36  1  0
  3 37  1  0
  3 38  1  0
  4 39  1  1
  5 40  1  0
  5 41  1  0
  6 42  1  6
  9 43  1  0
 11 44  1  0
 12 45  1  0
 13 46  1  0
 14 47  1  0
 15 48  1  0
 19 49  1  0
 19 50  1  0
 20 51  1  0
 24 52  1  0
 25 53  1  0
 27 54  1  0
 28 55  1  0
 29 56  1  0
 30 57  1  0
 33 58  1  0
 33 59  1  0
M  END
>  <smiles>  (25) 
COC[C@H]1C[C@H](C(=O)Nc2ccccc2)N(C(=O)CNC(=O)c2ccc3ccccc3n2)C1

>  <score_type>  (25) 
oracle

>  <origin>  (25) 
autodockgpu

>  <m_score__min__energy>  (25) 
-9.5399999999999991

>  <m_primary>  (25) 
energy

>  <rmsd>  (25) 
6.710255564954945

>  <m_score__min__rmsd>  (25) 
6.710255564954945

>  <meeko>  (25) 
{"free_energy": -7.23, "intermolecular_energy": -9.62, "internal_energy": -3.96, "cluster_size": 12, "cluster_id": 4, "rank_in_cluster": 2}

>  <energy>  (25) 
-8.59

>  <cluster_rmsd>  (25) 
1.82

>  <cluster>  (25) 
1

$$$$

     RDKit          3D

 59 62  0  0  0  0  0  0  0  0999 V2000
  142.9580   77.8080  215.6790 C   0  0  0  0  0  0  0  0  0  0  0  0
  143.4020   76.5540  215.8970 O   0  0  0  0  0  0  0  0  0  0  0  0
  143.3230   76.0440  217.1200 C   0  0  0  0  0  0  0  0  0  0  0  0
  142.7760   76.8180  218.2770 C   0  0  1  0  0  0  0  0  0  0  0  0
  141.2910   76.9310  218.2100 C   0  0  0  0  0  0  0  0  0  0  0  0
  140.8780   76.7300  219.6760 C   0  0  2  0  0  0  0  0  0  0  0  0
  141.0250   77.9530  220.4790 C   0  0  0  0  0  0  0  0  0  0  0  0
  140.7110   79.1080  220.0810 O   0  0  0  0  0  0  0  0  0  0  0  0
  141.5560   77.9000  221.8190 N   0  0  0  0  0  0  0  0  0  0  0  0
  141.7020   79.1220  222.5790 C   0  0  0  0  0  0  0  0  0  0  0  0
  142.9480   79.6500  222.7930 C   0  0  0  0  0  0  0  0  0  0  0  0
  142.9840   80.8390  223.5360 C   0  0  0  0  0  0  0  0  0  0  0  0
  141.8300   81.4220  224.0110 C   0  0  0  0  0  0  0  0  0  0  0  0
  140.5880   80.8590  223.7740 C   0  0  0  0  0  0  0  0  0  0  0  0
  140.5250   79.6700  223.0340 C   0  0  0  0  0  0  0  0  0  0  0  0
  141.7330   75.6620  220.0750 N   0  0  0  0  0  0  0  0  0  0  0  0
  141.4830   74.4530  220.7770 C   0  0  0  0  0  0  0  0  0  0  0  0
  142.3910   73.7070  221.1750 O   0  0  0  0  0  0  0  0  0  0  0  0
  140.0420   74.0970  221.0280 C   0  0  0  0  0  0  0  0  0  0  0  0
  139.9270   73.3750  222.2940 N   0  0  0  0  0  0  0  0  0  0  0  0
  140.3190   71.9870  222.3050 C   0  0  0  0  0  0  0  0  0  0  0  0
  140.7480   71.4010  221.2840 O   0  0  0  0  0  0  0  0  0  0  0  0
  140.1820   71.2930  223.6020 C   0  0  0  0  0  0  0  0  0  0  0  0
  139.5500   70.0520  223.6420 C   0  0  0  0  0  0  0  0  0  0  0  0
  139.3900   69.3480  224.8150 C   0  0  0  0  0  0  0  0  0  0  0  0
  139.8800   69.9150  225.9690 C   0  0  0  0  0  0  0  0  0  0  0  0
  139.7620   69.2780  227.1990 C   0  0  0  0  0  0  0  0  0  0  0  0
  140.2630   69.8740  228.3380 C   0  0  0  0  0  0  0  0  0  0  0  0
  140.8980   71.1230  228.3050 C   0  0  0  0  0  0  0  0  0  0  0  0
  140.9760   71.6950  227.0440 C   0  0  0  0  0  0  0  0  0  0  0  0
  140.4930   71.1290  225.9070 C   0  0  0  0  0  0  0  0  0  0  0  0
  140.6590   71.8350  224.7500 N   0  0  0  0  0  0  0  0  0  0  0  0
  143.0500   76.0380  219.5790 C   0  0  0  0  0  0  0  0  0  0  0  0
  142.7812   78.3072  216.6431 H   0  0  0  0  0  0  0  0  0  0  0  0
  143.7119   78.3698  215.1080 H   0  0  0  0  0  0  0  0  0  0  0  0
  142.0186   77.7703  215.1080 H   0  0  0  0  0  0  0  0  0  0  0  0
  142.7016   75.1403  217.0352 H   0  0  0  0  0  0  0  0  0  0  0  0
  144.3839   75.9463  217.3938 H   0  0  0  0  0  0  0  0  0  0  0  0
  143.2501   77.8102  218.2501 H   0  0  0  0  0  0  0  0  0  0  0  0
  140.9835   77.9210  217.8422 H   0  0  0  0  0  0  0  0  0  0  0  0
  140.8263   76.2113  217.5200 H   0  0  0  0  0  0  0  0  0  0  0  0
  139.8126   76.4956  219.8170 H   0  0  0  0  0  0  0  0  0  0  0  0
  141.8390   77.0090  222.2750 H   0  0  0  0  0  0  0  0  0  0  0  0
  143.8607   79.1725  222.4072 H   0  0  0  0  0  0  0  0  0  0  0  0
  143.9534   81.3156  223.7436 H   0  0  0  0  0  0  0  0  0  0  0  0
  141.8969   82.3544  224.5908 H   0  0  0  0  0  0  0  0  0  0  0  0
  139.6723   81.3331  224.1571 H   0  0  0  0  0  0  0  0  0  0  0  0
  139.5593   79.1876  222.8226 H   0  0  0  0  0  0  0  0  0  0  0  0
  139.4409   75.0170  221.0756 H   0  0  0  0  0  0  0  0  0  0  0  0
  139.6762   73.4591  220.2099 H   0  0  0  0  0  0  0  0  0  0  0  0
  139.5720   73.8590  223.1480 H   0  0  0  0  0  0  0  0  0  0  0  0
  139.1661   69.6202  222.7059 H   0  0  0  0  0  0  0  0  0  0  0  0
  138.8891   68.3688  224.8287 H   0  0  0  0  0  0  0  0  0  0  0  0
  139.2684   68.2972  227.2643 H   0  0  0  0  0  0  0  0  0  0  0  0
  140.1610   69.3530  229.3014 H   0  0  0  0  0  0  0  0  0  0  0  0
  141.3014   71.6096  229.2053 H   0  0  0  0  0  0  0  0  0  0  0  0
  141.4638   72.6772  226.9581 H   0  0  0  0  0  0  0  0  0  0  0  0
  143.5713   76.6746  220.3091 H   0  0  0  0  0  0  0  0  0  0  0  0
  143.6941   75.1625  219.4095 H   0  0  0  0  0  0  0  0  0  0  0  0
  1  2  1  0
  2  3  1  0
  3  4  1  0
  4  5  1  0
  5  6  1  0
  6  7  1  0
  7  8  2  0
  7  9  1  0
  9 10  1  0
 10 11  2  0
 11 12  1  0
 12 13  2  0
 13 14  1  0
 14 15  2  0
  6 16  1  0
 16 17  1  0
 17 18  2  0
 17 19  1  0
 19 20  1  0
 20 21  1  0
 21 22  2  0
 21 23  1  0
 23 24  2  0
 24 25  1  0
 25 26  2  0
 26 27  1  0
 27 28  2  0
 28 29  1  0
 29 30  2  0
 30 31  1  0
 31 32  2  0
 16 33  1  0
 33  4  1  0
 15 10  1  0
 32 23  1  0
 31 26  1  0
  1 34  1  0
  1 35  1  0
  1 36  1  0
  3 37  1  0
  3 38  1  0
  4 39  1  1
  5 40  1  0
  5 41  1  0
  6 42  1  6
  9 43  1  0
 11 44  1  0
 12 45  1  0
 13 46  1  0
 14 47  1  0
 15 48  1  0
 19 49  1  0
 19 50  1  0
 20 51  1  0
 24 52  1  0
 25 53  1  0
 27 54  1  0
 28 55  1  0
 29 56  1  0
 30 57  1  0
 33 58  1  0
 33 59  1  0
M  END
>  <smiles>  (26) 
COC[C@H]1C[C@H](C(=O)Nc2ccccc2)N(C(=O)CNC(=O)c2ccc3ccccc3n2)C1

>  <score_type>  (26) 
oracle

>  <origin>  (26) 
autodockgpu

>  <m_score__min__energy>  (26) 
-9.5399999999999991

>  <m_primary>  (26) 
energy

>  <rmsd>  (26) 
2.453803604015163

>  <m_score__min__rmsd>  (26) 
2.453803604015163

>  <meeko>  (26) 
{"free_energy": -9.32, "intermolecular_energy": -11.71, "internal_energy": -1.7, "cluster_size": 30, "cluster_id": 1, "rank_in_cluster": 9}

>  <energy>  (26) 
-8.25

>  <cluster_rmsd>  (26) 
1.96

>  <cluster>  (26) 
1

$$$$

     RDKit          3D

 59 62  0  0  0  0  0  0  0  0999 V2000
  145.2250   71.1390  218.5300 C   0  0  0  0  0  0  0  0  0  0  0  0
  145.9120   72.2800  218.7400 O   0  0  0  0  0  0  0  0  0  0  0  0
  145.6610   72.9940  219.8300 C   0  0  0  0  0  0  0  0  0  0  0  0
  144.7250   74.1600  219.8250 C   0  0  1  0  0  0  0  0  0  0  0  0
  144.0240   74.2980  218.5170 C   0  0  0  0  0  0  0  0  0  0  0  0
  142.5950   74.6660  218.9440 C   0  0  2  0  0  0  0  0  0  0  0  0
  142.4530   76.0920  219.2720 C   0  0  0  0  0  0  0  0  0  0  0  0
  142.5500   76.5680  220.4370 O   0  0  0  0  0  0  0  0  0  0  0  0
  142.1840   77.0660  218.2440 N   0  0  0  0  0  0  0  0  0  0  0  0
  142.0340   78.4600  218.5990 C   0  0  0  0  0  0  0  0  0  0  0  0
  141.1300   78.8290  219.5600 C   0  0  0  0  0  0  0  0  0  0  0  0
  141.0640   80.2020  219.8360 C   0  0  0  0  0  0  0  0  0  0  0  0
  141.8660   81.1050  219.1740 C   0  0  0  0  0  0  0  0  0  0  0  0
  142.7690   80.6950  218.2080 C   0  0  0  0  0  0  0  0  0  0  0  0
  142.8530   79.3280  217.9130 C   0  0  0  0  0  0  0  0  0  0  0  0
  142.3860   73.7880  220.0460 N   0  0  0  0  0  0  0  0  0  0  0  0
  141.3060   72.9330  220.3920 C   0  0  0  0  0  0  0  0  0  0  0  0
  141.0490   71.8890  219.7730 O   0  0  0  0  0  0  0  0  0  0  0  0
  140.4620   73.3460  221.5680 C   0  0  0  0  0  0  0  0  0  0  0  0
  140.7060   74.7530  221.8810 N   0  0  0  0  0  0  0  0  0  0  0  0
  139.5690   75.5600  222.2460 C   0  0  0  0  0  0  0  0  0  0  0  0
  138.4060   75.0970  222.3020 O   0  0  0  0  0  0  0  0  0  0  0  0
  139.8590   76.9770  222.5480 C   0  0  0  0  0  0  0  0  0  0  0  0
  138.7990   77.8680  222.7000 C   0  0  0  0  0  0  0  0  0  0  0  0
  138.9950   79.2010  222.9850 C   0  0  0  0  0  0  0  0  0  0  0  0
  140.2940   79.6380  223.1170 C   0  0  0  0  0  0  0  0  0  0  0  0
  140.5880   80.9660  223.4020 C   0  0  0  0  0  0  0  0  0  0  0  0
  141.9000   81.3730  223.5280 C   0  0  0  0  0  0  0  0  0  0  0  0
  142.9720   80.4830  223.3750 C   0  0  0  0  0  0  0  0  0  0  0  0
  142.5980   79.1780  223.0910 C   0  0  0  0  0  0  0  0  0  0  0  0
  141.3140   78.7500  222.9640 C   0  0  0  0  0  0  0  0  0  0  0  0
  141.1320   77.4270  222.6830 N   0  0  0  0  0  0  0  0  0  0  0  0
  143.5980   73.9040  220.8470 C   0  0  0  0  0  0  0  0  0  0  0  0
  144.9549   70.6903  219.4973 H   0  0  0  0  0  0  0  0  0  0  0  0
  144.3104   71.3612  217.9607 H   0  0  0  0  0  0  0  0  0  0  0  0
  145.8493   70.4346  217.9607 H   0  0  0  0  0  0  0  0  0  0  0  0
  145.2658   72.2873  220.5746 H   0  0  0  0  0  0  0  0  0  0  0  0
  146.6303   73.4818  220.0100 H   0  0  0  0  0  0  0  0  0  0  0  0
  145.3270   75.0535  220.0468 H   0  0  0  0  0  0  0  0  0  0  0  0
  144.4743   75.0946  217.9066 H   0  0  0  0  0  0  0  0  0  0  0  0
  144.0765   73.3934  217.8933 H   0  0  0  0  0  0  0  0  0  0  0  0
  141.8400   74.5406  218.1539 H   0  0  0  0  0  0  0  0  0  0  0  0
  142.0950   76.8100  217.2390 H   0  0  0  0  0  0  0  0  0  0  0  0
  140.4971   78.0957  220.0812 H   0  0  0  0  0  0  0  0  0  0  0  0
  140.3574   80.5654  220.5967 H   0  0  0  0  0  0  0  0  0  0  0  0
  141.7874   82.1747  219.4180 H   0  0  0  0  0  0  0  0  0  0  0  0
  143.4048   81.4245  217.6850 H   0  0  0  0  0  0  0  0  0  0  0  0
  143.5558   78.9576  217.1522 H   0  0  0  0  0  0  0  0  0  0  0  0
  139.3991   73.2053  221.3223 H   0  0  0  0  0  0  0  0  0  0  0  0
  140.7252   72.7285  222.4394 H   0  0  0  0  0  0  0  0  0  0  0  0
  141.6740   75.1430  221.8360 H   0  0  0  0  0  0  0  0  0  0  0  0
  137.7705   77.4941  222.5886 H   0  0  0  0  0  0  0  0  0  0  0  0
  138.1460   79.8904  223.1027 H   0  0  0  0  0  0  0  0  0  0  0  0
  139.7729   81.6940  223.5273 H   0  0  0  0  0  0  0  0  0  0  0  0
  142.1114   82.4283  223.7555 H   0  0  0  0  0  0  0  0  0  0  0  0
  144.0227   80.7938  223.4721 H   0  0  0  0  0  0  0  0  0  0  0  0
  143.3986   78.4353  222.9589 H   0  0  0  0  0  0  0  0  0  0  0  0
  143.5169   74.7441  221.5525 H   0  0  0  0  0  0  0  0  0  0  0  0
  143.7832   73.0038  221.4514 H   0  0  0  0  0  0  0  0  0  0  0  0
  1  2  1  0
  2  3  1  0
  3  4  1  0
  4  5  1  0
  5  6  1  0
  6  7  1  0
  7  8  2  0
  7  9  1  0
  9 10  1  0
 10 11  2  0
 11 12  1  0
 12 13  2  0
 13 14  1  0
 14 15  2  0
  6 16  1  0
 16 17  1  0
 17 18  2  0
 17 19  1  0
 19 20  1  0
 20 21  1  0
 21 22  2  0
 21 23  1  0
 23 24  2  0
 24 25  1  0
 25 26  2  0
 26 27  1  0
 27 28  2  0
 28 29  1  0
 29 30  2  0
 30 31  1  0
 31 32  2  0
 16 33  1  0
 33  4  1  0
 15 10  1  0
 32 23  1  0
 31 26  1  0
  1 34  1  0
  1 35  1  0
  1 36  1  0
  3 37  1  0
  3 38  1  0
  4 39  1  1
  5 40  1  0
  5 41  1  0
  6 42  1  6
  9 43  1  0
 11 44  1  0
 12 45  1  0
 13 46  1  0
 14 47  1  0
 15 48  1  0
 19 49  1  0
 19 50  1  0
 20 51  1  0
 24 52  1  0
 25 53  1  0
 27 54  1  0
 28 55  1  0
 29 56  1  0
 30 57  1  0
 33 58  1  0
 33 59  1  0
M  END
>  <smiles>  (27) 
COC[C@H]1C[C@H](C(=O)Nc2ccccc2)N(C(=O)CNC(=O)c2ccc3ccccc3n2)C1

>  <score_type>  (27) 
oracle

>  <origin>  (27) 
autodockgpu

>  <m_score__min__energy>  (27) 
-9.5399999999999991

>  <m_primary>  (27) 
energy

>  <rmsd>  (27) 
6.697263089062024

>  <m_score__min__rmsd>  (27) 
6.697263089062024

>  <meeko>  (27) 
{"free_energy": -7.3, "intermolecular_energy": -9.68, "internal_energy": -3.99, "cluster_size": 12, "cluster_id": 4, "rank_in_cluster": 1}

>  <energy>  (27) 
-8.19

>  <cluster_rmsd>  (27) 
1.62

>  <cluster>  (27) 
1

$$$$

     RDKit          3D

 59 62  0  0  0  0  0  0  0  0999 V2000
  141.7710   77.7980  219.5620 C   0  0  0  0  0  0  0  0  0  0  0  0
  142.3590   76.6270  219.8770 O   0  0  0  0  0  0  0  0  0  0  0  0
  143.4190   76.2290  219.1850 C   0  0  0  0  0  0  0  0  0  0  0  0
  143.9070   74.8150  219.2100 C   0  0  1  0  0  0  0  0  0  0  0  0
  144.6470   74.5110  220.4670 C   0  0  0  0  0  0  0  0  0  0  0  0
  144.1530   73.0970  220.8090 C   0  0  2  0  0  0  0  0  0  0  0  0
  144.8470   72.0540  220.0420 C   0  0  0  0  0  0  0  0  0  0  0  0
  145.9560   72.2140  219.4620 O   0  0  0  0  0  0  0  0  0  0  0  0
  144.2800   70.7350  219.9010 N   0  0  0  0  0  0  0  0  0  0  0  0
  144.9790   69.7330  219.1280 C   0  0  0  0  0  0  0  0  0  0  0  0
  145.3050   68.5310  219.6990 C   0  0  0  0  0  0  0  0  0  0  0  0
  145.9760   67.6250  218.8650 C   0  0  0  0  0  0  0  0  0  0  0  0
  146.2780   67.9420  217.5590 C   0  0  0  0  0  0  0  0  0  0  0  0
  145.9330   69.1680  217.0160 C   0  0  0  0  0  0  0  0  0  0  0  0
  145.2610   70.0910  217.8290 C   0  0  0  0  0  0  0  0  0  0  0  0
  142.7600   73.2020  220.5290 N   0  0  0  0  0  0  0  0  0  0  0  0
  141.6080   72.8080  221.2600 C   0  0  0  0  0  0  0  0  0  0  0  0
  141.5800   71.7990  221.9810 O   0  0  0  0  0  0  0  0  0  0  0  0
  140.3890   73.6820  221.1300 C   0  0  0  0  0  0  0  0  0  0  0  0
  140.7050   75.0390  221.5730 N   0  0  0  0  0  0  0  0  0  0  0  0
  139.6190   75.8460  222.0710 C   0  0  0  0  0  0  0  0  0  0  0  0
  138.4410   75.4230  222.1340 O   0  0  0  0  0  0  0  0  0  0  0  0
  139.9800   77.2110  222.5040 C   0  0  0  0  0  0  0  0  0  0  0  0
  138.9660   78.1090  222.8300 C   0  0  0  0  0  0  0  0  0  0  0  0
  139.2300   79.3960  223.2430 C   0  0  0  0  0  0  0  0  0  0  0  0
  140.5500   79.7790  223.3250 C   0  0  0  0  0  0  0  0  0  0  0  0
  140.9110   81.0580  223.7310 C   0  0  0  0  0  0  0  0  0  0  0  0
  142.2430   81.4120  223.8020 C   0  0  0  0  0  0  0  0  0  0  0  0
  143.2680   80.5150  223.4740 C   0  0  0  0  0  0  0  0  0  0  0  0
  142.8280   79.2600  223.0790 C   0  0  0  0  0  0  0  0  0  0  0  0
  141.5240   78.8860  223.0010 C   0  0  0  0  0  0  0  0  0  0  0  0
  141.2750   77.6080  222.5920 N   0  0  0  0  0  0  0  0  0  0  0  0
  142.6920   73.8650  219.2330 C   0  0  0  0  0  0  0  0  0  0  0  0
  141.5022   78.3332  220.4847 H   0  0  0  0  0  0  0  0  0  0  0  0
  142.4680   78.4113  218.9721 H   0  0  0  0  0  0  0  0  0  0  0  0
  140.8628   77.6052  218.9721 H   0  0  0  0  0  0  0  0  0  0  0  0
  143.2009   76.4590  218.1316 H   0  0  0  0  0  0  0  0  0  0  0  0
  144.2359   76.7600  219.6956 H   0  0  0  0  0  0  0  0  0  0  0  0
  144.5528   74.6840  218.3292 H   0  0  0  0  0  0  0  0  0  0  0  0
  145.7344   74.5231  220.3011 H   0  0  0  0  0  0  0  0  0  0  0  0
  144.4702   75.2434  221.2684 H   0  0  0  0  0  0  0  0  0  0  0  0
  144.3551   72.7846  221.8442 H   0  0  0  0  0  0  0  0  0  0  0  0
  143.3770   70.4640  220.3420 H   0  0  0  0  0  0  0  0  0  0  0  0
  145.0566   68.2921  220.7436 H   0  0  0  0  0  0  0  0  0  0  0  0
  146.2671   66.6412  219.2618 H   0  0  0  0  0  0  0  0  0  0  0  0
  146.8044   67.2055  216.9342 H   0  0  0  0  0  0  0  0  0  0  0  0
  146.1802   69.4117  215.9722 H   0  0  0  0  0  0  0  0  0  0  0  0
  144.9664   71.0764  217.4390 H   0  0  0  0  0  0  0  0  0  0  0  0
  140.0673   73.7065  220.0784 H   0  0  0  0  0  0  0  0  0  0  0  0
  139.5806   73.2743  221.7547 H   0  0  0  0  0  0  0  0  0  0  0  0
  141.6850   75.3950  221.5250 H   0  0  0  0  0  0  0  0  0  0  0  0
  137.9194   77.7790  222.7550 H   0  0  0  0  0  0  0  0  0  0  0  0
  138.4170   80.0918  223.4978 H   0  0  0  0  0  0  0  0  0  0  0  0
  140.1336   81.7896  223.9963 H   0  0  0  0  0  0  0  0  0  0  0  0
  142.5079   82.4293  224.1259 H   0  0  0  0  0  0  0  0  0  0  0  0
  144.3335   80.7836  223.5254 H   0  0  0  0  0  0  0  0  0  0  0  0
  143.5898   78.5137  222.8094 H   0  0  0  0  0  0  0  0  0  0  0  0
  142.7601   73.1296  218.4178 H   0  0  0  0  0  0  0  0  0  0  0  0
  141.7428   74.4026  219.0918 H   0  0  0  0  0  0  0  0  0  0  0  0
  1  2  1  0
  2  3  1  0
  3  4  1  0
  4  5  1  0
  5  6  1  0
  6  7  1  0
  7  8  2  0
  7  9  1  0
  9 10  1  0
 10 11  2  0
 11 12  1  0
 12 13  2  0
 13 14  1  0
 14 15  2  0
  6 16  1  0
 16 17  1  0
 17 18  2  0
 17 19  1  0
 19 20  1  0
 20 21  1  0
 21 22  2  0
 21 23  1  0
 23 24  2  0
 24 25  1  0
 25 26  2  0
 26 27  1  0
 27 28  2  0
 28 29  1  0
 29 30  2  0
 30 31  1  0
 31 32  2  0
 16 33  1  0
 33  4  1  0
 15 10  1  0
 32 23  1  0
 31 26  1  0
  1 34  1  0
  1 35  1  0
  1 36  1  0
  3 37  1  0
  3 38  1  0
  4 39  1  6
  5 40  1  0
  5 41  1  0
  6 42  1  1
  9 43  1  0
 11 44  1  0
 12 45  1  0
 13 46  1  0
 14 47  1  0
 15 48  1  0
 19 49  1  0
 19 50  1  0
 20 51  1  0
 24 52  1  0
 25 53  1  0
 27 54  1  0
 28 55  1  0
 29 56  1  0
 30 57  1  0
 33 58  1  0
 33 59  1  0
M  END
>  <smiles>  (28) 
COC[C@H]1C[C@H](C(=O)Nc2ccccc2)N(C(=O)CNC(=O)c2ccc3ccccc3n2)C1

>  <score_type>  (28) 
oracle

>  <origin>  (28) 
autodockgpu

>  <m_score__min__energy>  (28) 
-9.5399999999999991

>  <m_primary>  (28) 
energy

>  <rmsd>  (28) 
9.033351924150947

>  <m_score__min__rmsd>  (28) 
9.033351924150947

>  <meeko>  (28) 
{"free_energy": -7.92, "intermolecular_energy": -10.31, "internal_energy": -3.34, "cluster_size": 7, "cluster_id": 3, "rank_in_cluster": 5}

>  <energy>  (28) 
-8.01

>  <cluster_rmsd>  (28) 
1.96

>  <cluster>  (28) 
1

$$$$

     RDKit          3D

 59 62  0  0  0  0  0  0  0  0999 V2000
  141.8620   77.7460  219.0070 C   0  0  0  0  0  0  0  0  0  0  0  0
  142.3880   76.6580  219.6050 O   0  0  0  0  0  0  0  0  0  0  0  0
  143.6280   76.2920  219.3050 C   0  0  0  0  0  0  0  0  0  0  0  0
  144.0540   74.8590  219.2700 C   0  0  1  0  0  0  0  0  0  0  0  0
  144.8070   74.4800  220.4990 C   0  0  0  0  0  0  0  0  0  0  0  0
  144.2590   73.0770  220.8040 C   0  0  2  0  0  0  0  0  0  0  0  0
  144.8890   72.0320  219.9860 C   0  0  0  0  0  0  0  0  0  0  0  0
  145.9510   72.1900  219.3220 O   0  0  0  0  0  0  0  0  0  0  0  0
  144.3100   70.7150  219.8900 N   0  0  0  0  0  0  0  0  0  0  0  0
  144.9450   69.7110  219.0650 C   0  0  0  0  0  0  0  0  0  0  0  0
  145.3420   68.5220  219.6170 C   0  0  0  0  0  0  0  0  0  0  0  0
  145.9420   67.6130  218.7340 C   0  0  0  0  0  0  0  0  0  0  0  0
  146.1110   67.9150  217.4010 C   0  0  0  0  0  0  0  0  0  0  0  0
  145.6960   69.1280  216.8780 C   0  0  0  0  0  0  0  0  0  0  0  0
  145.0940   70.0540  217.7410 C   0  0  0  0  0  0  0  0  0  0  0  0
  142.8660   73.2520  220.5600 N   0  0  0  0  0  0  0  0  0  0  0  0
  141.7140   72.8840  221.3050 C   0  0  0  0  0  0  0  0  0  0  0  0
  141.6390   71.8270  221.9510 O   0  0  0  0  0  0  0  0  0  0  0  0
  140.5560   73.8460  221.2860 C   0  0  0  0  0  0  0  0  0  0  0  0
  141.0360   75.2000  221.5580 N   0  0  0  0  0  0  0  0  0  0  0  0
  140.0890   76.1450  222.0970 C   0  0  0  0  0  0  0  0  0  0  0  0
  138.8970   75.8410  222.3330 O   0  0  0  0  0  0  0  0  0  0  0  0
  140.6130   77.5020  222.3520 C   0  0  0  0  0  0  0  0  0  0  0  0
  141.4570   77.7090  223.4400 C   0  0  0  0  0  0  0  0  0  0  0  0
  141.9840   78.9460  223.7370 C   0  0  0  0  0  0  0  0  0  0  0  0
  141.6440   79.9950  222.9120 C   0  0  0  0  0  0  0  0  0  0  0  0
  142.1260   81.2800  223.1350 C   0  0  0  0  0  0  0  0  0  0  0  0
  141.7670   82.3100  222.2910 C   0  0  0  0  0  0  0  0  0  0  0  0
  140.9160   82.1100  221.1950 C   0  0  0  0  0  0  0  0  0  0  0  0
  140.4770   80.8040  221.0400 C   0  0  0  0  0  0  0  0  0  0  0  0
  140.8170   79.7710  221.8550 C   0  0  0  0  0  0  0  0  0  0  0  0
  140.2900   78.5490  221.5510 N   0  0  0  0  0  0  0  0  0  0  0  0
  142.7990   73.9620  219.2890 C   0  0  0  0  0  0  0  0  0  0  0  0
  141.5188   78.4560  219.7739 H   0  0  0  0  0  0  0  0  0  0  0  0
  142.6277   78.2258  218.3796 H   0  0  0  0  0  0  0  0  0  0  0  0
  141.0105   77.4439  218.3796 H   0  0  0  0  0  0  0  0  0  0  0  0
  143.8325   76.6966  218.3027 H   0  0  0  0  0  0  0  0  0  0  0  0
  144.1925   76.6753  220.1678 H   0  0  0  0  0  0  0  0  0  0  0  0
  144.6741   74.7309  218.3705 H   0  0  0  0  0  0  0  0  0  0  0  0
  145.8901   74.4513  220.3088 H   0  0  0  0  0  0  0  0  0  0  0  0
  144.6796   75.1910  221.3286 H   0  0  0  0  0  0  0  0  0  0  0  0
  144.4703   72.7203  221.8229 H   0  0  0  0  0  0  0  0  0  0  0  0
  143.4430   70.4460  220.3990 H   0  0  0  0  0  0  0  0  0  0  0  0
  145.1994   68.2950  220.6838 H   0  0  0  0  0  0  0  0  0  0  0  0
  146.2846   66.6391  219.1136 H   0  0  0  0  0  0  0  0  0  0  0  0
  146.5857   67.1769  216.7378 H   0  0  0  0  0  0  0  0  0  0  0  0
  145.8353   69.3592  215.8116 H   0  0  0  0  0  0  0  0  0  0  0  0
  144.7494   71.0302  217.3691 H   0  0  0  0  0  0  0  0  0  0  0  0
  140.0753   73.8202  220.2969 H   0  0  0  0  0  0  0  0  0  0  0  0
  139.8282   73.5555  222.0579 H   0  0  0  0  0  0  0  0  0  0  0  0
  142.0290   75.4560  221.3640 H   0  0  0  0  0  0  0  0  0  0  0  0
  141.7116   76.8548  224.0846 H   0  0  0  0  0  0  0  0  0  0  0  0
  142.6508   79.0907  224.5998 H   0  0  0  0  0  0  0  0  0  0  0  0
  142.7949   81.4754  223.9861 H   0  0  0  0  0  0  0  0  0  0  0  0
  142.1603   83.3191  222.4836 H   0  0  0  0  0  0  0  0  0  0  0  0
  140.6209   82.9221  220.5143 H   0  0  0  0  0  0  0  0  0  0  0  0
  139.8049   80.5884  220.1963 H   0  0  0  0  0  0  0  0  0  0  0  0
  142.8170   73.2531  218.4481 H   0  0  0  0  0  0  0  0  0  0  0  0
  141.8715   74.5447  219.1881 H   0  0  0  0  0  0  0  0  0  0  0  0
  1  2  1  0
  2  3  1  0
  3  4  1  0
  4  5  1  0
  5  6  1  0
  6  7  1  0
  7  8  2  0
  7  9  1  0
  9 10  1  0
 10 11  2  0
 11 12  1  0
 12 13  2  0
 13 14  1  0
 14 15  2  0
  6 16  1  0
 16 17  1  0
 17 18  2  0
 17 19  1  0
 19 20  1  0
 20 21  1  0
 21 22  2  0
 21 23  1  0
 23 24  2  0
 24 25  1  0
 25 26  2  0
 26 27  1  0
 27 28  2  0
 28 29  1  0
 29 30  2  0
 30 31  1  0
 31 32  2  0
 16 33  1  0
 33  4  1  0
 15 10  1  0
 32 23  1  0
 31 26  1  0
  1 34  1  0
  1 35  1  0
  1 36  1  0
  3 37  1  0
  3 38  1  0
  4 39  1  6
  5 40  1  0
  5 41  1  0
  6 42  1  1
  9 43  1  0
 11 44  1  0
 12 45  1  0
 13 46  1  0
 14 47  1  0
 15 48  1  0
 19 49  1  0
 19 50  1  0
 20 51  1  0
 24 52  1  0
 25 53  1  0
 27 54  1  0
 28 55  1  0
 29 56  1  0
 30 57  1  0
 33 58  1  0
 33 59  1  0
M  END
>  <smiles>  (29) 
COC[C@H]1C[C@H](C(=O)Nc2ccccc2)N(C(=O)CNC(=O)c2ccc3ccccc3n2)C1

>  <score_type>  (29) 
oracle

>  <origin>  (29) 
autodockgpu

>  <m_score__min__energy>  (29) 
-9.5399999999999991

>  <m_primary>  (29) 
energy

>  <rmsd>  (29) 
9.396258073103832

>  <m_score__min__rmsd>  (29) 
9.396258073103832

>  <meeko>  (29) 
{"free_energy": -7.38, "intermolecular_energy": -9.77, "internal_energy": -3.06, "cluster_size": 7, "cluster_id": 3, "rank_in_cluster": 7}

>  <energy>  (29) 
-7.99

>  <cluster_rmsd>  (29) 
1.61

>  <cluster>  (29) 
1

$$$$

     RDKit          3D

 59 62  0  0  0  0  0  0  0  0999 V2000
  146.3010   73.6470  221.1450 C   0  0  0  0  0  0  0  0  0  0  0  0
  145.1510   73.1020  220.7010 O   0  0  0  0  0  0  0  0  0  0  0  0
  144.3470   73.8260  219.9330 C   0  0  0  0  0  0  0  0  0  0  0  0
  143.4180   74.8550  220.4930 C   0  0  1  0  0  0  0  0  0  0  0  0
  142.8380   75.7140  219.4220 C   0  0  0  0  0  0  0  0  0  0  0  0
  141.3770   75.8650  219.8720 C   0  0  2  0  0  0  0  0  0  0  0  0
  141.2080   76.8910  220.9110 C   0  0  0  0  0  0  0  0  0  0  0  0
  140.4230   76.7890  221.8930 O   0  0  0  0  0  0  0  0  0  0  0  0
  141.9590   78.1210  220.8660 N   0  0  0  0  0  0  0  0  0  0  0  0
  141.7620   79.1190  221.8940 C   0  0  0  0  0  0  0  0  0  0  0  0
  140.5330   79.7040  222.0540 C   0  0  0  0  0  0  0  0  0  0  0  0
  140.4420   80.6540  223.0810 C   0  0  0  0  0  0  0  0  0  0  0  0
  141.5290   80.9640  223.8680 C   0  0  0  0  0  0  0  0  0  0  0  0
  142.7560   80.3520  223.6780 C   0  0  0  0  0  0  0  0  0  0  0  0
  142.8720   79.3990  222.6570 C   0  0  0  0  0  0  0  0  0  0  0  0
  141.0670   74.5420  220.3010 N   0  0  0  0  0  0  0  0  0  0  0  0
  139.9590   73.6920  220.0450 C   0  0  0  0  0  0  0  0  0  0  0  0
  139.9320   72.8860  219.1010 O   0  0  0  0  0  0  0  0  0  0  0  0
  138.7860   73.8020  220.9820 C   0  0  0  0  0  0  0  0  0  0  0  0
  139.1160   73.1730  222.2600 N   0  0  0  0  0  0  0  0  0  0  0  0
  139.2220   71.7350  222.2840 C   0  0  0  0  0  0  0  0  0  0  0  0
  139.0460   71.0300  221.2630 O   0  0  0  0  0  0  0  0  0  0  0  0
  139.5520   71.1380  223.5950 C   0  0  0  0  0  0  0  0  0  0  0  0
  139.2930   69.7870  223.8080 C   0  0  0  0  0  0  0  0  0  0  0  0
  139.5760   69.1640  225.0040 C   0  0  0  0  0  0  0  0  0  0  0  0
  140.1330   69.9310  226.0030 C   0  0  0  0  0  0  0  0  0  0  0  0
  140.4510   69.3890  227.2420 C   0  0  0  0  0  0  0  0  0  0  0  0
  141.0060   70.1840  228.2240 C   0  0  0  0  0  0  0  0  0  0  0  0
  141.2680   71.5450  228.0170 C   0  0  0  0  0  0  0  0  0  0  0  0
  140.9230   72.0120  226.7570 C   0  0  0  0  0  0  0  0  0  0  0  0
  140.3760   71.2500  225.7730 C   0  0  0  0  0  0  0  0  0  0  0  0
  140.1000   71.8770  224.5920 N   0  0  0  0  0  0  0  0  0  0  0  0
  142.2030   74.1440  221.1240 C   0  0  0  0  0  0  0  0  0  0  0  0
  146.3051   73.6490  222.2450 H   0  0  0  0  0  0  0  0  0  0  0  0
  147.1528   73.0568  220.7762 H   0  0  0  0  0  0  0  0  0  0  0  0
  146.3836   74.6800  220.7762 H   0  0  0  0  0  0  0  0  0  0  0  0
  144.9980   74.3558  219.2220 H   0  0  0  0  0  0  0  0  0  0  0  0
  143.6451   73.0660  219.5591 H   0  0  0  0  0  0  0  0  0  0  0  0
  143.9993   75.4545  221.2090 H   0  0  0  0  0  0  0  0  0  0  0  0
  143.3433   76.6901  219.3779 H   0  0  0  0  0  0  0  0  0  0  0  0
  142.9445   75.2889  218.4130 H   0  0  0  0  0  0  0  0  0  0  0  0
  140.6972   76.2263  219.0863 H   0  0  0  0  0  0  0  0  0  0  0  0
  142.6530   78.3270  220.1180 H   0  0  0  0  0  0  0  0  0  0  0  0
  139.6738   79.4450  221.4179 H   0  0  0  0  0  0  0  0  0  0  0  0
  139.4832   81.1620  223.2619 H   0  0  0  0  0  0  0  0  0  0  0  0
  141.4197   81.7143  224.6649 H   0  0  0  0  0  0  0  0  0  0  0  0
  143.6179   80.6071  224.3121 H   0  0  0  0  0  0  0  0  0  0  0  0
  143.8276   78.8872  222.4702 H   0  0  0  0  0  0  0  0  0  0  0  0
  138.5482   74.8632  221.1473 H   0  0  0  0  0  0  0  0  0  0  0  0
  137.9169   73.2935  220.5392 H   0  0  0  0  0  0  0  0  0  0  0  0
  139.2660   73.7560  223.1120 H   0  0  0  0  0  0  0  0  0  0  0  0
  138.8472   69.1967  222.9939 H   0  0  0  0  0  0  0  0  0  0  0  0
  139.3651   68.0950  225.1550 H   0  0  0  0  0  0  0  0  0  0  0  0
  140.2600   68.3241  227.4407 H   0  0  0  0  0  0  0  0  0  0  0  0
  141.2501   69.7359  229.1985 H   0  0  0  0  0  0  0  0  0  0  0  0
  141.7109   72.1901  228.7901 H   0  0  0  0  0  0  0  0  0  0  0  0
  141.1050   73.0746  226.5386 H   0  0  0  0  0  0  0  0  0  0  0  0
  142.0606   74.4709  222.1646 H   0  0  0  0  0  0  0  0  0  0  0  0
  142.3311   73.0519  221.1531 H   0  0  0  0  0  0  0  0  0  0  0  0
  1  2  1  0
  2  3  1  0
  3  4  1  0
  4  5  1  0
  5  6  1  0
  6  7  1  0
  7  8  2  0
  7  9  1  0
  9 10  1  0
 10 11  2  0
 11 12  1  0
 12 13  2  0
 13 14  1  0
 14 15  2  0
  6 16  1  0
 16 17  1  0
 17 18  2  0
 17 19  1  0
 19 20  1  0
 20 21  1  0
 21 22  2  0
 21 23  1  0
 23 24  2  0
 24 25  1  0
 25 26  2  0
 26 27  1  0
 27 28  2  0
 28 29  1  0
 29 30  2  0
 30 31  1  0
 31 32  2  0
 16 33  1  0
 33  4  1  0
 15 10  1  0
 32 23  1  0
 31 26  1  0
  1 34  1  0
  1 35  1  0
  1 36  1  0
  3 37  1  0
  3 38  1  0
  4 39  1  1
  5 40  1  0
  5 41  1  0
  6 42  1  6
  9 43  1  0
 11 44  1  0
 12 45  1  0
 13 46  1  0
 14 47  1  0
 15 48  1  0
 19 49  1  0
 19 50  1  0
 20 51  1  0
 24 52  1  0
 25 53  1  0
 27 54  1  0
 28 55  1  0
 29 56  1  0
 30 57  1  0
 33 58  1  0
 33 59  1  0
M  END
>  <smiles>  (30) 
COC[C@H]1C[C@H](C(=O)Nc2ccccc2)N(C(=O)CNC(=O)c2ccc3ccccc3n2)C1

>  <score_type>  (30) 
oracle

>  <origin>  (30) 
autodockgpu

>  <m_score__min__energy>  (30) 
-9.5399999999999991

>  <m_primary>  (30) 
energy

>  <rmsd>  (30) 
2.714685620702423

>  <m_score__min__rmsd>  (30) 
2.714685620702423

>  <meeko>  (30) 
{"free_energy": -9.24, "intermolecular_energy": -11.63, "internal_energy": -2.04, "cluster_size": 30, "cluster_id": 1, "rank_in_cluster": 11}

>  <energy>  (30) 
-7.88

>  <cluster_rmsd>  (30) 
1.85

>  <cluster>  (30) 
1

$$$$

     RDKit          3D

 59 62  0  0  0  0  0  0  0  0999 V2000
  141.8200   77.9030  219.6300 C   0  0  0  0  0  0  0  0  0  0  0  0
  142.4010   76.7140  219.8900 O   0  0  0  0  0  0  0  0  0  0  0  0
  143.2860   76.2250  219.0300 C   0  0  0  0  0  0  0  0  0  0  0  0
  143.8080   74.8270  219.1270 C   0  0  1  0  0  0  0  0  0  0  0  0
  144.5380   74.6000  220.4050 C   0  0  0  0  0  0  0  0  0  0  0  0
  144.0730   73.1910  220.8060 C   0  0  2  0  0  0  0  0  0  0  0  0
  144.8030   72.1310  220.0960 C   0  0  0  0  0  0  0  0  0  0  0  0
  145.9910   72.2370  219.6850 O   0  0  0  0  0  0  0  0  0  0  0  0
  144.1810   70.8600  219.8180 N   0  0  0  0  0  0  0  0  0  0  0  0
  144.9190   69.8420  219.1050 C   0  0  0  0  0  0  0  0  0  0  0  0
  145.5490   70.1500  217.9280 C   0  0  0  0  0  0  0  0  0  0  0  0
  146.2430   69.0960  217.3170 C   0  0  0  0  0  0  0  0  0  0  0  0
  146.2780   67.8390  217.8800 C   0  0  0  0  0  0  0  0  0  0  0  0
  145.6290   67.5650  219.0720 C   0  0  0  0  0  0  0  0  0  0  0  0
  144.9280   68.6020  219.7020 C   0  0  0  0  0  0  0  0  0  0  0  0
  142.6820   73.2470  220.5030 N   0  0  0  0  0  0  0  0  0  0  0  0
  141.5300   72.8590  221.2380 C   0  0  0  0  0  0  0  0  0  0  0  0
  141.4940   71.8400  221.9440 O   0  0  0  0  0  0  0  0  0  0  0  0
  140.3220   73.7510  221.1280 C   0  0  0  0  0  0  0  0  0  0  0  0
  140.6600   75.0980  221.5860 N   0  0  0  0  0  0  0  0  0  0  0  0
  139.5950   75.9030  222.1290 C   0  0  0  0  0  0  0  0  0  0  0  0
  138.4160   75.4860  222.2190 O   0  0  0  0  0  0  0  0  0  0  0  0
  139.9780   77.2580  222.5750 C   0  0  0  0  0  0  0  0  0  0  0  0
  138.9800   78.1570  222.9440 C   0  0  0  0  0  0  0  0  0  0  0  0
  139.2640   79.4350  223.3710 C   0  0  0  0  0  0  0  0  0  0  0  0
  140.5890   79.8070  223.4230 C   0  0  0  0  0  0  0  0  0  0  0  0
  140.9700   81.0770  223.8400 C   0  0  0  0  0  0  0  0  0  0  0  0
  142.3060   81.4210  223.8800 C   0  0  0  0  0  0  0  0  0  0  0  0
  143.3150   80.5220  223.5090 C   0  0  0  0  0  0  0  0  0  0  0  0
  142.8560   79.2770  223.1040 C   0  0  0  0  0  0  0  0  0  0  0  0
  141.5470   78.9130  223.0570 C   0  0  0  0  0  0  0  0  0  0  0  0
  141.2770   77.6440  222.6330 N   0  0  0  0  0  0  0  0  0  0  0  0
  142.6160   73.8490  219.1770 C   0  0  0  0  0  0  0  0  0  0  0  0
  141.5743   78.4059  220.5770 H   0  0  0  0  0  0  0  0  0  0  0  0
  142.5129   78.5308  219.0505 H   0  0  0  0  0  0  0  0  0  0  0  0
  140.8990   77.7421  219.0505 H   0  0  0  0  0  0  0  0  0  0  0  0
  142.8259   76.3117  218.0346 H   0  0  0  0  0  0  0  0  0  0  0  0
  144.1820   76.8187  219.2639 H   0  0  0  0  0  0  0  0  0  0  0  0
  144.4696   74.6715  218.2620 H   0  0  0  0  0  0  0  0  0  0  0  0
  145.6269   74.6311  220.2521 H   0  0  0  0  0  0  0  0  0  0  0  0
  144.3333   75.3641  221.1694 H   0  0  0  0  0  0  0  0  0  0  0  0
  144.2677   72.9328  221.8574 H   0  0  0  0  0  0  0  0  0  0  0  0
  143.2090   70.6350  220.1160 H   0  0  0  0  0  0  0  0  0  0  0  0
  145.5127   71.1587  217.4907 H   0  0  0  0  0  0  0  0  0  0  0  0
  146.7704   69.2764  216.3687 H   0  0  0  0  0  0  0  0  0  0  0  0
  146.8330   67.0365  217.3720 H   0  0  0  0  0  0  0  0  0  0  0  0
  145.6628   66.5581  219.5136 H   0  0  0  0  0  0  0  0  0  0  0  0
  144.3980   68.4292  220.6503 H   0  0  0  0  0  0  0  0  0  0  0  0
  139.9931   73.7933  220.0792 H   0  0  0  0  0  0  0  0  0  0  0  0
  139.5125   73.3463  221.7532 H   0  0  0  0  0  0  0  0  0  0  0  0
  141.6410   75.4480  221.5150 H   0  0  0  0  0  0  0  0  0  0  0  0
  137.9294   77.8351  222.8926 H   0  0  0  0  0  0  0  0  0  0  0  0
  138.4634   80.1320  223.6595 H   0  0  0  0  0  0  0  0  0  0  0  0
  140.2054   81.8092  224.1386 H   0  0  0  0  0  0  0  0  0  0  0  0
  142.5872   82.4310  224.2130 H   0  0  0  0  0  0  0  0  0  0  0  0
  144.3834   80.7822  223.5366 H   0  0  0  0  0  0  0  0  0  0  0  0
  143.6048   78.5311  222.7991 H   0  0  0  0  0  0  0  0  0  0  0  0
  142.7134   73.0795  218.3970 H   0  0  0  0  0  0  0  0  0  0  0  0
  141.6560   74.3557  218.9989 H   0  0  0  0  0  0  0  0  0  0  0  0
  1  2  1  0
  2  3  1  0
  3  4  1  0
  4  5  1  0
  5  6  1  0
  6  7  1  0
  7  8  2  0
  7  9  1  0
  9 10  1  0
 10 11  2  0
 11 12  1  0
 12 13  2  0
 13 14  1  0
 14 15  2  0
  6 16  1  0
 16 17  1  0
 17 18  2  0
 17 19  1  0
 19 20  1  0
 20 21  1  0
 21 22  2  0
 21 23  1  0
 23 24  2  0
 24 25  1  0
 25 26  2  0
 26 27  1  0
 27 28  2  0
 28 29  1  0
 29 30  2  0
 30 31  1  0
 31 32  2  0
 16 33  1  0
 33  4  1  0
 15 10  1  0
 32 23  1  0
 31 26  1  0
  1 34  1  0
  1 35  1  0
  1 36  1  0
  3 37  1  0
  3 38  1  0
  4 39  1  6
  5 40  1  0
  5 41  1  0
  6 42  1  1
  9 43  1  0
 11 44  1  0
 12 45  1  0
 13 46  1  0
 14 47  1  0
 15 48  1  0
 19 49  1  0
 19 50  1  0
 20 51  1  0
 24 52  1  0
 25 53  1  0
 27 54  1  0
 28 55  1  0
 29 56  1  0
 30 57  1  0
 33 58  1  0
 33 59  1  0
M  END
>  <smiles>  (31) 
COC[C@H]1C[C@H](C(=O)Nc2ccccc2)N(C(=O)CNC(=O)c2ccc3ccccc3n2)C1

>  <score_type>  (31) 
oracle

>  <origin>  (31) 
autodockgpu

>  <m_score__min__energy>  (31) 
-9.5399999999999991

>  <m_primary>  (31) 
energy

>  <rmsd>  (31) 
8.987818334697563

>  <m_score__min__rmsd>  (31) 
8.987818334697563

>  <meeko>  (31) 
{"free_energy": -7.95, "intermolecular_energy": -10.33, "internal_energy": -3.32, "cluster_size": 7, "cluster_id": 3, "rank_in_cluster": 3}

>  <energy>  (31) 
-8.25

>  <cluster_rmsd>  (31) 
0.0

>  <cluster>  (31) 
2

$$$$

     RDKit          3D

 59 62  0  0  0  0  0  0  0  0999 V2000
  145.2450   71.0840  218.4880 C   0  0  0  0  0  0  0  0  0  0  0  0
  145.9310   72.2370  218.6200 O   0  0  0  0  0  0  0  0  0  0  0  0
  145.7470   72.9780  219.7060 C   0  0  0  0  0  0  0  0  0  0  0  0
  144.8230   74.1540  219.7260 C   0  0  1  0  0  0  0  0  0  0  0  0
  144.0200   74.2440  218.4740 C   0  0  0  0  0  0  0  0  0  0  0  0
  142.6330   74.6460  218.9980 C   0  0  2  0  0  0  0  0  0  0  0  0
  142.5280   76.0860  219.2760 C   0  0  0  0  0  0  0  0  0  0  0  0
  142.8980   76.6330  220.3510 O   0  0  0  0  0  0  0  0  0  0  0  0
  141.9770   76.9910  218.2980 N   0  0  0  0  0  0  0  0  0  0  0  0
  141.8730   78.4000  218.6050 C   0  0  0  0  0  0  0  0  0  0  0  0
  140.9580   78.8360  219.5270 C   0  0  0  0  0  0  0  0  0  0  0  0
  140.9400   80.2180  219.7590 C   0  0  0  0  0  0  0  0  0  0  0  0
  141.7950   81.0680  219.0920 C   0  0  0  0  0  0  0  0  0  0  0  0
  142.7070   80.5910  218.1660 C   0  0  0  0  0  0  0  0  0  0  0  0
  142.7450   79.2130  217.9160 C   0  0  0  0  0  0  0  0  0  0  0  0
  142.5070   73.8170  220.1500 N   0  0  0  0  0  0  0  0  0  0  0  0
  141.4520   72.9900  220.6180 C   0  0  0  0  0  0  0  0  0  0  0  0
  141.5260   71.7510  220.6380 O   0  0  0  0  0  0  0  0  0  0  0  0
  140.2070   73.6840  221.1040 C   0  0  0  0  0  0  0  0  0  0  0  0
  140.5350   75.0460  221.5240 N   0  0  0  0  0  0  0  0  0  0  0  0
  139.4600   75.8610  222.0340 C   0  0  0  0  0  0  0  0  0  0  0  0
  138.2830   75.4400  222.1270 O   0  0  0  0  0  0  0  0  0  0  0  0
  139.8320   77.2310  222.4420 C   0  0  0  0  0  0  0  0  0  0  0  0
  138.8260   78.1400  222.7570 C   0  0  0  0  0  0  0  0  0  0  0  0
  139.1000   79.4330  223.1480 C   0  0  0  0  0  0  0  0  0  0  0  0
  140.4230   79.8080  223.2180 C   0  0  0  0  0  0  0  0  0  0  0  0
  140.7940   81.0920  223.6000 C   0  0  0  0  0  0  0  0  0  0  0  0
  142.1280   81.4380  223.6590 C   0  0  0  0  0  0  0  0  0  0  0  0
  143.1460   80.5280  223.3420 C   0  0  0  0  0  0  0  0  0  0  0  0
  142.6970   79.2700  222.9690 C   0  0  0  0  0  0  0  0  0  0  0  0
  141.3890   78.9030  222.9040 C   0  0  0  0  0  0  0  0  0  0  0  0
  141.1300   77.6200  222.5170 N   0  0  0  0  0  0  0  0  0  0  0  0
  143.7800   73.9530  220.8450 C   0  0  0  0  0  0  0  0  0  0  0  0
  145.0065   70.6831  219.4842 H   0  0  0  0  0  0  0  0  0  0  0  0
  144.3125   71.2733  217.9361 H   0  0  0  0  0  0  0  0  0  0  0  0
  145.8562   70.3548  217.9361 H   0  0  0  0  0  0  0  0  0  0  0  0
  145.3866   72.2923  220.4870 H   0  0  0  0  0  0  0  0  0  0  0  0
  146.7293   73.4593  219.8213 H   0  0  0  0  0  0  0  0  0  0  0  0
  145.4476   75.0495  219.8602 H   0  0  0  0  0  0  0  0  0  0  0  0
  144.4258   75.0088  217.7954 H   0  0  0  0  0  0  0  0  0  0  0  0
  144.0149   73.3131  217.8880 H   0  0  0  0  0  0  0  0  0  0  0  0
  141.8163   74.4967  218.2764 H   0  0  0  0  0  0  0  0  0  0  0  0
  141.6480   76.6730  217.3630 H   0  0  0  0  0  0  0  0  0  0  0  0
  140.2810   78.1456  220.0514 H   0  0  0  0  0  0  0  0  0  0  0  0
  140.2287   80.6326  220.4885 H   0  0  0  0  0  0  0  0  0  0  0  0
  141.7521   82.1474  219.2994 H   0  0  0  0  0  0  0  0  0  0  0  0
  143.3857   81.2777  217.6390 H   0  0  0  0  0  0  0  0  0  0  0  0
  143.4534   78.7912  217.1878 H   0  0  0  0  0  0  0  0  0  0  0  0
  139.4672   73.7201  220.2908 H   0  0  0  0  0  0  0  0  0  0  0  0
  139.7901   73.1296  221.9577 H   0  0  0  0  0  0  0  0  0  0  0  0
  141.5140   75.3990  221.4500 H   0  0  0  0  0  0  0  0  0  0  0  0
  137.7770   77.8155  222.6917 H   0  0  0  0  0  0  0  0  0  0  0  0
  138.2927   80.1383  223.3946 H   0  0  0  0  0  0  0  0  0  0  0  0
  140.0226   81.8333  223.8557 H   0  0  0  0  0  0  0  0  0  0  0  0
  142.4012   82.4589  223.9640 H   0  0  0  0  0  0  0  0  0  0  0  0
  144.2134   80.7902  223.3855 H   0  0  0  0  0  0  0  0  0  0  0  0
  143.4528   78.5150  222.7070 H   0  0  0  0  0  0  0  0  0  0  0  0
  143.7624   74.8225  221.5185 H   0  0  0  0  0  0  0  0  0  0  0  0
  144.0065   73.0766  221.4700 H   0  0  0  0  0  0  0  0  0  0  0  0
  1  2  1  0
  2  3  1  0
  3  4  1  0
  4  5  1  0
  5  6  1  0
  6  7  1  0
  7  8  2  0
  7  9  1  0
  9 10  1  0
 10 11  2  0
 11 12  1  0
 12 13  2  0
 13 14  1  0
 14 15  2  0
  6 16  1  0
 16 17  1  0
 17 18  2  0
 17 19  1  0
 19 20  1  0
 20 21  1  0
 21 22  2  0
 21 23  1  0
 23 24  2  0
 24 25  1  0
 25 26  2  0
 26 27  1  0
 27 28  2  0
 28 29  1  0
 29 30  2  0
 30 31  1  0
 31 32  2  0
 16 33  1  0
 33  4  1  0
 15 10  1  0
 32 23  1  0
 31 26  1  0
  1 34  1  0
  1 35  1  0
  1 36  1  0
  3 37  1  0
  3 38  1  0
  4 39  1  1
  5 40  1  0
  5 41  1  0
  6 42  1  6
  9 43  1  0
 11 44  1  0
 12 45  1  0
 13 46  1  0
 14 47  1  0
 15 48  1  0
 19 49  1  0
 19 50  1  0
 20 51  1  0
 24 52  1  0
 25 53  1  0
 27 54  1  0
 28 55  1  0
 29 56  1  0
 30 57  1  0
 33 58  1  0
 33 59  1  0
M  END
>  <smiles>  (32) 
COC[C@H]1C[C@H](C(=O)Nc2ccccc2)N(C(=O)CNC(=O)c2ccc3ccccc3n2)C1

>  <score_type>  (32) 
oracle

>  <origin>  (32) 
autodockgpu

>  <m_score__min__energy>  (32) 
-9.5399999999999991

>  <m_primary>  (32) 
energy

>  <rmsd>  (32) 
6.777255107211227

>  <m_score__min__rmsd>  (32) 
6.777255107211227

>  <meeko>  (32) 
{"free_energy": -7.18, "intermolecular_energy": -9.56, "internal_energy": -4.08, "cluster_size": 12, "cluster_id": 4, "rank_in_cluster": 5}

>  <energy>  (32) 
-8.0

>  <cluster_rmsd>  (32) 
0.0

>  <cluster>  (32) 
3

$$$$

     RDKit          3D

 59 62  0  0  0  0  0  0  0  0999 V2000
  145.6780   73.2740  221.1990 C   0  0  0  0  0  0  0  0  0  0  0  0
  145.6540   73.8230  219.9680 O   0  0  0  0  0  0  0  0  0  0  0  0
  144.4830   74.1140  219.4140 C   0  0  0  0  0  0  0  0  0  0  0  0
  143.5200   75.0740  220.0360 C   0  0  1  0  0  0  0  0  0  0  0  0
  142.7290   75.8040  219.0050 C   0  0  0  0  0  0  0  0  0  0  0  0
  141.3230   75.8310  219.6250 C   0  0  2  0  0  0  0  0  0  0  0  0
  141.1660   76.8940  220.6280 C   0  0  0  0  0  0  0  0  0  0  0  0
  140.1560   77.0280  221.3710 O   0  0  0  0  0  0  0  0  0  0  0  0
  142.1970   77.8810  220.8280 N   0  0  0  0  0  0  0  0  0  0  0  0
  142.0090   78.9240  221.8130 C   0  0  0  0  0  0  0  0  0  0  0  0
  142.0250   80.2390  221.4290 C   0  0  0  0  0  0  0  0  0  0  0  0
  141.8270   81.1730  222.4550 C   0  0  0  0  0  0  0  0  0  0  0  0
  141.6310   80.7740  223.7590 C   0  0  0  0  0  0  0  0  0  0  0  0
  141.6210   79.4350  224.1100 C   0  0  0  0  0  0  0  0  0  0  0  0
  141.8160   78.4810  223.1010 C   0  0  0  0  0  0  0  0  0  0  0  0
  141.2110   74.5100  220.1480 N   0  0  0  0  0  0  0  0  0  0  0  0
  140.1800   73.5380  220.0690 C   0  0  0  0  0  0  0  0  0  0  0  0
  140.2210   72.5740  219.2880 O   0  0  0  0  0  0  0  0  0  0  0  0
  139.0030   73.7180  220.9910 C   0  0  0  0  0  0  0  0  0  0  0  0
  139.2890   73.0960  222.2820 N   0  0  0  0  0  0  0  0  0  0  0  0
  139.3730   71.6570  222.3230 C   0  0  0  0  0  0  0  0  0  0  0  0
  139.2140   70.9450  221.3040 O   0  0  0  0  0  0  0  0  0  0  0  0
  139.6580   71.0680  223.6470 C   0  0  0  0  0  0  0  0  0  0  0  0
  139.3610   69.7260  223.8700 C   0  0  0  0  0  0  0  0  0  0  0  0
  139.6030   69.1110  225.0790 C   0  0  0  0  0  0  0  0  0  0  0  0
  140.1560   69.8750  226.0810 C   0  0  0  0  0  0  0  0  0  0  0  0
  140.4320   69.3410  227.3340 C   0  0  0  0  0  0  0  0  0  0  0  0
  140.9850   70.1340  228.3190 C   0  0  0  0  0  0  0  0  0  0  0  0
  141.2850   71.4860  228.1020 C   0  0  0  0  0  0  0  0  0  0  0  0
  140.9800   71.9450  226.8300 C   0  0  0  0  0  0  0  0  0  0  0  0
  140.4360   71.1850  225.8420 C   0  0  0  0  0  0  0  0  0  0  0  0
  140.2030   71.8050  224.6480 N   0  0  0  0  0  0  0  0  0  0  0  0
  142.4710   74.2800  220.8430 C   0  0  0  0  0  0  0  0  0  0  0  0
  145.6432   74.0708  221.9566 H   0  0  0  0  0  0  0  0  0  0  0  0
  144.8079   72.6124  221.3225 H   0  0  0  0  0  0  0  0  0  0  0  0
  146.6025   72.6908  221.3225 H   0  0  0  0  0  0  0  0  0  0  0  0
  144.7080   74.5113  218.4132 H   0  0  0  0  0  0  0  0  0  0  0  0
  143.9443   73.1595  219.5072 H   0  0  0  0  0  0  0  0  0  0  0  0
  144.1120   75.7709  220.6474 H   0  0  0  0  0  0  0  0  0  0  0  0
  143.1166   76.8222  218.8534 H   0  0  0  0  0  0  0  0  0  0  0  0
  142.7620   75.3333  218.0113 H   0  0  0  0  0  0  0  0  0  0  0  0
  140.5199   76.0746  218.9139 H   0  0  0  0  0  0  0  0  0  0  0  0
  143.0900   77.8760  220.2920 H   0  0  0  0  0  0  0  0  0  0  0  0
  142.1830   80.5420  220.3834 H   0  0  0  0  0  0  0  0  0  0  0  0
  141.8281   82.2463  222.2142 H   0  0  0  0  0  0  0  0  0  0  0  0
  141.4792   81.5357  224.5379 H   0  0  0  0  0  0  0  0  0  0  0  0
  141.4640   79.1271  225.1543 H   0  0  0  0  0  0  0  0  0  0  0  0
  141.8147   77.4058  223.3334 H   0  0  0  0  0  0  0  0  0  0  0  0
  138.8133   74.7917  221.1365 H   0  0  0  0  0  0  0  0  0  0  0  0
  138.1160   73.2431  220.5464 H   0  0  0  0  0  0  0  0  0  0  0  0
  139.4240   73.6850  223.1330 H   0  0  0  0  0  0  0  0  0  0  0  0
  138.9182   69.1369  223.0533 H   0  0  0  0  0  0  0  0  0  0  0  0
  139.3631   68.0492  225.2373 H   0  0  0  0  0  0  0  0  0  0  0  0
  140.2092   68.2839  227.5412 H   0  0  0  0  0  0  0  0  0  0  0  0
  141.1966   69.6919  229.3038 H   0  0  0  0  0  0  0  0  0  0  0  0
  141.7261   72.1297  228.8773 H   0  0  0  0  0  0  0  0  0  0  0  0
  141.1934   73.0001  226.6034 H   0  0  0  0  0  0  0  0  0  0  0  0
  142.4160   74.6512  221.8770 H   0  0  0  0  0  0  0  0  0  0  0  0
  142.7199   73.2104  220.9063 H   0  0  0  0  0  0  0  0  0  0  0  0
  1  2  1  0
  2  3  1  0
  3  4  1  0
  4  5  1  0
  5  6  1  0
  6  7  1  0
  7  8  2  0
  7  9  1  0
  9 10  1  0
 10 11  2  0
 11 12  1  0
 12 13  2  0
 13 14  1  0
 14 15  2  0
  6 16  1  0
 16 17  1  0
 17 18  2  0
 17 19  1  0
 19 20  1  0
 20 21  1  0
 21 22  2  0
 21 23  1  0
 23 24  2  0
 24 25  1  0
 25 26  2  0
 26 27  1  0
 27 28  2  0
 28 29  1  0
 29 30  2  0
 30 31  1  0
 31 32  2  0
 16 33  1  0
 33  4  1  0
 15 10  1  0
 32 23  1  0
 31 26  1  0
  1 34  1  0
  1 35  1  0
  1 36  1  0
  3 37  1  0
  3 38  1  0
  4 39  1  1
  5 40  1  0
  5 41  1  0
  6 42  1  6
  9 43  1  0
 11 44  1  0
 12 45  1  0
 13 46  1  0
 14 47  1  0
 15 48  1  0
 19 49  1  0
 19 50  1  0
 20 51  1  0
 24 52  1  0
 25 53  1  0
 27 54  1  0
 28 55  1  0
 29 56  1  0
 30 57  1  0
 33 58  1  0
 33 59  1  0
M  END
>  <smiles>  (33) 
COC[C@H]1C[C@H](C(=O)Nc2ccccc2)N(C(=O)CNC(=O)c2ccc3ccccc3n2)C1

>  <score_type>  (33) 
oracle

>  <origin>  (33) 
autodockgpu

>  <m_score__min__energy>  (33) 
-9.5399999999999991

>  <m_primary>  (33) 
energy

>  <rmsd>  (33) 
2.6499573802185994

>  <m_score__min__rmsd>  (33) 
2.6499573802185994

>  <meeko>  (33) 
{"free_energy": -9.54, "intermolecular_energy": -11.93, "internal_energy": -1.93, "cluster_size": 30, "cluster_id": 1, "rank_in_cluster": 1}

>  <energy>  (33) 
-7.98

>  <cluster_rmsd>  (33) 
0.15

>  <cluster>  (33) 
3

$$$$

     RDKit          3D

 59 62  0  0  0  0  0  0  0  0999 V2000
  142.0290   77.7690  219.5480 C   0  0  0  0  0  0  0  0  0  0  0  0
  142.5200   76.5410  219.8100 O   0  0  0  0  0  0  0  0  0  0  0  0
  143.5980   76.1230  219.1590 C   0  0  0  0  0  0  0  0  0  0  0  0
  144.0520   74.6980  219.1930 C   0  0  1  0  0  0  0  0  0  0  0  0
  144.7550   74.3750  220.4660 C   0  0  0  0  0  0  0  0  0  0  0  0
  144.2190   72.9730  220.7950 C   0  0  2  0  0  0  0  0  0  0  0  0
  144.9060   71.9140  220.0420 C   0  0  0  0  0  0  0  0  0  0  0  0
  146.0320   72.0490  219.4870 O   0  0  0  0  0  0  0  0  0  0  0  0
  144.3120   70.6090  219.8880 N   0  0  0  0  0  0  0  0  0  0  0  0
  145.0050   69.5920  219.1290 C   0  0  0  0  0  0  0  0  0  0  0  0
  145.3380   68.4030  219.7220 C   0  0  0  0  0  0  0  0  0  0  0  0
  146.0020   67.4800  218.9020 C   0  0  0  0  0  0  0  0  0  0  0  0
  146.2910   67.7690  217.5860 C   0  0  0  0  0  0  0  0  0  0  0  0
  145.9380   68.9810  217.0200 C   0  0  0  0  0  0  0  0  0  0  0  0
  145.2730   69.9210  217.8200 C   0  0  0  0  0  0  0  0  0  0  0  0
  142.8360   73.1110  220.4820 N   0  0  0  0  0  0  0  0  0  0  0  0
  141.6590   72.7450  221.1860 C   0  0  0  0  0  0  0  0  0  0  0  0
  141.6140   71.7820  221.9680 O   0  0  0  0  0  0  0  0  0  0  0  0
  140.4340   73.5870  220.9480 C   0  0  0  0  0  0  0  0  0  0  0  0
  140.6890   74.9610  221.3760 N   0  0  0  0  0  0  0  0  0  0  0  0
  139.6140   75.6640  222.0300 C   0  0  0  0  0  0  0  0  0  0  0  0
  138.4950   75.1400  222.2370 O   0  0  0  0  0  0  0  0  0  0  0  0
  139.9120   77.0510  222.4430 C   0  0  0  0  0  0  0  0  0  0  0  0
  138.8570   77.9140  222.7300 C   0  0  0  0  0  0  0  0  0  0  0  0
  139.0610   79.2180  223.1230 C   0  0  0  0  0  0  0  0  0  0  0  0
  140.3630   79.6550  223.2240 C   0  0  0  0  0  0  0  0  0  0  0  0
  140.6640   80.9550  223.6110 C   0  0  0  0  0  0  0  0  0  0  0  0
  141.9800   81.3630  223.7020 C   0  0  0  0  0  0  0  0  0  0  0  0
  143.0460   80.5010  223.4130 C   0  0  0  0  0  0  0  0  0  0  0  0
  142.6650   79.2230  223.0340 C   0  0  0  0  0  0  0  0  0  0  0  0
  141.3780   78.7950  222.9380 C   0  0  0  0  0  0  0  0  0  0  0  0
  141.1880   77.5000  222.5490 N   0  0  0  0  0  0  0  0  0  0  0  0
  142.8140   73.7770  219.1860 C   0  0  0  0  0  0  0  0  0  0  0  0
  141.8207   78.2901  220.4941 H   0  0  0  0  0  0  0  0  0  0  0  0
  142.7668   78.3428  218.9681 H   0  0  0  0  0  0  0  0  0  0  0  0
  141.0989   77.6760  218.9681 H   0  0  0  0  0  0  0  0  0  0  0  0
  143.4287   76.3651  218.0994 H   0  0  0  0  0  0  0  0  0  0  0  0
  144.4051   76.6313  219.7068 H   0  0  0  0  0  0  0  0  0  0  0  0
  144.7152   74.5527  218.3275 H   0  0  0  0  0  0  0  0  0  0  0  0
  145.8459   74.3607  220.3252 H   0  0  0  0  0  0  0  0  0  0  0  0
  144.5775   75.1109  221.2641 H   0  0  0  0  0  0  0  0  0  0  0  0
  144.3888   72.6557  221.8345 H   0  0  0  0  0  0  0  0  0  0  0  0
  143.3930   70.3590  220.3080 H   0  0  0  0  0  0  0  0  0  0  0  0
  145.0998   68.1864  220.7738 H   0  0  0  0  0  0  0  0  0  0  0  0
  146.2983   66.5055  219.3174 H   0  0  0  0  0  0  0  0  0  0  0  0
  146.8134   67.0202  216.9725 H   0  0  0  0  0  0  0  0  0  0  0  0
  146.1732   69.2018  215.9684 H   0  0  0  0  0  0  0  0  0  0  0  0
  144.9729   70.8972  217.4114 H   0  0  0  0  0  0  0  0  0  0  0  0
  140.1869   73.5780  219.8762 H   0  0  0  0  0  0  0  0  0  0  0  0
  139.5923   73.1763  221.5250 H   0  0  0  0  0  0  0  0  0  0  0  0
  141.6210   75.4020  221.2080 H   0  0  0  0  0  0  0  0  0  0  0  0
  137.8260   77.5413  222.6397 H   0  0  0  0  0  0  0  0  0  0  0  0
  138.2159   79.8853  223.3477 H   0  0  0  0  0  0  0  0  0  0  0  0
  139.8529   81.6601  223.8452 H   0  0  0  0  0  0  0  0  0  0  0  0
  142.1980   82.3960  224.0107 H   0  0  0  0  0  0  0  0  0  0  0  0
  144.0987   80.8126  223.4812 H   0  0  0  0  0  0  0  0  0  0  0  0
  143.4614   78.5033  222.7936 H   0  0  0  0  0  0  0  0  0  0  0  0
  142.8834   73.0412  218.3713 H   0  0  0  0  0  0  0  0  0  0  0  0
  141.8814   74.3373  219.0237 H   0  0  0  0  0  0  0  0  0  0  0  0
  1  2  1  0
  2  3  1  0
  3  4  1  0
  4  5  1  0
  5  6  1  0
  6  7  1  0
  7  8  2  0
  7  9  1  0
  9 10  1  0
 10 11  2  0
 11 12  1  0
 12 13  2  0
 13 14  1  0
 14 15  2  0
  6 16  1  0
 16 17  1  0
 17 18  2  0
 17 19  1  0
 19 20  1  0
 20 21  1  0
 21 22  2  0
 21 23  1  0
 23 24  2  0
 24 25  1  0
 25 26  2  0
 26 27  1  0
 27 28  2  0
 28 29  1  0
 29 30  2  0
 30 31  1  0
 31 32  2  0
 16 33  1  0
 33  4  1  0
 15 10  1  0
 32 23  1  0
 31 26  1  0
  1 34  1  0
  1 35  1  0
  1 36  1  0
  3 37  1  0
  3 38  1  0
  4 39  1  6
  5 40  1  0
  5 41  1  0
  6 42  1  1
  9 43  1  0
 11 44  1  0
 12 45  1  0
 13 46  1  0
 14 47  1  0
 15 48  1  0
 19 49  1  0
 19 50  1  0
 20 51  1  0
 24 52  1  0
 25 53  1  0
 27 54  1  0
 28 55  1  0
 29 56  1  0
 30 57  1  0
 33 58  1  0
 33 59  1  0
M  END
>  <smiles>  (34) 
COC[C@H]1C[C@H](C(=O)Nc2ccccc2)N(C(=O)CNC(=O)c2ccc3ccccc3n2)C1

>  <score_type>  (34) 
oracle

>  <origin>  (34) 
autodockgpu

>  <m_score__min__energy>  (34) 
-9.5399999999999991

>  <m_primary>  (34) 
energy

>  <rmsd>  (34) 
9.062315327296218

>  <m_score__min__rmsd>  (34) 
9.062315327296218

>  <meeko>  (34) 
{"free_energy": -7.85, "intermolecular_energy": -10.23, "internal_energy": -3.31, "cluster_size": 7, "cluster_id": 3, "rank_in_cluster": 6}

>  <energy>  (34) 
-7.95

>  <cluster_rmsd>  (34) 
0.25

>  <cluster>  (34) 
3

$$$$

     RDKit          3D

 59 62  0  0  0  0  0  0  0  0999 V2000
  144.4310   76.3550  215.1000 C   0  0  0  0  0  0  0  0  0  0  0  0
  143.3640   76.3830  215.9230 O   0  0  0  0  0  0  0  0  0  0  0  0
  143.5150   76.0160  217.1900 C   0  0  0  0  0  0  0  0  0  0  0  0
  142.9370   76.7990  218.3250 C   0  0  1  0  0  0  0  0  0  0  0  0
  141.4580   76.9300  218.2060 C   0  0  0  0  0  0  0  0  0  0  0  0
  140.9900   76.7360  219.6560 C   0  0  2  0  0  0  0  0  0  0  0  0
  141.1230   77.9580  220.4620 C   0  0  0  0  0  0  0  0  0  0  0  0
  140.8490   79.1180  220.0490 O   0  0  0  0  0  0  0  0  0  0  0  0
  141.5930   77.9000  221.8240 N   0  0  0  0  0  0  0  0  0  0  0  0
  141.7280   79.1200  222.5880 C   0  0  0  0  0  0  0  0  0  0  0  0
  142.9700   79.6550  222.8110 C   0  0  0  0  0  0  0  0  0  0  0  0
  142.9950   80.8420  223.5560 C   0  0  0  0  0  0  0  0  0  0  0  0
  141.8340   81.4180  224.0250 C   0  0  0  0  0  0  0  0  0  0  0  0
  140.5970   80.8480  223.7810 C   0  0  0  0  0  0  0  0  0  0  0  0
  140.5450   79.6610  223.0370 C   0  0  0  0  0  0  0  0  0  0  0  0
  141.8160   75.6580  220.0860 N   0  0  0  0  0  0  0  0  0  0  0  0
  141.5260   74.4530  220.7800 C   0  0  0  0  0  0  0  0  0  0  0  0
  142.4090   73.6780  221.1800 O   0  0  0  0  0  0  0  0  0  0  0  0
  140.0740   74.1400  221.0210 C   0  0  0  0  0  0  0  0  0  0  0  0
  139.9280   73.4230  222.2870 N   0  0  0  0  0  0  0  0  0  0  0  0
  140.3100   72.0330  222.3110 C   0  0  0  0  0  0  0  0  0  0  0  0
  140.7550   71.4400  221.3010 O   0  0  0  0  0  0  0  0  0  0  0  0
  140.1420   71.3450  223.6080 C   0  0  0  0  0  0  0  0  0  0  0  0
  139.4960   70.1110  223.6410 C   0  0  0  0  0  0  0  0  0  0  0  0
  139.3070   69.4130  224.8130 C   0  0  0  0  0  0  0  0  0  0  0  0
  139.7830   69.9800  225.9740 C   0  0  0  0  0  0  0  0  0  0  0  0
  139.6360   69.3480  227.2040 C   0  0  0  0  0  0  0  0  0  0  0  0
  140.1220   69.9430  228.3500 C   0  0  0  0  0  0  0  0  0  0  0  0
  140.7720   71.1850  228.3240 C   0  0  0  0  0  0  0  0  0  0  0  0
  140.8790   71.7510  227.0620 C   0  0  0  0  0  0  0  0  0  0  0  0
  140.4100   71.1860  225.9180 C   0  0  0  0  0  0  0  0  0  0  0  0
  140.6040   71.8870  224.7630 N   0  0  0  0  0  0  0  0  0  0  0  0
  143.1550   76.0170  219.6370 C   0  0  0  0  0  0  0  0  0  0  0  0
  145.3543   76.3308  215.6974 H   0  0  0  0  0  0  0  0  0  0  0  0
  144.3812   75.4579  214.4655 H   0  0  0  0  0  0  0  0  0  0  0  0
  144.4283   77.2535  214.4655 H   0  0  0  0  0  0  0  0  0  0  0  0
  143.0900   75.0045  217.2683 H   0  0  0  0  0  0  0  0  0  0  0  0
  144.5948   76.1615  217.3410 H   0  0  0  0  0  0  0  0  0  0  0  0
  143.4236   77.7854  218.3131 H   0  0  0  0  0  0  0  0  0  0  0  0
  141.1760   77.9233  217.8267 H   0  0  0  0  0  0  0  0  0  0  0  0
  141.0095   76.2148  217.5008 H   0  0  0  0  0  0  0  0  0  0  0  0
  139.9174   76.5150  219.7593 H   0  0  0  0  0  0  0  0  0  0  0  0
  141.8400   77.0040  222.2940 H   0  0  0  0  0  0  0  0  0  0  0  0
  143.8878   79.1833  222.4300 H   0  0  0  0  0  0  0  0  0  0  0  0
  143.9605   81.3235  223.7706 H   0  0  0  0  0  0  0  0  0  0  0  0
  141.8920   82.3505  224.6055 H   0  0  0  0  0  0  0  0  0  0  0  0
  139.6767   81.3150  224.1616 H   0  0  0  0  0  0  0  0  0  0  0  0
  139.5831   79.1745  222.8177 H   0  0  0  0  0  0  0  0  0  0  0  0
  139.5000   75.0774  221.0634 H   0  0  0  0  0  0  0  0  0  0  0  0
  139.6957   73.5120  220.2009 H   0  0  0  0  0  0  0  0  0  0  0  0
  139.5590   73.9140  223.1310 H   0  0  0  0  0  0  0  0  0  0  0  0
  139.1246   69.6799  222.6996 H   0  0  0  0  0  0  0  0  0  0  0  0
  138.7952   68.4394  224.8213 H   0  0  0  0  0  0  0  0  0  0  0  0
  139.1315   68.3723  227.2633 H   0  0  0  0  0  0  0  0  0  0  0  0
  139.9957   69.4273  229.3134 H   0  0  0  0  0  0  0  0  0  0  0  0
  141.1647   71.6705  229.2296 H   0  0  0  0  0  0  0  0  0  0  0  0
  141.3794   72.7273  226.9812 H   0  0  0  0  0  0  0  0  0  0  0  0
  143.6578   76.6480  220.3847 H   0  0  0  0  0  0  0  0  0  0  0  0
  143.7939   75.1335  219.4913 H   0  0  0  0  0  0  0  0  0  0  0  0
  1  2  1  0
  2  3  1  0
  3  4  1  0
  4  5  1  0
  5  6  1  0
  6  7  1  0
  7  8  2  0
  7  9  1  0
  9 10  1  0
 10 11  2  0
 11 12  1  0
 12 13  2  0
 13 14  1  0
 14 15  2  0
  6 16  1  0
 16 17  1  0
 17 18  2  0
 17 19  1  0
 19 20  1  0
 20 21  1  0
 21 22  2  0
 21 23  1  0
 23 24  2  0
 24 25  1  0
 25 26  2  0
 26 27  1  0
 27 28  2  0
 28 29  1  0
 29 30  2  0
 30 31  1  0
 31 32  2  0
 16 33  1  0
 33  4  1  0
 15 10  1  0
 32 23  1  0
 31 26  1  0
  1 34  1  0
  1 35  1  0
  1 36  1  0
  3 37  1  0
  3 38  1  0
  4 39  1  1
  5 40  1  0
  5 41  1  0
  6 42  1  6
  9 43  1  0
 11 44  1  0
 12 45  1  0
 13 46  1  0
 14 47  1  0
 15 48  1  0
 19 49  1  0
 19 50  1  0
 20 51  1  0
 24 52  1  0
 25 53  1  0
 27 54  1  0
 28 55  1  0
 29 56  1  0
 30 57  1  0
 33 58  1  0
 33 59  1  0
M  END
>  <smiles>  (35) 
COC[C@H]1C[C@H](C(=O)Nc2ccccc2)N(C(=O)CNC(=O)c2ccc3ccccc3n2)C1

>  <score_type>  (35) 
oracle

>  <origin>  (35) 
autodockgpu

>  <m_score__min__energy>  (35) 
-9.5399999999999991

>  <m_primary>  (35) 
energy

>  <rmsd>  (35) 
2.492357990705193

>  <m_score__min__rmsd>  (35) 
2.492357990705193

>  <meeko>  (35) 
{"free_energy": -9.37, "intermolecular_energy": -11.76, "internal_energy": -1.73, "cluster_size": 30, "cluster_id": 1, "rank_in_cluster": 7}

>  <energy>  (35) 
-7.93

>  <cluster_rmsd>  (35) 
0.12

>  <cluster>  (35) 
3

$$$$

     RDKit          3D

 59 62  0  0  0  0  0  0  0  0999 V2000
  146.2950   73.4300  220.5450 C   0  0  0  0  0  0  0  0  0  0  0  0
  145.8320   73.2870  219.2870 O   0  0  0  0  0  0  0  0  0  0  0  0
  144.5580   73.5570  219.0330 C   0  0  0  0  0  0  0  0  0  0  0  0
  143.8970   74.8140  219.5030 C   0  0  1  0  0  0  0  0  0  0  0  0
  142.8090   75.2420  218.5790 C   0  0  0  0  0  0  0  0  0  0  0  0
  141.7140   75.7070  219.5510 C   0  0  2  0  0  0  0  0  0  0  0  0
  141.9450   77.0690  220.0530 C   0  0  0  0  0  0  0  0  0  0  0  0
  142.5750   77.9630  219.4250 O   0  0  0  0  0  0  0  0  0  0  0  0
  141.4450   77.4780  221.3430 N   0  0  0  0  0  0  0  0  0  0  0  0
  141.7010   78.8200  221.8170 C   0  0  0  0  0  0  0  0  0  0  0  0
  142.3860   79.0140  222.9880 C   0  0  0  0  0  0  0  0  0  0  0  0
  142.5880   80.3510  223.3580 C   0  0  0  0  0  0  0  0  0  0  0  0
  142.1200   81.3880  222.5820 C   0  0  0  0  0  0  0  0  0  0  0  0
  141.4320   81.1540  221.4040 C   0  0  0  0  0  0  0  0  0  0  0  0
  141.2170   79.8250  221.0120 C   0  0  0  0  0  0  0  0  0  0  0  0
  141.7660   74.6960  220.5530 N   0  0  0  0  0  0  0  0  0  0  0  0
  140.7530   73.9340  221.1920 C   0  0  0  0  0  0  0  0  0  0  0  0
  139.9990   74.4070  222.0570 O   0  0  0  0  0  0  0  0  0  0  0  0
  140.6190   72.4940  220.7730 C   0  0  0  0  0  0  0  0  0  0  0  0
  140.6980   71.6290  221.9490 N   0  0  0  0  0  0  0  0  0  0  0  0
  139.5130   71.5000  222.7600 C   0  0  0  0  0  0  0  0  0  0  0  0
  138.4440   72.0930  222.4870 O   0  0  0  0  0  0  0  0  0  0  0  0
  139.6370   70.6210  223.9420 C   0  0  0  0  0  0  0  0  0  0  0  0
  139.1110   69.3330  223.8860 C   0  0  0  0  0  0  0  0  0  0  0  0
  139.1930   68.4600  224.9480 C   0  0  0  0  0  0  0  0  0  0  0  0
  139.8200   68.9050  226.0890 C   0  0  0  0  0  0  0  0  0  0  0  0
  139.9480   68.0940  227.2110 C   0  0  0  0  0  0  0  0  0  0  0  0
  140.5800   68.5700  228.3410 C   0  0  0  0  0  0  0  0  0  0  0  0
  141.1100   69.8660  228.4050 C   0  0  0  0  0  0  0  0  0  0  0  0
  140.9430   70.6130  227.2480 C   0  0  0  0  0  0  0  0  0  0  0  0
  140.3250   70.1680  226.1220 C   0  0  0  0  0  0  0  0  0  0  0  0
  140.2520   71.0410  225.0760 N   0  0  0  0  0  0  0  0  0  0  0  0
  143.1850   74.5360  220.8430 C   0  0  0  0  0  0  0  0  0  0  0  0
  145.4962   73.1833  221.2599 H   0  0  0  0  0  0  0  0  0  0  0  0
  147.1483   72.7535  220.7008 H   0  0  0  0  0  0  0  0  0  0  0  0
  146.6182   74.4698  220.7008 H   0  0  0  0  0  0  0  0  0  0  0  0
  144.4556   73.5483  217.9378 H   0  0  0  0  0  0  0  0  0  0  0  0
  144.0403   72.7914  219.6296 H   0  0  0  0  0  0  0  0  0  0  0  0
  144.6819   75.5816  219.5717 H   0  0  0  0  0  0  0  0  0  0  0  0
  143.1399   76.0654  217.9290 H   0  0  0  0  0  0  0  0  0  0  0  0
  142.4788   74.4489  217.8920 H   0  0  0  0  0  0  0  0  0  0  0  0
  140.7164   75.8015  219.0972 H   0  0  0  0  0  0  0  0  0  0  0  0
  140.8960   76.8430  221.9580 H   0  0  0  0  0  0  0  0  0  0  0  0
  142.7533   78.1754  223.5978 H   0  0  0  0  0  0  0  0  0  0  0  0
  143.1316   80.5765  224.2874 H   0  0  0  0  0  0  0  0  0  0  0  0
  142.2967   82.4245  222.9053 H   0  0  0  0  0  0  0  0  0  0  0  0
  141.0632   81.9895  220.7908 H   0  0  0  0  0  0  0  0  0  0  0  0
  140.6747   79.5918  220.0838 H   0  0  0  0  0  0  0  0  0  0  0  0
  139.6491   72.3468  220.2753 H   0  0  0  0  0  0  0  0  0  0  0  0
  141.4331   72.2396  220.0784 H   0  0  0  0  0  0  0  0  0  0  0  0
  141.5870   71.1320  222.1790 H   0  0  0  0  0  0  0  0  0  0  0  0
  138.6133   69.0017  222.9627 H   0  0  0  0  0  0  0  0  0  0  0  0
  138.7730   67.4452  224.8863 H   0  0  0  0  0  0  0  0  0  0  0  0
  139.5445   67.0708  227.1976 H   0  0  0  0  0  0  0  0  0  0  0  0
  140.6708   67.9127  229.2183 H   0  0  0  0  0  0  0  0  0  0  0  0
  141.6167   70.2585  229.2990 H   0  0  0  0  0  0  0  0  0  0  0  0
  141.3391   71.6392  227.2413 H   0  0  0  0  0  0  0  0  0  0  0  0
  143.5072   75.2564  221.6093 H   0  0  0  0  0  0  0  0  0  0  0  0
  143.4174   73.5352  221.2359 H   0  0  0  0  0  0  0  0  0  0  0  0
  1  2  1  0
  2  3  1  0
  3  4  1  0
  4  5  1  0
  5  6  1  0
  6  7  1  0
  7  8  2  0
  7  9  1  0
  9 10  1  0
 10 11  2  0
 11 12  1  0
 12 13  2  0
 13 14  1  0
 14 15  2  0
  6 16  1  0
 16 17  1  0
 17 18  2  0
 17 19  1  0
 19 20  1  0
 20 21  1  0
 21 22  2  0
 21 23  1  0
 23 24  2  0
 24 25  1  0
 25 26  2  0
 26 27  1  0
 27 28  2  0
 28 29  1  0
 29 30  2  0
 30 31  1  0
 31 32  2  0
 16 33  1  0
 33  4  1  0
 15 10  1  0
 32 23  1  0
 31 26  1  0
  1 34  1  0
  1 35  1  0
  1 36  1  0
  3 37  1  0
  3 38  1  0
  4 39  1  1
  5 40  1  0
  5 41  1  0
  6 42  1  6
  9 43  1  0
 11 44  1  0
 12 45  1  0
 13 46  1  0
 14 47  1  0
 15 48  1  0
 19 49  1  0
 19 50  1  0
 20 51  1  0
 24 52  1  0
 25 53  1  0
 27 54  1  0
 28 55  1  0
 29 56  1  0
 30 57  1  0
 33 58  1  0
 33 59  1  0
M  END
>  <smiles>  (36) 
COC[C@H]1C[C@H](C(=O)Nc2ccccc2)N(C(=O)CNC(=O)c2ccc3ccccc3n2)C1

>  <score_type>  (36) 
oracle

>  <origin>  (36) 
autodockgpu

>  <m_score__min__energy>  (36) 
-9.5399999999999991

>  <m_primary>  (36) 
energy

>  <rmsd>  (36) 
2.861336700942497

>  <m_score__min__rmsd>  (36) 
2.861336700942497

>  <meeko>  (36) 
{"free_energy": -9.32, "intermolecular_energy": -11.7, "internal_energy": -1.79, "cluster_size": 30, "cluster_id": 1, "rank_in_cluster": 10}

>  <energy>  (36) 
-7.92

>  <cluster_rmsd>  (36) 
0.13

>  <cluster>  (36) 
3

$$$$

     RDKit          3D

 59 62  0  0  0  0  0  0  0  0999 V2000
  145.2670   73.7420  220.6300 C   0  0  0  0  0  0  0  0  0  0  0  0
  144.0750   73.1690  220.8880 O   0  0  0  0  0  0  0  0  0  0  0  0
  142.9790   73.6850  220.3440 C   0  0  0  0  0  0  0  0  0  0  0  0
  142.3580   74.9510  220.8410 C   0  0  1  0  0  0  0  0  0  0  0  0
  141.9430   75.8380  219.7170 C   0  0  0  0  0  0  0  0  0  0  0  0
  140.5890   76.3770  220.2040 C   0  0  2  0  0  0  0  0  0  0  0  0
  140.7320   77.4930  221.1500 C   0  0  0  0  0  0  0  0  0  0  0  0
  139.9080   77.7590  222.0680 O   0  0  0  0  0  0  0  0  0  0  0  0
  141.8650   78.3820  221.0830 N   0  0  0  0  0  0  0  0  0  0  0  0
  141.9710   79.4800  222.0180 C   0  0  0  0  0  0  0  0  0  0  0  0
  142.5860   79.2920  223.2280 C   0  0  0  0  0  0  0  0  0  0  0  0
  142.6440   80.4180  224.0610 C   0  0  0  0  0  0  0  0  0  0  0  0
  142.1110   81.6270  223.6690 C   0  0  0  0  0  0  0  0  0  0  0  0
  141.4970   81.7790  222.4380 C   0  0  0  0  0  0  0  0  0  0  0  0
  141.4270   80.6680  221.5870 C   0  0  0  0  0  0  0  0  0  0  0  0
  139.9950   75.2080  220.7620 N   0  0  0  0  0  0  0  0  0  0  0  0
  138.7020   74.6380  220.6240 C   0  0  0  0  0  0  0  0  0  0  0  0
  137.6790   75.3200  220.4560 O   0  0  0  0  0  0  0  0  0  0  0  0
  138.6110   73.1360  220.6880 C   0  0  0  0  0  0  0  0  0  0  0  0
  138.9150   72.6820  222.0430 N   0  0  0  0  0  0  0  0  0  0  0  0
  139.3580   71.3190  222.2040 C   0  0  0  0  0  0  0  0  0  0  0  0
  139.4870   70.5360  221.2340 O   0  0  0  0  0  0  0  0  0  0  0  0
  139.6500   70.8980  223.5890 C   0  0  0  0  0  0  0  0  0  0  0  0
  139.3190   69.6060  223.9890 C   0  0  0  0  0  0  0  0  0  0  0  0
  139.5640   69.1460  225.2640 C   0  0  0  0  0  0  0  0  0  0  0  0
  140.1560   70.0170  226.1510 C   0  0  0  0  0  0  0  0  0  0  0  0
  140.4400   69.6410  227.4580 C   0  0  0  0  0  0  0  0  0  0  0  0
  141.0330   70.5370  228.3240 C   0  0  0  0  0  0  0  0  0  0  0  0
  141.3670   71.8400  227.9290 C   0  0  0  0  0  0  0  0  0  0  0  0
  141.0520   72.1400  226.6120 C   0  0  0  0  0  0  0  0  0  0  0  0
  140.4700   71.2750  225.7390 C   0  0  0  0  0  0  0  0  0  0  0  0
  140.2330   71.7420  224.4780 N   0  0  0  0  0  0  0  0  0  0  0  0
  141.0460   74.6120  221.5760 C   0  0  0  0  0  0  0  0  0  0  0  0
  145.7703   73.9839  221.5777 H   0  0  0  0  0  0  0  0  0  0  0  0
  145.8910   73.0454  220.0508 H   0  0  0  0  0  0  0  0  0  0  0  0
  145.1128   74.6644  220.0508 H   0  0  0  0  0  0  0  0  0  0  0  0
  143.2151   73.8558  219.2833 H   0  0  0  0  0  0  0  0  0  0  0  0
  142.2183   72.9379  220.6146 H   0  0  0  0  0  0  0  0  0  0  0  0
  143.1056   75.4448  221.4792 H   0  0  0  0  0  0  0  0  0  0  0  0
  142.6652   76.6539  219.5665 H   0  0  0  0  0  0  0  0  0  0  0  0
  141.8872   75.3215  218.7474 H   0  0  0  0  0  0  0  0  0  0  0  0
  139.9715   76.8299  219.4143 H   0  0  0  0  0  0  0  0  0  0  0  0
  142.6270   78.2660  220.3830 H   0  0  0  0  0  0  0  0  0  0  0  0
  143.0069   78.3205  223.5263 H   0  0  0  0  0  0  0  0  0  0  0  0
  143.1244   80.3350  225.0470 H   0  0  0  0  0  0  0  0  0  0  0  0
  142.1749   82.4894  224.3489 H   0  0  0  0  0  0  0  0  0  0  0  0
  141.0743   82.7483  222.1351 H   0  0  0  0  0  0  0  0  0  0  0  0
  140.9491   80.7437  220.5991 H   0  0  0  0  0  0  0  0  0  0  0  0
  137.5933   72.8193  220.4159 H   0  0  0  0  0  0  0  0  0  0  0  0
  139.3346   72.6967  219.9855 H   0  0  0  0  0  0  0  0  0  0  0  0
  138.8110   73.3320  222.8540 H   0  0  0  0  0  0  0  0  0  0  0  0
  138.8457   68.9296  223.2620 H   0  0  0  0  0  0  0  0  0  0  0  0
  139.2968   68.1215  225.5623 H   0  0  0  0  0  0  0  0  0  0  0  0
  140.1916   68.6266  227.8034 H   0  0  0  0  0  0  0  0  0  0  0  0
  141.2500   70.2195  229.3546 H   0  0  0  0  0  0  0  0  0  0  0  0
  141.8400   72.5649  228.6078 H   0  0  0  0  0  0  0  0  0  0  0  0
  141.2901   73.1502  226.2475 H   0  0  0  0  0  0  0  0  0  0  0  0
  141.0455   75.0459  222.5868 H   0  0  0  0  0  0  0  0  0  0  0  0
  140.9091   73.5276  221.6996 H   0  0  0  0  0  0  0  0  0  0  0  0
  1  2  1  0
  2  3  1  0
  3  4  1  0
  4  5  1  0
  5  6  1  0
  6  7  1  0
  7  8  2  0
  7  9  1  0
  9 10  1  0
 10 11  2  0
 11 12  1  0
 12 13  2  0
 13 14  1  0
 14 15  2  0
  6 16  1  0
 16 17  1  0
 17 18  2  0
 17 19  1  0
 19 20  1  0
 20 21  1  0
 21 22  2  0
 21 23  1  0
 23 24  2  0
 24 25  1  0
 25 26  2  0
 26 27  1  0
 27 28  2  0
 28 29  1  0
 29 30  2  0
 30 31  1  0
 31 32  2  0
 16 33  1  0
 33  4  1  0
 15 10  1  0
 32 23  1  0
 31 26  1  0
  1 34  1  0
  1 35  1  0
  1 36  1  0
  3 37  1  0
  3 38  1  0
  4 39  1  1
  5 40  1  0
  5 41  1  0
  6 42  1  6
  9 43  1  0
 11 44  1  0
 12 45  1  0
 13 46  1  0
 14 47  1  0
 15 48  1  0
 19 49  1  0
 19 50  1  0
 20 51  1  0
 24 52  1  0
 25 53  1  0
 27 54  1  0
 28 55  1  0
 29 56  1  0
 30 57  1  0
 33 58  1  0
 33 59  1  0
M  END
>  <smiles>  (37) 
COC[C@H]1C[C@H](C(=O)Nc2ccccc2)N(C(=O)CNC(=O)c2ccc3ccccc3n2)C1

>  <score_type>  (37) 
oracle

>  <origin>  (37) 
autodockgpu

>  <m_score__min__energy>  (37) 
-9.5399999999999991

>  <m_primary>  (37) 
energy

>  <rmsd>  (37) 
2.641130933019839

>  <m_score__min__rmsd>  (37) 
2.641130933019839

>  <meeko>  (37) 
{"free_energy": -9.22, "intermolecular_energy": -11.61, "internal_energy": -1.93, "cluster_size": 30, "cluster_id": 1, "rank_in_cluster": 12}

>  <energy>  (37) 
-7.85

>  <cluster_rmsd>  (37) 
0.16

>  <cluster>  (37) 
3

$$$$

     RDKit          3D

 59 62  0  0  0  0  0  0  0  0999 V2000
  146.0050   73.4010  221.2090 C   0  0  0  0  0  0  0  0  0  0  0  0
  145.3280   72.7590  220.2370 O   0  0  0  0  0  0  0  0  0  0  0  0
  144.0060   72.6750  220.3180 C   0  0  0  0  0  0  0  0  0  0  0  0
  143.1600   73.8030  220.8170 C   0  0  1  0  0  0  0  0  0  0  0  0
  142.8100   74.7530  219.7240 C   0  0  0  0  0  0  0  0  0  0  0  0
  141.3400   75.0820  220.0300 C   0  0  2  0  0  0  0  0  0  0  0  0
  141.1950   76.0980  221.0820 C   0  0  0  0  0  0  0  0  0  0  0  0
  140.7510   75.8660  222.2400 O   0  0  0  0  0  0  0  0  0  0  0  0
  141.5640   77.4710  220.8430 N   0  0  0  0  0  0  0  0  0  0  0  0
  141.3960   78.4510  221.8920 C   0  0  0  0  0  0  0  0  0  0  0  0
  140.1550   78.6780  222.4260 C   0  0  0  0  0  0  0  0  0  0  0  0
  140.0980   79.6420  223.4420 C   0  0  0  0  0  0  0  0  0  0  0  0
  141.2280   80.3080  223.8620 C   0  0  0  0  0  0  0  0  0  0  0  0
  142.4660   80.0530  223.2990 C   0  0  0  0  0  0  0  0  0  0  0  0
  142.5500   79.0930  222.2820 C   0  0  0  0  0  0  0  0  0  0  0  0
  140.8230   73.8010  220.3770 N   0  0  0  0  0  0  0  0  0  0  0  0
  139.6490   73.1080  219.9800 C   0  0  0  0  0  0  0  0  0  0  0  0
  139.5650   72.4820  218.9110 O   0  0  0  0  0  0  0  0  0  0  0  0
  138.4770   73.1570  220.9240 C   0  0  0  0  0  0  0  0  0  0  0  0
  138.8760   72.6400  222.2320 N   0  0  0  0  0  0  0  0  0  0  0  0
  139.0100   71.2110  222.3690 C   0  0  0  0  0  0  0  0  0  0  0  0
  138.8010   70.4220  221.4190 O   0  0  0  0  0  0  0  0  0  0  0  0
  139.4100   70.7300  223.7070 C   0  0  0  0  0  0  0  0  0  0  0  0
  139.2130   69.3900  224.0320 C   0  0  0  0  0  0  0  0  0  0  0  0
  139.5640   68.8720  225.2590 C   0  0  0  0  0  0  0  0  0  0  0  0
  140.1250   69.7330  226.1750 C   0  0  0  0  0  0  0  0  0  0  0  0
  140.5090   69.3010  227.4390 C   0  0  0  0  0  0  0  0  0  0  0  0
  141.0680   70.1890  228.3350 C   0  0  0  0  0  0  0  0  0  0  0  0
  141.2680   71.5390  228.0150 C   0  0  0  0  0  0  0  0  0  0  0  0
  140.8590   71.8940  226.7380 C   0  0  0  0  0  0  0  0  0  0  0  0
  140.3080   71.0390  225.8370 C   0  0  0  0  0  0  0  0  0  0  0  0
  139.9650   71.5630  224.6230 N   0  0  0  0  0  0  0  0  0  0  0  0
  141.8060   73.2410  221.2960 C   0  0  0  0  0  0  0  0  0  0  0  0
  145.6463   73.0609  222.1917 H   0  0  0  0  0  0  0  0  0  0  0  0
  147.0787   73.1814  221.1144 H   0  0  0  0  0  0  0  0  0  0  0  0
  145.8427   74.4848  221.1144 H   0  0  0  0  0  0  0  0  0  0  0  0
  143.6507   72.4529  219.3009 H   0  0  0  0  0  0  0  0  0  0  0  0
  143.8750   71.9252  221.1122 H   0  0  0  0  0  0  0  0  0  0  0  0
  143.7331   74.3066  221.6094 H   0  0  0  0  0  0  0  0  0  0  0  0
  143.4368   75.6560  219.7658 H   0  0  0  0  0  0  0  0  0  0  0  0
  142.9673   74.3406  218.7164 H   0  0  0  0  0  0  0  0  0  0  0  0
  140.7961   75.5461  219.1940 H   0  0  0  0  0  0  0  0  0  0  0  0
  141.9580   77.7950  219.9350 H   0  0  0  0  0  0  0  0  0  0  0  0
  139.2610   78.1386  222.0798 H   0  0  0  0  0  0  0  0  0  0  0  0
  139.1310   79.8713  223.9135 H   0  0  0  0  0  0  0  0  0  0  0  0
  141.1446   81.0585  224.6619 H   0  0  0  0  0  0  0  0  0  0  0  0
  143.3623   80.5909  223.6415 H   0  0  0  0  0  0  0  0  0  0  0  0
  143.5139   78.8580  221.8069 H   0  0  0  0  0  0  0  0  0  0  0  0
  138.1365   74.1975  221.0304 H   0  0  0  0  0  0  0  0  0  0  0  0
  137.6596   72.5401  220.5223 H   0  0  0  0  0  0  0  0  0  0  0  0
  139.0540   73.2940  223.0260 H   0  0  0  0  0  0  0  0  0  0  0  0
  138.7616   68.7226  223.2831 H   0  0  0  0  0  0  0  0  0  0  0  0
  139.4022   67.8105  225.4980 H   0  0  0  0  0  0  0  0  0  0  0  0
  140.3669   68.2486  227.7258 H   0  0  0  0  0  0  0  0  0  0  0  0
  141.3655   69.8267  229.3301 H   0  0  0  0  0  0  0  0  0  0  0  0
  141.7128   72.2579  228.7188 H   0  0  0  0  0  0  0  0  0  0  0  0
  140.9901   72.9427  226.4329 H   0  0  0  0  0  0  0  0  0  0  0  0
  141.5974   73.5601  222.3278 H   0  0  0  0  0  0  0  0  0  0  0  0
  141.7913   72.1411  221.2993 H   0  0  0  0  0  0  0  0  0  0  0  0
  1  2  1  0
  2  3  1  0
  3  4  1  0
  4  5  1  0
  5  6  1  0
  6  7  1  0
  7  8  2  0
  7  9  1  0
  9 10  1  0
 10 11  2  0
 11 12  1  0
 12 13  2  0
 13 14  1  0
 14 15  2  0
  6 16  1  0
 16 17  1  0
 17 18  2  0
 17 19  1  0
 19 20  1  0
 20 21  1  0
 21 22  2  0
 21 23  1  0
 23 24  2  0
 24 25  1  0
 25 26  2  0
 26 27  1  0
 27 28  2  0
 28 29  1  0
 29 30  2  0
 30 31  1  0
 31 32  2  0
 16 33  1  0
 33  4  1  0
 15 10  1  0
 32 23  1  0
 31 26  1  0
  1 34  1  0
  1 35  1  0
  1 36  1  0
  3 37  1  0
  3 38  1  0
  4 39  1  1
  5 40  1  0
  5 41  1  0
  6 42  1  6
  9 43  1  0
 11 44  1  0
 12 45  1  0
 13 46  1  0
 14 47  1  0
 15 48  1  0
 19 49  1  0
 19 50  1  0
 20 51  1  0
 24 52  1  0
 25 53  1  0
 27 54  1  0
 28 55  1  0
 29 56  1  0
 30 57  1  0
 33 58  1  0
 33 59  1  0
M  END
>  <smiles>  (38) 
COC[C@H]1C[C@H](C(=O)Nc2ccccc2)N(C(=O)CNC(=O)c2ccc3ccccc3n2)C1

>  <score_type>  (38) 
oracle

>  <origin>  (38) 
autodockgpu

>  <m_score__min__energy>  (38) 
-9.5399999999999991

>  <m_primary>  (38) 
energy

>  <rmsd>  (38) 
2.9244137491924453

>  <m_score__min__rmsd>  (38) 
2.9244137491924453

>  <meeko>  (38) 
{"free_energy": -8.95, "intermolecular_energy": -11.34, "internal_energy": -2.14, "cluster_size": 30, "cluster_id": 1, "rank_in_cluster": 23}

>  <energy>  (38) 
-7.38

>  <cluster_rmsd>  (38) 
0.91

>  <cluster>  (38) 
3

$$$$

     RDKit          3D

 59 62  0  0  0  0  0  0  0  0999 V2000
  146.1620   73.5300  221.5850 C   0  0  0  0  0  0  0  0  0  0  0  0
  145.6800   73.3050  220.3470 O   0  0  0  0  0  0  0  0  0  0  0  0
  144.3670   73.3230  220.1520 C   0  0  0  0  0  0  0  0  0  0  0  0
  143.4950   74.4210  220.6710 C   0  0  1  0  0  0  0  0  0  0  0  0
  143.1110   75.3750  219.5920 C   0  0  0  0  0  0  0  0  0  0  0  0
  141.6350   75.6590  219.9120 C   0  0  2  0  0  0  0  0  0  0  0  0
  141.4690   76.6590  220.9770 C   0  0  0  0  0  0  0  0  0  0  0  0
  140.8510   76.4520  222.0570 O   0  0  0  0  0  0  0  0  0  0  0  0
  142.0250   77.9820  220.8450 N   0  0  0  0  0  0  0  0  0  0  0  0
  141.8340   78.9490  221.9030 C   0  0  0  0  0  0  0  0  0  0  0  0
  142.9080   79.3940  222.6270 C   0  0  0  0  0  0  0  0  0  0  0  0
  142.6200   80.3350  223.6260 C   0  0  0  0  0  0  0  0  0  0  0  0
  141.3320   80.7700  223.8490 C   0  0  0  0  0  0  0  0  0  0  0  0
  140.2710   80.2980  223.0970 C   0  0  0  0  0  0  0  0  0  0  0  0
  140.5330   79.3570  222.0920 C   0  0  0  0  0  0  0  0  0  0  0  0
  141.1550   74.3610  220.2470 N   0  0  0  0  0  0  0  0  0  0  0  0
  139.9980   73.6400  219.8490 C   0  0  0  0  0  0  0  0  0  0  0  0
  139.9490   72.9660  218.8090 O   0  0  0  0  0  0  0  0  0  0  0  0
  138.8000   73.7230  220.7580 C   0  0  0  0  0  0  0  0  0  0  0  0
  139.1270   73.1420  222.0590 N   0  0  0  0  0  0  0  0  0  0  0  0
  139.3040   71.7120  222.1220 C   0  0  0  0  0  0  0  0  0  0  0  0
  139.1890   70.9750  221.1150 O   0  0  0  0  0  0  0  0  0  0  0  0
  139.6280   71.1640  223.4560 C   0  0  0  0  0  0  0  0  0  0  0  0
  139.3280   69.8330  223.7320 C   0  0  0  0  0  0  0  0  0  0  0  0
  139.6040   69.2560  224.9520 C   0  0  0  0  0  0  0  0  0  0  0  0
  140.1960   70.0480  225.9100 C   0  0  0  0  0  0  0  0  0  0  0  0
  140.5100   69.5520  227.1700 C   0  0  0  0  0  0  0  0  0  0  0  0
  141.1020   70.3720  228.1090 C   0  0  0  0  0  0  0  0  0  0  0  0
  141.4060   71.7130  227.8380 C   0  0  0  0  0  0  0  0  0  0  0  0
  141.0620   72.1340  226.5610 C   0  0  0  0  0  0  0  0  0  0  0  0
  140.4800   71.3470  225.6180 C   0  0  0  0  0  0  0  0  0  0  0  0
  140.2120   71.9290  224.4130 N   0  0  0  0  0  0  0  0  0  0  0  0
  142.1600   73.8170  221.1520 C   0  0  0  0  0  0  0  0  0  0  0  0
  145.4297   73.1882  222.3313 H   0  0  0  0  0  0  0  0  0  0  0  0
  147.1048   72.9789  221.7172 H   0  0  0  0  0  0  0  0  0  0  0  0
  146.3450   74.6066  221.7172 H   0  0  0  0  0  0  0  0  0  0  0  0
  144.2193   73.3042  219.0621 H   0  0  0  0  0  0  0  0  0  0  0  0
  144.0363   72.4659  220.7570 H   0  0  0  0  0  0  0  0  0  0  0  0
  144.0603   74.9298  221.4657 H   0  0  0  0  0  0  0  0  0  0  0  0
  143.7128   76.2945  219.6411 H   0  0  0  0  0  0  0  0  0  0  0  0
  143.2726   74.9799  218.5782 H   0  0  0  0  0  0  0  0  0  0  0  0
  141.0730   76.1173  219.0848 H   0  0  0  0  0  0  0  0  0  0  0  0
  142.5720   78.2800  220.0100 H   0  0  0  0  0  0  0  0  0  0  0  0
  143.9307   79.0363  222.4371 H   0  0  0  0  0  0  0  0  0  0  0  0
  143.4384   80.7335  224.2436 H   0  0  0  0  0  0  0  0  0  0  0  0
  141.1431   81.5085  224.6420 H   0  0  0  0  0  0  0  0  0  0  0  0
  139.2466   80.6527  223.2834 H   0  0  0  0  0  0  0  0  0  0  0  0
  139.7197   78.9547  221.4701 H   0  0  0  0  0  0  0  0  0  0  0  0
  138.5135   74.7768  220.8898 H   0  0  0  0  0  0  0  0  0  0  0  0
  137.9639   73.1659  220.3102 H   0  0  0  0  0  0  0  0  0  0  0  0
  139.2250   73.7520  222.9000 H   0  0  0  0  0  0  0  0  0  0  0  0
  138.8547   69.2215  222.9497 H   0  0  0  0  0  0  0  0  0  0  0  0
  139.3606   68.2023  225.1532 H   0  0  0  0  0  0  0  0  0  0  0  0
  140.2862   68.5042  227.4191 H   0  0  0  0  0  0  0  0  0  0  0  0
  141.3426   69.9605  229.1004 H   0  0  0  0  0  0  0  0  0  0  0  0
  141.8784   72.3772  228.5767 H   0  0  0  0  0  0  0  0  0  0  0  0
  141.2756   73.1792  226.2930 H   0  0  0  0  0  0  0  0  0  0  0  0
  141.9504   74.1178  222.1891 H   0  0  0  0  0  0  0  0  0  0  0  0
  142.1752   72.7172  221.1413 H   0  0  0  0  0  0  0  0  0  0  0  0
  1  2  1  0
  2  3  1  0
  3  4  1  0
  4  5  1  0
  5  6  1  0
  6  7  1  0
  7  8  2  0
  7  9  1  0
  9 10  1  0
 10 11  2  0
 11 12  1  0
 12 13  2  0
 13 14  1  0
 14 15  2  0
  6 16  1  0
 16 17  1  0
 17 18  2  0
 17 19  1  0
 19 20  1  0
 20 21  1  0
 21 22  2  0
 21 23  1  0
 23 24  2  0
 24 25  1  0
 25 26  2  0
 26 27  1  0
 27 28  2  0
 28 29  1  0
 29 30  2  0
 30 31  1  0
 31 32  2  0
 16 33  1  0
 33  4  1  0
 15 10  1  0
 32 23  1  0
 31 26  1  0
  1 34  1  0
  1 35  1  0
  1 36  1  0
  3 37  1  0
  3 38  1  0
  4 39  1  1
  5 40  1  0
  5 41  1  0
  6 42  1  6
  9 43  1  0
 11 44  1  0
 12 45  1  0
 13 46  1  0
 14 47  1  0
 15 48  1  0
 19 49  1  0
 19 50  1  0
 20 51  1  0
 24 52  1  0
 25 53  1  0
 27 54  1  0
 28 55  1  0
 29 56  1  0
 30 57  1  0
 33 58  1  0
 33 59  1  0
M  END
>  <smiles>  (39) 
COC[C@H]1C[C@H](C(=O)Nc2ccccc2)N(C(=O)CNC(=O)c2ccc3ccccc3n2)C1

>  <score_type>  (39) 
oracle

>  <origin>  (39) 
autodockgpu

>  <m_score__min__energy>  (39) 
-9.5399999999999991

>  <m_primary>  (39) 
energy

>  <rmsd>  (39) 
2.872100781577159

>  <m_score__min__rmsd>  (39) 
2.872100781577159

>  <meeko>  (39) 
{"free_energy": -9.18, "intermolecular_energy": -11.56, "internal_energy": -2.11, "cluster_size": 30, "cluster_id": 1, "rank_in_cluster": 14}

>  <energy>  (39) 
-7.3

>  <cluster_rmsd>  (39) 
0.0

>  <cluster>  (39) 
4

$$$$

     RDKit          3D

 59 62  0  0  0  0  0  0  0  0999 V2000
  144.0020   76.2860  216.3250 C   0  0  0  0  0  0  0  0  0  0  0  0
  143.6770   75.0550  216.7700 O   0  0  0  0  0  0  0  0  0  0  0  0
  143.5570   74.8510  218.0760 C   0  0  0  0  0  0  0  0  0  0  0  0
  142.9690   75.8730  218.9960 C   0  0  1  0  0  0  0  0  0  0  0  0
  141.5930   76.2620  218.5780 C   0  0  0  0  0  0  0  0  0  0  0  0
  140.8530   76.3550  219.9210 C   0  0  2  0  0  0  0  0  0  0  0  0
  141.0980   77.6260  220.6160 C   0  0  0  0  0  0  0  0  0  0  0  0
  141.0490   78.7600  220.0660 O   0  0  0  0  0  0  0  0  0  0  0  0
  141.4220   77.6520  222.0210 N   0  0  0  0  0  0  0  0  0  0  0  0
  141.6730   78.9170  222.6750 C   0  0  0  0  0  0  0  0  0  0  0  0
  142.9490   79.4080  222.7510 C   0  0  0  0  0  0  0  0  0  0  0  0
  143.0880   80.6440  223.3980 C   0  0  0  0  0  0  0  0  0  0  0  0
  141.9970   81.3070  223.9170 C   0  0  0  0  0  0  0  0  0  0  0  0
  140.7200   80.7800  223.8210 C   0  0  0  0  0  0  0  0  0  0  0  0
  140.5560   79.5450  223.1780 C   0  0  0  0  0  0  0  0  0  0  0  0
  141.3490   75.2080  220.6050 N   0  0  0  0  0  0  0  0  0  0  0  0
  140.6990   74.1820  221.3420 C   0  0  0  0  0  0  0  0  0  0  0  0
  139.9500   74.4150  222.3030 O   0  0  0  0  0  0  0  0  0  0  0  0
  140.9550   72.7640  220.9040 C   0  0  0  0  0  0  0  0  0  0  0  0
  140.9730   71.8840  222.0720 N   0  0  0  0  0  0  0  0  0  0  0  0
  139.7050   71.5380  222.6620 C   0  0  0  0  0  0  0  0  0  0  0  0
  138.6150   71.9590  222.2100 O   0  0  0  0  0  0  0  0  0  0  0  0
  139.7670   70.6510  223.8420 C   0  0  0  0  0  0  0  0  0  0  0  0
  139.1850   69.3880  223.7720 C   0  0  0  0  0  0  0  0  0  0  0  0
  139.2080   68.5090  224.8320 C   0  0  0  0  0  0  0  0  0  0  0  0
  139.8330   68.9220  225.9870 C   0  0  0  0  0  0  0  0  0  0  0  0
  139.9040   68.1030  227.1080 C   0  0  0  0  0  0  0  0  0  0  0  0
  140.5360   68.5470  228.2510 C   0  0  0  0  0  0  0  0  0  0  0  0
  141.1230   69.8170  228.3290 C   0  0  0  0  0  0  0  0  0  0  0  0
  141.0100   70.5740  227.1730 C   0  0  0  0  0  0  0  0  0  0  0  0
  140.3940   70.1610  226.0340 C   0  0  0  0  0  0  0  0  0  0  0  0
  140.3790   71.0400  224.9890 N   0  0  0  0  0  0  0  0  0  0  0  0
  142.7900   75.2460  220.3940 C   0  0  0  0  0  0  0  0  0  0  0  0
  144.1777   76.9515  217.1830 H   0  0  0  0  0  0  0  0  0  0  0  0
  144.9151   76.2260  215.7145 H   0  0  0  0  0  0  0  0  0  0  0  0
  143.1783   76.6845  215.7145 H   0  0  0  0  0  0  0  0  0  0  0  0
  142.9407   73.9469  218.1891 H   0  0  0  0  0  0  0  0  0  0  0  0
  144.6081   74.8325  218.4000 H   0  0  0  0  0  0  0  0  0  0  0  0
  143.6456   76.7403  218.9850 H   0  0  0  0  0  0  0  0  0  0  0  0
  141.5945   77.2307  218.0568 H   0  0  0  0  0  0  0  0  0  0  0  0
  141.1328   75.5560  217.8710 H   0  0  0  0  0  0  0  0  0  0  0  0
  139.7564   76.3556  219.8341 H   0  0  0  0  0  0  0  0  0  0  0  0
  141.4800   76.7880  222.5990 H   0  0  0  0  0  0  0  0  0  0  0  0
  143.8100   78.8672  222.3312 H   0  0  0  0  0  0  0  0  0  0  0  0
  144.0875   81.0934  223.4932 H   0  0  0  0  0  0  0  0  0  0  0  0
  142.1436   82.2752  224.4181 H   0  0  0  0  0  0  0  0  0  0  0  0
  139.8557   81.3170  224.2389 H   0  0  0  0  0  0  0  0  0  0  0  0
  139.5598   79.0893  223.0779 H   0  0  0  0  0  0  0  0  0  0  0  0
  140.1579   72.4438  220.2169 H   0  0  0  0  0  0  0  0  0  0  0  0
  141.9270   72.7103  220.3919 H   0  0  0  0  0  0  0  0  0  0  0  0
  141.8790   71.5290  222.4510 H   0  0  0  0  0  0  0  0  0  0  0  0
  138.6901   69.0819  222.8385 H   0  0  0  0  0  0  0  0  0  0  0  0
  138.7443   67.5142  224.7585 H   0  0  0  0  0  0  0  0  0  0  0  0
  139.4554   67.0989  227.0836 H   0  0  0  0  0  0  0  0  0  0  0  0
  140.5805   67.8841  229.1277 H   0  0  0  0  0  0  0  0  0  0  0  0
  141.6316   70.1832  229.2330 H   0  0  0  0  0  0  0  0  0  0  0  0
  141.4508   71.5818  227.1780 H   0  0  0  0  0  0  0  0  0  0  0  0
  143.2775   75.8653  221.1614 H   0  0  0  0  0  0  0  0  0  0  0  0
  143.2453   74.2469  220.4616 H   0  0  0  0  0  0  0  0  0  0  0  0
  1  2  1  0
  2  3  1  0
  3  4  1  0
  4  5  1  0
  5  6  1  0
  6  7  1  0
  7  8  2  0
  7  9  1  0
  9 10  1  0
 10 11  2  0
 11 12  1  0
 12 13  2  0
 13 14  1  0
 14 15  2  0
  6 16  1  0
 16 17  1  0
 17 18  2  0
 17 19  1  0
 19 20  1  0
 20 21  1  0
 21 22  2  0
 21 23  1  0
 23 24  2  0
 24 25  1  0
 25 26  2  0
 26 27  1  0
 27 28  2  0
 28 29  1  0
 29 30  2  0
 30 31  1  0
 31 32  2  0
 16 33  1  0
 33  4  1  0
 15 10  1  0
 32 23  1  0
 31 26  1  0
  1 34  1  0
  1 35  1  0
  1 36  1  0
  3 37  1  0
  3 38  1  0
  4 39  1  1
  5 40  1  0
  5 41  1  0
  6 42  1  6
  9 43  1  0
 11 44  1  0
 12 45  1  0
 13 46  1  0
 14 47  1  0
 15 48  1  0
 19 49  1  0
 19 50  1  0
 20 51  1  0
 24 52  1  0
 25 53  1  0
 27 54  1  0
 28 55  1  0
 29 56  1  0
 30 57  1  0
 33 58  1  0
 33 59  1  0
M  END
>  <smiles>  (40) 
COC[C@H]1C[C@H](C(=O)Nc2ccccc2)N(C(=O)CNC(=O)c2ccc3ccccc3n2)C1

>  <score_type>  (40) 
oracle

>  <origin>  (40) 
autodockgpu

>  <m_score__min__energy>  (40) 
-9.5399999999999991

>  <m_primary>  (40) 
energy

>  <rmsd>  (40) 
2.5597675354379836

>  <m_score__min__rmsd>  (40) 
2.5597675354379836

>  <meeko>  (40) 
{"free_energy": -9.06, "intermolecular_energy": -11.45, "internal_energy": -1.79, "cluster_size": 30, "cluster_id": 1, "rank_in_cluster": 19}

>  <energy>  (40) 
-7.23

>  <cluster_rmsd>  (40) 
0.64

>  <cluster>  (40) 
4

$$$$

     RDKit          3D

 59 62  0  0  0  0  0  0  0  0999 V2000
  143.3570   74.4860  216.4970 C   0  0  0  0  0  0  0  0  0  0  0  0
  144.0200   75.5640  216.9610 O   0  0  0  0  0  0  0  0  0  0  0  0
  143.3430   76.6730  217.2300 C   0  0  0  0  0  0  0  0  0  0  0  0
  142.8690   77.0060  218.6090 C   0  0  1  0  0  0  0  0  0  0  0  0
  141.4160   76.7190  218.7760 C   0  0  0  0  0  0  0  0  0  0  0  0
  141.3590   76.1070  220.1840 C   0  0  2  0  0  0  0  0  0  0  0  0
  141.3710   77.1260  221.2440 C   0  0  0  0  0  0  0  0  0  0  0  0
  140.8170   76.9900  222.3690 O   0  0  0  0  0  0  0  0  0  0  0  0
  142.0430   78.3870  221.0520 N   0  0  0  0  0  0  0  0  0  0  0  0
  142.0250   79.3760  222.1070 C   0  0  0  0  0  0  0  0  0  0  0  0
  140.8590   80.0230  222.4210 C   0  0  0  0  0  0  0  0  0  0  0  0
  140.9440   80.9580  223.4620 C   0  0  0  0  0  0  0  0  0  0  0  0
  142.1330   81.1960  224.1150 C   0  0  0  0  0  0  0  0  0  0  0  0
  143.2920   80.5230  223.7710 C   0  0  0  0  0  0  0  0  0  0  0  0
  143.2330   79.5830  222.7330 C   0  0  0  0  0  0  0  0  0  0  0  0
  142.5010   75.2560  220.1770 N   0  0  0  0  0  0  0  0  0  0  0  0
  142.6850   73.9050  220.5760 C   0  0  0  0  0  0  0  0  0  0  0  0
  143.7100   73.5060  221.1500 O   0  0  0  0  0  0  0  0  0  0  0  0
  141.5650   72.9470  220.2700 C   0  0  0  0  0  0  0  0  0  0  0  0
  141.3460   72.0630  221.4130 N   0  0  0  0  0  0  0  0  0  0  0  0
  140.4420   72.5160  222.4410 C   0  0  0  0  0  0  0  0  0  0  0  0
  139.8530   73.6200  222.3790 O   0  0  0  0  0  0  0  0  0  0  0  0
  140.2540   71.5950  223.5810 C   0  0  0  0  0  0  0  0  0  0  0  0
  139.5700   70.3990  223.3790 C   0  0  0  0  0  0  0  0  0  0  0  0
  139.3590   69.4930  224.3950 C   0  0  0  0  0  0  0  0  0  0  0  0
  139.8520   69.8100  225.6410 C   0  0  0  0  0  0  0  0  0  0  0  0
  139.6860   68.9570  226.7250 C   0  0  0  0  0  0  0  0  0  0  0  0
  140.1900   69.3040  227.9620 C   0  0  0  0  0  0  0  0  0  0  0  0
  140.8780   70.5070  228.1730 C   0  0  0  0  0  0  0  0  0  0  0  0
  141.0020   71.3030  227.0440 C   0  0  0  0  0  0  0  0  0  0  0  0
  140.5160   70.9850  225.8150 C   0  0  0  0  0  0  0  0  0  0  0  0
  140.7320   71.8890  224.8160 N   0  0  0  0  0  0  0  0  0  0  0  0
  143.5700   76.0750  219.6200 C   0  0  0  0  0  0  0  0  0  0  0  0
  142.9896   73.8887  217.3445 H   0  0  0  0  0  0  0  0  0  0  0  0
  142.5051   74.8153  215.8839 H   0  0  0  0  0  0  0  0  0  0  0  0
  144.0352   73.8743  215.8839 H   0  0  0  0  0  0  0  0  0  0  0  0
  143.9867   77.5083  216.9173 H   0  0  0  0  0  0  0  0  0  0  0  0
  142.3954   76.4950  216.7006 H   0  0  0  0  0  0  0  0  0  0  0  0
  143.0823   78.0729  218.7709 H   0  0  0  0  0  0  0  0  0  0  0  0
  140.8193   77.6413  218.7187 H   0  0  0  0  0  0  0  0  0  0  0  0
  141.0056   76.0622  217.9949 H   0  0  0  0  0  0  0  0  0  0  0  0
  140.4280   75.5642  220.4044 H   0  0  0  0  0  0  0  0  0  0  0  0
  142.5530   78.6230  220.1760 H   0  0  0  0  0  0  0  0  0  0  0  0
  139.9167   79.8218  221.8904 H   0  0  0  0  0  0  0  0  0  0  0  0
  140.0431   81.5126  223.7633 H   0  0  0  0  0  0  0  0  0  0  0  0
  142.1619   81.9370  224.9275 H   0  0  0  0  0  0  0  0  0  0  0  0
  144.2364   80.7208  224.2991 H   0  0  0  0  0  0  0  0  0  0  0  0
  144.1298   79.0247  222.4264 H   0  0  0  0  0  0  0  0  0  0  0  0
  140.6449   73.5139  220.0648 H   0  0  0  0  0  0  0  0  0  0  0  0
  141.8320   72.3442  219.3895 H   0  0  0  0  0  0  0  0  0  0  0  0
  141.8340   71.1410  221.4680 H   0  0  0  0  0  0  0  0  0  0  0  0
  139.1852   70.1700  222.3743 H   0  0  0  0  0  0  0  0  0  0  0  0
  138.8173   68.5522  224.2177 H   0  0  0  0  0  0  0  0  0  0  0  0
  139.1521   68.0038  226.5971 H   0  0  0  0  0  0  0  0  0  0  0  0
  140.0475   68.6157  228.8081 H   0  0  0  0  0  0  0  0  0  0  0  0
  141.2858   70.7958  229.1529 H   0  0  0  0  0  0  0  0  0  0  0  0
  141.5320   72.2610  227.1509 H   0  0  0  0  0  0  0  0  0  0  0  0
  144.0607   76.6614  220.4108 H   0  0  0  0  0  0  0  0  0  0  0  0
  144.3555   75.4666  219.1479 H   0  0  0  0  0  0  0  0  0  0  0  0
  1  2  1  0
  2  3  1  0
  3  4  1  0
  4  5  1  0
  5  6  1  0
  6  7  1  0
  7  8  2  0
  7  9  1  0
  9 10  1  0
 10 11  2  0
 11 12  1  0
 12 13  2  0
 13 14  1  0
 14 15  2  0
  6 16  1  0
 16 17  1  0
 17 18  2  0
 17 19  1  0
 19 20  1  0
 20 21  1  0
 21 22  2  0
 21 23  1  0
 23 24  2  0
 24 25  1  0
 25 26  2  0
 26 27  1  0
 27 28  2  0
 28 29  1  0
 29 30  2  0
 30 31  1  0
 31 32  2  0
 16 33  1  0
 33  4  1  0
 15 10  1  0
 32 23  1  0
 31 26  1  0
  1 34  1  0
  1 35  1  0
  1 36  1  0
  3 37  1  0
  3 38  1  0
  4 39  1  1
  5 40  1  0
  5 41  1  0
  6 42  1  6
  9 43  1  0
 11 44  1  0
 12 45  1  0
 13 46  1  0
 14 47  1  0
 15 48  1  0
 19 49  1  0
 19 50  1  0
 20 51  1  0
 24 52  1  0
 25 53  1  0
 27 54  1  0
 28 55  1  0
 29 56  1  0
 30 57  1  0
 33 58  1  0
 33 59  1  0
M  END
>  <smiles>  (41) 
COC[C@H]1C[C@H](C(=O)Nc2ccccc2)N(C(=O)CNC(=O)c2ccc3ccccc3n2)C1

>  <score_type>  (41) 
oracle

>  <origin>  (41) 
autodockgpu

>  <m_score__min__energy>  (41) 
-9.5399999999999991

>  <m_primary>  (41) 
energy

>  <rmsd>  (41) 
2.827626759238078

>  <m_score__min__rmsd>  (41) 
2.827626759238078

>  <meeko>  (41) 
{"free_energy": -9.17, "intermolecular_energy": -11.56, "internal_energy": -1.8, "cluster_size": 30, "cluster_id": 1, "rank_in_cluster": 15}

>  <energy>  (41) 
-7.21

>  <cluster_rmsd>  (41) 
0.63

>  <cluster>  (41) 
4

$$$$

     RDKit          3D

 59 62  0  0  0  0  0  0  0  0999 V2000
  136.8520   72.7460  220.9840 C   0  0  0  0  0  0  0  0  0  0  0  0
  137.3770   73.6180  220.1010 O   0  0  0  0  0  0  0  0  0  0  0  0
  137.0700   74.9060  220.2030 C   0  0  0  0  0  0  0  0  0  0  0  0
  137.9870   75.8990  220.8420 C   0  0  1  0  0  0  0  0  0  0  0  0
  138.3730   75.4860  222.2200 C   0  0  0  0  0  0  0  0  0  0  0  0
  139.8640   75.8540  222.2710 C   0  0  2  0  0  0  0  0  0  0  0  0
  140.0860   77.2820  222.5410 C   0  0  0  0  0  0  0  0  0  0  0  0
  139.2220   78.0550  223.0360 O   0  0  0  0  0  0  0  0  0  0  0  0
  141.3520   77.9040  222.2430 N   0  0  0  0  0  0  0  0  0  0  0  0
  141.5360   79.3140  222.5060 C   0  0  0  0  0  0  0  0  0  0  0  0
  142.1130   79.7230  223.6800 C   0  0  0  0  0  0  0  0  0  0  0  0
  142.2530   81.1090  223.8370 C   0  0  0  0  0  0  0  0  0  0  0  0
  141.8320   81.9870  222.8620 C   0  0  0  0  0  0  0  0  0  0  0  0
  141.2540   81.5370  221.6880 C   0  0  0  0  0  0  0  0  0  0  0  0
  141.1020   80.1550  221.5070 C   0  0  0  0  0  0  0  0  0  0  0  0
  140.3130   75.4230  220.9890 N   0  0  0  0  0  0  0  0  0  0  0  0
  141.4380   74.6590  220.5800 C   0  0  0  0  0  0  0  0  0  0  0  0
  142.5250   75.1730  220.2750 O   0  0  0  0  0  0  0  0  0  0  0  0
  141.2630   73.1650  220.5290 C   0  0  0  0  0  0  0  0  0  0  0  0
  141.1110   72.6400  221.8850 N   0  0  0  0  0  0  0  0  0  0  0  0
  140.1620   71.5720  222.0820 C   0  0  0  0  0  0  0  0  0  0  0  0
  139.4850   71.0930  221.1430 O   0  0  0  0  0  0  0  0  0  0  0  0
  140.0350   71.0740  223.4670 C   0  0  0  0  0  0  0  0  0  0  0  0
  139.2860   69.9250  223.7080 C   0  0  0  0  0  0  0  0  0  0  0  0
  139.1270   69.4030  224.9730 C   0  0  0  0  0  0  0  0  0  0  0  0
  139.7400   70.0640  226.0140 C   0  0  0  0  0  0  0  0  0  0  0  0
  139.6330   69.6120  227.3240 C   0  0  0  0  0  0  0  0  0  0  0  0
  140.2570   70.2970  228.3460 C   0  0  0  0  0  0  0  0  0  0  0  0
  141.0110   71.4550  228.1110 C   0  0  0  0  0  0  0  0  0  0  0  0
  141.0700   71.8430  226.7810 C   0  0  0  0  0  0  0  0  0  0  0  0
  140.4650   71.1860  225.7560 C   0  0  0  0  0  0  0  0  0  0  0  0
  140.6310   71.7110  224.5070 N   0  0  0  0  0  0  0  0  0  0  0  0
  139.3150   75.9330  220.0570 C   0  0  0  0  0  0  0  0  0  0  0  0
  137.0597   73.0909  222.0077 H   0  0  0  0  0  0  0  0  0  0  0  0
  135.7644   72.6809  220.8326 H   0  0  0  0  0  0  0  0  0  0  0  0
  137.3033   71.7543  220.8326 H   0  0  0  0  0  0  0  0  0  0  0  0
  136.9002   75.2625  219.1763 H   0  0  0  0  0  0  0  0  0  0  0  0
  136.2297   74.8836  220.9125 H   0  0  0  0  0  0  0  0  0  0  0  0
  137.4563   76.8624  220.8535 H   0  0  0  0  0  0  0  0  0  0  0  0
  137.8001   76.0418  222.9769 H   0  0  0  0  0  0  0  0  0  0  0  0
  138.1754   74.4248  222.4317 H   0  0  0  0  0  0  0  0  0  0  0  0
  140.4187   75.3816  223.0951 H   0  0  0  0  0  0  0  0  0  0  0  0
  142.1570   77.3760  221.8460 H   0  0  0  0  0  0  0  0  0  0  0  0
  142.4447   79.0100  224.4491 H   0  0  0  0  0  0  0  0  0  0  0  0
  142.7082   81.5037  224.7573 H   0  0  0  0  0  0  0  0  0  0  0  0
  141.9580   83.0682  223.0202 H   0  0  0  0  0  0  0  0  0  0  0  0
  140.9219   82.2463  220.9156 H   0  0  0  0  0  0  0  0  0  0  0  0
  140.6473   79.7531  220.5895 H   0  0  0  0  0  0  0  0  0  0  0  0
  140.3663   72.9218  219.9401 H   0  0  0  0  0  0  0  0  0  0  0  0
  142.1478   72.7104  220.0595 H   0  0  0  0  0  0  0  0  0  0  0  0
  141.6740   73.0350  222.6700 H   0  0  0  0  0  0  0  0  0  0  0  0
  138.8049   69.4168  222.8593 H   0  0  0  0  0  0  0  0  0  0  0  0
  138.5332   68.4931  225.1449 H   0  0  0  0  0  0  0  0  0  0  0  0
  139.0496   68.7063  227.5463 H   0  0  0  0  0  0  0  0  0  0  0  0
  140.1600   69.9233  229.3760 H   0  0  0  0  0  0  0  0  0  0  0  0
  141.5147   72.0105  228.9158 H   0  0  0  0  0  0  0  0  0  0  0  0
  141.6476   72.7470  226.5379 H   0  0  0  0  0  0  0  0  0  0  0  0
  139.5589   76.9616  219.7530 H   0  0  0  0  0  0  0  0  0  0  0  0
  139.2665   75.3366  219.1340 H   0  0  0  0  0  0  0  0  0  0  0  0
  1  2  1  0
  2  3  1  0
  3  4  1  0
  4  5  1  0
  5  6  1  0
  6  7  1  0
  7  8  2  0
  7  9  1  0
  9 10  1  0
 10 11  2  0
 11 12  1  0
 12 13  2  0
 13 14  1  0
 14 15  2  0
  6 16  1  0
 16 17  1  0
 17 18  2  0
 17 19  1  0
 19 20  1  0
 20 21  1  0
 21 22  2  0
 21 23  1  0
 23 24  2  0
 24 25  1  0
 25 26  2  0
 26 27  1  0
 27 28  2  0
 28 29  1  0
 29 30  2  0
 30 31  1  0
 31 32  2  0
 16 33  1  0
 33  4  1  0
 15 10  1  0
 32 23  1  0
 31 26  1  0
  1 34  1  0
  1 35  1  0
  1 36  1  0
  3 37  1  0
  3 38  1  0
  4 39  1  1
  5 40  1  0
  5 41  1  0
  6 42  1  1
  9 43  1  0
 11 44  1  0
 12 45  1  0
 13 46  1  0
 14 47  1  0
 15 48  1  0
 19 49  1  0
 19 50  1  0
 20 51  1  0
 24 52  1  0
 25 53  1  0
 27 54  1  0
 28 55  1  0
 29 56  1  0
 30 57  1  0
 33 58  1  0
 33 59  1  0
M  END
>  <smiles>  (42) 
COC[C@H]1C[C@H](C(=O)Nc2ccccc2)N(C(=O)CNC(=O)c2ccc3ccccc3n2)C1

>  <score_type>  (42) 
oracle

>  <origin>  (42) 
autodockgpu

>  <m_score__min__energy>  (42) 
-9.5399999999999991

>  <m_primary>  (42) 
energy

>  <rmsd>  (42) 
2.9251821210090188

>  <m_score__min__rmsd>  (42) 
2.9251821210090188

>  <meeko>  (42) 
{"free_energy": -7.99, "intermolecular_energy": -10.37, "internal_energy": -2.67, "cluster_size": 30, "cluster_id": 1, "rank_in_cluster": 29}

>  <energy>  (42) 
-7.2

>  <cluster_rmsd>  (42) 
1.14

>  <cluster>  (42) 
4

$$$$

     RDKit          3D

 59 62  0  0  0  0  0  0  0  0999 V2000
  145.5090   71.4250  219.2510 C   0  0  0  0  0  0  0  0  0  0  0  0
  145.9580   72.6900  219.3770 O   0  0  0  0  0  0  0  0  0  0  0  0
  145.3900   73.4910  220.2700 C   0  0  0  0  0  0  0  0  0  0  0  0
  144.3340   74.4820  219.8980 C   0  0  1  0  0  0  0  0  0  0  0  0
  144.0780   74.4890  218.4300 C   0  0  0  0  0  0  0  0  0  0  0  0
  142.5480   74.6130  218.3610 C   0  0  2  0  0  0  0  0  0  0  0  0
  142.0830   75.9960  218.5390 C   0  0  0  0  0  0  0  0  0  0  0  0
  140.8710   76.3400  218.5870 O   0  0  0  0  0  0  0  0  0  0  0  0
  143.0230   77.0810  218.6750 N   0  0  0  0  0  0  0  0  0  0  0  0
  142.5370   78.4340  218.8350 C   0  0  0  0  0  0  0  0  0  0  0  0
  142.7940   79.3730  217.8700 C   0  0  0  0  0  0  0  0  0  0  0  0
  142.2750   80.6520  218.1140 C   0  0  0  0  0  0  0  0  0  0  0  0
  141.5550   80.9270  219.2560 C   0  0  0  0  0  0  0  0  0  0  0  0
  141.3140   79.9520  220.2090 C   0  0  0  0  0  0  0  0  0  0  0  0
  141.8230   78.6650  219.9880 C   0  0  0  0  0  0  0  0  0  0  0  0
  142.1380   73.7200  219.3920 N   0  0  0  0  0  0  0  0  0  0  0  0
  141.1540   72.6960  219.4320 C   0  0  0  0  0  0  0  0  0  0  0  0
  141.3700   71.5390  219.0410 O   0  0  0  0  0  0  0  0  0  0  0  0
  139.8030   73.0730  219.9800 C   0  0  0  0  0  0  0  0  0  0  0  0
  139.8240   74.4640  220.4290 N   0  0  0  0  0  0  0  0  0  0  0  0
  139.8870   74.7020  221.8500 C   0  0  0  0  0  0  0  0  0  0  0  0
  139.9250   73.7700  222.6870 O   0  0  0  0  0  0  0  0  0  0  0  0
  139.9010   76.1210  222.2630 C   0  0  0  0  0  0  0  0  0  0  0  0
  138.7050   76.8340  222.2760 C   0  0  0  0  0  0  0  0  0  0  0  0
  138.6440   78.1580  222.6510 C   0  0  0  0  0  0  0  0  0  0  0  0
  139.8210   78.7690  223.0190 C   0  0  0  0  0  0  0  0  0  0  0  0
  139.8560   80.1020  223.4100 C   0  0  0  0  0  0  0  0  0  0  0  0
  141.0530   80.6870  223.7720 C   0  0  0  0  0  0  0  0  0  0  0  0
  142.2610   79.9750  223.7590 C   0  0  0  0  0  0  0  0  0  0  0  0
  142.1440   78.6530  223.3560 C   0  0  0  0  0  0  0  0  0  0  0  0
  140.9780   78.0530  222.9970 C   0  0  0  0  0  0  0  0  0  0  0  0
  141.0510   76.7410  222.6280 N   0  0  0  0  0  0  0  0  0  0  0  0
  142.9940   74.0460  220.5260 C   0  0  0  0  0  0  0  0  0  0  0  0
  145.3545   70.9896  220.2493 H   0  0  0  0  0  0  0  0  0  0  0  0
  144.5567   71.4271  218.7005 H   0  0  0  0  0  0  0  0  0  0  0  0
  146.2495   70.8262  218.7005 H   0  0  0  0  0  0  0  0  0  0  0  0
  144.9397   72.8337  221.0284 H   0  0  0  0  0  0  0  0  0  0  0  0
  146.2272   74.1462  220.5526 H   0  0  0  0  0  0  0  0  0  0  0  0
  144.6836   75.4664  220.2425 H   0  0  0  0  0  0  0  0  0  0  0  0
  144.5687   75.3456  217.9448 H   0  0  0  0  0  0  0  0  0  0  0  0
  144.4703   73.6016  217.9118 H   0  0  0  0  0  0  0  0  0  0  0  0
  142.1173   74.3564  217.3819 H   0  0  0  0  0  0  0  0  0  0  0  0
  144.0540   76.9350  218.6690 H   0  0  0  0  0  0  0  0  0  0  0  0
  143.3702   79.1380  216.9629 H   0  0  0  0  0  0  0  0  0  0  0  0
  142.4460   81.4523  217.3789 H   0  0  0  0  0  0  0  0  0  0  0  0
  141.1633   81.9427  219.4140 H   0  0  0  0  0  0  0  0  0  0  0  0
  140.7373   80.1818  221.1171 H   0  0  0  0  0  0  0  0  0  0  0  0
  141.6557   77.8596  220.7183 H   0  0  0  0  0  0  0  0  0  0  0  0
  139.0432   72.9541  219.1935 H   0  0  0  0  0  0  0  0  0  0  0  0
  139.5596   72.4193  220.8306 H   0  0  0  0  0  0  0  0  0  0  0  0
  139.7940   75.2430  219.7360 H   0  0  0  0  0  0  0  0  0  0  0  0
  137.7780   76.3229  221.9768 H   0  0  0  0  0  0  0  0  0  0  0  0
  137.6904   78.7063  222.6561 H   0  0  0  0  0  0  0  0  0  0  0  0
  138.9281   80.6923  223.4311 H   0  0  0  0  0  0  0  0  0  0  0  0
  141.0593   81.7430  224.0798 H   0  0  0  0  0  0  0  0  0  0  0  0
  143.2220   80.4275  224.0448 H   0  0  0  0  0  0  0  0  0  0  0  0
  143.0609   78.0461  223.3246 H   0  0  0  0  0  0  0  0  0  0  0  0
  142.5586   74.8653  221.1169 H   0  0  0  0  0  0  0  0  0  0  0  0
  143.1153   73.1948  221.2121 H   0  0  0  0  0  0  0  0  0  0  0  0
  1  2  1  0
  2  3  1  0
  3  4  1  0
  4  5  1  0
  5  6  1  0
  6  7  1  0
  7  8  2  0
  7  9  1  0
  9 10  1  0
 10 11  2  0
 11 12  1  0
 12 13  2  0
 13 14  1  0
 14 15  2  0
  6 16  1  0
 16 17  1  0
 17 18  2  0
 17 19  1  0
 19 20  1  0
 20 21  1  0
 21 22  2  0
 21 23  1  0
 23 24  2  0
 24 25  1  0
 25 26  2  0
 26 27  1  0
 27 28  2  0
 28 29  1  0
 29 30  2  0
 30 31  1  0
 31 32  2  0
 16 33  1  0
 33  4  1  0
 15 10  1  0
 32 23  1  0
 31 26  1  0
  1 34  1  0
  1 35  1  0
  1 36  1  0
  3 37  1  0
  3 38  1  0
  4 39  1  1
  5 40  1  0
  5 41  1  0
  6 42  1  6
  9 43  1  0
 11 44  1  0
 12 45  1  0
 13 46  1  0
 14 47  1  0
 15 48  1  0
 19 49  1  0
 19 50  1  0
 20 51  1  0
 24 52  1  0
 25 53  1  0
 27 54  1  0
 28 55  1  0
 29 56  1  0
 30 57  1  0
 33 58  1  0
 33 59  1  0
M  END
>  <smiles>  (43) 
COC[C@H]1C[C@H](C(=O)Nc2ccccc2)N(C(=O)CNC(=O)c2ccc3ccccc3n2)C1

>  <score_type>  (43) 
oracle

>  <origin>  (43) 
autodockgpu

>  <m_score__min__energy>  (43) 
-9.5399999999999991

>  <m_primary>  (43) 
energy

>  <rmsd>  (43) 
6.1904012299526485

>  <m_score__min__rmsd>  (43) 
6.1904012299526485

>  <meeko>  (43) 
{"free_energy": -7.2, "intermolecular_energy": -9.58, "internal_energy": -3.86, "cluster_size": 12, "cluster_id": 4, "rank_in_cluster": 4}

>  <energy>  (43) 
-7.18

>  <cluster_rmsd>  (43) 
0.32

>  <cluster>  (43) 
4

$$$$

     RDKit          3D

 59 62  0  0  0  0  0  0  0  0999 V2000
  145.3060   71.3640  219.0140 C   0  0  0  0  0  0  0  0  0  0  0  0
  145.8280   72.6060  219.0450 O   0  0  0  0  0  0  0  0  0  0  0  0
  145.5800   73.3850  220.0900 C   0  0  0  0  0  0  0  0  0  0  0  0
  144.3090   74.1610  220.2280 C   0  0  1  0  0  0  0  0  0  0  0  0
  143.7480   74.5380  218.9000 C   0  0  0  0  0  0  0  0  0  0  0  0
  142.2420   74.3100  219.0990 C   0  0  2  0  0  0  0  0  0  0  0  0
  141.5880   75.4280  219.7940 C   0  0  0  0  0  0  0  0  0  0  0  0
  141.4430   76.5830  219.3060 O   0  0  0  0  0  0  0  0  0  0  0  0
  141.0520   75.2640  221.1220 N   0  0  0  0  0  0  0  0  0  0  0  0
  140.4270   76.3860  221.7860 C   0  0  0  0  0  0  0  0  0  0  0  0
  139.0810   76.3660  222.0440 C   0  0  0  0  0  0  0  0  0  0  0  0
  138.5710   77.4980  222.6970 C   0  0  0  0  0  0  0  0  0  0  0  0
  139.3870   78.5510  223.0470 C   0  0  0  0  0  0  0  0  0  0  0  0
  140.7440   78.5360  222.7700 C   0  0  0  0  0  0  0  0  0  0  0  0
  141.2770   77.4160  222.1180 C   0  0  0  0  0  0  0  0  0  0  0  0
  142.2280   73.0830  219.8230 N   0  0  0  0  0  0  0  0  0  0  0  0
  141.4740   71.8900  219.6620 C   0  0  0  0  0  0  0  0  0  0  0  0
  141.9080   70.8950  219.0630 O   0  0  0  0  0  0  0  0  0  0  0  0
  140.0930   71.8730  220.2610 C   0  0  0  0  0  0  0  0  0  0  0  0
  140.1230   71.1840  221.5500 N   0  0  0  0  0  0  0  0  0  0  0  0
  140.2490   71.9960  222.7350 C   0  0  0  0  0  0  0  0  0  0  0  0
  140.3290   73.2460  222.6890 O   0  0  0  0  0  0  0  0  0  0  0  0
  140.2810   71.2610  224.0160 C   0  0  0  0  0  0  0  0  0  0  0  0
  140.7480   71.9080  225.1570 C   0  0  0  0  0  0  0  0  0  0  0  0
  140.8030   71.2850  226.3840 C   0  0  0  0  0  0  0  0  0  0  0  0
  140.3770   69.9780  226.4530 C   0  0  0  0  0  0  0  0  0  0  0  0
  140.3980   69.2690  227.6480 C   0  0  0  0  0  0  0  0  0  0  0  0
  139.9660   67.9590  227.6840 C   0  0  0  0  0  0  0  0  0  0  0  0
  139.4970   67.3000  226.5390 C   0  0  0  0  0  0  0  0  0  0  0  0
  139.5070   68.0730  225.3870 C   0  0  0  0  0  0  0  0  0  0  0  0
  139.9260   69.3650  225.3250 C   0  0  0  0  0  0  0  0  0  0  0  0
  139.8660   69.9720  224.1040 N   0  0  0  0  0  0  0  0  0  0  0  0
  143.2340   73.2550  220.8630 C   0  0  0  0  0  0  0  0  0  0  0  0
  145.1547   71.0041  220.0424 H   0  0  0  0  0  0  0  0  0  0  0  0
  144.3406   71.3851  218.4872 H   0  0  0  0  0  0  0  0  0  0  0  0
  145.9966   70.6891  218.4872 H   0  0  0  0  0  0  0  0  0  0  0  0
  145.6399   72.7361  220.9762 H   0  0  0  0  0  0  0  0  0  0  0  0
  146.3211   74.1867  219.9556 H   0  0  0  0  0  0  0  0  0  0  0  0
  144.5429   75.0539  220.8264 H   0  0  0  0  0  0  0  0  0  0  0  0
  143.9628   75.5902  218.6618 H   0  0  0  0  0  0  0  0  0  0  0  0
  144.1724   73.9615  218.0648 H   0  0  0  0  0  0  0  0  0  0  0  0
  141.6648   74.2575  218.1641 H   0  0  0  0  0  0  0  0  0  0  0  0
  141.0910   74.3580  221.6340 H   0  0  0  0  0  0  0  0  0  0  0  0
  138.4422   75.5175  221.7577 H   0  0  0  0  0  0  0  0  0  0  0  0
  137.4980   77.5456  222.9343 H   0  0  0  0  0  0  0  0  0  0  0  0
  138.9516   79.4227  223.5575 H   0  0  0  0  0  0  0  0  0  0  0  0
  141.3870   79.3819  223.0546 H   0  0  0  0  0  0  0  0  0  0  0  0
  142.3490   77.3615  221.8774 H   0  0  0  0  0  0  0  0  0  0  0  0
  139.7450   72.9063  220.4068 H   0  0  0  0  0  0  0  0  0  0  0  0
  139.4079   71.3447  219.5816 H   0  0  0  0  0  0  0  0  0  0  0  0
  140.0540   70.1440  221.5940 H   0  0  0  0  0  0  0  0  0  0  0  0
  141.0844   72.9521  225.0756 H   0  0  0  0  0  0  0  0  0  0  0  0
  141.1735   71.8122  227.2755 H   0  0  0  0  0  0  0  0  0  0  0  0
  140.7597   69.7531  228.5671 H   0  0  0  0  0  0  0  0  0  0  0  0
  139.9904   67.4154  228.6400 H   0  0  0  0  0  0  0  0  0  0  0  0
  139.1498   66.2563  226.5528 H   0  0  0  0  0  0  0  0  0  0  0  0
  139.1502   67.6070  224.4566 H   0  0  0  0  0  0  0  0  0  0  0  0
  142.7959   73.7369  221.7495 H   0  0  0  0  0  0  0  0  0  0  0  0
  143.6489   72.2941  221.2013 H   0  0  0  0  0  0  0  0  0  0  0  0
  1  2  1  0
  2  3  1  0
  3  4  1  0
  4  5  1  0
  5  6  1  0
  6  7  1  0
  7  8  2  0
  7  9  1  0
  9 10  1  0
 10 11  2  0
 11 12  1  0
 12 13  2  0
 13 14  1  0
 14 15  2  0
  6 16  1  0
 16 17  1  0
 17 18  2  0
 17 19  1  0
 19 20  1  0
 20 21  1  0
 21 22  2  0
 21 23  1  0
 23 24  2  0
 24 25  1  0
 25 26  2  0
 26 27  1  0
 27 28  2  0
 28 29  1  0
 29 30  2  0
 30 31  1  0
 31 32  2  0
 16 33  1  0
 33  4  1  0
 15 10  1  0
 32 23  1  0
 31 26  1  0
  1 34  1  0
  1 35  1  0
  1 36  1  0
  3 37  1  0
  3 38  1  0
  4 39  1  1
  5 40  1  0
  5 41  1  0
  6 42  1  6
  9 43  1  0
 11 44  1  0
 12 45  1  0
 13 46  1  0
 14 47  1  0
 15 48  1  0
 19 49  1  0
 19 50  1  0
 20 51  1  0
 24 52  1  0
 25 53  1  0
 27 54  1  0
 28 55  1  0
 29 56  1  0
 30 57  1  0
 33 58  1  0
 33 59  1  0
M  END
>  <smiles>  (44) 
COC[C@H]1C[C@H](C(=O)Nc2ccccc2)N(C(=O)CNC(=O)c2ccc3ccccc3n2)C1

>  <score_type>  (44) 
oracle

>  <origin>  (44) 
autodockgpu

>  <m_score__min__energy>  (44) 
-9.5399999999999991

>  <m_primary>  (44) 
energy

>  <rmsd>  (44) 
4.077504310947691

>  <m_score__min__rmsd>  (44) 
4.077504310947691

>  <meeko>  (44) 
{"free_energy": -8.25, "intermolecular_energy": -10.63, "internal_energy": -3.18, "cluster_size": 30, "cluster_id": 1, "rank_in_cluster": 26}

>  <energy>  (44) 
-7.12

>  <cluster_rmsd>  (44) 
0.62

>  <cluster>  (44) 
4

$$$$

     RDKit          3D

 59 62  0  0  0  0  0  0  0  0999 V2000
  146.1120   73.7170  221.3140 C   0  0  0  0  0  0  0  0  0  0  0  0
  145.6240   73.2230  220.1590 O   0  0  0  0  0  0  0  0  0  0  0  0
  144.7090   73.9180  219.4950 C   0  0  0  0  0  0  0  0  0  0  0  0
  143.7680   74.8590  220.1760 C   0  0  1  0  0  0  0  0  0  0  0  0
  143.0440   75.7190  219.1970 C   0  0  0  0  0  0  0  0  0  0  0  0
  141.6210   75.7530  219.7750 C   0  0  2  0  0  0  0  0  0  0  0  0
  141.4780   76.7240  220.8700 C   0  0  0  0  0  0  0  0  0  0  0  0
  140.8670   76.4950  221.9490 O   0  0  0  0  0  0  0  0  0  0  0  0
  142.0500   78.0440  220.7690 N   0  0  0  0  0  0  0  0  0  0  0  0
  141.8800   78.9820  221.8550 C   0  0  0  0  0  0  0  0  0  0  0  0
  142.9710   79.4180  222.5620 C   0  0  0  0  0  0  0  0  0  0  0  0
  142.7030   80.3310  223.5910 C   0  0  0  0  0  0  0  0  0  0  0  0
  141.4190   80.7520  223.8590 C   0  0  0  0  0  0  0  0  0  0  0  0
  140.3410   80.2910  223.1230 C   0  0  0  0  0  0  0  0  0  0  0  0
  140.5830   79.3770  222.0890 C   0  0  0  0  0  0  0  0  0  0  0  0
  141.4350   74.3960  220.1680 N   0  0  0  0  0  0  0  0  0  0  0  0
  140.3650   73.4840  219.9670 C   0  0  0  0  0  0  0  0  0  0  0  0
  140.4060   72.5720  219.1270 O   0  0  0  0  0  0  0  0  0  0  0  0
  139.1460   73.6650  220.8330 C   0  0  0  0  0  0  0  0  0  0  0  0
  139.3860   73.0800  222.1510 N   0  0  0  0  0  0  0  0  0  0  0  0
  139.5870   71.6540  222.2180 C   0  0  0  0  0  0  0  0  0  0  0  0
  139.5640   70.9230  221.2010 O   0  0  0  0  0  0  0  0  0  0  0  0
  139.8220   71.1030  223.5690 C   0  0  0  0  0  0  0  0  0  0  0  0
  139.4730   69.7800  223.8300 C   0  0  0  0  0  0  0  0  0  0  0  0
  139.6650   69.2000  225.0640 C   0  0  0  0  0  0  0  0  0  0  0  0
  140.2220   69.9800  226.0530 C   0  0  0  0  0  0  0  0  0  0  0  0
  140.4510   69.4800  227.3290 C   0  0  0  0  0  0  0  0  0  0  0  0
  141.0090   70.2880  228.3000 C   0  0  0  0  0  0  0  0  0  0  0  0
  141.3610   71.6200  228.0440 C   0  0  0  0  0  0  0  0  0  0  0  0
  141.1010   72.0450  226.7490 C   0  0  0  0  0  0  0  0  0  0  0  0
  140.5540   71.2700  225.7760 C   0  0  0  0  0  0  0  0  0  0  0  0
  140.3690   71.8550  224.5560 N   0  0  0  0  0  0  0  0  0  0  0  0
  142.6600   74.0440  220.8740 C   0  0  0  0  0  0  0  0  0  0  0  0
  145.6201   73.2191  222.1626 H   0  0  0  0  0  0  0  0  0  0  0  0
  147.1960   73.5364  221.3611 H   0  0  0  0  0  0  0  0  0  0  0  0
  145.9181   74.7988  221.3611 H   0  0  0  0  0  0  0  0  0  0  0  0
  145.2582   74.5174  218.7540 H   0  0  0  0  0  0  0  0  0  0  0  0
  144.0279   73.1256  219.1513 H   0  0  0  0  0  0  0  0  0  0  0  0
  144.3698   75.4675  220.8670 H   0  0  0  0  0  0  0  0  0  0  0  0
  143.4804   76.7279  219.1549 H   0  0  0  0  0  0  0  0  0  0  0  0
  143.0895   75.3428  218.1643 H   0  0  0  0  0  0  0  0  0  0  0  0
  140.8533   76.0982  219.0669 H   0  0  0  0  0  0  0  0  0  0  0  0
  142.5930   78.3570  219.9380 H   0  0  0  0  0  0  0  0  0  0  0  0
  143.9909   79.0734  222.3361 H   0  0  0  0  0  0  0  0  0  0  0  0
  143.5349   80.7193  224.1970 H   0  0  0  0  0  0  0  0  0  0  0  0
  141.2467   81.4694  224.6748 H   0  0  0  0  0  0  0  0  0  0  0  0
  139.3195   80.6338  223.3445 H   0  0  0  0  0  0  0  0  0  0  0  0
  139.7560   78.9847  221.4790 H   0  0  0  0  0  0  0  0  0  0  0  0
  138.9318   74.7383  220.9430 H   0  0  0  0  0  0  0  0  0  0  0  0
  138.2876   73.1630  220.3627 H   0  0  0  0  0  0  0  0  0  0  0  0
  139.4080   73.6860  223.0010 H   0  0  0  0  0  0  0  0  0  0  0  0
  139.0291   69.1783  223.0232 H   0  0  0  0  0  0  0  0  0  0  0  0
  139.3841   68.1533  225.2527 H   0  0  0  0  0  0  0  0  0  0  0  0
  140.1874   68.4387  227.5661 H   0  0  0  0  0  0  0  0  0  0  0  0
  141.1823   69.8737  229.3042 H   0  0  0  0  0  0  0  0  0  0  0  0
  141.8068   72.2749  228.8071 H   0  0  0  0  0  0  0  0  0  0  0  0
  141.3559   73.0836  226.4915 H   0  0  0  0  0  0  0  0  0  0  0  0
  142.5874   74.3199  221.9363 H   0  0  0  0  0  0  0  0  0  0  0  0
  142.8595   72.9627  220.8436 H   0  0  0  0  0  0  0  0  0  0  0  0
  1  2  1  0
  2  3  1  0
  3  4  1  0
  4  5  1  0
  5  6  1  0
  6  7  1  0
  7  8  2  0
  7  9  1  0
  9 10  1  0
 10 11  2  0
 11 12  1  0
 12 13  2  0
 13 14  1  0
 14 15  2  0
  6 16  1  0
 16 17  1  0
 17 18  2  0
 17 19  1  0
 19 20  1  0
 20 21  1  0
 21 22  2  0
 21 23  1  0
 23 24  2  0
 24 25  1  0
 25 26  2  0
 26 27  1  0
 27 28  2  0
 28 29  1  0
 29 30  2  0
 30 31  1  0
 31 32  2  0
 16 33  1  0
 33  4  1  0
 15 10  1  0
 32 23  1  0
 31 26  1  0
  1 34  1  0
  1 35  1  0
  1 36  1  0
  3 37  1  0
  3 38  1  0
  4 39  1  1
  5 40  1  0
  5 41  1  0
  6 42  1  6
  9 43  1  0
 11 44  1  0
 12 45  1  0
 13 46  1  0
 14 47  1  0
 15 48  1  0
 19 49  1  0
 19 50  1  0
 20 51  1  0
 24 52  1  0
 25 53  1  0
 27 54  1  0
 28 55  1  0
 29 56  1  0
 30 57  1  0
 33 58  1  0
 33 59  1  0
M  END
>  <smiles>  (45) 
COC[C@H]1C[C@H](C(=O)Nc2ccccc2)N(C(=O)CNC(=O)c2ccc3ccccc3n2)C1

>  <score_type>  (45) 
oracle

>  <origin>  (45) 
autodockgpu

>  <m_score__min__energy>  (45) 
-9.5399999999999991

>  <m_primary>  (45) 
energy

>  <rmsd>  (45) 
2.840194700505209

>  <m_score__min__rmsd>  (45) 
2.840194700505209

>  <meeko>  (45) 
{"free_energy": -9.46, "intermolecular_energy": -11.85, "internal_energy": -1.97, "cluster_size": 30, "cluster_id": 1, "rank_in_cluster": 4}

>  <energy>  (45) 
-7.08

>  <cluster_rmsd>  (45) 
0.67

>  <cluster>  (45) 
4

$$$$

     RDKit          3D

 59 62  0  0  0  0  0  0  0  0999 V2000
  145.7760   73.3420  221.1960 C   0  0  0  0  0  0  0  0  0  0  0  0
  145.6750   73.8380  219.9470 O   0  0  0  0  0  0  0  0  0  0  0  0
  144.4710   74.0600  219.4350 C   0  0  0  0  0  0  0  0  0  0  0  0
  143.5090   75.0290  220.0450 C   0  0  1  0  0  0  0  0  0  0  0  0
  142.6980   75.7260  219.0070 C   0  0  0  0  0  0  0  0  0  0  0  0
  141.3000   75.7590  219.6450 C   0  0  2  0  0  0  0  0  0  0  0  0
  141.1490   76.8460  220.6230 C   0  0  0  0  0  0  0  0  0  0  0  0
  140.1730   76.9640  221.4120 O   0  0  0  0  0  0  0  0  0  0  0  0
  142.1470   77.8810  220.7400 N   0  0  0  0  0  0  0  0  0  0  0  0
  141.9650   78.9460  221.7000 C   0  0  0  0  0  0  0  0  0  0  0  0
  141.8310   78.6530  223.0320 C   0  0  0  0  0  0  0  0  0  0  0  0
  141.6650   79.7550  223.8830 C   0  0  0  0  0  0  0  0  0  0  0  0
  141.6410   81.0420  223.3920 C   0  0  0  0  0  0  0  0  0  0  0  0
  141.7790   81.3000  222.0390 C   0  0  0  0  0  0  0  0  0  0  0  0
  141.9470   80.2150  221.1670 C   0  0  0  0  0  0  0  0  0  0  0  0
  141.2070   74.4520  220.2050 N   0  0  0  0  0  0  0  0  0  0  0  0
  140.1820   73.4690  220.1660 C   0  0  0  0  0  0  0  0  0  0  0  0
  140.1920   72.5170  219.3710 O   0  0  0  0  0  0  0  0  0  0  0  0
  139.0520   73.6270  221.1480 C   0  0  0  0  0  0  0  0  0  0  0  0
  139.3810   72.9340  222.3930 N   0  0  0  0  0  0  0  0  0  0  0  0
  139.1420   71.5130  222.4460 C   0  0  0  0  0  0  0  0  0  0  0  0
  138.6740   70.8730  221.4760 O   0  0  0  0  0  0  0  0  0  0  0  0
  139.4840   70.8520  223.7220 C   0  0  0  0  0  0  0  0  0  0  0  0
  139.2840   69.4800  223.8490 C   0  0  0  0  0  0  0  0  0  0  0  0
  139.5830   68.7980  225.0080 C   0  0  0  0  0  0  0  0  0  0  0  0
  140.0920   69.5260  226.0600 C   0  0  0  0  0  0  0  0  0  0  0  0
  140.4200   68.9240  227.2680 C   0  0  0  0  0  0  0  0  0  0  0  0
  140.9270   69.6810  228.3050 C   0  0  0  0  0  0  0  0  0  0  0  0
  141.1280   71.0630  228.1850 C   0  0  0  0  0  0  0  0  0  0  0  0
  140.7770   71.5900  226.9510 C   0  0  0  0  0  0  0  0  0  0  0  0
  140.2770   70.8660  225.9140 C   0  0  0  0  0  0  0  0  0  0  0  0
  139.9870   71.5520  224.7700 N   0  0  0  0  0  0  0  0  0  0  0  0
  142.4780   74.2490  220.8870 C   0  0  0  0  0  0  0  0  0  0  0  0
  145.6117   74.1489  221.9253 H   0  0  0  0  0  0  0  0  0  0  0  0
  145.0193   72.5569  221.3411 H   0  0  0  0  0  0  0  0  0  0  0  0
  146.7795   72.9153  221.3411 H   0  0  0  0  0  0  0  0  0  0  0  0
  144.6354   74.4007  218.4021 H   0  0  0  0  0  0  0  0  0  0  0  0
  143.9677   73.0980  219.6119 H   0  0  0  0  0  0  0  0  0  0  0  0
  144.1042   75.7462  220.6292 H   0  0  0  0  0  0  0  0  0  0  0  0
  143.0756   76.7428  218.8238 H   0  0  0  0  0  0  0  0  0  0  0  0
  142.7209   75.2295  218.0257 H   0  0  0  0  0  0  0  0  0  0  0  0
  140.4857   75.9778  218.9386 H   0  0  0  0  0  0  0  0  0  0  0  0
  143.0110   77.8950  220.1590 H   0  0  0  0  0  0  0  0  0  0  0  0
  141.8523   77.6199  223.4092 H   0  0  0  0  0  0  0  0  0  0  0  0
  141.5516   79.5886  224.9644 H   0  0  0  0  0  0  0  0  0  0  0  0
  141.5094   81.8822  224.0897 H   0  0  0  0  0  0  0  0  0  0  0  0
  141.7574   82.3314  221.6572 H   0  0  0  0  0  0  0  0  0  0  0  0
  142.0615   80.3738  220.0846 H   0  0  0  0  0  0  0  0  0  0  0  0
  138.8941   74.6957  221.3550 H   0  0  0  0  0  0  0  0  0  0  0  0
  138.1351   73.1942  220.7213 H   0  0  0  0  0  0  0  0  0  0  0  0
  139.7740   73.4620  223.2030 H   0  0  0  0  0  0  0  0  0  0  0  0
  138.8733   68.9216  222.9949 H   0  0  0  0  0  0  0  0  0  0  0  0
  139.4212   67.7130  225.0899 H   0  0  0  0  0  0  0  0  0  0  0  0
  140.2754   67.8414  227.3986 H   0  0  0  0  0  0  0  0  0  0  0  0
  141.1808   69.1851  229.2535 H   0  0  0  0  0  0  0  0  0  0  0  0
  141.5310   71.6790  229.0024 H   0  0  0  0  0  0  0  0  0  0  0  0
  140.9128   72.6711  226.8003 H   0  0  0  0  0  0  0  0  0  0  0  0
  142.4351   74.6463  221.9118 H   0  0  0  0  0  0  0  0  0  0  0  0
  142.7357   73.1832  220.9742 H   0  0  0  0  0  0  0  0  0  0  0  0
  1  2  1  0
  2  3  1  0
  3  4  1  0
  4  5  1  0
  5  6  1  0
  6  7  1  0
  7  8  2  0
  7  9  1  0
  9 10  1  0
 10 11  2  0
 11 12  1  0
 12 13  2  0
 13 14  1  0
 14 15  2  0
  6 16  1  0
 16 17  1  0
 17 18  2  0
 17 19  1  0
 19 20  1  0
 20 21  1  0
 21 22  2  0
 21 23  1  0
 23 24  2  0
 24 25  1  0
 25 26  2  0
 26 27  1  0
 27 28  2  0
 28 29  1  0
 29 30  2  0
 30 31  1  0
 31 32  2  0
 16 33  1  0
 33  4  1  0
 15 10  1  0
 32 23  1  0
 31 26  1  0
  1 34  1  0
  1 35  1  0
  1 36  1  0
  3 37  1  0
  3 38  1  0
  4 39  1  1
  5 40  1  0
  5 41  1  0
  6 42  1  6
  9 43  1  0
 11 44  1  0
 12 45  1  0
 13 46  1  0
 14 47  1  0
 15 48  1  0
 19 49  1  0
 19 50  1  0
 20 51  1  0
 24 52  1  0
 25 53  1  0
 27 54  1  0
 28 55  1  0
 29 56  1  0
 30 57  1  0
 33 58  1  0
 33 59  1  0
M  END
>  <smiles>  (46) 
COC[C@H]1C[C@H](C(=O)Nc2ccccc2)N(C(=O)CNC(=O)c2ccc3ccccc3n2)C1

>  <score_type>  (46) 
oracle

>  <origin>  (46) 
autodockgpu

>  <m_score__min__energy>  (46) 
-9.5399999999999991

>  <m_primary>  (46) 
energy

>  <rmsd>  (46) 
2.6665680802227327

>  <m_score__min__rmsd>  (46) 
2.6665680802227327

>  <meeko>  (46) 
{"free_energy": -9.34, "intermolecular_energy": -11.72, "internal_energy": -1.97, "cluster_size": 30, "cluster_id": 1, "rank_in_cluster": 8}

>  <energy>  (46) 
-7.06

>  <cluster_rmsd>  (46) 
0.73

>  <cluster>  (46) 
4

$$$$

     RDKit          3D

 59 62  0  0  0  0  0  0  0  0999 V2000
  146.1170   73.3710  221.5250 C   0  0  0  0  0  0  0  0  0  0  0  0
  145.7690   73.8450  220.3130 O   0  0  0  0  0  0  0  0  0  0  0  0
  144.4910   73.8260  219.9540 C   0  0  0  0  0  0  0  0  0  0  0  0
  143.5170   74.8690  220.4020 C   0  0  1  0  0  0  0  0  0  0  0  0
  142.9190   75.5960  219.2470 C   0  0  0  0  0  0  0  0  0  0  0  0
  141.4480   75.7340  219.6680 C   0  0  2  0  0  0  0  0  0  0  0  0
  141.2290   76.8500  220.6000 C   0  0  0  0  0  0  0  0  0  0  0  0
  140.2020   76.9850  221.3200 O   0  0  0  0  0  0  0  0  0  0  0  0
  142.2120   77.8940  220.7500 N   0  0  0  0  0  0  0  0  0  0  0  0
  141.9620   78.9870  221.6630 C   0  0  0  0  0  0  0  0  0  0  0  0
  141.8510   80.2660  221.1860 C   0  0  0  0  0  0  0  0  0  0  0  0
  141.6020   81.2540  222.1500 C   0  0  0  0  0  0  0  0  0  0  0  0
  141.4810   80.9380  223.4850 C   0  0  0  0  0  0  0  0  0  0  0  0
  141.5990   79.6320  223.9300 C   0  0  0  0  0  0  0  0  0  0  0  0
  141.8480   78.6270  222.9860 C   0  0  0  0  0  0  0  0  0  0  0  0
  141.1830   74.4480  220.2220 N   0  0  0  0  0  0  0  0  0  0  0  0
  140.1100   73.5360  220.0410 C   0  0  0  0  0  0  0  0  0  0  0  0
  140.1240   72.6430  219.1790 O   0  0  0  0  0  0  0  0  0  0  0  0
  138.9240   73.6910  220.9550 C   0  0  0  0  0  0  0  0  0  0  0  0
  139.2240   73.0980  222.2570 N   0  0  0  0  0  0  0  0  0  0  0  0
  139.3910   71.6670  222.3130 C   0  0  0  0  0  0  0  0  0  0  0  0
  139.2890   70.9380  221.2990 O   0  0  0  0  0  0  0  0  0  0  0  0
  139.6880   71.1070  223.6480 C   0  0  0  0  0  0  0  0  0  0  0  0
  139.3800   69.7740  223.9070 C   0  0  0  0  0  0  0  0  0  0  0  0
  139.6320   69.1860  225.1270 C   0  0  0  0  0  0  0  0  0  0  0  0
  140.2060   69.9690  226.1030 C   0  0  0  0  0  0  0  0  0  0  0  0
  140.4950   69.4620  227.3640 C   0  0  0  0  0  0  0  0  0  0  0  0
  141.0690   70.2720  228.3220 C   0  0  0  0  0  0  0  0  0  0  0  0
  141.3800   71.6150  228.0680 C   0  0  0  0  0  0  0  0  0  0  0  0
  141.0620   72.0470  226.7890 C   0  0  0  0  0  0  0  0  0  0  0  0
  140.4980   71.2690  225.8280 C   0  0  0  0  0  0  0  0  0  0  0  0
  140.2540   71.8620  224.6230 N   0  0  0  0  0  0  0  0  0  0  0  0
  142.3220   74.1770  221.0890 C   0  0  0  0  0  0  0  0  0  0  0  0
  145.6595   73.9941  222.3076 H   0  0  0  0  0  0  0  0  0  0  0  0
  145.7639   72.3344  221.6285 H   0  0  0  0  0  0  0  0  0  0  0  0
  147.2118   73.3975  221.6285 H   0  0  0  0  0  0  0  0  0  0  0  0
  144.4817   73.8509  218.8543 H   0  0  0  0  0  0  0  0  0  0  0  0
  144.1219   72.9317  220.4774 H   0  0  0  0  0  0  0  0  0  0  0  0
  144.0664   75.5578  221.0606 H   0  0  0  0  0  0  0  0  0  0  0  0
  143.3881   76.5817  219.1115 H   0  0  0  0  0  0  0  0  0  0  0  0
  143.0537   75.0789  218.2855 H   0  0  0  0  0  0  0  0  0  0  0  0
  140.7639   75.9903  218.8456 H   0  0  0  0  0  0  0  0  0  0  0  0
  143.1120   77.8960  220.2260 H   0  0  0  0  0  0  0  0  0  0  0  0
  141.9506   80.5030  220.1165 H   0  0  0  0  0  0  0  0  0  0  0  0
  141.5013   82.3026  221.8332 H   0  0  0  0  0  0  0  0  0  0  0  0
  141.2866   81.7396  224.2128 H   0  0  0  0  0  0  0  0  0  0  0  0
  141.4997   79.3895  224.9983 H   0  0  0  0  0  0  0  0  0  0  0  0
  141.9498   77.5762  223.2950 H   0  0  0  0  0  0  0  0  0  0  0  0
  138.6986   74.7600  221.0834 H   0  0  0  0  0  0  0  0  0  0  0  0
  138.0552   73.1805  220.5139 H   0  0  0  0  0  0  0  0  0  0  0  0
  139.3120   73.7010  223.1040 H   0  0  0  0  0  0  0  0  0  0  0  0
  138.9201   69.1703  223.1108 H   0  0  0  0  0  0  0  0  0  0  0  0
  139.3840   68.1308  225.3142 H   0  0  0  0  0  0  0  0  0  0  0  0
  140.2655   68.4122  227.5990 H   0  0  0  0  0  0  0  0  0  0  0  0
  141.2891   69.8516  229.3144 H   0  0  0  0  0  0  0  0  0  0  0  0
  141.8387   72.2724  228.8213 H   0  0  0  0  0  0  0  0  0  0  0  0
  141.2820   73.0942  226.5342 H   0  0  0  0  0  0  0  0  0  0  0  0
  142.1545   74.5985  222.0911 H   0  0  0  0  0  0  0  0  0  0  0  0
  142.4908   73.0987  221.2262 H   0  0  0  0  0  0  0  0  0  0  0  0
  1  2  1  0
  2  3  1  0
  3  4  1  0
  4  5  1  0
  5  6  1  0
  6  7  1  0
  7  8  2  0
  7  9  1  0
  9 10  1  0
 10 11  2  0
 11 12  1  0
 12 13  2  0
 13 14  1  0
 14 15  2  0
  6 16  1  0
 16 17  1  0
 17 18  2  0
 17 19  1  0
 19 20  1  0
 20 21  1  0
 21 22  2  0
 21 23  1  0
 23 24  2  0
 24 25  1  0
 25 26  2  0
 26 27  1  0
 27 28  2  0
 28 29  1  0
 29 30  2  0
 30 31  1  0
 31 32  2  0
 16 33  1  0
 33  4  1  0
 15 10  1  0
 32 23  1  0
 31 26  1  0
  1 34  1  0
  1 35  1  0
  1 36  1  0
  3 37  1  0
  3 38  1  0
  4 39  1  1
  5 40  1  0
  5 41  1  0
  6 42  1  6
  9 43  1  0
 11 44  1  0
 12 45  1  0
 13 46  1  0
 14 47  1  0
 15 48  1  0
 19 49  1  0
 19 50  1  0
 20 51  1  0
 24 52  1  0
 25 53  1  0
 27 54  1  0
 28 55  1  0
 29 56  1  0
 30 57  1  0
 33 58  1  0
 33 59  1  0
M  END
>  <smiles>  (47) 
COC[C@H]1C[C@H](C(=O)Nc2ccccc2)N(C(=O)CNC(=O)c2ccc3ccccc3n2)C1

>  <score_type>  (47) 
oracle

>  <origin>  (47) 
autodockgpu

>  <m_score__min__energy>  (47) 
-9.5399999999999991

>  <m_primary>  (47) 
energy

>  <rmsd>  (47) 
2.683537909788845

>  <m_score__min__rmsd>  (47) 
2.683537909788845

>  <meeko>  (47) 
{"free_energy": -9.47, "intermolecular_energy": -11.86, "internal_energy": -1.99, "cluster_size": 30, "cluster_id": 1, "rank_in_cluster": 3}

>  <energy>  (47) 
-7.02

>  <cluster_rmsd>  (47) 
0.36

>  <cluster>  (47) 
4

$$$$

     RDKit          3D

 59 62  0  0  0  0  0  0  0  0999 V2000
  141.9370   77.7710  219.4750 C   0  0  0  0  0  0  0  0  0  0  0  0
  142.5200   76.6200  219.8640 O   0  0  0  0  0  0  0  0  0  0  0  0
  143.6380   76.2270  219.2660 C   0  0  0  0  0  0  0  0  0  0  0  0
  144.0700   74.7950  219.2380 C   0  0  1  0  0  0  0  0  0  0  0  0
  144.7950   74.4150  220.4830 C   0  0  0  0  0  0  0  0  0  0  0  0
  144.2450   73.0100  220.7710 C   0  0  2  0  0  0  0  0  0  0  0  0
  144.9000   71.9700  219.9650 C   0  0  0  0  0  0  0  0  0  0  0  0
  145.9830   72.1300  219.3380 O   0  0  0  0  0  0  0  0  0  0  0  0
  144.3200   70.6550  219.8390 N   0  0  0  0  0  0  0  0  0  0  0  0
  144.9800   69.6570  219.0270 C   0  0  0  0  0  0  0  0  0  0  0  0
  145.2690   69.9220  217.7140 C   0  0  0  0  0  0  0  0  0  0  0  0
  145.9140   68.8930  217.0140 C   0  0  0  0  0  0  0  0  0  0  0  0
  146.2290   67.6990  217.6260 C   0  0  0  0  0  0  0  0  0  0  0  0
  145.9220   67.4670  218.9550 C   0  0  0  0  0  0  0  0  0  0  0  0
  145.2770   68.4800  219.6770 C   0  0  0  0  0  0  0  0  0  0  0  0
  142.8580   73.1790  220.4940 N   0  0  0  0  0  0  0  0  0  0  0  0
  141.6900   72.8040  221.2090 C   0  0  0  0  0  0  0  0  0  0  0  0
  141.6450   71.8110  221.9510 O   0  0  0  0  0  0  0  0  0  0  0  0
  140.4760   73.6770  221.0340 C   0  0  0  0  0  0  0  0  0  0  0  0
  140.7730   75.0330  221.4920 N   0  0  0  0  0  0  0  0  0  0  0  0
  139.6810   75.8070  222.0300 C   0  0  0  0  0  0  0  0  0  0  0  0
  138.5150   75.3560  222.1140 O   0  0  0  0  0  0  0  0  0  0  0  0
  140.0230   77.1730  222.4770 C   0  0  0  0  0  0  0  0  0  0  0  0
  138.9960   78.0490  222.8210 C   0  0  0  0  0  0  0  0  0  0  0  0
  139.2410   79.3350  223.2490 C   0  0  0  0  0  0  0  0  0  0  0  0
  140.5550   79.7390  223.3260 C   0  0  0  0  0  0  0  0  0  0  0  0
  140.8980   81.0200  223.7440 C   0  0  0  0  0  0  0  0  0  0  0  0
  142.2240   81.3950  223.8100 C   0  0  0  0  0  0  0  0  0  0  0  0
  143.2620   80.5190  223.4630 C   0  0  0  0  0  0  0  0  0  0  0  0
  142.8400   79.2620  223.0550 C   0  0  0  0  0  0  0  0  0  0  0  0
  141.5420   78.8670  222.9830 C   0  0  0  0  0  0  0  0  0  0  0  0
  141.3110   77.5900  222.5600 N   0  0  0  0  0  0  0  0  0  0  0  0
  142.8190   73.8930  219.2240 C   0  0  0  0  0  0  0  0  0  0  0  0
  141.6431   78.3512  220.3621 H   0  0  0  0  0  0  0  0  0  0  0  0
  142.6472   78.3565  218.8727 H   0  0  0  0  0  0  0  0  0  0  0  0
  141.0448   77.5448  218.8727 H   0  0  0  0  0  0  0  0  0  0  0  0
  143.5500   76.5409  218.2154 H   0  0  0  0  0  0  0  0  0  0  0  0
  144.4093   76.6845  219.9031 H   0  0  0  0  0  0  0  0  0  0  0  0
  144.7120   74.6722  218.3533 H   0  0  0  0  0  0  0  0  0  0  0  0
  145.8823   74.3904  220.3183 H   0  0  0  0  0  0  0  0  0  0  0  0
  144.6457   75.1231  221.3114 H   0  0  0  0  0  0  0  0  0  0  0  0
  144.4320   72.6518  221.7941 H   0  0  0  0  0  0  0  0  0  0  0  0
  143.4370   70.3840  220.3170 H   0  0  0  0  0  0  0  0  0  0  0  0
  145.0114   70.8805  217.2398 H   0  0  0  0  0  0  0  0  0  0  0  0
  146.1738   69.0414  215.9555 H   0  0  0  0  0  0  0  0  0  0  0  0
  146.7353   66.9137  217.0455 H   0  0  0  0  0  0  0  0  0  0  0  0
  146.1781   66.5102  219.4334 H   0  0  0  0  0  0  0  0  0  0  0  0
  145.0146   68.3386  220.7359 H   0  0  0  0  0  0  0  0  0  0  0  0
  140.1952   73.7036  219.9708 H   0  0  0  0  0  0  0  0  0  0  0  0
  139.6445   73.2669  221.6260 H   0  0  0  0  0  0  0  0  0  0  0  0
  141.7430   75.4110  221.4260 H   0  0  0  0  0  0  0  0  0  0  0  0
  137.9547   77.7021  222.7484 H   0  0  0  0  0  0  0  0  0  0  0  0
  138.4183   80.0134  223.5190 H   0  0  0  0  0  0  0  0  0  0  0  0
  140.1106   81.7358  224.0226 H   0  0  0  0  0  0  0  0  0  0  0  0
  142.4744   82.4123  224.1451 H   0  0  0  0  0  0  0  0  0  0  0  0
  144.3232   80.8047  223.5103 H   0  0  0  0  0  0  0  0  0  0  0  0
  143.6120   78.5324  222.7691 H   0  0  0  0  0  0  0  0  0  0  0  0
  142.8602   73.1869  218.3815 H   0  0  0  0  0  0  0  0  0  0  0  0
  141.8918   74.4723  219.1027 H   0  0  0  0  0  0  0  0  0  0  0  0
  1  2  1  0
  2  3  1  0
  3  4  1  0
  4  5  1  0
  5  6  1  0
  6  7  1  0
  7  8  2  0
  7  9  1  0
  9 10  1  0
 10 11  2  0
 11 12  1  0
 12 13  2  0
 13 14  1  0
 14 15  2  0
  6 16  1  0
 16 17  1  0
 17 18  2  0
 17 19  1  0
 19 20  1  0
 20 21  1  0
 21 22  2  0
 21 23  1  0
 23 24  2  0
 24 25  1  0
 25 26  2  0
 26 27  1  0
 27 28  2  0
 28 29  1  0
 29 30  2  0
 30 31  1  0
 31 32  2  0
 16 33  1  0
 33  4  1  0
 15 10  1  0
 32 23  1  0
 31 26  1  0
  1 34  1  0
  1 35  1  0
  1 36  1  0
  3 37  1  0
  3 38  1  0
  4 39  1  6
  5 40  1  0
  5 41  1  0
  6 42  1  1
  9 43  1  0
 11 44  1  0
 12 45  1  0
 13 46  1  0
 14 47  1  0
 15 48  1  0
 19 49  1  0
 19 50  1  0
 20 51  1  0
 24 52  1  0
 25 53  1  0
 27 54  1  0
 28 55  1  0
 29 56  1  0
 30 57  1  0
 33 58  1  0
 33 59  1  0
M  END
>  <smiles>  (48) 
COC[C@H]1C[C@H](C(=O)Nc2ccccc2)N(C(=O)CNC(=O)c2ccc3ccccc3n2)C1

>  <score_type>  (48) 
oracle

>  <origin>  (48) 
autodockgpu

>  <m_score__min__energy>  (48) 
-9.5399999999999991

>  <m_primary>  (48) 
energy

>  <rmsd>  (48) 
9.06456529570862

>  <m_score__min__rmsd>  (48) 
9.06456529570862

>  <meeko>  (48) 
{"free_energy": -8.0, "intermolecular_energy": -10.39, "internal_energy": -3.34, "cluster_size": 7, "cluster_id": 3, "rank_in_cluster": 1}

>  <energy>  (48) 
-6.89

>  <cluster_rmsd>  (48) 
0.33

>  <cluster>  (48) 
4

$$$$

     RDKit          3D

 59 62  0  0  0  0  0  0  0  0999 V2000
  145.5810   71.0000  219.1600 C   0  0  0  0  0  0  0  0  0  0  0  0
  145.9390   72.2700  218.8820 O   0  0  0  0  0  0  0  0  0  0  0  0
  145.1820   72.9900  218.0650 C   0  0  0  0  0  0  0  0  0  0  0  0
  144.3940   74.1710  218.5360 C   0  0  1  0  0  0  0  0  0  0  0  0
  143.0870   74.2780  217.8290 C   0  0  0  0  0  0  0  0  0  0  0  0
  142.1300   74.6830  218.9610 C   0  0  2  0  0  0  0  0  0  0  0  0
  142.1870   76.1210  219.2620 C   0  0  0  0  0  0  0  0  0  0  0  0
  142.6670   76.6090  220.3210 O   0  0  0  0  0  0  0  0  0  0  0  0
  141.6780   77.0940  218.3270 N   0  0  0  0  0  0  0  0  0  0  0  0
  141.7340   78.5010  218.6570 C   0  0  0  0  0  0  0  0  0  0  0  0
  140.9440   79.0020  219.6580 C   0  0  0  0  0  0  0  0  0  0  0  0
  141.0760   80.3760  219.9060 C   0  0  0  0  0  0  0  0  0  0  0  0
  141.9490   81.1540  219.1770 C   0  0  0  0  0  0  0  0  0  0  0  0
  142.7310   80.6130  218.1720 C   0  0  0  0  0  0  0  0  0  0  0  0
  142.6180   79.2410  217.9060 C   0  0  0  0  0  0  0  0  0  0  0  0
  142.5690   73.8440  220.0260 N   0  0  0  0  0  0  0  0  0  0  0  0
  141.8640   73.0190  220.9410 C   0  0  0  0  0  0  0  0  0  0  0  0
  142.2120   71.8580  221.2060 O   0  0  0  0  0  0  0  0  0  0  0  0
  140.6480   73.6160  221.5990 C   0  0  0  0  0  0  0  0  0  0  0  0
  140.9090   75.0140  221.9400 N   0  0  0  0  0  0  0  0  0  0  0  0
  139.7730   75.8450  222.2520 C   0  0  0  0  0  0  0  0  0  0  0  0
  138.5980   75.4100  222.2410 O   0  0  0  0  0  0  0  0  0  0  0  0
  140.0800   77.2510  222.5860 C   0  0  0  0  0  0  0  0  0  0  0  0
  139.0300   78.1470  222.7750 C   0  0  0  0  0  0  0  0  0  0  0  0
  139.2430   79.4710  223.0900 C   0  0  0  0  0  0  0  0  0  0  0  0
  140.5470   79.8930  223.2140 C   0  0  0  0  0  0  0  0  0  0  0  0
  140.8570   81.2110  223.5280 C   0  0  0  0  0  0  0  0  0  0  0  0
  142.1750   81.6040  223.6440 C   0  0  0  0  0  0  0  0  0  0  0  0
  143.2360   80.7090  223.4540 C   0  0  0  0  0  0  0  0  0  0  0  0
  142.8460   79.4140  223.1430 C   0  0  0  0  0  0  0  0  0  0  0  0
  141.5570   79.0010  223.0240 C   0  0  0  0  0  0  0  0  0  0  0  0
  141.3590   77.6870  222.7120 N   0  0  0  0  0  0  0  0  0  0  0  0
  144.0210   73.9670  220.0190 C   0  0  0  0  0  0  0  0  0  0  0  0
  145.5417   70.8605  220.2504 H   0  0  0  0  0  0  0  0  0  0  0  0
  144.5902   70.7955  218.7282 H   0  0  0  0  0  0  0  0  0  0  0  0
  146.3191   70.3081  218.7282 H   0  0  0  0  0  0  0  0  0  0  0  0
  145.8520   73.3637  217.2767 H   0  0  0  0  0  0  0  0  0  0  0  0
  144.3869   72.2760  217.8042 H   0  0  0  0  0  0  0  0  0  0  0  0
  145.0144   75.0613  218.3560 H   0  0  0  0  0  0  0  0  0  0  0  0
  143.1217   75.0471  217.0433 H   0  0  0  0  0  0  0  0  0  0  0  0
  142.7900   73.3530  217.3130 H   0  0  0  0  0  0  0  0  0  0  0  0
  141.0647   74.5448  218.7244 H   0  0  0  0  0  0  0  0  0  0  0  0
  141.2690   76.8280  217.4080 H   0  0  0  0  0  0  0  0  0  0  0  0
  140.2510   78.3676  220.2301 H   0  0  0  0  0  0  0  0  0  0  0  0
  140.4709   80.8417  220.6978 H   0  0  0  0  0  0  0  0  0  0  0  0
  142.0258   82.2286  219.3989 H   0  0  0  0  0  0  0  0  0  0  0  0
  143.4242   81.2436  217.5959 H   0  0  0  0  0  0  0  0  0  0  0  0
  143.2209   78.7681  217.1168 H   0  0  0  0  0  0  0  0  0  0  0  0
  139.7941   73.5614  220.9076 H   0  0  0  0  0  0  0  0  0  0  0  0
  140.4170   73.0541  222.5160 H   0  0  0  0  0  0  0  0  0  0  0  0
  141.8870   75.3800  221.9520 H   0  0  0  0  0  0  0  0  0  0  0  0
  137.9966   77.7852  222.6692 H   0  0  0  0  0  0  0  0  0  0  0  0
  138.4023   80.1650  223.2369 H   0  0  0  0  0  0  0  0  0  0  0  0
  140.0503   81.9423  223.6844 H   0  0  0  0  0  0  0  0  0  0  0  0
  142.3992   82.6517  223.8932 H   0  0  0  0  0  0  0  0  0  0  0  0
  144.2908   81.0080  223.5439 H   0  0  0  0  0  0  0  0  0  0  0  0
  143.6378   78.6678  222.9811 H   0  0  0  0  0  0  0  0  0  0  0  0
  144.3393   74.8311  220.6207 H   0  0  0  0  0  0  0  0  0  0  0  0
  144.5138   73.0844  220.4527 H   0  0  0  0  0  0  0  0  0  0  0  0
  1  2  1  0
  2  3  1  0
  3  4  1  0
  4  5  1  0
  5  6  1  0
  6  7  1  0
  7  8  2  0
  7  9  1  0
  9 10  1  0
 10 11  2  0
 11 12  1  0
 12 13  2  0
 13 14  1  0
 14 15  2  0
  6 16  1  0
 16 17  1  0
 17 18  2  0
 17 19  1  0
 19 20  1  0
 20 21  1  0
 21 22  2  0
 21 23  1  0
 23 24  2  0
 24 25  1  0
 25 26  2  0
 26 27  1  0
 27 28  2  0
 28 29  1  0
 29 30  2  0
 30 31  1  0
 31 32  2  0
 16 33  1  0
 33  4  1  0
 15 10  1  0
 32 23  1  0
 31 26  1  0
  1 34  1  0
  1 35  1  0
  1 36  1  0
  3 37  1  0
  3 38  1  0
  4 39  1  1
  5 40  1  0
  5 41  1  0
  6 42  1  6
  9 43  1  0
 11 44  1  0
 12 45  1  0
 13 46  1  0
 14 47  1  0
 15 48  1  0
 19 49  1  0
 19 50  1  0
 20 51  1  0
 24 52  1  0
 25 53  1  0
 27 54  1  0
 28 55  1  0
 29 56  1  0
 30 57  1  0
 33 58  1  0
 33 59  1  0
M  END
>  <smiles>  (49) 
COC[C@H]1C[C@H](C(=O)Nc2ccccc2)N(C(=O)CNC(=O)c2ccc3ccccc3n2)C1

>  <score_type>  (49) 
oracle

>  <origin>  (49) 
autodockgpu

>  <m_score__min__energy>  (49) 
-9.5399999999999991

>  <m_primary>  (49) 
energy

>  <rmsd>  (49) 
6.755474509630834

>  <m_score__min__rmsd>  (49) 
6.755474509630834

>  <meeko>  (49) 
{"free_energy": -7.12, "intermolecular_energy": -9.5, "internal_energy": -4.06, "cluster_size": 12, "cluster_id": 4, "rank_in_cluster": 6}

>  <energy>  (49) 
-6.86

>  <cluster_rmsd>  (49) 
1.43

>  <cluster>  (49) 
4

$$$$

     RDKit          3D

 59 62  0  0  0  0  0  0  0  0999 V2000
  145.1980   70.9880  218.7500 C   0  0  0  0  0  0  0  0  0  0  0  0
  145.8490   72.1650  218.6540 O   0  0  0  0  0  0  0  0  0  0  0  0
  145.7840   73.0240  219.6640 C   0  0  0  0  0  0  0  0  0  0  0  0
  144.7840   74.1340  219.7070 C   0  0  1  0  0  0  0  0  0  0  0  0
  143.9540   74.1760  218.4700 C   0  0  0  0  0  0  0  0  0  0  0  0
  142.5530   74.4820  219.0210 C   0  0  2  0  0  0  0  0  0  0  0  0
  142.3570   75.9100  219.3080 C   0  0  0  0  0  0  0  0  0  0  0  0
  142.6140   76.4560  220.4160 O   0  0  0  0  0  0  0  0  0  0  0  0
  141.8400   76.8040  218.3020 N   0  0  0  0  0  0  0  0  0  0  0  0
  141.6440   78.2020  218.6170 C   0  0  0  0  0  0  0  0  0  0  0  0
  140.5530   78.5930  219.3480 C   0  0  0  0  0  0  0  0  0  0  0  0
  140.4570   79.9670  219.6070 C   0  0  0  0  0  0  0  0  0  0  0  0
  141.4080   80.8510  219.1480 C   0  0  0  0  0  0  0  0  0  0  0  0
  142.4990   80.4190  218.4120 C   0  0  0  0  0  0  0  0  0  0  0  0
  142.6180   79.0500  218.1400 C   0  0  0  0  0  0  0  0  0  0  0  0
  142.5030   73.6410  220.1700 N   0  0  0  0  0  0  0  0  0  0  0  0
  141.5150   72.7430  220.6520 C   0  0  0  0  0  0  0  0  0  0  0  0
  141.6260   71.5100  220.5660 O   0  0  0  0  0  0  0  0  0  0  0  0
  140.2940   73.3520  221.2890 C   0  0  0  0  0  0  0  0  0  0  0  0
  140.5760   74.7340  221.6720 N   0  0  0  0  0  0  0  0  0  0  0  0
  139.4530   75.5740  222.0080 C   0  0  0  0  0  0  0  0  0  0  0  0
  138.2720   75.1580  221.9830 O   0  0  0  0  0  0  0  0  0  0  0  0
  139.7820   76.9640  222.3850 C   0  0  0  0  0  0  0  0  0  0  0  0
  138.7470   77.8490  222.6770 C   0  0  0  0  0  0  0  0  0  0  0  0
  138.9790   79.1580  223.0380 C   0  0  0  0  0  0  0  0  0  0  0  0
  140.2890   79.5760  223.1000 C   0  0  0  0  0  0  0  0  0  0  0  0
  140.6190   80.8790  223.4530 C   0  0  0  0  0  0  0  0  0  0  0  0
  141.9420   81.2690  223.5050 C   0  0  0  0  0  0  0  0  0  0  0  0
  142.9890   80.3840  223.2100 C   0  0  0  0  0  0  0  0  0  0  0  0
  142.5800   79.1040  222.8660 C   0  0  0  0  0  0  0  0  0  0  0  0
  141.2850   78.6950  222.8090 C   0  0  0  0  0  0  0  0  0  0  0  0
  141.0660   77.3960  222.4520 N   0  0  0  0  0  0  0  0  0  0  0  0
  143.7770   73.8600  220.8430 C   0  0  0  0  0  0  0  0  0  0  0  0
  145.0567   70.7326  219.8106 H   0  0  0  0  0  0  0  0  0  0  0  0
  144.2172   71.0704  218.2589 H   0  0  0  0  0  0  0  0  0  0  0  0
  145.7891   70.2009  218.2589 H   0  0  0  0  0  0  0  0  0  0  0  0
  145.6115   72.4213  220.5679 H   0  0  0  0  0  0  0  0  0  0  0  0
  146.7299   73.5747  219.5549 H   0  0  0  0  0  0  0  0  0  0  0  0
  145.3503   75.0683  219.8352 H   0  0  0  0  0  0  0  0  0  0  0  0
  144.2954   74.9693  217.7888 H   0  0  0  0  0  0  0  0  0  0  0  0
  144.0003   73.2496  217.8787 H   0  0  0  0  0  0  0  0  0  0  0  0
  141.7349   74.2816  218.3135 H   0  0  0  0  0  0  0  0  0  0  0  0
  141.6020   76.4870  217.3390 H   0  0  0  0  0  0  0  0  0  0  0  0
  139.8014   77.8751  219.7082 H   0  0  0  0  0  0  0  0  0  0  0  0
  139.6044   80.3472  220.1889 H   0  0  0  0  0  0  0  0  0  0  0  0
  141.2989   81.9227  219.3705 H   0  0  0  0  0  0  0  0  0  0  0  0
  143.2532   81.1332  218.0501 H   0  0  0  0  0  0  0  0  0  0  0  0
  143.4683   78.6623  217.5598 H   0  0  0  0  0  0  0  0  0  0  0  0
  139.4600   73.3341  220.5720 H   0  0  0  0  0  0  0  0  0  0  0  0
  140.0234   72.7736  222.1847 H   0  0  0  0  0  0  0  0  0  0  0  0
  141.5590   75.0850  221.6960 H   0  0  0  0  0  0  0  0  0  0  0  0
  137.7088   77.4905  222.6173 H   0  0  0  0  0  0  0  0  0  0  0  0
  138.1494   79.8428  223.2678 H   0  0  0  0  0  0  0  0  0  0  0  0
  139.8242   81.6011  223.6915 H   0  0  0  0  0  0  0  0  0  0  0  0
  142.1822   82.3049  223.7862 H   0  0  0  0  0  0  0  0  0  0  0  0
  144.0476   80.6805  223.2483 H   0  0  0  0  0  0  0  0  0  0  0  0
  143.3594   78.3672  222.6218 H   0  0  0  0  0  0  0  0  0  0  0  0
  143.7133   74.7243  221.5205 H   0  0  0  0  0  0  0  0  0  0  0  0
  144.0729   72.9987  221.4599 H   0  0  0  0  0  0  0  0  0  0  0  0
  1  2  1  0
  2  3  1  0
  3  4  1  0
  4  5  1  0
  5  6  1  0
  6  7  1  0
  7  8  2  0
  7  9  1  0
  9 10  1  0
 10 11  2  0
 11 12  1  0
 12 13  2  0
 13 14  1  0
 14 15  2  0
  6 16  1  0
 16 17  1  0
 17 18  2  0
 17 19  1  0
 19 20  1  0
 20 21  1  0
 21 22  2  0
 21 23  1  0
 23 24  2  0
 24 25  1  0
 25 26  2  0
 26 27  1  0
 27 28  2  0
 28 29  1  0
 29 30  2  0
 30 31  1  0
 31 32  2  0
 16 33  1  0
 33  4  1  0
 15 10  1  0
 32 23  1  0
 31 26  1  0
  1 34  1  0
  1 35  1  0
  1 36  1  0
  3 37  1  0
  3 38  1  0
  4 39  1  1
  5 40  1  0
  5 41  1  0
  6 42  1  6
  9 43  1  0
 11 44  1  0
 12 45  1  0
 13 46  1  0
 14 47  1  0
 15 48  1  0
 19 49  1  0
 19 50  1  0
 20 51  1  0
 24 52  1  0
 25 53  1  0
 27 54  1  0
 28 55  1  0
 29 56  1  0
 30 57  1  0
 33 58  1  0
 33 59  1  0
M  END
>  <smiles>  (50) 
COC[C@H]1C[C@H](C(=O)Nc2ccccc2)N(C(=O)CNC(=O)c2ccc3ccccc3n2)C1

>  <score_type>  (50) 
oracle

>  <origin>  (50) 
autodockgpu

>  <m_score__min__energy>  (50) 
-9.5399999999999991

>  <m_primary>  (50) 
energy

>  <rmsd>  (50) 
6.678343316496155

>  <m_score__min__rmsd>  (50) 
6.678343316496155

>  <meeko>  (50) 
{"free_energy": -7.02, "intermolecular_energy": -9.41, "internal_energy": -4.26, "cluster_size": 12, "cluster_id": 4, "rank_in_cluster": 9}

>  <energy>  (50) 
-6.8

>  <cluster_rmsd>  (50) 
1.0

>  <cluster>  (50) 
4

$$$$
