@<TRIPOS>MOLECULE
*****
 49 53 0 0 0
SMALL
GASTEIGER

@<TRIPOS>ATOM
      1 O         136.0020   68.4250  223.4720 O.2     1  UNL1       -0.1547
      2 S         135.9580   69.7850  224.0810 S.O2    1  UNL1        0.0499
      3 O         136.2650   69.7010  225.5500 O.2     1  UNL1       -0.1547
      4 C         134.3130   70.4200  223.8690 C.3     1  UNL1        0.1100
      5 C         133.9390   71.3230  224.9690 C.ar    1  UNL1       -0.0248
      6 C         133.9960   72.7030  224.8850 C.ar    1  UNL1       -0.0570
      7 C         133.6280   73.4820  225.9600 C.ar    1  UNL1       -0.0615
      8 C         133.2000   72.9070  227.1340 C.ar    1  UNL1       -0.0617
      9 C         133.1400   71.5380  227.2290 C.ar    1  UNL1       -0.0615
     10 C         133.5060   70.7620  226.1580 C.ar    1  UNL1       -0.0570
     11 N         137.0890   70.8500  223.3270 N.pl3   1  UNL1       -0.2024
     12 C         136.6120   72.1220  222.9290 C.2     1  UNL1        0.0162
     13 C         137.3910   73.0160  222.3520 C.2     1  UNL1       -0.0389
     14 C         138.7840   72.6560  222.1300 C.ar    1  UNL1       -0.0185
     15 C         139.5840   73.6030  221.5310 C.ar    1  UNL1       -0.0542
     16 C         140.9170   73.3580  221.2820 C.ar    1  UNL1       -0.0612
     17 C         141.4040   72.1260  221.6620 C.ar    1  UNL1       -0.0614
     18 C         140.5860   71.1640  222.2720 C.ar    1  UNL1       -0.0559
     19 C         139.2480   71.4080  222.5220 C.ar    1  UNL1       -0.0138
     20 C         138.4380   70.3770  223.1550 C.3     1  UNL1        0.0975
     21 C         138.9930   69.7270  224.3480 C.ar    1  UNL1        0.0040
     22 C         138.8820   68.3630  224.5930 C.ar    1  UNL1        0.0081
     23 N         139.4750   68.0600  225.7630 N.ar    1  UNL1       -0.3603
     24 C         139.9730   69.1970  226.2900 C.ar    1  UNL1        0.0468
     25 C         140.6700   69.4170  227.4700 C.ar    1  UNL1       -0.0378
     26 C         141.0770   70.6980  227.7780 C.ar    1  UNL1       -0.0598
     27 C         140.7830   71.7420  226.9040 C.ar    1  UNL1       -0.0611
     28 C         140.0890   71.5150  225.7340 C.ar    1  UNL1       -0.0523
     29 C         139.6820   70.2330  225.4290 C.ar    1  UNL1        0.0050
     30 H         134.2627   70.9730  222.9194 H       1  UNL1        0.0568
     31 H         133.6128   69.5716  223.8649 H       1  UNL1        0.0568
     32 H         134.3371   73.1807  223.9547 H       1  UNL1        0.0621
     33 H         133.6771   74.5779  225.8785 H       1  UNL1        0.0618
     34 H         132.9089   73.5367  227.9876 H       1  UNL1        0.0618
     35 H         132.7993   71.0647  228.1617 H       1  UNL1        0.0618
     36 H         133.4540   69.6668  226.2466 H       1  UNL1        0.0621
     37 H         135.5560   72.3732  223.1070 H       1  UNL1        0.0798
     38 H         137.0019   73.9993  222.0491 H       1  UNL1        0.0636
     39 H         139.1510   74.5732  221.2459 H       1  UNL1        0.0624
     40 H         141.5615   74.1097  220.8029 H       1  UNL1        0.0618
     41 H         142.4634   71.8908  221.4819 H       1  UNL1        0.0618
     42 H         141.0183   70.1938  222.5580 H       1  UNL1        0.0621
     43 H         138.4414   69.5339  222.4484 H       1  UNL1        0.0618
     44 H         138.3843   67.6398  223.9302 H       1  UNL1        0.0810
     45 H         139.5640   67.1300  226.2280 H       1  UNL1        0.1653
     46 H         140.8944   68.5816  228.1496 H       1  UNL1        0.0638
     47 H         141.6304   70.8942  228.7082 H       1  UNL1        0.0618
     48 H         141.1093   72.7631  227.1508 H       1  UNL1        0.0618
     49 H         139.8625   72.3474  225.0515 H       1  UNL1        0.0624
@<TRIPOS>BOND
     1     1     2    2
     2     2     3    2
     3     2     4    1
     4     4     5    1
     5     5     6   ar
     6     6     7   ar
     7     7     8   ar
     8     8     9   ar
     9     9    10   ar
    10     2    11    1
    11    11    12    1
    12    12    13    2
    13    13    14    1
    14    14    15   ar
    15    15    16   ar
    16    16    17   ar
    17    17    18   ar
    18    18    19   ar
    19    19    20    1
    20    20    21    1
    21    21    22   ar
    22    22    23   ar
    23    23    24   ar
    24    24    25   ar
    25    25    26   ar
    26    26    27   ar
    27    27    28   ar
    28    28    29   ar
    29    10     5   ar
    30    20    11    1
    31    29    21   ar
    32    19    14   ar
    33    29    24   ar
    34     4    30    1
    35     4    31    1
    36     6    32    1
    37     7    33    1
    38     8    34    1
    39     9    35    1
    40    10    36    1
    41    12    37    1
    42    13    38    1
    43    15    39    1
    44    16    40    1
    45    17    41    1
    46    18    42    1
    47    20    43    1
    48    22    44    1
    49    23    45    1
    50    25    46    1
    51    26    47    1
    52    27    48    1
    53    28    49    1
