@<TRIPOS>MOLECULE
*****
 48 51 0 0 0
SMALL
GASTEIGER

@<TRIPOS>ATOM
      1 O         138.8950   70.6210  221.5540 O.2     1  UNL1       -0.2685
      2 C         139.2390   71.1620  222.6550 C.2     1  UNL1        0.2628
      3 N         139.4220   72.5880  222.6670 N.am    1  UNL1       -0.3015
      4 C         139.2530   73.4520  221.5720 C.3     1  UNL1        0.0887
      5 C         140.1140   74.5680  221.2840 C.2     1  UNL1        0.2328
      6 O         141.0820   74.7120  222.1780 O.2     1  UNL1       -0.2739
      7 N         140.1480   75.5310  220.2740 N.am    1  UNL1       -0.2996
      8 C         140.8660   75.7680  219.0680 C.3     1  UNL1        0.0153
      9 C         141.1050   77.2680  218.9910 C.3     1  UNL1       -0.0289
     10 C         140.0500   77.8640  219.8780 C.3     1  UNL1        0.0014
     11 C         140.7500   78.5550  220.9930 C.ar    1  UNL1       -0.0427
     12 C         140.8650   78.0320  222.2610 C.ar    1  UNL1       -0.0569
     13 C         141.5380   78.7510  223.2490 C.ar    1  UNL1       -0.0431
     14 C         142.1030   79.9780  223.0140 C.ar    1  UNL1        0.0410
     15 CL        142.9530   80.9070  224.2210 Cl      1  UNL1       -0.0835
     16 C         141.9870   80.5030  221.7450 C.ar    1  UNL1       -0.0431
     17 C         141.3220   79.7970  220.7610 C.ar    1  UNL1       -0.0569
     18 C         139.2270   76.7150  220.3140 C.3     1  UNL1        0.0216
     19 C         139.4430   70.3570  223.8670 C.ar    1  UNL1        0.1260
     20 C         139.0170   69.0460  223.8450 C.ar    1  UNL1       -0.0306
     21 C         139.2090   68.2960  224.9840 C.ar    1  UNL1       -0.0504
     22 C         139.8070   68.8500  226.1000 C.ar    1  UNL1        0.0004
     23 C         140.0150   68.1150  227.2650 C.ar    1  UNL1       -0.0526
     24 C         140.6110   68.6650  228.3770 C.ar    1  UNL1       -0.0611
     25 C         141.0080   69.9800  228.3180 C.ar    1  UNL1       -0.0597
     26 C         140.8250   70.7610  227.1800 C.ar    1  UNL1       -0.0357
     27 C         140.2230   70.1710  226.0870 C.ar    1  UNL1        0.0718
     28 N         140.0240   70.8920  224.9560 N.ar    1  UNL1       -0.2421
     29 H         139.7100   72.9590  223.6280 H       1  UNL1        0.1496
     30 H         139.2882   72.8108  220.6789 H       1  UNL1        0.0558
     31 H         138.3274   73.9724  221.8590 H       1  UNL1        0.0558
     32 H         141.8260   75.2313  219.0863 H       1  UNL1        0.0465
     33 H         140.3013   75.4113  218.1940 H       1  UNL1        0.0465
     34 H         142.1103   77.5207  219.3590 H       1  UNL1        0.0287
     35 H         141.0477   77.6479  217.9603 H       1  UNL1        0.0287
     36 H         139.3998   78.6112  219.3995 H       1  UNL1        0.0365
     37 H         140.4276   77.0501  222.4946 H       1  UNL1        0.0621
     38 H         141.6186   78.3164  224.2563 H       1  UNL1        0.0632
     39 H         142.4246   81.4857  221.5152 H       1  UNL1        0.0632
     40 H         141.2433   80.2365  219.7557 H       1  UNL1        0.0621
     41 H         138.8505   76.8760  221.3349 H       1  UNL1        0.0470
     42 H         138.3472   76.5724  219.6693 H       1  UNL1        0.0470
     43 H         138.5417   68.6153  222.9514 H       1  UNL1        0.0641
     44 H         138.8832   67.2456  225.0057 H       1  UNL1        0.0625
     45 H         139.6933   67.0636  227.2971 H       1  UNL1        0.0624
     46 H         140.7655   68.0686  229.2883 H       1  UNL1        0.0618
     47 H         141.4866   70.4305  229.2001 H       1  UNL1        0.0618
     48 H         141.1490   71.8119  227.1529 H       1  UNL1        0.0639
@<TRIPOS>BOND
     1     1     2    2
     2     2     3   am
     3     3     4    1
     4     4     5    1
     5     5     6    2
     6     5     7   am
     7     7     8    1
     8     8     9    1
     9     9    10    1
    10    10    11    1
    11    11    12   ar
    12    12    13   ar
    13    13    14   ar
    14    14    15    1
    15    14    16   ar
    16    16    17   ar
    17    10    18    1
    18     2    19    1
    19    19    20   ar
    20    20    21   ar
    21    21    22   ar
    22    22    23   ar
    23    23    24   ar
    24    24    25   ar
    25    25    26   ar
    26    26    27   ar
    27    27    28   ar
    28    18     7    1
    29    28    19   ar
    30    17    11   ar
    31    27    22   ar
    32     3    29    1
    33     4    30    1
    34     4    31    1
    35     8    32    1
    36     8    33    1
    37     9    34    1
    38     9    35    1
    39    10    36    1
    40    12    37    1
    41    13    38    1
    42    16    39    1
    43    17    40    1
    44    18    41    1
    45    18    42    1
    46    20    43    1
    47    21    44    1
    48    23    45    1
    49    24    46    1
    50    25    47    1
    51    26    48    1
