@<TRIPOS>MOLECULE
*****
 67 73 0 0 0
SMALL
GASTEIGER

@<TRIPOS>ATOM
      1 C         140.9880   80.7510  223.5090 C.ar    1  UNL1       -0.0615
      2 C         142.1460   80.4610  222.8270 C.ar    1  UNL1       -0.0614
      3 C         142.2340   79.2940  222.0830 C.ar    1  UNL1       -0.0568
      4 C         141.1730   78.4160  222.0160 C.ar    1  UNL1       -0.0269
      5 C         140.0160   78.6900  222.6870 C.ar    1  UNL1       -0.0412
      6 C         139.9300   79.8650  223.4350 C.ar    1  UNL1       -0.0582
      7 C         138.8140   77.8170  222.6850 C.3     1  UNL1       -0.0115
      8 C         138.8880   76.8800  221.5160 C.3     1  UNL1        0.0178
      9 N         140.2030   76.2670  221.4460 N.pl3   1  UNL1       -0.3104
     10 C         140.4440   74.8890  221.6040 C.ar    1  UNL1        0.1284
     11 C         139.6340   74.0540  222.3430 C.ar    1  UNL1        0.0183
     12 C         139.8790   72.7010  222.4940 C.ar    1  UNL1        0.1261
     13 N         139.0010   71.8840  223.2740 N.pl3   1  UNL1       -0.3220
     14 C         139.5500   70.6510  223.7890 C.3     1  UNL1        0.0477
     15 C         138.5540   69.5600  223.9580 C.3     1  UNL1       -0.0264
     16 C         138.6040   69.0800  225.3840 C.3     1  UNL1       -0.0254
     17 C         139.5590   69.9890  226.0530 C.ar    1  UNL1       -0.0424
     18 C         139.9570   70.0580  227.3690 C.ar    1  UNL1       -0.0583
     19 C         140.8640   71.0010  227.7360 C.ar    1  UNL1       -0.0615
     20 C         141.4250   71.9120  226.8600 C.ar    1  UNL1       -0.0614
     21 C         141.0250   71.8410  225.5400 C.ar    1  UNL1       -0.0565
     22 C         140.0920   70.8780  225.1430 C.ar    1  UNL1       -0.0241
     23 N         140.9690   72.2140  221.8750 N.ar    1  UNL1       -0.1995
     24 C         141.7890   73.0150  221.1370 C.ar    1  UNL1        0.2215
     25 N         142.9190   72.4110  220.5190 N.pl3   1  UNL1       -0.2949
     26 C         143.9860   73.2460  220.0070 C.3     1  UNL1        0.0192
     27 C         144.1320   72.8380  218.5340 C.3     1  UNL1       -0.0115
     28 C         144.6220   71.4170  218.5980 C.ar    1  UNL1       -0.0412
     29 C         145.6270   71.0190  217.7540 C.ar    1  UNL1       -0.0582
     30 C         146.0920   69.7180  217.7960 C.ar    1  UNL1       -0.0615
     31 C         145.5260   68.8520  218.6920 C.ar    1  UNL1       -0.0614
     32 C         144.5140   69.2660  219.5370 C.ar    1  UNL1       -0.0568
     33 C         144.0360   70.5730  219.5050 C.ar    1  UNL1       -0.0269
     34 C         142.9470   70.9730  220.4300 C.3     1  UNL1        0.0402
     35 N         141.5140   74.3250  221.0160 N.ar    1  UNL1       -0.1993
     36 C         141.3170   77.1710  221.2020 C.3     1  UNL1        0.0388
     37 H         140.9050   81.6727  224.1036 H       1  UNL1        0.0618
     38 H         143.0002   81.1526  222.8713 H       1  UNL1        0.0618
     39 H         143.1625   79.0658  221.5391 H       1  UNL1        0.0621
     40 H         139.0000   80.0908  223.9774 H       1  UNL1        0.0620
     41 H         138.7783   77.2377  223.6194 H       1  UNL1        0.0328
     42 H         137.9077   78.4355  222.6066 H       1  UNL1        0.0328
     43 H         138.1267   76.0944  221.6314 H       1  UNL1        0.0467
     44 H         138.7066   77.4462  220.5905 H       1  UNL1        0.0467
     45 H         138.7501   74.4842  222.8365 H       1  UNL1        0.0686
     46 H         138.0100   72.1450  223.4750 H       1  UNL1        0.1481
     47 H         140.3025   70.3495  223.0455 H       1  UNL1        0.0548
     48 H         137.5469   69.9391  223.7298 H       1  UNL1        0.0289
     49 H         138.7861   68.7303  223.2741 H       1  UNL1        0.0289
     50 H         137.6106   69.1488  225.8515 H       1  UNL1        0.0314
     51 H         138.9111   68.0263  225.4578 H       1  UNL1        0.0314
     52 H         139.5466   69.3595  228.1131 H       1  UNL1        0.0620
     53 H         141.1698   71.0420  228.7918 H       1  UNL1        0.0618
     54 H         142.1570   72.6597  227.1992 H       1  UNL1        0.0618
     55 H         141.4403   72.5420  224.8010 H       1  UNL1        0.0621
     56 H         143.7189   74.3099  220.0896 H       1  UNL1        0.0468
     57 H         144.9223   73.1137  220.5689 H       1  UNL1        0.0468
     58 H         143.1641   72.8950  218.0145 H       1  UNL1        0.0328
     59 H         144.8145   73.4970  217.9773 H       1  UNL1        0.0328
     60 H         146.0635   71.7358  217.0429 H       1  UNL1        0.0620
     61 H         146.8981   69.3864  217.1250 H       1  UNL1        0.0618
     62 H         145.8815   67.8122  218.7402 H       1  UNL1        0.0618
     63 H         144.0779   68.5492  220.2484 H       1  UNL1        0.0621
     64 H         141.9830   70.6074  220.0465 H       1  UNL1        0.0514
     65 H         143.1240   70.5400  221.4256 H       1  UNL1        0.0514
     66 H         142.2568   76.6681  221.4740 H       1  UNL1        0.0513
     67 H         141.3254   77.4434  220.1363 H       1  UNL1        0.0513
@<TRIPOS>BOND
     1     1     2   ar
     2     2     3   ar
     3     3     4   ar
     4     4     5   ar
     5     5     6   ar
     6     5     7    1
     7     7     8    1
     8     8     9    1
     9     9    10    1
    10    10    11   ar
    11    11    12   ar
    12    12    13    1
    13    13    14    1
    14    14    15    1
    15    15    16    1
    16    16    17    1
    17    17    18   ar
    18    18    19   ar
    19    19    20   ar
    20    20    21   ar
    21    21    22   ar
    22    12    23   ar
    23    23    24   ar
    24    24    25    1
    25    25    26    1
    26    26    27    1
    27    27    28    1
    28    28    29   ar
    29    29    30   ar
    30    30    31   ar
    31    31    32   ar
    32    32    33   ar
    33    33    34    1
    34    24    35   ar
    35     9    36    1
    36     6     1   ar
    37    35    10   ar
    38    36     4    1
    39    22    14    1
    40    34    25    1
    41    22    17   ar
    42    33    28   ar
    43     1    37    1
    44     2    38    1
    45     3    39    1
    46     6    40    1
    47     7    41    1
    48     7    42    1
    49     8    43    1
    50     8    44    1
    51    11    45    1
    52    13    46    1
    53    14    47    1
    54    15    48    1
    55    15    49    1
    56    16    50    1
    57    16    51    1
    58    18    52    1
    59    19    53    1
    60    20    54    1
    61    21    55    1
    62    26    56    1
    63    26    57    1
    64    27    58    1
    65    27    59    1
    66    29    60    1
    67    30    61    1
    68    31    62    1
    69    32    63    1
    70    34    64    1
    71    34    65    1
    72    36    66    1
    73    36    67    1
