@<TRIPOS>MOLECULE
*****
 60 64 0 0 0
SMALL
GASTEIGER

@<TRIPOS>ATOM
      1 O         137.9100   70.6480  221.0750 O.2     1  UNL1       -0.2685
      2 C         138.1380   71.3830  222.0670 C.2     1  UNL1        0.2628
      3 N         137.9000   72.7780  221.9650 N.am    1  UNL1       -0.3015
      4 C         137.4130   73.4830  220.8520 C.3     1  UNL1        0.0887
      5 C         138.2480   74.0500  219.8270 C.2     1  UNL1        0.2330
      6 O         137.5890   74.8270  218.9860 O.2     1  UNL1       -0.2739
      7 N         139.6110   73.9430  219.5360 N.am    1  UNL1       -0.2967
      8 C         140.4310   74.8660  218.7890 C.3     1  UNL1        0.0150
      9 C         140.9180   74.1470  217.5610 C.3     1  UNL1       -0.0371
     10 C         141.9200   73.1120  218.0850 C.3     1  UNL1       -0.0499
     11 C         141.2570   72.1560  219.0320 C.3     1  UNL1       -0.0338
     12 C         140.3410   72.7510  220.0410 C.3     1  UNL1        0.0344
     13 C         141.1580   73.1550  221.2480 C.3     1  UNL1        0.0426
     14 C         140.7990   74.5230  221.7260 C.ar    1  UNL1        0.1980
     15 N         139.6240   74.8140  222.3380 N.ar    1  UNL1       -0.2211
     16 C         139.6140   76.1420  222.6450 C.ar    1  UNL1        0.0739
     17 C         140.8320   76.6340  222.1900 C.ar    1  UNL1        0.1552
     18 C         141.2360   78.0350  222.3210 C.ar    1  UNL1        0.0188
     19 C         141.4600   78.6200  223.5360 C.ar    1  UNL1       -0.0510
     20 C         141.8430   79.9450  223.6900 C.ar    1  UNL1       -0.0611
     21 C         142.0030   80.7040  222.5350 C.ar    1  UNL1       -0.0617
     22 C         141.7750   80.1060  221.3080 C.ar    1  UNL1       -0.0611
     23 C         141.3960   78.7910  221.1780 C.ar    1  UNL1       -0.0510
     24 O         141.4870   75.6290  221.6580 O.2     1  UNL1       -0.4397
     25 C         138.6440   70.7890  223.3090 C.ar    1  UNL1        0.1260
     26 C         138.3460   69.4970  223.6260 C.ar    1  UNL1       -0.0306
     27 C         138.8540   68.9940  224.8130 C.ar    1  UNL1       -0.0503
     28 C         139.6350   69.7420  225.6630 C.ar    1  UNL1        0.0031
     29 C         140.1230   69.2050  226.8390 C.ar    1  UNL1       -0.0173
     30 C         140.9030   70.0470  227.6270 C.ar    1  UNL1        0.1241
     31 F         141.3960   69.5570  228.7810 F       1  UNL1       -0.2055
     32 C         141.1580   71.3390  227.2370 C.ar    1  UNL1       -0.0244
     33 C         140.6700   71.8740  226.0640 C.ar    1  UNL1       -0.0330
     34 C         139.8970   71.0470  225.2770 C.ar    1  UNL1        0.0720
     35 N         139.4000   71.5280  224.1250 N.ar    1  UNL1       -0.2421
     36 H         138.1240   73.3320  222.8510 H       1  UNL1        0.1496
     37 H         136.7353   72.7889  220.3334 H       1  UNL1        0.0558
     38 H         137.0294   74.3939  221.3348 H       1  UNL1        0.0558
     39 H         139.8374   75.7454  218.4986 H       1  UNL1        0.0465
     40 H         141.2797   75.2104  219.3982 H       1  UNL1        0.0465
     41 H         140.0824   73.6510  217.0454 H       1  UNL1        0.0280
     42 H         141.3728   74.8329  216.8312 H       1  UNL1        0.0280
     43 H         142.3333   72.5487  217.2354 H       1  UNL1        0.0266
     44 H         142.7214   73.6399  218.6226 H       1  UNL1        0.0266
     45 H         140.6747   71.4410  218.4322 H       1  UNL1        0.0283
     46 H         142.0758   71.7050  219.6117 H       1  UNL1        0.0283
     47 H         139.5859   71.9913  220.2912 H       1  UNL1        0.0505
     48 H         140.9754   72.4348  222.0592 H       1  UNL1        0.0378
     49 H         142.2188   73.1612  220.9571 H       1  UNL1        0.0378
     50 H         138.8126   76.7047  223.1462 H       1  UNL1        0.0868
     51 H         141.3297   78.0075  224.4404 H       1  UNL1        0.0625
     52 H         142.0135   80.3783  224.6866 H       1  UNL1        0.0618
     53 H         142.3052   81.7599  222.5960 H       1  UNL1        0.0618
     54 H         141.9026   80.7092  220.3970 H       1  UNL1        0.0618
     55 H         141.2241   78.3512  220.1845 H       1  UNL1        0.0625
     56 H         137.7248   68.8763  222.9635 H       1  UNL1        0.0641
     57 H         138.6233   67.9539  225.0868 H       1  UNL1        0.0625
     58 H         139.9069   68.1683  227.1365 H       1  UNL1        0.0653
     59 H         141.7776   71.9734  227.8879 H       1  UNL1        0.0647
     60 H         140.8870   72.9115  225.7699 H       1  UNL1        0.0640
@<TRIPOS>BOND
     1     1     2    2
     2     2     3   am
     3     3     4    1
     4     4     5    1
     5     5     6    2
     6     5     7   am
     7     7     8    1
     8     8     9    1
     9     9    10    1
    10    10    11    1
    11    11    12    1
    12    12    13    1
    13    13    14    1
    14    14    15   ar
    15    15    16   ar
    16    16    17   ar
    17    17    18    1
    18    18    19   ar
    19    19    20   ar
    20    20    21   ar
    21    21    22   ar
    22    22    23   ar
    23    17    24   ar
    24     2    25    1
    25    25    26   ar
    26    26    27   ar
    27    27    28   ar
    28    28    29   ar
    29    29    30   ar
    30    30    31    1
    31    30    32   ar
    32    32    33   ar
    33    33    34   ar
    34    34    35   ar
    35    12     7    1
    36    24    14   ar
    37    35    25   ar
    38    23    18   ar
    39    34    28   ar
    40     3    36    1
    41     4    37    1
    42     4    38    1
    43     8    39    1
    44     8    40    1
    45     9    41    1
    46     9    42    1
    47    10    43    1
    48    10    44    1
    49    11    45    1
    50    11    46    1
    51    12    47    1
    52    13    48    1
    53    13    49    1
    54    16    50    1
    55    19    51    1
    56    20    52    1
    57    21    53    1
    58    22    54    1
    59    23    55    1
    60    26    56    1
    61    27    57    1
    62    29    58    1
    63    32    59    1
    64    33    60    1
