@<TRIPOS>MOLECULE
*****
 54 58 0 0 0
SMALL
GASTEIGER

@<TRIPOS>ATOM
      1 O         141.2070   71.9570  221.7420 O.2     1  UNL1       -0.2685
      2 C         140.2920   72.0290  222.6080 C.2     1  UNL1        0.2628
      3 N         139.2790   73.0450  222.3890 N.am    1  UNL1       -0.3015
      4 C         139.4320   73.8380  221.2260 C.3     1  UNL1        0.0887
      5 C         140.4350   74.8800  221.1580 C.2     1  UNL1        0.2333
      6 O         140.1750   75.9160  221.9130 O.2     1  UNL1       -0.2739
      7 N         141.6470   74.9320  220.3970 N.am    1  UNL1       -0.2911
      8 C         142.9320   74.3600  220.6430 C.3     1  UNL1        0.0155
      9 C         143.6890   74.4210  219.3530 C.3     1  UNL1       -0.0351
     10 C         142.9380   75.3600  218.4750 C.3     1  UNL1       -0.0268
     11 C         141.6800   75.7150  219.1560 C.3     1  UNL1        0.0746
     12 C         141.8000   77.2030  219.4930 C.ar    1  UNL1        0.0994
     13 N         141.7830   77.8810  220.3980 N.ar    1  UNL1       -0.2421
     14 C         141.9020   79.2010  220.5110 C.ar    1  UNL1        0.0785
     15 C         141.8590   79.9420  221.7770 C.ar    1  UNL1        0.0009
     16 C         140.7120   80.5380  222.2610 C.ar    1  UNL1       -0.0526
     17 C         140.6660   81.2350  223.4480 C.ar    1  UNL1       -0.0611
     18 C         141.8200   81.3540  224.2110 C.ar    1  UNL1       -0.0617
     19 C         142.9940   80.7570  223.7400 C.ar    1  UNL1       -0.0611
     20 C         142.9920   80.0780  222.5590 C.ar    1  UNL1       -0.0526
     21 C         142.0750   79.8280  219.3040 C.ar    1  UNL1        0.0034
     22 S         142.0490   78.4150  218.0820 S.2     1  UNL1       -0.0781
     23 C         140.2170   71.1650  223.7750 C.ar    1  UNL1        0.1260
     24 C         139.6210   69.9220  223.5870 C.ar    1  UNL1       -0.0306
     25 C         139.5290   69.0700  224.6730 C.ar    1  UNL1       -0.0503
     26 C         140.0120   69.4390  225.8970 C.ar    1  UNL1        0.0031
     27 C         139.9190   68.5790  226.9950 C.ar    1  UNL1       -0.0173
     28 C         140.4230   69.0070  228.2050 C.ar    1  UNL1        0.1241
     29 F         140.3290   68.1690  229.2630 F       1  UNL1       -0.2055
     30 C         141.0090   70.2520  228.3550 C.ar    1  UNL1       -0.0244
     31 C         141.1000   71.0980  227.2690 C.ar    1  UNL1       -0.0330
     32 C         140.5980   70.6790  226.0530 C.ar    1  UNL1        0.0720
     33 N         140.6820   71.5020  224.9880 N.ar    1  UNL1       -0.2421
     34 H         138.5430   73.0630  223.1090 H       1  UNL1        0.1496
     35 H         139.6468   73.1434  220.4005 H       1  UNL1        0.0558
     36 H         138.4911   74.4071  221.1971 H       1  UNL1        0.0558
     37 H         143.4596   74.9344  221.4188 H       1  UNL1        0.0465
     38 H         142.8401   73.3226  220.9970 H       1  UNL1        0.0465
     39 H         144.7090   74.7945  219.5266 H       1  UNL1        0.0281
     40 H         143.7777   73.4259  218.8927 H       1  UNL1        0.0281
     41 H         143.5362   76.2664  218.3002 H       1  UNL1        0.0288
     42 H         142.7263   74.8879  217.5043 H       1  UNL1        0.0288
     43 H         140.7782   75.5187  218.5574 H       1  UNL1        0.0571
     44 H         139.7887   80.4520  221.6693 H       1  UNL1        0.0624
     45 H         139.7252   81.6925  223.7879 H       1  UNL1        0.0618
     46 H         141.8112   81.9047  225.1632 H       1  UNL1        0.0618
     47 H         143.9220   80.8361  224.3252 H       1  UNL1        0.0618
     48 H         143.9299   79.6190  222.2130 H       1  UNL1        0.0624
     49 H         142.1990   80.9025  219.1037 H       1  UNL1        0.0715
     50 H         139.2334   69.6247  222.6014 H       1  UNL1        0.0641
     51 H         139.0608   68.0823  224.5497 H       1  UNL1        0.0625
     52 H         139.4557   67.5862  226.8963 H       1  UNL1        0.0653
     53 H         141.3999   70.5651  229.3344 H       1  UNL1        0.0647
     54 H         141.5648   72.0898  227.3702 H       1  UNL1        0.0640
@<TRIPOS>BOND
     1     1     2    2
     2     2     3   am
     3     3     4    1
     4     4     5    1
     5     5     6    2
     6     5     7   am
     7     7     8    1
     8     8     9    1
     9     9    10    1
    10    10    11    1
    11    11    12    1
    12    12    13   ar
    13    13    14   ar
    14    14    15    1
    15    15    16   ar
    16    16    17   ar
    17    17    18   ar
    18    18    19   ar
    19    19    20   ar
    20    14    21   ar
    21    21    22   ar
    22     2    23    1
    23    23    24   ar
    24    24    25   ar
    25    25    26   ar
    26    26    27   ar
    27    27    28   ar
    28    28    29    1
    29    28    30   ar
    30    30    31   ar
    31    31    32   ar
    32    32    33   ar
    33    11     7    1
    34    22    12   ar
    35    33    23   ar
    36    20    15   ar
    37    32    26   ar
    38     3    34    1
    39     4    35    1
    40     4    36    1
    41     8    37    1
    42     8    38    1
    43     9    39    1
    44     9    40    1
    45    10    41    1
    46    10    42    1
    47    11    43    1
    48    16    44    1
    49    17    45    1
    50    18    46    1
    51    19    47    1
    52    20    48    1
    53    21    49    1
    54    24    50    1
    55    25    51    1
    56    27    52    1
    57    30    53    1
    58    31    54    1
