
 65 69  0  0  0  0  0  0  0  0999 V2000
  146.2820   73.1650  218.2860 O   0  0  0  0  0  0  0  0  0  0  0  0
  144.9800   72.6880  218.4080 C   0  0  0  0  0  0  0  0  0  0  0  0
  144.8950   71.8550  219.6500 C   0  0  0  0  0  0  0  0  0  0  0  0
  143.5580   71.8580  220.3040 C   0  0  0  0  0  0  0  0  0  0  0  0
  142.9430   73.1670  220.3550 N   0  0  0  0  0  0  0  0  0  0  0  0
  141.7150   73.2710  221.0970 C   0  0  0  0  0  0  0  0  0  0  0  0
  140.8290   74.2160  220.7110 N   0  0  0  0  0  0  0  0  0  0  0  0
  139.6270   74.3780  221.3300 C   0  0  0  0  0  0  0  0  0  0  0  0
  138.8230   75.4330  220.8560 N   0  0  0  0  0  0  0  0  0  0  0  0
  138.1730   76.4310  221.6750 C   0  0  0  0  0  0  0  0  0  0  0  0
  139.1370   76.9620  222.7250 C   0  0  0  0  0  0  0  0  0  0  0  0
  140.4260   77.4610  222.1410 C   0  0  0  0  0  0  0  0  0  0  0  0
  140.8790   78.7420  222.6820 C   0  0  0  0  0  0  0  0  0  0  0  0
  142.2440   79.0100  222.6410 C   0  0  0  0  0  0  0  0  0  0  0  0
  142.7920   80.1760  223.1190 C   0  0  0  0  0  0  0  0  0  0  0  0
  141.9700   81.1610  223.6770 C   0  0  0  0  0  0  0  0  0  0  0  0
  140.6230   80.9010  223.7180 C   0  0  0  0  0  0  0  0  0  0  0  0
  140.0840   79.7150  223.2320 C   0  0  0  0  0  0  0  0  0  0  0  0
  139.3320   73.5640  222.3530 N   0  0  0  0  0  0  0  0  0  0  0  0
  140.2100   72.6000  222.7640 C   0  0  0  0  0  0  0  0  0  0  0  0
  139.8780   71.7320  223.8470 N   0  0  0  0  0  0  0  0  0  0  0  0
  138.6220   70.9700  223.7200 C   0  0  0  0  0  0  0  0  0  0  0  0
  139.0950   69.5080  223.6780 C   0  0  0  0  0  0  0  0  0  0  0  0
  139.6610   69.2670  225.0460 C   0  0  0  0  0  0  0  0  0  0  0  0
  139.4200   68.0540  225.6440 C   0  0  0  0  0  0  0  0  0  0  0  0
  139.9130   67.7760  226.9130 C   0  0  0  0  0  0  0  0  0  0  0  0
  140.6500   68.7820  227.5250 C   0  0  0  0  0  0  0  0  0  0  0  0
  140.8880   70.0030  226.9100 C   0  0  0  0  0  0  0  0  0  0  0  0
  140.3810   70.2600  225.6350 C   0  0  0  0  0  0  0  0  0  0  0  0
  140.6730   71.5840  225.0320 C   0  0  0  0  0  0  0  0  0  0  0  0
  141.4110   72.4620  222.1240 N   0  0  0  0  0  0  0  0  0  0  0  0
  143.5210   74.2990  219.6940 C   0  0  0  0  0  0  0  0  0  0  0  0
  144.0340   73.8240  218.3510 C   0  0  0  0  0  0  0  0  0  0  0  0
  146.3260   74.1460  218.2800 H   0  0  0  0  0  0  0  0  0  0  0  0
  144.6961   72.0299  217.5736 H   0  0  0  0  0  0  0  0  0  0  0  0
  145.1460   70.8172  219.3856 H   0  0  0  0  0  0  0  0  0  0  0  0
  145.5978   72.2965  220.3719 H   0  0  0  0  0  0  0  0  0  0  0  0
  142.8946   71.1833  219.7431 H   0  0  0  0  0  0  0  0  0  0  0  0
  143.7056   71.5293  221.3433 H   0  0  0  0  0  0  0  0  0  0  0  0
  138.6840   75.4970  219.8230 H   0  0  0  0  0  0  0  0  0  0  0  0
  137.8379   77.2619  221.0369 H   0  0  0  0  0  0  0  0  0  0  0  0
  137.3104   75.9724  222.1806 H   0  0  0  0  0  0  0  0  0  0  0  0
  138.6505   77.7912  223.2596 H   0  0  0  0  0  0  0  0  0  0  0  0
  139.3828   76.1268  223.3973 H   0  0  0  0  0  0  0  0  0  0  0  0
  141.2057   76.7101  222.3365 H   0  0  0  0  0  0  0  0  0  0  0  0
  140.2433   77.6206  221.0681 H   0  0  0  0  0  0  0  0  0  0  0  0
  142.9147   78.2542  222.2063 H   0  0  0  0  0  0  0  0  0  0  0  0
  143.8790   80.3352  223.0628 H   0  0  0  0  0  0  0  0  0  0  0  0
  142.3851   82.1026  224.0658 H   0  0  0  0  0  0  0  0  0  0  0  0
  139.9482   81.6551  224.1492 H   0  0  0  0  0  0  0  0  0  0  0  0
  138.9974   79.5537  223.2898 H   0  0  0  0  0  0  0  0  0  0  0  0
  137.9653   71.1466  224.5847 H   0  0  0  0  0  0  0  0  0  0  0  0
  138.0334   71.2565  222.8360 H   0  0  0  0  0  0  0  0  0  0  0  0
  138.2516   68.8303  223.4794 H   0  0  0  0  0  0  0  0  0  0  0  0
  139.8287   69.3245  222.8793 H   0  0  0  0  0  0  0  0  0  0  0  0
  138.8296   67.2936  225.1118 H   0  0  0  0  0  0  0  0  0  0  0  0
  139.7294   66.8104  227.4069 H   0  0  0  0  0  0  0  0  0  0  0  0
  141.0586   68.6048  228.5308 H   0  0  0  0  0  0  0  0  0  0  0  0
  141.4788   70.7718  227.4295 H   0  0  0  0  0  0  0  0  0  0  0  0
  140.4229   72.3807  225.7480 H   0  0  0  0  0  0  0  0  0  0  0  0
  141.7413   71.6548  224.7794 H   0  0  0  0  0  0  0  0  0  0  0  0
  142.7600   75.0803  219.5511 H   0  0  0  0  0  0  0  0  0  0  0  0
  144.3386   74.7244  220.2944 H   0  0  0  0  0  0  0  0  0  0  0  0
  143.1690   73.5173  217.7446 H   0  0  0  0  0  0  0  0  0  0  0  0
  144.5931   74.6677  217.9202 H   0  0  0  0  0  0  0  0  0  0  0  0
  1  2  1  0
  2  3  1  0
  3  4  1  0
  4  5  1  0
  5  6  1  0
  6  7  2  0
  7  8  1  0
  8  9  1  0
  9 10  1  0
 10 11  1  0
 11 12  1  0
 12 13  1  0
 13 14  2  0
 14 15  1  0
 15 16  2  0
 16 17  1  0
 17 18  2  0
  8 19  2  0
 19 20  1  0
 20 21  1  0
 21 22  1  0
 22 23  1  0
 23 24  1  0
 24 25  2  0
 25 26  1  0
 26 27  2  0
 27 28  1  0
 28 29  2  0
 29 30  1  0
 20 31  2  0
  5 32  1  0
 32 33  1  0
 33  2  1  0
 31  6  1  0
 18 13  1  0
 30 21  1  0
 29 24  1  0
  1 34  1  0
  2 35  1  0
  3 36  1  0
  3 37  1  0
  4 38  1  0
  4 39  1  0
  9 40  1  0
 10 41  1  0
 10 42  1  0
 11 43  1  0
 11 44  1  0
 12 45  1  0
 12 46  1  0
 14 47  1  0
 15 48  1  0
 16 49  1  0
 17 50  1  0
 18 51  1  0
 22 52  1  0
 22 53  1  0
 23 54  1  0
 23 55  1  0
 25 56  1  0
 26 57  1  0
 27 58  1  0
 28 59  1  0
 30 60  1  0
 30 61  1  0
 32 62  1  0
 32 63  1  0
 33 64  1  0
 33 65  1  0
M  END
