
 63 67  0  0  0  0  0  0  0  0999 V2000
  138.1590   70.1200  221.7400 O   0  0  0  0  0  0  0  0  0  0  0  0
  138.6880   70.7530  222.6980 C   0  0  0  0  0  0  0  0  0  0  0  0
  138.8960   72.1770  222.6400 N   0  0  0  0  0  0  0  0  0  0  0  0
  138.5020   72.9220  221.4920 C   0  0  0  0  0  0  0  0  0  0  0  0
  138.9920   74.2780  221.4230 C   0  0  0  0  0  0  0  0  0  0  0  0
  139.6010   74.6740  222.5120 O   0  0  0  0  0  0  0  0  0  0  0  0
  138.9250   75.2430  220.4000 N   0  0  0  0  0  0  0  0  0  0  0  0
  137.7890   75.9460  219.8220 C   0  0  0  0  0  0  0  0  0  0  0  0
  138.4330   77.2360  219.2740 C   0  0  0  0  0  0  0  0  0  0  0  0
  139.7260   76.6810  218.6620 C   0  0  0  0  0  0  0  0  0  0  0  0
  140.1650   75.6920  219.7170 C   0  0  1  0  0  0  0  0  0  0  0  0
  140.9560   76.4060  220.7800 C   0  0  0  0  0  0  0  0  0  0  0  0
  142.1990   76.5300  220.5030 O   0  0  0  0  0  0  0  0  0  0  0  0
  140.4130   76.9000  221.9660 N   0  0  0  0  0  0  0  0  0  0  0  0
  141.1620   77.5900  223.0050 C   0  0  0  0  0  0  0  0  0  0  0  0
  141.3890   79.0230  222.6940 C   0  0  0  0  0  0  0  0  0  0  0  0
  141.5100   79.9430  223.7290 C   0  0  0  0  0  0  0  0  0  0  0  0
  141.7240   81.2860  223.5030 C   0  0  0  0  0  0  0  0  0  0  0  0
  141.8240   81.7520  222.1880 C   0  0  0  0  0  0  0  0  0  0  0  0
  141.7070   80.8580  221.1430 C   0  0  0  0  0  0  0  0  0  0  0  0
  141.8050   81.3170  219.7610 C   0  0  0  0  0  0  0  0  0  0  0  0
  141.5280   82.5870  219.4210 N   0  0  0  0  0  0  0  0  0  0  0  0
  141.6260   82.9930  218.1220 C   0  0  0  0  0  0  0  0  0  0  0  0
  142.0100   82.1240  217.1160 C   0  0  0  0  0  0  0  0  0  0  0  0
  142.2910   80.8180  217.4880 C   0  0  0  0  0  0  0  0  0  0  0  0
  142.1800   80.4570  218.7970 N   0  0  0  0  0  0  0  0  0  0  0  0
  141.4940   79.5250  221.4170 C   0  0  0  0  0  0  0  0  0  0  0  0
  139.1090   70.0420  223.9160 C   0  0  0  0  0  0  0  0  0  0  0  0
  138.8780   68.6790  223.9990 C   0  0  0  0  0  0  0  0  0  0  0  0
  139.2560   67.9820  225.1200 C   0  0  0  0  0  0  0  0  0  0  0  0
  139.8650   68.6360  226.1630 C   0  0  0  0  0  0  0  0  0  0  0  0
  140.2300   67.9240  227.2630 C   0  0  0  0  0  0  0  0  0  0  0  0
  140.8400   68.5790  228.3090 C   0  0  0  0  0  0  0  0  0  0  0  0
  141.2250   67.9110  229.4320 F   0  0  0  0  0  0  0  0  0  0  0  0
  141.0560   69.9390  228.1960 C   0  0  0  0  0  0  0  0  0  0  0  0
  140.6890   70.6710  227.0850 C   0  0  0  0  0  0  0  0  0  0  0  0
  140.0790   69.9990  226.0460 C   0  0  0  0  0  0  0  0  0  0  0  0
  139.7090   70.6890  224.9460 N   0  0  0  0  0  0  0  0  0  0  0  0
  139.3510   72.6310  223.4860 H   0  0  0  0  0  0  0  0  0  0  0  0
  138.8644   72.3868  220.6019 H   0  0  0  0  0  0  0  0  0  0  0  0
  137.4066   73.0034  221.5509 H   0  0  0  0  0  0  0  0  0  0  0  0
  137.3279   75.3586  219.0143 H   0  0  0  0  0  0  0  0  0  0  0  0
  136.9790   76.1339  220.5422 H   0  0  0  0  0  0  0  0  0  0  0  0
  137.7979   77.7126  218.5127 H   0  0  0  0  0  0  0  0  0  0  0  0
  138.5892   78.0207  220.0289 H   0  0  0  0  0  0  0  0  0  0  0  0
  139.5327   76.1824  217.7007 H   0  0  0  0  0  0  0  0  0  0  0  0
  140.4772   77.4509  218.4318 H   0  0  0  0  0  0  0  0  0  0  0  0
  140.7524   74.8827  219.2587 H   0  0  0  0  0  0  0  0  0  0  0  0
  139.3800   76.7930  222.1650 H   0  0  0  0  0  0  0  0  0  0  0  0
  140.6009   77.5196  223.9485 H   0  0  0  0  0  0  0  0  0  0  0  0
  142.1474   77.1069  223.0796 H   0  0  0  0  0  0  0  0  0  0  0  0
  141.4321   79.5863  224.7666 H   0  0  0  0  0  0  0  0  0  0  0  0
  141.8152   81.9840  224.3483 H   0  0  0  0  0  0  0  0  0  0  0  0
  141.9942   82.8203  221.9887 H   0  0  0  0  0  0  0  0  0  0  0  0
  141.3938   84.0378  217.8680 H   0  0  0  0  0  0  0  0  0  0  0  0
  142.0887   82.4539  216.0696 H   0  0  0  0  0  0  0  0  0  0  0  0
  142.6007   80.0803  216.7331 H   0  0  0  0  0  0  0  0  0  0  0  0
  141.4032   78.8263  220.5722 H   0  0  0  0  0  0  0  0  0  0  0  0
  138.3905   68.1534  223.1647 H   0  0  0  0  0  0  0  0  0  0  0  0
  139.0710   66.8995  225.1828 H   0  0  0  0  0  0  0  0  0  0  0  0
  140.0407   66.8417  227.3160 H   0  0  0  0  0  0  0  0  0  0  0  0
  141.5436   70.4632  229.0311 H   0  0  0  0  0  0  0  0  0  0  0  0
  140.8765   71.7535  227.0299 H   0  0  0  0  0  0  0  0  0  0  0  0
  1  2  2  0
  2  3  1  0
  3  4  1  0
  4  5  1  0
  5  6  2  0
  5  7  1  0
  7  8  1  0
  8  9  1  0
  9 10  1  0
 10 11  1  0
 11 12  1  0
 12 13  2  0
 12 14  1  0
 14 15  1  0
 15 16  1  0
 16 17  2  0
 17 18  1  0
 18 19  2  0
 19 20  1  0
 20 21  1  0
 21 22  2  0
 22 23  1  0
 23 24  2  0
 24 25  1  0
 25 26  2  0
 20 27  2  0
  2 28  1  0
 28 29  2  0
 29 30  1  0
 30 31  2  0
 31 32  1  0
 32 33  2  0
 33 34  1  0
 33 35  1  0
 35 36  2  0
 36 37  1  0
 37 38  2  0
 11  7  1  0
 27 16  1  0
 38 28  1  0
 26 21  1  0
 37 31  1  0
  3 39  1  0
  4 40  1  0
  4 41  1  0
  8 42  1  0
  8 43  1  0
  9 44  1  0
  9 45  1  0
 10 46  1  0
 10 47  1  0
 11 48  1  6
 14 49  1  0
 15 50  1  0
 15 51  1  0
 17 52  1  0
 18 53  1  0
 19 54  1  0
 23 55  1  0
 24 56  1  0
 25 57  1  0
 27 58  1  0
 29 59  1  0
 30 60  1  0
 32 61  1  0
 35 62  1  0
 36 63  1  0
M  END
