@<TRIPOS>MOLECULE
*****
 42 43 0 0 0
SMALL
GASTEIGER

@<TRIPOS>ATOM
      1 O         140.3190   74.9350  222.3030 O.2     1  UNL1       -0.2741
      2 C         139.8550   74.0520  221.5380 C.2     1  UNL1        0.2323
      3 C         139.1320   74.3690  220.2800 C.3     1  UNL1        0.0287
      4 C         139.1860   73.2740  219.2770 C.3     1  UNL1       -0.0103
      5 C         140.4410   73.5190  218.4030 C.3     1  UNL1        0.0901
      6 O         141.5810   73.4870  219.0210 O.3     1  UNL1       -0.4905
      7 C         142.7060   73.4560  219.6280 C.ar    1  UNL1        0.1388
      8 C         143.2420   72.2730  220.1570 C.ar    1  UNL1       -0.0171
      9 C         144.4510   72.2380  220.8090 C.ar    1  UNL1       -0.0398
     10 C         145.1390   73.4170  220.9380 C.ar    1  UNL1        0.0426
     11 CL        146.6720   73.3920  221.7630 Cl      1  UNL1       -0.0835
     12 C         144.6830   74.6140  220.4500 C.ar    1  UNL1       -0.0215
     13 C         143.4750   74.6190  219.8030 C.ar    1  UNL1        0.0839
     14 CL        142.8430   76.1110  219.1610 Cl      1  UNL1       -0.0797
     15 N         139.9960   72.6420  221.8350 N.am    1  UNL1       -0.2070
     16 N         140.6560   72.3080  222.9830 N.2     1  UNL1       -0.1877
     17 C         140.2230   71.4330  223.7830 C.2     1  UNL1        0.0528
     18 C         140.5330   71.2020  225.1640 C.ar    1  UNL1       -0.0049
     19 C         141.0310   72.0910  226.0700 C.ar    1  UNL1       -0.0531
     20 C         141.3110   71.7820  227.3940 C.ar    1  UNL1       -0.0606
     21 C         141.0870   70.5190  227.8610 C.ar    1  UNL1       -0.0501
     22 C         140.5830   69.5990  226.9650 C.ar    1  UNL1        0.0554
     23 C         140.3340   68.2270  227.4490 C.3     1  UNL1        0.4174
     24 F         139.2430   67.6890  226.7970 F       1  UNL1       -0.1659
     25 F         141.4430   67.4260  227.1770 F       1  UNL1       -0.1659
     26 F         140.1660   68.1810  228.8230 F       1  UNL1       -0.1659
     27 C         140.3070   69.9120  225.6550 C.ar    1  UNL1       -0.0415
     28 H         138.0778   74.5669  220.5240 H       1  UNL1        0.0360
     29 H         139.6263   75.2440  219.8328 H       1  UNL1        0.0360
     30 H         139.2635   72.3010  219.7843 H       1  UNL1        0.0302
     31 H         138.2753   73.2626  218.6602 H       1  UNL1        0.0302
     32 H         140.4613   72.7468  217.6198 H       1  UNL1        0.0696
     33 H         140.3400   74.5458  218.0215 H       1  UNL1        0.0696
     34 H         142.6733   71.3380  220.0458 H       1  UNL1        0.0655
     35 H         144.8528   71.2972  221.2133 H       1  UNL1        0.0633
     36 H         145.2664   75.5383  220.5734 H       1  UNL1        0.0648
     37 H         139.5770   71.9130  221.1820 H       1  UNL1        0.1772
     38 H         139.4900   70.7355  223.3516 H       1  UNL1        0.0851
     39 H         141.2233   73.1193  225.7298 H       1  UNL1        0.0624
     40 H         141.7131   72.5542  228.0663 H       1  UNL1        0.0618
     41 H         141.2990   70.2469  228.9055 H       1  UNL1        0.0623
     42 H         139.9036   69.1385  224.9849 H       1  UNL1        0.0629
@<TRIPOS>BOND
     1     1     2    2
     2     2     3    1
     3     3     4    1
     4     4     5    1
     5     5     6    1
     6     6     7    1
     7     7     8   ar
     8     8     9   ar
     9     9    10   ar
    10    10    11    1
    11    10    12   ar
    12    12    13   ar
    13    13    14    1
    14     2    15   am
    15    15    16    1
    16    16    17    2
    17    17    18    1
    18    18    19   ar
    19    19    20   ar
    20    20    21   ar
    21    21    22   ar
    22    22    23    1
    23    23    24    1
    24    23    25    1
    25    23    26    1
    26    22    27   ar
    27    13     7   ar
    28    27    18   ar
    29     3    28    1
    30     3    29    1
    31     4    30    1
    32     4    31    1
    33     5    32    1
    34     5    33    1
    35     8    34    1
    36     9    35    1
    37    12    36    1
    38    15    37    1
    39    17    38    1
    40    19    39    1
    41    20    40    1
    42    21    41    1
    43    27    42    1
