
     RDKit          3D

 61 66  0  0  1  0  0  0  0  0999 V2000
  137.1700   78.6000  222.9280 O   0  0  0  0  0  0  0  0  0  0  0  0
  138.0480   79.5160  223.1130 C   0  0  0  0  0  0  0  0  0  0  0  0
  137.6380   80.6360  223.9140 C   0  0  0  0  0  0  0  0  0  0  0  0
  137.6390   80.7340  225.3030 C   0  0  0  0  0  0  0  0  0  0  0  0
  137.1710   81.9860  225.6690 C   0  0  0  0  0  0  0  0  0  0  0  0
  136.9670   82.6080  226.8880 C   0  0  0  0  0  0  0  0  0  0  0  0
  136.4780   83.8910  226.9260 C   0  0  0  0  0  0  0  0  0  0  0  0
  136.1970   84.5470  225.7390 C   0  0  0  0  0  0  0  0  0  0  0  0
  136.4020   83.9220  224.5080 C   0  0  0  0  0  0  0  0  0  0  0  0
  136.8890   82.6440  224.4760 C   0  0  0  0  0  0  0  0  0  0  0  0
  137.1740   81.8230  223.4340 N   0  0  0  0  0  0  0  0  0  0  0  0
  139.3270   79.3570  222.5230 N   0  0  0  0  0  0  0  0  0  0  0  0
  139.6240   78.6150  221.3160 C   0  0  0  0  0  0  0  0  0  0  0  0
  141.0180   78.0730  221.6540 C   0  0  1  0  0  0  0  0  0  0  0  0
  140.8520   76.7910  222.3800 C   0  0  0  0  0  0  0  0  0  0  0  0
  141.1940   75.7340  221.3710 C   0  0  0  0  0  0  0  0  0  0  0  0
  141.7720   76.3530  220.2310 N   0  0  0  0  0  0  0  0  0  0  0  0
  142.9550   75.7560  219.7090 C   0  0  0  0  0  0  0  0  0  0  0  0
  142.8100   74.3280  219.3090 C   0  0  0  0  0  0  0  0  0  0  0  0
  144.0000   73.5330  219.7850 C   0  0  2  0  0  0  0  0  0  0  0  0
  145.0210   74.3890  220.5100 C   0  0  0  0  0  0  0  0  0  0  0  0
  146.2030   73.4060  220.5250 C   0  0  0  0  0  0  0  0  0  0  0  0
  146.2280   73.0650  219.0960 N   0  0  0  0  0  0  0  0  0  0  0  0
  144.8370   72.9630  218.6740 C   0  0  0  0  0  0  0  0  0  0  0  0
  141.8030   77.7620  220.4300 C   0  0  0  0  0  0  0  0  0  0  0  0
  141.6230   79.1450  222.4810 C   0  0  0  0  0  0  0  0  0  0  0  0
  142.9490   79.4120  222.7500 C   0  0  0  0  0  0  0  0  0  0  0  0
  143.2470   80.4870  223.5690 C   0  0  0  0  0  0  0  0  0  0  0  0
  142.2120   81.2430  224.0810 C   0  0  0  0  0  0  0  0  0  0  0  0
  140.8840   80.9460  223.7910 C   0  0  0  0  0  0  0  0  0  0  0  0
  140.5800   79.8900  222.9840 C   0  0  0  0  0  0  0  0  0  0  0  0
  137.9598   79.9443  225.9983 H   0  0  0  0  0  0  0  0  0  0  0  0
  137.1957   82.0767  227.8237 H   0  0  0  0  0  0  0  0  0  0  0  0
  136.3111   84.3929  227.8905 H   0  0  0  0  0  0  0  0  0  0  0  0
  135.8068   85.5751  225.7668 H   0  0  0  0  0  0  0  0  0  0  0  0
  136.1739   84.4524  223.5717 H   0  0  0  0  0  0  0  0  0  0  0  0
  137.0370   82.1090  222.4390 H   0  0  0  0  0  0  0  0  0  0  0  0
  138.9015   77.8020  221.1515 H   0  0  0  0  0  0  0  0  0  0  0  0
  139.5758   79.2081  220.3909 H   0  0  0  0  0  0  0  0  0  0  0  0
  141.5354   76.7413  223.2405 H   0  0  0  0  0  0  0  0  0  0  0  0
  139.8353   76.6691  222.7817 H   0  0  0  0  0  0  0  0  0  0  0  0
  141.9114   75.0244  221.8089 H   0  0  0  0  0  0  0  0  0  0  0  0
  140.2831   75.1915  221.0777 H   0  0  0  0  0  0  0  0  0  0  0  0
  143.2657   76.3296  218.8233 H   0  0  0  0  0  0  0  0  0  0  0  0
  143.6965   75.7763  220.5212 H   0  0  0  0  0  0  0  0  0  0  0  0
  141.8941   73.9158  219.7575 H   0  0  0  0  0  0  0  0  0  0  0  0
  142.7506   74.2656  218.2124 H   0  0  0  0  0  0  0  0  0  0  0  0
  143.5231   72.7626  220.4088 H   0  0  0  0  0  0  0  0  0  0  0  0
  145.2572   75.3077  219.9531 H   0  0  0  0  0  0  0  0  0  0  0  0
  144.7069   74.7619  221.4960 H   0  0  0  0  0  0  0  0  0  0  0  0
  147.1367   73.8870  220.8518 H   0  0  0  0  0  0  0  0  0  0  0  0
  146.1052   72.5552  221.2153 H   0  0  0  0  0  0  0  0  0  0  0  0
  146.6870   73.9030  218.6320 H   0  0  0  0  0  0  0  0  0  0  0  0
  144.6794   73.5371  217.7490 H   0  0  0  0  0  0  0  0  0  0  0  0
  144.5629   71.9171  218.4717 H   0  0  0  0  0  0  0  0  0  0  0  0
  142.8426   78.0976  220.5585 H   0  0  0  0  0  0  0  0  0  0  0  0
  141.3729   78.2794  219.5597 H   0  0  0  0  0  0  0  0  0  0  0  0
  143.7484   78.7872  222.3250 H   0  0  0  0  0  0  0  0  0  0  0  0
  144.2917   80.7349  223.8080 H   0  0  0  0  0  0  0  0  0  0  0  0
  142.4420   82.0989  224.7325 H   0  0  0  0  0  0  0  0  0  0  0  0
  140.0781   81.5641  224.2135 H   0  0  0  0  0  0  0  0  0  0  0  0
  1  2  2  0
  2  3  1  0
  3  4  2  0
  4  5  1  0
  5  6  2  0
  6  7  1  0
  7  8  2  0
  8  9  1  0
  9 10  2  0
 10 11  1  0
  2 12  1  0
 12 13  1  0
 14 13  1  6
 14 15  1  0
 15 16  1  0
 16 17  1  0
 17 18  1  0
 18 19  1  0
 19 20  1  0
 20 21  1  0
 21 22  1  0
 22 23  1  0
 23 24  1  0
 17 25  1  0
 14 26  1  0
 26 27  2  0
 27 28  1  0
 28 29  2  0
 29 30  1  0
 30 31  2  0
 11  3  1  0
 31 12  1  0
 10  5  1  0
 25 14  1  0
 31 26  1  0
 24 20  1  0
  4 32  1  0
  6 33  1  0
  7 34  1  0
  8 35  1  0
  9 36  1  0
 11 37  1  0
 13 38  1  0
 13 39  1  0
 15 40  1  0
 15 41  1  0
 16 42  1  0
 16 43  1  0
 18 44  1  0
 18 45  1  0
 19 46  1  0
 19 47  1  0
 20 48  1  1
 21 49  1  0
 21 50  1  0
 22 51  1  0
 22 52  1  0
 23 53  1  0
 24 54  1  0
 24 55  1  0
 25 56  1  0
 25 57  1  0
 27 58  1  0
 28 59  1  0
 29 60  1  0
 30 61  1  0
M  END
>  <smiles>  (1) 
O=C(c1cc2ccccc2[nH]1)N1C[C@]2(CCN(CCC3CCNC3)C2)c2ccccc21

>  <score_type>  (1) 
oracle

>  <origin>  (1) 
autodockgpu

>  <m_score__min__energy>  (1) 
-9.6400000000000006

>  <m_primary>  (1) 
energy

>  <rmsd>  (1) 
10.138162978851327

>  <m_score__min__rmsd>  (1) 
10.138162978851327

>  <meeko>  (1) 
{"free_energy": -9.61, "intermolecular_energy": -11.1, "internal_energy": -1.24, "cluster_size": 45, "cluster_id": 1, "rank_in_cluster": 6}

>  <energy>  (1) 
-9.64

>  <cluster_rmsd>  (1) 
0.0

>  <cluster>  (1) 
1

$$$$

     RDKit          3D

 61 66  0  0  1  0  0  0  0  0999 V2000
  137.3590   80.2580  221.0160 O   0  0  0  0  0  0  0  0  0  0  0  0
  138.2330   80.4360  221.9380 C   0  0  0  0  0  0  0  0  0  0  0  0
  137.7680   81.0710  223.1400 C   0  0  0  0  0  0  0  0  0  0  0  0
  137.7180   80.5320  224.4230 C   0  0  0  0  0  0  0  0  0  0  0  0
  137.2070   81.4820  225.2920 C   0  0  0  0  0  0  0  0  0  0  0  0
  136.9450   81.4850  226.6510 C   0  0  0  0  0  0  0  0  0  0  0  0
  136.4240   82.6100  227.2430 C   0  0  0  0  0  0  0  0  0  0  0  0
  136.1670   83.7290  226.4670 C   0  0  0  0  0  0  0  0  0  0  0  0
  136.4310   83.7280  225.0970 C   0  0  0  0  0  0  0  0  0  0  0  0
  136.9500   82.6050  224.5130 C   0  0  0  0  0  0  0  0  0  0  0  0
  137.2910   82.3450  223.2260 N   0  0  0  0  0  0  0  0  0  0  0  0
  139.5620   80.0020  221.7040 N   0  0  0  0  0  0  0  0  0  0  0  0
  139.9970   79.1160  220.6440 C   0  0  0  0  0  0  0  0  0  0  0  0
  141.1340   78.3680  221.3500 C   0  0  1  0  0  0  0  0  0  0  0  0
  140.5500   77.2040  222.0600 C   0  0  0  0  0  0  0  0  0  0  0  0
  140.9180   76.0200  221.2160 C   0  0  0  0  0  0  0  0  0  0  0  0
  141.8670   76.4250  220.2400 N   0  0  0  0  0  0  0  0  0  0  0  0
  143.0030   75.5840  220.0630 C   0  0  0  0  0  0  0  0  0  0  0  0
  142.7250   74.1250  220.1730 C   0  0  0  0  0  0  0  0  0  0  0  0
  144.0190   73.3530  220.2310 C   0  0  2  0  0  0  0  0  0  0  0  0
  145.1520   74.1600  220.8340 C   0  0  0  0  0  0  0  0  0  0  0  0
  146.3370   73.2710  220.4210 C   0  0  0  0  0  0  0  0  0  0  0  0
  146.0370   73.1520  218.9870 N   0  0  0  0  0  0  0  0  0  0  0  0
  144.5900   73.0170  218.8810 C   0  0  0  0  0  0  0  0  0  0  0  0
  142.1190   77.8180  220.3840 C   0  0  0  0  0  0  0  0  0  0  0  0
  141.7130   79.3850  222.2620 C   0  0  0  0  0  0  0  0  0  0  0  0
  142.9580   79.4360  222.8520 C   0  0  0  0  0  0  0  0  0  0  0  0
  143.2470   80.5100  223.6770 C   0  0  0  0  0  0  0  0  0  0  0  0
  142.2850   81.4780  223.8740 C   0  0  0  0  0  0  0  0  0  0  0  0
  141.0370   81.3960  223.2640 C   0  0  0  0  0  0  0  0  0  0  0  0
  140.7420   80.3430  222.4500 C   0  0  0  0  0  0  0  0  0  0  0  0
  138.0334   79.5157  224.7015 H   0  0  0  0  0  0  0  0  0  0  0  0
  137.1532   80.5896  227.2551 H   0  0  0  0  0  0  0  0  0  0  0  0
  136.2129   82.6224  228.3225 H   0  0  0  0  0  0  0  0  0  0  0  0
  135.7489   84.6309  226.9379 H   0  0  0  0  0  0  0  0  0  0  0  0
  136.2236   84.6226  224.4915 H   0  0  0  0  0  0  0  0  0  0  0  0
  137.1820   83.0480  222.4620 H   0  0  0  0  0  0  0  0  0  0  0  0
  139.1940   78.4321  220.3318 H   0  0  0  0  0  0  0  0  0  0  0  0
  140.2924   79.6252  219.7148 H   0  0  0  0  0  0  0  0  0  0  0  0
  140.9787   77.1097  223.0686 H   0  0  0  0  0  0  0  0  0  0  0  0
  139.4621   77.2995  222.1916 H   0  0  0  0  0  0  0  0  0  0  0  0
  141.3545   75.2354  221.8516 H   0  0  0  0  0  0  0  0  0  0  0  0
  140.0199   75.6241  220.7193 H   0  0  0  0  0  0  0  0  0  0  0  0
  143.4198   75.7782  219.0637 H   0  0  0  0  0  0  0  0  0  0  0  0
  143.6986   75.8284  220.8794 H   0  0  0  0  0  0  0  0  0  0  0  0
  142.1457   73.9332  221.0882 H   0  0  0  0  0  0  0  0  0  0  0  0
  142.1519   73.8006  219.2919 H   0  0  0  0  0  0  0  0  0  0  0  0
  143.7284   72.4659  220.8129 H   0  0  0  0  0  0  0  0  0  0  0  0
  145.2197   75.1660  220.3943 H   0  0  0  0  0  0  0  0  0  0  0  0
  145.0662   74.3581  221.9126 H   0  0  0  0  0  0  0  0  0  0  0  0
  147.3048   73.7615  220.6018 H   0  0  0  0  0  0  0  0  0  0  0  0
  146.4325   72.3212  220.9676 H   0  0  0  0  0  0  0  0  0  0  0  0
  146.3450   74.0800  218.5750 H   0  0  0  0  0  0  0  0  0  0  0  0
  144.2001   73.7113  218.1221 H   0  0  0  0  0  0  0  0  0  0  0  0
  144.3112   71.9967  218.5788 H   0  0  0  0  0  0  0  0  0  0  0  0
  143.1399   77.9750  220.7624 H   0  0  0  0  0  0  0  0  0  0  0  0
  142.0235   78.3248  219.4124 H   0  0  0  0  0  0  0  0  0  0  0  0
  143.7013   78.6453  222.6724 H   0  0  0  0  0  0  0  0  0  0  0  0
  144.2284   80.5896  224.1674 H   0  0  0  0  0  0  0  0  0  0  0  0
  142.5090   82.3338  224.5277 H   0  0  0  0  0  0  0  0  0  0  0  0
  140.2875   82.1819  223.4389 H   0  0  0  0  0  0  0  0  0  0  0  0
  1  2  2  0
  2  3  1  0
  3  4  2  0
  4  5  1  0
  5  6  2  0
  6  7  1  0
  7  8  2  0
  8  9  1  0
  9 10  2  0
 10 11  1  0
  2 12  1  0
 12 13  1  0
 14 13  1  6
 14 15  1  0
 15 16  1  0
 16 17  1  0
 17 18  1  0
 18 19  1  0
 19 20  1  0
 20 21  1  0
 21 22  1  0
 22 23  1  0
 23 24  1  0
 17 25  1  0
 14 26  1  0
 26 27  2  0
 27 28  1  0
 28 29  2  0
 29 30  1  0
 30 31  2  0
 11  3  1  0
 31 12  1  0
 10  5  1  0
 25 14  1  0
 31 26  1  0
 24 20  1  0
  4 32  1  0
  6 33  1  0
  7 34  1  0
  8 35  1  0
  9 36  1  0
 11 37  1  0
 13 38  1  0
 13 39  1  0
 15 40  1  0
 15 41  1  0
 16 42  1  0
 16 43  1  0
 18 44  1  0
 18 45  1  0
 19 46  1  0
 19 47  1  0
 20 48  1  1
 21 49  1  0
 21 50  1  0
 22 51  1  0
 22 52  1  0
 23 53  1  0
 24 54  1  0
 24 55  1  0
 25 56  1  0
 25 57  1  0
 27 58  1  0
 28 59  1  0
 29 60  1  0
 30 61  1  0
M  END
>  <smiles>  (2) 
O=C(c1cc2ccccc2[nH]1)N1C[C@]2(CCN(CCC3CCNC3)C2)c2ccccc21

>  <score_type>  (2) 
oracle

>  <origin>  (2) 
autodockgpu

>  <m_score__min__energy>  (2) 
-9.6400000000000006

>  <m_primary>  (2) 
energy

>  <rmsd>  (2) 
9.894462302615144

>  <m_score__min__rmsd>  (2) 
9.894462302615144

>  <meeko>  (2) 
{"free_energy": -9.34, "intermolecular_energy": -10.84, "internal_energy": -1.3, "cluster_size": 45, "cluster_id": 1, "rank_in_cluster": 17}

>  <energy>  (2) 
-9.63

>  <cluster_rmsd>  (2) 
0.07

>  <cluster>  (2) 
1

$$$$

     RDKit          3D

 61 66  0  0  1  0  0  0  0  0999 V2000
  137.4650   80.8890  220.8940 O   0  0  0  0  0  0  0  0  0  0  0  0
  138.2220   80.8060  221.9260 C   0  0  0  0  0  0  0  0  0  0  0  0
  137.6950   81.3530  223.1450 C   0  0  0  0  0  0  0  0  0  0  0  0
  137.0780   82.5880  223.3270 C   0  0  0  0  0  0  0  0  0  0  0  0
  136.7140   82.7210  224.6570 C   0  0  0  0  0  0  0  0  0  0  0  0
  136.0850   83.7210  225.3770 C   0  0  0  0  0  0  0  0  0  0  0  0
  135.8570   83.5540  226.7220 C   0  0  0  0  0  0  0  0  0  0  0  0
  136.2630   82.3820  227.3390 C   0  0  0  0  0  0  0  0  0  0  0  0
  136.8970   81.3720  226.6160 C   0  0  0  0  0  0  0  0  0  0  0  0
  137.1210   81.5430  225.2770 C   0  0  0  0  0  0  0  0  0  0  0  0
  137.7070   80.7340  224.3590 N   0  0  0  0  0  0  0  0  0  0  0  0
  139.4930   80.1970  221.7850 N   0  0  0  0  0  0  0  0  0  0  0  0
  139.8370   79.1430  220.8540 C   0  0  0  0  0  0  0  0  0  0  0  0
  140.8670   78.3620  221.6790 C   0  0  1  0  0  0  0  0  0  0  0  0
  140.1390   77.3700  222.5060 C   0  0  0  0  0  0  0  0  0  0  0  0
  140.3780   76.0550  221.8230 C   0  0  0  0  0  0  0  0  0  0  0  0
  141.3820   76.2240  220.8330 N   0  0  0  0  0  0  0  0  0  0  0  0
  142.4140   75.2430  220.7930 C   0  0  0  0  0  0  0  0  0  0  0  0
  142.7360   74.7280  219.4330 C   0  0  0  0  0  0  0  0  0  0  0  0
  143.7980   73.6610  219.5210 C   0  0  2  0  0  0  0  0  0  0  0  0
  144.8720   73.9890  220.5390 C   0  0  0  0  0  0  0  0  0  0  0  0
  145.9280   72.9500  220.1290 C   0  0  0  0  0  0  0  0  0  0  0  0
  145.9890   73.2480  218.6920 N   0  0  0  0  0  0  0  0  0  0  0  0
  144.6200   73.5140  218.2710 C   0  0  0  0  0  0  0  0  0  0  0  0
  141.7950   77.5870  220.8150 C   0  0  0  0  0  0  0  0  0  0  0  0
  141.5480   79.4100  222.4780 C   0  0  0  0  0  0  0  0  0  0  0  0
  142.7820   79.3890  223.0930 C   0  0  0  0  0  0  0  0  0  0  0  0
  143.1830   80.5160  223.7910 C   0  0  0  0  0  0  0  0  0  0  0  0
  142.3390   81.6060  223.8410 C   0  0  0  0  0  0  0  0  0  0  0  0
  141.0990   81.5940  223.2090 C   0  0  0  0  0  0  0  0  0  0  0  0
  140.6950   80.4890  222.5190 C   0  0  0  0  0  0  0  0  0  0  0  0
  136.9070   83.3379  222.5406 H   0  0  0  0  0  0  0  0  0  0  0  0
  135.7684   84.6469  224.8745 H   0  0  0  0  0  0  0  0  0  0  0  0
  135.3571   84.3431  227.3028 H   0  0  0  0  0  0  0  0  0  0  0  0
  136.0826   82.2460  228.4155 H   0  0  0  0  0  0  0  0  0  0  0  0
  137.2143   80.4459  227.1178 H   0  0  0  0  0  0  0  0  0  0  0  0
  138.0900   79.7940  224.6020 H   0  0  0  0  0  0  0  0  0  0  0  0
  138.9639   78.5227  220.6030 H   0  0  0  0  0  0  0  0  0  0  0  0
  140.2049   79.4961  219.8793 H   0  0  0  0  0  0  0  0  0  0  0  0
  140.5375   77.3526  223.5311 H   0  0  0  0  0  0  0  0  0  0  0  0
  139.0680   77.6057  222.5916 H   0  0  0  0  0  0  0  0  0  0  0  0
  140.7101   75.3107  222.5617 H   0  0  0  0  0  0  0  0  0  0  0  0
  139.4470   75.7060  221.3524 H   0  0  0  0  0  0  0  0  0  0  0  0
  143.3267   75.6895  221.2144 H   0  0  0  0  0  0  0  0  0  0  0  0
  142.0446   74.3823  221.3698 H   0  0  0  0  0  0  0  0  0  0  0  0
  141.8283   74.3015  218.9811 H   0  0  0  0  0  0  0  0  0  0  0  0
  143.1087   75.5567  218.8131 H   0  0  0  0  0  0  0  0  0  0  0  0
  143.2018   72.7673  219.7571 H   0  0  0  0  0  0  0  0  0  0  0  0
  145.2432   75.0185  220.4280 H   0  0  0  0  0  0  0  0  0  0  0  0
  144.5524   73.9449  221.5906 H   0  0  0  0  0  0  0  0  0  0  0  0
  146.8929   73.1220  220.6283 H   0  0  0  0  0  0  0  0  0  0  0  0
  145.6945   71.9069  220.3887 H   0  0  0  0  0  0  0  0  0  0  0  0
  146.5660   74.1360  218.6310 H   0  0  0  0  0  0  0  0  0  0  0  0
  144.5795   74.4413  217.6807 H   0  0  0  0  0  0  0  0  0  0  0  0
  144.2364   72.6972  217.6420 H   0  0  0  0  0  0  0  0  0  0  0  0
  142.8216   77.6707  221.2013 H   0  0  0  0  0  0  0  0  0  0  0  0
  141.7746   77.9779  219.7870 H   0  0  0  0  0  0  0  0  0  0  0  0
  143.4297   78.5021  223.0310 H   0  0  0  0  0  0  0  0  0  0  0  0
  144.1591   80.5415  224.2975 H   0  0  0  0  0  0  0  0  0  0  0  0
  142.6529   82.5045  224.3925 H   0  0  0  0  0  0  0  0  0  0  0  0
  140.4444   82.4762  223.2660 H   0  0  0  0  0  0  0  0  0  0  0  0
  1  2  2  0
  2  3  1  0
  3  4  2  0
  4  5  1  0
  5  6  2  0
  6  7  1  0
  7  8  2  0
  8  9  1  0
  9 10  2  0
 10 11  1  0
  2 12  1  0
 12 13  1  0
 14 13  1  6
 14 15  1  0
 15 16  1  0
 16 17  1  0
 17 18  1  0
 18 19  1  0
 19 20  1  0
 20 21  1  0
 21 22  1  0
 22 23  1  0
 23 24  1  0
 17 25  1  0
 14 26  1  0
 26 27  2  0
 27 28  1  0
 28 29  2  0
 29 30  1  0
 30 31  2  0
 11  3  1  0
 31 12  1  0
 10  5  1  0
 25 14  1  0
 31 26  1  0
 24 20  1  0
  4 32  1  0
  6 33  1  0
  7 34  1  0
  8 35  1  0
  9 36  1  0
 11 37  1  0
 13 38  1  0
 13 39  1  0
 15 40  1  0
 15 41  1  0
 16 42  1  0
 16 43  1  0
 18 44  1  0
 18 45  1  0
 19 46  1  0
 19 47  1  0
 20 48  1  1
 21 49  1  0
 21 50  1  0
 22 51  1  0
 22 52  1  0
 23 53  1  0
 24 54  1  0
 24 55  1  0
 25 56  1  0
 25 57  1  0
 27 58  1  0
 28 59  1  0
 29 60  1  0
 30 61  1  0
M  END
>  <smiles>  (3) 
O=C(c1cc2ccccc2[nH]1)N1C[C@]2(CCN(CCC3CCNC3)C2)c2ccccc21

>  <score_type>  (3) 
oracle

>  <origin>  (3) 
autodockgpu

>  <m_score__min__energy>  (3) 
-9.6400000000000006

>  <m_primary>  (3) 
energy

>  <rmsd>  (3) 
10.109623891505715

>  <m_score__min__rmsd>  (3) 
10.109623891505715

>  <meeko>  (3) 
{"free_energy": -8.82, "intermolecular_energy": -10.31, "internal_energy": -1.22, "cluster_size": 45, "cluster_id": 1, "rank_in_cluster": 40}

>  <energy>  (3) 
-9.63

>  <cluster_rmsd>  (3) 
0.05

>  <cluster>  (3) 
1

$$$$

     RDKit          3D

 61 66  0  0  1  0  0  0  0  0999 V2000
  137.3920   80.2780  220.9820 O   0  0  0  0  0  0  0  0  0  0  0  0
  138.2500   80.4150  221.9250 C   0  0  0  0  0  0  0  0  0  0  0  0
  137.7690   81.0130  223.1400 C   0  0  0  0  0  0  0  0  0  0  0  0
  137.7290   80.4440  224.4100 C   0  0  0  0  0  0  0  0  0  0  0  0
  137.1950   81.3620  225.3000 C   0  0  0  0  0  0  0  0  0  0  0  0
  136.9310   81.3290  226.6580 C   0  0  0  0  0  0  0  0  0  0  0  0
  136.3830   82.4280  227.2730 C   0  0  0  0  0  0  0  0  0  0  0  0
  136.1020   83.5580  226.5230 C   0  0  0  0  0  0  0  0  0  0  0  0
  136.3670   83.5940  225.1540 C   0  0  0  0  0  0  0  0  0  0  0  0
  136.9140   82.4960  224.5450 C   0  0  0  0  0  0  0  0  0  0  0  0
  137.2620   82.2730  223.2530 N   0  0  0  0  0  0  0  0  0  0  0  0
  139.5790   79.9780  221.7000 N   0  0  0  0  0  0  0  0  0  0  0  0
  140.0200   79.0950  220.6400 C   0  0  0  0  0  0  0  0  0  0  0  0
  141.1480   78.3390  221.3510 C   0  0  1  0  0  0  0  0  0  0  0  0
  140.5530   77.1740  222.0500 C   0  0  0  0  0  0  0  0  0  0  0  0
  140.9240   75.9930  221.2040 C   0  0  0  0  0  0  0  0  0  0  0  0
  141.8820   76.3980  220.2370 N   0  0  0  0  0  0  0  0  0  0  0  0
  143.0170   75.5540  220.0660 C   0  0  0  0  0  0  0  0  0  0  0  0
  142.7290   74.0950  220.1520 C   0  0  0  0  0  0  0  0  0  0  0  0
  144.0160   73.3200  220.2920 C   0  0  2  0  0  0  0  0  0  0  0  0
  145.1520   74.1690  220.8300 C   0  0  0  0  0  0  0  0  0  0  0  0
  146.3310   73.2360  220.5090 C   0  0  0  0  0  0  0  0  0  0  0  0
  146.0420   72.9900  219.0900 N   0  0  0  0  0  0  0  0  0  0  0  0
  144.5950   72.8590  218.9840 C   0  0  0  0  0  0  0  0  0  0  0  0
  142.1390   77.7900  220.3900 C   0  0  0  0  0  0  0  0  0  0  0  0
  141.7230   79.3500  222.2730 C   0  0  0  0  0  0  0  0  0  0  0  0
  142.9640   79.3930  222.8730 C   0  0  0  0  0  0  0  0  0  0  0  0
  143.2500   80.4610  223.7060 C   0  0  0  0  0  0  0  0  0  0  0  0
  142.2900   81.4320  223.9000 C   0  0  0  0  0  0  0  0  0  0  0  0
  141.0470   81.3580  223.2790 C   0  0  0  0  0  0  0  0  0  0  0  0
  140.7550   80.3100  222.4570 C   0  0  0  0  0  0  0  0  0  0  0  0
  138.0670   79.4289  224.6658 H   0  0  0  0  0  0  0  0  0  0  0  0
  137.1592   80.4258  227.2429 H   0  0  0  0  0  0  0  0  0  0  0  0
  136.1691   82.4109  228.3519 H   0  0  0  0  0  0  0  0  0  0  0  0
  135.6637   84.4394  227.0138 H   0  0  0  0  0  0  0  0  0  0  0  0
  136.1386   84.4967  224.5684 H   0  0  0  0  0  0  0  0  0  0  0  0
  137.1380   82.9900  222.5050 H   0  0  0  0  0  0  0  0  0  0  0  0
  139.2170   78.4157  220.3179 H   0  0  0  0  0  0  0  0  0  0  0  0
  140.3256   79.6078  219.7160 H   0  0  0  0  0  0  0  0  0  0  0  0
  140.9720   77.0733  223.0621 H   0  0  0  0  0  0  0  0  0  0  0  0
  139.4643   77.2732  222.1721 H   0  0  0  0  0  0  0  0  0  0  0  0
  141.3528   75.2044  221.8398 H   0  0  0  0  0  0  0  0  0  0  0  0
  140.0284   75.6028  220.6983 H   0  0  0  0  0  0  0  0  0  0  0  0
  143.4503   75.7595  219.0760 H   0  0  0  0  0  0  0  0  0  0  0  0
  143.7017   75.7839  220.8956 H   0  0  0  0  0  0  0  0  0  0  0  0
  142.0905   73.9011  221.0265 H   0  0  0  0  0  0  0  0  0  0  0  0
  142.2139   73.7749  219.2343 H   0  0  0  0  0  0  0  0  0  0  0  0
  143.7122   72.4919  220.9492 H   0  0  0  0  0  0  0  0  0  0  0  0
  145.2327   75.1306  220.3020 H   0  0  0  0  0  0  0  0  0  0  0  0
  145.0596   74.4648  221.8855 H   0  0  0  0  0  0  0  0  0  0  0  0
  147.3020   73.7323  220.6532 H   0  0  0  0  0  0  0  0  0  0  0  0
  146.4125   72.3387  221.1400 H   0  0  0  0  0  0  0  0  0  0  0  0
  146.3630   73.8740  218.5980 H   0  0  0  0  0  0  0  0  0  0  0  0
  144.2180   73.4854  218.1621 H   0  0  0  0  0  0  0  0  0  0  0  0
  144.3091   71.8180  218.7729 H   0  0  0  0  0  0  0  0  0  0  0  0
  143.1574   77.9408  220.7775 H   0  0  0  0  0  0  0  0  0  0  0  0
  142.0540   78.3022  219.4203 H   0  0  0  0  0  0  0  0  0  0  0  0
  143.7059   78.6007  222.6946 H   0  0  0  0  0  0  0  0  0  0  0  0
  144.2274   80.5340  224.2053 H   0  0  0  0  0  0  0  0  0  0  0  0
  142.5118   82.2835  224.5601 H   0  0  0  0  0  0  0  0  0  0  0  0
  140.2990   82.1459  223.4514 H   0  0  0  0  0  0  0  0  0  0  0  0
  1  2  2  0
  2  3  1  0
  3  4  2  0
  4  5  1  0
  5  6  2  0
  6  7  1  0
  7  8  2  0
  8  9  1  0
  9 10  2  0
 10 11  1  0
  2 12  1  0
 12 13  1  0
 14 13  1  6
 14 15  1  0
 15 16  1  0
 16 17  1  0
 17 18  1  0
 18 19  1  0
 19 20  1  0
 20 21  1  0
 21 22  1  0
 22 23  1  0
 23 24  1  0
 17 25  1  0
 14 26  1  0
 26 27  2  0
 27 28  1  0
 28 29  2  0
 29 30  1  0
 30 31  2  0
 11  3  1  0
 31 12  1  0
 10  5  1  0
 25 14  1  0
 31 26  1  0
 24 20  1  0
  4 32  1  0
  6 33  1  0
  7 34  1  0
  8 35  1  0
  9 36  1  0
 11 37  1  0
 13 38  1  0
 13 39  1  0
 15 40  1  0
 15 41  1  0
 16 42  1  0
 16 43  1  0
 18 44  1  0
 18 45  1  0
 19 46  1  0
 19 47  1  0
 20 48  1  1
 21 49  1  0
 21 50  1  0
 22 51  1  0
 22 52  1  0
 23 53  1  0
 24 54  1  0
 24 55  1  0
 25 56  1  0
 25 57  1  0
 27 58  1  0
 28 59  1  0
 29 60  1  0
 30 61  1  0
M  END
>  <smiles>  (4) 
O=C(c1cc2ccccc2[nH]1)N1C[C@]2(CCN(CCC3CCNC3)C2)c2ccccc21

>  <score_type>  (4) 
oracle

>  <origin>  (4) 
autodockgpu

>  <m_score__min__energy>  (4) 
-9.6400000000000006

>  <m_primary>  (4) 
energy

>  <rmsd>  (4) 
9.81831306645677

>  <m_score__min__rmsd>  (4) 
9.81831306645677

>  <meeko>  (4) 
{"free_energy": -9.32, "intermolecular_energy": -10.81, "internal_energy": -1.31, "cluster_size": 45, "cluster_id": 1, "rank_in_cluster": 20}

>  <energy>  (4) 
-9.62

>  <cluster_rmsd>  (4) 
0.1

>  <cluster>  (4) 
1

$$$$

     RDKit          3D

 61 66  0  0  1  0  0  0  0  0999 V2000
  137.1760   78.5580  223.0150 O   0  0  0  0  0  0  0  0  0  0  0  0
  138.0490   79.4870  223.1530 C   0  0  0  0  0  0  0  0  0  0  0  0
  137.6380   80.6370  223.9090 C   0  0  0  0  0  0  0  0  0  0  0  0
  137.1830   81.8590  223.4200 C   0  0  0  0  0  0  0  0  0  0  0  0
  136.8880   82.6920  224.4870 C   0  0  0  0  0  0  0  0  0  0  0  0
  136.4120   83.9870  224.5810 C   0  0  0  0  0  0  0  0  0  0  0  0
  136.2160   84.5550  225.8160 C   0  0  0  0  0  0  0  0  0  0  0  0
  136.5000   83.8190  226.9550 C   0  0  0  0  0  0  0  0  0  0  0  0
  136.9790   82.5130  226.8640 C   0  0  0  0  0  0  0  0  0  0  0  0
  137.1720   81.9520  225.6310 C   0  0  0  0  0  0  0  0  0  0  0  0
  137.6210   80.7230  225.2690 N   0  0  0  0  0  0  0  0  0  0  0  0
  139.3230   79.3120  222.5580 N   0  0  0  0  0  0  0  0  0  0  0  0
  139.6160   78.5190  221.3830 C   0  0  0  0  0  0  0  0  0  0  0  0
  141.0170   78.0040  221.7300 C   0  0  1  0  0  0  0  0  0  0  0  0
  140.8680   76.7540  222.5150 C   0  0  0  0  0  0  0  0  0  0  0  0
  141.2090   75.6560  221.5510 C   0  0  0  0  0  0  0  0  0  0  0  0
  141.7720   76.2280  220.3790 N   0  0  0  0  0  0  0  0  0  0  0  0
  142.9550   75.6170  219.8720 C   0  0  0  0  0  0  0  0  0  0  0  0
  142.8180   74.1720  219.5360 C   0  0  0  0  0  0  0  0  0  0  0  0
  144.0570   73.4220  219.9560 C   0  0  2  0  0  0  0  0  0  0  0  0
  145.0050   74.2750  220.7750 C   0  0  0  0  0  0  0  0  0  0  0  0
  146.2550   73.3820  220.7180 C   0  0  0  0  0  0  0  0  0  0  0  0
  146.3200   73.1820  219.2640 N   0  0  0  0  0  0  0  0  0  0  0  0
  144.9450   73.0220  218.8100 C   0  0  0  0  0  0  0  0  0  0  0  0
  141.7930   77.6450  220.5150 C   0  0  0  0  0  0  0  0  0  0  0  0
  141.6210   79.1170  222.5030 C   0  0  0  0  0  0  0  0  0  0  0  0
  142.9470   79.4050  222.7460 C   0  0  0  0  0  0  0  0  0  0  0  0
  143.2430   80.5190  223.5140 C   0  0  0  0  0  0  0  0  0  0  0  0
  142.2070   81.2880  224.0010 C   0  0  0  0  0  0  0  0  0  0  0  0
  140.8790   80.9680  223.7380 C   0  0  0  0  0  0  0  0  0  0  0  0
  140.5770   79.8740  222.9830 C   0  0  0  0  0  0  0  0  0  0  0  0
  137.0751   82.1208  222.3571 H   0  0  0  0  0  0  0  0  0  0  0  0
  136.1909   84.5607  223.6689 H   0  0  0  0  0  0  0  0  0  0  0  0
  135.8372   85.5843  225.9000 H   0  0  0  0  0  0  0  0  0  0  0  0
  136.3453   84.2718  227.9455 H   0  0  0  0  0  0  0  0  0  0  0  0
  137.1999   81.9384  227.7756 H   0  0  0  0  0  0  0  0  0  0  0  0
  137.8960   79.9980  225.9670 H   0  0  0  0  0  0  0  0  0  0  0  0
  138.8991   77.6935  221.2620 H   0  0  0  0  0  0  0  0  0  0  0  0
  139.5545   79.0703  220.4331 H   0  0  0  0  0  0  0  0  0  0  0  0
  141.5599   76.7482  223.3702 H   0  0  0  0  0  0  0  0  0  0  0  0
  139.8562   76.6425  222.9319 H   0  0  0  0  0  0  0  0  0  0  0  0
  141.9358   74.9719  222.0133 H   0  0  0  0  0  0  0  0  0  0  0  0
  140.2997   75.0944  221.2906 H   0  0  0  0  0  0  0  0  0  0  0  0
  143.2529   76.1537  218.9592 H   0  0  0  0  0  0  0  0  0  0  0  0
  143.7035   75.6781  220.6757 H   0  0  0  0  0  0  0  0  0  0  0  0
  141.9458   73.7573  220.0625 H   0  0  0  0  0  0  0  0  0  0  0  0
  142.6845   74.0664  218.4492 H   0  0  0  0  0  0  0  0  0  0  0  0
  143.6309   72.5638  220.4964 H   0  0  0  0  0  0  0  0  0  0  0  0
  145.1797   75.2569  220.3110 H   0  0  0  0  0  0  0  0  0  0  0  0
  144.6544   74.5290  221.7862 H   0  0  0  0  0  0  0  0  0  0  0  0
  147.1477   73.8949  221.1053 H   0  0  0  0  0  0  0  0  0  0  0  0
  146.2120   72.4643  221.3230 H   0  0  0  0  0  0  0  0  0  0  0  0
  146.7220   74.0900  218.8900 H   0  0  0  0  0  0  0  0  0  0  0  0
  144.7558   73.6694  217.9411 H   0  0  0  0  0  0  0  0  0  0  0  0
  144.7496   71.9835  218.5045 H   0  0  0  0  0  0  0  0  0  0  0  0
  142.8309   77.9942  220.6189 H   0  0  0  0  0  0  0  0  0  0  0  0
  141.3508   78.1195  219.6266 H   0  0  0  0  0  0  0  0  0  0  0  0
  143.7474   78.7681  222.3414 H   0  0  0  0  0  0  0  0  0  0  0  0
  144.2876   80.7860  223.7320 H   0  0  0  0  0  0  0  0  0  0  0  0
  142.4359   82.1743  224.6111 H   0  0  0  0  0  0  0  0  0  0  0  0
  140.0719   81.5983  224.1396 H   0  0  0  0  0  0  0  0  0  0  0  0
  1  2  2  0
  2  3  1  0
  3  4  2  0
  4  5  1  0
  5  6  2  0
  6  7  1  0
  7  8  2  0
  8  9  1  0
  9 10  2  0
 10 11  1  0
  2 12  1  0
 12 13  1  0
 14 13  1  6
 14 15  1  0
 15 16  1  0
 16 17  1  0
 17 18  1  0
 18 19  1  0
 19 20  1  0
 20 21  1  0
 21 22  1  0
 22 23  1  0
 23 24  1  0
 17 25  1  0
 14 26  1  0
 26 27  2  0
 27 28  1  0
 28 29  2  0
 29 30  1  0
 30 31  2  0
 11  3  1  0
 31 12  1  0
 10  5  1  0
 25 14  1  0
 31 26  1  0
 24 20  1  0
  4 32  1  0
  6 33  1  0
  7 34  1  0
  8 35  1  0
  9 36  1  0
 11 37  1  0
 13 38  1  0
 13 39  1  0
 15 40  1  0
 15 41  1  0
 16 42  1  0
 16 43  1  0
 18 44  1  0
 18 45  1  0
 19 46  1  0
 19 47  1  0
 20 48  1  1
 21 49  1  0
 21 50  1  0
 22 51  1  0
 22 52  1  0
 23 53  1  0
 24 54  1  0
 24 55  1  0
 25 56  1  0
 25 57  1  0
 27 58  1  0
 28 59  1  0
 29 60  1  0
 30 61  1  0
M  END
>  <smiles>  (5) 
O=C(c1cc2ccccc2[nH]1)N1C[C@]2(CCN(CCC3CCNC3)C2)c2ccccc21

>  <score_type>  (5) 
oracle

>  <origin>  (5) 
autodockgpu

>  <m_score__min__energy>  (5) 
-9.6400000000000006

>  <m_primary>  (5) 
energy

>  <rmsd>  (5) 
10.300284832781891

>  <m_score__min__rmsd>  (5) 
10.300284832781891

>  <meeko>  (5) 
{"free_energy": -9.59, "intermolecular_energy": -11.08, "internal_energy": -1.25, "cluster_size": 45, "cluster_id": 1, "rank_in_cluster": 7}

>  <energy>  (5) 
-9.61

>  <cluster_rmsd>  (5) 
0.2

>  <cluster>  (5) 
1

$$$$

     RDKit          3D

 61 66  0  0  1  0  0  0  0  0999 V2000
  137.1550   78.3750  222.8190 O   0  0  0  0  0  0  0  0  0  0  0  0
  137.9910   79.3290  223.0140 C   0  0  0  0  0  0  0  0  0  0  0  0
  137.5270   80.4250  223.8190 C   0  0  0  0  0  0  0  0  0  0  0  0
  136.6730   81.4570  223.4390 C   0  0  0  0  0  0  0  0  0  0  0  0
  136.4790   82.3030  224.5190 C   0  0  0  0  0  0  0  0  0  0  0  0
  135.7420   83.4600  224.7020 C   0  0  0  0  0  0  0  0  0  0  0  0
  135.7500   84.0880  225.9240 C   0  0  0  0  0  0  0  0  0  0  0  0
  136.4970   83.5510  226.9590 C   0  0  0  0  0  0  0  0  0  0  0  0
  137.2400   82.3850  226.7780 C   0  0  0  0  0  0  0  0  0  0  0  0
  137.2290   81.7630  225.5590 C   0  0  0  0  0  0  0  0  0  0  0  0
  137.8520   80.6390  225.1250 N   0  0  0  0  0  0  0  0  0  0  0  0
  139.2780   79.2300  222.4290 N   0  0  0  0  0  0  0  0  0  0  0  0
  139.6120   78.5190  221.2130 C   0  0  0  0  0  0  0  0  0  0  0  0
  141.0240   78.0280  221.5500 C   0  0  1  0  0  0  0  0  0  0  0  0
  140.9050   76.7290  222.2560 C   0  0  0  0  0  0  0  0  0  0  0  0
  141.2940   75.7030  221.2330 C   0  0  0  0  0  0  0  0  0  0  0  0
  141.8540   76.3620  220.1060 N   0  0  0  0  0  0  0  0  0  0  0  0
  143.0620   75.8200  219.5820 C   0  0  0  0  0  0  0  0  0  0  0  0
  143.7580   74.8560  220.4800 C   0  0  0  0  0  0  0  0  0  0  0  0
  144.6550   73.9510  219.6740 C   0  0  2  0  0  0  0  0  0  0  0  0
  144.0620   72.5700  219.4730 C   0  0  0  0  0  0  0  0  0  0  0  0
  145.3140   71.8330  218.9730 C   0  0  0  0  0  0  0  0  0  0  0  0
  146.2430   72.2190  220.0440 N   0  0  0  0  0  0  0  0  0  0  0  0
  145.9500   73.6120  220.3570 C   0  0  0  0  0  0  0  0  0  0  0  0
  141.8270   77.7680  220.3270 C   0  0  0  0  0  0  0  0  0  0  0  0
  141.5810   79.1100  222.3990 C   0  0  0  0  0  0  0  0  0  0  0  0
  142.8940   79.4260  222.6790 C   0  0  0  0  0  0  0  0  0  0  0  0
  143.1430   80.4990  223.5170 C   0  0  0  0  0  0  0  0  0  0  0  0
  142.0770   81.2050  224.0330 C   0  0  0  0  0  0  0  0  0  0  0  0
  140.7630   80.8600  223.7310 C   0  0  0  0  0  0  0  0  0  0  0  0
  140.5070   79.8050  222.9060 C   0  0  0  0  0  0  0  0  0  0  0  0
  136.2247   81.5807  222.4422 H   0  0  0  0  0  0  0  0  0  0  0  0
  135.1518   83.8754  223.8719 H   0  0  0  0  0  0  0  0  0  0  0  0
  135.1684   85.0088  226.0787 H   0  0  0  0  0  0  0  0  0  0  0  0
  136.5043   84.0517  227.9384 H   0  0  0  0  0  0  0  0  0  0  0  0
  137.8299   81.9687  227.6079 H   0  0  0  0  0  0  0  0  0  0  0  0
  138.4720   80.0670  225.7390 H   0  0  0  0  0  0  0  0  0  0  0  0
  138.9237   77.6803  221.0317 H   0  0  0  0  0  0  0  0  0  0  0  0
  139.5455   79.1245  220.2970 H   0  0  0  0  0  0  0  0  0  0  0  0
  141.5853   76.6931  223.1197 H   0  0  0  0  0  0  0  0  0  0  0  0
  139.8919   76.5606  222.6502 H   0  0  0  0  0  0  0  0  0  0  0  0
  142.0362   75.0152  221.6644 H   0  0  0  0  0  0  0  0  0  0  0  0
  140.4067   75.1303  220.9253 H   0  0  0  0  0  0  0  0  0  0  0  0
  142.8241   75.3008  218.6419 H   0  0  0  0  0  0  0  0  0  0  0  0
  143.7488   76.6688  219.4486 H   0  0  0  0  0  0  0  0  0  0  0  0
  144.3640   75.4119  221.2106 H   0  0  0  0  0  0  0  0  0  0  0  0
  143.0074   74.2454  221.0032 H   0  0  0  0  0  0  0  0  0  0  0  0
  144.7893   74.5302  218.7486 H   0  0  0  0  0  0  0  0  0  0  0  0
  143.6825   72.1445  220.4137 H   0  0  0  0  0  0  0  0  0  0  0  0
  143.1909   72.5252  218.8029 H   0  0  0  0  0  0  0  0  0  0  0  0
  145.1630   70.7443  218.9290 H   0  0  0  0  0  0  0  0  0  0  0  0
  145.6362   72.0822  217.9512 H   0  0  0  0  0  0  0  0  0  0  0  0
  145.9740   71.6000  220.8630 H   0  0  0  0  0  0  0  0  0  0  0  0
  145.8491   73.7420  221.4446 H   0  0  0  0  0  0  0  0  0  0  0  0
  146.7605   74.2713  220.0128 H   0  0  0  0  0  0  0  0  0  0  0  0
  142.8515   78.1431  220.4670 H   0  0  0  0  0  0  0  0  0  0  0  0
  141.3810   78.2811  219.4622 H   0  0  0  0  0  0  0  0  0  0  0  0
  143.7203   78.8415  222.2483 H   0  0  0  0  0  0  0  0  0  0  0  0
  144.1755   80.7841  223.7675 H   0  0  0  0  0  0  0  0  0  0  0  0
  142.2694   82.0598  224.6981 H   0  0  0  0  0  0  0  0  0  0  0  0
  139.9306   81.4386  224.1580 H   0  0  0  0  0  0  0  0  0  0  0  0
  1  2  2  0
  2  3  1  0
  3  4  2  0
  4  5  1  0
  5  6  2  0
  6  7  1  0
  7  8  2  0
  8  9  1  0
  9 10  2  0
 10 11  1  0
  2 12  1  0
 12 13  1  0
 14 13  1  6
 14 15  1  0
 15 16  1  0
 16 17  1  0
 17 18  1  0
 18 19  1  0
 19 20  1  0
 20 21  1  0
 21 22  1  0
 22 23  1  0
 23 24  1  0
 17 25  1  0
 14 26  1  0
 26 27  2  0
 27 28  1  0
 28 29  2  0
 29 30  1  0
 30 31  2  0
 11  3  1  0
 31 12  1  0
 10  5  1  0
 25 14  1  0
 31 26  1  0
 24 20  1  0
  4 32  1  0
  6 33  1  0
  7 34  1  0
  8 35  1  0
  9 36  1  0
 11 37  1  0
 13 38  1  0
 13 39  1  0
 15 40  1  0
 15 41  1  0
 16 42  1  0
 16 43  1  0
 18 44  1  0
 18 45  1  0
 19 46  1  0
 19 47  1  0
 20 48  1  6
 21 49  1  0
 21 50  1  0
 22 51  1  0
 22 52  1  0
 23 53  1  0
 24 54  1  0
 24 55  1  0
 25 56  1  0
 25 57  1  0
 27 58  1  0
 28 59  1  0
 29 60  1  0
 30 61  1  0
M  END
>  <smiles>  (6) 
O=C(c1cc2ccccc2[nH]1)N1C[C@]2(CCN(CCC3CCNC3)C2)c2ccccc21

>  <score_type>  (6) 
oracle

>  <origin>  (6) 
autodockgpu

>  <m_score__min__energy>  (6) 
-9.6400000000000006

>  <m_primary>  (6) 
energy

>  <rmsd>  (6) 
10.118113736783254

>  <m_score__min__rmsd>  (6) 
10.118113736783254

>  <meeko>  (6) 
{"free_energy": -8.9, "intermolecular_energy": -10.39, "internal_energy": -1.2, "cluster_size": 45, "cluster_id": 1, "rank_in_cluster": 39}

>  <energy>  (6) 
-9.61

>  <cluster_rmsd>  (6) 
0.1

>  <cluster>  (6) 
1

$$$$

     RDKit          3D

 61 66  0  0  1  0  0  0  0  0999 V2000
  137.2270   78.5830  223.1090 O   0  0  0  0  0  0  0  0  0  0  0  0
  138.0760   79.5400  223.2010 C   0  0  0  0  0  0  0  0  0  0  0  0
  137.6510   80.6960  223.9410 C   0  0  0  0  0  0  0  0  0  0  0  0
  137.2220   81.9200  223.4350 C   0  0  0  0  0  0  0  0  0  0  0  0
  136.9000   82.7590  224.4900 C   0  0  0  0  0  0  0  0  0  0  0  0
  136.4330   84.0590  224.5640 C   0  0  0  0  0  0  0  0  0  0  0  0
  136.2030   84.6320  225.7920 C   0  0  0  0  0  0  0  0  0  0  0  0
  136.4430   83.8970  226.9410 C   0  0  0  0  0  0  0  0  0  0  0  0
  136.9140   82.5860  226.8680 C   0  0  0  0  0  0  0  0  0  0  0  0
  137.1410   82.0190  225.6430 C   0  0  0  0  0  0  0  0  0  0  0  0
  137.5900   80.7870  225.3000 N   0  0  0  0  0  0  0  0  0  0  0  0
  139.3380   79.3880  222.5760 N   0  0  0  0  0  0  0  0  0  0  0  0
  139.6050   78.6560  221.3560 C   0  0  0  0  0  0  0  0  0  0  0  0
  141.0080   78.1140  221.6520 C   0  0  1  0  0  0  0  0  0  0  0  0
  140.8620   76.8260  222.3730 C   0  0  0  0  0  0  0  0  0  0  0  0
  141.1790   75.7780  221.3470 C   0  0  0  0  0  0  0  0  0  0  0  0
  141.7260   76.4060  220.1970 N   0  0  0  0  0  0  0  0  0  0  0  0
  142.8950   75.8140  219.6390 C   0  0  0  0  0  0  0  0  0  0  0  0
  143.5400   74.7760  220.4910 C   0  0  0  0  0  0  0  0  0  0  0  0
  144.4750   73.9320  219.6630 C   0  0  2  0  0  0  0  0  0  0  0  0
  143.9920   72.5030  219.5110 C   0  0  0  0  0  0  0  0  0  0  0  0
  145.2800   71.8620  218.9710 C   0  0  0  0  0  0  0  0  0  0  0  0
  146.2170   72.3470  219.9930 N   0  0  0  0  0  0  0  0  0  0  0  0
  145.8220   73.7160  220.2940 C   0  0  0  0  0  0  0  0  0  0  0  0
  141.7600   77.8140  220.4060 C   0  0  0  0  0  0  0  0  0  0  0  0
  141.6330   79.1800  222.4720 C   0  0  0  0  0  0  0  0  0  0  0  0
  142.9650   79.4470  222.7070 C   0  0  0  0  0  0  0  0  0  0  0  0
  143.2830   80.5170  223.5260 C   0  0  0  0  0  0  0  0  0  0  0  0
  142.2610   81.2670  224.0710 C   0  0  0  0  0  0  0  0  0  0  0  0
  140.9260   80.9700  223.8140 C   0  0  0  0  0  0  0  0  0  0  0  0
  140.6030   79.9190  223.0080 C   0  0  0  0  0  0  0  0  0  0  0  0
  137.1501   82.1796  222.3685 H   0  0  0  0  0  0  0  0  0  0  0  0
  136.2464   84.6319  223.6437 H   0  0  0  0  0  0  0  0  0  0  0  0
  135.8317   85.6651  225.8615 H   0  0  0  0  0  0  0  0  0  0  0  0
  136.2596   84.3534  227.9249 H   0  0  0  0  0  0  0  0  0  0  0  0
  137.1015   82.0124  227.7877 H   0  0  0  0  0  0  0  0  0  0  0  0
  137.8370   80.0600  226.0070 H   0  0  0  0  0  0  0  0  0  0  0  0
  138.8799   77.8429  221.2041 H   0  0  0  0  0  0  0  0  0  0  0  0
  139.5317   79.2567  220.4374 H   0  0  0  0  0  0  0  0  0  0  0  0
  141.5675   76.7706  223.2151 H   0  0  0  0  0  0  0  0  0  0  0  0
  139.8564   76.6996  222.8005 H   0  0  0  0  0  0  0  0  0  0  0  0
  141.9086   75.0662  221.7604 H   0  0  0  0  0  0  0  0  0  0  0  0
  140.2612   75.2369  221.0733 H   0  0  0  0  0  0  0  0  0  0  0  0
  142.6182   75.3471  218.6822 H   0  0  0  0  0  0  0  0  0  0  0  0
  143.6302   76.6251  219.5311 H   0  0  0  0  0  0  0  0  0  0  0  0
  144.1086   75.2670  221.2945 H   0  0  0  0  0  0  0  0  0  0  0  0
  142.7609   74.1308  220.9233 H   0  0  0  0  0  0  0  0  0  0  0  0
  144.5212   74.5015  218.7230 H   0  0  0  0  0  0  0  0  0  0  0  0
  143.6881   72.0670  220.4741 H   0  0  0  0  0  0  0  0  0  0  0  0
  143.1011   72.3724  218.8792 H   0  0  0  0  0  0  0  0  0  0  0  0
  145.2194   70.7638  218.9535 H   0  0  0  0  0  0  0  0  0  0  0  0
  145.5373   72.1150  217.9319 H   0  0  0  0  0  0  0  0  0  0  0  0
  146.0360   71.7240  220.8330 H   0  0  0  0  0  0  0  0  0  0  0  0
  145.7570   73.8600  221.3826 H   0  0  0  0  0  0  0  0  0  0  0  0
  146.5589   74.4329  219.9028 H   0  0  0  0  0  0  0  0  0  0  0  0
  142.8021   78.1506  220.5093 H   0  0  0  0  0  0  0  0  0  0  0  0
  141.3060   78.3372  219.5515 H   0  0  0  0  0  0  0  0  0  0  0  0
  143.7536   78.8268  222.2561 H   0  0  0  0  0  0  0  0  0  0  0  0
  144.3333   80.7652  223.7388 H   0  0  0  0  0  0  0  0  0  0  0  0
  142.5069   82.1182  224.7228 H   0  0  0  0  0  0  0  0  0  0  0  0
  140.1305   81.5839  224.2616 H   0  0  0  0  0  0  0  0  0  0  0  0
  1  2  2  0
  2  3  1  0
  3  4  2  0
  4  5  1  0
  5  6  2  0
  6  7  1  0
  7  8  2  0
  8  9  1  0
  9 10  2  0
 10 11  1  0
  2 12  1  0
 12 13  1  0
 14 13  1  6
 14 15  1  0
 15 16  1  0
 16 17  1  0
 17 18  1  0
 18 19  1  0
 19 20  1  0
 20 21  1  0
 21 22  1  0
 22 23  1  0
 23 24  1  0
 17 25  1  0
 14 26  1  0
 26 27  2  0
 27 28  1  0
 28 29  2  0
 29 30  1  0
 30 31  2  0
 11  3  1  0
 31 12  1  0
 10  5  1  0
 25 14  1  0
 31 26  1  0
 24 20  1  0
  4 32  1  0
  6 33  1  0
  7 34  1  0
  8 35  1  0
  9 36  1  0
 11 37  1  0
 13 38  1  0
 13 39  1  0
 15 40  1  0
 15 41  1  0
 16 42  1  0
 16 43  1  0
 18 44  1  0
 18 45  1  0
 19 46  1  0
 19 47  1  0
 20 48  1  6
 21 49  1  0
 21 50  1  0
 22 51  1  0
 22 52  1  0
 23 53  1  0
 24 54  1  0
 24 55  1  0
 25 56  1  0
 25 57  1  0
 27 58  1  0
 28 59  1  0
 29 60  1  0
 30 61  1  0
M  END
>  <smiles>  (7) 
O=C(c1cc2ccccc2[nH]1)N1C[C@]2(CCN(CCC3CCNC3)C2)c2ccccc21

>  <score_type>  (7) 
oracle

>  <origin>  (7) 
autodockgpu

>  <m_score__min__energy>  (7) 
-9.6400000000000006

>  <m_primary>  (7) 
energy

>  <rmsd>  (7) 
10.36085265571139

>  <m_score__min__rmsd>  (7) 
10.36085265571139

>  <meeko>  (7) 
{"free_energy": -9.14, "intermolecular_energy": -10.64, "internal_energy": -1.19, "cluster_size": 45, "cluster_id": 1, "rank_in_cluster": 32}

>  <energy>  (7) 
-9.59

>  <cluster_rmsd>  (7) 
0.87

>  <cluster>  (7) 
1

$$$$

     RDKit          3D

 61 66  0  0  1  0  0  0  0  0999 V2000
  137.4560   80.4260  220.8460 O   0  0  0  0  0  0  0  0  0  0  0  0
  138.2770   80.4980  221.8290 C   0  0  0  0  0  0  0  0  0  0  0  0
  137.7580   81.0470  223.0510 C   0  0  0  0  0  0  0  0  0  0  0  0
  137.7840   80.4740  224.3200 C   0  0  0  0  0  0  0  0  0  0  0  0
  137.1800   81.3380  225.2180 C   0  0  0  0  0  0  0  0  0  0  0  0
  136.9350   81.2780  226.5790 C   0  0  0  0  0  0  0  0  0  0  0  0
  136.2980   82.3220  227.2040 C   0  0  0  0  0  0  0  0  0  0  0  0
  135.9090   83.4240  226.4610 C   0  0  0  0  0  0  0  0  0  0  0  0
  136.1540   83.4870  225.0890 C   0  0  0  0  0  0  0  0  0  0  0  0
  136.7890   82.4440  224.4710 C   0  0  0  0  0  0  0  0  0  0  0  0
  137.1420   82.2560  223.1750 N   0  0  0  0  0  0  0  0  0  0  0  0
  139.6050   80.0420  221.6360 N   0  0  0  0  0  0  0  0  0  0  0  0
  140.0600   79.1570  220.5840 C   0  0  0  0  0  0  0  0  0  0  0  0
  141.1590   78.3830  221.3220 C   0  0  1  0  0  0  0  0  0  0  0  0
  140.5290   77.2240  222.0010 C   0  0  0  0  0  0  0  0  0  0  0  0
  140.9050   76.0400  221.1590 C   0  0  0  0  0  0  0  0  0  0  0  0
  141.8940   76.4350  220.2190 N   0  0  0  0  0  0  0  0  0  0  0  0
  143.0200   75.5760  220.0740 C   0  0  0  0  0  0  0  0  0  0  0  0
  142.7130   74.1210  220.1700 C   0  0  0  0  0  0  0  0  0  0  0  0
  143.9920   73.3250  220.2390 C   0  0  2  0  0  0  0  0  0  0  0  0
  145.1400   74.1150  220.8370 C   0  0  0  0  0  0  0  0  0  0  0  0
  146.3070   73.2000  220.4360 C   0  0  0  0  0  0  0  0  0  0  0  0
  146.0090   73.0710  219.0030 N   0  0  0  0  0  0  0  0  0  0  0  0
  144.5600   72.9640  218.8950 C   0  0  0  0  0  0  0  0  0  0  0  0
  142.1660   77.8230  220.3850 C   0  0  0  0  0  0  0  0  0  0  0  0
  141.7240   79.3810  222.2630 C   0  0  0  0  0  0  0  0  0  0  0  0
  142.9490   79.4040  222.8950 C   0  0  0  0  0  0  0  0  0  0  0  0
  143.2290   80.4650  223.7390 C   0  0  0  0  0  0  0  0  0  0  0  0
  142.2780   81.4490  223.9120 C   0  0  0  0  0  0  0  0  0  0  0  0
  141.0510   81.3950  223.2590 C   0  0  0  0  0  0  0  0  0  0  0  0
  140.7650   80.3550  222.4260 C   0  0  0  0  0  0  0  0  0  0  0  0
  138.2149   79.4930  224.5690 H   0  0  0  0  0  0  0  0  0  0  0  0
  137.2494   80.3972  227.1580 H   0  0  0  0  0  0  0  0  0  0  0  0
  136.0986   82.2832  228.2851 H   0  0  0  0  0  0  0  0  0  0  0  0
  135.3995   84.2617  226.9597 H   0  0  0  0  0  0  0  0  0  0  0  0
  135.8396   84.3672  224.5091 H   0  0  0  0  0  0  0  0  0  0  0  0
  136.9450   82.9610  222.4310 H   0  0  0  0  0  0  0  0  0  0  0  0
  139.2561   78.4902  220.2389 H   0  0  0  0  0  0  0  0  0  0  0  0
  140.3958   79.6681  219.6697 H   0  0  0  0  0  0  0  0  0  0  0  0
  140.9203   77.1133  223.0231 H   0  0  0  0  0  0  0  0  0  0  0  0
  139.4391   77.3386  222.0957 H   0  0  0  0  0  0  0  0  0  0  0  0
  141.3054   75.2426  221.8022 H   0  0  0  0  0  0  0  0  0  0  0  0
  140.0174   75.6650  220.6284 H   0  0  0  0  0  0  0  0  0  0  0  0
  143.4708   75.7662  219.0888 H   0  0  0  0  0  0  0  0  0  0  0  0
  143.6945   75.8059  220.9120 H   0  0  0  0  0  0  0  0  0  0  0  0
  142.1185   73.9336  221.0763 H   0  0  0  0  0  0  0  0  0  0  0  0
  142.1450   73.8134  219.2796 H   0  0  0  0  0  0  0  0  0  0  0  0
  143.6817   72.4502  220.8292 H   0  0  0  0  0  0  0  0  0  0  0  0
  145.2287   75.1152  220.3879 H   0  0  0  0  0  0  0  0  0  0  0  0
  145.0557   74.3248  221.9135 H   0  0  0  0  0  0  0  0  0  0  0  0
  147.2837   73.6737  220.6141 H   0  0  0  0  0  0  0  0  0  0  0  0
  146.3822   72.2542  220.9927 H   0  0  0  0  0  0  0  0  0  0  0  0
  146.3360   73.9890  218.5820 H   0  0  0  0  0  0  0  0  0  0  0  0
  144.1860   73.6580  218.1279 H   0  0  0  0  0  0  0  0  0  0  0  0
  144.2619   71.9462  218.6031 H   0  0  0  0  0  0  0  0  0  0  0  0
  143.1760   77.9578  220.7993 H   0  0  0  0  0  0  0  0  0  0  0  0
  142.1125   78.3399  219.4155 H   0  0  0  0  0  0  0  0  0  0  0  0
  143.6837   78.6015  222.7331 H   0  0  0  0  0  0  0  0  0  0  0  0
  144.1943   80.5224  224.2632 H   0  0  0  0  0  0  0  0  0  0  0  0
  142.4946   82.2949  224.5810 H   0  0  0  0  0  0  0  0  0  0  0  0
  140.3103   82.1931  223.4152 H   0  0  0  0  0  0  0  0  0  0  0  0
  1  2  2  0
  2  3  1  0
  3  4  2  0
  4  5  1  0
  5  6  2  0
  6  7  1  0
  7  8  2  0
  8  9  1  0
  9 10  2  0
 10 11  1  0
  2 12  1  0
 12 13  1  0
 14 13  1  6
 14 15  1  0
 15 16  1  0
 16 17  1  0
 17 18  1  0
 18 19  1  0
 19 20  1  0
 20 21  1  0
 21 22  1  0
 22 23  1  0
 23 24  1  0
 17 25  1  0
 14 26  1  0
 26 27  2  0
 27 28  1  0
 28 29  2  0
 29 30  1  0
 30 31  2  0
 11  3  1  0
 31 12  1  0
 10  5  1  0
 25 14  1  0
 31 26  1  0
 24 20  1  0
  4 32  1  0
  6 33  1  0
  7 34  1  0
  8 35  1  0
  9 36  1  0
 11 37  1  0
 13 38  1  0
 13 39  1  0
 15 40  1  0
 15 41  1  0
 16 42  1  0
 16 43  1  0
 18 44  1  0
 18 45  1  0
 19 46  1  0
 19 47  1  0
 20 48  1  1
 21 49  1  0
 21 50  1  0
 22 51  1  0
 22 52  1  0
 23 53  1  0
 24 54  1  0
 24 55  1  0
 25 56  1  0
 25 57  1  0
 27 58  1  0
 28 59  1  0
 29 60  1  0
 30 61  1  0
M  END
>  <smiles>  (8) 
O=C(c1cc2ccccc2[nH]1)N1C[C@]2(CCN(CCC3CCNC3)C2)c2ccccc21

>  <score_type>  (8) 
oracle

>  <origin>  (8) 
autodockgpu

>  <m_score__min__energy>  (8) 
-9.6400000000000006

>  <m_primary>  (8) 
energy

>  <rmsd>  (8) 
9.79429593093756

>  <m_score__min__rmsd>  (8) 
9.79429593093756

>  <meeko>  (8) 
{"free_energy": -9.27, "intermolecular_energy": -10.76, "internal_energy": -1.32, "cluster_size": 45, "cluster_id": 1, "rank_in_cluster": 21}

>  <energy>  (8) 
-9.58

>  <cluster_rmsd>  (8) 
0.86

>  <cluster>  (8) 
1

$$$$

     RDKit          3D

 61 66  0  0  1  0  0  0  0  0999 V2000
  137.2760   80.8020  221.0370 O   0  0  0  0  0  0  0  0  0  0  0  0
  138.0350   80.6460  222.0590 C   0  0  0  0  0  0  0  0  0  0  0  0
  137.5460   81.1810  223.3000 C   0  0  0  0  0  0  0  0  0  0  0  0
  137.4470   80.5290  224.5270 C   0  0  0  0  0  0  0  0  0  0  0  0
  136.9290   81.4080  225.4650 C   0  0  0  0  0  0  0  0  0  0  0  0
  136.6260   81.2940  226.8100 C   0  0  0  0  0  0  0  0  0  0  0  0
  136.1100   82.3730  227.4860 C   0  0  0  0  0  0  0  0  0  0  0  0
  135.8990   83.5630  226.8090 C   0  0  0  0  0  0  0  0  0  0  0  0
  136.2030   83.6790  225.4530 C   0  0  0  0  0  0  0  0  0  0  0  0
  136.7180   82.6020  224.7840 C   0  0  0  0  0  0  0  0  0  0  0  0
  137.0920   82.4510  223.4880 N   0  0  0  0  0  0  0  0  0  0  0  0
  139.2710   79.9740  221.8880 N   0  0  0  0  0  0  0  0  0  0  0  0
  139.5330   78.8880  220.9680 C   0  0  0  0  0  0  0  0  0  0  0  0
  140.5520   78.0740  221.7730 C   0  0  1  0  0  0  0  0  0  0  0  0
  139.8070   77.1330  222.6440 C   0  0  0  0  0  0  0  0  0  0  0  0
  139.9600   75.7970  221.9790 C   0  0  0  0  0  0  0  0  0  0  0  0
  140.9370   75.8990  220.9540 N   0  0  0  0  0  0  0  0  0  0  0  0
  141.9190   74.8690  220.8990 C   0  0  0  0  0  0  0  0  0  0  0  0
  142.8850   74.9840  219.7700 C   0  0  0  0  0  0  0  0  0  0  0  0
  143.8740   73.8470  219.8170 C   0  0  2  0  0  0  0  0  0  0  0  0
  145.0220   74.1110  220.7710 C   0  0  0  0  0  0  0  0  0  0  0  0
  145.9810   72.9960  220.3210 C   0  0  0  0  0  0  0  0  0  0  0  0
  145.9830   73.2740  218.8780 N   0  0  0  0  0  0  0  0  0  0  0  0
  144.6150   73.6300  218.5270 C   0  0  0  0  0  0  0  0  0  0  0  0
  141.4130   77.2400  220.8940 C   0  0  0  0  0  0  0  0  0  0  0  0
  141.3090   79.1030  222.5280 C   0  0  0  0  0  0  0  0  0  0  0  0
  142.5600   79.0350  223.1020 C   0  0  0  0  0  0  0  0  0  0  0  0
  143.0380   80.1540  223.7630 C   0  0  0  0  0  0  0  0  0  0  0  0
  142.2480   81.2830  223.8190 C   0  0  0  0  0  0  0  0  0  0  0  0
  140.9880   81.3190  223.2300 C   0  0  0  0  0  0  0  0  0  0  0  0
  140.5090   80.2220  222.5760 C   0  0  0  0  0  0  0  0  0  0  0  0
  137.7338   79.4848  224.7203 H   0  0  0  0  0  0  0  0  0  0  0  0
  136.7975   80.3433  227.3361 H   0  0  0  0  0  0  0  0  0  0  0  0
  135.8665   82.2927  228.5557 H   0  0  0  0  0  0  0  0  0  0  0  0
  135.4861   84.4282  227.3484 H   0  0  0  0  0  0  0  0  0  0  0  0
  136.0302   84.6286  224.9254 H   0  0  0  0  0  0  0  0  0  0  0  0
  137.0200   83.2230  222.7890 H   0  0  0  0  0  0  0  0  0  0  0  0
  138.6235   78.3057  220.7586 H   0  0  0  0  0  0  0  0  0  0  0  0
  139.8839   79.2052  219.9749 H   0  0  0  0  0  0  0  0  0  0  0  0
  140.2397   77.1149  223.6552 H   0  0  0  0  0  0  0  0  0  0  0  0
  138.7520   77.4211  222.7618 H   0  0  0  0  0  0  0  0  0  0  0  0
  140.2805   75.0506  222.7207 H   0  0  0  0  0  0  0  0  0  0  0  0
  138.9982   75.4859  221.5454 H   0  0  0  0  0  0  0  0  0  0  0  0
  142.4887   74.8892  221.8398 H   0  0  0  0  0  0  0  0  0  0  0  0
  141.3713   73.9280  220.7423 H   0  0  0  0  0  0  0  0  0  0  0  0
  142.3366   74.9502  218.8170 H   0  0  0  0  0  0  0  0  0  0  0  0
  143.4275   75.9371  219.8558 H   0  0  0  0  0  0  0  0  0  0  0  0
  143.2315   72.9995  220.0979 H   0  0  0  0  0  0  0  0  0  0  0  0
  145.4565   75.1109  220.6247 H   0  0  0  0  0  0  0  0  0  0  0  0
  144.7576   74.1010  221.8387 H   0  0  0  0  0  0  0  0  0  0  0  0
  146.9813   73.1064  220.7650 H   0  0  0  0  0  0  0  0  0  0  0  0
  145.6918   71.9744  220.6087 H   0  0  0  0  0  0  0  0  0  0  0  0
  146.6160   74.1200  218.7730 H   0  0  0  0  0  0  0  0  0  0  0  0
  144.6064   74.5516  217.9265 H   0  0  0  0  0  0  0  0  0  0  0  0
  144.1425   72.8352  217.9311 H   0  0  0  0  0  0  0  0  0  0  0  0
  142.4550   77.2820  221.2439 H   0  0  0  0  0  0  0  0  0  0  0  0
  141.3762   77.6121  219.8595 H   0  0  0  0  0  0  0  0  0  0  0  0
  143.1624   78.1169  223.0369 H   0  0  0  0  0  0  0  0  0  0  0  0
  144.0313   80.1426  224.2355 H   0  0  0  0  0  0  0  0  0  0  0  0
  142.6227   82.1756  224.3414 H   0  0  0  0  0  0  0  0  0  0  0  0
  140.3780   82.2323  223.2917 H   0  0  0  0  0  0  0  0  0  0  0  0
  1  2  2  0
  2  3  1  0
  3  4  2  0
  4  5  1  0
  5  6  2  0
  6  7  1  0
  7  8  2  0
  8  9  1  0
  9 10  2  0
 10 11  1  0
  2 12  1  0
 12 13  1  0
 14 13  1  6
 14 15  1  0
 15 16  1  0
 16 17  1  0
 17 18  1  0
 18 19  1  0
 19 20  1  0
 20 21  1  0
 21 22  1  0
 22 23  1  0
 23 24  1  0
 17 25  1  0
 14 26  1  0
 26 27  2  0
 27 28  1  0
 28 29  2  0
 29 30  1  0
 30 31  2  0
 11  3  1  0
 31 12  1  0
 10  5  1  0
 25 14  1  0
 31 26  1  0
 24 20  1  0
  4 32  1  0
  6 33  1  0
  7 34  1  0
  8 35  1  0
  9 36  1  0
 11 37  1  0
 13 38  1  0
 13 39  1  0
 15 40  1  0
 15 41  1  0
 16 42  1  0
 16 43  1  0
 18 44  1  0
 18 45  1  0
 19 46  1  0
 19 47  1  0
 20 48  1  1
 21 49  1  0
 21 50  1  0
 22 51  1  0
 22 52  1  0
 23 53  1  0
 24 54  1  0
 24 55  1  0
 25 56  1  0
 25 57  1  0
 27 58  1  0
 28 59  1  0
 29 60  1  0
 30 61  1  0
M  END
>  <smiles>  (9) 
O=C(c1cc2ccccc2[nH]1)N1C[C@]2(CCN(CCC3CCNC3)C2)c2ccccc21

>  <score_type>  (9) 
oracle

>  <origin>  (9) 
autodockgpu

>  <m_score__min__energy>  (9) 
-9.6400000000000006

>  <m_primary>  (9) 
energy

>  <rmsd>  (9) 
9.886438753396595

>  <m_score__min__rmsd>  (9) 
9.886438753396595

>  <meeko>  (9) 
{"free_energy": -9.15, "intermolecular_energy": -10.64, "internal_energy": -1.3, "cluster_size": 45, "cluster_id": 1, "rank_in_cluster": 30}

>  <energy>  (9) 
-9.58

>  <cluster_rmsd>  (9) 
0.87

>  <cluster>  (9) 
1

$$$$

     RDKit          3D

 61 66  0  0  1  0  0  0  0  0999 V2000
  137.2860   80.8330  221.0270 O   0  0  0  0  0  0  0  0  0  0  0  0
  138.0440   80.6650  222.0490 C   0  0  0  0  0  0  0  0  0  0  0  0
  137.5620   81.2000  223.2920 C   0  0  0  0  0  0  0  0  0  0  0  0
  137.4550   80.5430  224.5160 C   0  0  0  0  0  0  0  0  0  0  0  0
  136.9470   81.4230  225.4580 C   0  0  0  0  0  0  0  0  0  0  0  0
  136.6440   81.3070  226.8030 C   0  0  0  0  0  0  0  0  0  0  0  0
  136.1400   82.3880  227.4840 C   0  0  0  0  0  0  0  0  0  0  0  0
  135.9430   83.5840  226.8130 C   0  0  0  0  0  0  0  0  0  0  0  0
  136.2490   83.7040  225.4570 C   0  0  0  0  0  0  0  0  0  0  0  0
  136.7510   82.6240  224.7830 C   0  0  0  0  0  0  0  0  0  0  0  0
  137.1230   82.4750  223.4870 N   0  0  0  0  0  0  0  0  0  0  0  0
  139.2730   79.9820  221.8740 N   0  0  0  0  0  0  0  0  0  0  0  0
  139.5190   78.8860  220.9600 C   0  0  0  0  0  0  0  0  0  0  0  0
  140.5380   78.0700  221.7640 C   0  0  1  0  0  0  0  0  0  0  0  0
  139.7920   77.1430  222.6490 C   0  0  0  0  0  0  0  0  0  0  0  0
  139.9290   75.8000  221.9940 C   0  0  0  0  0  0  0  0  0  0  0  0
  140.8990   75.8860  220.9600 N   0  0  0  0  0  0  0  0  0  0  0  0
  141.8720   74.8480  220.9070 C   0  0  0  0  0  0  0  0  0  0  0  0
  143.0900   75.1710  220.1110 C   0  0  0  0  0  0  0  0  0  0  0  0
  144.0390   74.0000  220.1170 C   0  0  2  0  0  0  0  0  0  0  0  0
  145.3320   74.3000  220.8500 C   0  0  0  0  0  0  0  0  0  0  0  0
  146.1720   73.1060  220.3700 C   0  0  0  0  0  0  0  0  0  0  0  0
  145.9540   73.2460  218.9240 N   0  0  0  0  0  0  0  0  0  0  0  0
  144.5590   73.6290  218.7560 C   0  0  0  0  0  0  0  0  0  0  0  0
  141.3850   77.2220  220.8860 C   0  0  0  0  0  0  0  0  0  0  0  0
  141.3090   79.1000  222.5040 C   0  0  0  0  0  0  0  0  0  0  0  0
  142.5640   79.0260  223.0690 C   0  0  0  0  0  0  0  0  0  0  0  0
  143.0560   80.1470  223.7170 C   0  0  0  0  0  0  0  0  0  0  0  0
  142.2760   81.2830  223.7700 C   0  0  0  0  0  0  0  0  0  0  0  0
  141.0120   81.3240  223.1900 C   0  0  0  0  0  0  0  0  0  0  0  0
  140.5180   80.2260  222.5500 C   0  0  0  0  0  0  0  0  0  0  0  0
  137.7296   79.4946  224.7042 H   0  0  0  0  0  0  0  0  0  0  0  0
  136.8062   80.3524  227.3250 H   0  0  0  0  0  0  0  0  0  0  0  0
  135.8948   82.3049  228.5531 H   0  0  0  0  0  0  0  0  0  0  0  0
  135.5398   84.4510  227.3568 H   0  0  0  0  0  0  0  0  0  0  0  0
  136.0881   84.6584  224.9343 H   0  0  0  0  0  0  0  0  0  0  0  0
  137.0600   83.2500  222.7910 H   0  0  0  0  0  0  0  0  0  0  0  0
  138.6032   78.3095  220.7624 H   0  0  0  0  0  0  0  0  0  0  0  0
  139.8645   79.1924  219.9616 H   0  0  0  0  0  0  0  0  0  0  0  0
  140.2324   77.1300  223.6569 H   0  0  0  0  0  0  0  0  0  0  0  0
  138.7404   77.4409  222.7727 H   0  0  0  0  0  0  0  0  0  0  0  0
  140.2495   75.0572  222.7394 H   0  0  0  0  0  0  0  0  0  0  0  0
  138.9613   75.4927  221.5708 H   0  0  0  0  0  0  0  0  0  0  0  0
  142.1865   74.6213  221.9364 H   0  0  0  0  0  0  0  0  0  0  0  0
  141.3896   73.9979  220.4024 H   0  0  0  0  0  0  0  0  0  0  0  0
  142.7980   75.3972  219.0749 H   0  0  0  0  0  0  0  0  0  0  0  0
  143.5911   76.0425  220.5576 H   0  0  0  0  0  0  0  0  0  0  0  0
  143.4238   73.2129  220.5774 H   0  0  0  0  0  0  0  0  0  0  0  0
  145.7677   75.2609  220.5389 H   0  0  0  0  0  0  0  0  0  0  0  0
  145.2410   74.4025  221.9414 H   0  0  0  0  0  0  0  0  0  0  0  0
  147.2330   73.2116  220.6403 H   0  0  0  0  0  0  0  0  0  0  0  0
  145.9004   72.1304  220.7995 H   0  0  0  0  0  0  0  0  0  0  0  0
  146.5870   74.0480  218.6380 H   0  0  0  0  0  0  0  0  0  0  0  0
  144.4827   74.4893  218.0748 H   0  0  0  0  0  0  0  0  0  0  0  0
  143.9743   72.8037  218.3235 H   0  0  0  0  0  0  0  0  0  0  0  0
  142.4299   77.2582  221.2279 H   0  0  0  0  0  0  0  0  0  0  0  0
  141.3432   77.5861  219.8488 H   0  0  0  0  0  0  0  0  0  0  0  0
  143.1583   78.1024  223.0070 H   0  0  0  0  0  0  0  0  0  0  0  0
  144.0528   80.1313  224.1818 H   0  0  0  0  0  0  0  0  0  0  0  0
  142.6618   82.1767  224.2823 H   0  0  0  0  0  0  0  0  0  0  0  0
  140.4105   82.2432  223.2478 H   0  0  0  0  0  0  0  0  0  0  0  0
  1  2  2  0
  2  3  1  0
  3  4  2  0
  4  5  1  0
  5  6  2  0
  6  7  1  0
  7  8  2  0
  8  9  1  0
  9 10  2  0
 10 11  1  0
  2 12  1  0
 12 13  1  0
 14 13  1  6
 14 15  1  0
 15 16  1  0
 16 17  1  0
 17 18  1  0
 18 19  1  0
 19 20  1  0
 20 21  1  0
 21 22  1  0
 22 23  1  0
 23 24  1  0
 17 25  1  0
 14 26  1  0
 26 27  2  0
 27 28  1  0
 28 29  2  0
 29 30  1  0
 30 31  2  0
 11  3  1  0
 31 12  1  0
 10  5  1  0
 25 14  1  0
 31 26  1  0
 24 20  1  0
  4 32  1  0
  6 33  1  0
  7 34  1  0
  8 35  1  0
  9 36  1  0
 11 37  1  0
 13 38  1  0
 13 39  1  0
 15 40  1  0
 15 41  1  0
 16 42  1  0
 16 43  1  0
 18 44  1  0
 18 45  1  0
 19 46  1  0
 19 47  1  0
 20 48  1  1
 21 49  1  0
 21 50  1  0
 22 51  1  0
 22 52  1  0
 23 53  1  0
 24 54  1  0
 24 55  1  0
 25 56  1  0
 25 57  1  0
 27 58  1  0
 28 59  1  0
 29 60  1  0
 30 61  1  0
M  END
>  <smiles>  (10) 
O=C(c1cc2ccccc2[nH]1)N1C[C@]2(CCN(CCC3CCNC3)C2)c2ccccc21

>  <score_type>  (10) 
oracle

>  <origin>  (10) 
autodockgpu

>  <m_score__min__energy>  (10) 
-9.6400000000000006

>  <m_primary>  (10) 
energy

>  <rmsd>  (10) 
9.88960612690315

>  <m_score__min__rmsd>  (10) 
9.88960612690315

>  <meeko>  (10) 
{"free_energy": -9.15, "intermolecular_energy": -10.65, "internal_energy": -1.31, "cluster_size": 45, "cluster_id": 1, "rank_in_cluster": 29}

>  <energy>  (10) 
-9.58

>  <cluster_rmsd>  (10) 
0.86

>  <cluster>  (10) 
1

$$$$

     RDKit          3D

 61 66  0  0  1  0  0  0  0  0999 V2000
  137.1190   78.7410  222.7390 O   0  0  0  0  0  0  0  0  0  0  0  0
  138.0300   79.6080  222.9930 C   0  0  0  0  0  0  0  0  0  0  0  0
  137.6420   80.7110  223.8280 C   0  0  0  0  0  0  0  0  0  0  0  0
  137.6510   80.7680  225.2190 C   0  0  0  0  0  0  0  0  0  0  0  0
  137.2050   82.0160  225.6230 C   0  0  0  0  0  0  0  0  0  0  0  0
  137.0170   82.6060  226.8610 C   0  0  0  0  0  0  0  0  0  0  0  0
  136.5500   83.8950  226.9380 C   0  0  0  0  0  0  0  0  0  0  0  0
  136.2740   84.5900  225.7720 C   0  0  0  0  0  0  0  0  0  0  0  0
  136.4630   83.9980  224.5230 C   0  0  0  0  0  0  0  0  0  0  0  0
  136.9290   82.7130  224.4510 C   0  0  0  0  0  0  0  0  0  0  0  0
  137.1950   81.9190  223.3840 N   0  0  0  0  0  0  0  0  0  0  0  0
  139.3200   79.4150  222.4400 N   0  0  0  0  0  0  0  0  0  0  0  0
  139.6370   78.6380  221.2600 C   0  0  0  0  0  0  0  0  0  0  0  0
  141.0130   78.0850  221.6460 C   0  0  1  0  0  0  0  0  0  0  0  0
  140.8090   76.8240  222.4000 C   0  0  0  0  0  0  0  0  0  0  0  0
  141.1600   75.7370  221.4270 C   0  0  0  0  0  0  0  0  0  0  0  0
  141.7760   76.3180  220.2870 N   0  0  0  0  0  0  0  0  0  0  0  0
  142.9620   75.6900  219.8100 C   0  0  0  0  0  0  0  0  0  0  0  0
  143.3380   74.4380  220.5230 C   0  0  0  0  0  0  0  0  0  0  0  0
  144.3170   73.6430  219.6960 C   0  0  2  0  0  0  0  0  0  0  0  0
  144.0650   72.1500  219.7680 C   0  0  0  0  0  0  0  0  0  0  0  0
  145.3840   71.6460  219.1610 C   0  0  0  0  0  0  0  0  0  0  0  0
  146.3210   72.3990  220.0060 N   0  0  0  0  0  0  0  0  0  0  0  0
  145.7350   73.7200  220.1900 C   0  0  0  0  0  0  0  0  0  0  0  0
  141.8230   77.7310  220.4510 C   0  0  0  0  0  0  0  0  0  0  0  0
  141.6140   79.1690  222.4610 C   0  0  0  0  0  0  0  0  0  0  0  0
  142.9360   79.4230  222.7560 C   0  0  0  0  0  0  0  0  0  0  0  0
  143.2290   80.5140  223.5560 C   0  0  0  0  0  0  0  0  0  0  0  0
  142.1940   81.2980  224.0210 C   0  0  0  0  0  0  0  0  0  0  0  0
  140.8690   81.0130  223.7060 C   0  0  0  0  0  0  0  0  0  0  0  0
  140.5700   79.9410  222.9190 C   0  0  0  0  0  0  0  0  0  0  0  0
  137.9621   79.9533  225.8894 H   0  0  0  0  0  0  0  0  0  0  0  0
  137.2409   82.0443  227.7799 H   0  0  0  0  0  0  0  0  0  0  0  0
  136.3964   84.3717  227.9174 H   0  0  0  0  0  0  0  0  0  0  0  0
  135.9006   85.6230  225.8317 H   0  0  0  0  0  0  0  0  0  0  0  0
  136.2394   84.5592  223.6037 H   0  0  0  0  0  0  0  0  0  0  0  0
  137.0590   82.2360  222.3990 H   0  0  0  0  0  0  0  0  0  0  0  0
  138.9069   77.8314  221.0975 H   0  0  0  0  0  0  0  0  0  0  0  0
  139.6213   79.2084  220.3196 H   0  0  0  0  0  0  0  0  0  0  0  0
  141.4697   76.7862  223.2786 H   0  0  0  0  0  0  0  0  0  0  0  0
  139.7808   76.7273  222.7787 H   0  0  0  0  0  0  0  0  0  0  0  0
  141.8552   75.0283  221.9008 H   0  0  0  0  0  0  0  0  0  0  0  0
  140.2485   75.2009  221.1241 H   0  0  0  0  0  0  0  0  0  0  0  0
  142.8165   75.4475  218.7470 H   0  0  0  0  0  0  0  0  0  0  0  0
  143.7810   76.4031  219.9855 H   0  0  0  0  0  0  0  0  0  0  0  0
  143.8006   74.6939  221.4876 H   0  0  0  0  0  0  0  0  0  0  0  0
  142.4340   73.8337  220.6892 H   0  0  0  0  0  0  0  0  0  0  0  0
  144.1790   74.0824  218.6970 H   0  0  0  0  0  0  0  0  0  0  0  0
  143.9308   71.8051  220.8039 H   0  0  0  0  0  0  0  0  0  0  0  0
  143.1518   71.8024  219.2628 H   0  0  0  0  0  0  0  0  0  0  0  0
  145.5041   70.5588  219.2776 H   0  0  0  0  0  0  0  0  0  0  0  0
  145.4962   71.7951  218.0769 H   0  0  0  0  0  0  0  0  0  0  0  0
  146.3250   71.8730  220.9280 H   0  0  0  0  0  0  0  0  0  0  0  0
  145.7499   73.9951  221.2549 H   0  0  0  0  0  0  0  0  0  0  0  0
  146.3031   74.4826  219.6371 H   0  0  0  0  0  0  0  0  0  0  0  0
  142.8640   78.0549  220.5971 H   0  0  0  0  0  0  0  0  0  0  0  0
  141.4222   78.2317  219.5573 H   0  0  0  0  0  0  0  0  0  0  0  0
  143.7363   78.7766  222.3665 H   0  0  0  0  0  0  0  0  0  0  0  0
  144.2708   80.7519  223.8167 H   0  0  0  0  0  0  0  0  0  0  0  0
  142.4210   82.1678  224.6549 H   0  0  0  0  0  0  0  0  0  0  0  0
  140.0623   81.6532  224.0923 H   0  0  0  0  0  0  0  0  0  0  0  0
  1  2  2  0
  2  3  1  0
  3  4  2  0
  4  5  1  0
  5  6  2  0
  6  7  1  0
  7  8  2  0
  8  9  1  0
  9 10  2  0
 10 11  1  0
  2 12  1  0
 12 13  1  0
 14 13  1  6
 14 15  1  0
 15 16  1  0
 16 17  1  0
 17 18  1  0
 18 19  1  0
 19 20  1  0
 20 21  1  0
 21 22  1  0
 22 23  1  0
 23 24  1  0
 17 25  1  0
 14 26  1  0
 26 27  2  0
 27 28  1  0
 28 29  2  0
 29 30  1  0
 30 31  2  0
 11  3  1  0
 31 12  1  0
 10  5  1  0
 25 14  1  0
 31 26  1  0
 24 20  1  0
  4 32  1  0
  6 33  1  0
  7 34  1  0
  8 35  1  0
  9 36  1  0
 11 37  1  0
 13 38  1  0
 13 39  1  0
 15 40  1  0
 15 41  1  0
 16 42  1  0
 16 43  1  0
 18 44  1  0
 18 45  1  0
 19 46  1  0
 19 47  1  0
 20 48  1  6
 21 49  1  0
 21 50  1  0
 22 51  1  0
 22 52  1  0
 23 53  1  0
 24 54  1  0
 24 55  1  0
 25 56  1  0
 25 57  1  0
 27 58  1  0
 28 59  1  0
 29 60  1  0
 30 61  1  0
M  END
>  <smiles>  (11) 
O=C(c1cc2ccccc2[nH]1)N1C[C@]2(CCN(CCC3CCNC3)C2)c2ccccc21

>  <score_type>  (11) 
oracle

>  <origin>  (11) 
autodockgpu

>  <m_score__min__energy>  (11) 
-9.6400000000000006

>  <m_primary>  (11) 
energy

>  <rmsd>  (11) 
10.155997990006306

>  <m_score__min__rmsd>  (11) 
10.155997990006306

>  <meeko>  (11) 
{"free_energy": -9.24, "intermolecular_energy": -10.73, "internal_energy": -1.17, "cluster_size": 45, "cluster_id": 1, "rank_in_cluster": 23}

>  <energy>  (11) 
-9.58

>  <cluster_rmsd>  (11) 
0.88

>  <cluster>  (11) 
1

$$$$

     RDKit          3D

 61 66  0  0  1  0  0  0  0  0999 V2000
  137.2060   79.9830  221.1550 O   0  0  0  0  0  0  0  0  0  0  0  0
  138.1200   80.2620  222.0110 C   0  0  0  0  0  0  0  0  0  0  0  0
  137.6950   80.9770  223.1830 C   0  0  0  0  0  0  0  0  0  0  0  0
  137.6550   80.5130  224.4950 C   0  0  0  0  0  0  0  0  0  0  0  0
  137.1870   81.5240  225.3180 C   0  0  0  0  0  0  0  0  0  0  0  0
  136.9510   81.6110  226.6790 C   0  0  0  0  0  0  0  0  0  0  0  0
  136.4730   82.7820  227.2150 C   0  0  0  0  0  0  0  0  0  0  0  0
  136.2330   83.8630  226.3820 C   0  0  0  0  0  0  0  0  0  0  0  0
  136.4700   83.7780  225.0100 C   0  0  0  0  0  0  0  0  0  0  0  0
  136.9470   82.6090  224.4810 C   0  0  0  0  0  0  0  0  0  0  0  0
  137.2560   82.2670  223.2050 N   0  0  0  0  0  0  0  0  0  0  0  0
  139.4490   79.8530  221.7390 N   0  0  0  0  0  0  0  0  0  0  0  0
  139.8660   78.9450  220.6920 C   0  0  0  0  0  0  0  0  0  0  0  0
  141.0470   78.2470  221.3760 C   0  0  1  0  0  0  0  0  0  0  0  0
  140.5200   77.0930  222.1430 C   0  0  0  0  0  0  0  0  0  0  0  0
  140.8860   75.8910  221.3220 C   0  0  0  0  0  0  0  0  0  0  0  0
  141.7870   76.2870  220.2980 N   0  0  0  0  0  0  0  0  0  0  0  0
  142.9360   75.4690  220.1040 C   0  0  0  0  0  0  0  0  0  0  0  0
  142.7410   74.0280  220.4290 C   0  0  0  0  0  0  0  0  0  0  0  0
  144.0530   73.2920  220.3270 C   0  0  2  0  0  0  0  0  0  0  0  0
  145.2210   74.1050  220.8490 C   0  0  0  0  0  0  0  0  0  0  0  0
  146.3790   73.2670  220.2840 C   0  0  0  0  0  0  0  0  0  0  0  0
  145.9410   73.1970  218.8830 N   0  0  0  0  0  0  0  0  0  0  0  0
  144.4950   73.0260  218.9150 C   0  0  0  0  0  0  0  0  0  0  0  0
  142.0090   77.6910  220.3890 C   0  0  0  0  0  0  0  0  0  0  0  0
  141.6350   79.3060  222.2330 C   0  0  0  0  0  0  0  0  0  0  0  0
  142.9000   79.4060  222.7720 C   0  0  0  0  0  0  0  0  0  0  0  0
  143.1930   80.5120  223.5520 C   0  0  0  0  0  0  0  0  0  0  0  0
  142.2140   81.4620  223.7560 C   0  0  0  0  0  0  0  0  0  0  0  0
  140.9470   81.3310  223.1980 C   0  0  0  0  0  0  0  0  0  0  0  0
  140.6480   80.2460  222.4280 C   0  0  0  0  0  0  0  0  0  0  0  0
  137.9480   79.5054  224.8250 H   0  0  0  0  0  0  0  0  0  0  0  0
  137.1455   80.7454  227.3293 H   0  0  0  0  0  0  0  0  0  0  0  0
  136.2825   82.8608  228.2955 H   0  0  0  0  0  0  0  0  0  0  0  0
  135.8501   84.8017  226.8088 H   0  0  0  0  0  0  0  0  0  0  0  0
  136.2753   84.6429  224.3588 H   0  0  0  0  0  0  0  0  0  0  0  0
  137.1520   82.9280  222.4050 H   0  0  0  0  0  0  0  0  0  0  0  0
  139.0692   78.2326  220.4321 H   0  0  0  0  0  0  0  0  0  0  0  0
  140.1136   79.4316  219.7371 H   0  0  0  0  0  0  0  0  0  0  0  0
  140.9885   77.0412  223.1369 H   0  0  0  0  0  0  0  0  0  0  0  0
  139.4357   77.1665  222.3131 H   0  0  0  0  0  0  0  0  0  0  0  0
  141.3658   75.1379  221.9644 H   0  0  0  0  0  0  0  0  0  0  0  0
  139.9800   75.4581  220.8727 H   0  0  0  0  0  0  0  0  0  0  0  0
  143.2347   75.5440  219.0480 H   0  0  0  0  0  0  0  0  0  0  0  0
  143.7018   75.8419  220.8000 H   0  0  0  0  0  0  0  0  0  0  0  0
  142.3506   73.9356  221.4532 H   0  0  0  0  0  0  0  0  0  0  0  0
  142.0267   73.5913  219.7155 H   0  0  0  0  0  0  0  0  0  0  0  0
  143.8427   72.3752  220.8973 H   0  0  0  0  0  0  0  0  0  0  0  0
  145.2208   75.1293  220.4481 H   0  0  0  0  0  0  0  0  0  0  0  0
  145.2385   74.2571  221.9383 H   0  0  0  0  0  0  0  0  0  0  0  0
  147.3481   73.7766  220.3894 H   0  0  0  0  0  0  0  0  0  0  0  0
  146.5507   72.2991  220.7776 H   0  0  0  0  0  0  0  0  0  0  0  0
  146.1850   74.1490  218.4820 H   0  0  0  0  0  0  0  0  0  0  0  0
  144.0149   73.7385  218.2281 H   0  0  0  0  0  0  0  0  0  0  0  0
  144.2123   72.0109  218.5994 H   0  0  0  0  0  0  0  0  0  0  0  0
  143.0392   77.8849  220.7223 H   0  0  0  0  0  0  0  0  0  0  0  0
  141.8640   78.1644  219.4068 H   0  0  0  0  0  0  0  0  0  0  0  0
  143.6559   78.6285  222.5875 H   0  0  0  0  0  0  0  0  0  0  0  0
  144.1899   80.6310  224.0015 H   0  0  0  0  0  0  0  0  0  0  0  0
  142.4406   82.3432  224.3741 H   0  0  0  0  0  0  0  0  0  0  0  0
  140.1850   82.1036  223.3780 H   0  0  0  0  0  0  0  0  0  0  0  0
  1  2  2  0
  2  3  1  0
  3  4  2  0
  4  5  1  0
  5  6  2  0
  6  7  1  0
  7  8  2  0
  8  9  1  0
  9 10  2  0
 10 11  1  0
  2 12  1  0
 12 13  1  0
 14 13  1  6
 14 15  1  0
 15 16  1  0
 16 17  1  0
 17 18  1  0
 18 19  1  0
 19 20  1  0
 20 21  1  0
 21 22  1  0
 22 23  1  0
 23 24  1  0
 17 25  1  0
 14 26  1  0
 26 27  2  0
 27 28  1  0
 28 29  2  0
 29 30  1  0
 30 31  2  0
 11  3  1  0
 31 12  1  0
 10  5  1  0
 25 14  1  0
 31 26  1  0
 24 20  1  0
  4 32  1  0
  6 33  1  0
  7 34  1  0
  8 35  1  0
  9 36  1  0
 11 37  1  0
 13 38  1  0
 13 39  1  0
 15 40  1  0
 15 41  1  0
 16 42  1  0
 16 43  1  0
 18 44  1  0
 18 45  1  0
 19 46  1  0
 19 47  1  0
 20 48  1  1
 21 49  1  0
 21 50  1  0
 22 51  1  0
 22 52  1  0
 23 53  1  0
 24 54  1  0
 24 55  1  0
 25 56  1  0
 25 57  1  0
 27 58  1  0
 28 59  1  0
 29 60  1  0
 30 61  1  0
M  END
>  <smiles>  (12) 
O=C(c1cc2ccccc2[nH]1)N1C[C@]2(CCN(CCC3CCNC3)C2)c2ccccc21

>  <score_type>  (12) 
oracle

>  <origin>  (12) 
autodockgpu

>  <m_score__min__energy>  (12) 
-9.6400000000000006

>  <m_primary>  (12) 
energy

>  <rmsd>  (12) 
9.88976425455431

>  <m_score__min__rmsd>  (12) 
9.88976425455431

>  <meeko>  (12) 
{"free_energy": -9.33, "intermolecular_energy": -10.82, "internal_energy": -1.3, "cluster_size": 45, "cluster_id": 1, "rank_in_cluster": 19}

>  <energy>  (12) 
-9.58

>  <cluster_rmsd>  (12) 
0.87

>  <cluster>  (12) 
1

$$$$

     RDKit          3D

 61 66  0  0  1  0  0  0  0  0999 V2000
  137.2840   80.8250  221.0870 O   0  0  0  0  0  0  0  0  0  0  0  0
  138.0450   80.6550  222.1060 C   0  0  0  0  0  0  0  0  0  0  0  0
  137.5620   81.1800  223.3530 C   0  0  0  0  0  0  0  0  0  0  0  0
  137.4650   80.5170  224.5740 C   0  0  0  0  0  0  0  0  0  0  0  0
  136.9530   81.3890  225.5220 C   0  0  0  0  0  0  0  0  0  0  0  0
  136.6550   81.2640  226.8670 C   0  0  0  0  0  0  0  0  0  0  0  0
  136.1450   82.3380  227.5560 C   0  0  0  0  0  0  0  0  0  0  0  0
  135.9360   83.5350  226.8900 C   0  0  0  0  0  0  0  0  0  0  0  0
  136.2360   83.6630  225.5340 C   0  0  0  0  0  0  0  0  0  0  0  0
  136.7440   82.5910  224.8530 C   0  0  0  0  0  0  0  0  0  0  0  0
  137.1130   82.4510  223.5550 N   0  0  0  0  0  0  0  0  0  0  0  0
  139.2770   79.9790  221.9250 N   0  0  0  0  0  0  0  0  0  0  0  0
  139.5270   78.8910  221.0020 C   0  0  0  0  0  0  0  0  0  0  0  0
  140.5500   78.0740  221.7990 C   0  0  1  0  0  0  0  0  0  0  0  0
  139.8090   77.1360  222.6770 C   0  0  0  0  0  0  0  0  0  0  0  0
  139.9520   75.7990  222.0120 C   0  0  0  0  0  0  0  0  0  0  0  0
  140.9200   75.8970  220.9780 N   0  0  0  0  0  0  0  0  0  0  0  0
  141.8980   74.8640  220.9160 C   0  0  0  0  0  0  0  0  0  0  0  0
  143.0610   75.1540  220.0310 C   0  0  0  0  0  0  0  0  0  0  0  0
  143.9740   73.9560  219.9650 C   0  0  2  0  0  0  0  0  0  0  0  0
  145.2170   74.1220  220.8170 C   0  0  0  0  0  0  0  0  0  0  0  0
  146.0570   72.9620  220.2590 C   0  0  0  0  0  0  0  0  0  0  0  0
  145.9500   73.2770  218.8280 N   0  0  0  0  0  0  0  0  0  0  0  0
  144.5820   73.7280  218.6090 C   0  0  0  0  0  0  0  0  0  0  0  0
  141.4000   77.2360  220.9140 C   0  0  0  0  0  0  0  0  0  0  0  0
  141.3170   79.1000  222.5470 C   0  0  0  0  0  0  0  0  0  0  0  0
  142.5730   79.0280  223.1110 C   0  0  0  0  0  0  0  0  0  0  0  0
  143.0600   80.1450  223.7670 C   0  0  0  0  0  0  0  0  0  0  0  0
  142.2750   81.2780  223.8300 C   0  0  0  0  0  0  0  0  0  0  0  0
  141.0100   81.3170  223.2510 C   0  0  0  0  0  0  0  0  0  0  0  0
  140.5210   80.2230  222.6020 C   0  0  0  0  0  0  0  0  0  0  0  0
  137.7489   79.4701  224.7566 H   0  0  0  0  0  0  0  0  0  0  0  0
  136.8257   80.3079  227.3834 H   0  0  0  0  0  0  0  0  0  0  0  0
  135.9050   82.2484  228.6258 H   0  0  0  0  0  0  0  0  0  0  0  0
  135.5277   84.3966  227.4386 H   0  0  0  0  0  0  0  0  0  0  0  0
  136.0654   84.6184  225.0163 H   0  0  0  0  0  0  0  0  0  0  0  0
  137.0410   83.2280  222.8630 H   0  0  0  0  0  0  0  0  0  0  0  0
  138.6137   78.3119  220.8007 H   0  0  0  0  0  0  0  0  0  0  0  0
  139.8701   79.2064  220.0056 H   0  0  0  0  0  0  0  0  0  0  0  0
  140.2500   77.1173  223.6846 H   0  0  0  0  0  0  0  0  0  0  0  0
  138.7559   77.4277  222.8032 H   0  0  0  0  0  0  0  0  0  0  0  0
  140.2769   75.0524  222.7515 H   0  0  0  0  0  0  0  0  0  0  0  0
  138.9853   75.4904  221.5874 H   0  0  0  0  0  0  0  0  0  0  0  0
  142.2777   74.6913  221.9338 H   0  0  0  0  0  0  0  0  0  0  0  0
  141.3934   73.9867  220.4851 H   0  0  0  0  0  0  0  0  0  0  0  0
  142.6984   75.3911  219.0199 H   0  0  0  0  0  0  0  0  0  0  0  0
  143.6191   76.0096  220.4391 H   0  0  0  0  0  0  0  0  0  0  0  0
  143.3056   73.1431  220.2850 H   0  0  0  0  0  0  0  0  0  0  0  0
  145.7009   75.0962  220.6531 H   0  0  0  0  0  0  0  0  0  0  0  0
  145.0485   74.1003  221.9038 H   0  0  0  0  0  0  0  0  0  0  0  0
  147.0977   72.9971  220.6135 H   0  0  0  0  0  0  0  0  0  0  0  0
  145.7278   71.9535  220.5499 H   0  0  0  0  0  0  0  0  0  0  0  0
  146.6250   74.0840  218.6840 H   0  0  0  0  0  0  0  0  0  0  0  0
  144.5804   74.6643  218.0316 H   0  0  0  0  0  0  0  0  0  0  0  0
  144.0078   72.9812  218.0410 H   0  0  0  0  0  0  0  0  0  0  0  0
  142.4450   77.2742  221.2555 H   0  0  0  0  0  0  0  0  0  0  0  0
  141.3556   77.6077  219.8796 H   0  0  0  0  0  0  0  0  0  0  0  0
  143.1717   78.1078  223.0414 H   0  0  0  0  0  0  0  0  0  0  0  0
  144.0573   80.1298  224.2309 H   0  0  0  0  0  0  0  0  0  0  0  0
  142.6572   82.1694  224.3489 H   0  0  0  0  0  0  0  0  0  0  0  0
  140.4038   82.2325  223.3174 H   0  0  0  0  0  0  0  0  0  0  0  0
  1  2  2  0
  2  3  1  0
  3  4  2  0
  4  5  1  0
  5  6  2  0
  6  7  1  0
  7  8  2  0
  8  9  1  0
  9 10  2  0
 10 11  1  0
  2 12  1  0
 12 13  1  0
 14 13  1  6
 14 15  1  0
 15 16  1  0
 16 17  1  0
 17 18  1  0
 18 19  1  0
 19 20  1  0
 20 21  1  0
 21 22  1  0
 22 23  1  0
 23 24  1  0
 17 25  1  0
 14 26  1  0
 26 27  2  0
 27 28  1  0
 28 29  2  0
 29 30  1  0
 30 31  2  0
 11  3  1  0
 31 12  1  0
 10  5  1  0
 25 14  1  0
 31 26  1  0
 24 20  1  0
  4 32  1  0
  6 33  1  0
  7 34  1  0
  8 35  1  0
  9 36  1  0
 11 37  1  0
 13 38  1  0
 13 39  1  0
 15 40  1  0
 15 41  1  0
 16 42  1  0
 16 43  1  0
 18 44  1  0
 18 45  1  0
 19 46  1  0
 19 47  1  0
 20 48  1  1
 21 49  1  0
 21 50  1  0
 22 51  1  0
 22 52  1  0
 23 53  1  0
 24 54  1  0
 24 55  1  0
 25 56  1  0
 25 57  1  0
 27 58  1  0
 28 59  1  0
 29 60  1  0
 30 61  1  0
M  END
>  <smiles>  (13) 
O=C(c1cc2ccccc2[nH]1)N1C[C@]2(CCN(CCC3CCNC3)C2)c2ccccc21

>  <score_type>  (13) 
oracle

>  <origin>  (13) 
autodockgpu

>  <m_score__min__energy>  (13) 
-9.6400000000000006

>  <m_primary>  (13) 
energy

>  <rmsd>  (13) 
9.88166898568539

>  <m_score__min__rmsd>  (13) 
9.88166898568539

>  <meeko>  (13) 
{"free_energy": -9.19, "intermolecular_energy": -10.68, "internal_energy": -1.31, "cluster_size": 45, "cluster_id": 1, "rank_in_cluster": 26}

>  <energy>  (13) 
-9.57

>  <cluster_rmsd>  (13) 
0.87

>  <cluster>  (13) 
1

$$$$

     RDKit          3D

 61 66  0  0  1  0  0  0  0  0999 V2000
  137.1630   78.6040  222.8600 O   0  0  0  0  0  0  0  0  0  0  0  0
  138.0440   79.5150  223.0560 C   0  0  0  0  0  0  0  0  0  0  0  0
  137.6340   80.6330  223.8600 C   0  0  0  0  0  0  0  0  0  0  0  0
  137.6220   80.7230  225.2490 C   0  0  0  0  0  0  0  0  0  0  0  0
  137.1600   81.9760  225.6170 C   0  0  0  0  0  0  0  0  0  0  0  0
  136.9480   82.5920  226.8380 C   0  0  0  0  0  0  0  0  0  0  0  0
  136.4680   83.8780  226.8790 C   0  0  0  0  0  0  0  0  0  0  0  0
  136.2020   84.5430  225.6930 C   0  0  0  0  0  0  0  0  0  0  0  0
  136.4150   83.9240  224.4610 C   0  0  0  0  0  0  0  0  0  0  0  0
  136.8940   82.6430  224.4260 C   0  0  0  0  0  0  0  0  0  0  0  0
  137.1820   81.8260  223.3820 N   0  0  0  0  0  0  0  0  0  0  0  0
  139.3260   79.3520  222.4740 N   0  0  0  0  0  0  0  0  0  0  0  0
  139.6320   78.5930  221.2800 C   0  0  0  0  0  0  0  0  0  0  0  0
  141.0270   78.0620  221.6320 C   0  0  1  0  0  0  0  0  0  0  0  0
  140.8620   76.7900  222.3770 C   0  0  0  0  0  0  0  0  0  0  0  0
  141.2130   75.7200  221.3850 C   0  0  0  0  0  0  0  0  0  0  0  0
  141.7940   76.3240  220.2390 N   0  0  0  0  0  0  0  0  0  0  0  0
  142.9810   75.7230  219.7310 C   0  0  0  0  0  0  0  0  0  0  0  0
  142.8400   74.2930  219.3370 C   0  0  0  0  0  0  0  0  0  0  0  0
  144.0290   73.5020  219.8210 C   0  0  2  0  0  0  0  0  0  0  0  0
  144.9630   74.3240  220.6870 C   0  0  0  0  0  0  0  0  0  0  0  0
  146.1820   73.3870  220.6960 C   0  0  0  0  0  0  0  0  0  0  0  0
  146.3150   73.1800  219.2480 N   0  0  0  0  0  0  0  0  0  0  0  0
  144.9600   73.0670  218.7240 C   0  0  0  0  0  0  0  0  0  0  0  0
  141.8180   77.7360  220.4170 C   0  0  0  0  0  0  0  0  0  0  0  0
  141.6240   79.1490  222.4460 C   0  0  0  0  0  0  0  0  0  0  0  0
  142.9470   79.4250  222.7160 C   0  0  0  0  0  0  0  0  0  0  0  0
  143.2360   80.5140  223.5210 C   0  0  0  0  0  0  0  0  0  0  0  0
  142.1960   81.2730  224.0160 C   0  0  0  0  0  0  0  0  0  0  0  0
  140.8710   80.9660  223.7250 C   0  0  0  0  0  0  0  0  0  0  0  0
  140.5750   79.8970  222.9330 C   0  0  0  0  0  0  0  0  0  0  0  0
  137.9299   79.9270  225.9429 H   0  0  0  0  0  0  0  0  0  0  0  0
  137.1633   82.0533  227.7726 H   0  0  0  0  0  0  0  0  0  0  0  0
  136.2962   84.3757  227.8448 H   0  0  0  0  0  0  0  0  0  0  0  0
  135.8176   85.5732  225.7232 H   0  0  0  0  0  0  0  0  0  0  0  0
  136.1996   84.4614  223.5257 H   0  0  0  0  0  0  0  0  0  0  0  0
  137.0570   82.1190  222.3880 H   0  0  0  0  0  0  0  0  0  0  0  0
  138.9138   77.7744  221.1246 H   0  0  0  0  0  0  0  0  0  0  0  0
  139.5856   79.1721  220.3459 H   0  0  0  0  0  0  0  0  0  0  0  0
  141.5414   76.7557  223.2414 H   0  0  0  0  0  0  0  0  0  0  0  0
  139.8440   76.6702  222.7761 H   0  0  0  0  0  0  0  0  0  0  0  0
  141.9310   75.0197  221.8367 H   0  0  0  0  0  0  0  0  0  0  0  0
  140.3055   75.1701  221.0952 H   0  0  0  0  0  0  0  0  0  0  0  0
  143.3001   76.2918  218.8452 H   0  0  0  0  0  0  0  0  0  0  0  0
  143.7144   75.7467  220.5505 H   0  0  0  0  0  0  0  0  0  0  0  0
  141.9230   73.8813  219.7838 H   0  0  0  0  0  0  0  0  0  0  0  0
  142.7852   74.2256  218.2404 H   0  0  0  0  0  0  0  0  0  0  0  0
  143.5455   72.6610  220.3397 H   0  0  0  0  0  0  0  0  0  0  0  0
  145.1961   75.2977  220.2313 H   0  0  0  0  0  0  0  0  0  0  0  0
  144.5698   74.5937  221.6783 H   0  0  0  0  0  0  0  0  0  0  0  0
  147.0712   73.8693  221.1282 H   0  0  0  0  0  0  0  0  0  0  0  0
  146.0752   72.4734  221.2992 H   0  0  0  0  0  0  0  0  0  0  0  0
  146.7670   74.0720  218.8930 H   0  0  0  0  0  0  0  0  0  0  0  0
  144.8390   73.7175  217.8452 H   0  0  0  0  0  0  0  0  0  0  0  0
  144.7441   72.0348  218.4111 H   0  0  0  0  0  0  0  0  0  0  0  0
  142.8556   78.0780  220.5448 H   0  0  0  0  0  0  0  0  0  0  0  0
  141.3893   78.2382  219.5372 H   0  0  0  0  0  0  0  0  0  0  0  0
  143.7510   78.7977  222.3035 H   0  0  0  0  0  0  0  0  0  0  0  0
  144.2784   80.7698  223.7619 H   0  0  0  0  0  0  0  0  0  0  0  0
  142.4194   82.1401  224.6549 H   0  0  0  0  0  0  0  0  0  0  0  0
  140.0607   81.5869  224.1347 H   0  0  0  0  0  0  0  0  0  0  0  0
  1  2  2  0
  2  3  1  0
  3  4  2  0
  4  5  1  0
  5  6  2  0
  6  7  1  0
  7  8  2  0
  8  9  1  0
  9 10  2  0
 10 11  1  0
  2 12  1  0
 12 13  1  0
 14 13  1  6
 14 15  1  0
 15 16  1  0
 16 17  1  0
 17 18  1  0
 18 19  1  0
 19 20  1  0
 20 21  1  0
 21 22  1  0
 22 23  1  0
 23 24  1  0
 17 25  1  0
 14 26  1  0
 26 27  2  0
 27 28  1  0
 28 29  2  0
 29 30  1  0
 30 31  2  0
 11  3  1  0
 31 12  1  0
 10  5  1  0
 25 14  1  0
 31 26  1  0
 24 20  1  0
  4 32  1  0
  6 33  1  0
  7 34  1  0
  8 35  1  0
  9 36  1  0
 11 37  1  0
 13 38  1  0
 13 39  1  0
 15 40  1  0
 15 41  1  0
 16 42  1  0
 16 43  1  0
 18 44  1  0
 18 45  1  0
 19 46  1  0
 19 47  1  0
 20 48  1  1
 21 49  1  0
 21 50  1  0
 22 51  1  0
 22 52  1  0
 23 53  1  0
 24 54  1  0
 24 55  1  0
 25 56  1  0
 25 57  1  0
 27 58  1  0
 28 59  1  0
 29 60  1  0
 30 61  1  0
M  END
>  <smiles>  (14) 
O=C(c1cc2ccccc2[nH]1)N1C[C@]2(CCN(CCC3CCNC3)C2)c2ccccc21

>  <score_type>  (14) 
oracle

>  <origin>  (14) 
autodockgpu

>  <m_score__min__energy>  (14) 
-9.6400000000000006

>  <m_primary>  (14) 
energy

>  <rmsd>  (14) 
10.12157393876546

>  <m_score__min__rmsd>  (14) 
10.12157393876546

>  <meeko>  (14) 
{"free_energy": -9.64, "intermolecular_energy": -11.13, "internal_energy": -1.25, "cluster_size": 45, "cluster_id": 1, "rank_in_cluster": 1}

>  <energy>  (14) 
-9.56

>  <cluster_rmsd>  (14) 
0.88

>  <cluster>  (14) 
1

$$$$

     RDKit          3D

 61 66  0  0  1  0  0  0  0  0999 V2000
  137.2270   78.5090  223.0570 O   0  0  0  0  0  0  0  0  0  0  0  0
  138.0760   79.4620  223.1880 C   0  0  0  0  0  0  0  0  0  0  0  0
  137.6420   80.6000  223.9500 C   0  0  0  0  0  0  0  0  0  0  0  0
  137.1380   81.8050  223.4680 C   0  0  0  0  0  0  0  0  0  0  0  0
  136.8360   82.6290  224.5390 C   0  0  0  0  0  0  0  0  0  0  0  0
  136.3200   83.9090  224.6400 C   0  0  0  0  0  0  0  0  0  0  0  0
  136.1290   84.4730  225.8780 C   0  0  0  0  0  0  0  0  0  0  0  0
  136.4570   83.7490  227.0130 C   0  0  0  0  0  0  0  0  0  0  0  0
  136.9770   82.4580  226.9140 C   0  0  0  0  0  0  0  0  0  0  0  0
  137.1650   81.9010  225.6780 C   0  0  0  0  0  0  0  0  0  0  0  0
  137.6470   80.6880  225.3100 N   0  0  0  0  0  0  0  0  0  0  0  0
  139.3480   79.3210  222.5800 N   0  0  0  0  0  0  0  0  0  0  0  0
  139.6400   78.5820  221.3700 C   0  0  0  0  0  0  0  0  0  0  0  0
  141.0470   78.0620  221.6880 C   0  0  1  0  0  0  0  0  0  0  0  0
  140.9100   76.7790  222.4190 C   0  0  0  0  0  0  0  0  0  0  0  0
  141.2550   75.7260  221.4070 C   0  0  0  0  0  0  0  0  0  0  0  0
  141.8070   76.3520  220.2580 N   0  0  0  0  0  0  0  0  0  0  0  0
  142.9910   75.7720  219.7200 C   0  0  0  0  0  0  0  0  0  0  0  0
  142.8540   74.3510  219.2910 C   0  0  0  0  0  0  0  0  0  0  0  0
  144.0230   73.5430  219.7940 C   0  0  2  0  0  0  0  0  0  0  0  0
  144.9350   74.3400  220.7060 C   0  0  0  0  0  0  0  0  0  0  0  0
  146.1480   73.3970  220.7310 C   0  0  0  0  0  0  0  0  0  0  0  0
  146.3240   73.2210  219.2830 N   0  0  0  0  0  0  0  0  0  0  0  0
  144.9860   73.1280  218.7160 C   0  0  0  0  0  0  0  0  0  0  0  0
  141.8190   77.7620  220.4550 C   0  0  0  0  0  0  0  0  0  0  0  0
  141.6470   79.1450  222.5060 C   0  0  0  0  0  0  0  0  0  0  0  0
  142.9720   79.4330  222.7550 C   0  0  0  0  0  0  0  0  0  0  0  0
  143.2640   80.5140  223.5690 C   0  0  0  0  0  0  0  0  0  0  0  0
  142.2250   81.2550  224.0930 C   0  0  0  0  0  0  0  0  0  0  0  0
  140.8980   80.9370  223.8230 C   0  0  0  0  0  0  0  0  0  0  0  0
  140.6000   79.8740  223.0220 C   0  0  0  0  0  0  0  0  0  0  0  0
  137.0016   82.0612  222.4070 H   0  0  0  0  0  0  0  0  0  0  0  0
  136.0634   84.4734  223.7314 H   0  0  0  0  0  0  0  0  0  0  0  0
  135.7194   85.4900  225.9674 H   0  0  0  0  0  0  0  0  0  0  0  0
  136.3054   84.1981  228.0056 H   0  0  0  0  0  0  0  0  0  0  0  0
  137.2338   81.8925  227.8219 H   0  0  0  0  0  0  0  0  0  0  0  0
  137.9590   79.9730  226.0030 H   0  0  0  0  0  0  0  0  0  0  0  0
  138.9281   77.7576  221.2167 H   0  0  0  0  0  0  0  0  0  0  0  0
  139.5697   79.1735  220.4452 H   0  0  0  0  0  0  0  0  0  0  0  0
  141.6053   76.7414  223.2705 H   0  0  0  0  0  0  0  0  0  0  0  0
  139.9008   76.6423  222.8348 H   0  0  0  0  0  0  0  0  0  0  0  0
  141.9898   75.0289  221.8360 H   0  0  0  0  0  0  0  0  0  0  0  0
  140.3490   75.1685  221.1272 H   0  0  0  0  0  0  0  0  0  0  0  0
  143.2953   76.3654  218.8452 H   0  0  0  0  0  0  0  0  0  0  0  0
  143.7344   75.7795  220.5307 H   0  0  0  0  0  0  0  0  0  0  0  0
  141.9215   73.9356  219.7006 H   0  0  0  0  0  0  0  0  0  0  0  0
  142.8323   74.3072  218.1921 H   0  0  0  0  0  0  0  0  0  0  0  0
  143.5191   72.6940  220.2791 H   0  0  0  0  0  0  0  0  0  0  0  0
  145.1866   75.3222  220.2794 H   0  0  0  0  0  0  0  0  0  0  0  0
  144.5133   74.5894  221.6909 H   0  0  0  0  0  0  0  0  0  0  0  0
  147.0259   73.8649  221.2004 H   0  0  0  0  0  0  0  0  0  0  0  0
  146.0185   72.4709  221.3103 H   0  0  0  0  0  0  0  0  0  0  0  0
  146.7910   74.1190  218.9630 H   0  0  0  0  0  0  0  0  0  0  0  0
  144.8953   73.7992  217.8493 H   0  0  0  0  0  0  0  0  0  0  0  0
  144.7747   72.1044  218.3731 H   0  0  0  0  0  0  0  0  0  0  0  0
  142.8550   78.1138  220.5688 H   0  0  0  0  0  0  0  0  0  0  0  0
  141.3691   78.2716  219.5902 H   0  0  0  0  0  0  0  0  0  0  0  0
  143.7751   78.8207  222.3189 H   0  0  0  0  0  0  0  0  0  0  0  0
  144.3078   80.7779  223.7944 H   0  0  0  0  0  0  0  0  0  0  0  0
  142.4509   82.1164  224.7387 H   0  0  0  0  0  0  0  0  0  0  0  0
  140.0885   81.5432  224.2557 H   0  0  0  0  0  0  0  0  0  0  0  0
  1  2  2  0
  2  3  1  0
  3  4  2  0
  4  5  1  0
  5  6  2  0
  6  7  1  0
  7  8  2  0
  8  9  1  0
  9 10  2  0
 10 11  1  0
  2 12  1  0
 12 13  1  0
 14 13  1  6
 14 15  1  0
 15 16  1  0
 16 17  1  0
 17 18  1  0
 18 19  1  0
 19 20  1  0
 20 21  1  0
 21 22  1  0
 22 23  1  0
 23 24  1  0
 17 25  1  0
 14 26  1  0
 26 27  2  0
 27 28  1  0
 28 29  2  0
 29 30  1  0
 30 31  2  0
 11  3  1  0
 31 12  1  0
 10  5  1  0
 25 14  1  0
 31 26  1  0
 24 20  1  0
  4 32  1  0
  6 33  1  0
  7 34  1  0
  8 35  1  0
  9 36  1  0
 11 37  1  0
 13 38  1  0
 13 39  1  0
 15 40  1  0
 15 41  1  0
 16 42  1  0
 16 43  1  0
 18 44  1  0
 18 45  1  0
 19 46  1  0
 19 47  1  0
 20 48  1  1
 21 49  1  0
 21 50  1  0
 22 51  1  0
 22 52  1  0
 23 53  1  0
 24 54  1  0
 24 55  1  0
 25 56  1  0
 25 57  1  0
 27 58  1  0
 28 59  1  0
 29 60  1  0
 30 61  1  0
M  END
>  <smiles>  (15) 
O=C(c1cc2ccccc2[nH]1)N1C[C@]2(CCN(CCC3CCNC3)C2)c2ccccc21

>  <score_type>  (15) 
oracle

>  <origin>  (15) 
autodockgpu

>  <m_score__min__energy>  (15) 
-9.6400000000000006

>  <m_primary>  (15) 
energy

>  <rmsd>  (15) 
10.28343547158845

>  <m_score__min__rmsd>  (15) 
10.28343547158845

>  <meeko>  (15) 
{"free_energy": -9.58, "intermolecular_energy": -11.07, "internal_energy": -1.26, "cluster_size": 45, "cluster_id": 1, "rank_in_cluster": 11}

>  <energy>  (15) 
-9.42

>  <cluster_rmsd>  (15) 
0.66

>  <cluster>  (15) 
1

$$$$

     RDKit          3D

 61 66  0  0  1  0  0  0  0  0999 V2000
  137.1490   79.6370  221.4470 O   0  0  0  0  0  0  0  0  0  0  0  0
  138.0850   80.1150  222.1820 C   0  0  0  0  0  0  0  0  0  0  0  0
  137.6700   80.9490  223.2760 C   0  0  0  0  0  0  0  0  0  0  0  0
  137.2520   82.2760  223.2230 C   0  0  0  0  0  0  0  0  0  0  0  0
  136.9370   82.7030  224.5030 C   0  0  0  0  0  0  0  0  0  0  0  0
  136.4810   83.9020  225.0220 C   0  0  0  0  0  0  0  0  0  0  0  0
  136.2560   84.0190  226.3720 C   0  0  0  0  0  0  0  0  0  0  0  0
  136.4880   82.9310  227.1970 C   0  0  0  0  0  0  0  0  0  0  0  0
  136.9480   81.7220  226.6770 C   0  0  0  0  0  0  0  0  0  0  0  0
  137.1710   81.6100  225.3310 C   0  0  0  0  0  0  0  0  0  0  0  0
  137.6090   80.5670  224.5830 N   0  0  0  0  0  0  0  0  0  0  0  0
  139.4270   79.7920  221.8640 N   0  0  0  0  0  0  0  0  0  0  0  0
  139.8690   78.9800  220.7500 C   0  0  0  0  0  0  0  0  0  0  0  0
  141.0950   78.2950  221.3670 C   0  0  1  0  0  0  0  0  0  0  0  0
  140.6360   77.0660  222.0590 C   0  0  0  0  0  0  0  0  0  0  0  0
  141.0450   75.9430  221.1510 C   0  0  0  0  0  0  0  0  0  0  0  0
  141.9080   76.4530  220.1450 N   0  0  0  0  0  0  0  0  0  0  0  0
  143.0920   75.7070  219.8780 C   0  0  0  0  0  0  0  0  0  0  0  0
  142.8730   74.2560  219.6240 C   0  0  0  0  0  0  0  0  0  0  0  0
  144.0940   73.4690  220.0300 C   0  0  2  0  0  0  0  0  0  0  0  0
  145.0800   74.2950  220.8310 C   0  0  0  0  0  0  0  0  0  0  0  0
  146.3000   73.3620  220.7610 C   0  0  0  0  0  0  0  0  0  0  0  0
  146.3380   73.1520  219.3080 N   0  0  0  0  0  0  0  0  0  0  0  0
  144.9520   73.0350  218.8750 C   0  0  0  0  0  0  0  0  0  0  0  0
  142.0640   77.8560  220.3310 C   0  0  0  0  0  0  0  0  0  0  0  0
  141.6450   79.3200  222.2880 C   0  0  0  0  0  0  0  0  0  0  0  0
  142.9130   79.4430  222.8150 C   0  0  0  0  0  0  0  0  0  0  0  0
  143.1660   80.5060  223.6660 C   0  0  0  0  0  0  0  0  0  0  0  0
  142.1470   81.3910  223.9500 C   0  0  0  0  0  0  0  0  0  0  0  0
  140.8780   81.2370  223.4020 C   0  0  0  0  0  0  0  0  0  0  0  0
  140.6180   80.1940  222.5620 C   0  0  0  0  0  0  0  0  0  0  0  0
  137.1829   82.8874  222.3112 H   0  0  0  0  0  0  0  0  0  0  0  0
  136.2994   84.7583  224.3559 H   0  0  0  0  0  0  0  0  0  0  0  0
  135.8947   84.9684  226.7941 H   0  0  0  0  0  0  0  0  0  0  0  0
  136.3067   83.0221  228.2781 H   0  0  0  0  0  0  0  0  0  0  0  0
  137.1302   80.8654  227.3426 H   0  0  0  0  0  0  0  0  0  0  0  0
  137.8490   79.6390  224.9970 H   0  0  0  0  0  0  0  0  0  0  0  0
  139.1031   78.2488  220.4522 H   0  0  0  0  0  0  0  0  0  0  0  0
  140.0761   79.5432  219.8281 H   0  0  0  0  0  0  0  0  0  0  0  0
  141.1230   76.9684  223.0405 H   0  0  0  0  0  0  0  0  0  0  0  0
  139.5525   77.0748  222.2485 H   0  0  0  0  0  0  0  0  0  0  0  0
  141.5715   75.1717  221.7323 H   0  0  0  0  0  0  0  0  0  0  0  0
  140.1533   75.4980  220.6853 H   0  0  0  0  0  0  0  0  0  0  0  0
  143.5764   76.1403  218.9905 H   0  0  0  0  0  0  0  0  0  0  0  0
  143.7099   75.7722  220.7857 H   0  0  0  0  0  0  0  0  0  0  0  0
  142.0070   73.9110  220.2079 H   0  0  0  0  0  0  0  0  0  0  0  0
  142.6859   74.1024  218.5510 H   0  0  0  0  0  0  0  0  0  0  0  0
  143.6483   72.6275  220.5806 H   0  0  0  0  0  0  0  0  0  0  0  0
  145.2793   75.2686  220.3595 H   0  0  0  0  0  0  0  0  0  0  0  0
  144.7521   74.5650  221.8457 H   0  0  0  0  0  0  0  0  0  0  0  0
  147.2141   73.8481  221.1325 H   0  0  0  0  0  0  0  0  0  0  0  0
  146.2361   72.4493  221.3717 H   0  0  0  0  0  0  0  0  0  0  0  0
  146.7630   74.0460  218.9230 H   0  0  0  0  0  0  0  0  0  0  0  0
  144.7716   73.6840  218.0053 H   0  0  0  0  0  0  0  0  0  0  0  0
  144.7187   72.0017  218.5785 H   0  0  0  0  0  0  0  0  0  0  0  0
  143.0895   78.0764  220.6625 H   0  0  0  0  0  0  0  0  0  0  0  0
  141.8789   78.3884  219.3864 H   0  0  0  0  0  0  0  0  0  0  0  0
  143.7015   78.7174  222.5666 H   0  0  0  0  0  0  0  0  0  0  0  0
  144.1639   80.6423  224.1084 H   0  0  0  0  0  0  0  0  0  0  0  0
  142.3423   82.2374  224.6249 H   0  0  0  0  0  0  0  0  0  0  0  0
  140.0831   81.9570  223.6462 H   0  0  0  0  0  0  0  0  0  0  0  0
  1  2  2  0
  2  3  1  0
  3  4  2  0
  4  5  1  0
  5  6  2  0
  6  7  1  0
  7  8  2  0
  8  9  1  0
  9 10  2  0
 10 11  1  0
  2 12  1  0
 12 13  1  0
 14 13  1  6
 14 15  1  0
 15 16  1  0
 16 17  1  0
 17 18  1  0
 18 19  1  0
 19 20  1  0
 20 21  1  0
 21 22  1  0
 22 23  1  0
 23 24  1  0
 17 25  1  0
 14 26  1  0
 26 27  2  0
 27 28  1  0
 28 29  2  0
 29 30  1  0
 30 31  2  0
 11  3  1  0
 31 12  1  0
 10  5  1  0
 25 14  1  0
 31 26  1  0
 24 20  1  0
  4 32  1  0
  6 33  1  0
  7 34  1  0
  8 35  1  0
  9 36  1  0
 11 37  1  0
 13 38  1  0
 13 39  1  0
 15 40  1  0
 15 41  1  0
 16 42  1  0
 16 43  1  0
 18 44  1  0
 18 45  1  0
 19 46  1  0
 19 47  1  0
 20 48  1  1
 21 49  1  0
 21 50  1  0
 22 51  1  0
 22 52  1  0
 23 53  1  0
 24 54  1  0
 24 55  1  0
 25 56  1  0
 25 57  1  0
 27 58  1  0
 28 59  1  0
 29 60  1  0
 30 61  1  0
M  END
>  <smiles>  (16) 
O=C(c1cc2ccccc2[nH]1)N1C[C@]2(CCN(CCC3CCNC3)C2)c2ccccc21

>  <score_type>  (16) 
oracle

>  <origin>  (16) 
autodockgpu

>  <m_score__min__energy>  (16) 
-9.6400000000000006

>  <m_primary>  (16) 
energy

>  <rmsd>  (16) 
10.117561067722546

>  <m_score__min__rmsd>  (16) 
10.117561067722546

>  <meeko>  (16) 
{"free_energy": -9.25, "intermolecular_energy": -10.74, "internal_energy": -1.25, "cluster_size": 45, "cluster_id": 1, "rank_in_cluster": 22}

>  <energy>  (16) 
-9.42

>  <cluster_rmsd>  (16) 
0.58

>  <cluster>  (16) 
1

$$$$

     RDKit          3D

 61 66  0  0  1  0  0  0  0  0999 V2000
  137.1880   78.5560  222.9970 O   0  0  0  0  0  0  0  0  0  0  0  0
  138.0540   79.4930  223.1270 C   0  0  0  0  0  0  0  0  0  0  0  0
  137.6350   80.6450  223.8760 C   0  0  0  0  0  0  0  0  0  0  0  0
  137.1830   81.8650  223.3780 C   0  0  0  0  0  0  0  0  0  0  0  0
  136.8770   82.7010  224.4400 C   0  0  0  0  0  0  0  0  0  0  0  0
  136.3980   83.9960  224.5240 C   0  0  0  0  0  0  0  0  0  0  0  0
  136.1910   84.5680  225.7560 C   0  0  0  0  0  0  0  0  0  0  0  0
  136.4640   83.8360  226.9000 C   0  0  0  0  0  0  0  0  0  0  0  0
  136.9450   82.5300  226.8180 C   0  0  0  0  0  0  0  0  0  0  0  0
  137.1510   81.9650  225.5880 C   0  0  0  0  0  0  0  0  0  0  0  0
  137.6040   80.7360  225.2350 N   0  0  0  0  0  0  0  0  0  0  0  0
  139.3300   79.3230  222.5330 N   0  0  0  0  0  0  0  0  0  0  0  0
  139.6240   78.5420  221.3500 C   0  0  0  0  0  0  0  0  0  0  0  0
  141.0250   78.0220  221.6950 C   0  0  1  0  0  0  0  0  0  0  0  0
  140.8730   76.7650  222.4670 C   0  0  0  0  0  0  0  0  0  0  0  0
  141.2160   75.6770  221.4920 C   0  0  0  0  0  0  0  0  0  0  0  0
  141.7810   76.2600  220.3270 N   0  0  0  0  0  0  0  0  0  0  0  0
  142.9640   75.6540  219.8170 C   0  0  0  0  0  0  0  0  0  0  0  0
  142.8220   74.2170  219.4480 C   0  0  0  0  0  0  0  0  0  0  0  0
  144.0430   73.4470  219.8860 C   0  0  2  0  0  0  0  0  0  0  0  0
  144.9840   74.2780  220.7340 C   0  0  0  0  0  0  0  0  0  0  0  0
  146.2230   73.3690  220.6930 C   0  0  0  0  0  0  0  0  0  0  0  0
  146.3160   73.1830  219.2390 N   0  0  0  0  0  0  0  0  0  0  0  0
  144.9490   73.0470  218.7550 C   0  0  0  0  0  0  0  0  0  0  0  0
  141.8020   77.6760  220.4780 C   0  0  0  0  0  0  0  0  0  0  0  0
  141.6270   79.1270  222.4810 C   0  0  0  0  0  0  0  0  0  0  0  0
  142.9530   79.4130  222.7300 C   0  0  0  0  0  0  0  0  0  0  0  0
  143.2480   80.5190  223.5090 C   0  0  0  0  0  0  0  0  0  0  0  0
  142.2110   81.2840  224.0020 C   0  0  0  0  0  0  0  0  0  0  0  0
  140.8840   80.9670  223.7330 C   0  0  0  0  0  0  0  0  0  0  0  0
  140.5820   79.8810  222.9660 C   0  0  0  0  0  0  0  0  0  0  0  0
  137.0848   82.1232  222.3132 H   0  0  0  0  0  0  0  0  0  0  0  0
  136.1836   84.5658  223.6078 H   0  0  0  0  0  0  0  0  0  0  0  0
  135.8120   85.5977  225.8332 H   0  0  0  0  0  0  0  0  0  0  0  0
  136.2989   84.2918  227.8874 H   0  0  0  0  0  0  0  0  0  0  0  0
  137.1572   81.9584  227.7336 H   0  0  0  0  0  0  0  0  0  0  0  0
  137.8740   80.0130  225.9380 H   0  0  0  0  0  0  0  0  0  0  0  0
  138.9066   77.7184  221.2192 H   0  0  0  0  0  0  0  0  0  0  0  0
  139.5644   79.1029  220.4056 H   0  0  0  0  0  0  0  0  0  0  0  0
  141.5626   76.7499  223.3239 H   0  0  0  0  0  0  0  0  0  0  0  0
  139.8603   76.6498  222.8807 H   0  0  0  0  0  0  0  0  0  0  0  0
  141.9420   74.9882  221.9487 H   0  0  0  0  0  0  0  0  0  0  0  0
  140.3069   75.1186  221.2241 H   0  0  0  0  0  0  0  0  0  0  0  0
  143.2726   76.2089  218.9188 H   0  0  0  0  0  0  0  0  0  0  0  0
  143.7059   75.6931  220.6282 H   0  0  0  0  0  0  0  0  0  0  0  0
  141.9322   73.8004  219.9427 H   0  0  0  0  0  0  0  0  0  0  0  0
  142.7162   74.1341  218.3562 H   0  0  0  0  0  0  0  0  0  0  0  0
  143.5946   72.5891  220.4085 H   0  0  0  0  0  0  0  0  0  0  0  0
  145.1812   75.2626  220.2849 H   0  0  0  0  0  0  0  0  0  0  0  0
  144.6155   74.5256  221.7404 H   0  0  0  0  0  0  0  0  0  0  0  0
  147.1141   73.8659  221.1041 H   0  0  0  0  0  0  0  0  0  0  0  0
  146.1551   72.4457  221.2870 H   0  0  0  0  0  0  0  0  0  0  0  0
  146.7380   74.0900  218.8830 H   0  0  0  0  0  0  0  0  0  0  0  0
  144.7870   73.7061  217.8894 H   0  0  0  0  0  0  0  0  0  0  0  0
  144.7459   72.0145  218.4344 H   0  0  0  0  0  0  0  0  0  0  0  0
  142.8398   78.0239  220.5869 H   0  0  0  0  0  0  0  0  0  0  0  0
  141.3610   78.1600  219.5941 H   0  0  0  0  0  0  0  0  0  0  0  0
  143.7542   78.7799  222.3210 H   0  0  0  0  0  0  0  0  0  0  0  0
  144.2923   80.7835  223.7313 H   0  0  0  0  0  0  0  0  0  0  0  0
  142.4389   82.1640  224.6214 H   0  0  0  0  0  0  0  0  0  0  0  0
  140.0765   81.5935  224.1397 H   0  0  0  0  0  0  0  0  0  0  0  0
  1  2  2  0
  2  3  1  0
  3  4  2  0
  4  5  1  0
  5  6  2  0
  6  7  1  0
  7  8  2  0
  8  9  1  0
  9 10  2  0
 10 11  1  0
  2 12  1  0
 12 13  1  0
 14 13  1  6
 14 15  1  0
 15 16  1  0
 16 17  1  0
 17 18  1  0
 18 19  1  0
 19 20  1  0
 20 21  1  0
 21 22  1  0
 22 23  1  0
 23 24  1  0
 17 25  1  0
 14 26  1  0
 26 27  2  0
 27 28  1  0
 28 29  2  0
 29 30  1  0
 30 31  2  0
 11  3  1  0
 31 12  1  0
 10  5  1  0
 25 14  1  0
 31 26  1  0
 24 20  1  0
  4 32  1  0
  6 33  1  0
  7 34  1  0
  8 35  1  0
  9 36  1  0
 11 37  1  0
 13 38  1  0
 13 39  1  0
 15 40  1  0
 15 41  1  0
 16 42  1  0
 16 43  1  0
 18 44  1  0
 18 45  1  0
 19 46  1  0
 19 47  1  0
 20 48  1  1
 21 49  1  0
 21 50  1  0
 22 51  1  0
 22 52  1  0
 23 53  1  0
 24 54  1  0
 24 55  1  0
 25 56  1  0
 25 57  1  0
 27 58  1  0
 28 59  1  0
 29 60  1  0
 30 61  1  0
M  END
>  <smiles>  (17) 
O=C(c1cc2ccccc2[nH]1)N1C[C@]2(CCN(CCC3CCNC3)C2)c2ccccc21

>  <score_type>  (17) 
oracle

>  <origin>  (17) 
autodockgpu

>  <m_score__min__energy>  (17) 
-9.6400000000000006

>  <m_primary>  (17) 
energy

>  <rmsd>  (17) 
10.305498658908173

>  <m_score__min__rmsd>  (17) 
10.305498658908173

>  <meeko>  (17) 
{"free_energy": -9.58, "intermolecular_energy": -11.08, "internal_energy": -1.25, "cluster_size": 45, "cluster_id": 1, "rank_in_cluster": 8}

>  <energy>  (17) 
-9.34

>  <cluster_rmsd>  (17) 
0.76

>  <cluster>  (17) 
1

$$$$

     RDKit          3D

 61 66  0  0  1  0  0  0  0  0999 V2000
  137.1700   78.5700  222.9460 O   0  0  0  0  0  0  0  0  0  0  0  0
  138.0510   79.4870  223.1150 C   0  0  0  0  0  0  0  0  0  0  0  0
  137.6470   80.6170  223.9050 C   0  0  0  0  0  0  0  0  0  0  0  0
  137.6850   80.7430  225.2920 C   0  0  0  0  0  0  0  0  0  0  0  0
  137.2100   81.9960  225.6450 C   0  0  0  0  0  0  0  0  0  0  0  0
  137.0310   82.6390  226.8570 C   0  0  0  0  0  0  0  0  0  0  0  0
  136.5260   83.9160  226.8840 C   0  0  0  0  0  0  0  0  0  0  0  0
  136.2020   84.5440  225.6920 C   0  0  0  0  0  0  0  0  0  0  0  0
  136.3810   83.8980  224.4690 C   0  0  0  0  0  0  0  0  0  0  0  0
  136.8860   82.6260  224.4480 C   0  0  0  0  0  0  0  0  0  0  0  0
  137.1520   81.7880  223.4140 N   0  0  0  0  0  0  0  0  0  0  0  0
  139.3260   79.3180  222.5200 N   0  0  0  0  0  0  0  0  0  0  0  0
  139.6170   78.5520  221.3270 C   0  0  0  0  0  0  0  0  0  0  0  0
  141.0140   78.0200  221.6670 C   0  0  1  0  0  0  0  0  0  0  0  0
  140.8550   76.7530  222.4210 C   0  0  0  0  0  0  0  0  0  0  0  0
  141.1930   75.6760  221.4320 C   0  0  0  0  0  0  0  0  0  0  0  0
  141.7630   76.2720  220.2760 N   0  0  0  0  0  0  0  0  0  0  0  0
  142.9430   75.6660  219.7590 C   0  0  0  0  0  0  0  0  0  0  0  0
  142.8040   74.2250  219.4070 C   0  0  0  0  0  0  0  0  0  0  0  0
  144.0160   73.4580  219.8750 C   0  0  2  0  0  0  0  0  0  0  0  0
  144.9240   74.2870  220.7610 C   0  0  0  0  0  0  0  0  0  0  0  0
  146.1700   73.3870  220.7500 C   0  0  0  0  0  0  0  0  0  0  0  0
  146.3110   73.2180  219.2980 N   0  0  0  0  0  0  0  0  0  0  0  0
  144.9600   73.0770  218.7690 C   0  0  0  0  0  0  0  0  0  0  0  0
  141.7910   77.6850  220.4450 C   0  0  0  0  0  0  0  0  0  0  0  0
  141.6220   79.1110  222.4680 C   0  0  0  0  0  0  0  0  0  0  0  0
  142.9490   79.3860  222.7210 C   0  0  0  0  0  0  0  0  0  0  0  0
  143.2490   80.4790  223.5160 C   0  0  0  0  0  0  0  0  0  0  0  0
  142.2160   81.2430  224.0180 C   0  0  0  0  0  0  0  0  0  0  0  0
  140.8870   80.9370  223.7430 C   0  0  0  0  0  0  0  0  0  0  0  0
  140.5810   79.8630  222.9620 C   0  0  0  0  0  0  0  0  0  0  0  0
  138.0356   79.9720  225.9939 H   0  0  0  0  0  0  0  0  0  0  0  0
  137.2923   82.1291  227.7960 H   0  0  0  0  0  0  0  0  0  0  0  0
  136.3801   84.4353  227.8427 H   0  0  0  0  0  0  0  0  0  0  0  0
  135.7978   85.5669  225.7107 H   0  0  0  0  0  0  0  0  0  0  0  0
  136.1186   84.4063  223.5294 H   0  0  0  0  0  0  0  0  0  0  0  0
  136.9840   82.0520  222.4190 H   0  0  0  0  0  0  0  0  0  0  0  0
  138.8953   77.7343  221.1839 H   0  0  0  0  0  0  0  0  0  0  0  0
  139.5617   79.1259  220.3902 H   0  0  0  0  0  0  0  0  0  0  0  0
  141.5438   76.7226  223.2781 H   0  0  0  0  0  0  0  0  0  0  0  0
  139.8411   76.6376  222.8317 H   0  0  0  0  0  0  0  0  0  0  0  0
  141.9143   74.9769  221.8802 H   0  0  0  0  0  0  0  0  0  0  0  0
  140.2813   75.1261  221.1554 H   0  0  0  0  0  0  0  0  0  0  0  0
  143.2387   76.2127  218.8515 H   0  0  0  0  0  0  0  0  0  0  0  0
  143.6937   75.7172  220.5613 H   0  0  0  0  0  0  0  0  0  0  0  0
  141.9053   73.8169  219.8925 H   0  0  0  0  0  0  0  0  0  0  0  0
  142.7160   74.1279  218.3148 H   0  0  0  0  0  0  0  0  0  0  0  0
  143.5579   72.5911  220.3737 H   0  0  0  0  0  0  0  0  0  0  0  0
  145.1283   75.2775  220.3284 H   0  0  0  0  0  0  0  0  0  0  0  0
  144.5221   74.5218  221.7577 H   0  0  0  0  0  0  0  0  0  0  0  0
  147.0439   73.8852  221.1951 H   0  0  0  0  0  0  0  0  0  0  0  0
  146.0896   72.4566  221.3313 H   0  0  0  0  0  0  0  0  0  0  0  0
  146.7370   74.1310  218.9650 H   0  0  0  0  0  0  0  0  0  0  0  0
  144.8202   73.7443  217.9057 H   0  0  0  0  0  0  0  0  0  0  0  0
  144.7751   72.0467  218.4310 H   0  0  0  0  0  0  0  0  0  0  0  0
  142.8305   78.0262  220.5590 H   0  0  0  0  0  0  0  0  0  0  0  0
  141.3531   78.1823  219.5670 H   0  0  0  0  0  0  0  0  0  0  0  0
  143.7470   78.7548  222.3030 H   0  0  0  0  0  0  0  0  0  0  0  0
  144.2945   80.7341  223.7437 H   0  0  0  0  0  0  0  0  0  0  0  0
  142.4481   82.1132  224.6496 H   0  0  0  0  0  0  0  0  0  0  0  0
  140.0823   81.5627  224.1564 H   0  0  0  0  0  0  0  0  0  0  0  0
  1  2  2  0
  2  3  1  0
  3  4  2  0
  4  5  1  0
  5  6  2  0
  6  7  1  0
  7  8  2  0
  8  9  1  0
  9 10  2  0
 10 11  1  0
  2 12  1  0
 12 13  1  0
 14 13  1  6
 14 15  1  0
 15 16  1  0
 16 17  1  0
 17 18  1  0
 18 19  1  0
 19 20  1  0
 20 21  1  0
 21 22  1  0
 22 23  1  0
 23 24  1  0
 17 25  1  0
 14 26  1  0
 26 27  2  0
 27 28  1  0
 28 29  2  0
 29 30  1  0
 30 31  2  0
 11  3  1  0
 31 12  1  0
 10  5  1  0
 25 14  1  0
 31 26  1  0
 24 20  1  0
  4 32  1  0
  6 33  1  0
  7 34  1  0
  8 35  1  0
  9 36  1  0
 11 37  1  0
 13 38  1  0
 13 39  1  0
 15 40  1  0
 15 41  1  0
 16 42  1  0
 16 43  1  0
 18 44  1  0
 18 45  1  0
 19 46  1  0
 19 47  1  0
 20 48  1  1
 21 49  1  0
 21 50  1  0
 22 51  1  0
 22 52  1  0
 23 53  1  0
 24 54  1  0
 24 55  1  0
 25 56  1  0
 25 57  1  0
 27 58  1  0
 28 59  1  0
 29 60  1  0
 30 61  1  0
M  END
>  <smiles>  (18) 
O=C(c1cc2ccccc2[nH]1)N1C[C@]2(CCN(CCC3CCNC3)C2)c2ccccc21

>  <score_type>  (18) 
oracle

>  <origin>  (18) 
autodockgpu

>  <m_score__min__energy>  (18) 
-9.6400000000000006

>  <m_primary>  (18) 
energy

>  <rmsd>  (18) 
10.120792385210025

>  <m_score__min__rmsd>  (18) 
10.120792385210025

>  <meeko>  (18) 
{"free_energy": -9.63, "intermolecular_energy": -11.12, "internal_energy": -1.25, "cluster_size": 45, "cluster_id": 1, "rank_in_cluster": 2}

>  <energy>  (18) 
-9.34

>  <cluster_rmsd>  (18) 
0.77

>  <cluster>  (18) 
1

$$$$

     RDKit          3D

 61 66  0  0  1  0  0  0  0  0999 V2000
  137.1620   78.5590  222.9830 O   0  0  0  0  0  0  0  0  0  0  0  0
  138.0380   79.4850  223.1290 C   0  0  0  0  0  0  0  0  0  0  0  0
  137.6270   80.6340  223.8860 C   0  0  0  0  0  0  0  0  0  0  0  0
  137.1640   81.8540  223.3980 C   0  0  0  0  0  0  0  0  0  0  0  0
  136.8720   82.6860  224.4670 C   0  0  0  0  0  0  0  0  0  0  0  0
  136.3910   83.9810  224.5610 C   0  0  0  0  0  0  0  0  0  0  0  0
  136.2010   84.5490  225.7970 C   0  0  0  0  0  0  0  0  0  0  0  0
  136.4920   83.8150  226.9360 C   0  0  0  0  0  0  0  0  0  0  0  0
  136.9760   82.5100  226.8430 C   0  0  0  0  0  0  0  0  0  0  0  0
  137.1650   81.9480  225.6090 C   0  0  0  0  0  0  0  0  0  0  0  0
  137.6160   80.7220  225.2460 N   0  0  0  0  0  0  0  0  0  0  0  0
  139.3150   79.3070  222.5410 N   0  0  0  0  0  0  0  0  0  0  0  0
  139.6130   78.5100  221.3700 C   0  0  0  0  0  0  0  0  0  0  0  0
  141.0120   77.9950  221.7260 C   0  0  1  0  0  0  0  0  0  0  0  0
  140.8580   76.7480  222.5140 C   0  0  0  0  0  0  0  0  0  0  0  0
  141.2040   75.6470  221.5550 C   0  0  0  0  0  0  0  0  0  0  0  0
  141.7720   76.2140  220.3840 N   0  0  0  0  0  0  0  0  0  0  0  0
  142.9570   75.6000  219.8860 C   0  0  0  0  0  0  0  0  0  0  0  0
  142.8160   74.1590  219.5350 C   0  0  0  0  0  0  0  0  0  0  0  0
  144.0420   73.3970  219.9700 C   0  0  2  0  0  0  0  0  0  0  0  0
  144.9770   74.2330  220.8220 C   0  0  0  0  0  0  0  0  0  0  0  0
  146.2240   73.3350  220.7770 C   0  0  0  0  0  0  0  0  0  0  0  0
  146.3180   73.1560  219.3220 N   0  0  0  0  0  0  0  0  0  0  0  0
  144.9520   73.0100  218.8370 C   0  0  0  0  0  0  0  0  0  0  0  0
  141.7930   77.6310  220.5150 C   0  0  0  0  0  0  0  0  0  0  0  0
  141.6130   79.1100  222.4980 C   0  0  0  0  0  0  0  0  0  0  0  0
  142.9380   79.3990  222.7470 C   0  0  0  0  0  0  0  0  0  0  0  0
  143.2310   80.5150  223.5120 C   0  0  0  0  0  0  0  0  0  0  0  0
  142.1930   81.2870  223.9910 C   0  0  0  0  0  0  0  0  0  0  0  0
  140.8660   80.9670  223.7230 C   0  0  0  0  0  0  0  0  0  0  0  0
  140.5670   79.8700  222.9700 C   0  0  0  0  0  0  0  0  0  0  0  0
  137.0488   82.1147  222.3356 H   0  0  0  0  0  0  0  0  0  0  0  0
  136.1620   84.5526  223.6495 H   0  0  0  0  0  0  0  0  0  0  0  0
  135.8211   85.5778  225.8822 H   0  0  0  0  0  0  0  0  0  0  0  0
  136.3392   84.2676  227.9269 H   0  0  0  0  0  0  0  0  0  0  0  0
  137.2040   81.9371  227.7539 H   0  0  0  0  0  0  0  0  0  0  0  0
  137.8980   79.9980  225.9430 H   0  0  0  0  0  0  0  0  0  0  0  0
  138.8961   77.6847  221.2481 H   0  0  0  0  0  0  0  0  0  0  0  0
  139.5566   79.0581  220.4179 H   0  0  0  0  0  0  0  0  0  0  0  0
  141.5451   76.7445  223.3730 H   0  0  0  0  0  0  0  0  0  0  0  0
  139.8439   76.6382  222.9259 H   0  0  0  0  0  0  0  0  0  0  0  0
  141.9289   74.9647  222.0231 H   0  0  0  0  0  0  0  0  0  0  0  0
  140.2958   75.0848  221.2921 H   0  0  0  0  0  0  0  0  0  0  0  0
  143.2694   76.1431  218.9819 H   0  0  0  0  0  0  0  0  0  0  0  0
  143.6955   75.6488  220.6997 H   0  0  0  0  0  0  0  0  0  0  0  0
  141.9318   73.7458  220.0425 H   0  0  0  0  0  0  0  0  0  0  0  0
  142.7009   74.0637  218.4452 H   0  0  0  0  0  0  0  0  0  0  0  0
  143.6006   72.5332  220.4887 H   0  0  0  0  0  0  0  0  0  0  0  0
  145.1657   75.2212  220.3771 H   0  0  0  0  0  0  0  0  0  0  0  0
  144.6066   74.4730  221.8296 H   0  0  0  0  0  0  0  0  0  0  0  0
  147.1109   73.8379  221.1899 H   0  0  0  0  0  0  0  0  0  0  0  0
  146.1644   72.4087  221.3672 H   0  0  0  0  0  0  0  0  0  0  0  0
  146.7320   74.0680  218.9710 H   0  0  0  0  0  0  0  0  0  0  0  0
  144.7842   73.6715  217.9743 H   0  0  0  0  0  0  0  0  0  0  0  0
  144.7581   71.9772  218.5117 H   0  0  0  0  0  0  0  0  0  0  0  0
  142.8306   77.9801  220.6218 H   0  0  0  0  0  0  0  0  0  0  0  0
  141.3545   78.1024  219.6231 H   0  0  0  0  0  0  0  0  0  0  0  0
  143.7402   78.7604  222.3487 H   0  0  0  0  0  0  0  0  0  0  0  0
  144.2747   80.7818  223.7343 H   0  0  0  0  0  0  0  0  0  0  0  0
  142.4197   82.1756  224.5985 H   0  0  0  0  0  0  0  0  0  0  0  0
  140.0574   81.5992  224.1187 H   0  0  0  0  0  0  0  0  0  0  0  0
  1  2  2  0
  2  3  1  0
  3  4  2  0
  4  5  1  0
  5  6  2  0
  6  7  1  0
  7  8  2  0
  8  9  1  0
  9 10  2  0
 10 11  1  0
  2 12  1  0
 12 13  1  0
 14 13  1  6
 14 15  1  0
 15 16  1  0
 16 17  1  0
 17 18  1  0
 18 19  1  0
 19 20  1  0
 20 21  1  0
 21 22  1  0
 22 23  1  0
 23 24  1  0
 17 25  1  0
 14 26  1  0
 26 27  2  0
 27 28  1  0
 28 29  2  0
 29 30  1  0
 30 31  2  0
 11  3  1  0
 31 12  1  0
 10  5  1  0
 25 14  1  0
 31 26  1  0
 24 20  1  0
  4 32  1  0
  6 33  1  0
  7 34  1  0
  8 35  1  0
  9 36  1  0
 11 37  1  0
 13 38  1  0
 13 39  1  0
 15 40  1  0
 15 41  1  0
 16 42  1  0
 16 43  1  0
 18 44  1  0
 18 45  1  0
 19 46  1  0
 19 47  1  0
 20 48  1  1
 21 49  1  0
 21 50  1  0
 22 51  1  0
 22 52  1  0
 23 53  1  0
 24 54  1  0
 24 55  1  0
 25 56  1  0
 25 57  1  0
 27 58  1  0
 28 59  1  0
 29 60  1  0
 30 61  1  0
M  END
>  <smiles>  (19) 
O=C(c1cc2ccccc2[nH]1)N1C[C@]2(CCN(CCC3CCNC3)C2)c2ccccc21

>  <score_type>  (19) 
oracle

>  <origin>  (19) 
autodockgpu

>  <m_score__min__energy>  (19) 
-9.6400000000000006

>  <m_primary>  (19) 
energy

>  <rmsd>  (19) 
10.294520140092544

>  <m_score__min__rmsd>  (19) 
10.294520140092544

>  <meeko>  (19) 
{"free_energy": -9.58, "intermolecular_energy": -11.08, "internal_energy": -1.25, "cluster_size": 45, "cluster_id": 1, "rank_in_cluster": 9}

>  <energy>  (19) 
-9.33

>  <cluster_rmsd>  (19) 
0.71

>  <cluster>  (19) 
1

$$$$

     RDKit          3D

 61 66  0  0  1  0  0  0  0  0999 V2000
  137.5330   80.5560  220.7220 O   0  0  0  0  0  0  0  0  0  0  0  0
  138.3460   80.6120  221.7130 C   0  0  0  0  0  0  0  0  0  0  0  0
  137.8320   81.1880  222.9250 C   0  0  0  0  0  0  0  0  0  0  0  0
  137.2990   82.4630  223.1010 C   0  0  0  0  0  0  0  0  0  0  0  0
  136.9170   82.6130  224.4240 C   0  0  0  0  0  0  0  0  0  0  0  0
  136.3430   83.6510  225.1380 C   0  0  0  0  0  0  0  0  0  0  0  0
  136.0760   83.4930  226.4760 C   0  0  0  0  0  0  0  0  0  0  0  0
  136.3840   82.2920  227.0940 C   0  0  0  0  0  0  0  0  0  0  0  0
  136.9620   81.2450  226.3770 C   0  0  0  0  0  0  0  0  0  0  0  0
  137.2270   81.4070  225.0440 C   0  0  0  0  0  0  0  0  0  0  0  0
  137.7750   80.5630  224.1340 N   0  0  0  0  0  0  0  0  0  0  0  0
  139.6610   80.1150  221.5380 N   0  0  0  0  0  0  0  0  0  0  0  0
  140.1090   79.2400  220.4740 C   0  0  0  0  0  0  0  0  0  0  0  0
  141.1630   78.4090  221.2160 C   0  0  1  0  0  0  0  0  0  0  0  0
  140.4790   77.2570  221.8520 C   0  0  0  0  0  0  0  0  0  0  0  0
  140.8320   76.0820  220.9890 C   0  0  0  0  0  0  0  0  0  0  0  0
  141.8550   76.4640  220.0810 N   0  0  0  0  0  0  0  0  0  0  0  0
  142.9530   75.5690  219.9390 C   0  0  0  0  0  0  0  0  0  0  0  0
  142.8560   74.3250  220.7540 C   0  0  0  0  0  0  0  0  0  0  0  0
  144.0470   73.4380  220.4900 C   0  0  2  0  0  0  0  0  0  0  0  0
  145.3530   74.0680  220.9330 C   0  0  0  0  0  0  0  0  0  0  0  0
  146.3370   73.1270  220.2180 C   0  0  0  0  0  0  0  0  0  0  0  0
  145.7670   73.1940  218.8660 N   0  0  0  0  0  0  0  0  0  0  0  0
  144.3200   73.2030  219.0300 C   0  0  0  0  0  0  0  0  0  0  0  0
  142.1710   77.8370  220.2870 C   0  0  0  0  0  0  0  0  0  0  0  0
  141.7420   79.3640  222.1930 C   0  0  0  0  0  0  0  0  0  0  0  0
  142.9520   79.3280  222.8520 C   0  0  0  0  0  0  0  0  0  0  0  0
  143.2500   80.3580  223.7280 C   0  0  0  0  0  0  0  0  0  0  0  0
  142.3310   81.3710  223.9050 C   0  0  0  0  0  0  0  0  0  0  0  0
  141.1170   81.3760  223.2250 C   0  0  0  0  0  0  0  0  0  0  0  0
  140.8140   80.3670  222.3590 C   0  0  0  0  0  0  0  0  0  0  0  0
  137.1978   83.2271  222.3162 H   0  0  0  0  0  0  0  0  0  0  0  0
  136.1016   84.5992  224.6354 H   0  0  0  0  0  0  0  0  0  0  0  0
  135.6216   84.3128  227.0517 H   0  0  0  0  0  0  0  0  0  0  0  0
  136.1696   82.1625  228.1651 H   0  0  0  0  0  0  0  0  0  0  0  0
  137.2031   80.2963  226.8788 H   0  0  0  0  0  0  0  0  0  0  0  0
  138.0860   79.5980  224.3780 H   0  0  0  0  0  0  0  0  0  0  0  0
  139.2903   78.6110  220.0944 H   0  0  0  0  0  0  0  0  0  0  0  0
  140.4837   79.7613  219.5808 H   0  0  0  0  0  0  0  0  0  0  0  0
  140.8438   77.1078  222.8790 H   0  0  0  0  0  0  0  0  0  0  0  0
  139.3919   77.4074  221.9266 H   0  0  0  0  0  0  0  0  0  0  0  0
  141.1896   75.2553  221.6204 H   0  0  0  0  0  0  0  0  0  0  0  0
  139.9439   75.7523  220.4299 H   0  0  0  0  0  0  0  0  0  0  0  0
  143.0235   75.2795  218.8801 H   0  0  0  0  0  0  0  0  0  0  0  0
  143.8404   76.1082  220.3021 H   0  0  0  0  0  0  0  0  0  0  0  0
  142.8295   74.5904  221.8212 H   0  0  0  0  0  0  0  0  0  0  0  0
  141.9375   73.7855  220.4795 H   0  0  0  0  0  0  0  0  0  0  0  0
  143.7732   72.5222  221.0344 H   0  0  0  0  0  0  0  0  0  0  0  0
  145.4485   75.1063  220.5826 H   0  0  0  0  0  0  0  0  0  0  0  0
  145.4893   74.1525  222.0213 H   0  0  0  0  0  0  0  0  0  0  0  0
  147.3693   73.5056  220.2509 H   0  0  0  0  0  0  0  0  0  0  0  0
  146.4272   72.1180  220.6468 H   0  0  0  0  0  0  0  0  0  0  0  0
  146.0950   74.1300  218.4870 H   0  0  0  0  0  0  0  0  0  0  0  0
  143.8761   74.0093  218.4277 H   0  0  0  0  0  0  0  0  0  0  0  0
  143.8800   72.2520  218.6954 H   0  0  0  0  0  0  0  0  0  0  0  0
  143.1756   77.9264  220.7261 H   0  0  0  0  0  0  0  0  0  0  0  0
  142.1572   78.3787  219.3297 H   0  0  0  0  0  0  0  0  0  0  0  0
  143.6614   78.5037  222.6866 H   0  0  0  0  0  0  0  0  0  0  0  0
  144.2048   80.3682  224.2742 H   0  0  0  0  0  0  0  0  0  0  0  0
  142.5627   82.1927  224.5987 H   0  0  0  0  0  0  0  0  0  0  0  0
  140.4006   82.1950  223.3862 H   0  0  0  0  0  0  0  0  0  0  0  0
  1  2  2  0
  2  3  1  0
  3  4  2  0
  4  5  1  0
  5  6  2  0
  6  7  1  0
  7  8  2  0
  8  9  1  0
  9 10  2  0
 10 11  1  0
  2 12  1  0
 12 13  1  0
 14 13  1  6
 14 15  1  0
 15 16  1  0
 16 17  1  0
 17 18  1  0
 18 19  1  0
 19 20  1  0
 20 21  1  0
 21 22  1  0
 22 23  1  0
 23 24  1  0
 17 25  1  0
 14 26  1  0
 26 27  2  0
 27 28  1  0
 28 29  2  0
 29 30  1  0
 30 31  2  0
 11  3  1  0
 31 12  1  0
 10  5  1  0
 25 14  1  0
 31 26  1  0
 24 20  1  0
  4 32  1  0
  6 33  1  0
  7 34  1  0
  8 35  1  0
  9 36  1  0
 11 37  1  0
 13 38  1  0
 13 39  1  0
 15 40  1  0
 15 41  1  0
 16 42  1  0
 16 43  1  0
 18 44  1  0
 18 45  1  0
 19 46  1  0
 19 47  1  0
 20 48  1  1
 21 49  1  0
 21 50  1  0
 22 51  1  0
 22 52  1  0
 23 53  1  0
 24 54  1  0
 24 55  1  0
 25 56  1  0
 25 57  1  0
 27 58  1  0
 28 59  1  0
 29 60  1  0
 30 61  1  0
M  END
>  <smiles>  (20) 
O=C(c1cc2ccccc2[nH]1)N1C[C@]2(CCN(CCC3CCNC3)C2)c2ccccc21

>  <score_type>  (20) 
oracle

>  <origin>  (20) 
autodockgpu

>  <m_score__min__energy>  (20) 
-9.6400000000000006

>  <m_primary>  (20) 
energy

>  <rmsd>  (20) 
9.974610589747115

>  <m_score__min__rmsd>  (20) 
9.974610589747115

>  <meeko>  (20) 
{"free_energy": -8.75, "intermolecular_energy": -10.24, "internal_energy": -1.29, "cluster_size": 45, "cluster_id": 1, "rank_in_cluster": 43}

>  <energy>  (20) 
-9.32

>  <cluster_rmsd>  (20) 
0.77

>  <cluster>  (20) 
1

$$$$

     RDKit          3D

 61 66  0  0  1  0  0  0  0  0999 V2000
  137.1680   78.5990  222.9450 O   0  0  0  0  0  0  0  0  0  0  0  0
  138.0510   79.5160  223.1030 C   0  0  0  0  0  0  0  0  0  0  0  0
  137.6480   80.6600  223.8740 C   0  0  0  0  0  0  0  0  0  0  0  0
  137.1840   81.8840  223.3990 C   0  0  0  0  0  0  0  0  0  0  0  0
  136.9010   82.7080  224.4760 C   0  0  0  0  0  0  0  0  0  0  0  0
  136.4250   84.0030  224.5850 C   0  0  0  0  0  0  0  0  0  0  0  0
  136.2430   84.5610  225.8270 C   0  0  0  0  0  0  0  0  0  0  0  0
  136.5410   83.8170  226.9570 C   0  0  0  0  0  0  0  0  0  0  0  0
  137.0210   82.5120  226.8500 C   0  0  0  0  0  0  0  0  0  0  0  0
  137.2000   81.9600  225.6100 C   0  0  0  0  0  0  0  0  0  0  0  0
  137.6460   80.7350  225.2340 N   0  0  0  0  0  0  0  0  0  0  0  0
  139.3280   79.3340  222.5170 N   0  0  0  0  0  0  0  0  0  0  0  0
  139.6250   78.5320  221.3490 C   0  0  0  0  0  0  0  0  0  0  0  0
  141.0240   78.0160  221.7070 C   0  0  1  0  0  0  0  0  0  0  0  0
  140.8670   76.7710  222.4990 C   0  0  0  0  0  0  0  0  0  0  0  0
  141.2110   75.6670  221.5440 C   0  0  0  0  0  0  0  0  0  0  0  0
  141.7810   76.2300  220.3720 N   0  0  0  0  0  0  0  0  0  0  0  0
  142.9650   75.6120  219.8760 C   0  0  0  0  0  0  0  0  0  0  0  0
  142.8240   74.1680  219.5370 C   0  0  0  0  0  0  0  0  0  0  0  0
  144.0630   73.4150  219.9500 C   0  0  2  0  0  0  0  0  0  0  0  0
  144.9990   74.2530  220.7990 C   0  0  0  0  0  0  0  0  0  0  0  0
  146.2540   73.3680  220.7320 C   0  0  0  0  0  0  0  0  0  0  0  0
  146.3340   73.2040  219.2740 N   0  0  0  0  0  0  0  0  0  0  0  0
  144.9640   73.0480  218.8040 C   0  0  0  0  0  0  0  0  0  0  0  0
  141.8050   77.6470  220.4990 C   0  0  0  0  0  0  0  0  0  0  0  0
  141.6260   79.1320  222.4770 C   0  0  0  0  0  0  0  0  0  0  0  0
  142.9510   79.4190  222.7260 C   0  0  0  0  0  0  0  0  0  0  0  0
  143.2460   80.5370  223.4880 C   0  0  0  0  0  0  0  0  0  0  0  0
  142.2090   81.3120  223.9650 C   0  0  0  0  0  0  0  0  0  0  0  0
  140.8810   80.9930  223.6960 C   0  0  0  0  0  0  0  0  0  0  0  0
  140.5800   79.8960  222.9450 C   0  0  0  0  0  0  0  0  0  0  0  0
  137.0619   82.1532  222.3395 H   0  0  0  0  0  0  0  0  0  0  0  0
  136.1932   84.5836  223.6799 H   0  0  0  0  0  0  0  0  0  0  0  0
  135.8641   85.5892  225.9234 H   0  0  0  0  0  0  0  0  0  0  0  0
  136.3970   84.2619  227.9527 H   0  0  0  0  0  0  0  0  0  0  0  0
  137.2539   81.9309  227.7545 H   0  0  0  0  0  0  0  0  0  0  0  0
  137.9310   80.0050  225.9230 H   0  0  0  0  0  0  0  0  0  0  0  0
  138.9069   77.7073  221.2303 H   0  0  0  0  0  0  0  0  0  0  0  0
  139.5695   79.0766  220.3949 H   0  0  0  0  0  0  0  0  0  0  0  0
  141.5536   76.7686  223.3584 H   0  0  0  0  0  0  0  0  0  0  0  0
  139.8525   76.6645  222.9106 H   0  0  0  0  0  0  0  0  0  0  0  0
  141.9341   74.9845  222.0144 H   0  0  0  0  0  0  0  0  0  0  0  0
  140.3020   75.1056  221.2822 H   0  0  0  0  0  0  0  0  0  0  0  0
  143.2749   76.1478  218.9667 H   0  0  0  0  0  0  0  0  0  0  0  0
  143.7053   75.6675  220.6877 H   0  0  0  0  0  0  0  0  0  0  0  0
  141.9532   73.7535  220.0661 H   0  0  0  0  0  0  0  0  0  0  0  0
  142.6859   74.0653  218.4505 H   0  0  0  0  0  0  0  0  0  0  0  0
  143.6363   72.5416  220.4649 H   0  0  0  0  0  0  0  0  0  0  0  0
  145.1728   75.2469  220.3608 H   0  0  0  0  0  0  0  0  0  0  0  0
  144.6376   74.4805  221.8127 H   0  0  0  0  0  0  0  0  0  0  0  0
  147.1403   73.8757  221.1403 H   0  0  0  0  0  0  0  0  0  0  0  0
  146.2100   72.4355  221.3138 H   0  0  0  0  0  0  0  0  0  0  0  0
  146.7340   74.1240  218.9270 H   0  0  0  0  0  0  0  0  0  0  0  0
  144.7793   73.7153  217.9493 H   0  0  0  0  0  0  0  0  0  0  0  0
  144.7774   72.0160  218.4722 H   0  0  0  0  0  0  0  0  0  0  0  0
  142.8433   77.9941  220.6061 H   0  0  0  0  0  0  0  0  0  0  0  0
  141.3686   78.1168  219.6052 H   0  0  0  0  0  0  0  0  0  0  0  0
  143.7521   78.7775  222.3302 H   0  0  0  0  0  0  0  0  0  0  0  0
  144.2902   80.8029  223.7094 H   0  0  0  0  0  0  0  0  0  0  0  0
  142.4366   82.2013  224.5711 H   0  0  0  0  0  0  0  0  0  0  0  0
  140.0732   81.6272  224.0901 H   0  0  0  0  0  0  0  0  0  0  0  0
  1  2  2  0
  2  3  1  0
  3  4  2  0
  4  5  1  0
  5  6  2  0
  6  7  1  0
  7  8  2  0
  8  9  1  0
  9 10  2  0
 10 11  1  0
  2 12  1  0
 12 13  1  0
 14 13  1  6
 14 15  1  0
 15 16  1  0
 16 17  1  0
 17 18  1  0
 18 19  1  0
 19 20  1  0
 20 21  1  0
 21 22  1  0
 22 23  1  0
 23 24  1  0
 17 25  1  0
 14 26  1  0
 26 27  2  0
 27 28  1  0
 28 29  2  0
 29 30  1  0
 30 31  2  0
 11  3  1  0
 31 12  1  0
 10  5  1  0
 25 14  1  0
 31 26  1  0
 24 20  1  0
  4 32  1  0
  6 33  1  0
  7 34  1  0
  8 35  1  0
  9 36  1  0
 11 37  1  0
 13 38  1  0
 13 39  1  0
 15 40  1  0
 15 41  1  0
 16 42  1  0
 16 43  1  0
 18 44  1  0
 18 45  1  0
 19 46  1  0
 19 47  1  0
 20 48  1  1
 21 49  1  0
 21 50  1  0
 22 51  1  0
 22 52  1  0
 23 53  1  0
 24 54  1  0
 24 55  1  0
 25 56  1  0
 25 57  1  0
 27 58  1  0
 28 59  1  0
 29 60  1  0
 30 61  1  0
M  END
>  <smiles>  (21) 
O=C(c1cc2ccccc2[nH]1)N1C[C@]2(CCN(CCC3CCNC3)C2)c2ccccc21

>  <score_type>  (21) 
oracle

>  <origin>  (21) 
autodockgpu

>  <m_score__min__energy>  (21) 
-9.6400000000000006

>  <m_primary>  (21) 
energy

>  <rmsd>  (21) 
10.299976753814258

>  <m_score__min__rmsd>  (21) 
10.299976753814258

>  <meeko>  (21) 
{"free_energy": -9.58, "intermolecular_energy": -11.08, "internal_energy": -1.25, "cluster_size": 45, "cluster_id": 1, "rank_in_cluster": 10}

>  <energy>  (21) 
-9.27

>  <cluster_rmsd>  (21) 
0.83

>  <cluster>  (21) 
1

$$$$

     RDKit          3D

 61 66  0  0  1  0  0  0  0  0999 V2000
  139.8060   74.5200  222.3310 O   0  0  0  0  0  0  0  0  0  0  0  0
  140.5130   75.3890  221.7040 C   0  0  0  0  0  0  0  0  0  0  0  0
  140.4210   76.7420  222.1770 C   0  0  0  0  0  0  0  0  0  0  0  0
  139.3030   77.3870  222.7010 C   0  0  0  0  0  0  0  0  0  0  0  0
  139.6470   78.6850  223.0390 C   0  0  0  0  0  0  0  0  0  0  0  0
  138.9440   79.7440  223.5860 C   0  0  0  0  0  0  0  0  0  0  0  0
  139.5790   80.9420  223.8110 C   0  0  0  0  0  0  0  0  0  0  0  0
  140.9200   81.0710  223.4850 C   0  0  0  0  0  0  0  0  0  0  0  0
  141.6300   80.0050  222.9340 C   0  0  0  0  0  0  0  0  0  0  0  0
  140.9930   78.8150  222.7130 C   0  0  0  0  0  0  0  0  0  0  0  0
  141.4430   77.6430  222.1970 N   0  0  0  0  0  0  0  0  0  0  0  0
  141.3100   74.9550  220.6160 N   0  0  0  0  0  0  0  0  0  0  0  0
  141.7400   73.5960  220.3610 C   0  0  0  0  0  0  0  0  0  0  0  0
  143.1160   73.8480  219.7340 C   0  0  1  0  0  0  0  0  0  0  0  0
  144.1120   73.9390  220.8300 C   0  0  0  0  0  0  0  0  0  0  0  0
  144.8460   72.6310  220.7860 C   0  0  0  0  0  0  0  0  0  0  0  0
  144.4930   71.9420  219.5950 N   0  0  0  0  0  0  0  0  0  0  0  0
  145.5610   71.3720  218.8450 C   0  0  0  0  0  0  0  0  0  0  0  0
  145.1370   70.4570  217.7480 C   0  0  0  0  0  0  0  0  0  0  0  0
  145.3410   69.0210  218.1620 C   0  0  2  0  0  0  0  0  0  0  0  0
  144.0760   68.3830  218.7000 C   0  0  0  0  0  0  0  0  0  0  0  0
  144.6850   67.1270  219.3430 C   0  0  0  0  0  0  0  0  0  0  0  0
  145.7300   67.7730  220.1500 N   0  0  0  0  0  0  0  0  0  0  0  0
  146.2700   68.8510  219.3320 C   0  0  0  0  0  0  0  0  0  0  0  0
  143.5460   72.7190  218.8700 C   0  0  0  0  0  0  0  0  0  0  0  0
  142.9390   75.1200  218.9920 C   0  0  0  0  0  0  0  0  0  0  0  0
  143.6710   75.6420  217.9470 C   0  0  0  0  0  0  0  0  0  0  0  0
  143.2900   76.8690  217.4310 C   0  0  0  0  0  0  0  0  0  0  0  0
  142.2020   77.5150  217.9790 C   0  0  0  0  0  0  0  0  0  0  0  0
  141.4840   76.9600  219.0340 C   0  0  0  0  0  0  0  0  0  0  0  0
  141.8510   75.7530  219.5490 C   0  0  0  0  0  0  0  0  0  0  0  0
  138.3069   76.9374  222.8262 H   0  0  0  0  0  0  0  0  0  0  0  0
  137.8801   79.6274  223.8400 H   0  0  0  0  0  0  0  0  0  0  0  0
  139.0287   81.7897  224.2453 H   0  0  0  0  0  0  0  0  0  0  0  0
  141.4315   82.0283  223.6636 H   0  0  0  0  0  0  0  0  0  0  0  0
  142.6939   80.1201  222.6791 H   0  0  0  0  0  0  0  0  0  0  0  0
  142.4280   77.5100  221.8810 H   0  0  0  0  0  0  0  0  0  0  0  0
  141.8186   73.0142  221.2912 H   0  0  0  0  0  0  0  0  0  0  0  0
  141.0526   73.0089  219.7343 H   0  0  0  0  0  0  0  0  0  0  0  0
  144.8028   74.7776  220.6580 H   0  0  0  0  0  0  0  0  0  0  0  0
  143.6406   74.1195  221.8073 H   0  0  0  0  0  0  0  0  0  0  0  0
  145.9303   72.8161  220.7973 H   0  0  0  0  0  0  0  0  0  0  0  0
  144.5742   72.0229  221.6614 H   0  0  0  0  0  0  0  0  0  0  0  0
  146.1426   72.1928  218.4001 H   0  0  0  0  0  0  0  0  0  0  0  0
  146.1422   70.7602  219.5506 H   0  0  0  0  0  0  0  0  0  0  0  0
  144.0726   70.6239  217.5262 H   0  0  0  0  0  0  0  0  0  0  0  0
  145.7429   70.6630  216.8533 H   0  0  0  0  0  0  0  0  0  0  0  0
  145.7216   68.5693  217.2340 H   0  0  0  0  0  0  0  0  0  0  0  0
  143.5759   69.0233  219.4416 H   0  0  0  0  0  0  0  0  0  0  0  0
  143.2903   68.1950  217.9535 H   0  0  0  0  0  0  0  0  0  0  0  0
  143.9567   66.5866  219.9656 H   0  0  0  0  0  0  0  0  0  0  0  0
  145.0351   66.3557  218.6412 H   0  0  0  0  0  0  0  0  0  0  0  0
  145.2090   68.1760  220.9820 H   0  0  0  0  0  0  0  0  0  0  0  0
  146.3164   69.7819  219.9162 H   0  0  0  0  0  0  0  0  0  0  0  0
  147.2895   68.6146  218.9933 H   0  0  0  0  0  0  0  0  0  0  0  0
  144.0087   73.1082  217.9510 H   0  0  0  0  0  0  0  0  0  0  0  0
  142.6796   72.1010  218.5919 H   0  0  0  0  0  0  0  0  0  0  0  0
  144.5340   75.0987  217.5345 H   0  0  0  0  0  0  0  0  0  0  0  0
  143.8465   77.3214  216.5970 H   0  0  0  0  0  0  0  0  0  0  0  0
  141.8949   78.4903  217.5734 H   0  0  0  0  0  0  0  0  0  0  0  0
  140.6195   77.4961  219.4525 H   0  0  0  0  0  0  0  0  0  0  0  0
  1  2  2  0
  2  3  1  0
  3  4  2  0
  4  5  1  0
  5  6  2  0
  6  7  1  0
  7  8  2  0
  8  9  1  0
  9 10  2  0
 10 11  1  0
  2 12  1  0
 12 13  1  0
 14 13  1  1
 14 15  1  0
 15 16  1  0
 16 17  1  0
 17 18  1  0
 18 19  1  0
 19 20  1  0
 20 21  1  0
 21 22  1  0
 22 23  1  0
 23 24  1  0
 17 25  1  0
 14 26  1  0
 26 27  2  0
 27 28  1  0
 28 29  2  0
 29 30  1  0
 30 31  2  0
 11  3  1  0
 31 12  1  0
 10  5  1  0
 25 14  1  0
 31 26  1  0
 24 20  1  0
  4 32  1  0
  6 33  1  0
  7 34  1  0
  8 35  1  0
  9 36  1  0
 11 37  1  0
 13 38  1  0
 13 39  1  0
 15 40  1  0
 15 41  1  0
 16 42  1  0
 16 43  1  0
 18 44  1  0
 18 45  1  0
 19 46  1  0
 19 47  1  0
 20 48  1  6
 21 49  1  0
 21 50  1  0
 22 51  1  0
 22 52  1  0
 23 53  1  0
 24 54  1  0
 24 55  1  0
 25 56  1  0
 25 57  1  0
 27 58  1  0
 28 59  1  0
 29 60  1  0
 30 61  1  0
M  END
>  <smiles>  (22) 
O=C(c1cc2ccccc2[nH]1)N1C[C@]2(CCN(CCC3CCNC3)C2)c2ccccc21

>  <score_type>  (22) 
oracle

>  <origin>  (22) 
autodockgpu

>  <m_score__min__energy>  (22) 
-9.6400000000000006

>  <m_primary>  (22) 
energy

>  <rmsd>  (22) 
7.065503715989895

>  <m_score__min__rmsd>  (22) 
7.065503715989895

>  <meeko>  (22) 
{"free_energy": -8.52, "intermolecular_energy": -10.01, "internal_energy": -1.39, "cluster_size": 1, "cluster_id": 2, "rank_in_cluster": 1}

>  <energy>  (22) 
-9.25

>  <cluster_rmsd>  (22) 
0.92

>  <cluster>  (22) 
1

$$$$

     RDKit          3D

 61 66  0  0  1  0  0  0  0  0999 V2000
  137.2570   78.2830  222.7270 O   0  0  0  0  0  0  0  0  0  0  0  0
  138.0640   79.2630  222.9130 C   0  0  0  0  0  0  0  0  0  0  0  0
  137.5880   80.3250  223.7550 C   0  0  0  0  0  0  0  0  0  0  0  0
  137.9460   80.5910  225.0740 C   0  0  0  0  0  0  0  0  0  0  0  0
  137.2580   81.7110  225.5130 C   0  0  0  0  0  0  0  0  0  0  0  0
  137.2300   82.4030  226.7110 C   0  0  0  0  0  0  0  0  0  0  0  0
  136.4240   83.5070  226.8430 C   0  0  0  0  0  0  0  0  0  0  0  0
  135.6470   83.9140  225.7700 C   0  0  0  0  0  0  0  0  0  0  0  0
  135.6740   83.2180  224.5610 C   0  0  0  0  0  0  0  0  0  0  0  0
  136.4790   82.1190  224.4350 C   0  0  0  0  0  0  0  0  0  0  0  0
  136.6870   81.2800  223.3890 N   0  0  0  0  0  0  0  0  0  0  0  0
  139.3340   79.2220  222.2860 N   0  0  0  0  0  0  0  0  0  0  0  0
  139.6410   78.5930  221.0190 C   0  0  0  0  0  0  0  0  0  0  0  0
  141.0710   78.1070  221.2840 C   0  0  1  0  0  0  0  0  0  0  0  0
  140.9940   76.7660  221.9120 C   0  0  0  0  0  0  0  0  0  0  0  0
  141.3680   75.8110  220.8160 C   0  0  0  0  0  0  0  0  0  0  0  0
  141.8820   76.5470  219.7160 N   0  0  0  0  0  0  0  0  0  0  0  0
  143.0820   76.0600  219.1240 C   0  0  0  0  0  0  0  0  0  0  0  0
  144.0470   75.4460  220.0800 C   0  0  0  0  0  0  0  0  0  0  0  0
  144.4460   74.0720  219.6030 C   0  0  2  0  0  0  0  0  0  0  0  0
  143.6590   72.9680  220.2810 C   0  0  0  0  0  0  0  0  0  0  0  0
  144.5220   71.7620  219.8740 C   0  0  0  0  0  0  0  0  0  0  0  0
  145.8320   72.2700  220.3040 N   0  0  0  0  0  0  0  0  0  0  0  0
  145.8540   73.6860  219.9630 C   0  0  0  0  0  0  0  0  0  0  0  0
  141.8400   77.9360  220.0240 C   0  0  0  0  0  0  0  0  0  0  0  0
  141.6370   79.1460  222.1800 C   0  0  0  0  0  0  0  0  0  0  0  0
  142.9520   79.4660  222.4400 C   0  0  0  0  0  0  0  0  0  0  0  0
  143.2100   80.4910  223.3340 C   0  0  0  0  0  0  0  0  0  0  0  0
  142.1490   81.1450  223.9250 C   0  0  0  0  0  0  0  0  0  0  0  0
  140.8320   80.7960  223.6410 C   0  0  0  0  0  0  0  0  0  0  0  0
  140.5670   79.7890  222.7610 C   0  0  0  0  0  0  0  0  0  0  0  0
  138.6604   80.0059  225.6718 H   0  0  0  0  0  0  0  0  0  0  0  0
  137.8516   82.0697  227.5552 H   0  0  0  0  0  0  0  0  0  0  0  0
  136.3954   84.0631  227.7916 H   0  0  0  0  0  0  0  0  0  0  0  0
  135.0002   84.7978  225.8729 H   0  0  0  0  0  0  0  0  0  0  0  0
  135.0530   83.5502  223.7160 H   0  0  0  0  0  0  0  0  0  0  0  0
  136.2030   81.3950  222.4720 H   0  0  0  0  0  0  0  0  0  0  0  0
  138.9606   77.7551  220.8067 H   0  0  0  0  0  0  0  0  0  0  0  0
  139.5367   79.2518  220.1443 H   0  0  0  0  0  0  0  0  0  0  0  0
  141.7008   76.6894  222.7514 H   0  0  0  0  0  0  0  0  0  0  0  0
  139.9963   76.5561  222.3250 H   0  0  0  0  0  0  0  0  0  0  0  0
  142.1342   75.1116  221.1819 H   0  0  0  0  0  0  0  0  0  0  0  0
  140.4809   75.2424  220.5003 H   0  0  0  0  0  0  0  0  0  0  0  0
  142.8107   75.3001  218.3764 H   0  0  0  0  0  0  0  0  0  0  0  0
  143.5899   76.9341  218.6903 H   0  0  0  0  0  0  0  0  0  0  0  0
  144.9426   76.0808  220.1510 H   0  0  0  0  0  0  0  0  0  0  0  0
  143.5700   75.3598  221.0675 H   0  0  0  0  0  0  0  0  0  0  0  0
  144.2809   74.1520  218.5184 H   0  0  0  0  0  0  0  0  0  0  0  0
  143.6238   73.0988  221.3726 H   0  0  0  0  0  0  0  0  0  0  0  0
  142.5981   72.9043  219.9972 H   0  0  0  0  0  0  0  0  0  0  0  0
  144.2355   70.8474  220.4139 H   0  0  0  0  0  0  0  0  0  0  0  0
  144.4516   71.4613  218.8182 H   0  0  0  0  0  0  0  0  0  0  0  0
  145.8280   72.1510  221.3580 H   0  0  0  0  0  0  0  0  0  0  0  0
  146.1995   74.2769  220.8241 H   0  0  0  0  0  0  0  0  0  0  0  0
  146.5407   73.8780  219.1254 H   0  0  0  0  0  0  0  0  0  0  0  0
  142.8624   78.3195  220.1564 H   0  0  0  0  0  0  0  0  0  0  0  0
  141.3597   78.4931  219.2061 H   0  0  0  0  0  0  0  0  0  0  0  0
  143.7736   78.9222  221.9509 H   0  0  0  0  0  0  0  0  0  0  0  0
  144.2451   80.7795  223.5694 H   0  0  0  0  0  0  0  0  0  0  0  0
  142.3482   81.9601  224.6363 H   0  0  0  0  0  0  0  0  0  0  0  0
  140.0042   81.3331  224.1270 H   0  0  0  0  0  0  0  0  0  0  0  0
  1  2  2  0
  2  3  1  0
  3  4  2  0
  4  5  1  0
  5  6  2  0
  6  7  1  0
  7  8  2  0
  8  9  1  0
  9 10  2  0
 10 11  1  0
  2 12  1  0
 12 13  1  0
 14 13  1  6
 14 15  1  0
 15 16  1  0
 16 17  1  0
 17 18  1  0
 18 19  1  0
 19 20  1  0
 20 21  1  0
 21 22  1  0
 22 23  1  0
 23 24  1  0
 17 25  1  0
 14 26  1  0
 26 27  2  0
 27 28  1  0
 28 29  2  0
 29 30  1  0
 30 31  2  0
 11  3  1  0
 31 12  1  0
 10  5  1  0
 25 14  1  0
 31 26  1  0
 24 20  1  0
  4 32  1  0
  6 33  1  0
  7 34  1  0
  8 35  1  0
  9 36  1  0
 11 37  1  0
 13 38  1  0
 13 39  1  0
 15 40  1  0
 15 41  1  0
 16 42  1  0
 16 43  1  0
 18 44  1  0
 18 45  1  0
 19 46  1  0
 19 47  1  0
 20 48  1  6
 21 49  1  0
 21 50  1  0
 22 51  1  0
 22 52  1  0
 23 53  1  0
 24 54  1  0
 24 55  1  0
 25 56  1  0
 25 57  1  0
 27 58  1  0
 28 59  1  0
 29 60  1  0
 30 61  1  0
M  END
>  <smiles>  (23) 
O=C(c1cc2ccccc2[nH]1)N1C[C@]2(CCN(CCC3CCNC3)C2)c2ccccc21

>  <score_type>  (23) 
oracle

>  <origin>  (23) 
autodockgpu

>  <m_score__min__energy>  (23) 
-9.6400000000000006

>  <m_primary>  (23) 
energy

>  <rmsd>  (23) 
9.836340115788966

>  <m_score__min__rmsd>  (23) 
9.836340115788966

>  <meeko>  (23) 
{"free_energy": -8.48, "intermolecular_energy": -9.97, "internal_energy": -1.26, "cluster_size": 45, "cluster_id": 1, "rank_in_cluster": 45}

>  <energy>  (23) 
-9.24

>  <cluster_rmsd>  (23) 
0.72

>  <cluster>  (23) 
1

$$$$

     RDKit          3D

 61 66  0  0  1  0  0  0  0  0999 V2000
  137.1740   80.7040  220.8330 O   0  0  0  0  0  0  0  0  0  0  0  0
  138.0150   80.6210  221.7980 C   0  0  0  0  0  0  0  0  0  0  0  0
  137.6240   81.2380  223.0360 C   0  0  0  0  0  0  0  0  0  0  0  0
  137.2100   82.5520  223.2380 C   0  0  0  0  0  0  0  0  0  0  0  0
  136.9210   82.7330  224.5810 C   0  0  0  0  0  0  0  0  0  0  0  0
  136.4800   83.8150  225.3220 C   0  0  0  0  0  0  0  0  0  0  0  0
  136.2800   83.6800  226.6740 C   0  0  0  0  0  0  0  0  0  0  0  0
  136.5230   82.4570  227.2790 C   0  0  0  0  0  0  0  0  0  0  0  0
  136.9680   81.3650  226.5340 C   0  0  0  0  0  0  0  0  0  0  0  0
  137.1650   81.5050  225.1870 C   0  0  0  0  0  0  0  0  0  0  0  0
  137.5860   80.6190  224.2490 N   0  0  0  0  0  0  0  0  0  0  0  0
  139.2390   79.9440  221.5730 N   0  0  0  0  0  0  0  0  0  0  0  0
  139.4490   78.8410  220.6590 C   0  0  0  0  0  0  0  0  0  0  0  0
  140.5100   78.0390  221.4230 C   0  0  1  0  0  0  0  0  0  0  0  0
  139.8130   77.1160  222.3500 C   0  0  0  0  0  0  0  0  0  0  0  0
  139.9280   75.7670  221.7020 C   0  0  0  0  0  0  0  0  0  0  0  0
  140.8480   75.8500  220.6230 N   0  0  0  0  0  0  0  0  0  0  0  0
  141.8250   74.8170  220.5350 C   0  0  0  0  0  0  0  0  0  0  0  0
  143.2210   75.2920  220.3240 C   0  0  0  0  0  0  0  0  0  0  0  0
  144.1680   74.1190  220.2870 C   0  0  2  0  0  0  0  0  0  0  0  0
  145.5400   74.4600  220.8360 C   0  0  0  0  0  0  0  0  0  0  0  0
  146.3200   73.2340  220.3330 C   0  0  0  0  0  0  0  0  0  0  0  0
  145.9250   73.2840  218.9190 N   0  0  0  0  0  0  0  0  0  0  0  0
  144.5180   73.6610  218.8990 C   0  0  0  0  0  0  0  0  0  0  0  0
  141.3210   77.1880  220.5140 C   0  0  0  0  0  0  0  0  0  0  0  0
  141.3080   79.0810  222.1170 C   0  0  0  0  0  0  0  0  0  0  0  0
  142.5880   79.0210  222.6230 C   0  0  0  0  0  0  0  0  0  0  0  0
  143.1020   80.1500  223.2370 C   0  0  0  0  0  0  0  0  0  0  0  0
  142.3180   81.2820  223.3150 C   0  0  0  0  0  0  0  0  0  0  0  0
  141.0280   81.3090  222.7940 C   0  0  0  0  0  0  0  0  0  0  0  0
  140.5130   80.2020  222.1880 C   0  0  0  0  0  0  0  0  0  0  0  0
  137.1259   83.3223  222.4572 H   0  0  0  0  0  0  0  0  0  0  0  0
  136.2902   84.7803  224.8298 H   0  0  0  0  0  0  0  0  0  0  0  0
  135.9301   84.5349  227.2713 H   0  0  0  0  0  0  0  0  0  0  0  0
  136.3627   82.3460  228.3616 H   0  0  0  0  0  0  0  0  0  0  0  0
  137.1590   80.3994  227.0250 H   0  0  0  0  0  0  0  0  0  0  0  0
  137.8290   79.6300  224.4790 H   0  0  0  0  0  0  0  0  0  0  0  0
  138.5288   78.2571  220.5097 H   0  0  0  0  0  0  0  0  0  0  0  0
  139.7455   79.1395  219.6426 H   0  0  0  0  0  0  0  0  0  0  0  0
  140.3003   77.1155  223.3362 H   0  0  0  0  0  0  0  0  0  0  0  0
  138.7663   77.4084  222.5198 H   0  0  0  0  0  0  0  0  0  0  0  0
  140.2882   75.0335  222.4384 H   0  0  0  0  0  0  0  0  0  0  0  0
  138.9437   75.4489  221.3279 H   0  0  0  0  0  0  0  0  0  0  0  0
  141.7979   74.2401  221.4712 H   0  0  0  0  0  0  0  0  0  0  0  0
  141.5644   74.2199  219.6487 H   0  0  0  0  0  0  0  0  0  0  0  0
  143.2795   75.8370  219.3703 H   0  0  0  0  0  0  0  0  0  0  0  0
  143.5040   75.9569  221.1533 H   0  0  0  0  0  0  0  0  0  0  0  0
  143.6171   73.3644  220.8676 H   0  0  0  0  0  0  0  0  0  0  0  0
  145.9306   75.3976  220.4137 H   0  0  0  0  0  0  0  0  0  0  0  0
  145.5828   74.6318  221.9217 H   0  0  0  0  0  0  0  0  0  0  0  0
  147.4058   73.3523  220.4636 H   0  0  0  0  0  0  0  0  0  0  0  0
  146.1076   72.2884  220.8533 H   0  0  0  0  0  0  0  0  0  0  0  0
  146.5160   74.0630  218.5070 H   0  0  0  0  0  0  0  0  0  0  0  0
  144.3554   74.4769  218.1794 H   0  0  0  0  0  0  0  0  0  0  0  0
  143.8878   72.8126  218.5941 H   0  0  0  0  0  0  0  0  0  0  0  0
  142.3804   77.2341  220.8063 H   0  0  0  0  0  0  0  0  0  0  0  0
  141.2285   77.5419  219.4766 H   0  0  0  0  0  0  0  0  0  0  0  0
  143.1853   78.1009  222.5413 H   0  0  0  0  0  0  0  0  0  0  0  0
  144.1191   80.1445  223.6559 H   0  0  0  0  0  0  0  0  0  0  0  0
  142.7213   82.1833  223.7997 H   0  0  0  0  0  0  0  0  0  0  0  0
  140.4233   82.2246  222.8713 H   0  0  0  0  0  0  0  0  0  0  0  0
  1  2  2  0
  2  3  1  0
  3  4  2  0
  4  5  1  0
  5  6  2  0
  6  7  1  0
  7  8  2  0
  8  9  1  0
  9 10  2  0
 10 11  1  0
  2 12  1  0
 12 13  1  0
 14 13  1  6
 14 15  1  0
 15 16  1  0
 16 17  1  0
 17 18  1  0
 18 19  1  0
 19 20  1  0
 20 21  1  0
 21 22  1  0
 22 23  1  0
 23 24  1  0
 17 25  1  0
 14 26  1  0
 26 27  2  0
 27 28  1  0
 28 29  2  0
 29 30  1  0
 30 31  2  0
 11  3  1  0
 31 12  1  0
 10  5  1  0
 25 14  1  0
 31 26  1  0
 24 20  1  0
  4 32  1  0
  6 33  1  0
  7 34  1  0
  8 35  1  0
  9 36  1  0
 11 37  1  0
 13 38  1  0
 13 39  1  0
 15 40  1  0
 15 41  1  0
 16 42  1  0
 16 43  1  0
 18 44  1  0
 18 45  1  0
 19 46  1  0
 19 47  1  0
 20 48  1  1
 21 49  1  0
 21 50  1  0
 22 51  1  0
 22 52  1  0
 23 53  1  0
 24 54  1  0
 24 55  1  0
 25 56  1  0
 25 57  1  0
 27 58  1  0
 28 59  1  0
 29 60  1  0
 30 61  1  0
M  END
>  <smiles>  (24) 
O=C(c1cc2ccccc2[nH]1)N1C[C@]2(CCN(CCC3CCNC3)C2)c2ccccc21

>  <score_type>  (24) 
oracle

>  <origin>  (24) 
autodockgpu

>  <m_score__min__energy>  (24) 
-9.6400000000000006

>  <m_primary>  (24) 
energy

>  <rmsd>  (24) 
9.964747682147687

>  <m_score__min__rmsd>  (24) 
9.964747682147687

>  <meeko>  (24) 
{"free_energy": -8.55, "intermolecular_energy": -10.05, "internal_energy": -1.3, "cluster_size": 45, "cluster_id": 1, "rank_in_cluster": 44}

>  <energy>  (24) 
-9.22

>  <cluster_rmsd>  (24) 
0.73

>  <cluster>  (24) 
1

$$$$

     RDKit          3D

 61 66  0  0  1  0  0  0  0  0999 V2000
  145.9210   72.6350  218.7210 O   0  0  0  0  0  0  0  0  0  0  0  0
  144.8080   72.0280  218.9170 C   0  0  0  0  0  0  0  0  0  0  0  0
  144.8620   70.5930  218.9390 C   0  0  0  0  0  0  0  0  0  0  0  0
  145.9960   69.7850  218.9760 C   0  0  0  0  0  0  0  0  0  0  0  0
  145.6030   68.4560  218.9910 C   0  0  0  0  0  0  0  0  0  0  0  0
  146.2960   67.2590  219.0260 C   0  0  0  0  0  0  0  0  0  0  0  0
  145.6070   66.0710  219.0320 C   0  0  0  0  0  0  0  0  0  0  0  0
  144.2210   66.0890  219.0050 C   0  0  0  0  0  0  0  0  0  0  0  0
  143.5210   67.2940  218.9700 C   0  0  0  0  0  0  0  0  0  0  0  0
  144.2120   68.4750  218.9640 C   0  0  0  0  0  0  0  0  0  0  0  0
  143.7830   69.7610  218.9330 N   0  0  0  0  0  0  0  0  0  0  0  0
  143.6360   72.8050  219.0920 N   0  0  0  0  0  0  0  0  0  0  0  0
  143.1750   73.8630  218.2170 C   0  0  0  0  0  0  0  0  0  0  0  0
  142.5300   74.8110  219.2360 C   0  0  1  0  0  0  0  0  0  0  0  0
  143.5820   75.7190  219.7520 C   0  0  0  0  0  0  0  0  0  0  0  0
  143.3240   77.0290  219.0670 C   0  0  0  0  0  0  0  0  0  0  0  0
  142.0660   76.9680  218.4110 N   0  0  0  0  0  0  0  0  0  0  0  0
  141.1970   78.0820  218.5870 C   0  0  0  0  0  0  0  0  0  0  0  0
  141.7140   79.1410  219.4990 C   0  0  0  0  0  0  0  0  0  0  0  0
  141.1460   78.9560  220.8840 C   0  0  2  0  0  0  0  0  0  0  0  0
  142.1770   79.1830  221.9720 C   0  0  0  0  0  0  0  0  0  0  0  0
  141.4160   78.5810  223.1640 C   0  0  0  0  0  0  0  0  0  0  0  0
  141.0650   77.2820  222.5720 N   0  0  0  0  0  0  0  0  0  0  0  0
  140.7170   77.5460  221.1830 C   0  0  0  0  0  0  0  0  0  0  0  0
  141.4980   75.6770  218.6090 C   0  0  0  0  0  0  0  0  0  0  0  0
  141.9800   73.8980  220.2680 C   0  0  0  0  0  0  0  0  0  0  0  0
  140.9870   74.1140  221.1990 C   0  0  0  0  0  0  0  0  0  0  0  0
  140.6640   73.0800  222.0620 C   0  0  0  0  0  0  0  0  0  0  0  0
  141.3440   71.8850  221.9560 C   0  0  0  0  0  0  0  0  0  0  0  0
  142.3430   71.7000  221.0050 C   0  0  0  0  0  0  0  0  0  0  0  0
  142.6680   72.7110  220.1500 C   0  0  0  0  0  0  0  0  0  0  0  0
  147.0357   70.1438  218.9909 H   0  0  0  0  0  0  0  0  0  0  0  0
  147.3958   67.2589  219.0490 H   0  0  0  0  0  0  0  0  0  0  0  0
  146.1496   65.1145  219.0580 H   0  0  0  0  0  0  0  0  0  0  0  0
  143.6660   65.1393  219.0113 H   0  0  0  0  0  0  0  0  0  0  0  0
  142.4212   67.2954  218.9474 H   0  0  0  0  0  0  0  0  0  0  0  0
  142.7710   70.0150  218.9070 H   0  0  0  0  0  0  0  0  0  0  0  0
  144.0104   74.3443  217.6873 H   0  0  0  0  0  0  0  0  0  0  0  0
  142.5028   73.5306  217.4122 H   0  0  0  0  0  0  0  0  0  0  0  0
  143.4985   75.8288  220.8433 H   0  0  0  0  0  0  0  0  0  0  0  0
  144.5947   75.3380  219.5537 H   0  0  0  0  0  0  0  0  0  0  0  0
  143.3127   77.8386  219.8116 H   0  0  0  0  0  0  0  0  0  0  0  0
  144.1176   77.2262  218.3312 H   0  0  0  0  0  0  0  0  0  0  0  0
  141.0195   78.5364  217.6011 H   0  0  0  0  0  0  0  0  0  0  0  0
  140.2824   77.6897  219.0557 H   0  0  0  0  0  0  0  0  0  0  0  0
  142.8112   79.0779  219.5445 H   0  0  0  0  0  0  0  0  0  0  0  0
  141.4110   80.1261  219.1146 H   0  0  0  0  0  0  0  0  0  0  0  0
  140.3130   79.6744  220.8859 H   0  0  0  0  0  0  0  0  0  0  0  0
  143.1147   78.6451  221.7687 H   0  0  0  0  0  0  0  0  0  0  0  0
  142.5035   80.2255  222.1005 H   0  0  0  0  0  0  0  0  0  0  0  0
  142.0570   78.4715  224.0512 H   0  0  0  0  0  0  0  0  0  0  0  0
  140.5706   79.1769  223.5385 H   0  0  0  0  0  0  0  0  0  0  0  0
  141.9640   76.7190  222.6200 H   0  0  0  0  0  0  0  0  0  0  0  0
  141.2432   76.8424  220.5212 H   0  0  0  0  0  0  0  0  0  0  0  0
  139.6368   77.4203  221.0177 H   0  0  0  0  0  0  0  0  0  0  0  0
  140.6222   75.7522  219.2703 H   0  0  0  0  0  0  0  0  0  0  0  0
  141.1750   75.2508  217.6478 H   0  0  0  0  0  0  0  0  0  0  0  0
  140.4654   75.0809  221.2551 H   0  0  0  0  0  0  0  0  0  0  0  0
  139.8775   73.2099  222.8200 H   0  0  0  0  0  0  0  0  0  0  0  0
  141.0912   71.0599  222.6381 H   0  0  0  0  0  0  0  0  0  0  0  0
  142.8710   70.7370  220.9431 H   0  0  0  0  0  0  0  0  0  0  0  0
  1  2  2  0
  2  3  1  0
  3  4  2  0
  4  5  1  0
  5  6  2  0
  6  7  1  0
  7  8  2  0
  8  9  1  0
  9 10  2  0
 10 11  1  0
  2 12  1  0
 12 13  1  0
 14 13  1  6
 14 15  1  0
 15 16  1  0
 16 17  1  0
 17 18  1  0
 18 19  1  0
 19 20  1  0
 20 21  1  0
 21 22  1  0
 22 23  1  0
 23 24  1  0
 17 25  1  0
 14 26  1  0
 26 27  2  0
 27 28  1  0
 28 29  2  0
 29 30  1  0
 30 31  2  0
 11  3  1  0
 31 12  1  0
 10  5  1  0
 25 14  1  0
 31 26  1  0
 24 20  1  0
  4 32  1  0
  6 33  1  0
  7 34  1  0
  8 35  1  0
  9 36  1  0
 11 37  1  0
 13 38  1  0
 13 39  1  0
 15 40  1  0
 15 41  1  0
 16 42  1  0
 16 43  1  0
 18 44  1  0
 18 45  1  0
 19 46  1  0
 19 47  1  0
 20 48  1  1
 21 49  1  0
 21 50  1  0
 22 51  1  0
 22 52  1  0
 23 53  1  0
 24 54  1  0
 24 55  1  0
 25 56  1  0
 25 57  1  0
 27 58  1  0
 28 59  1  0
 29 60  1  0
 30 61  1  0
M  END
>  <smiles>  (25) 
O=C(c1cc2ccccc2[nH]1)N1C[C@]2(CCN(CCC3CCNC3)C2)c2ccccc21

>  <score_type>  (25) 
oracle

>  <origin>  (25) 
autodockgpu

>  <m_score__min__energy>  (25) 
-9.6400000000000006

>  <m_primary>  (25) 
energy

>  <rmsd>  (25) 
7.050092394104633

>  <m_score__min__rmsd>  (25) 
7.050092394104633

>  <meeko>  (25) 
{"free_energy": -7.84, "intermolecular_energy": -9.33, "internal_energy": -1.75, "cluster_size": 1, "cluster_id": 6, "rank_in_cluster": 1}

>  <energy>  (25) 
-9.21

>  <cluster_rmsd>  (25) 
1.11

>  <cluster>  (25) 
1

$$$$

     RDKit          3D

 61 66  0  0  1  0  0  0  0  0999 V2000
  137.0270   78.8560  222.3770 O   0  0  0  0  0  0  0  0  0  0  0  0
  137.9700   79.6340  222.7680 C   0  0  0  0  0  0  0  0  0  0  0  0
  137.5930   80.6800  223.6780 C   0  0  0  0  0  0  0  0  0  0  0  0
  137.6450   80.6570  225.0700 C   0  0  0  0  0  0  0  0  0  0  0  0
  137.1950   81.8720  225.5590 C   0  0  0  0  0  0  0  0  0  0  0  0
  137.0380   82.3860  226.8340 C   0  0  0  0  0  0  0  0  0  0  0  0
  136.5540   83.6610  227.0020 C   0  0  0  0  0  0  0  0  0  0  0  0
  136.2310   84.4170  225.8870 C   0  0  0  0  0  0  0  0  0  0  0  0
  136.3890   83.9020  224.6010 C   0  0  0  0  0  0  0  0  0  0  0  0
  136.8700   82.6310  224.4390 C   0  0  0  0  0  0  0  0  0  0  0  0
  137.1140   81.9040  223.3200 N   0  0  0  0  0  0  0  0  0  0  0  0
  139.2810   79.4070  222.2810 N   0  0  0  0  0  0  0  0  0  0  0  0
  139.6390   78.5840  221.1450 C   0  0  0  0  0  0  0  0  0  0  0  0
  140.9900   78.0300  221.6120 C   0  0  1  0  0  0  0  0  0  0  0  0
  140.7360   76.7990  222.4000 C   0  0  0  0  0  0  0  0  0  0  0  0
  141.1160   75.6740  221.4820 C   0  0  0  0  0  0  0  0  0  0  0  0
  141.7900   76.2070  220.3510 N   0  0  0  0  0  0  0  0  0  0  0  0
  142.9870   75.5490  219.9510 C   0  0  0  0  0  0  0  0  0  0  0  0
  142.8350   74.0970  219.6540 C   0  0  0  0  0  0  0  0  0  0  0  0
  144.0940   73.3560  220.0270 C   0  0  2  0  0  0  0  0  0  0  0  0
  145.0530   74.2070  220.8370 C   0  0  0  0  0  0  0  0  0  0  0  0
  146.3120   73.3310  220.7300 C   0  0  0  0  0  0  0  0  0  0  0  0
  146.3410   73.1570  219.2720 N   0  0  0  0  0  0  0  0  0  0  0  0
  144.9560   72.9880  218.8520 C   0  0  0  0  0  0  0  0  0  0  0  0
  141.8480   77.6250  220.4680 C   0  0  0  0  0  0  0  0  0  0  0  0
  141.5670   79.1350  222.4150 C   0  0  0  0  0  0  0  0  0  0  0  0
  142.8790   79.3850  222.7600 C   0  0  0  0  0  0  0  0  0  0  0  0
  143.1500   80.5010  223.5330 C   0  0  0  0  0  0  0  0  0  0  0  0
  142.1050   81.3120  223.9230 C   0  0  0  0  0  0  0  0  0  0  0  0
  140.7920   81.0310  223.5580 C   0  0  0  0  0  0  0  0  0  0  0  0
  140.5140   79.9350  222.7970 C   0  0  0  0  0  0  0  0  0  0  0  0
  137.9883   79.8100  225.6822 H   0  0  0  0  0  0  0  0  0  0  0  0
  137.2999   81.7756  227.7108 H   0  0  0  0  0  0  0  0  0  0  0  0
  136.4243   84.0773  228.0119 H   0  0  0  0  0  0  0  0  0  0  0  0
  135.8443   85.4384  226.0181 H   0  0  0  0  0  0  0  0  0  0  0  0
  136.1291   84.5124  223.7236 H   0  0  0  0  0  0  0  0  0  0  0  0
  136.9410   82.2750  222.3600 H   0  0  0  0  0  0  0  0  0  0  0  0
  138.9064   77.7803  220.9795 H   0  0  0  0  0  0  0  0  0  0  0  0
  139.6718   79.1195  220.1847 H   0  0  0  0  0  0  0  0  0  0  0  0
  141.3563   76.7849  223.3083 H   0  0  0  0  0  0  0  0  0  0  0  0
  139.6908   76.7277  222.7353 H   0  0  0  0  0  0  0  0  0  0  0  0
  141.7800   74.9746  222.0111 H   0  0  0  0  0  0  0  0  0  0  0  0
  140.2119   75.1381  221.1572 H   0  0  0  0  0  0  0  0  0  0  0  0
  143.3635   76.0457  219.0446 H   0  0  0  0  0  0  0  0  0  0  0  0
  143.6776   75.6189  220.8043 H   0  0  0  0  0  0  0  0  0  0  0  0
  141.9909   73.6939  220.2328 H   0  0  0  0  0  0  0  0  0  0  0  0
  142.6473   73.9679  218.5778 H   0  0  0  0  0  0  0  0  0  0  0  0
  143.6930   72.4826  220.5622 H   0  0  0  0  0  0  0  0  0  0  0  0
  145.2029   75.1995  220.3870 H   0  0  0  0  0  0  0  0  0  0  0  0
  144.7264   74.4383  221.8616 H   0  0  0  0  0  0  0  0  0  0  0  0
  147.2084   73.8484  221.1024 H   0  0  0  0  0  0  0  0  0  0  0  0
  146.2960   72.4022  221.3191 H   0  0  0  0  0  0  0  0  0  0  0  0
  146.7210   74.0770  218.9040 H   0  0  0  0  0  0  0  0  0  0  0  0
  144.7360   73.6484  218.0002 H   0  0  0  0  0  0  0  0  0  0  0  0
  144.7653   71.9525  218.5335 H   0  0  0  0  0  0  0  0  0  0  0  0
  142.8856   77.9419  220.6498 H   0  0  0  0  0  0  0  0  0  0  0  0
  141.4942   78.0985  219.5403 H   0  0  0  0  0  0  0  0  0  0  0  0
  143.6875   78.7161  222.4300 H   0  0  0  0  0  0  0  0  0  0  0  0
  144.1821   80.7371  223.8313 H   0  0  0  0  0  0  0  0  0  0  0  0
  142.3141   82.2009  224.5363 H   0  0  0  0  0  0  0  0  0  0  0  0
  139.9773   81.6943  223.8841 H   0  0  0  0  0  0  0  0  0  0  0  0
  1  2  2  0
  2  3  1  0
  3  4  2  0
  4  5  1  0
  5  6  2  0
  6  7  1  0
  7  8  2  0
  8  9  1  0
  9 10  2  0
 10 11  1  0
  2 12  1  0
 12 13  1  0
 14 13  1  6
 14 15  1  0
 15 16  1  0
 16 17  1  0
 17 18  1  0
 18 19  1  0
 19 20  1  0
 20 21  1  0
 21 22  1  0
 22 23  1  0
 23 24  1  0
 17 25  1  0
 14 26  1  0
 26 27  2  0
 27 28  1  0
 28 29  2  0
 29 30  1  0
 30 31  2  0
 11  3  1  0
 31 12  1  0
 10  5  1  0
 25 14  1  0
 31 26  1  0
 24 20  1  0
  4 32  1  0
  6 33  1  0
  7 34  1  0
  8 35  1  0
  9 36  1  0
 11 37  1  0
 13 38  1  0
 13 39  1  0
 15 40  1  0
 15 41  1  0
 16 42  1  0
 16 43  1  0
 18 44  1  0
 18 45  1  0
 19 46  1  0
 19 47  1  0
 20 48  1  1
 21 49  1  0
 21 50  1  0
 22 51  1  0
 22 52  1  0
 23 53  1  0
 24 54  1  0
 24 55  1  0
 25 56  1  0
 25 57  1  0
 27 58  1  0
 28 59  1  0
 29 60  1  0
 30 61  1  0
M  END
>  <smiles>  (26) 
O=C(c1cc2ccccc2[nH]1)N1C[C@]2(CCN(CCC3CCNC3)C2)c2ccccc21

>  <score_type>  (26) 
oracle

>  <origin>  (26) 
autodockgpu

>  <m_score__min__energy>  (26) 
-9.6400000000000006

>  <m_primary>  (26) 
energy

>  <rmsd>  (26) 
10.053477019520715

>  <m_score__min__rmsd>  (26) 
10.053477019520715

>  <meeko>  (26) 
{"free_energy": -9.61, "intermolecular_energy": -11.11, "internal_energy": -1.25, "cluster_size": 45, "cluster_id": 1, "rank_in_cluster": 5}

>  <energy>  (26) 
-9.19

>  <cluster_rmsd>  (26) 
0.95

>  <cluster>  (26) 
1

$$$$

     RDKit          3D

 61 66  0  0  1  0  0  0  0  0999 V2000
  137.2680   80.7770  220.8810 O   0  0  0  0  0  0  0  0  0  0  0  0
  138.0340   80.6600  221.9030 C   0  0  0  0  0  0  0  0  0  0  0  0
  137.5600   81.2520  223.1230 C   0  0  0  0  0  0  0  0  0  0  0  0
  137.6400   80.7280  224.4110 C   0  0  0  0  0  0  0  0  0  0  0  0
  137.0660   81.6230  225.3000 C   0  0  0  0  0  0  0  0  0  0  0  0
  136.8760   81.6140  226.6700 C   0  0  0  0  0  0  0  0  0  0  0  0
  136.2560   82.6770  227.2800 C   0  0  0  0  0  0  0  0  0  0  0  0
  135.8300   83.7480  226.5110 C   0  0  0  0  0  0  0  0  0  0  0  0
  136.0200   83.7590  225.1300 C   0  0  0  0  0  0  0  0  0  0  0  0
  136.6380   82.6980  224.5270 C   0  0  0  0  0  0  0  0  0  0  0  0
  136.9400   82.4620  223.2260 N   0  0  0  0  0  0  0  0  0  0  0  0
  139.2640   79.9720  221.7530 N   0  0  0  0  0  0  0  0  0  0  0  0
  139.5210   78.8700  220.8490 C   0  0  0  0  0  0  0  0  0  0  0  0
  140.5240   78.0560  221.6740 C   0  0  1  0  0  0  0  0  0  0  0  0
  139.7610   77.1350  222.5510 C   0  0  0  0  0  0  0  0  0  0  0  0
  139.9050   75.7880  221.9060 C   0  0  0  0  0  0  0  0  0  0  0  0
  140.8910   75.8660  220.8870 N   0  0  0  0  0  0  0  0  0  0  0  0
  141.8620   74.8240  220.8560 C   0  0  0  0  0  0  0  0  0  0  0  0
  143.1090   75.1530  220.1080 C   0  0  0  0  0  0  0  0  0  0  0  0
  144.0530   73.9780  220.1330 C   0  0  2  0  0  0  0  0  0  0  0  0
  145.3590   74.2930  220.8370 C   0  0  0  0  0  0  0  0  0  0  0  0
  146.1870   73.0820  220.3790 C   0  0  0  0  0  0  0  0  0  0  0  0
  145.9450   73.1800  218.9330 N   0  0  0  0  0  0  0  0  0  0  0  0
  144.5490   73.5650  218.7750 C   0  0  0  0  0  0  0  0  0  0  0  0
  141.3830   77.2000  220.8140 C   0  0  0  0  0  0  0  0  0  0  0  0
  141.2860   79.0860  222.4220 C   0  0  0  0  0  0  0  0  0  0  0  0
  142.5310   79.0120  223.0080 C   0  0  0  0  0  0  0  0  0  0  0  0
  143.0160   80.1340  223.6580 C   0  0  0  0  0  0  0  0  0  0  0  0
  142.2390   81.2730  223.6920 C   0  0  0  0  0  0  0  0  0  0  0  0
  140.9850   81.3150  223.0910 C   0  0  0  0  0  0  0  0  0  0  0  0
  140.4980   80.2150  222.4480 C   0  0  0  0  0  0  0  0  0  0  0  0
  138.0870   79.7594  224.6795 H   0  0  0  0  0  0  0  0  0  0  0  0
  137.2204   80.7582  227.2691 H   0  0  0  0  0  0  0  0  0  0  0  0
  136.0991   82.6781  228.3688 H   0  0  0  0  0  0  0  0  0  0  0  0
  135.3349   84.6016  226.9971 H   0  0  0  0  0  0  0  0  0  0  0  0
  135.6757   84.6142  224.5299 H   0  0  0  0  0  0  0  0  0  0  0  0
  136.7100   83.1370  222.4640 H   0  0  0  0  0  0  0  0  0  0  0  0
  138.6067   78.2952  220.6399 H   0  0  0  0  0  0  0  0  0  0  0  0
  139.8833   79.1694  219.8545 H   0  0  0  0  0  0  0  0  0  0  0  0
  140.1845   77.1262  223.5662 H   0  0  0  0  0  0  0  0  0  0  0  0
  138.7082   77.4362  222.6550 H   0  0  0  0  0  0  0  0  0  0  0  0
  140.2122   75.0488  222.6605 H   0  0  0  0  0  0  0  0  0  0  0  0
  138.9433   75.4804  221.4696 H   0  0  0  0  0  0  0  0  0  0  0  0
  142.1386   74.5831  221.8931 H   0  0  0  0  0  0  0  0  0  0  0  0
  141.3952   73.9817  220.3243 H   0  0  0  0  0  0  0  0  0  0  0  0
  142.8550   75.3936  219.0651 H   0  0  0  0  0  0  0  0  0  0  0  0
  143.5967   76.0169  220.5832 H   0  0  0  0  0  0  0  0  0  0  0  0
  143.4421   73.2073  220.6258 H   0  0  0  0  0  0  0  0  0  0  0  0
  145.7936   75.2426  220.4915 H   0  0  0  0  0  0  0  0  0  0  0  0
  145.2853   74.4270  221.9263 H   0  0  0  0  0  0  0  0  0  0  0  0
  147.2528   73.1916  220.6283 H   0  0  0  0  0  0  0  0  0  0  0  0
  145.9196   72.1206  220.8418 H   0  0  0  0  0  0  0  0  0  0  0  0
  146.5770   73.9710  218.6130 H   0  0  0  0  0  0  0  0  0  0  0  0
  144.4659   74.4055  218.0703 H   0  0  0  0  0  0  0  0  0  0  0  0
  143.9535   72.7309  218.3754 H   0  0  0  0  0  0  0  0  0  0  0  0
  142.4222   77.2344  221.1729 H   0  0  0  0  0  0  0  0  0  0  0  0
  141.3598   77.5587  219.7744 H   0  0  0  0  0  0  0  0  0  0  0  0
  143.1235   78.0864  222.9606 H   0  0  0  0  0  0  0  0  0  0  0  0
  144.0049   80.1173  224.1395 H   0  0  0  0  0  0  0  0  0  0  0  0
  142.6193   82.1682  224.2058 H   0  0  0  0  0  0  0  0  0  0  0  0
  140.3856   82.2363  223.1344 H   0  0  0  0  0  0  0  0  0  0  0  0
  1  2  2  0
  2  3  1  0
  3  4  2  0
  4  5  1  0
  5  6  2  0
  6  7  1  0
  7  8  2  0
  8  9  1  0
  9 10  2  0
 10 11  1  0
  2 12  1  0
 12 13  1  0
 14 13  1  6
 14 15  1  0
 15 16  1  0
 16 17  1  0
 17 18  1  0
 18 19  1  0
 19 20  1  0
 20 21  1  0
 21 22  1  0
 22 23  1  0
 23 24  1  0
 17 25  1  0
 14 26  1  0
 26 27  2  0
 27 28  1  0
 28 29  2  0
 29 30  1  0
 30 31  2  0
 11  3  1  0
 31 12  1  0
 10  5  1  0
 25 14  1  0
 31 26  1  0
 24 20  1  0
  4 32  1  0
  6 33  1  0
  7 34  1  0
  8 35  1  0
  9 36  1  0
 11 37  1  0
 13 38  1  0
 13 39  1  0
 15 40  1  0
 15 41  1  0
 16 42  1  0
 16 43  1  0
 18 44  1  0
 18 45  1  0
 19 46  1  0
 19 47  1  0
 20 48  1  1
 21 49  1  0
 21 50  1  0
 22 51  1  0
 22 52  1  0
 23 53  1  0
 24 54  1  0
 24 55  1  0
 25 56  1  0
 25 57  1  0
 27 58  1  0
 28 59  1  0
 29 60  1  0
 30 61  1  0
M  END
>  <smiles>  (27) 
O=C(c1cc2ccccc2[nH]1)N1C[C@]2(CCN(CCC3CCNC3)C2)c2ccccc21

>  <score_type>  (27) 
oracle

>  <origin>  (27) 
autodockgpu

>  <m_score__min__energy>  (27) 
-9.6400000000000006

>  <m_primary>  (27) 
energy

>  <rmsd>  (27) 
9.940414825438246

>  <m_score__min__rmsd>  (27) 
9.940414825438246

>  <meeko>  (27) 
{"free_energy": -9.08, "intermolecular_energy": -10.57, "internal_energy": -1.34, "cluster_size": 45, "cluster_id": 1, "rank_in_cluster": 33}

>  <energy>  (27) 
-9.19

>  <cluster_rmsd>  (27) 
0.7

>  <cluster>  (27) 
1

$$$$

     RDKit          3D

 61 66  0  0  1  0  0  0  0  0999 V2000
  137.3430   80.4640  220.7240 O   0  0  0  0  0  0  0  0  0  0  0  0
  138.1010   80.3380  221.7520 C   0  0  0  0  0  0  0  0  0  0  0  0
  137.5020   80.6380  223.0230 C   0  0  0  0  0  0  0  0  0  0  0  0
  136.2900   80.1700  223.5240 C   0  0  0  0  0  0  0  0  0  0  0  0
  136.0890   80.6990  224.7880 C   0  0  0  0  0  0  0  0  0  0  0  0
  135.0760   80.5740  225.7230 C   0  0  0  0  0  0  0  0  0  0  0  0
  135.1650   81.2420  226.9200 C   0  0  0  0  0  0  0  0  0  0  0  0
  136.2730   82.0350  227.1750 C   0  0  0  0  0  0  0  0  0  0  0  0
  137.2950   82.1630  226.2340 C   0  0  0  0  0  0  0  0  0  0  0  0
  137.2010   81.4950  225.0440 C   0  0  0  0  0  0  0  0  0  0  0  0
  138.0390   81.4490  223.9780 N   0  0  0  0  0  0  0  0  0  0  0  0
  139.4420   79.9240  221.5570 N   0  0  0  0  0  0  0  0  0  0  0  0
  139.9230   79.0500  220.5070 C   0  0  0  0  0  0  0  0  0  0  0  0
  141.0470   78.3140  221.2450 C   0  0  1  0  0  0  0  0  0  0  0  0
  140.4570   77.1380  221.9290 C   0  0  0  0  0  0  0  0  0  0  0  0
  140.8680   75.9640  221.0910 C   0  0  0  0  0  0  0  0  0  0  0  0
  141.8410   76.3870  220.1470 N   0  0  0  0  0  0  0  0  0  0  0  0
  142.9940   75.5630  220.0020 C   0  0  0  0  0  0  0  0  0  0  0  0
  142.9810   74.3180  220.8210 C   0  0  0  0  0  0  0  0  0  0  0  0
  143.9890   73.3340  220.2850 C   0  0  2  0  0  0  0  0  0  0  0  0
  145.2600   73.2920  221.1100 C   0  0  0  0  0  0  0  0  0  0  0  0
  146.1640   72.5210  220.1350 C   0  0  0  0  0  0  0  0  0  0  0  0
  145.9470   73.3390  218.9340 N   0  0  0  0  0  0  0  0  0  0  0  0
  144.5350   73.6970  218.9320 C   0  0  0  0  0  0  0  0  0  0  0  0
  142.0690   77.7830  220.3060 C   0  0  0  0  0  0  0  0  0  0  0  0
  141.5830   79.3330  222.1800 C   0  0  0  0  0  0  0  0  0  0  0  0
  142.8090   79.3980  222.8080 C   0  0  0  0  0  0  0  0  0  0  0  0
  143.0570   80.4700  223.6480 C   0  0  0  0  0  0  0  0  0  0  0  0
  142.0760   81.4240  223.8200 C   0  0  0  0  0  0  0  0  0  0  0  0
  140.8480   81.3290  223.1710 C   0  0  0  0  0  0  0  0  0  0  0  0
  140.5940   80.2770  222.3420 C   0  0  0  0  0  0  0  0  0  0  0  0
  135.6027   79.4895  223.0000 H   0  0  0  0  0  0  0  0  0  0  0  0
  134.2021   79.9415  225.5081 H   0  0  0  0  0  0  0  0  0  0  0  0
  134.3648   81.1485  227.6689 H   0  0  0  0  0  0  0  0  0  0  0  0
  136.3475   82.5709  228.1328 H   0  0  0  0  0  0  0  0  0  0  0  0
  138.1691   82.7958  226.4472 H   0  0  0  0  0  0  0  0  0  0  0  0
  138.9400   81.9740  223.9480 H   0  0  0  0  0  0  0  0  0  0  0  0
  139.1400   78.3568  220.1658 H   0  0  0  0  0  0  0  0  0  0  0  0
  140.2408   79.5684  219.5903 H   0  0  0  0  0  0  0  0  0  0  0  0
  140.8544   77.0436  222.9504 H   0  0  0  0  0  0  0  0  0  0  0  0
  139.3642   77.2179  222.0258 H   0  0  0  0  0  0  0  0  0  0  0  0
  141.2956   75.1823  221.7360 H   0  0  0  0  0  0  0  0  0  0  0  0
  139.9914   75.5585  220.5645 H   0  0  0  0  0  0  0  0  0  0  0  0
  143.0777   75.2752  218.9436 H   0  0  0  0  0  0  0  0  0  0  0  0
  143.8467   76.1590  220.3592 H   0  0  0  0  0  0  0  0  0  0  0  0
  143.2327   74.5654  221.8628 H   0  0  0  0  0  0  0  0  0  0  0  0
  141.9786   73.8674  220.7746 H   0  0  0  0  0  0  0  0  0  0  0  0
  143.4129   72.3970  220.2850 H   0  0  0  0  0  0  0  0  0  0  0  0
  145.6472   74.2999  221.3201 H   0  0  0  0  0  0  0  0  0  0  0  0
  145.1570   72.8443  222.1095 H   0  0  0  0  0  0  0  0  0  0  0  0
  147.2165   72.5268  220.4546 H   0  0  0  0  0  0  0  0  0  0  0  0
  145.9413   71.4492  220.0267 H   0  0  0  0  0  0  0  0  0  0  0  0
  146.5400   74.2050  219.0940 H   0  0  0  0  0  0  0  0  0  0  0  0
  144.4190   74.7764  218.7547 H   0  0  0  0  0  0  0  0  0  0  0  0
  143.9956   73.1647  218.1347 H   0  0  0  0  0  0  0  0  0  0  0  0
  143.0756   77.9520  220.7161 H   0  0  0  0  0  0  0  0  0  0  0  0
  141.9959   78.2940  219.3346 H   0  0  0  0  0  0  0  0  0  0  0  0
  143.5690   78.6194  222.6459 H   0  0  0  0  0  0  0  0  0  0  0  0
  144.0211   80.5595  224.1700 H   0  0  0  0  0  0  0  0  0  0  0  0
  142.2681   82.2790  224.4848 H   0  0  0  0  0  0  0  0  0  0  0  0
  140.0823   82.1032  223.3272 H   0  0  0  0  0  0  0  0  0  0  0  0
  1  2  2  0
  2  3  1  0
  3  4  2  0
  4  5  1  0
  5  6  2  0
  6  7  1  0
  7  8  2  0
  8  9  1  0
  9 10  2  0
 10 11  1  0
  2 12  1  0
 12 13  1  0
 14 13  1  6
 14 15  1  0
 15 16  1  0
 16 17  1  0
 17 18  1  0
 18 19  1  0
 19 20  1  0
 20 21  1  0
 21 22  1  0
 22 23  1  0
 23 24  1  0
 17 25  1  0
 14 26  1  0
 26 27  2  0
 27 28  1  0
 28 29  2  0
 29 30  1  0
 30 31  2  0
 11  3  1  0
 31 12  1  0
 10  5  1  0
 25 14  1  0
 31 26  1  0
 24 20  1  0
  4 32  1  0
  6 33  1  0
  7 34  1  0
  8 35  1  0
  9 36  1  0
 11 37  1  0
 13 38  1  0
 13 39  1  0
 15 40  1  0
 15 41  1  0
 16 42  1  0
 16 43  1  0
 18 44  1  0
 18 45  1  0
 19 46  1  0
 19 47  1  0
 20 48  1  6
 21 49  1  0
 21 50  1  0
 22 51  1  0
 22 52  1  0
 23 53  1  0
 24 54  1  0
 24 55  1  0
 25 56  1  0
 25 57  1  0
 27 58  1  0
 28 59  1  0
 29 60  1  0
 30 61  1  0
M  END
>  <smiles>  (28) 
O=C(c1cc2ccccc2[nH]1)N1C[C@]2(CCN(CCC3CCNC3)C2)c2ccccc21

>  <score_type>  (28) 
oracle

>  <origin>  (28) 
autodockgpu

>  <m_score__min__energy>  (28) 
-9.6400000000000006

>  <m_primary>  (28) 
energy

>  <rmsd>  (28) 
9.387351445281766

>  <m_score__min__rmsd>  (28) 
9.387351445281766

>  <meeko>  (28) 
{"free_energy": -8.76, "intermolecular_energy": -10.25, "internal_energy": -1.14, "cluster_size": 45, "cluster_id": 1, "rank_in_cluster": 42}

>  <energy>  (28) 
-9.16

>  <cluster_rmsd>  (28) 
1.11

>  <cluster>  (28) 
1

$$$$

     RDKit          3D

 61 66  0  0  1  0  0  0  0  0999 V2000
  137.1670   78.6180  222.8850 O   0  0  0  0  0  0  0  0  0  0  0  0
  138.0500   79.5270  223.0820 C   0  0  0  0  0  0  0  0  0  0  0  0
  137.6410   80.6440  223.8880 C   0  0  0  0  0  0  0  0  0  0  0  0
  137.6530   80.7400  225.2780 C   0  0  0  0  0  0  0  0  0  0  0  0
  137.1830   81.9890  225.6480 C   0  0  0  0  0  0  0  0  0  0  0  0
  136.9860   82.6090  226.8700 C   0  0  0  0  0  0  0  0  0  0  0  0
  136.4920   83.8900  226.9140 C   0  0  0  0  0  0  0  0  0  0  0  0
  136.1980   84.5460  225.7300 C   0  0  0  0  0  0  0  0  0  0  0  0
  136.3960   83.9240  224.4970 C   0  0  0  0  0  0  0  0  0  0  0  0
  136.8880   82.6480  224.4590 C   0  0  0  0  0  0  0  0  0  0  0  0
  137.1680   81.8300  223.4130 N   0  0  0  0  0  0  0  0  0  0  0  0
  139.3310   79.3640  222.5010 N   0  0  0  0  0  0  0  0  0  0  0  0
  139.6380   78.5990  221.3100 C   0  0  0  0  0  0  0  0  0  0  0  0
  141.0340   78.0720  221.6630 C   0  0  1  0  0  0  0  0  0  0  0  0
  140.8720   76.8040  222.4150 C   0  0  0  0  0  0  0  0  0  0  0  0
  141.2240   75.7290  221.4290 C   0  0  0  0  0  0  0  0  0  0  0  0
  141.8030   76.3280  220.2790 N   0  0  0  0  0  0  0  0  0  0  0  0
  142.9900   75.7270  219.7730 C   0  0  0  0  0  0  0  0  0  0  0  0
  142.8510   74.2960  219.3830 C   0  0  0  0  0  0  0  0  0  0  0  0
  144.0400   73.5070  219.8690 C   0  0  2  0  0  0  0  0  0  0  0  0
  144.9540   74.3220  220.7640 C   0  0  0  0  0  0  0  0  0  0  0  0
  146.1820   73.3970  220.7720 C   0  0  0  0  0  0  0  0  0  0  0  0
  146.3370   73.2180  219.3220 N   0  0  0  0  0  0  0  0  0  0  0  0
  144.9910   73.1020  218.7770 C   0  0  0  0  0  0  0  0  0  0  0  0
  141.8240   77.7410  220.4490 C   0  0  0  0  0  0  0  0  0  0  0  0
  141.6290   79.1640  222.4710 C   0  0  0  0  0  0  0  0  0  0  0  0
  142.9520   79.4450  222.7380 C   0  0  0  0  0  0  0  0  0  0  0  0
  143.2400   80.5380  223.5370 C   0  0  0  0  0  0  0  0  0  0  0  0
  142.2000   81.2980  224.0290 C   0  0  0  0  0  0  0  0  0  0  0  0
  140.8740   80.9870  223.7410 C   0  0  0  0  0  0  0  0  0  0  0  0
  140.5800   79.9130  222.9550 C   0  0  0  0  0  0  0  0  0  0  0  0
  137.9826   79.9509  225.9699 H   0  0  0  0  0  0  0  0  0  0  0  0
  137.2243   82.0774  227.8030 H   0  0  0  0  0  0  0  0  0  0  0  0
  136.3314   84.3902  227.8805 H   0  0  0  0  0  0  0  0  0  0  0  0
  135.8028   85.5720  225.7624 H   0  0  0  0  0  0  0  0  0  0  0  0
  136.1586   84.4550  223.5634 H   0  0  0  0  0  0  0  0  0  0  0  0
  137.0220   82.1170  222.4200 H   0  0  0  0  0  0  0  0  0  0  0  0
  138.9211   77.7784  221.1593 H   0  0  0  0  0  0  0  0  0  0  0  0
  139.5902   79.1736  220.3732 H   0  0  0  0  0  0  0  0  0  0  0  0
  141.5522   76.7758  223.2790 H   0  0  0  0  0  0  0  0  0  0  0  0
  139.8545   76.6846  222.8154 H   0  0  0  0  0  0  0  0  0  0  0  0
  141.9437   75.0326  221.8840 H   0  0  0  0  0  0  0  0  0  0  0  0
  140.3174   75.1755  221.1432 H   0  0  0  0  0  0  0  0  0  0  0  0
  143.3085   76.2937  218.8856 H   0  0  0  0  0  0  0  0  0  0  0  0
  143.7231   75.7537  220.5927 H   0  0  0  0  0  0  0  0  0  0  0  0
  141.9342   73.8847  219.8306 H   0  0  0  0  0  0  0  0  0  0  0  0
  142.7972   74.2260  218.2865 H   0  0  0  0  0  0  0  0  0  0  0  0
  143.5576   72.6517  220.3647 H   0  0  0  0  0  0  0  0  0  0  0  0
  145.1834   75.3065  220.3303 H   0  0  0  0  0  0  0  0  0  0  0  0
  144.5445   74.5688  221.7547 H   0  0  0  0  0  0  0  0  0  0  0  0
  147.0604   73.8798  221.2252 H   0  0  0  0  0  0  0  0  0  0  0  0
  146.0760   72.4712  221.3566 H   0  0  0  0  0  0  0  0  0  0  0  0
  146.7850   74.1220  218.9910 H   0  0  0  0  0  0  0  0  0  0  0  0
  144.8758   73.7680  217.9091 H   0  0  0  0  0  0  0  0  0  0  0  0
  144.7898   72.0739  218.4416 H   0  0  0  0  0  0  0  0  0  0  0  0
  142.8610   78.0861  220.5735 H   0  0  0  0  0  0  0  0  0  0  0  0
  141.3930   78.2372  219.5670 H   0  0  0  0  0  0  0  0  0  0  0  0
  143.7568   78.8177  222.3273 H   0  0  0  0  0  0  0  0  0  0  0  0
  144.2823   80.7963  223.7757 H   0  0  0  0  0  0  0  0  0  0  0  0
  142.4229   82.1689  224.6628 H   0  0  0  0  0  0  0  0  0  0  0  0
  140.0628   81.6085  224.1481 H   0  0  0  0  0  0  0  0  0  0  0  0
  1  2  2  0
  2  3  1  0
  3  4  2  0
  4  5  1  0
  5  6  2  0
  6  7  1  0
  7  8  2  0
  8  9  1  0
  9 10  2  0
 10 11  1  0
  2 12  1  0
 12 13  1  0
 14 13  1  6
 14 15  1  0
 15 16  1  0
 16 17  1  0
 17 18  1  0
 18 19  1  0
 19 20  1  0
 20 21  1  0
 21 22  1  0
 22 23  1  0
 23 24  1  0
 17 25  1  0
 14 26  1  0
 26 27  2  0
 27 28  1  0
 28 29  2  0
 29 30  1  0
 30 31  2  0
 11  3  1  0
 31 12  1  0
 10  5  1  0
 25 14  1  0
 31 26  1  0
 24 20  1  0
  4 32  1  0
  6 33  1  0
  7 34  1  0
  8 35  1  0
  9 36  1  0
 11 37  1  0
 13 38  1  0
 13 39  1  0
 15 40  1  0
 15 41  1  0
 16 42  1  0
 16 43  1  0
 18 44  1  0
 18 45  1  0
 19 46  1  0
 19 47  1  0
 20 48  1  1
 21 49  1  0
 21 50  1  0
 22 51  1  0
 22 52  1  0
 23 53  1  0
 24 54  1  0
 24 55  1  0
 25 56  1  0
 25 57  1  0
 27 58  1  0
 28 59  1  0
 29 60  1  0
 30 61  1  0
M  END
>  <smiles>  (29) 
O=C(c1cc2ccccc2[nH]1)N1C[C@]2(CCN(CCC3CCNC3)C2)c2ccccc21

>  <score_type>  (29) 
oracle

>  <origin>  (29) 
autodockgpu

>  <m_score__min__energy>  (29) 
-9.6400000000000006

>  <m_primary>  (29) 
energy

>  <rmsd>  (29) 
10.13440918452129

>  <m_score__min__rmsd>  (29) 
10.13440918452129

>  <meeko>  (29) 
{"free_energy": -9.63, "intermolecular_energy": -11.12, "internal_energy": -1.25, "cluster_size": 45, "cluster_id": 1, "rank_in_cluster": 3}

>  <energy>  (29) 
-9.15

>  <cluster_rmsd>  (29) 
0.95

>  <cluster>  (29) 
1

$$$$

     RDKit          3D

 61 66  0  0  1  0  0  0  0  0999 V2000
  137.1770   78.6270  222.9490 O   0  0  0  0  0  0  0  0  0  0  0  0
  138.0540   79.5510  223.1030 C   0  0  0  0  0  0  0  0  0  0  0  0
  137.6420   80.6950  223.8680 C   0  0  0  0  0  0  0  0  0  0  0  0
  137.1910   81.9220  223.3880 C   0  0  0  0  0  0  0  0  0  0  0  0
  136.8940   82.7460  224.4610 C   0  0  0  0  0  0  0  0  0  0  0  0
  136.4210   84.0420  224.5640 C   0  0  0  0  0  0  0  0  0  0  0  0
  136.2210   84.6000  225.8040 C   0  0  0  0  0  0  0  0  0  0  0  0
  136.4980   83.8530  226.9380 C   0  0  0  0  0  0  0  0  0  0  0  0
  136.9750   82.5460  226.8370 C   0  0  0  0  0  0  0  0  0  0  0  0
  137.1710   81.9950  225.5990 C   0  0  0  0  0  0  0  0  0  0  0  0
  137.6190   80.7690  225.2290 N   0  0  0  0  0  0  0  0  0  0  0  0
  139.3320   79.3750  222.5170 N   0  0  0  0  0  0  0  0  0  0  0  0
  139.6270   78.6080  221.3250 C   0  0  0  0  0  0  0  0  0  0  0  0
  141.0190   78.0680  221.6740 C   0  0  1  0  0  0  0  0  0  0  0  0
  140.8470   76.8010  222.4260 C   0  0  0  0  0  0  0  0  0  0  0  0
  141.1860   75.7240  221.4380 C   0  0  0  0  0  0  0  0  0  0  0  0
  141.7670   76.3180  220.2860 N   0  0  0  0  0  0  0  0  0  0  0  0
  142.9480   75.7050  219.7770 C   0  0  0  0  0  0  0  0  0  0  0  0
  143.4000   74.4990  220.5250 C   0  0  0  0  0  0  0  0  0  0  0  0
  144.3660   73.7010  219.6860 C   0  0  2  0  0  0  0  0  0  0  0  0
  144.0710   72.2140  219.7120 C   0  0  0  0  0  0  0  0  0  0  0  0
  145.3820   71.6900  219.1050 C   0  0  0  0  0  0  0  0  0  0  0  0
  146.3300   72.3920  219.9810 N   0  0  0  0  0  0  0  0  0  0  0  0
  145.7800   73.7230  220.1960 C   0  0  0  0  0  0  0  0  0  0  0  0
  141.8030   77.7310  220.4580 C   0  0  0  0  0  0  0  0  0  0  0  0
  141.6280   79.1540  222.4810 C   0  0  0  0  0  0  0  0  0  0  0  0
  142.9540   79.4210  222.7440 C   0  0  0  0  0  0  0  0  0  0  0  0
  143.2550   80.5120  223.5430 C   0  0  0  0  0  0  0  0  0  0  0  0
  142.2230   81.2810  224.0390 C   0  0  0  0  0  0  0  0  0  0  0  0
  140.8940   80.9830  223.7540 C   0  0  0  0  0  0  0  0  0  0  0  0
  140.5870   79.9120  222.9680 C   0  0  0  0  0  0  0  0  0  0  0  0
  137.0873   82.1933  222.3270 H   0  0  0  0  0  0  0  0  0  0  0  0
  136.2056   84.6243  223.6559 H   0  0  0  0  0  0  0  0  0  0  0  0
  135.8447   85.6296  225.8955 H   0  0  0  0  0  0  0  0  0  0  0  0
  136.3395   84.2970  227.9318 H   0  0  0  0  0  0  0  0  0  0  0  0
  137.1918   81.9630  227.7443 H   0  0  0  0  0  0  0  0  0  0  0  0
  137.8900   80.0370  225.9210 H   0  0  0  0  0  0  0  0  0  0  0  0
  138.9018   77.7944  221.1764 H   0  0  0  0  0  0  0  0  0  0  0  0
  139.5812   79.1829  220.3883 H   0  0  0  0  0  0  0  0  0  0  0  0
  141.5294   76.7656  223.2880 H   0  0  0  0  0  0  0  0  0  0  0  0
  139.8297   76.6909  222.8296 H   0  0  0  0  0  0  0  0  0  0  0  0
  141.9007   75.0206  221.8902 H   0  0  0  0  0  0  0  0  0  0  0  0
  140.2731   75.1796  221.1546 H   0  0  0  0  0  0  0  0  0  0  0  0
  142.7577   75.4094  218.7347 H   0  0  0  0  0  0  0  0  0  0  0  0
  143.7509   76.4501  219.8782 H   0  0  0  0  0  0  0  0  0  0  0  0
  143.8982   74.8127  221.4542 H   0  0  0  0  0  0  0  0  0  0  0  0
  142.5265   73.8736  220.7614 H   0  0  0  0  0  0  0  0  0  0  0  0
  144.2520   74.1734  218.6991 H   0  0  0  0  0  0  0  0  0  0  0  0
  143.9151   71.8436  220.7360 H   0  0  0  0  0  0  0  0  0  0  0  0
  143.1543   71.9073  219.1871 H   0  0  0  0  0  0  0  0  0  0  0  0
  145.4701   70.5970  219.1919 H   0  0  0  0  0  0  0  0  0  0  0  0
  145.5107   71.8662  218.0269 H   0  0  0  0  0  0  0  0  0  0  0  0
  146.3090   71.8400  220.8880 H   0  0  0  0  0  0  0  0  0  0  0  0
  145.7912   73.9679  221.2683 H   0  0  0  0  0  0  0  0  0  0  0  0
  146.3755   74.4839  219.6702 H   0  0  0  0  0  0  0  0  0  0  0  0
  142.8438   78.0653  220.5809 H   0  0  0  0  0  0  0  0  0  0  0  0
  141.3754   78.2331  219.5776 H   0  0  0  0  0  0  0  0  0  0  0  0
  143.7513   78.7856  222.3311 H   0  0  0  0  0  0  0  0  0  0  0  0
  144.3003   80.7610  223.7781 H   0  0  0  0  0  0  0  0  0  0  0  0
  142.4556   82.1488  224.6737 H   0  0  0  0  0  0  0  0  0  0  0  0
  140.0900   81.6123  224.1634 H   0  0  0  0  0  0  0  0  0  0  0  0
  1  2  2  0
  2  3  1  0
  3  4  2  0
  4  5  1  0
  5  6  2  0
  6  7  1  0
  7  8  2  0
  8  9  1  0
  9 10  2  0
 10 11  1  0
  2 12  1  0
 12 13  1  0
 14 13  1  6
 14 15  1  0
 15 16  1  0
 16 17  1  0
 17 18  1  0
 18 19  1  0
 19 20  1  0
 20 21  1  0
 21 22  1  0
 22 23  1  0
 23 24  1  0
 17 25  1  0
 14 26  1  0
 26 27  2  0
 27 28  1  0
 28 29  2  0
 29 30  1  0
 30 31  2  0
 11  3  1  0
 31 12  1  0
 10  5  1  0
 25 14  1  0
 31 26  1  0
 24 20  1  0
  4 32  1  0
  6 33  1  0
  7 34  1  0
  8 35  1  0
  9 36  1  0
 11 37  1  0
 13 38  1  0
 13 39  1  0
 15 40  1  0
 15 41  1  0
 16 42  1  0
 16 43  1  0
 18 44  1  0
 18 45  1  0
 19 46  1  0
 19 47  1  0
 20 48  1  6
 21 49  1  0
 21 50  1  0
 22 51  1  0
 22 52  1  0
 23 53  1  0
 24 54  1  0
 24 55  1  0
 25 56  1  0
 25 57  1  0
 27 58  1  0
 28 59  1  0
 29 60  1  0
 30 61  1  0
M  END
>  <smiles>  (30) 
O=C(c1cc2ccccc2[nH]1)N1C[C@]2(CCN(CCC3CCNC3)C2)c2ccccc21

>  <score_type>  (30) 
oracle

>  <origin>  (30) 
autodockgpu

>  <m_score__min__energy>  (30) 
-9.6400000000000006

>  <m_primary>  (30) 
energy

>  <rmsd>  (30) 
10.334011634328958

>  <m_score__min__rmsd>  (30) 
10.334011634328958

>  <meeko>  (30) 
{"free_energy": -9.21, "intermolecular_energy": -10.7, "internal_energy": -1.17, "cluster_size": 45, "cluster_id": 1, "rank_in_cluster": 25}

>  <energy>  (30) 
-9.15

>  <cluster_rmsd>  (30) 
0.94

>  <cluster>  (30) 
1

$$$$

     RDKit          3D

 61 66  0  0  1  0  0  0  0  0999 V2000
  137.1190   78.6070  222.8960 O   0  0  0  0  0  0  0  0  0  0  0  0
  138.0130   79.5080  223.0850 C   0  0  0  0  0  0  0  0  0  0  0  0
  137.6130   80.6450  223.8660 C   0  0  0  0  0  0  0  0  0  0  0  0
  137.1640   81.8800  223.4040 C   0  0  0  0  0  0  0  0  0  0  0  0
  136.8790   82.6920  224.4890 C   0  0  0  0  0  0  0  0  0  0  0  0
  136.4130   83.9890  224.6100 C   0  0  0  0  0  0  0  0  0  0  0  0
  136.2250   84.5330  225.8580 C   0  0  0  0  0  0  0  0  0  0  0  0
  136.5060   83.7720  226.9810 C   0  0  0  0  0  0  0  0  0  0  0  0
  136.9760   82.4640  226.8610 C   0  0  0  0  0  0  0  0  0  0  0  0
  137.1610   81.9270  225.6160 C   0  0  0  0  0  0  0  0  0  0  0  0
  137.6000   80.7030  225.2280 N   0  0  0  0  0  0  0  0  0  0  0  0
  139.2970   79.3160  222.5170 N   0  0  0  0  0  0  0  0  0  0  0  0
  139.6060   78.5070  221.3570 C   0  0  0  0  0  0  0  0  0  0  0  0
  140.9970   77.9860  221.7380 C   0  0  1  0  0  0  0  0  0  0  0  0
  140.8230   76.7470  222.5350 C   0  0  0  0  0  0  0  0  0  0  0  0
  141.1750   75.6350  221.5910 C   0  0  0  0  0  0  0  0  0  0  0  0
  141.7650   76.1890  220.4230 N   0  0  0  0  0  0  0  0  0  0  0  0
  142.9520   75.5630  219.9470 C   0  0  0  0  0  0  0  0  0  0  0  0
  142.8120   74.1150  219.6280 C   0  0  0  0  0  0  0  0  0  0  0  0
  144.0680   73.3750  220.0150 C   0  0  2  0  0  0  0  0  0  0  0  0
  145.0200   74.2280  220.8300 C   0  0  0  0  0  0  0  0  0  0  0  0
  146.2790   73.3510  220.7370 C   0  0  0  0  0  0  0  0  0  0  0  0
  146.3210   73.1730  219.2790 N   0  0  0  0  0  0  0  0  0  0  0  0
  144.9400   73.0030  218.8480 C   0  0  0  0  0  0  0  0  0  0  0  0
  141.7930   77.6070  220.5420 C   0  0  0  0  0  0  0  0  0  0  0  0
  141.5940   79.1040  222.5100 C   0  0  0  0  0  0  0  0  0  0  0  0
  142.9170   79.3860  222.7750 C   0  0  0  0  0  0  0  0  0  0  0  0
  143.2060   80.5070  223.5350 C   0  0  0  0  0  0  0  0  0  0  0  0
  142.1660   81.2900  223.9930 C   0  0  0  0  0  0  0  0  0  0  0  0
  140.8410   80.9760  223.7070 C   0  0  0  0  0  0  0  0  0  0  0  0
  140.5460   79.8750  222.9590 C   0  0  0  0  0  0  0  0  0  0  0  0
  137.0536   82.1646  222.3472 H   0  0  0  0  0  0  0  0  0  0  0  0
  136.1937   84.5828  223.7104 H   0  0  0  0  0  0  0  0  0  0  0  0
  135.8548   85.5634  225.9642 H   0  0  0  0  0  0  0  0  0  0  0  0
  136.3565   84.2051  227.9811 H   0  0  0  0  0  0  0  0  0  0  0  0
  137.1961   81.8692  227.7598 H   0  0  0  0  0  0  0  0  0  0  0  0
  137.8720   79.9610  225.9090 H   0  0  0  0  0  0  0  0  0  0  0  0
  138.8854   77.6854  221.2319 H   0  0  0  0  0  0  0  0  0  0  0  0
  139.5666   79.0470  220.3994 H   0  0  0  0  0  0  0  0  0  0  0  0
  141.4976   76.7466  223.4038 H   0  0  0  0  0  0  0  0  0  0  0  0
  139.8024   76.6479  222.9332 H   0  0  0  0  0  0  0  0  0  0  0  0
  141.8878   74.9516  222.0756 H   0  0  0  0  0  0  0  0  0  0  0  0
  140.2670   75.0765  221.3196 H   0  0  0  0  0  0  0  0  0  0  0  0
  143.2708   76.0851  219.0328 H   0  0  0  0  0  0  0  0  0  0  0  0
  143.6852   75.6296  220.7643 H   0  0  0  0  0  0  0  0  0  0  0  0
  141.9591   73.7005  220.1855 H   0  0  0  0  0  0  0  0  0  0  0  0
  142.6446   73.9991  218.5470 H   0  0  0  0  0  0  0  0  0  0  0  0
  143.6624   72.5038  220.5503 H   0  0  0  0  0  0  0  0  0  0  0  0
  145.1745   75.2188  220.3778 H   0  0  0  0  0  0  0  0  0  0  0  0
  144.6847   74.4632  221.8509 H   0  0  0  0  0  0  0  0  0  0  0  0
  147.1724   73.8687  221.1162 H   0  0  0  0  0  0  0  0  0  0  0  0
  146.2571   72.4239  221.3285 H   0  0  0  0  0  0  0  0  0  0  0  0
  146.7050   74.0920  218.9120 H   0  0  0  0  0  0  0  0  0  0  0  0
  144.7273   73.6607  217.9924 H   0  0  0  0  0  0  0  0  0  0  0  0
  144.7517   71.9666  218.5311 H   0  0  0  0  0  0  0  0  0  0  0  0
  142.8311   77.9507  220.6609 H   0  0  0  0  0  0  0  0  0  0  0  0
  141.3706   78.0734  219.6398 H   0  0  0  0  0  0  0  0  0  0  0  0
  143.7206   78.7389  222.3935 H   0  0  0  0  0  0  0  0  0  0  0  0
  144.2481   80.7692  223.7699 H   0  0  0  0  0  0  0  0  0  0  0  0
  142.3894   82.1816  224.5972 H   0  0  0  0  0  0  0  0  0  0  0  0
  140.0307   81.6168  224.0848 H   0  0  0  0  0  0  0  0  0  0  0  0
  1  2  2  0
  2  3  1  0
  3  4  2  0
  4  5  1  0
  5  6  2  0
  6  7  1  0
  7  8  2  0
  8  9  1  0
  9 10  2  0
 10 11  1  0
  2 12  1  0
 12 13  1  0
 14 13  1  6
 14 15  1  0
 15 16  1  0
 16 17  1  0
 17 18  1  0
 18 19  1  0
 19 20  1  0
 20 21  1  0
 21 22  1  0
 22 23  1  0
 23 24  1  0
 17 25  1  0
 14 26  1  0
 26 27  2  0
 27 28  1  0
 28 29  2  0
 29 30  1  0
 30 31  2  0
 11  3  1  0
 31 12  1  0
 10  5  1  0
 25 14  1  0
 31 26  1  0
 24 20  1  0
  4 32  1  0
  6 33  1  0
  7 34  1  0
  8 35  1  0
  9 36  1  0
 11 37  1  0
 13 38  1  0
 13 39  1  0
 15 40  1  0
 15 41  1  0
 16 42  1  0
 16 43  1  0
 18 44  1  0
 18 45  1  0
 19 46  1  0
 19 47  1  0
 20 48  1  1
 21 49  1  0
 21 50  1  0
 22 51  1  0
 22 52  1  0
 23 53  1  0
 24 54  1  0
 24 55  1  0
 25 56  1  0
 25 57  1  0
 27 58  1  0
 28 59  1  0
 29 60  1  0
 30 61  1  0
M  END
>  <smiles>  (31) 
O=C(c1cc2ccccc2[nH]1)N1C[C@]2(CCN(CCC3CCNC3)C2)c2ccccc21

>  <score_type>  (31) 
oracle

>  <origin>  (31) 
autodockgpu

>  <m_score__min__energy>  (31) 
-9.6400000000000006

>  <m_primary>  (31) 
energy

>  <rmsd>  (31) 
10.286256302867212

>  <m_score__min__rmsd>  (31) 
10.286256302867212

>  <meeko>  (31) 
{"free_energy": -9.58, "intermolecular_energy": -11.07, "internal_energy": -1.24, "cluster_size": 45, "cluster_id": 1, "rank_in_cluster": 12}

>  <energy>  (31) 
-9.15

>  <cluster_rmsd>  (31) 
0.93

>  <cluster>  (31) 
1

$$$$

     RDKit          3D

 61 66  0  0  1  0  0  0  0  0999 V2000
  137.1980   79.9370  221.2210 O   0  0  0  0  0  0  0  0  0  0  0  0
  138.1140   80.2370  222.0670 C   0  0  0  0  0  0  0  0  0  0  0  0
  137.6870   80.9600  223.2340 C   0  0  0  0  0  0  0  0  0  0  0  0
  137.6490   80.5050  224.5500 C   0  0  0  0  0  0  0  0  0  0  0  0
  137.1780   81.5210  225.3660 C   0  0  0  0  0  0  0  0  0  0  0  0
  136.9430   81.6170  226.7260 C   0  0  0  0  0  0  0  0  0  0  0  0
  136.4610   82.7910  227.2530 C   0  0  0  0  0  0  0  0  0  0  0  0
  136.2180   83.8650  226.4120 C   0  0  0  0  0  0  0  0  0  0  0  0
  136.4550   83.7700  225.0410 C   0  0  0  0  0  0  0  0  0  0  0  0
  136.9350   82.5990  224.5210 C   0  0  0  0  0  0  0  0  0  0  0  0
  137.2440   82.2480  223.2470 N   0  0  0  0  0  0  0  0  0  0  0  0
  139.4460   79.8430  221.7910 N   0  0  0  0  0  0  0  0  0  0  0  0
  139.8730   78.9660  220.7210 C   0  0  0  0  0  0  0  0  0  0  0  0
  141.0560   78.2560  221.3920 C   0  0  1  0  0  0  0  0  0  0  0  0
  140.5310   77.0790  222.1260 C   0  0  0  0  0  0  0  0  0  0  0  0
  140.9080   75.9020  221.2750 C   0  0  0  0  0  0  0  0  0  0  0  0
  141.8110   76.3300  220.2660 N   0  0  0  0  0  0  0  0  0  0  0  0
  142.9660   75.5240  220.0550 C   0  0  0  0  0  0  0  0  0  0  0  0
  142.7160   74.0550  220.0740 C   0  0  0  0  0  0  0  0  0  0  0  0
  144.0140   73.3110  220.2560 C   0  0  2  0  0  0  0  0  0  0  0  0
  145.1180   74.1900  220.8100 C   0  0  0  0  0  0  0  0  0  0  0  0
  146.3250   73.2790  220.5320 C   0  0  0  0  0  0  0  0  0  0  0  0
  146.0760   73.0080  219.1090 N   0  0  0  0  0  0  0  0  0  0  0  0
  144.6350   72.8440  218.9690 C   0  0  0  0  0  0  0  0  0  0  0  0
  142.0250   77.7320  220.3950 C   0  0  0  0  0  0  0  0  0  0  0  0
  141.6330   79.2950  222.2800 C   0  0  0  0  0  0  0  0  0  0  0  0
  142.8950   79.3870  222.8280 C   0  0  0  0  0  0  0  0  0  0  0  0
  143.1780   80.4730  223.6380 C   0  0  0  0  0  0  0  0  0  0  0  0
  142.1940   81.4130  223.8630 C   0  0  0  0  0  0  0  0  0  0  0  0
  140.9290   81.2900  223.2960 C   0  0  0  0  0  0  0  0  0  0  0  0
  140.6400   80.2240  222.4960 C   0  0  0  0  0  0  0  0  0  0  0  0
  137.9452   79.5007  224.8872 H   0  0  0  0  0  0  0  0  0  0  0  0
  137.1412   80.7571  227.3827 H   0  0  0  0  0  0  0  0  0  0  0  0
  136.2698   82.8774  228.3328 H   0  0  0  0  0  0  0  0  0  0  0  0
  135.8327   84.8059  226.8317 H   0  0  0  0  0  0  0  0  0  0  0  0
  136.2577   84.6293  224.3832 H   0  0  0  0  0  0  0  0  0  0  0  0
  137.1380   82.9030  222.4420 H   0  0  0  0  0  0  0  0  0  0  0  0
  139.0816   78.2563  220.4381 H   0  0  0  0  0  0  0  0  0  0  0  0
  140.1219   79.4798  219.7807 H   0  0  0  0  0  0  0  0  0  0  0  0
  140.9947   77.0033  223.1206 H   0  0  0  0  0  0  0  0  0  0  0  0
  139.4456   77.1420  222.2929 H   0  0  0  0  0  0  0  0  0  0  0  0
  141.3895   75.1349  221.8993 H   0  0  0  0  0  0  0  0  0  0  0  0
  140.0066   75.4762  220.8101 H   0  0  0  0  0  0  0  0  0  0  0  0
  143.3914   75.7859  219.0750 H   0  0  0  0  0  0  0  0  0  0  0  0
  143.6463   75.7328  220.8938 H   0  0  0  0  0  0  0  0  0  0  0  0
  142.0378   73.8121  220.9053 H   0  0  0  0  0  0  0  0  0  0  0  0
  142.2600   73.7550  219.1190 H   0  0  0  0  0  0  0  0  0  0  0  0
  143.7111   72.4859  220.9174 H   0  0  0  0  0  0  0  0  0  0  0  0
  145.1918   75.1460  220.2710 H   0  0  0  0  0  0  0  0  0  0  0  0
  144.9926   74.4969  221.8589 H   0  0  0  0  0  0  0  0  0  0  0  0
  147.2812   73.7984  220.6931 H   0  0  0  0  0  0  0  0  0  0  0  0
  146.4108   72.3924  221.1774 H   0  0  0  0  0  0  0  0  0  0  0  0
  146.3900   73.8920  218.6130 H   0  0  0  0  0  0  0  0  0  0  0  0
  144.2653   73.4504  218.1290 H   0  0  0  0  0  0  0  0  0  0  0  0
  144.3766   71.7942  218.7659 H   0  0  0  0  0  0  0  0  0  0  0  0
  143.0527   77.9225  220.7378 H   0  0  0  0  0  0  0  0  0  0  0  0
  141.8817   78.2307  219.4251 H   0  0  0  0  0  0  0  0  0  0  0  0
  143.6559   78.6184  222.6269 H   0  0  0  0  0  0  0  0  0  0  0  0
  144.1722   80.5847  224.0952 H   0  0  0  0  0  0  0  0  0  0  0  0
  142.4140   82.2789  224.5047 H   0  0  0  0  0  0  0  0  0  0  0  0
  140.1617   82.0531  223.4933 H   0  0  0  0  0  0  0  0  0  0  0  0
  1  2  2  0
  2  3  1  0
  3  4  2  0
  4  5  1  0
  5  6  2  0
  6  7  1  0
  7  8  2  0
  8  9  1  0
  9 10  2  0
 10 11  1  0
  2 12  1  0
 12 13  1  0
 14 13  1  6
 14 15  1  0
 15 16  1  0
 16 17  1  0
 17 18  1  0
 18 19  1  0
 19 20  1  0
 20 21  1  0
 21 22  1  0
 22 23  1  0
 23 24  1  0
 17 25  1  0
 14 26  1  0
 26 27  2  0
 27 28  1  0
 28 29  2  0
 29 30  1  0
 30 31  2  0
 11  3  1  0
 31 12  1  0
 10  5  1  0
 25 14  1  0
 31 26  1  0
 24 20  1  0
  4 32  1  0
  6 33  1  0
  7 34  1  0
  8 35  1  0
  9 36  1  0
 11 37  1  0
 13 38  1  0
 13 39  1  0
 15 40  1  0
 15 41  1  0
 16 42  1  0
 16 43  1  0
 18 44  1  0
 18 45  1  0
 19 46  1  0
 19 47  1  0
 20 48  1  1
 21 49  1  0
 21 50  1  0
 22 51  1  0
 22 52  1  0
 23 53  1  0
 24 54  1  0
 24 55  1  0
 25 56  1  0
 25 57  1  0
 27 58  1  0
 28 59  1  0
 29 60  1  0
 30 61  1  0
M  END
>  <smiles>  (32) 
O=C(c1cc2ccccc2[nH]1)N1C[C@]2(CCN(CCC3CCNC3)C2)c2ccccc21

>  <score_type>  (32) 
oracle

>  <origin>  (32) 
autodockgpu

>  <m_score__min__energy>  (32) 
-9.6400000000000006

>  <m_primary>  (32) 
energy

>  <rmsd>  (32) 
9.90071068545025

>  <m_score__min__rmsd>  (32) 
9.90071068545025

>  <meeko>  (32) 
{"free_energy": -9.42, "intermolecular_energy": -10.91, "internal_energy": -1.29, "cluster_size": 45, "cluster_id": 1, "rank_in_cluster": 15}

>  <energy>  (32) 
-9.14

>  <cluster_rmsd>  (32) 
1.12

>  <cluster>  (32) 
1

$$$$

     RDKit          3D

 61 66  0  0  1  0  0  0  0  0999 V2000
  137.1730   79.7400  221.3860 O   0  0  0  0  0  0  0  0  0  0  0  0
  138.1030   80.1550  222.1650 C   0  0  0  0  0  0  0  0  0  0  0  0
  137.6820   80.9340  223.2980 C   0  0  0  0  0  0  0  0  0  0  0  0
  137.6380   80.5390  224.6320 C   0  0  0  0  0  0  0  0  0  0  0  0
  137.1760   81.5950  225.4010 C   0  0  0  0  0  0  0  0  0  0  0  0
  136.9400   81.7550  226.7550 C   0  0  0  0  0  0  0  0  0  0  0  0
  136.4680   82.9550  227.2280 C   0  0  0  0  0  0  0  0  0  0  0  0
  136.2360   83.9920  226.3400 C   0  0  0  0  0  0  0  0  0  0  0  0
  136.4730   83.8330  224.9740 C   0  0  0  0  0  0  0  0  0  0  0  0
  136.9430   82.6360  224.5080 C   0  0  0  0  0  0  0  0  0  0  0  0
  137.2500   82.2250  223.2520 N   0  0  0  0  0  0  0  0  0  0  0  0
  139.4450   79.8240  221.8550 N   0  0  0  0  0  0  0  0  0  0  0  0
  139.8870   79.0010  220.7480 C   0  0  0  0  0  0  0  0  0  0  0  0
  141.1070   78.3150  221.3740 C   0  0  1  0  0  0  0  0  0  0  0  0
  140.6400   77.0930  222.0730 C   0  0  0  0  0  0  0  0  0  0  0  0
  141.0470   75.9630  221.1740 C   0  0  0  0  0  0  0  0  0  0  0  0
  141.9160   76.4610  220.1680 N   0  0  0  0  0  0  0  0  0  0  0  0
  143.0970   75.7080  219.9100 C   0  0  0  0  0  0  0  0  0  0  0  0
  142.8730   74.2540  219.6750 C   0  0  0  0  0  0  0  0  0  0  0  0
  144.1120   73.4740  220.0360 C   0  0  2  0  0  0  0  0  0  0  0  0
  145.1010   74.2910  220.8440 C   0  0  0  0  0  0  0  0  0  0  0  0
  146.3330   73.3790  220.7250 C   0  0  0  0  0  0  0  0  0  0  0  0
  146.3470   73.2130  219.2650 N   0  0  0  0  0  0  0  0  0  0  0  0
  144.9560   73.0870  218.8530 C   0  0  0  0  0  0  0  0  0  0  0  0
  142.0780   77.8640  220.3440 C   0  0  0  0  0  0  0  0  0  0  0  0
  141.6580   79.3440  222.2900 C   0  0  0  0  0  0  0  0  0  0  0  0
  142.9250   79.4650  222.8210 C   0  0  0  0  0  0  0  0  0  0  0  0
  143.1800   80.5320  223.6650 C   0  0  0  0  0  0  0  0  0  0  0  0
  142.1650   81.4240  223.9390 C   0  0  0  0  0  0  0  0  0  0  0  0
  140.8960   81.2720  223.3870 C   0  0  0  0  0  0  0  0  0  0  0  0
  140.6350   80.2250  222.5540 C   0  0  0  0  0  0  0  0  0  0  0  0
  137.9240   79.5480  225.0142 H   0  0  0  0  0  0  0  0  0  0  0  0
  137.1298   80.9240  227.4502 H   0  0  0  0  0  0  0  0  0  0  0  0
  136.2760   83.0911  228.3025 H   0  0  0  0  0  0  0  0  0  0  0  0
  135.8596   84.9545  226.7167 H   0  0  0  0  0  0  0  0  0  0  0  0
  136.2835   84.6633  224.2779 H   0  0  0  0  0  0  0  0  0  0  0  0
  137.1510   82.8450  222.4180 H   0  0  0  0  0  0  0  0  0  0  0  0
  139.1185   78.2713  220.4532 H   0  0  0  0  0  0  0  0  0  0  0  0
  140.0999   79.5562  219.8226 H   0  0  0  0  0  0  0  0  0  0  0  0
  141.1233   76.9998  223.0567 H   0  0  0  0  0  0  0  0  0  0  0  0
  139.5560   77.1078  222.2592 H   0  0  0  0  0  0  0  0  0  0  0  0
  141.5674   75.1930  221.7624 H   0  0  0  0  0  0  0  0  0  0  0  0
  140.1547   75.5201  220.7075 H   0  0  0  0  0  0  0  0  0  0  0  0
  143.5822   76.1281  219.0166 H   0  0  0  0  0  0  0  0  0  0  0  0
  143.7158   75.7831  220.8163 H   0  0  0  0  0  0  0  0  0  0  0  0
  142.0328   73.9102  220.2962 H   0  0  0  0  0  0  0  0  0  0  0  0
  142.6428   74.0924  218.6116 H   0  0  0  0  0  0  0  0  0  0  0  0
  143.6882   72.6102  220.5692 H   0  0  0  0  0  0  0  0  0  0  0  0
  145.2777   75.2810  220.3982 H   0  0  0  0  0  0  0  0  0  0  0  0
  144.7876   74.5259  221.8719 H   0  0  0  0  0  0  0  0  0  0  0  0
  147.2466   73.8676  221.0945 H   0  0  0  0  0  0  0  0  0  0  0  0
  146.2940   72.4479  221.3094 H   0  0  0  0  0  0  0  0  0  0  0  0
  146.7520   74.1230  218.9000 H   0  0  0  0  0  0  0  0  0  0  0  0
  144.7503   73.7581  218.0061 H   0  0  0  0  0  0  0  0  0  0  0  0
  144.7330   72.0593  218.5302 H   0  0  0  0  0  0  0  0  0  0  0  0
  143.1034   78.0820  220.6773 H   0  0  0  0  0  0  0  0  0  0  0  0
  141.8989   78.3904  219.3949 H   0  0  0  0  0  0  0  0  0  0  0  0
  143.7110   78.7340  222.5805 H   0  0  0  0  0  0  0  0  0  0  0  0
  144.1769   80.6662  224.1102 H   0  0  0  0  0  0  0  0  0  0  0  0
  142.3622   82.2743  224.6084 H   0  0  0  0  0  0  0  0  0  0  0  0
  140.1034   81.9973  223.6232 H   0  0  0  0  0  0  0  0  0  0  0  0
  1  2  2  0
  2  3  1  0
  3  4  2  0
  4  5  1  0
  5  6  2  0
  6  7  1  0
  7  8  2  0
  8  9  1  0
  9 10  2  0
 10 11  1  0
  2 12  1  0
 12 13  1  0
 14 13  1  6
 14 15  1  0
 15 16  1  0
 16 17  1  0
 17 18  1  0
 18 19  1  0
 19 20  1  0
 20 21  1  0
 21 22  1  0
 22 23  1  0
 23 24  1  0
 17 25  1  0
 14 26  1  0
 26 27  2  0
 27 28  1  0
 28 29  2  0
 29 30  1  0
 30 31  2  0
 11  3  1  0
 31 12  1  0
 10  5  1  0
 25 14  1  0
 31 26  1  0
 24 20  1  0
  4 32  1  0
  6 33  1  0
  7 34  1  0
  8 35  1  0
  9 36  1  0
 11 37  1  0
 13 38  1  0
 13 39  1  0
 15 40  1  0
 15 41  1  0
 16 42  1  0
 16 43  1  0
 18 44  1  0
 18 45  1  0
 19 46  1  0
 19 47  1  0
 20 48  1  1
 21 49  1  0
 21 50  1  0
 22 51  1  0
 22 52  1  0
 23 53  1  0
 24 54  1  0
 24 55  1  0
 25 56  1  0
 25 57  1  0
 27 58  1  0
 28 59  1  0
 29 60  1  0
 30 61  1  0
M  END
>  <smiles>  (33) 
O=C(c1cc2ccccc2[nH]1)N1C[C@]2(CCN(CCC3CCNC3)C2)c2ccccc21

>  <score_type>  (33) 
oracle

>  <origin>  (33) 
autodockgpu

>  <m_score__min__energy>  (33) 
-9.6400000000000006

>  <m_primary>  (33) 
energy

>  <rmsd>  (33) 
9.955173045139706

>  <m_score__min__rmsd>  (33) 
9.955173045139706

>  <meeko>  (33) 
{"free_energy": -9.42, "intermolecular_energy": -10.91, "internal_energy": -1.27, "cluster_size": 45, "cluster_id": 1, "rank_in_cluster": 16}

>  <energy>  (33) 
-9.08

>  <cluster_rmsd>  (33) 
0.94

>  <cluster>  (33) 
1

$$$$

     RDKit          3D

 61 66  0  0  1  0  0  0  0  0999 V2000
  137.2360   78.5780  223.0250 O   0  0  0  0  0  0  0  0  0  0  0  0
  138.0940   79.5230  223.1510 C   0  0  0  0  0  0  0  0  0  0  0  0
  137.6710   80.6690  223.9080 C   0  0  0  0  0  0  0  0  0  0  0  0
  137.1940   81.8820  223.4190 C   0  0  0  0  0  0  0  0  0  0  0  0
  136.8930   82.7130  224.4860 C   0  0  0  0  0  0  0  0  0  0  0  0
  136.3990   84.0020  224.5800 C   0  0  0  0  0  0  0  0  0  0  0  0
  136.2020   84.5690  225.8150 C   0  0  0  0  0  0  0  0  0  0  0  0
  136.5030   83.8390  226.9540 C   0  0  0  0  0  0  0  0  0  0  0  0
  137.0010   82.5400  226.8630 C   0  0  0  0  0  0  0  0  0  0  0  0
  137.1950   81.9790  225.6290 C   0  0  0  0  0  0  0  0  0  0  0  0
  137.6590   80.7570  225.2670 N   0  0  0  0  0  0  0  0  0  0  0  0
  139.3650   79.3680  222.5450 N   0  0  0  0  0  0  0  0  0  0  0  0
  139.6520   78.6150  221.3410 C   0  0  0  0  0  0  0  0  0  0  0  0
  141.0540   78.0880  221.6640 C   0  0  1  0  0  0  0  0  0  0  0  0
  140.9080   76.8120  222.4060 C   0  0  0  0  0  0  0  0  0  0  0  0
  141.2440   75.7480  221.4030 C   0  0  0  0  0  0  0  0  0  0  0  0
  141.8020   76.3590  220.2490 N   0  0  0  0  0  0  0  0  0  0  0  0
  142.9810   75.7650  219.7160 C   0  0  0  0  0  0  0  0  0  0  0  0
  142.8390   74.3350  219.3230 C   0  0  0  0  0  0  0  0  0  0  0  0
  144.0310   73.5450  219.8020 C   0  0  2  0  0  0  0  0  0  0  0  0
  144.9730   74.3710  220.6570 C   0  0  0  0  0  0  0  0  0  0  0  0
  146.1910   73.4330  220.6600 C   0  0  0  0  0  0  0  0  0  0  0  0
  146.3120   73.2180  219.2120 N   0  0  0  0  0  0  0  0  0  0  0  0
  144.9530   73.1040  218.6990 C   0  0  0  0  0  0  0  0  0  0  0  0
  141.8240   77.7710  220.4330 C   0  0  0  0  0  0  0  0  0  0  0  0
  141.6620   79.1730  222.4720 C   0  0  0  0  0  0  0  0  0  0  0  0
  142.9900   79.4530  222.7190 C   0  0  0  0  0  0  0  0  0  0  0  0
  143.2900   80.5390  223.5230 C   0  0  0  0  0  0  0  0  0  0  0  0
  142.2570   81.2920  224.0410 C   0  0  0  0  0  0  0  0  0  0  0  0
  140.9270   80.9820  223.7730 C   0  0  0  0  0  0  0  0  0  0  0  0
  140.6210   79.9150  222.9820 C   0  0  0  0  0  0  0  0  0  0  0  0
  137.0751   82.1394  222.3562 H   0  0  0  0  0  0  0  0  0  0  0  0
  136.1648   84.5709  223.6681 H   0  0  0  0  0  0  0  0  0  0  0  0
  135.8090   85.5929  225.8995 H   0  0  0  0  0  0  0  0  0  0  0  0
  136.3467   84.2912  227.9445 H   0  0  0  0  0  0  0  0  0  0  0  0
  137.2360   81.9708  227.7745 H   0  0  0  0  0  0  0  0  0  0  0  0
  137.9490   80.0370  225.9650 H   0  0  0  0  0  0  0  0  0  0  0  0
  138.9340   77.7945  221.1952 H   0  0  0  0  0  0  0  0  0  0  0  0
  139.5863   79.1983  220.4107 H   0  0  0  0  0  0  0  0  0  0  0  0
  141.6038   76.7764  223.2572 H   0  0  0  0  0  0  0  0  0  0  0  0
  139.8982   76.6865  222.8237 H   0  0  0  0  0  0  0  0  0  0  0  0
  141.9724   75.0480  221.8382 H   0  0  0  0  0  0  0  0  0  0  0  0
  140.3330   75.1966  221.1274 H   0  0  0  0  0  0  0  0  0  0  0  0
  143.2789   76.3366  218.8246 H   0  0  0  0  0  0  0  0  0  0  0  0
  143.7310   75.7914  220.5202 H   0  0  0  0  0  0  0  0  0  0  0  0
  141.9243   73.9228  219.7740 H   0  0  0  0  0  0  0  0  0  0  0  0
  142.7791   74.2672  218.2267 H   0  0  0  0  0  0  0  0  0  0  0  0
  143.5512   72.7071  220.3289 H   0  0  0  0  0  0  0  0  0  0  0  0
  145.2030   75.3424  220.1949 H   0  0  0  0  0  0  0  0  0  0  0  0
  144.5883   74.6458  221.6502 H   0  0  0  0  0  0  0  0  0  0  0  0
  147.0842   73.9167  221.0822 H   0  0  0  0  0  0  0  0  0  0  0  0
  146.0881   72.5225  221.2686 H   0  0  0  0  0  0  0  0  0  0  0  0
  146.7620   74.1090  218.8500 H   0  0  0  0  0  0  0  0  0  0  0  0
  144.8257   73.7507  217.8184 H   0  0  0  0  0  0  0  0  0  0  0  0
  144.7335   72.0707  218.3921 H   0  0  0  0  0  0  0  0  0  0  0  0
  142.8625   78.1165  220.5434 H   0  0  0  0  0  0  0  0  0  0  0  0
  141.3776   78.2757  219.5636 H   0  0  0  0  0  0  0  0  0  0  0  0
  143.7884   78.8305  222.2889 H   0  0  0  0  0  0  0  0  0  0  0  0
  144.3358   80.7975  223.7453 H   0  0  0  0  0  0  0  0  0  0  0  0
  142.4895   82.1566  224.6800 H   0  0  0  0  0  0  0  0  0  0  0  0
  140.1222   81.5985  224.1998 H   0  0  0  0  0  0  0  0  0  0  0  0
  1  2  2  0
  2  3  1  0
  3  4  2  0
  4  5  1  0
  5  6  2  0
  6  7  1  0
  7  8  2  0
  8  9  1  0
  9 10  2  0
 10 11  1  0
  2 12  1  0
 12 13  1  0
 14 13  1  6
 14 15  1  0
 15 16  1  0
 16 17  1  0
 17 18  1  0
 18 19  1  0
 19 20  1  0
 20 21  1  0
 21 22  1  0
 22 23  1  0
 23 24  1  0
 17 25  1  0
 14 26  1  0
 26 27  2  0
 27 28  1  0
 28 29  2  0
 29 30  1  0
 30 31  2  0
 11  3  1  0
 31 12  1  0
 10  5  1  0
 25 14  1  0
 31 26  1  0
 24 20  1  0
  4 32  1  0
  6 33  1  0
  7 34  1  0
  8 35  1  0
  9 36  1  0
 11 37  1  0
 13 38  1  0
 13 39  1  0
 15 40  1  0
 15 41  1  0
 16 42  1  0
 16 43  1  0
 18 44  1  0
 18 45  1  0
 19 46  1  0
 19 47  1  0
 20 48  1  1
 21 49  1  0
 21 50  1  0
 22 51  1  0
 22 52  1  0
 23 53  1  0
 24 54  1  0
 24 55  1  0
 25 56  1  0
 25 57  1  0
 27 58  1  0
 28 59  1  0
 29 60  1  0
 30 61  1  0
M  END
>  <smiles>  (34) 
O=C(c1cc2ccccc2[nH]1)N1C[C@]2(CCN(CCC3CCNC3)C2)c2ccccc21

>  <score_type>  (34) 
oracle

>  <origin>  (34) 
autodockgpu

>  <m_score__min__energy>  (34) 
-9.6400000000000006

>  <m_primary>  (34) 
energy

>  <rmsd>  (34) 
10.323605491207791

>  <m_score__min__rmsd>  (34) 
10.323605491207791

>  <meeko>  (34) 
{"free_energy": -9.57, "intermolecular_energy": -11.06, "internal_energy": -1.25, "cluster_size": 45, "cluster_id": 1, "rank_in_cluster": 13}

>  <energy>  (34) 
-9.02

>  <cluster_rmsd>  (34) 
1.02

>  <cluster>  (34) 
1

$$$$

     RDKit          3D

 61 66  0  0  1  0  0  0  0  0999 V2000
  135.8500   78.7730  222.5370 O   0  0  0  0  0  0  0  0  0  0  0  0
  136.5540   77.7170  222.7190 C   0  0  0  0  0  0  0  0  0  0  0  0
  135.9330   76.6610  223.4700 C   0  0  0  0  0  0  0  0  0  0  0  0
  136.2000   75.2960  223.3980 C   0  0  0  0  0  0  0  0  0  0  0  0
  135.3810   74.6280  224.2940 C   0  0  0  0  0  0  0  0  0  0  0  0
  135.2270   73.2950  224.6310 C   0  0  0  0  0  0  0  0  0  0  0  0
  134.3060   72.9340  225.5850 C   0  0  0  0  0  0  0  0  0  0  0  0
  133.5440   73.9140  226.1990 C   0  0  0  0  0  0  0  0  0  0  0  0
  133.6980   75.2590  225.8610 C   0  0  0  0  0  0  0  0  0  0  0  0
  134.6160   75.6130  224.9110 C   0  0  0  0  0  0  0  0  0  0  0  0
  134.9580   76.8250  224.4070 N   0  0  0  0  0  0  0  0  0  0  0  0
  137.8640   77.6760  222.1790 N   0  0  0  0  0  0  0  0  0  0  0  0
  138.2730   76.9680  220.9840 C   0  0  0  0  0  0  0  0  0  0  0  0
  139.6960   76.5520  221.3750 C   0  0  1  0  0  0  0  0  0  0  0  0
  139.6170   75.2570  222.0930 C   0  0  0  0  0  0  0  0  0  0  0  0
  140.0910   74.2400  221.0970 C   0  0  0  0  0  0  0  0  0  0  0  0
  140.6550   74.9130  219.9810 N   0  0  0  0  0  0  0  0  0  0  0  0
  141.9060   74.4260  219.5040 C   0  0  0  0  0  0  0  0  0  0  0  0
  143.0800   74.7830  220.3490 C   0  0  0  0  0  0  0  0  0  0  0  0
  144.1060   73.6780  220.3040 C   0  0  2  0  0  0  0  0  0  0  0  0
  145.4360   74.0940  220.9010 C   0  0  0  0  0  0  0  0  0  0  0  0
  146.3110   72.9400  220.3840 C   0  0  0  0  0  0  0  0  0  0  0  0
  145.9510   73.0080  218.9610 N   0  0  0  0  0  0  0  0  0  0  0  0
  144.5220   73.2900  218.9130 C   0  0  0  0  0  0  0  0  0  0  0  0
  140.5510   76.3180  220.1820 C   0  0  0  0  0  0  0  0  0  0  0  0
  140.1700   77.6710  222.2260 C   0  0  0  0  0  0  0  0  0  0  0  0
  141.4550   78.0540  222.5450 C   0  0  0  0  0  0  0  0  0  0  0  0
  141.6230   79.1490  223.3770 C   0  0  0  0  0  0  0  0  0  0  0  0
  140.5060   79.8060  223.8480 C   0  0  0  0  0  0  0  0  0  0  0  0
  139.2220   79.3930  223.5070 C   0  0  0  0  0  0  0  0  0  0  0  0
  139.0460   78.3160  222.6890 C   0  0  0  0  0  0  0  0  0  0  0  0
  136.9415   74.8243  222.7365 H   0  0  0  0  0  0  0  0  0  0  0  0
  135.8398   72.5266  224.1369 H   0  0  0  0  0  0  0  0  0  0  0  0
  134.1753   71.8766  225.8584 H   0  0  0  0  0  0  0  0  0  0  0  0
  132.8070   73.6280  226.9639 H   0  0  0  0  0  0  0  0  0  0  0  0
  133.0860   76.0283  226.3546 H   0  0  0  0  0  0  0  0  0  0  0  0
  134.5090   77.7120  224.7240 H   0  0  0  0  0  0  0  0  0  0  0  0
  137.6334   76.0940  220.7915 H   0  0  0  0  0  0  0  0  0  0  0  0
  138.2074   77.5581  220.0580 H   0  0  0  0  0  0  0  0  0  0  0  0
  140.2682   75.2646  222.9795 H   0  0  0  0  0  0  0  0  0  0  0  0
  138.6005   75.0430  222.4548 H   0  0  0  0  0  0  0  0  0  0  0  0
  140.8516   73.5954  221.5618 H   0  0  0  0  0  0  0  0  0  0  0  0
  139.2442   73.6199  220.7677 H   0  0  0  0  0  0  0  0  0  0  0  0
  141.8467   73.3291  219.4469 H   0  0  0  0  0  0  0  0  0  0  0  0
  142.0716   74.9038  218.5271 H   0  0  0  0  0  0  0  0  0  0  0  0
  143.5302   75.7132  219.9720 H   0  0  0  0  0  0  0  0  0  0  0  0
  142.7467   74.9229  221.3879 H   0  0  0  0  0  0  0  0  0  0  0  0
  143.5941   72.8693  220.8462 H   0  0  0  0  0  0  0  0  0  0  0  0
  145.7721   75.0687  220.5177 H   0  0  0  0  0  0  0  0  0  0  0  0
  145.4388   74.2343  221.9920 H   0  0  0  0  0  0  0  0  0  0  0  0
  147.3823   73.1271  220.5491 H   0  0  0  0  0  0  0  0  0  0  0  0
  146.1499   71.9662  220.8696 H   0  0  0  0  0  0  0  0  0  0  0  0
  146.4970   73.8390  218.5900 H   0  0  0  0  0  0  0  0  0  0  0  0
  144.3228   74.1161  218.2145 H   0  0  0  0  0  0  0  0  0  0  0  0
  143.9591   72.4115  218.5646 H   0  0  0  0  0  0  0  0  0  0  0  0
  141.5505   76.7456  220.3500 H   0  0  0  0  0  0  0  0  0  0  0  0
  140.1089   76.7979  219.2964 H   0  0  0  0  0  0  0  0  0  0  0  0
  142.3229   77.5056  222.1500 H   0  0  0  0  0  0  0  0  0  0  0  0
  142.6310   79.4887  223.6572 H   0  0  0  0  0  0  0  0  0  0  0  0
  140.6330   80.6765  224.5084 H   0  0  0  0  0  0  0  0  0  0  0  0
  138.3483   79.9354  223.8974 H   0  0  0  0  0  0  0  0  0  0  0  0
  1  2  2  0
  2  3  1  0
  3  4  2  0
  4  5  1  0
  5  6  2  0
  6  7  1  0
  7  8  2  0
  8  9  1  0
  9 10  2  0
 10 11  1  0
  2 12  1  0
 12 13  1  0
 14 13  1  6
 14 15  1  0
 15 16  1  0
 16 17  1  0
 17 18  1  0
 18 19  1  0
 19 20  1  0
 20 21  1  0
 21 22  1  0
 22 23  1  0
 23 24  1  0
 17 25  1  0
 14 26  1  0
 26 27  2  0
 27 28  1  0
 28 29  2  0
 29 30  1  0
 30 31  2  0
 11  3  1  0
 31 12  1  0
 10  5  1  0
 25 14  1  0
 31 26  1  0
 24 20  1  0
  4 32  1  0
  6 33  1  0
  7 34  1  0
  8 35  1  0
  9 36  1  0
 11 37  1  0
 13 38  1  0
 13 39  1  0
 15 40  1  0
 15 41  1  0
 16 42  1  0
 16 43  1  0
 18 44  1  0
 18 45  1  0
 19 46  1  0
 19 47  1  0
 20 48  1  1
 21 49  1  0
 21 50  1  0
 22 51  1  0
 22 52  1  0
 23 53  1  0
 24 54  1  0
 24 55  1  0
 25 56  1  0
 25 57  1  0
 27 58  1  0
 28 59  1  0
 29 60  1  0
 30 61  1  0
M  END
>  <smiles>  (35) 
O=C(c1cc2ccccc2[nH]1)N1C[C@]2(CCN(CCC3CCNC3)C2)c2ccccc21

>  <score_type>  (35) 
oracle

>  <origin>  (35) 
autodockgpu

>  <m_score__min__energy>  (35) 
-9.6400000000000006

>  <m_primary>  (35) 
energy

>  <rmsd>  (35) 
6.107244711421822

>  <m_score__min__rmsd>  (35) 
6.107244711421822

>  <meeko>  (35) 
{"free_energy": -8.12, "intermolecular_energy": -9.61, "internal_energy": -1.43, "cluster_size": 1, "cluster_id": 3, "rank_in_cluster": 1}

>  <energy>  (35) 
-9.0

>  <cluster_rmsd>  (35) 
0.9

>  <cluster>  (35) 
1

$$$$

     RDKit          3D

 61 66  0  0  1  0  0  0  0  0999 V2000
  137.2330   78.5210  223.0180 O   0  0  0  0  0  0  0  0  0  0  0  0
  138.0810   79.4740  223.1560 C   0  0  0  0  0  0  0  0  0  0  0  0
  137.6460   80.6030  223.9300 C   0  0  0  0  0  0  0  0  0  0  0  0
  137.1540   81.8180  223.4600 C   0  0  0  0  0  0  0  0  0  0  0  0
  136.8460   82.6300  224.5400 C   0  0  0  0  0  0  0  0  0  0  0  0
  136.3360   83.9110  224.6530 C   0  0  0  0  0  0  0  0  0  0  0  0
  136.1360   84.4580  225.8970 C   0  0  0  0  0  0  0  0  0  0  0  0
  136.4490   83.7160  227.0250 C   0  0  0  0  0  0  0  0  0  0  0  0
  136.9620   82.4240  226.9130 C   0  0  0  0  0  0  0  0  0  0  0  0
  137.1590   81.8830  225.6720 C   0  0  0  0  0  0  0  0  0  0  0  0
  137.6370   80.6720  225.2910 N   0  0  0  0  0  0  0  0  0  0  0  0
  139.3520   79.3420  222.5450 N   0  0  0  0  0  0  0  0  0  0  0  0
  139.6420   78.6230  221.3220 C   0  0  0  0  0  0  0  0  0  0  0  0
  141.0480   78.0960  221.6300 C   0  0  1  0  0  0  0  0  0  0  0  0
  140.9110   76.8010  222.3390 C   0  0  0  0  0  0  0  0  0  0  0  0
  141.2530   75.7650  221.3090 C   0  0  0  0  0  0  0  0  0  0  0  0
  141.8050   76.4090  220.1700 N   0  0  0  0  0  0  0  0  0  0  0  0
  142.9880   75.8370  219.6210 C   0  0  0  0  0  0  0  0  0  0  0  0
  142.8620   74.4080  219.2170 C   0  0  0  0  0  0  0  0  0  0  0  0
  144.0260   73.6130  219.7540 C   0  0  2  0  0  0  0  0  0  0  0  0
  144.9520   74.4460  220.6180 C   0  0  0  0  0  0  0  0  0  0  0  0
  146.1550   73.4920  220.6850 C   0  0  0  0  0  0  0  0  0  0  0  0
  146.3200   73.2400  219.2470 N   0  0  0  0  0  0  0  0  0  0  0  0
  144.9770   73.1320  218.6930 C   0  0  0  0  0  0  0  0  0  0  0  0
  141.8180   77.8150  220.3910 C   0  0  0  0  0  0  0  0  0  0  0  0
  141.6510   79.1640  222.4650 C   0  0  0  0  0  0  0  0  0  0  0  0
  142.9770   79.4460  222.7180 C   0  0  0  0  0  0  0  0  0  0  0  0
  143.2710   80.5130  223.5490 C   0  0  0  0  0  0  0  0  0  0  0  0
  142.2340   81.2460  224.0870 C   0  0  0  0  0  0  0  0  0  0  0  0
  140.9060   80.9340  223.8130 C   0  0  0  0  0  0  0  0  0  0  0  0
  140.6050   79.8860  222.9950 C   0  0  0  0  0  0  0  0  0  0  0  0
  137.0298   82.0897  222.4013 H   0  0  0  0  0  0  0  0  0  0  0  0
  136.0915   84.4894  223.7499 H   0  0  0  0  0  0  0  0  0  0  0  0
  135.7310   85.4758  225.9971 H   0  0  0  0  0  0  0  0  0  0  0  0
  136.2906   84.1522  228.0223 H   0  0  0  0  0  0  0  0  0  0  0  0
  137.2063   81.8445  227.8155 H   0  0  0  0  0  0  0  0  0  0  0  0
  137.9380   79.9460  225.9770 H   0  0  0  0  0  0  0  0  0  0  0  0
  138.9288   77.8023  221.1553 H   0  0  0  0  0  0  0  0  0  0  0  0
  139.5717   79.2301  220.4074 H   0  0  0  0  0  0  0  0  0  0  0  0
  141.6078   76.7482  223.1886 H   0  0  0  0  0  0  0  0  0  0  0  0
  139.9023   76.6583  222.7539 H   0  0  0  0  0  0  0  0  0  0  0  0
  141.9870   75.0594  221.7254 H   0  0  0  0  0  0  0  0  0  0  0  0
  140.3455   75.2142  221.0208 H   0  0  0  0  0  0  0  0  0  0  0  0
  143.2694   76.4204  218.7319 H   0  0  0  0  0  0  0  0  0  0  0  0
  143.7455   75.8678  220.4180 H   0  0  0  0  0  0  0  0  0  0  0  0
  141.9243   73.9974  219.6197 H   0  0  0  0  0  0  0  0  0  0  0  0
  142.8578   74.3433  218.1189 H   0  0  0  0  0  0  0  0  0  0  0  0
  143.5165   72.7955  220.2851 H   0  0  0  0  0  0  0  0  0  0  0  0
  145.2115   75.4019  220.1396 H   0  0  0  0  0  0  0  0  0  0  0  0
  144.5392   74.7509  221.5910 H   0  0  0  0  0  0  0  0  0  0  0  0
  147.0408   73.9736  221.1248 H   0  0  0  0  0  0  0  0  0  0  0  0
  146.0192   72.5985  221.3120 H   0  0  0  0  0  0  0  0  0  0  0  0
  146.7950   74.1150  218.8780 H   0  0  0  0  0  0  0  0  0  0  0  0
  144.8877   73.7583  217.7931 H   0  0  0  0  0  0  0  0  0  0  0  0
  144.7526   72.0945  218.4046 H   0  0  0  0  0  0  0  0  0  0  0  0
  142.8544   78.1640  220.5092 H   0  0  0  0  0  0  0  0  0  0  0  0
  141.3666   78.3388  219.5355 H   0  0  0  0  0  0  0  0  0  0  0  0
  143.7789   78.8396  222.2716 H   0  0  0  0  0  0  0  0  0  0  0  0
  144.3154   80.7724  223.7768 H   0  0  0  0  0  0  0  0  0  0  0  0
  142.4618   82.0959  224.7472 H   0  0  0  0  0  0  0  0  0  0  0  0
  140.0980   81.5339  224.2571 H   0  0  0  0  0  0  0  0  0  0  0  0
  1  2  2  0
  2  3  1  0
  3  4  2  0
  4  5  1  0
  5  6  2  0
  6  7  1  0
  7  8  2  0
  8  9  1  0
  9 10  2  0
 10 11  1  0
  2 12  1  0
 12 13  1  0
 14 13  1  6
 14 15  1  0
 15 16  1  0
 16 17  1  0
 17 18  1  0
 18 19  1  0
 19 20  1  0
 20 21  1  0
 21 22  1  0
 22 23  1  0
 23 24  1  0
 17 25  1  0
 14 26  1  0
 26 27  2  0
 27 28  1  0
 28 29  2  0
 29 30  1  0
 30 31  2  0
 11  3  1  0
 31 12  1  0
 10  5  1  0
 25 14  1  0
 31 26  1  0
 24 20  1  0
  4 32  1  0
  6 33  1  0
  7 34  1  0
  8 35  1  0
  9 36  1  0
 11 37  1  0
 13 38  1  0
 13 39  1  0
 15 40  1  0
 15 41  1  0
 16 42  1  0
 16 43  1  0
 18 44  1  0
 18 45  1  0
 19 46  1  0
 19 47  1  0
 20 48  1  1
 21 49  1  0
 21 50  1  0
 22 51  1  0
 22 52  1  0
 23 53  1  0
 24 54  1  0
 24 55  1  0
 25 56  1  0
 25 57  1  0
 27 58  1  0
 28 59  1  0
 29 60  1  0
 30 61  1  0
M  END
>  <smiles>  (36) 
O=C(c1cc2ccccc2[nH]1)N1C[C@]2(CCN(CCC3CCNC3)C2)c2ccccc21

>  <score_type>  (36) 
oracle

>  <origin>  (36) 
autodockgpu

>  <m_score__min__energy>  (36) 
-9.6400000000000006

>  <m_primary>  (36) 
energy

>  <rmsd>  (36) 
10.273994544219489

>  <m_score__min__rmsd>  (36) 
10.273994544219489

>  <meeko>  (36) 
{"free_energy": -9.56, "intermolecular_energy": -11.05, "internal_energy": -1.26, "cluster_size": 45, "cluster_id": 1, "rank_in_cluster": 14}

>  <energy>  (36) 
-9.0

>  <cluster_rmsd>  (36) 
1.14

>  <cluster>  (36) 
1

$$$$

     RDKit          3D

 61 66  0  0  1  0  0  0  0  0999 V2000
  137.0810   78.7150  222.6550 O   0  0  0  0  0  0  0  0  0  0  0  0
  137.9980   79.5670  222.9330 C   0  0  0  0  0  0  0  0  0  0  0  0
  137.6140   80.6580  223.7850 C   0  0  0  0  0  0  0  0  0  0  0  0
  137.6300   80.6980  225.1770 C   0  0  0  0  0  0  0  0  0  0  0  0
  137.1860   81.9400  225.5990 C   0  0  0  0  0  0  0  0  0  0  0  0
  137.0040   82.5130  226.8450 C   0  0  0  0  0  0  0  0  0  0  0  0
  136.5350   83.8010  226.9420 C   0  0  0  0  0  0  0  0  0  0  0  0
  136.2520   84.5100  225.7860 C   0  0  0  0  0  0  0  0  0  0  0  0
  136.4350   83.9350  224.5290 C   0  0  0  0  0  0  0  0  0  0  0  0
  136.9010   82.6520  224.4380 C   0  0  0  0  0  0  0  0  0  0  0  0
  137.1620   81.8720  223.3590 N   0  0  0  0  0  0  0  0  0  0  0  0
  139.2910   79.3710  222.3880 N   0  0  0  0  0  0  0  0  0  0  0  0
  139.6160   78.5720  221.2250 C   0  0  0  0  0  0  0  0  0  0  0  0
  140.9950   78.0360  221.6270 C   0  0  1  0  0  0  0  0  0  0  0  0
  140.7960   76.7890  222.4060 C   0  0  0  0  0  0  0  0  0  0  0  0
  141.1570   75.6850  221.4560 C   0  0  0  0  0  0  0  0  0  0  0  0
  141.7730   76.2470  220.3060 N   0  0  0  0  0  0  0  0  0  0  0  0
  142.9650   75.6170  219.8460 C   0  0  0  0  0  0  0  0  0  0  0  0
  142.8170   74.1750  219.5010 C   0  0  0  0  0  0  0  0  0  0  0  0
  144.0490   73.4130  219.9190 C   0  0  2  0  0  0  0  0  0  0  0  0
  144.9930   74.2470  220.7630 C   0  0  0  0  0  0  0  0  0  0  0  0
  146.2400   73.3500  220.7020 C   0  0  0  0  0  0  0  0  0  0  0  0
  146.3180   73.1760  219.2450 N   0  0  0  0  0  0  0  0  0  0  0  0
  144.9470   73.0300  218.7750 C   0  0  0  0  0  0  0  0  0  0  0  0
  141.8110   77.6630  220.4420 C   0  0  0  0  0  0  0  0  0  0  0  0
  141.5860   79.1400  222.4220 C   0  0  0  0  0  0  0  0  0  0  0  0
  142.9060   79.4090  222.7150 C   0  0  0  0  0  0  0  0  0  0  0  0
  143.1900   80.5180  223.4930 C   0  0  0  0  0  0  0  0  0  0  0  0
  142.1480   81.3040  223.9400 C   0  0  0  0  0  0  0  0  0  0  0  0
  140.8260   81.0050  223.6260 C   0  0  0  0  0  0  0  0  0  0  0  0
  140.5360   79.9150  222.8600 C   0  0  0  0  0  0  0  0  0  0  0  0
  137.9448   79.8751  225.8356 H   0  0  0  0  0  0  0  0  0  0  0  0
  137.2339   81.9395  227.7550 H   0  0  0  0  0  0  0  0  0  0  0  0
  136.3857   84.2647  227.9283 H   0  0  0  0  0  0  0  0  0  0  0  0
  135.8775   85.5416  225.8608 H   0  0  0  0  0  0  0  0  0  0  0  0
  136.2066   84.5081  223.6183 H   0  0  0  0  0  0  0  0  0  0  0  0
  137.0200   82.2010  222.3790 H   0  0  0  0  0  0  0  0  0  0  0  0
  138.8916   77.7575  221.0771 H   0  0  0  0  0  0  0  0  0  0  0  0
  139.5992   79.1225  220.2728 H   0  0  0  0  0  0  0  0  0  0  0  0
  141.4540   76.7730  223.2874 H   0  0  0  0  0  0  0  0  0  0  0  0
  139.7672   76.6936  222.7834 H   0  0  0  0  0  0  0  0  0  0  0  0
  141.8552   74.9904  221.9460 H   0  0  0  0  0  0  0  0  0  0  0  0
  140.2498   75.1371  221.1612 H   0  0  0  0  0  0  0  0  0  0  0  0
  143.3089   76.1502  218.9474 H   0  0  0  0  0  0  0  0  0  0  0  0
  143.6813   75.6638  220.6795 H   0  0  0  0  0  0  0  0  0  0  0  0
  141.9404   73.7641  220.0233 H   0  0  0  0  0  0  0  0  0  0  0  0
  142.6848   74.0768  218.4134 H   0  0  0  0  0  0  0  0  0  0  0  0
  143.6137   72.5471  220.4394 H   0  0  0  0  0  0  0  0  0  0  0  0
  145.1762   75.2365  220.3188 H   0  0  0  0  0  0  0  0  0  0  0  0
  144.6335   74.4838  221.7753 H   0  0  0  0  0  0  0  0  0  0  0  0
  147.1310   73.8522  221.1069 H   0  0  0  0  0  0  0  0  0  0  0  0
  146.1877   72.4218  221.2900 H   0  0  0  0  0  0  0  0  0  0  0  0
  146.7270   74.0900  218.8920 H   0  0  0  0  0  0  0  0  0  0  0  0
  144.7691   73.6937  217.9160 H   0  0  0  0  0  0  0  0  0  0  0  0
  144.7506   71.9979  218.4492 H   0  0  0  0  0  0  0  0  0  0  0  0
  142.8496   77.9959  220.5849 H   0  0  0  0  0  0  0  0  0  0  0  0
  141.4101   78.1433  219.5372 H   0  0  0  0  0  0  0  0  0  0  0  0
  143.7115   78.7600  222.3407 H   0  0  0  0  0  0  0  0  0  0  0  0
  144.2296   80.7686  223.7507 H   0  0  0  0  0  0  0  0  0  0  0  0
  142.3673   82.1868  224.5585 H   0  0  0  0  0  0  0  0  0  0  0  0
  140.0142   81.6484  223.9960 H   0  0  0  0  0  0  0  0  0  0  0  0
  1  2  2  0
  2  3  1  0
  3  4  2  0
  4  5  1  0
  5  6  2  0
  6  7  1  0
  7  8  2  0
  8  9  1  0
  9 10  2  0
 10 11  1  0
  2 12  1  0
 12 13  1  0
 14 13  1  6
 14 15  1  0
 15 16  1  0
 16 17  1  0
 17 18  1  0
 18 19  1  0
 19 20  1  0
 20 21  1  0
 21 22  1  0
 22 23  1  0
 23 24  1  0
 17 25  1  0
 14 26  1  0
 26 27  2  0
 27 28  1  0
 28 29  2  0
 29 30  1  0
 30 31  2  0
 11  3  1  0
 31 12  1  0
 10  5  1  0
 25 14  1  0
 31 26  1  0
 24 20  1  0
  4 32  1  0
  6 33  1  0
  7 34  1  0
  8 35  1  0
  9 36  1  0
 11 37  1  0
 13 38  1  0
 13 39  1  0
 15 40  1  0
 15 41  1  0
 16 42  1  0
 16 43  1  0
 18 44  1  0
 18 45  1  0
 19 46  1  0
 19 47  1  0
 20 48  1  1
 21 49  1  0
 21 50  1  0
 22 51  1  0
 22 52  1  0
 23 53  1  0
 24 54  1  0
 24 55  1  0
 25 56  1  0
 25 57  1  0
 27 58  1  0
 28 59  1  0
 29 60  1  0
 30 61  1  0
M  END
>  <smiles>  (37) 
O=C(c1cc2ccccc2[nH]1)N1C[C@]2(CCN(CCC3CCNC3)C2)c2ccccc21

>  <score_type>  (37) 
oracle

>  <origin>  (37) 
autodockgpu

>  <m_score__min__energy>  (37) 
-9.6400000000000006

>  <m_primary>  (37) 
energy

>  <rmsd>  (37) 
10.094909183674204

>  <m_score__min__rmsd>  (37) 
10.094909183674204

>  <meeko>  (37) 
{"free_energy": -9.62, "intermolecular_energy": -11.11, "internal_energy": -1.24, "cluster_size": 45, "cluster_id": 1, "rank_in_cluster": 4}

>  <energy>  (37) 
-8.99

>  <cluster_rmsd>  (37) 
1.16

>  <cluster>  (37) 
1

$$$$

     RDKit          3D

 61 66  0  0  1  0  0  0  0  0999 V2000
  137.4140   81.0380  220.8680 O   0  0  0  0  0  0  0  0  0  0  0  0
  138.0990   80.7830  221.9220 C   0  0  0  0  0  0  0  0  0  0  0  0
  137.5420   81.2360  223.1670 C   0  0  0  0  0  0  0  0  0  0  0  0
  137.8120   80.7540  224.4450 C   0  0  0  0  0  0  0  0  0  0  0  0
  137.0660   81.4720  225.3660 C   0  0  0  0  0  0  0  0  0  0  0  0
  136.9460   81.4180  226.7430 C   0  0  0  0  0  0  0  0  0  0  0  0
  136.1000   82.2870  227.3890 C   0  0  0  0  0  0  0  0  0  0  0  0
  135.3770   83.2090  226.6490 C   0  0  0  0  0  0  0  0  0  0  0  0
  135.4970   83.2660  225.2600 C   0  0  0  0  0  0  0  0  0  0  0  0
  136.3410   82.3980  224.6220 C   0  0  0  0  0  0  0  0  0  0  0  0
  136.6370   82.2450  223.3070 N   0  0  0  0  0  0  0  0  0  0  0  0
  139.3280   80.0920  221.7800 N   0  0  0  0  0  0  0  0  0  0  0  0
  139.5870   78.9870  220.8810 C   0  0  0  0  0  0  0  0  0  0  0  0
  140.5850   78.1730  221.7140 C   0  0  1  0  0  0  0  0  0  0  0  0
  139.8150   77.2570  222.5910 C   0  0  0  0  0  0  0  0  0  0  0  0
  139.9580   75.9080  221.9510 C   0  0  0  0  0  0  0  0  0  0  0  0
  140.9500   75.9790  220.9380 N   0  0  0  0  0  0  0  0  0  0  0  0
  141.9190   74.9350  220.9140 C   0  0  0  0  0  0  0  0  0  0  0  0
  143.1040   75.2000  220.0510 C   0  0  0  0  0  0  0  0  0  0  0  0
  143.9950   73.9850  220.0070 C   0  0  2  0  0  0  0  0  0  0  0  0
  145.2460   74.1470  220.8480 C   0  0  0  0  0  0  0  0  0  0  0  0
  146.0620   72.9600  220.3120 C   0  0  0  0  0  0  0  0  0  0  0  0
  145.9510   73.2440  218.8740 N   0  0  0  0  0  0  0  0  0  0  0  0
  144.5910   73.7140  218.6530 C   0  0  0  0  0  0  0  0  0  0  0  0
  141.4450   77.3120  220.8620 C   0  0  0  0  0  0  0  0  0  0  0  0
  141.3450   79.2040  222.4620 C   0  0  0  0  0  0  0  0  0  0  0  0
  142.5880   79.1290  223.0540 C   0  0  0  0  0  0  0  0  0  0  0  0
  143.0720   80.2530  223.7020 C   0  0  0  0  0  0  0  0  0  0  0  0
  142.2970   81.3940  223.7290 C   0  0  0  0  0  0  0  0  0  0  0  0
  141.0460   81.4360  223.1210 C   0  0  0  0  0  0  0  0  0  0  0  0
  140.5600   80.3350  222.4800 C   0  0  0  0  0  0  0  0  0  0  0  0
  138.5059   79.9349  224.6850 H   0  0  0  0  0  0  0  0  0  0  0  0
  137.5259   80.6818  227.3190 H   0  0  0  0  0  0  0  0  0  0  0  0
  135.9976   82.2511  228.4836 H   0  0  0  0  0  0  0  0  0  0  0  0
  134.6990   83.9057  227.1638 H   0  0  0  0  0  0  0  0  0  0  0  0
  134.9182   84.0022  224.6829 H   0  0  0  0  0  0  0  0  0  0  0  0
  136.2060   82.8350  222.5610 H   0  0  0  0  0  0  0  0  0  0  0  0
  138.6726   78.4135  220.6693 H   0  0  0  0  0  0  0  0  0  0  0  0
  139.9547   79.2825  219.8873 H   0  0  0  0  0  0  0  0  0  0  0  0
  140.2339   77.2503  223.6081 H   0  0  0  0  0  0  0  0  0  0  0  0
  138.7626   77.5616  222.6895 H   0  0  0  0  0  0  0  0  0  0  0  0
  140.2579   75.1700  222.7096 H   0  0  0  0  0  0  0  0  0  0  0  0
  138.9978   75.6028  221.5096 H   0  0  0  0  0  0  0  0  0  0  0  0
  142.2742   74.7746  221.9426 H   0  0  0  0  0  0  0  0  0  0  0  0
  141.4154   74.0559  220.4857 H   0  0  0  0  0  0  0  0  0  0  0  0
  142.7657   75.4401  219.0322 H   0  0  0  0  0  0  0  0  0  0  0  0
  143.6700   76.0466  220.4668 H   0  0  0  0  0  0  0  0  0  0  0  0
  143.3132   73.1925  220.3492 H   0  0  0  0  0  0  0  0  0  0  0  0
  145.7464   75.1083  220.6596 H   0  0  0  0  0  0  0  0  0  0  0  0
  145.0834   74.1523  221.9359 H   0  0  0  0  0  0  0  0  0  0  0  0
  147.1055   72.9851  220.6592 H   0  0  0  0  0  0  0  0  0  0  0  0
  145.7173   71.9644  220.6282 H   0  0  0  0  0  0  0  0  0  0  0  0
  146.6400   74.0340  218.7080 H   0  0  0  0  0  0  0  0  0  0  0  0
  144.6026   74.6363  218.0537 H   0  0  0  0  0  0  0  0  0  0  0  0
  144.0001   72.9643  218.1065 H   0  0  0  0  0  0  0  0  0  0  0  0
  142.4827   77.3456  221.2254 H   0  0  0  0  0  0  0  0  0  0  0  0
  141.4267   77.6665  219.8209 H   0  0  0  0  0  0  0  0  0  0  0  0
  143.1788   78.2020  223.0127 H   0  0  0  0  0  0  0  0  0  0  0  0
  144.0589   80.2364  224.1876 H   0  0  0  0  0  0  0  0  0  0  0  0
  142.6762   82.2900  224.2423 H   0  0  0  0  0  0  0  0  0  0  0  0
  140.4483   82.3587  223.1575 H   0  0  0  0  0  0  0  0  0  0  0  0
  1  2  2  0
  2  3  1  0
  3  4  2  0
  4  5  1  0
  5  6  2  0
  6  7  1  0
  7  8  2  0
  8  9  1  0
  9 10  2  0
 10 11  1  0
  2 12  1  0
 12 13  1  0
 14 13  1  6
 14 15  1  0
 15 16  1  0
 16 17  1  0
 17 18  1  0
 18 19  1  0
 19 20  1  0
 20 21  1  0
 21 22  1  0
 22 23  1  0
 23 24  1  0
 17 25  1  0
 14 26  1  0
 26 27  2  0
 27 28  1  0
 28 29  2  0
 29 30  1  0
 30 31  2  0
 11  3  1  0
 31 12  1  0
 10  5  1  0
 25 14  1  0
 31 26  1  0
 24 20  1  0
  4 32  1  0
  6 33  1  0
  7 34  1  0
  8 35  1  0
  9 36  1  0
 11 37  1  0
 13 38  1  0
 13 39  1  0
 15 40  1  0
 15 41  1  0
 16 42  1  0
 16 43  1  0
 18 44  1  0
 18 45  1  0
 19 46  1  0
 19 47  1  0
 20 48  1  1
 21 49  1  0
 21 50  1  0
 22 51  1  0
 22 52  1  0
 23 53  1  0
 24 54  1  0
 24 55  1  0
 25 56  1  0
 25 57  1  0
 27 58  1  0
 28 59  1  0
 29 60  1  0
 30 61  1  0
M  END
>  <smiles>  (38) 
O=C(c1cc2ccccc2[nH]1)N1C[C@]2(CCN(CCC3CCNC3)C2)c2ccccc21

>  <score_type>  (38) 
oracle

>  <origin>  (38) 
autodockgpu

>  <m_score__min__energy>  (38) 
-9.6400000000000006

>  <m_primary>  (38) 
energy

>  <rmsd>  (38) 
9.828316257168945

>  <m_score__min__rmsd>  (38) 
9.828316257168945

>  <meeko>  (38) 
{"free_energy": -9.02, "intermolecular_energy": -10.51, "internal_energy": -1.38, "cluster_size": 45, "cluster_id": 1, "rank_in_cluster": 34}

>  <energy>  (38) 
-8.94

>  <cluster_rmsd>  (38) 
0.51

>  <cluster>  (38) 
1

$$$$

     RDKit          3D

 61 66  0  0  1  0  0  0  0  0999 V2000
  137.4480   80.9890  220.7690 O   0  0  0  0  0  0  0  0  0  0  0  0
  138.1560   80.8280  221.8270 C   0  0  0  0  0  0  0  0  0  0  0  0
  137.6310   81.4010  223.0350 C   0  0  0  0  0  0  0  0  0  0  0  0
  136.9430   82.6030  223.1780 C   0  0  0  0  0  0  0  0  0  0  0  0
  136.6100   82.7770  224.5120 C   0  0  0  0  0  0  0  0  0  0  0  0
  135.9410   83.7710  225.2040 C   0  0  0  0  0  0  0  0  0  0  0  0
  135.7620   83.6560  226.5610 C   0  0  0  0  0  0  0  0  0  0  0  0
  136.2570   82.5420  227.2200 C   0  0  0  0  0  0  0  0  0  0  0  0
  136.9320   81.5390  226.5240 C   0  0  0  0  0  0  0  0  0  0  0  0
  137.1070   81.6580  225.1720 C   0  0  0  0  0  0  0  0  0  0  0  0
  137.7160   80.8430  224.2750 N   0  0  0  0  0  0  0  0  0  0  0  0
  139.3770   80.1170  221.7220 N   0  0  0  0  0  0  0  0  0  0  0  0
  139.6560   79.0290  220.8080 C   0  0  0  0  0  0  0  0  0  0  0  0
  140.5990   78.1750  221.6640 C   0  0  1  0  0  0  0  0  0  0  0  0
  139.7730   77.2530  222.4810 C   0  0  0  0  0  0  0  0  0  0  0  0
  139.9200   75.9170  221.8130 C   0  0  0  0  0  0  0  0  0  0  0  0
  140.9580   75.9950  220.8480 N   0  0  0  0  0  0  0  0  0  0  0  0
  141.9070   74.9330  220.8410 C   0  0  0  0  0  0  0  0  0  0  0  0
  143.1440   75.2030  220.0550 C   0  0  0  0  0  0  0  0  0  0  0  0
  144.0220   73.9770  220.0330 C   0  0  2  0  0  0  0  0  0  0  0  0
  145.3000   74.1600  220.8280 C   0  0  0  0  0  0  0  0  0  0  0  0
  146.0870   72.9430  220.3150 C   0  0  0  0  0  0  0  0  0  0  0  0
  145.9350   73.1710  218.8720 N   0  0  0  0  0  0  0  0  0  0  0  0
  144.5730   73.6460  218.6730 C   0  0  0  0  0  0  0  0  0  0  0  0
  141.4810   77.3190  220.8290 C   0  0  0  0  0  0  0  0  0  0  0  0
  141.3430   79.1720  222.4710 C   0  0  0  0  0  0  0  0  0  0  0  0
  142.5560   79.0570  223.1170 C   0  0  0  0  0  0  0  0  0  0  0  0
  143.0310   80.1540  223.8160 C   0  0  0  0  0  0  0  0  0  0  0  0
  142.2770   81.3100  223.8370 C   0  0  0  0  0  0  0  0  0  0  0  0
  141.0560   81.3920  223.1740 C   0  0  0  0  0  0  0  0  0  0  0  0
  140.5800   80.3170  222.4830 C   0  0  0  0  0  0  0  0  0  0  0  0
  136.7025   83.3019  222.3634 H   0  0  0  0  0  0  0  0  0  0  0  0
  135.5537   84.6507  224.6690 H   0  0  0  0  0  0  0  0  0  0  0  0
  135.2307   84.4408  227.1194 H   0  0  0  0  0  0  0  0  0  0  0  0
  136.1158   82.4473  228.3068 H   0  0  0  0  0  0  0  0  0  0  0  0
  137.3206   80.6592  227.0578 H   0  0  0  0  0  0  0  0  0  0  0  0
  138.1630   79.9410  224.5490 H   0  0  0  0  0  0  0  0  0  0  0  0
  138.7415   78.4793  220.5407 H   0  0  0  0  0  0  0  0  0  0  0  0
  140.0745   79.3413  219.8399 H   0  0  0  0  0  0  0  0  0  0  0  0
  140.1447   77.2125  223.5155 H   0  0  0  0  0  0  0  0  0  0  0  0
  138.7231   77.5759  222.5397 H   0  0  0  0  0  0  0  0  0  0  0  0
  140.1718   75.1544  222.5647 H   0  0  0  0  0  0  0  0  0  0  0  0
  138.9754   75.6411  221.3215 H   0  0  0  0  0  0  0  0  0  0  0  0
  142.2006   74.7301  221.8815 H   0  0  0  0  0  0  0  0  0  0  0  0
  141.4120   74.0797  220.3543 H   0  0  0  0  0  0  0  0  0  0  0  0
  142.8688   75.4719  219.0245 H   0  0  0  0  0  0  0  0  0  0  0  0
  143.6947   76.0318  220.5238 H   0  0  0  0  0  0  0  0  0  0  0  0
  143.3443   73.2057  220.4277 H   0  0  0  0  0  0  0  0  0  0  0  0
  145.8033   75.1075  220.5852 H   0  0  0  0  0  0  0  0  0  0  0  0
  145.1719   74.2116  221.9193 H   0  0  0  0  0  0  0  0  0  0  0  0
  147.1409   72.9697  220.6291 H   0  0  0  0  0  0  0  0  0  0  0  0
  145.7418   71.9648  220.6809 H   0  0  0  0  0  0  0  0  0  0  0  0
  146.6250   73.9470  218.6530 H   0  0  0  0  0  0  0  0  0  0  0  0
  144.5746   74.5435  218.0370 H   0  0  0  0  0  0  0  0  0  0  0  0
  143.9585   72.8816  218.1748 H   0  0  0  0  0  0  0  0  0  0  0  0
  142.5016   77.3228  221.2394 H   0  0  0  0  0  0  0  0  0  0  0  0
  141.5171   77.7001  219.7977 H   0  0  0  0  0  0  0  0  0  0  0  0
  143.1304   78.1197  223.0781 H   0  0  0  0  0  0  0  0  0  0  0  0
  143.9937   80.1050  224.3459 H   0  0  0  0  0  0  0  0  0  0  0  0
  142.6491   82.1853  224.3897 H   0  0  0  0  0  0  0  0  0  0  0  0
  140.4743   82.3250  223.2074 H   0  0  0  0  0  0  0  0  0  0  0  0
  1  2  2  0
  2  3  1  0
  3  4  2  0
  4  5  1  0
  5  6  2  0
  6  7  1  0
  7  8  2  0
  8  9  1  0
  9 10  2  0
 10 11  1  0
  2 12  1  0
 12 13  1  0
 14 13  1  6
 14 15  1  0
 15 16  1  0
 16 17  1  0
 17 18  1  0
 18 19  1  0
 19 20  1  0
 20 21  1  0
 21 22  1  0
 22 23  1  0
 23 24  1  0
 17 25  1  0
 14 26  1  0
 26 27  2  0
 27 28  1  0
 28 29  2  0
 29 30  1  0
 30 31  2  0
 11  3  1  0
 31 12  1  0
 10  5  1  0
 25 14  1  0
 31 26  1  0
 24 20  1  0
  4 32  1  0
  6 33  1  0
  7 34  1  0
  8 35  1  0
  9 36  1  0
 11 37  1  0
 13 38  1  0
 13 39  1  0
 15 40  1  0
 15 41  1  0
 16 42  1  0
 16 43  1  0
 18 44  1  0
 18 45  1  0
 19 46  1  0
 19 47  1  0
 20 48  1  1
 21 49  1  0
 21 50  1  0
 22 51  1  0
 22 52  1  0
 23 53  1  0
 24 54  1  0
 24 55  1  0
 25 56  1  0
 25 57  1  0
 27 58  1  0
 28 59  1  0
 29 60  1  0
 30 61  1  0
M  END
>  <smiles>  (39) 
O=C(c1cc2ccccc2[nH]1)N1C[C@]2(CCN(CCC3CCNC3)C2)c2ccccc21

>  <score_type>  (39) 
oracle

>  <origin>  (39) 
autodockgpu

>  <m_score__min__energy>  (39) 
-9.6400000000000006

>  <m_primary>  (39) 
energy

>  <rmsd>  (39) 
10.128959054026332

>  <m_score__min__rmsd>  (39) 
10.128959054026332

>  <meeko>  (39) 
{"free_energy": -8.99, "intermolecular_energy": -10.48, "internal_energy": -1.26, "cluster_size": 45, "cluster_id": 1, "rank_in_cluster": 37}

>  <energy>  (39) 
-8.9

>  <cluster_rmsd>  (39) 
1.15

>  <cluster>  (39) 
1

$$$$

     RDKit          3D

 61 66  0  0  1  0  0  0  0  0999 V2000
  140.1540   74.0950  222.0930 O   0  0  0  0  0  0  0  0  0  0  0  0
  141.0270   74.6040  221.3040 C   0  0  0  0  0  0  0  0  0  0  0  0
  141.1930   76.0300  221.3750 C   0  0  0  0  0  0  0  0  0  0  0  0
  141.4940   76.9040  220.3340 C   0  0  0  0  0  0  0  0  0  0  0  0
  141.5590   78.1950  220.8320 C   0  0  0  0  0  0  0  0  0  0  0  0
  141.8170   79.4260  220.2560 C   0  0  0  0  0  0  0  0  0  0  0  0
  141.8120   80.5590  221.0340 C   0  0  0  0  0  0  0  0  0  0  0  0
  141.5460   80.4510  222.3890 C   0  0  0  0  0  0  0  0  0  0  0  0
  141.2850   79.2110  222.9730 C   0  0  0  0  0  0  0  0  0  0  0  0
  141.2920   78.0860  222.1930 C   0  0  0  0  0  0  0  0  0  0  0  0
  141.0750   76.7840  222.5040 N   0  0  0  0  0  0  0  0  0  0  0  0
  141.7450   73.7400  220.4400 N   0  0  0  0  0  0  0  0  0  0  0  0
  141.1760   72.8990  219.4080 C   0  0  0  0  0  0  0  0  0  0  0  0
  142.1250   71.6970  219.4670 C   0  0  1  0  0  0  0  0  0  0  0  0
  141.6140   70.7550  220.4930 C   0  0  0  0  0  0  0  0  0  0  0  0
  140.9940   69.6370  219.7070 C   0  0  0  0  0  0  0  0  0  0  0  0
  141.3510   69.7790  218.3400 N   0  0  0  0  0  0  0  0  0  0  0  0
  141.7970   68.6050  217.6690 C   0  0  0  0  0  0  0  0  0  0  0  0
  142.6130   67.6790  218.5030 C   0  0  0  0  0  0  0  0  0  0  0  0
  144.0160   68.2120  218.6490 C   0  0  2  0  0  0  0  0  0  0  0  0
  145.0650   67.2440  218.1380 C   0  0  0  0  0  0  0  0  0  0  0  0
  146.3190   67.8930  218.7450 C   0  0  0  0  0  0  0  0  0  0  0  0
  145.8610   68.0060  220.1360 N   0  0  0  0  0  0  0  0  0  0  0  0
  144.4570   68.3880  220.0750 C   0  0  0  0  0  0  0  0  0  0  0  0
  142.1500   70.9470  218.1850 C   0  0  0  0  0  0  0  0  0  0  0  0
  143.4350   72.2980  219.8200 C   0  0  0  0  0  0  0  0  0  0  0  0
  144.7100   71.8040  219.6420 C   0  0  0  0  0  0  0  0  0  0  0  0
  145.7750   72.5770  220.0710 C   0  0  0  0  0  0  0  0  0  0  0  0
  145.5200   73.8010  220.6540 C   0  0  0  0  0  0  0  0  0  0  0  0
  144.2210   74.2700  220.8190 C   0  0  0  0  0  0  0  0  0  0  0  0
  143.1640   73.5170  220.4000 C   0  0  0  0  0  0  0  0  0  0  0  0
  141.6544   76.6157  219.2846 H   0  0  0  0  0  0  0  0  0  0  0  0
  142.0256   79.4979  219.1783 H   0  0  0  0  0  0  0  0  0  0  0  0
  142.0172   81.5420  220.5849 H   0  0  0  0  0  0  0  0  0  0  0  0
  141.5404   81.3562  223.0140 H   0  0  0  0  0  0  0  0  0  0  0  0
  141.0755   79.1380  224.0504 H   0  0  0  0  0  0  0  0  0  0  0  0
  140.8560   76.4660  223.4740 H   0  0  0  0  0  0  0  0  0  0  0  0
  140.1412   72.6106  219.6447 H   0  0  0  0  0  0  0  0  0  0  0  0
  141.1028   73.3753  218.4192 H   0  0  0  0  0  0  0  0  0  0  0  0
  142.4367   70.3795  221.1192 H   0  0  0  0  0  0  0  0  0  0  0  0
  140.8959   71.2323  221.1760 H   0  0  0  0  0  0  0  0  0  0  0  0
  141.3616   68.6719  220.0858 H   0  0  0  0  0  0  0  0  0  0  0  0
  139.8995   69.6725  219.8107 H   0  0  0  0  0  0  0  0  0  0  0  0
  140.9118   68.0562  217.3152 H   0  0  0  0  0  0  0  0  0  0  0  0
  142.4523   68.9452  216.8536 H   0  0  0  0  0  0  0  0  0  0  0  0
  142.1540   67.5859  219.4983 H   0  0  0  0  0  0  0  0  0  0  0  0
  142.6514   66.6942  218.0144 H   0  0  0  0  0  0  0  0  0  0  0  0
  143.9566   69.1586  218.0919 H   0  0  0  0  0  0  0  0  0  0  0  0
  144.9042   66.2247  218.5190 H   0  0  0  0  0  0  0  0  0  0  0  0
  145.0874   67.1083  217.0466 H   0  0  0  0  0  0  0  0  0  0  0  0
  147.2048   67.2474  218.6524 H   0  0  0  0  0  0  0  0  0  0  0  0
  146.6439   68.8322  218.2736 H   0  0  0  0  0  0  0  0  0  0  0  0
  145.9520   67.0220  220.5250 H   0  0  0  0  0  0  0  0  0  0  0  0
  143.8608   67.7431  220.7373 H   0  0  0  0  0  0  0  0  0  0  0  0
  144.3184   69.4286  220.4035 H   0  0  0  0  0  0  0  0  0  0  0  0
  143.1837   70.6617  217.9401 H   0  0  0  0  0  0  0  0  0  0  0  0
  141.7566   71.5723  217.3700 H   0  0  0  0  0  0  0  0  0  0  0  0
  144.8761   70.8233  219.1723 H   0  0  0  0  0  0  0  0  0  0  0  0
  146.8086   72.2209  219.9490 H   0  0  0  0  0  0  0  0  0  0  0  0
  146.3627   74.4198  220.9960 H   0  0  0  0  0  0  0  0  0  0  0  0
  144.0460   75.2495  221.2880 H   0  0  0  0  0  0  0  0  0  0  0  0
  1  2  2  0
  2  3  1  0
  3  4  2  0
  4  5  1  0
  5  6  2  0
  6  7  1  0
  7  8  2  0
  8  9  1  0
  9 10  2  0
 10 11  1  0
  2 12  1  0
 12 13  1  0
 14 13  1  6
 14 15  1  0
 15 16  1  0
 16 17  1  0
 17 18  1  0
 18 19  1  0
 19 20  1  0
 20 21  1  0
 21 22  1  0
 22 23  1  0
 23 24  1  0
 17 25  1  0
 14 26  1  0
 26 27  2  0
 27 28  1  0
 28 29  2  0
 29 30  1  0
 30 31  2  0
 11  3  1  0
 31 12  1  0
 10  5  1  0
 25 14  1  0
 31 26  1  0
 24 20  1  0
  4 32  1  0
  6 33  1  0
  7 34  1  0
  8 35  1  0
  9 36  1  0
 11 37  1  0
 13 38  1  0
 13 39  1  0
 15 40  1  0
 15 41  1  0
 16 42  1  0
 16 43  1  0
 18 44  1  0
 18 45  1  0
 19 46  1  0
 19 47  1  0
 20 48  1  6
 21 49  1  0
 21 50  1  0
 22 51  1  0
 22 52  1  0
 23 53  1  0
 24 54  1  0
 24 55  1  0
 25 56  1  0
 25 57  1  0
 27 58  1  0
 28 59  1  0
 29 60  1  0
 30 61  1  0
M  END
>  <smiles>  (40) 
O=C(c1cc2ccccc2[nH]1)N1C[C@]2(CCN(CCC3CCNC3)C2)c2ccccc21

>  <score_type>  (40) 
oracle

>  <origin>  (40) 
autodockgpu

>  <m_score__min__energy>  (40) 
-9.6400000000000006

>  <m_primary>  (40) 
energy

>  <rmsd>  (40) 
7.625338901996736

>  <m_score__min__rmsd>  (40) 
7.625338901996736

>  <meeko>  (40) 
{"free_energy": -8.08, "intermolecular_energy": -9.58, "internal_energy": -1.81, "cluster_size": 1, "cluster_id": 4, "rank_in_cluster": 1}

>  <energy>  (40) 
-8.82

>  <cluster_rmsd>  (40) 
1.13

>  <cluster>  (40) 
1

$$$$

     RDKit          3D

 61 66  0  0  1  0  0  0  0  0999 V2000
  140.2860   75.5520  222.0400 O   0  0  0  0  0  0  0  0  0  0  0  0
  140.6370   76.7220  221.6490 C   0  0  0  0  0  0  0  0  0  0  0  0
  141.3400   76.7900  220.3980 C   0  0  0  0  0  0  0  0  0  0  0  0
  141.2350   77.7700  219.4150 C   0  0  0  0  0  0  0  0  0  0  0  0
  142.0910   77.4570  218.3710 C   0  0  0  0  0  0  0  0  0  0  0  0
  142.3840   78.0680  217.1650 C   0  0  0  0  0  0  0  0  0  0  0  0
  143.3040   77.4990  216.3180 C   0  0  0  0  0  0  0  0  0  0  0  0
  143.9270   76.3170  216.6850 C   0  0  0  0  0  0  0  0  0  0  0  0
  143.6330   75.7000  217.9010 C   0  0  0  0  0  0  0  0  0  0  0  0
  142.7160   76.2710  218.7410 C   0  0  0  0  0  0  0  0  0  0  0  0
  142.2570   75.8830  219.9570 N   0  0  0  0  0  0  0  0  0  0  0  0
  140.3120   77.8340  222.4660 N   0  0  0  0  0  0  0  0  0  0  0  0
  139.0320   78.0870  223.0940 C   0  0  0  0  0  0  0  0  0  0  0  0
  138.9860   79.6180  223.0360 C   0  0  1  0  0  0  0  0  0  0  0  0
  138.4030   80.0130  221.7300 C   0  0  0  0  0  0  0  0  0  0  0  0
  137.0030   80.4460  222.0540 C   0  0  0  0  0  0  0  0  0  0  0  0
  136.8660   80.5520  223.4630 N   0  0  0  0  0  0  0  0  0  0  0  0
  136.2260   81.7240  223.9580 C   0  0  0  0  0  0  0  0  0  0  0  0
  136.8850   82.3450  225.1410 C   0  0  0  0  0  0  0  0  0  0  0  0
  135.9180   82.4130  226.2960 C   0  0  2  0  0  0  0  0  0  0  0  0
  136.5380   81.9600  227.6040 C   0  0  0  0  0  0  0  0  0  0  0  0
  135.2600   81.8010  228.4430 C   0  0  0  0  0  0  0  0  0  0  0  0
  134.4910   80.9550  227.5190 N   0  0  0  0  0  0  0  0  0  0  0  0
  134.7610   81.4600  226.1800 C   0  0  0  0  0  0  0  0  0  0  0  0
  138.0950   80.1860  224.0810 C   0  0  0  0  0  0  0  0  0  0  0  0
  140.4050   80.0210  223.1930 C   0  0  0  0  0  0  0  0  0  0  0  0
  140.9420   81.2240  223.5990 C   0  0  0  0  0  0  0  0  0  0  0  0
  142.3200   81.3380  223.6570 C   0  0  0  0  0  0  0  0  0  0  0  0
  143.0950   80.2520  223.3080 C   0  0  0  0  0  0  0  0  0  0  0  0
  142.5220   79.0510  222.9010 C   0  0  0  0  0  0  0  0  0  0  0  0
  141.1650   78.9280  222.8420 C   0  0  0  0  0  0  0  0  0  0  0  0
  140.5782   78.6512  219.4597 H   0  0  0  0  0  0  0  0  0  0  0  0
  141.8822   79.0060  216.8852 H   0  0  0  0  0  0  0  0  0  0  0  0
  143.5439   77.9775  215.3570 H   0  0  0  0  0  0  0  0  0  0  0  0
  144.6634   75.8590  216.0083 H   0  0  0  0  0  0  0  0  0  0  0  0
  144.1342   74.7621  218.1824 H   0  0  0  0  0  0  0  0  0  0  0  0
  142.5880   75.0150  220.4330 H   0  0  0  0  0  0  0  0  0  0  0  0
  138.2054   77.6347  222.5264 H   0  0  0  0  0  0  0  0  0  0  0  0
  138.9271   77.6646  224.1042 H   0  0  0  0  0  0  0  0  0  0  0  0
  138.9727   80.8425  221.2857 H   0  0  0  0  0  0  0  0  0  0  0  0
  138.4262   79.1921  220.9981 H   0  0  0  0  0  0  0  0  0  0  0  0
  136.8023   81.4227  221.5895 H   0  0  0  0  0  0  0  0  0  0  0  0
  136.2864   79.7073  221.6656 H   0  0  0  0  0  0  0  0  0  0  0  0
  136.2035   82.4689  223.1489 H   0  0  0  0  0  0  0  0  0  0  0  0
  135.2247   81.4125  224.2901 H   0  0  0  0  0  0  0  0  0  0  0  0
  137.7566   81.7400  225.4313 H   0  0  0  0  0  0  0  0  0  0  0  0
  137.2070   83.3640  224.8803 H   0  0  0  0  0  0  0  0  0  0  0  0
  135.6147   83.4702  226.2752 H   0  0  0  0  0  0  0  0  0  0  0  0
  137.0791   81.0086  227.4948 H   0  0  0  0  0  0  0  0  0  0  0  0
  137.2953   82.6378  228.0249 H   0  0  0  0  0  0  0  0  0  0  0  0
  135.4542   81.2968  229.4011 H   0  0  0  0  0  0  0  0  0  0  0  0
  134.7716   82.7381  228.7485 H   0  0  0  0  0  0  0  0  0  0  0  0
  134.9120   79.9880  227.6340 H   0  0  0  0  0  0  0  0  0  0  0  0
  135.0217   80.6290  225.5081 H   0  0  0  0  0  0  0  0  0  0  0  0
  133.8763   81.9646  225.7644 H   0  0  0  0  0  0  0  0  0  0  0  0
  138.5653   81.0732  224.5300 H   0  0  0  0  0  0  0  0  0  0  0  0
  137.9169   79.4448  224.8740 H   0  0  0  0  0  0  0  0  0  0  0  0
  140.2931   82.0700  223.8694 H   0  0  0  0  0  0  0  0  0  0  0  0
  142.7897   82.2800  223.9764 H   0  0  0  0  0  0  0  0  0  0  0  0
  144.1908   80.3371  223.3524 H   0  0  0  0  0  0  0  0  0  0  0  0
  143.1637   78.2007  222.6268 H   0  0  0  0  0  0  0  0  0  0  0  0
  1  2  2  0
  2  3  1  0
  3  4  2  0
  4  5  1  0
  5  6  2  0
  6  7  1  0
  7  8  2  0
  8  9  1  0
  9 10  2  0
 10 11  1  0
  2 12  1  0
 12 13  1  0
 14 13  1  6
 14 15  1  0
 15 16  1  0
 16 17  1  0
 17 18  1  0
 18 19  1  0
 19 20  1  0
 20 21  1  0
 21 22  1  0
 22 23  1  0
 23 24  1  0
 17 25  1  0
 14 26  1  0
 26 27  2  0
 27 28  1  0
 28 29  2  0
 29 30  1  0
 30 31  2  0
 11  3  1  0
 31 12  1  0
 10  5  1  0
 25 14  1  0
 31 26  1  0
 24 20  1  0
  4 32  1  0
  6 33  1  0
  7 34  1  0
  8 35  1  0
  9 36  1  0
 11 37  1  0
 13 38  1  0
 13 39  1  0
 15 40  1  0
 15 41  1  0
 16 42  1  0
 16 43  1  0
 18 44  1  0
 18 45  1  0
 19 46  1  0
 19 47  1  0
 20 48  1  1
 21 49  1  0
 21 50  1  0
 22 51  1  0
 22 52  1  0
 23 53  1  0
 24 54  1  0
 24 55  1  0
 25 56  1  0
 25 57  1  0
 27 58  1  0
 28 59  1  0
 29 60  1  0
 30 61  1  0
M  END
>  <smiles>  (41) 
O=C(c1cc2ccccc2[nH]1)N1C[C@]2(CCN(CCC3CCNC3)C2)c2ccccc21

>  <score_type>  (41) 
oracle

>  <origin>  (41) 
autodockgpu

>  <m_score__min__energy>  (41) 
-9.6400000000000006

>  <m_primary>  (41) 
energy

>  <rmsd>  (41) 
8.063418773135874

>  <m_score__min__rmsd>  (41) 
8.063418773135874

>  <meeko>  (41) 
{"free_energy": -8.06, "intermolecular_energy": -9.56, "internal_energy": -1.51, "cluster_size": 1, "cluster_id": 5, "rank_in_cluster": 1}

>  <energy>  (41) 
-8.78

>  <cluster_rmsd>  (41) 
1.06

>  <cluster>  (41) 
1

$$$$

     RDKit          3D

 61 66  0  0  1  0  0  0  0  0999 V2000
  137.3840   80.3010  220.9820 O   0  0  0  0  0  0  0  0  0  0  0  0
  138.2400   80.4350  221.9270 C   0  0  0  0  0  0  0  0  0  0  0  0
  137.7550   81.0290  223.1430 C   0  0  0  0  0  0  0  0  0  0  0  0
  137.7310   80.4620  224.4150 C   0  0  0  0  0  0  0  0  0  0  0  0
  137.1870   81.3740  225.3050 C   0  0  0  0  0  0  0  0  0  0  0  0
  136.9300   81.3400  226.6650 C   0  0  0  0  0  0  0  0  0  0  0  0
  136.3680   82.4320  227.2800 C   0  0  0  0  0  0  0  0  0  0  0  0
  136.0670   83.5560  226.5280 C   0  0  0  0  0  0  0  0  0  0  0  0
  136.3250   83.5930  225.1580 C   0  0  0  0  0  0  0  0  0  0  0  0
  136.8850   82.5020  224.5500 C   0  0  0  0  0  0  0  0  0  0  0  0
  137.2300   82.2810  223.2570 N   0  0  0  0  0  0  0  0  0  0  0  0
  139.5700   80.0000  221.7040 N   0  0  0  0  0  0  0  0  0  0  0  0
  140.0120   79.1120  220.6490 C   0  0  0  0  0  0  0  0  0  0  0  0
  141.1430   78.3630  221.3650 C   0  0  1  0  0  0  0  0  0  0  0  0
  140.5520   77.2010  222.0720 C   0  0  0  0  0  0  0  0  0  0  0  0
  140.9250   76.0150  221.2330 C   0  0  0  0  0  0  0  0  0  0  0  0
  141.8810   76.4170  220.2630 N   0  0  0  0  0  0  0  0  0  0  0  0
  143.0170   75.5740  220.0960 C   0  0  0  0  0  0  0  0  0  0  0  0
  142.7190   74.1150  220.0940 C   0  0  0  0  0  0  0  0  0  0  0  0
  143.9970   73.3250  220.2280 C   0  0  2  0  0  0  0  0  0  0  0  0
  145.1240   74.1380  220.8330 C   0  0  0  0  0  0  0  0  0  0  0  0
  146.3050   73.2120  220.4980 C   0  0  0  0  0  0  0  0  0  0  0  0
  146.0490   73.0350  219.0620 N   0  0  0  0  0  0  0  0  0  0  0  0
  144.6050   72.9200  218.9140 C   0  0  0  0  0  0  0  0  0  0  0  0
  142.1340   77.8100  220.4060 C   0  0  0  0  0  0  0  0  0  0  0  0
  141.7160   79.3810  222.2790 C   0  0  0  0  0  0  0  0  0  0  0  0
  142.9570   79.4310  222.8770 C   0  0  0  0  0  0  0  0  0  0  0  0
  143.2420   80.5060  223.7030 C   0  0  0  0  0  0  0  0  0  0  0  0
  142.2790   81.4760  223.8910 C   0  0  0  0  0  0  0  0  0  0  0  0
  141.0360   81.3950  223.2730 C   0  0  0  0  0  0  0  0  0  0  0  0
  140.7450   80.3410  222.4580 C   0  0  0  0  0  0  0  0  0  0  0  0
  138.0865   79.4531  224.6715 H   0  0  0  0  0  0  0  0  0  0  0  0
  137.1750   80.4418  227.2508 H   0  0  0  0  0  0  0  0  0  0  0  0
  136.1588   82.4143  228.3598 H   0  0  0  0  0  0  0  0  0  0  0  0
  135.6179   84.4321  227.0188 H   0  0  0  0  0  0  0  0  0  0  0  0
  136.0807   84.4908  224.5713 H   0  0  0  0  0  0  0  0  0  0  0  0
  137.0920   82.9940  222.5080 H   0  0  0  0  0  0  0  0  0  0  0  0
  139.2104   78.4288  220.3316 H   0  0  0  0  0  0  0  0  0  0  0  0
  140.3153   79.6195  219.7214 H   0  0  0  0  0  0  0  0  0  0  0  0
  140.9725   77.1078  223.0842 H   0  0  0  0  0  0  0  0  0  0  0  0
  139.4632   77.2982  222.1947 H   0  0  0  0  0  0  0  0  0  0  0  0
  141.3564   75.2314  221.8732 H   0  0  0  0  0  0  0  0  0  0  0  0
  140.0301   75.6189  220.7308 H   0  0  0  0  0  0  0  0  0  0  0  0
  143.4925   75.8271  219.1369 H   0  0  0  0  0  0  0  0  0  0  0  0
  143.6667   75.7554  220.9649 H   0  0  0  0  0  0  0  0  0  0  0  0
  142.0546   73.8782  220.9381 H   0  0  0  0  0  0  0  0  0  0  0  0
  142.2288   73.8488  219.1459 H   0  0  0  0  0  0  0  0  0  0  0  0
  143.6716   72.4694  220.8379 H   0  0  0  0  0  0  0  0  0  0  0  0
  145.2244   75.1227  220.3531 H   0  0  0  0  0  0  0  0  0  0  0  0
  145.0069   74.3843  221.8986 H   0  0  0  0  0  0  0  0  0  0  0  0
  147.2753   73.6937  220.6889 H   0  0  0  0  0  0  0  0  0  0  0  0
  146.3656   72.2857  221.0882 H   0  0  0  0  0  0  0  0  0  0  0  0
  146.3880   73.9390  218.6200 H   0  0  0  0  0  0  0  0  0  0  0  0
  144.2527   73.5864  218.1129 H   0  0  0  0  0  0  0  0  0  0  0  0
  144.3174   71.8922  218.6476 H   0  0  0  0  0  0  0  0  0  0  0  0
  143.1526   77.9664  220.7907 H   0  0  0  0  0  0  0  0  0  0  0  0
  142.0457   78.3153  219.4329 H   0  0  0  0  0  0  0  0  0  0  0  0
  143.7005   78.6392  222.7031 H   0  0  0  0  0  0  0  0  0  0  0  0
  144.2198   80.5849  224.2007 H   0  0  0  0  0  0  0  0  0  0  0  0
  142.4995   82.3328  224.5446 H   0  0  0  0  0  0  0  0  0  0  0  0
  140.2864   82.1822  223.4417 H   0  0  0  0  0  0  0  0  0  0  0  0
  1  2  2  0
  2  3  1  0
  3  4  2  0
  4  5  1  0
  5  6  2  0
  6  7  1  0
  7  8  2  0
  8  9  1  0
  9 10  2  0
 10 11  1  0
  2 12  1  0
 12 13  1  0
 14 13  1  6
 14 15  1  0
 15 16  1  0
 16 17  1  0
 17 18  1  0
 18 19  1  0
 19 20  1  0
 20 21  1  0
 21 22  1  0
 22 23  1  0
 23 24  1  0
 17 25  1  0
 14 26  1  0
 26 27  2  0
 27 28  1  0
 28 29  2  0
 29 30  1  0
 30 31  2  0
 11  3  1  0
 31 12  1  0
 10  5  1  0
 25 14  1  0
 31 26  1  0
 24 20  1  0
  4 32  1  0
  6 33  1  0
  7 34  1  0
  8 35  1  0
  9 36  1  0
 11 37  1  0
 13 38  1  0
 13 39  1  0
 15 40  1  0
 15 41  1  0
 16 42  1  0
 16 43  1  0
 18 44  1  0
 18 45  1  0
 19 46  1  0
 19 47  1  0
 20 48  1  1
 21 49  1  0
 21 50  1  0
 22 51  1  0
 22 52  1  0
 23 53  1  0
 24 54  1  0
 24 55  1  0
 25 56  1  0
 25 57  1  0
 27 58  1  0
 28 59  1  0
 29 60  1  0
 30 61  1  0
M  END
>  <smiles>  (42) 
O=C(c1cc2ccccc2[nH]1)N1C[C@]2(CCN(CCC3CCNC3)C2)c2ccccc21

>  <score_type>  (42) 
oracle

>  <origin>  (42) 
autodockgpu

>  <m_score__min__energy>  (42) 
-9.6400000000000006

>  <m_primary>  (42) 
energy

>  <rmsd>  (42) 
9.830280596725418

>  <m_score__min__rmsd>  (42) 
9.830280596725418

>  <meeko>  (42) 
{"free_energy": -9.34, "intermolecular_energy": -10.83, "internal_energy": -1.3, "cluster_size": 45, "cluster_id": 1, "rank_in_cluster": 18}

>  <energy>  (42) 
-8.76

>  <cluster_rmsd>  (42) 
1.18

>  <cluster>  (42) 
1

$$$$

     RDKit          3D

 61 66  0  0  1  0  0  0  0  0999 V2000
  137.2240   80.7150  220.9090 O   0  0  0  0  0  0  0  0  0  0  0  0
  138.0100   80.6110  221.9170 C   0  0  0  0  0  0  0  0  0  0  0  0
  137.5510   81.2040  223.1430 C   0  0  0  0  0  0  0  0  0  0  0  0
  137.0150   82.4760  223.3250 C   0  0  0  0  0  0  0  0  0  0  0  0
  136.6980   82.6470  224.6630 C   0  0  0  0  0  0  0  0  0  0  0  0
  136.1510   83.6920  225.3860 C   0  0  0  0  0  0  0  0  0  0  0  0
  135.9520   83.5550  226.7380 C   0  0  0  0  0  0  0  0  0  0  0  0
  136.3020   82.3680  227.3610 C   0  0  0  0  0  0  0  0  0  0  0  0
  136.8540   81.3130  226.6340 C   0  0  0  0  0  0  0  0  0  0  0  0
  137.0500   81.4540  225.2870 C   0  0  0  0  0  0  0  0  0  0  0  0
  137.5600   80.6000  224.3650 N   0  0  0  0  0  0  0  0  0  0  0  0
  139.2440   79.9370  221.7470 N   0  0  0  0  0  0  0  0  0  0  0  0
  139.4920   78.8200  220.8600 C   0  0  0  0  0  0  0  0  0  0  0  0
  140.5290   78.0370  221.6730 C   0  0  1  0  0  0  0  0  0  0  0  0
  139.8040   77.1260  222.5910 C   0  0  0  0  0  0  0  0  0  0  0  0
  139.9490   75.7670  221.9710 C   0  0  0  0  0  0  0  0  0  0  0  0
  140.9050   75.8360  220.9240 N   0  0  0  0  0  0  0  0  0  0  0  0
  141.8900   74.8070  220.8870 C   0  0  0  0  0  0  0  0  0  0  0  0
  143.0160   75.0520  219.9430 C   0  0  0  0  0  0  0  0  0  0  0  0
  143.9740   73.8880  219.9660 C   0  0  2  0  0  0  0  0  0  0  0  0
  145.1930   74.1530  220.8270 C   0  0  0  0  0  0  0  0  0  0  0  0
  146.0860   72.9930  220.3560 C   0  0  0  0  0  0  0  0  0  0  0  0
  145.9950   73.2160  218.9070 N   0  0  0  0  0  0  0  0  0  0  0  0
  144.6160   73.6000  218.6370 C   0  0  0  0  0  0  0  0  0  0  0  0
  141.3750   77.1750  220.8080 C   0  0  0  0  0  0  0  0  0  0  0  0
  141.2970   79.0940  222.3770 C   0  0  0  0  0  0  0  0  0  0  0  0
  142.5590   79.0500  222.9290 C   0  0  0  0  0  0  0  0  0  0  0  0
  143.0460   80.1920  223.5410 C   0  0  0  0  0  0  0  0  0  0  0  0
  142.2540   81.3210  223.5730 C   0  0  0  0  0  0  0  0  0  0  0  0
  140.9830   81.3320  223.0060 C   0  0  0  0  0  0  0  0  0  0  0  0
  140.4950   80.2130  222.4010 C   0  0  0  0  0  0  0  0  0  0  0  0
  136.8669   83.2252  222.5334 H   0  0  0  0  0  0  0  0  0  0  0  0
  135.8765   84.6292  224.8798 H   0  0  0  0  0  0  0  0  0  0  0  0
  135.5184   84.3807  227.3213 H   0  0  0  0  0  0  0  0  0  0  0  0
  136.1425   82.2559  228.4436 H   0  0  0  0  0  0  0  0  0  0  0  0
  137.1294   80.3756  227.1393 H   0  0  0  0  0  0  0  0  0  0  0  0
  137.8930   79.6410  224.6100 H   0  0  0  0  0  0  0  0  0  0  0  0
  138.5806   78.2284  220.6885 H   0  0  0  0  0  0  0  0  0  0  0  0
  139.8228   79.1035  219.8500 H   0  0  0  0  0  0  0  0  0  0  0  0
  140.2559   77.1453  223.5937 H   0  0  0  0  0  0  0  0  0  0  0  0
  138.7504   77.4153  222.7187 H   0  0  0  0  0  0  0  0  0  0  0  0
  140.2871   75.0486  222.7323 H   0  0  0  0  0  0  0  0  0  0  0  0
  138.9800   75.4371  221.5682 H   0  0  0  0  0  0  0  0  0  0  0  0
  142.3091   74.6983  221.8982 H   0  0  0  0  0  0  0  0  0  0  0  0
  141.3779   73.9017  220.5289 H   0  0  0  0  0  0  0  0  0  0  0  0
  142.6173   75.1750  218.9252 H   0  0  0  0  0  0  0  0  0  0  0  0
  143.5500   75.9639  220.2485 H   0  0  0  0  0  0  0  0  0  0  0  0
  143.3299   73.0713  220.3239 H   0  0  0  0  0  0  0  0  0  0  0  0
  145.6438   75.1329  220.6112 H   0  0  0  0  0  0  0  0  0  0  0  0
  145.0045   74.1918  221.9100 H   0  0  0  0  0  0  0  0  0  0  0  0
  147.1177   73.0890  220.7253 H   0  0  0  0  0  0  0  0  0  0  0  0
  145.7886   71.9924  220.7030 H   0  0  0  0  0  0  0  0  0  0  0  0
  146.6420   74.0370  218.7240 H   0  0  0  0  0  0  0  0  0  0  0  0
  144.5909   74.4981  218.0023 H   0  0  0  0  0  0  0  0  0  0  0  0
  144.0809   72.7983  218.1069 H   0  0  0  0  0  0  0  0  0  0  0  0
  142.4234   77.2320  221.1360 H   0  0  0  0  0  0  0  0  0  0  0  0
  141.3168   77.5103  219.7620 H   0  0  0  0  0  0  0  0  0  0  0  0
  143.1631   78.1318  222.8844 H   0  0  0  0  0  0  0  0  0  0  0  0
  144.0482   80.1992  223.9944 H   0  0  0  0  0  0  0  0  0  0  0  0
  142.6352   82.2322  224.0571 H   0  0  0  0  0  0  0  0  0  0  0  0
  140.3715   82.2455  223.0464 H   0  0  0  0  0  0  0  0  0  0  0  0
  1  2  2  0
  2  3  1  0
  3  4  2  0
  4  5  1  0
  5  6  2  0
  6  7  1  0
  7  8  2  0
  8  9  1  0
  9 10  2  0
 10 11  1  0
  2 12  1  0
 12 13  1  0
 14 13  1  6
 14 15  1  0
 15 16  1  0
 16 17  1  0
 17 18  1  0
 18 19  1  0
 19 20  1  0
 20 21  1  0
 21 22  1  0
 22 23  1  0
 23 24  1  0
 17 25  1  0
 14 26  1  0
 26 27  2  0
 27 28  1  0
 28 29  2  0
 29 30  1  0
 30 31  2  0
 11  3  1  0
 31 12  1  0
 10  5  1  0
 25 14  1  0
 31 26  1  0
 24 20  1  0
  4 32  1  0
  6 33  1  0
  7 34  1  0
  8 35  1  0
  9 36  1  0
 11 37  1  0
 13 38  1  0
 13 39  1  0
 15 40  1  0
 15 41  1  0
 16 42  1  0
 16 43  1  0
 18 44  1  0
 18 45  1  0
 19 46  1  0
 19 47  1  0
 20 48  1  1
 21 49  1  0
 21 50  1  0
 22 51  1  0
 22 52  1  0
 23 53  1  0
 24 54  1  0
 24 55  1  0
 25 56  1  0
 25 57  1  0
 27 58  1  0
 28 59  1  0
 29 60  1  0
 30 61  1  0
M  END
>  <smiles>  (43) 
O=C(c1cc2ccccc2[nH]1)N1C[C@]2(CCN(CCC3CCNC3)C2)c2ccccc21

>  <score_type>  (43) 
oracle

>  <origin>  (43) 
autodockgpu

>  <m_score__min__energy>  (43) 
-9.6400000000000006

>  <m_primary>  (43) 
energy

>  <rmsd>  (43) 
9.985603019149028

>  <m_score__min__rmsd>  (43) 
9.985603019149028

>  <meeko>  (43) 
{"free_energy": -9.0, "intermolecular_energy": -10.49, "internal_energy": -1.25, "cluster_size": 45, "cluster_id": 1, "rank_in_cluster": 36}

>  <energy>  (43) 
-8.75

>  <cluster_rmsd>  (43) 
1.13

>  <cluster>  (43) 
1

$$$$

     RDKit          3D

 61 66  0  0  1  0  0  0  0  0999 V2000
  137.1900   80.7020  221.0730 O   0  0  0  0  0  0  0  0  0  0  0  0
  137.9760   80.5920  222.0800 C   0  0  0  0  0  0  0  0  0  0  0  0
  137.5070   81.1550  223.3160 C   0  0  0  0  0  0  0  0  0  0  0  0
  137.4190   80.5280  224.5570 C   0  0  0  0  0  0  0  0  0  0  0  0
  136.9180   81.4290  225.4830 C   0  0  0  0  0  0  0  0  0  0  0  0
  136.6320   81.3440  226.8350 C   0  0  0  0  0  0  0  0  0  0  0  0
  136.1310   82.4390  227.4960 C   0  0  0  0  0  0  0  0  0  0  0  0
  135.9190   83.6170  226.7970 C   0  0  0  0  0  0  0  0  0  0  0  0
  136.2070   83.7050  225.4350 C   0  0  0  0  0  0  0  0  0  0  0  0
  136.7070   82.6110  224.7810 C   0  0  0  0  0  0  0  0  0  0  0  0
  137.0630   82.4320  223.4850 N   0  0  0  0  0  0  0  0  0  0  0  0
  139.2210   79.9400  221.8990 N   0  0  0  0  0  0  0  0  0  0  0  0
  139.4930   78.8600  220.9740 C   0  0  0  0  0  0  0  0  0  0  0  0
  140.5320   78.0610  221.7700 C   0  0  1  0  0  0  0  0  0  0  0  0
  139.8080   77.1060  222.6450 C   0  0  0  0  0  0  0  0  0  0  0  0
  139.9770   75.7740  221.9760 C   0  0  0  0  0  0  0  0  0  0  0  0
  140.9450   75.8940  220.9440 N   0  0  0  0  0  0  0  0  0  0  0  0
  141.9430   74.8800  220.8800 C   0  0  0  0  0  0  0  0  0  0  0  0
  142.8900   75.0050  219.7370 C   0  0  0  0  0  0  0  0  0  0  0  0
  143.8620   73.8510  219.7410 C   0  0  2  0  0  0  0  0  0  0  0  0
  145.0260   74.0730  220.6860 C   0  0  0  0  0  0  0  0  0  0  0  0
  145.9610   72.9560  220.1940 C   0  0  0  0  0  0  0  0  0  0  0  0
  145.9490   73.2710  218.7590 N   0  0  0  0  0  0  0  0  0  0  0  0
  144.5820   73.6570  218.4360 C   0  0  0  0  0  0  0  0  0  0  0  0
  141.3990   77.2420  220.8840 C   0  0  0  0  0  0  0  0  0  0  0  0
  141.2770   79.1000  222.5220 C   0  0  0  0  0  0  0  0  0  0  0  0
  142.5340   79.0510  223.0870 C   0  0  0  0  0  0  0  0  0  0  0  0
  142.9980   80.1760  223.7470 C   0  0  0  0  0  0  0  0  0  0  0  0
  142.1910   81.2920  223.8120 C   0  0  0  0  0  0  0  0  0  0  0  0
  140.9270   81.3090  223.2310 C   0  0  0  0  0  0  0  0  0  0  0  0
  140.4600   80.2070  222.5790 C   0  0  0  0  0  0  0  0  0  0  0  0
  137.7016   79.4860  224.7678 H   0  0  0  0  0  0  0  0  0  0  0  0
  136.8053   80.4031  227.3778 H   0  0  0  0  0  0  0  0  0  0  0  0
  135.9002   82.3815  228.5700 H   0  0  0  0  0  0  0  0  0  0  0  0
  135.5178   84.4952  227.3240 H   0  0  0  0  0  0  0  0  0  0  0  0
  136.0339   84.6453  224.8910 H   0  0  0  0  0  0  0  0  0  0  0  0
  136.9870   83.1900  222.7710 H   0  0  0  0  0  0  0  0  0  0  0  0
  138.5915   78.2635  220.7706 H   0  0  0  0  0  0  0  0  0  0  0  0
  139.8304   79.1846  219.9786 H   0  0  0  0  0  0  0  0  0  0  0  0
  140.2485   77.0927  223.6529 H   0  0  0  0  0  0  0  0  0  0  0  0
  138.7495   77.3772  222.7713 H   0  0  0  0  0  0  0  0  0  0  0  0
  140.3146   75.0311  222.7136 H   0  0  0  0  0  0  0  0  0  0  0  0
  139.0170   75.4484  221.5488 H   0  0  0  0  0  0  0  0  0  0  0  0
  142.5258   74.9145  221.8123 H   0  0  0  0  0  0  0  0  0  0  0  0
  141.4088   73.9292  220.7362 H   0  0  0  0  0  0  0  0  0  0  0  0
  142.3243   75.0010  218.7936 H   0  0  0  0  0  0  0  0  0  0  0  0
  143.4492   75.9473  219.8339 H   0  0  0  0  0  0  0  0  0  0  0  0
  143.2107   73.0058  220.0083 H   0  0  0  0  0  0  0  0  0  0  0  0
  145.4739   75.0697  220.5598 H   0  0  0  0  0  0  0  0  0  0  0  0
  144.7757   74.0395  221.7566 H   0  0  0  0  0  0  0  0  0  0  0  0
  146.9686   73.0393  220.6273 H   0  0  0  0  0  0  0  0  0  0  0  0
  145.6591   71.9319  220.4587 H   0  0  0  0  0  0  0  0  0  0  0  0
  146.5940   74.1090  218.6680 H   0  0  0  0  0  0  0  0  0  0  0  0
  144.5798   74.5942  217.8600 H   0  0  0  0  0  0  0  0  0  0  0  0
  144.0893   72.8856  217.8259 H   0  0  0  0  0  0  0  0  0  0  0  0
  142.4426   77.2995  221.2268 H   0  0  0  0  0  0  0  0  0  0  0  0
  141.3486   77.6154  219.8505 H   0  0  0  0  0  0  0  0  0  0  0  0
  143.1509   78.1431  223.0153 H   0  0  0  0  0  0  0  0  0  0  0  0
  143.9948   80.1795  224.2122 H   0  0  0  0  0  0  0  0  0  0  0  0
  142.5546   82.1889  224.3349 H   0  0  0  0  0  0  0  0  0  0  0  0
  140.3038   82.2129  223.2979 H   0  0  0  0  0  0  0  0  0  0  0  0
  1  2  2  0
  2  3  1  0
  3  4  2  0
  4  5  1  0
  5  6  2  0
  6  7  1  0
  7  8  2  0
  8  9  1  0
  9 10  2  0
 10 11  1  0
  2 12  1  0
 12 13  1  0
 14 13  1  6
 14 15  1  0
 15 16  1  0
 16 17  1  0
 17 18  1  0
 18 19  1  0
 19 20  1  0
 20 21  1  0
 21 22  1  0
 22 23  1  0
 23 24  1  0
 17 25  1  0
 14 26  1  0
 26 27  2  0
 27 28  1  0
 28 29  2  0
 29 30  1  0
 30 31  2  0
 11  3  1  0
 31 12  1  0
 10  5  1  0
 25 14  1  0
 31 26  1  0
 24 20  1  0
  4 32  1  0
  6 33  1  0
  7 34  1  0
  8 35  1  0
  9 36  1  0
 11 37  1  0
 13 38  1  0
 13 39  1  0
 15 40  1  0
 15 41  1  0
 16 42  1  0
 16 43  1  0
 18 44  1  0
 18 45  1  0
 19 46  1  0
 19 47  1  0
 20 48  1  1
 21 49  1  0
 21 50  1  0
 22 51  1  0
 22 52  1  0
 23 53  1  0
 24 54  1  0
 24 55  1  0
 25 56  1  0
 25 57  1  0
 27 58  1  0
 28 59  1  0
 29 60  1  0
 30 61  1  0
M  END
>  <smiles>  (44) 
O=C(c1cc2ccccc2[nH]1)N1C[C@]2(CCN(CCC3CCNC3)C2)c2ccccc21

>  <score_type>  (44) 
oracle

>  <origin>  (44) 
autodockgpu

>  <m_score__min__energy>  (44) 
-9.6400000000000006

>  <m_primary>  (44) 
energy

>  <rmsd>  (44) 
9.897633404703502

>  <m_score__min__rmsd>  (44) 
9.897633404703502

>  <meeko>  (44) 
{"free_energy": -9.15, "intermolecular_energy": -10.64, "internal_energy": -1.29, "cluster_size": 45, "cluster_id": 1, "rank_in_cluster": 31}

>  <energy>  (44) 
-8.55

>  <cluster_rmsd>  (44) 
1.16

>  <cluster>  (44) 
1

$$$$

     RDKit          3D

 61 66  0  0  1  0  0  0  0  0999 V2000
  137.1270   78.6990  222.9770 O   0  0  0  0  0  0  0  0  0  0  0  0
  138.0110   79.6160  223.1290 C   0  0  0  0  0  0  0  0  0  0  0  0
  137.6190   80.7510  223.9190 C   0  0  0  0  0  0  0  0  0  0  0  0
  137.6110   80.8590  225.3070 C   0  0  0  0  0  0  0  0  0  0  0  0
  137.1670   82.1230  225.6600 C   0  0  0  0  0  0  0  0  0  0  0  0
  136.9670   82.7580  226.8730 C   0  0  0  0  0  0  0  0  0  0  0  0
  136.5060   84.0520  226.8980 C   0  0  0  0  0  0  0  0  0  0  0  0
  136.2480   84.7050  225.7040 C   0  0  0  0  0  0  0  0  0  0  0  0
  136.4490   84.0670  224.4800 C   0  0  0  0  0  0  0  0  0  0  0  0
  136.9090   82.7780  224.4600 C   0  0  0  0  0  0  0  0  0  0  0  0
  137.1840   81.9440  223.4260 N   0  0  0  0  0  0  0  0  0  0  0  0
  139.2770   79.4440  222.5170 N   0  0  0  0  0  0  0  0  0  0  0  0
  139.5450   78.7050  221.3010 C   0  0  0  0  0  0  0  0  0  0  0  0
  140.9370   78.1430  221.6130 C   0  0  1  0  0  0  0  0  0  0  0  0
  140.7660   76.8590  222.3350 C   0  0  0  0  0  0  0  0  0  0  0  0
  141.0780   75.8040  221.3140 C   0  0  0  0  0  0  0  0  0  0  0  0
  141.6450   76.4220  220.1690 N   0  0  0  0  0  0  0  0  0  0  0  0
  142.8110   75.8120  219.6240 C   0  0  0  0  0  0  0  0  0  0  0  0
  143.4000   74.7290  220.4600 C   0  0  0  0  0  0  0  0  0  0  0  0
  144.4790   74.0090  219.6910 C   0  0  2  0  0  0  0  0  0  0  0  0
  144.1210   72.5660  219.3950 C   0  0  0  0  0  0  0  0  0  0  0  0
  145.5030   72.0500  218.9640 C   0  0  0  0  0  0  0  0  0  0  0  0
  146.2860   72.5210  220.1160 N   0  0  0  0  0  0  0  0  0  0  0  0
  145.7620   73.8370  220.4560 C   0  0  0  0  0  0  0  0  0  0  0  0
  141.6970   77.8290  220.3750 C   0  0  0  0  0  0  0  0  0  0  0  0
  141.5700   79.2030  222.4360 C   0  0  0  0  0  0  0  0  0  0  0  0
  142.9030   79.4510  222.6840 C   0  0  0  0  0  0  0  0  0  0  0  0
  143.2280   80.5180  223.5040 C   0  0  0  0  0  0  0  0  0  0  0  0
  142.2120   81.2840  224.0360 C   0  0  0  0  0  0  0  0  0  0  0  0
  140.8750   81.0060  223.7670 C   0  0  0  0  0  0  0  0  0  0  0  0
  140.5450   79.9580  222.9600 C   0  0  0  0  0  0  0  0  0  0  0  0
  137.9093   80.0677  226.0105 H   0  0  0  0  0  0  0  0  0  0  0  0
  137.1764   82.2285  227.8142 H   0  0  0  0  0  0  0  0  0  0  0  0
  136.3433   84.5648  227.8575 H   0  0  0  0  0  0  0  0  0  0  0  0
  135.8794   85.7413  225.7213 H   0  0  0  0  0  0  0  0  0  0  0  0
  136.2395   84.5955  223.5383 H   0  0  0  0  0  0  0  0  0  0  0  0
  137.0610   82.2260  222.4290 H   0  0  0  0  0  0  0  0  0  0  0  0
  138.8094   77.9024  221.1437 H   0  0  0  0  0  0  0  0  0  0  0  0
  139.4897   79.3042  220.3802 H   0  0  0  0  0  0  0  0  0  0  0  0
  141.4626   76.7955  223.1839 H   0  0  0  0  0  0  0  0  0  0  0  0
  139.7546   76.7478  222.7531 H   0  0  0  0  0  0  0  0  0  0  0  0
  141.7932   75.0826  221.7359 H   0  0  0  0  0  0  0  0  0  0  0  0
  140.1555   75.2753  221.0323 H   0  0  0  0  0  0  0  0  0  0  0  0
  142.5473   75.3837  218.6457 H   0  0  0  0  0  0  0  0  0  0  0  0
  143.5729   76.6029  219.5613 H   0  0  0  0  0  0  0  0  0  0  0  0
  143.8335   75.1676  221.3709 H   0  0  0  0  0  0  0  0  0  0  0  0
  142.6102   74.0121  220.7289 H   0  0  0  0  0  0  0  0  0  0  0  0
  144.5854   74.6458  218.8004 H   0  0  0  0  0  0  0  0  0  0  0  0
  143.7473   72.0437  220.2880 H   0  0  0  0  0  0  0  0  0  0  0  0
  143.3156   72.4230  218.6595 H   0  0  0  0  0  0  0  0  0  0  0  0
  145.5244   70.9543  218.8695 H   0  0  0  0  0  0  0  0  0  0  0  0
  145.8528   72.3925  217.9789 H   0  0  0  0  0  0  0  0  0  0  0  0
  146.0600   71.8290  220.8890 H   0  0  0  0  0  0  0  0  0  0  0  0
  145.5687   73.8991  221.5371 H   0  0  0  0  0  0  0  0  0  0  0  0
  146.4831   74.6262  220.1967 H   0  0  0  0  0  0  0  0  0  0  0  0
  142.7428   78.1509  220.4878 H   0  0  0  0  0  0  0  0  0  0  0  0
  141.2589   78.3564  219.5149 H   0  0  0  0  0  0  0  0  0  0  0  0
  143.6871   78.8184  222.2424 H   0  0  0  0  0  0  0  0  0  0  0  0
  144.2795   80.7511  223.7276 H   0  0  0  0  0  0  0  0  0  0  0  0
  142.4640   82.1337  224.6875 H   0  0  0  0  0  0  0  0  0  0  0  0
  140.0842   81.6322  224.2058 H   0  0  0  0  0  0  0  0  0  0  0  0
  1  2  2  0
  2  3  1  0
  3  4  2  0
  4  5  1  0
  5  6  2  0
  6  7  1  0
  7  8  2  0
  8  9  1  0
  9 10  2  0
 10 11  1  0
  2 12  1  0
 12 13  1  0
 14 13  1  6
 14 15  1  0
 15 16  1  0
 16 17  1  0
 17 18  1  0
 18 19  1  0
 19 20  1  0
 20 21  1  0
 21 22  1  0
 22 23  1  0
 23 24  1  0
 17 25  1  0
 14 26  1  0
 26 27  2  0
 27 28  1  0
 28 29  2  0
 29 30  1  0
 30 31  2  0
 11  3  1  0
 31 12  1  0
 10  5  1  0
 25 14  1  0
 31 26  1  0
 24 20  1  0
  4 32  1  0
  6 33  1  0
  7 34  1  0
  8 35  1  0
  9 36  1  0
 11 37  1  0
 13 38  1  0
 13 39  1  0
 15 40  1  0
 15 41  1  0
 16 42  1  0
 16 43  1  0
 18 44  1  0
 18 45  1  0
 19 46  1  0
 19 47  1  0
 20 48  1  6
 21 49  1  0
 21 50  1  0
 22 51  1  0
 22 52  1  0
 23 53  1  0
 24 54  1  0
 24 55  1  0
 25 56  1  0
 25 57  1  0
 27 58  1  0
 28 59  1  0
 29 60  1  0
 30 61  1  0
M  END
>  <smiles>  (45) 
O=C(c1cc2ccccc2[nH]1)N1C[C@]2(CCN(CCC3CCNC3)C2)c2ccccc21

>  <score_type>  (45) 
oracle

>  <origin>  (45) 
autodockgpu

>  <m_score__min__energy>  (45) 
-9.6400000000000006

>  <m_primary>  (45) 
energy

>  <rmsd>  (45) 
10.230186784334206

>  <m_score__min__rmsd>  (45) 
10.230186784334206

>  <meeko>  (45) 
{"free_energy": -9.19, "intermolecular_energy": -10.68, "internal_energy": -1.18, "cluster_size": 45, "cluster_id": 1, "rank_in_cluster": 27}

>  <energy>  (45) 
-8.48

>  <cluster_rmsd>  (45) 
0.89

>  <cluster>  (45) 
1

$$$$

     RDKit          3D

 61 66  0  0  1  0  0  0  0  0999 V2000
  136.8700   78.4460  223.1380 O   0  0  0  0  0  0  0  0  0  0  0  0
  137.7680   79.3610  223.1800 C   0  0  0  0  0  0  0  0  0  0  0  0
  137.4500   80.5290  223.9530 C   0  0  0  0  0  0  0  0  0  0  0  0
  137.5070   80.6750  225.3360 C   0  0  0  0  0  0  0  0  0  0  0  0
  137.1220   81.9630  225.6710 C   0  0  0  0  0  0  0  0  0  0  0  0
  136.9970   82.6380  226.8730 C   0  0  0  0  0  0  0  0  0  0  0  0
  136.5800   83.9470  226.8810 C   0  0  0  0  0  0  0  0  0  0  0  0
  136.2910   84.5750  225.6810 C   0  0  0  0  0  0  0  0  0  0  0  0
  136.4160   83.8980  224.4680 C   0  0  0  0  0  0  0  0  0  0  0  0
  136.8320   82.5940  224.4660 C   0  0  0  0  0  0  0  0  0  0  0  0
  137.0320   81.7230  223.4450 N   0  0  0  0  0  0  0  0  0  0  0  0
  138.9790   79.1530  222.4730 N   0  0  0  0  0  0  0  0  0  0  0  0
  139.1310   78.4080  221.2410 C   0  0  0  0  0  0  0  0  0  0  0  0
  140.5270   77.8060  221.4450 C   0  0  1  0  0  0  0  0  0  0  0  0
  140.3740   76.5260  222.1790 C   0  0  0  0  0  0  0  0  0  0  0  0
  140.5760   75.4650  221.1380 C   0  0  0  0  0  0  0  0  0  0  0  0
  141.0720   76.0670  219.9520 N   0  0  0  0  0  0  0  0  0  0  0  0
  142.1740   75.4250  219.3200 C   0  0  0  0  0  0  0  0  0  0  0  0
  143.4570   75.4940  220.0750 C   0  0  0  0  0  0  0  0  0  0  0  0
  144.1470   74.1530  220.0490 C   0  0  2  0  0  0  0  0  0  0  0  0
  145.4370   74.1460  220.8460 C   0  0  0  0  0  0  0  0  0  0  0  0
  146.0390   72.8290  220.3290 C   0  0  0  0  0  0  0  0  0  0  0  0
  145.9230   73.0810  218.8860 N   0  0  0  0  0  0  0  0  0  0  0  0
  144.6450   73.7510  218.6890 C   0  0  0  0  0  0  0  0  0  0  0  0
  141.1800   77.4730  220.1530 C   0  0  0  0  0  0  0  0  0  0  0  0
  141.2500   78.8460  222.2170 C   0  0  0  0  0  0  0  0  0  0  0  0
  142.6060   79.0550  222.3620 C   0  0  0  0  0  0  0  0  0  0  0  0
  143.0230   80.1110  223.1540 C   0  0  0  0  0  0  0  0  0  0  0  0
  142.0730   80.9050  223.7620 C   0  0  0  0  0  0  0  0  0  0  0  0
  140.7120   80.6660  223.5960 C   0  0  0  0  0  0  0  0  0  0  0  0
  140.2910   79.6290  222.8170 C   0  0  0  0  0  0  0  0  0  0  0  0
  137.8092   79.8933  226.0485 H   0  0  0  0  0  0  0  0  0  0  0  0
  137.2309   82.1278  227.8190 H   0  0  0  0  0  0  0  0  0  0  0  0
  136.4767   84.4911  227.8314 H   0  0  0  0  0  0  0  0  0  0  0  0
  135.9579   85.6233  225.6846 H   0  0  0  0  0  0  0  0  0  0  0  0
  136.1824   84.4074  223.5215 H   0  0  0  0  0  0  0  0  0  0  0  0
  136.8750   81.9810  222.4460 H   0  0  0  0  0  0  0  0  0  0  0  0
  138.3629   77.6268  221.1420 H   0  0  0  0  0  0  0  0  0  0  0  0
  139.0217   79.0095  220.3265 H   0  0  0  0  0  0  0  0  0  0  0  0
  141.1312   76.4406  222.9723 H   0  0  0  0  0  0  0  0  0  0  0  0
  139.3948   76.4436  222.6734 H   0  0  0  0  0  0  0  0  0  0  0  0
  141.2998   74.7222  221.5046 H   0  0  0  0  0  0  0  0  0  0  0  0
  139.6191   74.9649  220.9277 H   0  0  0  0  0  0  0  0  0  0  0  0
  141.9170   74.3648  219.1790 H   0  0  0  0  0  0  0  0  0  0  0  0
  142.3429   75.9612  218.3745 H   0  0  0  0  0  0  0  0  0  0  0  0
  144.1108   76.2485  219.6131 H   0  0  0  0  0  0  0  0  0  0  0  0
  143.2459   75.7699  221.1187 H   0  0  0  0  0  0  0  0  0  0  0  0
  143.3642   73.4864  220.4401 H   0  0  0  0  0  0  0  0  0  0  0  0
  146.0731   75.0110  220.6070 H   0  0  0  0  0  0  0  0  0  0  0  0
  145.3166   74.2123  221.9374 H   0  0  0  0  0  0  0  0  0  0  0  0
  147.0853   72.7011  220.6436 H   0  0  0  0  0  0  0  0  0  0  0  0
  145.5547   71.9103  220.6915 H   0  0  0  0  0  0  0  0  0  0  0  0
  146.7190   73.7490  218.6700 H   0  0  0  0  0  0  0  0  0  0  0  0
  144.7784   74.6413  218.0569 H   0  0  0  0  0  0  0  0  0  0  0  0
  143.9259   73.0865  218.1876 H   0  0  0  0  0  0  0  0  0  0  0  0
  142.2401   77.7647  220.1849 H   0  0  0  0  0  0  0  0  0  0  0  0
  140.6923   78.0143  219.3289 H   0  0  0  0  0  0  0  0  0  0  0  0
  143.3355   78.4007  221.8622 H   0  0  0  0  0  0  0  0  0  0  0  0
  144.0948   80.3137  223.2962 H   0  0  0  0  0  0  0  0  0  0  0  0
  142.3983   81.7459  224.3921 H   0  0  0  0  0  0  0  0  0  0  0  0
  139.9755   81.3141  224.0935 H   0  0  0  0  0  0  0  0  0  0  0  0
  1  2  2  0
  2  3  1  0
  3  4  2  0
  4  5  1  0
  5  6  2  0
  6  7  1  0
  7  8  2  0
  8  9  1  0
  9 10  2  0
 10 11  1  0
  2 12  1  0
 12 13  1  0
 14 13  1  6
 14 15  1  0
 15 16  1  0
 16 17  1  0
 17 18  1  0
 18 19  1  0
 19 20  1  0
 20 21  1  0
 21 22  1  0
 22 23  1  0
 23 24  1  0
 17 25  1  0
 14 26  1  0
 26 27  2  0
 27 28  1  0
 28 29  2  0
 29 30  1  0
 30 31  2  0
 11  3  1  0
 31 12  1  0
 10  5  1  0
 25 14  1  0
 31 26  1  0
 24 20  1  0
  4 32  1  0
  6 33  1  0
  7 34  1  0
  8 35  1  0
  9 36  1  0
 11 37  1  0
 13 38  1  0
 13 39  1  0
 15 40  1  0
 15 41  1  0
 16 42  1  0
 16 43  1  0
 18 44  1  0
 18 45  1  0
 19 46  1  0
 19 47  1  0
 20 48  1  1
 21 49  1  0
 21 50  1  0
 22 51  1  0
 22 52  1  0
 23 53  1  0
 24 54  1  0
 24 55  1  0
 25 56  1  0
 25 57  1  0
 27 58  1  0
 28 59  1  0
 29 60  1  0
 30 61  1  0
M  END
>  <smiles>  (46) 
O=C(c1cc2ccccc2[nH]1)N1C[C@]2(CCN(CCC3CCNC3)C2)c2ccccc21

>  <score_type>  (46) 
oracle

>  <origin>  (46) 
autodockgpu

>  <m_score__min__energy>  (46) 
-9.6400000000000006

>  <m_primary>  (46) 
energy

>  <rmsd>  (46) 
10.047515177927417

>  <m_score__min__rmsd>  (46) 
10.047515177927417

>  <meeko>  (46) 
{"free_energy": -8.94, "intermolecular_energy": -10.43, "internal_energy": -1.3, "cluster_size": 45, "cluster_id": 1, "rank_in_cluster": 38}

>  <energy>  (46) 
-8.52

>  <cluster_rmsd>  (46) 
0.0

>  <cluster>  (46) 
2

$$$$

     RDKit          3D

 61 66  0  0  1  0  0  0  0  0999 V2000
  137.1370   78.6030  223.0170 O   0  0  0  0  0  0  0  0  0  0  0  0
  138.0160   79.5290  223.1490 C   0  0  0  0  0  0  0  0  0  0  0  0
  137.6110   80.6860  223.8980 C   0  0  0  0  0  0  0  0  0  0  0  0
  137.1960   81.9190  223.4010 C   0  0  0  0  0  0  0  0  0  0  0  0
  136.8920   82.7550  224.4630 C   0  0  0  0  0  0  0  0  0  0  0  0
  136.4430   84.0610  224.5480 C   0  0  0  0  0  0  0  0  0  0  0  0
  136.2280   84.6300  225.7800 C   0  0  0  0  0  0  0  0  0  0  0  0
  136.4660   83.8850  226.9240 C   0  0  0  0  0  0  0  0  0  0  0  0
  136.9190   82.5690  226.8410 C   0  0  0  0  0  0  0  0  0  0  0  0
  137.1300   82.0060  225.6110 C   0  0  0  0  0  0  0  0  0  0  0  0
  137.5610   80.7690  225.2580 N   0  0  0  0  0  0  0  0  0  0  0  0
  139.2890   79.3420  222.5560 N   0  0  0  0  0  0  0  0  0  0  0  0
  139.5760   78.5500  221.3790 C   0  0  0  0  0  0  0  0  0  0  0  0
  140.9710   78.0200  221.7280 C   0  0  1  0  0  0  0  0  0  0  0  0
  140.8090   76.7690  222.5090 C   0  0  0  0  0  0  0  0  0  0  0  0
  141.1410   75.6710  221.5420 C   0  0  0  0  0  0  0  0  0  0  0  0
  141.7110   76.2400  220.3730 N   0  0  0  0  0  0  0  0  0  0  0  0
  142.8880   75.6190  219.8660 C   0  0  0  0  0  0  0  0  0  0  0  0
  143.2200   74.3060  220.4880 C   0  0  0  0  0  0  0  0  0  0  0  0
  144.2500   73.5840  219.6560 C   0  0  2  0  0  0  0  0  0  0  0  0
  144.0730   72.0780  219.6860 C   0  0  0  0  0  0  0  0  0  0  0  0
  145.4250   71.6580  219.0870 C   0  0  0  0  0  0  0  0  0  0  0  0
  146.3090   72.4350  219.9660 N   0  0  0  0  0  0  0  0  0  0  0  0
  145.6550   73.7190  220.1740 C   0  0  0  0  0  0  0  0  0  0  0  0
  141.7450   77.6560  220.5120 C   0  0  0  0  0  0  0  0  0  0  0  0
  141.5850   79.1250  222.5050 C   0  0  0  0  0  0  0  0  0  0  0  0
  142.9130   79.4000  222.7500 C   0  0  0  0  0  0  0  0  0  0  0  0
  143.2190   80.5080  223.5210 C   0  0  0  0  0  0  0  0  0  0  0  0
  142.1900   81.2870  224.0090 C   0  0  0  0  0  0  0  0  0  0  0  0
  140.8590   80.9800  223.7430 C   0  0  0  0  0  0  0  0  0  0  0  0
  140.5470   79.8910  222.9840 C   0  0  0  0  0  0  0  0  0  0  0  0
  137.1216   82.1861  222.3365 H   0  0  0  0  0  0  0  0  0  0  0  0
  136.2588   84.6418  223.6322 H   0  0  0  0  0  0  0  0  0  0  0  0
  135.8703   85.6673  225.8575 H   0  0  0  0  0  0  0  0  0  0  0  0
  136.2951   84.3383  227.9116 H   0  0  0  0  0  0  0  0  0  0  0  0
  137.1053   81.9879  227.7562 H   0  0  0  0  0  0  0  0  0  0  0  0
  137.8020   80.0360  225.9600 H   0  0  0  0  0  0  0  0  0  0  0  0
  138.8511   77.7322  221.2538 H   0  0  0  0  0  0  0  0  0  0  0  0
  139.5219   79.1046  220.4306 H   0  0  0  0  0  0  0  0  0  0  0  0
  141.4995   76.7539  223.3651 H   0  0  0  0  0  0  0  0  0  0  0  0
  139.7956   76.6657  222.9243 H   0  0  0  0  0  0  0  0  0  0  0  0
  141.8605   74.9786  222.0034 H   0  0  0  0  0  0  0  0  0  0  0  0
  140.2265   75.1195  221.2784 H   0  0  0  0  0  0  0  0  0  0  0  0
  142.7534   75.4615  218.7857 H   0  0  0  0  0  0  0  0  0  0  0  0
  143.7222   76.2947  220.1058 H   0  0  0  0  0  0  0  0  0  0  0  0
  143.6208   74.4732  221.4986 H   0  0  0  0  0  0  0  0  0  0  0  0
  142.3082   73.6932  220.5436 H   0  0  0  0  0  0  0  0  0  0  0  0
  144.1044   74.0424  218.6667 H   0  0  0  0  0  0  0  0  0  0  0  0
  143.9416   71.6996  220.7105 H   0  0  0  0  0  0  0  0  0  0  0  0
  143.1860   71.6979  219.1580 H   0  0  0  0  0  0  0  0  0  0  0  0
  145.5991   70.5756  219.1774 H   0  0  0  0  0  0  0  0  0  0  0  0
  145.5453   71.8411  218.0090 H   0  0  0  0  0  0  0  0  0  0  0  0
  146.3280   71.8860  220.8740 H   0  0  0  0  0  0  0  0  0  0  0  0
  145.6406   73.9667  221.2456 H   0  0  0  0  0  0  0  0  0  0  0  0
  146.1918   74.5232  219.6495 H   0  0  0  0  0  0  0  0  0  0  0  0
  142.7860   77.9953  220.6173 H   0  0  0  0  0  0  0  0  0  0  0  0
  141.3078   78.1364  219.6243 H   0  0  0  0  0  0  0  0  0  0  0  0
  143.7077   78.7568  222.3441 H   0  0  0  0  0  0  0  0  0  0  0  0
  144.2660   80.7635  223.7412 H   0  0  0  0  0  0  0  0  0  0  0  0
  142.4268   82.1696  224.6214 H   0  0  0  0  0  0  0  0  0  0  0  0
  140.0574   81.6167  224.1456 H   0  0  0  0  0  0  0  0  0  0  0  0
  1  2  2  0
  2  3  1  0
  3  4  2  0
  4  5  1  0
  5  6  2  0
  6  7  1  0
  7  8  2  0
  8  9  1  0
  9 10  2  0
 10 11  1  0
  2 12  1  0
 12 13  1  0
 14 13  1  6
 14 15  1  0
 15 16  1  0
 16 17  1  0
 17 18  1  0
 18 19  1  0
 19 20  1  0
 20 21  1  0
 21 22  1  0
 22 23  1  0
 23 24  1  0
 17 25  1  0
 14 26  1  0
 26 27  2  0
 27 28  1  0
 28 29  2  0
 29 30  1  0
 30 31  2  0
 11  3  1  0
 31 12  1  0
 10  5  1  0
 25 14  1  0
 31 26  1  0
 24 20  1  0
  4 32  1  0
  6 33  1  0
  7 34  1  0
  8 35  1  0
  9 36  1  0
 11 37  1  0
 13 38  1  0
 13 39  1  0
 15 40  1  0
 15 41  1  0
 16 42  1  0
 16 43  1  0
 18 44  1  0
 18 45  1  0
 19 46  1  0
 19 47  1  0
 20 48  1  6
 21 49  1  0
 21 50  1  0
 22 51  1  0
 22 52  1  0
 23 53  1  0
 24 54  1  0
 24 55  1  0
 25 56  1  0
 25 57  1  0
 27 58  1  0
 28 59  1  0
 29 60  1  0
 30 61  1  0
M  END
>  <smiles>  (47) 
O=C(c1cc2ccccc2[nH]1)N1C[C@]2(CCN(CCC3CCNC3)C2)c2ccccc21

>  <score_type>  (47) 
oracle

>  <origin>  (47) 
autodockgpu

>  <m_score__min__energy>  (47) 
-9.6400000000000006

>  <m_primary>  (47) 
energy

>  <rmsd>  (47) 
10.340931303131685

>  <m_score__min__rmsd>  (47) 
10.340931303131685

>  <meeko>  (47) 
{"free_energy": -9.16, "intermolecular_energy": -10.65, "internal_energy": -1.16, "cluster_size": 45, "cluster_id": 1, "rank_in_cluster": 28}

>  <energy>  (47) 
-8.12

>  <cluster_rmsd>  (47) 
0.0

>  <cluster>  (47) 
3

$$$$

     RDKit          3D

 61 66  0  0  1  0  0  0  0  0999 V2000
  137.4560   80.4520  220.7970 O   0  0  0  0  0  0  0  0  0  0  0  0
  138.2890   80.5330  221.7690 C   0  0  0  0  0  0  0  0  0  0  0  0
  137.7870   81.1000  222.9900 C   0  0  0  0  0  0  0  0  0  0  0  0
  137.7760   80.5200  224.2560 C   0  0  0  0  0  0  0  0  0  0  0  0
  137.2080   81.4080  225.1550 C   0  0  0  0  0  0  0  0  0  0  0  0
  136.9510   81.3530  226.5130 C   0  0  0  0  0  0  0  0  0  0  0  0
  136.3590   82.4230  227.1400 C   0  0  0  0  0  0  0  0  0  0  0  0
  136.0290   83.5460  226.3990 C   0  0  0  0  0  0  0  0  0  0  0  0
  136.2880   83.6040  225.0300 C   0  0  0  0  0  0  0  0  0  0  0  0
  136.8770   82.5350  224.4110 C   0  0  0  0  0  0  0  0  0  0  0  0
  137.2290   82.3370  223.1160 N   0  0  0  0  0  0  0  0  0  0  0  0
  139.6120   80.0690  221.5660 N   0  0  0  0  0  0  0  0  0  0  0  0
  140.0540   79.1810  220.5110 C   0  0  0  0  0  0  0  0  0  0  0  0
  141.1530   78.3990  221.2400 C   0  0  1  0  0  0  0  0  0  0  0  0
  140.5210   77.2440  221.9230 C   0  0  0  0  0  0  0  0  0  0  0  0
  140.8820   76.0580  221.0790 C   0  0  0  0  0  0  0  0  0  0  0  0
  141.8660   76.4470  220.1310 N   0  0  0  0  0  0  0  0  0  0  0  0
  142.9850   75.5790  219.9780 C   0  0  0  0  0  0  0  0  0  0  0  0
  142.9570   74.3630  220.8370 C   0  0  0  0  0  0  0  0  0  0  0  0
  143.9860   73.3680  220.3610 C   0  0  2  0  0  0  0  0  0  0  0  0
  145.2680   73.4220  221.1690 C   0  0  0  0  0  0  0  0  0  0  0  0
  146.1810   72.6040  220.2420 C   0  0  0  0  0  0  0  0  0  0  0  0
  145.9270   73.3240  218.9860 N   0  0  0  0  0  0  0  0  0  0  0  0
  144.5050   73.6430  218.9770 C   0  0  0  0  0  0  0  0  0  0  0  0
  142.1490   77.8320  220.2940 C   0  0  0  0  0  0  0  0  0  0  0  0
  141.7320   79.3930  222.1760 C   0  0  0  0  0  0  0  0  0  0  0  0
  142.9620   79.4080  222.7980 C   0  0  0  0  0  0  0  0  0  0  0  0
  143.2560   80.4670  223.6400 C   0  0  0  0  0  0  0  0  0  0  0  0
  142.3130   81.4580  223.8200 C   0  0  0  0  0  0  0  0  0  0  0  0
  141.0800   81.4120  223.1770 C   0  0  0  0  0  0  0  0  0  0  0  0
  140.7810   80.3740  222.3460 C   0  0  0  0  0  0  0  0  0  0  0  0
  138.1570   79.5180  224.5026 H   0  0  0  0  0  0  0  0  0  0  0  0
  137.2197   80.4554  227.0894 H   0  0  0  0  0  0  0  0  0  0  0  0
  136.1493   82.3881  228.2193 H   0  0  0  0  0  0  0  0  0  0  0  0
  135.5557   84.4046  226.8978 H   0  0  0  0  0  0  0  0  0  0  0  0
  136.0211   84.5014  224.4525 H   0  0  0  0  0  0  0  0  0  0  0  0
  137.0730   83.0540  222.3740 H   0  0  0  0  0  0  0  0  0  0  0  0
  139.2432   78.5197  220.1715 H   0  0  0  0  0  0  0  0  0  0  0  0
  140.3871   79.6905  219.5948 H   0  0  0  0  0  0  0  0  0  0  0  0
  140.9194   77.1305  222.9420 H   0  0  0  0  0  0  0  0  0  0  0  0
  139.4326   77.3659  222.0255 H   0  0  0  0  0  0  0  0  0  0  0  0
  141.2825   75.2581  221.7191 H   0  0  0  0  0  0  0  0  0  0  0  0
  139.9878   75.6882  220.5559 H   0  0  0  0  0  0  0  0  0  0  0  0
  143.0248   75.2546  218.9277 H   0  0  0  0  0  0  0  0  0  0  0  0
  143.8682   76.1563  220.2890 H   0  0  0  0  0  0  0  0  0  0  0  0
  143.1788   74.6467  221.8764 H   0  0  0  0  0  0  0  0  0  0  0  0
  141.9589   73.9042  220.7790 H   0  0  0  0  0  0  0  0  0  0  0  0
  143.4361   72.4185  220.4390 H   0  0  0  0  0  0  0  0  0  0  0  0
  145.6299   74.4528  221.2975 H   0  0  0  0  0  0  0  0  0  0  0  0
  145.1895   73.0483  222.2006 H   0  0  0  0  0  0  0  0  0  0  0  0
  147.2368   72.6615  220.5454 H   0  0  0  0  0  0  0  0  0  0  0  0
  145.9866   71.5216  220.2173 H   0  0  0  0  0  0  0  0  0  0  0  0
  146.4970   74.2150  219.0730 H   0  0  0  0  0  0  0  0  0  0  0  0
  144.3568   74.7025  218.7212 H   0  0  0  0  0  0  0  0  0  0  0  0
  143.9710   73.0383  218.2293 H   0  0  0  0  0  0  0  0  0  0  0  0
  143.1634   77.9600  220.6998 H   0  0  0  0  0  0  0  0  0  0  0  0
  142.0913   78.3492  219.3249 H   0  0  0  0  0  0  0  0  0  0  0  0
  143.6901   78.6007  222.6300 H   0  0  0  0  0  0  0  0  0  0  0  0
  144.2256   80.5175  224.1570 H   0  0  0  0  0  0  0  0  0  0  0  0
  142.5410   82.3029  224.4864 H   0  0  0  0  0  0  0  0  0  0  0  0
  140.3455   82.2145  223.3396 H   0  0  0  0  0  0  0  0  0  0  0  0
  1  2  2  0
  2  3  1  0
  3  4  2  0
  4  5  1  0
  5  6  2  0
  6  7  1  0
  7  8  2  0
  8  9  1  0
  9 10  2  0
 10 11  1  0
  2 12  1  0
 12 13  1  0
 14 13  1  6
 14 15  1  0
 15 16  1  0
 16 17  1  0
 17 18  1  0
 18 19  1  0
 19 20  1  0
 20 21  1  0
 21 22  1  0
 22 23  1  0
 23 24  1  0
 17 25  1  0
 14 26  1  0
 26 27  2  0
 27 28  1  0
 28 29  2  0
 29 30  1  0
 30 31  2  0
 11  3  1  0
 31 12  1  0
 10  5  1  0
 25 14  1  0
 31 26  1  0
 24 20  1  0
  4 32  1  0
  6 33  1  0
  7 34  1  0
  8 35  1  0
  9 36  1  0
 11 37  1  0
 13 38  1  0
 13 39  1  0
 15 40  1  0
 15 41  1  0
 16 42  1  0
 16 43  1  0
 18 44  1  0
 18 45  1  0
 19 46  1  0
 19 47  1  0
 20 48  1  6
 21 49  1  0
 21 50  1  0
 22 51  1  0
 22 52  1  0
 23 53  1  0
 24 54  1  0
 24 55  1  0
 25 56  1  0
 25 57  1  0
 27 58  1  0
 28 59  1  0
 29 60  1  0
 30 61  1  0
M  END
>  <smiles>  (48) 
O=C(c1cc2ccccc2[nH]1)N1C[C@]2(CCN(CCC3CCNC3)C2)c2ccccc21

>  <score_type>  (48) 
oracle

>  <origin>  (48) 
autodockgpu

>  <m_score__min__energy>  (48) 
-9.6400000000000006

>  <m_primary>  (48) 
energy

>  <rmsd>  (48) 
9.82815112386612

>  <m_score__min__rmsd>  (48) 
9.82815112386612

>  <meeko>  (48) 
{"free_energy": -9.0, "intermolecular_energy": -10.49, "internal_energy": -1.32, "cluster_size": 45, "cluster_id": 1, "rank_in_cluster": 35}

>  <energy>  (48) 
-8.08

>  <cluster_rmsd>  (48) 
0.0

>  <cluster>  (48) 
4

$$$$

     RDKit          3D

 61 66  0  0  1  0  0  0  0  0999 V2000
  137.1090   78.7110  222.6960 O   0  0  0  0  0  0  0  0  0  0  0  0
  138.0220   79.5700  222.9680 C   0  0  0  0  0  0  0  0  0  0  0  0
  137.6350   80.6610  223.8190 C   0  0  0  0  0  0  0  0  0  0  0  0
  137.6360   80.6970  225.2110 C   0  0  0  0  0  0  0  0  0  0  0  0
  137.1940   81.9400  225.6320 C   0  0  0  0  0  0  0  0  0  0  0  0
  137.0010   82.5110  226.8780 C   0  0  0  0  0  0  0  0  0  0  0  0
  136.5400   83.8010  226.9730 C   0  0  0  0  0  0  0  0  0  0  0  0
  136.2740   84.5160  225.8170 C   0  0  0  0  0  0  0  0  0  0  0  0
  136.4680   83.9430  224.5600 C   0  0  0  0  0  0  0  0  0  0  0  0
  136.9280   82.6570  224.4700 C   0  0  0  0  0  0  0  0  0  0  0  0
  137.1960   81.8790  223.3920 N   0  0  0  0  0  0  0  0  0  0  0  0
  139.3140   79.3810  222.4180 N   0  0  0  0  0  0  0  0  0  0  0  0
  139.6350   78.6030  221.2390 C   0  0  0  0  0  0  0  0  0  0  0  0
  141.0130   78.0540  221.6290 C   0  0  1  0  0  0  0  0  0  0  0  0
  140.8100   76.7940  222.3840 C   0  0  0  0  0  0  0  0  0  0  0  0
  141.1670   75.7070  221.4120 C   0  0  0  0  0  0  0  0  0  0  0  0
  141.7840   76.2890  220.2730 N   0  0  0  0  0  0  0  0  0  0  0  0
  142.9730   75.6640  219.8000 C   0  0  0  0  0  0  0  0  0  0  0  0
  143.3510   74.4140  220.5170 C   0  0  0  0  0  0  0  0  0  0  0  0
  144.3110   73.6070  219.6800 C   0  0  2  0  0  0  0  0  0  0  0  0
  144.0500   72.1160  219.7680 C   0  0  0  0  0  0  0  0  0  0  0  0
  145.3550   71.5980  219.1430 C   0  0  0  0  0  0  0  0  0  0  0  0
  146.3110   72.3510  219.9650 N   0  0  0  0  0  0  0  0  0  0  0  0
  145.7380   73.6780  220.1480 C   0  0  0  0  0  0  0  0  0  0  0  0
  141.8260   77.7030  220.4370 C   0  0  0  0  0  0  0  0  0  0  0  0
  141.6080   79.1410  222.4450 C   0  0  0  0  0  0  0  0  0  0  0  0
  142.9290   79.3990  222.7430 C   0  0  0  0  0  0  0  0  0  0  0  0
  143.2170   80.4930  223.5420 C   0  0  0  0  0  0  0  0  0  0  0  0
  142.1790   81.2730  224.0050 C   0  0  0  0  0  0  0  0  0  0  0  0
  140.8560   80.9840  223.6860 C   0  0  0  0  0  0  0  0  0  0  0  0
  140.5610   79.9100  222.8990 C   0  0  0  0  0  0  0  0  0  0  0  0
  137.9393   79.8705  225.8705 H   0  0  0  0  0  0  0  0  0  0  0  0
  137.2162   81.9334  227.7891 H   0  0  0  0  0  0  0  0  0  0  0  0
  136.3832   84.2627  227.9590 H   0  0  0  0  0  0  0  0  0  0  0  0
  135.9048   85.5495  225.8911 H   0  0  0  0  0  0  0  0  0  0  0  0
  136.2530   84.5200  223.6485 H   0  0  0  0  0  0  0  0  0  0  0  0
  137.0670   82.2120  222.4110 H   0  0  0  0  0  0  0  0  0  0  0  0
  138.9074   77.7942  221.0763 H   0  0  0  0  0  0  0  0  0  0  0  0
  139.6192   79.1719  220.2976 H   0  0  0  0  0  0  0  0  0  0  0  0
  141.4683   76.7588  223.2646 H   0  0  0  0  0  0  0  0  0  0  0  0
  139.7812   76.6950  222.7605 H   0  0  0  0  0  0  0  0  0  0  0  0
  141.8632   75.0008  221.8880 H   0  0  0  0  0  0  0  0  0  0  0  0
  140.2579   75.1680  221.1072 H   0  0  0  0  0  0  0  0  0  0  0  0
  142.8309   75.4189  218.7371 H   0  0  0  0  0  0  0  0  0  0  0  0
  143.7894   76.3800  219.9757 H   0  0  0  0  0  0  0  0  0  0  0  0
  143.8305   74.6733  221.4724 H   0  0  0  0  0  0  0  0  0  0  0  0
  142.4456   73.8174  220.7026 H   0  0  0  0  0  0  0  0  0  0  0  0
  144.1593   74.0405  218.6805 H   0  0  0  0  0  0  0  0  0  0  0  0
  143.9309   71.7801  220.8087 H   0  0  0  0  0  0  0  0  0  0  0  0
  143.1261   71.7709  219.2809 H   0  0  0  0  0  0  0  0  0  0  0  0
  145.4697   70.5110  219.2667 H   0  0  0  0  0  0  0  0  0  0  0  0
  145.4496   71.7374  218.0560 H   0  0  0  0  0  0  0  0  0  0  0  0
  146.3280   71.8330  220.8920 H   0  0  0  0  0  0  0  0  0  0  0  0
  145.7739   73.9622  221.2101 H   0  0  0  0  0  0  0  0  0  0  0  0
  146.3016   74.4317  219.5786 H   0  0  0  0  0  0  0  0  0  0  0  0
  142.8656   78.0303  220.5853 H   0  0  0  0  0  0  0  0  0  0  0  0
  141.4255   78.2023  219.5424 H   0  0  0  0  0  0  0  0  0  0  0  0
  143.7320   78.7539  222.3569 H   0  0  0  0  0  0  0  0  0  0  0  0
  144.2577   80.7356  223.8030 H   0  0  0  0  0  0  0  0  0  0  0  0
  142.4016   82.1428  224.6405 H   0  0  0  0  0  0  0  0  0  0  0  0
  140.0466   81.6228  224.0692 H   0  0  0  0  0  0  0  0  0  0  0  0
  1  2  2  0
  2  3  1  0
  3  4  2  0
  4  5  1  0
  5  6  2  0
  6  7  1  0
  7  8  2  0
  8  9  1  0
  9 10  2  0
 10 11  1  0
  2 12  1  0
 12 13  1  0
 14 13  1  6
 14 15  1  0
 15 16  1  0
 16 17  1  0
 17 18  1  0
 18 19  1  0
 19 20  1  0
 20 21  1  0
 21 22  1  0
 22 23  1  0
 23 24  1  0
 17 25  1  0
 14 26  1  0
 26 27  2  0
 27 28  1  0
 28 29  2  0
 29 30  1  0
 30 31  2  0
 11  3  1  0
 31 12  1  0
 10  5  1  0
 25 14  1  0
 31 26  1  0
 24 20  1  0
  4 32  1  0
  6 33  1  0
  7 34  1  0
  8 35  1  0
  9 36  1  0
 11 37  1  0
 13 38  1  0
 13 39  1  0
 15 40  1  0
 15 41  1  0
 16 42  1  0
 16 43  1  0
 18 44  1  0
 18 45  1  0
 19 46  1  0
 19 47  1  0
 20 48  1  6
 21 49  1  0
 21 50  1  0
 22 51  1  0
 22 52  1  0
 23 53  1  0
 24 54  1  0
 24 55  1  0
 25 56  1  0
 25 57  1  0
 27 58  1  0
 28 59  1  0
 29 60  1  0
 30 61  1  0
M  END
>  <smiles>  (49) 
O=C(c1cc2ccccc2[nH]1)N1C[C@]2(CCN(CCC3CCNC3)C2)c2ccccc21

>  <score_type>  (49) 
oracle

>  <origin>  (49) 
autodockgpu

>  <m_score__min__energy>  (49) 
-9.6400000000000006

>  <m_primary>  (49) 
energy

>  <rmsd>  (49) 
10.106156896104336

>  <m_score__min__rmsd>  (49) 
10.106156896104336

>  <meeko>  (49) 
{"free_energy": -9.22, "intermolecular_energy": -10.71, "internal_energy": -1.17, "cluster_size": 45, "cluster_id": 1, "rank_in_cluster": 24}

>  <energy>  (49) 
-8.06

>  <cluster_rmsd>  (49) 
0.0

>  <cluster>  (49) 
5

$$$$

     RDKit          3D

 61 66  0  0  1  0  0  0  0  0999 V2000
  136.7450   78.2580  222.9850 O   0  0  0  0  0  0  0  0  0  0  0  0
  137.6220   79.1890  223.0780 C   0  0  0  0  0  0  0  0  0  0  0  0
  137.2590   80.3280  223.8740 C   0  0  0  0  0  0  0  0  0  0  0  0
  136.4110   81.3750  223.5240 C   0  0  0  0  0  0  0  0  0  0  0  0
  136.3290   82.2640  224.5840 C   0  0  0  0  0  0  0  0  0  0  0  0
  135.6460   83.4520  224.7790 C   0  0  0  0  0  0  0  0  0  0  0  0
  135.7700   84.1210  225.9730 C   0  0  0  0  0  0  0  0  0  0  0  0
  136.5780   83.5940  226.9670 C   0  0  0  0  0  0  0  0  0  0  0  0
  137.2660   82.3970  226.7720 C   0  0  0  0  0  0  0  0  0  0  0  0
  137.1400   81.7340  225.5820 C   0  0  0  0  0  0  0  0  0  0  0  0
  137.6910   80.5750  225.1430 N   0  0  0  0  0  0  0  0  0  0  0  0
  138.8550   79.0260  222.3980 N   0  0  0  0  0  0  0  0  0  0  0  0
  139.0600   78.3030  221.1610 C   0  0  0  0  0  0  0  0  0  0  0  0
  140.4670   77.7390  221.3920 C   0  0  1  0  0  0  0  0  0  0  0  0
  140.3340   76.4450  222.1050 C   0  0  0  0  0  0  0  0  0  0  0  0
  140.5930   75.4040  221.0570 C   0  0  0  0  0  0  0  0  0  0  0  0
  141.0990   76.0370  219.8910 N   0  0  0  0  0  0  0  0  0  0  0  0
  142.2360   75.4360  219.2780 C   0  0  0  0  0  0  0  0  0  0  0  0
  143.4880   75.4970  220.0830 C   0  0  0  0  0  0  0  0  0  0  0  0
  144.1900   74.1630  220.0520 C   0  0  2  0  0  0  0  0  0  0  0  0
  145.4900   74.1700  220.8330 C   0  0  0  0  0  0  0  0  0  0  0  0
  146.0990   72.8580  220.3130 C   0  0  0  0  0  0  0  0  0  0  0  0
  145.9630   73.1050  218.8710 N   0  0  0  0  0  0  0  0  0  0  0  0
  144.6750   73.7610  218.6880 C   0  0  0  0  0  0  0  0  0  0  0  0
  141.1610   77.4420  220.1120 C   0  0  0  0  0  0  0  0  0  0  0  0
  141.1410   78.7890  222.1950 C   0  0  0  0  0  0  0  0  0  0  0  0
  142.4850   79.0350  222.3760 C   0  0  0  0  0  0  0  0  0  0  0  0
  142.8520   80.0920  223.1920 C   0  0  0  0  0  0  0  0  0  0  0  0
  141.8640   80.8500  223.7860 C   0  0  0  0  0  0  0  0  0  0  0  0
  140.5160   80.5740  223.5830 C   0  0  0  0  0  0  0  0  0  0  0  0
  140.1440   79.5360  222.7810 C   0  0  0  0  0  0  0  0  0  0  0  0
  135.8898   81.4799  222.5610 H   0  0  0  0  0  0  0  0  0  0  0  0
  135.0067   83.8589  223.9817 H   0  0  0  0  0  0  0  0  0  0  0  0
  135.2325   85.0664  226.1379 H   0  0  0  0  0  0  0  0  0  0  0  0
  136.6783   84.1274  227.9238 H   0  0  0  0  0  0  0  0  0  0  0  0
  137.9052   81.9889  227.5689 H   0  0  0  0  0  0  0  0  0  0  0  0
  138.3390   80.0030  225.7280 H   0  0  0  0  0  0  0  0  0  0  0  0
  138.3179   77.5013  221.0322 H   0  0  0  0  0  0  0  0  0  0  0  0
  138.9563   78.9140  220.2522 H   0  0  0  0  0  0  0  0  0  0  0  0
  141.0735   76.3713  222.9160 H   0  0  0  0  0  0  0  0  0  0  0  0
  139.3454   76.3274  222.5727 H   0  0  0  0  0  0  0  0  0  0  0  0
  141.3300   74.6786  221.4321 H   0  0  0  0  0  0  0  0  0  0  0  0
  139.6574   74.8774  220.8174 H   0  0  0  0  0  0  0  0  0  0  0  0
  142.0027   74.3778  219.0886 H   0  0  0  0  0  0  0  0  0  0  0  0
  142.4311   76.0099  218.3601 H   0  0  0  0  0  0  0  0  0  0  0  0
  144.1523   76.2674  219.6645 H   0  0  0  0  0  0  0  0  0  0  0  0
  143.2347   75.7462  221.1240 H   0  0  0  0  0  0  0  0  0  0  0  0
  143.4178   73.4909  220.4545 H   0  0  0  0  0  0  0  0  0  0  0  0
  146.1147   75.0405  220.5839 H   0  0  0  0  0  0  0  0  0  0  0  0
  145.3818   74.2376  221.9256 H   0  0  0  0  0  0  0  0  0  0  0  0
  147.1502   72.7416  220.6153 H   0  0  0  0  0  0  0  0  0  0  0  0
  145.6287   71.9354  220.6840 H   0  0  0  0  0  0  0  0  0  0  0  0
  146.7500   73.7790  218.6440 H   0  0  0  0  0  0  0  0  0  0  0  0
  144.7909   74.6502  218.0509 H   0  0  0  0  0  0  0  0  0  0  0  0
  143.9567   73.0868  218.1985 H   0  0  0  0  0  0  0  0  0  0  0  0
  142.2111   77.7637  220.1738 H   0  0  0  0  0  0  0  0  0  0  0  0
  140.6780   77.9799  219.2829 H   0  0  0  0  0  0  0  0  0  0  0  0
  143.2452   78.4090  221.8858 H   0  0  0  0  0  0  0  0  0  0  0  0
  143.9136   80.3234  223.3637 H   0  0  0  0  0  0  0  0  0  0  0  0
  142.1488   81.6915  224.4347 H   0  0  0  0  0  0  0  0  0  0  0  0
  139.7490   81.1940  224.0701 H   0  0  0  0  0  0  0  0  0  0  0  0
  1  2  2  0
  2  3  1  0
  3  4  2  0
  4  5  1  0
  5  6  2  0
  6  7  1  0
  7  8  2  0
  8  9  1  0
  9 10  2  0
 10 11  1  0
  2 12  1  0
 12 13  1  0
 14 13  1  6
 14 15  1  0
 15 16  1  0
 16 17  1  0
 17 18  1  0
 18 19  1  0
 19 20  1  0
 20 21  1  0
 21 22  1  0
 22 23  1  0
 23 24  1  0
 17 25  1  0
 14 26  1  0
 26 27  2  0
 27 28  1  0
 28 29  2  0
 29 30  1  0
 30 31  2  0
 11  3  1  0
 31 12  1  0
 10  5  1  0
 25 14  1  0
 31 26  1  0
 24 20  1  0
  4 32  1  0
  6 33  1  0
  7 34  1  0
  8 35  1  0
  9 36  1  0
 11 37  1  0
 13 38  1  0
 13 39  1  0
 15 40  1  0
 15 41  1  0
 16 42  1  0
 16 43  1  0
 18 44  1  0
 18 45  1  0
 19 46  1  0
 19 47  1  0
 20 48  1  1
 21 49  1  0
 21 50  1  0
 22 51  1  0
 22 52  1  0
 23 53  1  0
 24 54  1  0
 24 55  1  0
 25 56  1  0
 25 57  1  0
 27 58  1  0
 28 59  1  0
 29 60  1  0
 30 61  1  0
M  END
>  <smiles>  (50) 
O=C(c1cc2ccccc2[nH]1)N1C[C@]2(CCN(CCC3CCNC3)C2)c2ccccc21

>  <score_type>  (50) 
oracle

>  <origin>  (50) 
autodockgpu

>  <m_score__min__energy>  (50) 
-9.6400000000000006

>  <m_primary>  (50) 
energy

>  <rmsd>  (50) 
10.050773836524677

>  <m_score__min__rmsd>  (50) 
10.050773836524677

>  <meeko>  (50) 
{"free_energy": -8.78, "intermolecular_energy": -10.27, "internal_energy": -1.29, "cluster_size": 45, "cluster_id": 1, "rank_in_cluster": 41}

>  <energy>  (50) 
-7.84

>  <cluster_rmsd>  (50) 
0.0

>  <cluster>  (50) 
6

$$$$

     RDKit          3D

 61 66  0  0  1  0  0  0  0  0999 V2000
  138.9300   69.9780  221.8300 O   0  0  0  0  0  0  0  0  0  0  0  0
  139.7850   70.8200  222.2830 C   0  0  0  0  0  0  0  0  0  0  0  0
  140.0070   70.7770  223.7080 C   0  0  0  0  0  0  0  0  0  0  0  0
  139.7280   69.7490  224.6160 C   0  0  0  0  0  0  0  0  0  0  0  0
  140.1340   70.2080  225.8630 C   0  0  0  0  0  0  0  0  0  0  0  0
  140.0750   69.5720  227.0810 C   0  0  0  0  0  0  0  0  0  0  0  0
  140.5560   70.2710  228.1750 C   0  0  0  0  0  0  0  0  0  0  0  0
  141.0770   71.5610  228.0390 C   0  0  0  0  0  0  0  0  0  0  0  0
  141.1280   72.1830  226.7980 C   0  0  0  0  0  0  0  0  0  0  0  0
  140.6470   71.4850  225.7030 C   0  0  0  0  0  0  0  0  0  0  0  0
  140.5640   71.8210  224.3890 N   0  0  0  0  0  0  0  0  0  0  0  0
  140.4320   71.7070  221.3890 N   0  0  0  0  0  0  0  0  0  0  0  0
  141.1820   71.2900  220.1960 C   0  0  0  0  0  0  0  0  0  0  0  0
  142.2690   72.3190  220.1560 C   0  0  1  0  0  0  0  0  0  0  0  0
  143.4450   71.9710  221.0220 C   0  0  0  0  0  0  0  0  0  0  0  0
  144.5360   72.8510  220.4590 C   0  0  0  0  0  0  0  0  0  0  0  0
  144.2680   72.8680  219.0560 N   0  0  0  0  0  0  0  0  0  0  0  0
  145.2530   72.0990  218.3690 C   0  0  0  0  0  0  0  0  0  0  0  0
  145.5930   70.7850  218.9960 C   0  0  0  0  0  0  0  0  0  0  0  0
  144.8060   69.6290  218.4750 C   0  0  1  0  0  0  0  0  0  0  0  0
  145.6200   68.5510  217.8350 C   0  0  0  0  0  0  0  0  0  0  0  0
  146.3210   67.9400  219.0430 C   0  0  0  0  0  0  0  0  0  0  0  0
  145.4390   68.0990  220.1600 N   0  0  0  0  0  0  0  0  0  0  0  0
  144.3020   68.8780  219.7130 C   0  0  0  0  0  0  0  0  0  0  0  0
  142.9180   72.4820  218.8040 C   0  0  0  0  0  0  0  0  0  0  0  0
  141.6300   73.5370  220.6600 C   0  0  0  0  0  0  0  0  0  0  0  0
  141.8670   74.8950  220.5670 C   0  0  0  0  0  0  0  0  0  0  0  0
  141.0730   75.8470  221.1660 C   0  0  0  0  0  0  0  0  0  0  0  0
  139.9870   75.4100  221.8960 C   0  0  0  0  0  0  0  0  0  0  0  0
  139.7270   74.0600  222.0060 C   0  0  0  0  0  0  0  0  0  0  0  0
  140.5310   73.1180  221.3990 C   0  0  0  0  0  0  0  0  0  0  0  0
  139.2770   68.7720  224.3877 H   0  0  0  0  0  0  0  0  0  0  0  0
  139.6651   68.5562  227.1812 H   0  0  0  0  0  0  0  0  0  0  0  0
  140.5277   69.8025  229.1698 H   0  0  0  0  0  0  0  0  0  0  0  0
  141.4518   72.0909  228.9271 H   0  0  0  0  0  0  0  0  0  0  0  0
  141.5376   73.1980  226.6885 H   0  0  0  0  0  0  0  0  0  0  0  0
  140.8820   72.7470  223.9840 H   0  0  0  0  0  0  0  0  0  0  0  0
  141.5920   70.2759  220.3125 H   0  0  0  0  0  0  0  0  0  0  0  0
  140.5766   71.2395  219.2790 H   0  0  0  0  0  0  0  0  0  0  0  0
  143.2463   72.2098  222.0772 H   0  0  0  0  0  0  0  0  0  0  0  0
  143.6959   70.9000  221.0119 H   0  0  0  0  0  0  0  0  0  0  0  0
  144.4790   73.8650  220.8814 H   0  0  0  0  0  0  0  0  0  0  0  0
  145.5451   72.4825  220.6955 H   0  0  0  0  0  0  0  0  0  0  0  0
  144.8825   71.9039  217.3518 H   0  0  0  0  0  0  0  0  0  0  0  0
  146.1766   72.6958  218.3962 H   0  0  0  0  0  0  0  0  0  0  0  0
  146.6593   70.5839  218.8157 H   0  0  0  0  0  0  0  0  0  0  0  0
  145.3471   70.8750  220.0644 H   0  0  0  0  0  0  0  0  0  0  0  0
  144.0815   70.0544  217.7650 H   0  0  0  0  0  0  0  0  0  0  0  0
  144.9814   67.8141  217.3260 H   0  0  0  0  0  0  0  0  0  0  0  0
  146.3057   68.9113  217.0539 H   0  0  0  0  0  0  0  0  0  0  0  0
  146.5185   66.8725  218.8659 H   0  0  0  0  0  0  0  0  0  0  0  0
  147.2860   68.4339  219.2298 H   0  0  0  0  0  0  0  0  0  0  0  0
  145.1130   67.1540  220.4400 H   0  0  0  0  0  0  0  0  0  0  0  0
  143.4601   68.2202  219.4514 H   0  0  0  0  0  0  0  0  0  0  0  0
  143.9338   69.5612  220.4925 H   0  0  0  0  0  0  0  0  0  0  0  0
  142.4006   73.2602  218.2237 H   0  0  0  0  0  0  0  0  0  0  0  0
  142.8690   71.5509  218.2203 H   0  0  0  0  0  0  0  0  0  0  0  0
  142.7360   75.2334  219.9836 H   0  0  0  0  0  0  0  0  0  0  0  0
  141.2969   76.9193  221.0659 H   0  0  0  0  0  0  0  0  0  0  0  0
  139.3280   76.1388  222.3906 H   0  0  0  0  0  0  0  0  0  0  0  0
  138.8577   73.7266  222.5918 H   0  0  0  0  0  0  0  0  0  0  0  0
  1  2  2  0
  2  3  1  0
  3  4  2  0
  4  5  1  0
  5  6  2  0
  6  7  1  0
  7  8  2  0
  8  9  1  0
  9 10  2  0
 10 11  1  0
  2 12  1  0
 12 13  1  0
 14 13  1  6
 14 15  1  0
 15 16  1  0
 16 17  1  0
 17 18  1  0
 18 19  1  0
 19 20  1  0
 20 21  1  0
 21 22  1  0
 22 23  1  0
 23 24  1  0
 17 25  1  0
 14 26  1  0
 26 27  2  0
 27 28  1  0
 28 29  2  0
 29 30  1  0
 30 31  2  0
 11  3  1  0
 31 12  1  0
 10  5  1  0
 25 14  1  0
 31 26  1  0
 24 20  1  0
  4 32  1  0
  6 33  1  0
  7 34  1  0
  8 35  1  0
  9 36  1  0
 11 37  1  0
 13 38  1  0
 13 39  1  0
 15 40  1  0
 15 41  1  0
 16 42  1  0
 16 43  1  0
 18 44  1  0
 18 45  1  0
 19 46  1  0
 19 47  1  0
 20 48  1  6
 21 49  1  0
 21 50  1  0
 22 51  1  0
 22 52  1  0
 23 53  1  0
 24 54  1  0
 24 55  1  0
 25 56  1  0
 25 57  1  0
 27 58  1  0
 28 59  1  0
 29 60  1  0
 30 61  1  0
M  END
>  <smiles>  (51) 
O=C(c1cc2ccccc2[nH]1)N1C[C@]2(CCN(CCC3CCNC3)C2)c2ccccc21

>  <score_type>  (51) 
oracle

>  <origin>  (51) 
autodockgpu

>  <m_score__min__energy>  (51) 
-9.3000000000000007

>  <m_primary>  (51) 
energy

>  <rmsd>  (51) 
4.484050840853445

>  <m_score__min__rmsd>  (51) 
4.484050840853445

>  <meeko>  (51) 
{"free_energy": -8.42, "intermolecular_energy": -9.91, "internal_energy": -1.58, "cluster_size": 16, "cluster_id": 3, "rank_in_cluster": 5}

>  <energy>  (51) 
-9.3

>  <cluster_rmsd>  (51) 
0.0

>  <cluster>  (51) 
1

$$$$

     RDKit          3D

 61 66  0  0  1  0  0  0  0  0999 V2000
  139.0580   70.0280  221.8350 O   0  0  0  0  0  0  0  0  0  0  0  0
  139.9070   70.8890  222.2630 C   0  0  0  0  0  0  0  0  0  0  0  0
  140.1320   70.8860  223.6890 C   0  0  0  0  0  0  0  0  0  0  0  0
  140.6970   71.8790  224.4960 C   0  0  0  0  0  0  0  0  0  0  0  0
  140.6820   71.3830  225.7940 C   0  0  0  0  0  0  0  0  0  0  0  0
  141.1240   71.9760  226.9530 C   0  0  0  0  0  0  0  0  0  0  0  0
  140.9870   71.2450  228.1210 C   0  0  0  0  0  0  0  0  0  0  0  0
  140.4210   69.9670  228.1140 C   0  0  0  0  0  0  0  0  0  0  0  0
  139.9800   69.3880  226.9310 C   0  0  0  0  0  0  0  0  0  0  0  0
  140.1180   70.1170  225.7630 C   0  0  0  0  0  0  0  0  0  0  0  0
  139.7870   69.8250  224.4770 N   0  0  0  0  0  0  0  0  0  0  0  0
  140.5450   71.7560  221.3440 N   0  0  0  0  0  0  0  0  0  0  0  0
  141.2410   71.3160  220.1270 C   0  0  0  0  0  0  0  0  0  0  0  0
  142.3530   72.3150  220.0450 C   0  0  1  0  0  0  0  0  0  0  0  0
  143.5500   71.9370  220.8700 C   0  0  0  0  0  0  0  0  0  0  0  0
  144.6430   72.7860  220.2660 C   0  0  0  0  0  0  0  0  0  0  0  0
  144.3260   72.8080  218.8730 N   0  0  0  0  0  0  0  0  0  0  0  0
  145.2650   72.0110  218.1540 C   0  0  0  0  0  0  0  0  0  0  0  0
  145.6610   70.7310  218.8180 C   0  0  0  0  0  0  0  0  0  0  0  0
  145.0130   69.5130  218.2480 C   0  0  1  0  0  0  0  0  0  0  0  0
  145.9470   68.3840  217.9500 C   0  0  0  0  0  0  0  0  0  0  0  0
  146.3210   67.9200  219.3540 C   0  0  0  0  0  0  0  0  0  0  0  0
  145.1920   68.1850  220.1930 N   0  0  0  0  0  0  0  0  0  0  0  0
  144.2100   68.8940  219.3980 C   0  0  0  0  0  0  0  0  0  0  0  0
  142.9590   72.4580  218.6700 C   0  0  0  0  0  0  0  0  0  0  0  0
  141.7660   73.5520  220.5680 C   0  0  0  0  0  0  0  0  0  0  0  0
  142.0370   74.9020  220.4620 C   0  0  0  0  0  0  0  0  0  0  0  0
  141.2910   75.8760  221.0870 C   0  0  0  0  0  0  0  0  0  0  0  0
  140.2200   75.4700  221.8560 C   0  0  0  0  0  0  0  0  0  0  0  0
  139.9270   74.1290  221.9790 C   0  0  0  0  0  0  0  0  0  0  0  0
  140.6840   73.1640  221.3460 C   0  0  0  0  0  0  0  0  0  0  0  0
  141.0775   72.8577  224.1684 H   0  0  0  0  0  0  0  0  0  0  0  0
  141.5656   72.9835  226.9524 H   0  0  0  0  0  0  0  0  0  0  0  0
  141.3300   71.6782  229.0722 H   0  0  0  0  0  0  0  0  0  0  0  0
  140.3235   69.4120  229.0587 H   0  0  0  0  0  0  0  0  0  0  0  0
  139.5352   68.3820  226.9229 H   0  0  0  0  0  0  0  0  0  0  0  0
  139.3410   68.9180  224.1620 H   0  0  0  0  0  0  0  0  0  0  0  0
  141.6275   70.2916  220.2326 H   0  0  0  0  0  0  0  0  0  0  0  0
  140.6024   71.2795  219.2321 H   0  0  0  0  0  0  0  0  0  0  0  0
  143.3956   72.1831  221.9309 H   0  0  0  0  0  0  0  0  0  0  0  0
  143.7716   70.8597  220.8541 H   0  0  0  0  0  0  0  0  0  0  0  0
  144.6283   73.8020  220.6875 H   0  0  0  0  0  0  0  0  0  0  0  0
  145.6495   72.3906  220.4673 H   0  0  0  0  0  0  0  0  0  0  0  0
  144.8231   71.7642  217.1774 H   0  0  0  0  0  0  0  0  0  0  0  0
  146.1830   72.6130  218.0844 H   0  0  0  0  0  0  0  0  0  0  0  0
  146.7509   70.6171  218.7227 H   0  0  0  0  0  0  0  0  0  0  0  0
  145.3266   70.8038  219.8634 H   0  0  0  0  0  0  0  0  0  0  0  0
  144.4916   69.8472  217.3389 H   0  0  0  0  0  0  0  0  0  0  0  0
  145.4448   67.5859  217.3835 H   0  0  0  0  0  0  0  0  0  0  0  0
  146.8082   68.6670  217.3269 H   0  0  0  0  0  0  0  0  0  0  0  0
  146.5447   66.8430  219.3496 H   0  0  0  0  0  0  0  0  0  0  0  0
  147.2151   68.4472  219.7182 H   0  0  0  0  0  0  0  0  0  0  0  0
  144.7960   67.2710  220.4860 H   0  0  0  0  0  0  0  0  0  0  0  0
  143.4501   68.1995  219.0105 H   0  0  0  0  0  0  0  0  0  0  0  0
  143.6698   69.6524  219.9836 H   0  0  0  0  0  0  0  0  0  0  0  0
  142.4426   73.2486  218.1059 H   0  0  0  0  0  0  0  0  0  0  0  0
  142.8649   71.5272  218.0914 H   0  0  0  0  0  0  0  0  0  0  0  0
  142.8931   75.2154  219.8465 H   0  0  0  0  0  0  0  0  0  0  0  0
  141.5405   76.9417  220.9769 H   0  0  0  0  0  0  0  0  0  0  0  0
  139.5992   76.2175  222.3716 H   0  0  0  0  0  0  0  0  0  0  0  0
  139.0701   73.8206  222.5959 H   0  0  0  0  0  0  0  0  0  0  0  0
  1  2  2  0
  2  3  1  0
  3  4  2  0
  4  5  1  0
  5  6  2  0
  6  7  1  0
  7  8  2  0
  8  9  1  0
  9 10  2  0
 10 11  1  0
  2 12  1  0
 12 13  1  0
 14 13  1  6
 14 15  1  0
 15 16  1  0
 16 17  1  0
 17 18  1  0
 18 19  1  0
 19 20  1  0
 20 21  1  0
 21 22  1  0
 22 23  1  0
 23 24  1  0
 17 25  1  0
 14 26  1  0
 26 27  2  0
 27 28  1  0
 28 29  2  0
 29 30  1  0
 30 31  2  0
 11  3  1  0
 31 12  1  0
 10  5  1  0
 25 14  1  0
 31 26  1  0
 24 20  1  0
  4 32  1  0
  6 33  1  0
  7 34  1  0
  8 35  1  0
  9 36  1  0
 11 37  1  0
 13 38  1  0
 13 39  1  0
 15 40  1  0
 15 41  1  0
 16 42  1  0
 16 43  1  0
 18 44  1  0
 18 45  1  0
 19 46  1  0
 19 47  1  0
 20 48  1  6
 21 49  1  0
 21 50  1  0
 22 51  1  0
 22 52  1  0
 23 53  1  0
 24 54  1  0
 24 55  1  0
 25 56  1  0
 25 57  1  0
 27 58  1  0
 28 59  1  0
 29 60  1  0
 30 61  1  0
M  END
>  <smiles>  (52) 
O=C(c1cc2ccccc2[nH]1)N1C[C@]2(CCN(CCC3CCNC3)C2)c2ccccc21

>  <score_type>  (52) 
oracle

>  <origin>  (52) 
autodockgpu

>  <m_score__min__energy>  (52) 
-9.3000000000000007

>  <m_primary>  (52) 
energy

>  <rmsd>  (52) 
4.4952677800495175

>  <m_score__min__rmsd>  (52) 
4.4952677800495175

>  <meeko>  (52) 
{"free_energy": -8.34, "intermolecular_energy": -9.83, "internal_energy": -1.75, "cluster_size": 16, "cluster_id": 3, "rank_in_cluster": 10}

>  <energy>  (52) 
-9.03

>  <cluster_rmsd>  (52) 
0.73

>  <cluster>  (52) 
1

$$$$

     RDKit          3D

 61 66  0  0  1  0  0  0  0  0999 V2000
  138.7270   70.2370  221.9600 O   0  0  0  0  0  0  0  0  0  0  0  0
  139.6740   71.0030  222.3590 C   0  0  0  0  0  0  0  0  0  0  0  0
  139.9440   70.9740  223.7770 C   0  0  0  0  0  0  0  0  0  0  0  0
  140.6760   71.8760  224.5570 C   0  0  0  0  0  0  0  0  0  0  0  0
  140.6310   71.3940  225.8580 C   0  0  0  0  0  0  0  0  0  0  0  0
  141.1940   71.9200  226.9970 C   0  0  0  0  0  0  0  0  0  0  0  0
  140.9890   71.2230  228.1760 C   0  0  0  0  0  0  0  0  0  0  0  0
  140.2420   70.0420  228.1990 C   0  0  0  0  0  0  0  0  0  0  0  0
  139.6810   69.5300  227.0370 C   0  0  0  0  0  0  0  0  0  0  0  0
  139.8850   70.2250  225.8570 C   0  0  0  0  0  0  0  0  0  0  0  0
  139.4730   69.9790  224.5860 N   0  0  0  0  0  0  0  0  0  0  0  0
  140.3700   71.8020  221.4190 N   0  0  0  0  0  0  0  0  0  0  0  0
  141.0690   71.2800  220.2370 C   0  0  0  0  0  0  0  0  0  0  0  0
  142.2270   72.2250  220.1380 C   0  0  1  0  0  0  0  0  0  0  0  0
  143.3880   71.8310  221.0050 C   0  0  0  0  0  0  0  0  0  0  0  0
  144.5310   72.6040  220.3900 C   0  0  0  0  0  0  0  0  0  0  0  0
  144.2430   72.5800  218.9910 N   0  0  0  0  0  0  0  0  0  0  0  0
  145.1600   71.7120  218.3270 C   0  0  0  0  0  0  0  0  0  0  0  0
  145.5250   70.4700  219.0760 C   0  0  0  0  0  0  0  0  0  0  0  0
  144.6650   69.2890  218.7710 C   0  0  1  0  0  0  0  0  0  0  0  0
  145.2840   68.2800  217.8570 C   0  0  0  0  0  0  0  0  0  0  0  0
  146.3550   67.6720  218.7550 C   0  0  0  0  0  0  0  0  0  0  0  0
  145.8620   67.7430  220.0970 N   0  0  0  0  0  0  0  0  0  0  0  0
  144.6090   68.4710  220.0670 C   0  0  0  0  0  0  0  0  0  0  0  0
  142.8660   72.2820  218.7730 C   0  0  0  0  0  0  0  0  0  0  0  0
  141.6850   73.5070  220.5960 C   0  0  0  0  0  0  0  0  0  0  0  0
  142.0180   74.8380  220.4400 C   0  0  0  0  0  0  0  0  0  0  0  0
  141.3030   75.8710  221.0060 C   0  0  0  0  0  0  0  0  0  0  0  0
  140.2000   75.5450  221.7670 C   0  0  0  0  0  0  0  0  0  0  0  0
  139.8450   74.2240  221.9400 C   0  0  0  0  0  0  0  0  0  0  0  0
  140.5710   73.2010  221.3650 C   0  0  0  0  0  0  0  0  0  0  0  0
  141.1858   72.7863  224.2085 H   0  0  0  0  0  0  0  0  0  0  0  0
  141.7797   72.8508  226.9728 H   0  0  0  0  0  0  0  0  0  0  0  0
  141.4222   71.6060  229.1118 H   0  0  0  0  0  0  0  0  0  0  0  0
  140.0966   69.5108  229.1512 H   0  0  0  0  0  0  0  0  0  0  0  0
  139.0925   68.6008  227.0532 H   0  0  0  0  0  0  0  0  0  0  0  0
  138.8870   69.1460  224.2940 H   0  0  0  0  0  0  0  0  0  0  0  0
  141.4065   70.2448  220.3936 H   0  0  0  0  0  0  0  0  0  0  0  0
  140.4474   71.2336  219.3307 H   0  0  0  0  0  0  0  0  0  0  0  0
  143.2229   72.1298  222.0507 H   0  0  0  0  0  0  0  0  0  0  0  0
  143.5610   70.7453  221.0402 H   0  0  0  0  0  0  0  0  0  0  0  0
  144.5542   73.6368  220.7679 H   0  0  0  0  0  0  0  0  0  0  0  0
  145.5144   72.1734  220.6299 H   0  0  0  0  0  0  0  0  0  0  0  0
  144.7097   71.4109  217.3696 H   0  0  0  0  0  0  0  0  0  0  0  0
  146.0929   72.2842  218.2163 H   0  0  0  0  0  0  0  0  0  0  0  0
  146.5648   70.2115  218.8270 H   0  0  0  0  0  0  0  0  0  0  0  0
  145.3818   70.6944  220.1433 H   0  0  0  0  0  0  0  0  0  0  0  0
  143.7361   69.6950  218.3440 H   0  0  0  0  0  0  0  0  0  0  0  0
  144.5512   67.5244  217.5376 H   0  0  0  0  0  0  0  0  0  0  0  0
  145.6729   68.7037  216.9193 H   0  0  0  0  0  0  0  0  0  0  0  0
  146.5348   66.6241  218.4730 H   0  0  0  0  0  0  0  0  0  0  0  0
  147.3065   68.2149  218.6559 H   0  0  0  0  0  0  0  0  0  0  0  0
  145.6820   66.7730  220.4190 H   0  0  0  0  0  0  0  0  0  0  0  0
  143.7567   67.7758  220.0504 H   0  0  0  0  0  0  0  0  0  0  0  0
  144.4755   69.1065  220.9549 H   0  0  0  0  0  0  0  0  0  0  0  0
  142.3970   73.0695  218.1649 H   0  0  0  0  0  0  0  0  0  0  0  0
  142.7420   71.3322  218.2322 H   0  0  0  0  0  0  0  0  0  0  0  0
  142.9003   75.0867  219.8320 H   0  0  0  0  0  0  0  0  0  0  0  0
  141.6015   76.9191  220.8561 H   0  0  0  0  0  0  0  0  0  0  0  0
  139.6025   76.3402  222.2367 H   0  0  0  0  0  0  0  0  0  0  0  0
  138.9630   73.9800  222.5503 H   0  0  0  0  0  0  0  0  0  0  0  0
  1  2  2  0
  2  3  1  0
  3  4  2  0
  4  5  1  0
  5  6  2  0
  6  7  1  0
  7  8  2  0
  8  9  1  0
  9 10  2  0
 10 11  1  0
  2 12  1  0
 12 13  1  0
 14 13  1  6
 14 15  1  0
 15 16  1  0
 16 17  1  0
 17 18  1  0
 18 19  1  0
 19 20  1  0
 20 21  1  0
 21 22  1  0
 22 23  1  0
 23 24  1  0
 17 25  1  0
 14 26  1  0
 26 27  2  0
 27 28  1  0
 28 29  2  0
 29 30  1  0
 30 31  2  0
 11  3  1  0
 31 12  1  0
 10  5  1  0
 25 14  1  0
 31 26  1  0
 24 20  1  0
  4 32  1  0
  6 33  1  0
  7 34  1  0
  8 35  1  0
  9 36  1  0
 11 37  1  0
 13 38  1  0
 13 39  1  0
 15 40  1  0
 15 41  1  0
 16 42  1  0
 16 43  1  0
 18 44  1  0
 18 45  1  0
 19 46  1  0
 19 47  1  0
 20 48  1  6
 21 49  1  0
 21 50  1  0
 22 51  1  0
 22 52  1  0
 23 53  1  0
 24 54  1  0
 24 55  1  0
 25 56  1  0
 25 57  1  0
 27 58  1  0
 28 59  1  0
 29 60  1  0
 30 61  1  0
M  END
>  <smiles>  (53) 
O=C(c1cc2ccccc2[nH]1)N1C[C@]2(CCN(CCC3CCNC3)C2)c2ccccc21

>  <score_type>  (53) 
oracle

>  <origin>  (53) 
autodockgpu

>  <m_score__min__energy>  (53) 
-9.3000000000000007

>  <m_primary>  (53) 
energy

>  <rmsd>  (53) 
4.453910155343423

>  <m_score__min__rmsd>  (53) 
4.453910155343423

>  <meeko>  (53) 
{"free_energy": -8.52, "intermolecular_energy": -10.01, "internal_energy": -1.73, "cluster_size": 16, "cluster_id": 3, "rank_in_cluster": 3}

>  <energy>  (53) 
-9.0

>  <cluster_rmsd>  (53) 
0.57

>  <cluster>  (53) 
1

$$$$

     RDKit          3D

 61 66  0  0  1  0  0  0  0  0999 V2000
  138.5960   70.2080  221.8760 O   0  0  0  0  0  0  0  0  0  0  0  0
  139.5630   70.9390  222.2930 C   0  0  0  0  0  0  0  0  0  0  0  0
  139.8390   70.8610  223.7080 C   0  0  0  0  0  0  0  0  0  0  0  0
  139.6150   69.8020  224.5950 C   0  0  0  0  0  0  0  0  0  0  0  0
  140.0580   70.2340  225.8380 C   0  0  0  0  0  0  0  0  0  0  0  0
  140.0570   69.5640  227.0390 C   0  0  0  0  0  0  0  0  0  0  0  0
  140.5630   70.2420  228.1350 C   0  0  0  0  0  0  0  0  0  0  0  0
  141.0520   71.5460  228.0170 C   0  0  0  0  0  0  0  0  0  0  0  0
  141.0450   72.2040  226.7940 C   0  0  0  0  0  0  0  0  0  0  0  0
  140.5380   71.5270  225.6980 C   0  0  0  0  0  0  0  0  0  0  0  0
  140.4000   71.8980  224.3970 N   0  0  0  0  0  0  0  0  0  0  0  0
  140.2740   71.7480  221.3730 N   0  0  0  0  0  0  0  0  0  0  0  0
  140.9270   71.2500  220.1550 C   0  0  0  0  0  0  0  0  0  0  0  0
  142.1210   72.1480  220.0720 C   0  0  1  0  0  0  0  0  0  0  0  0
  143.2820   71.6680  220.8950 C   0  0  0  0  0  0  0  0  0  0  0  0
  144.4440   72.4190  220.2890 C   0  0  0  0  0  0  0  0  0  0  0  0
  144.1280   72.4680  218.8970 N   0  0  0  0  0  0  0  0  0  0  0  0
  144.9940   71.5920  218.1760 C   0  0  0  0  0  0  0  0  0  0  0  0
  145.4560   70.3860  218.9290 C   0  0  0  0  0  0  0  0  0  0  0  0
  144.6060   69.1750  218.7400 C   0  0  1  0  0  0  0  0  0  0  0  0
  145.2170   68.1010  217.8980 C   0  0  0  0  0  0  0  0  0  0  0  0
  146.3150   67.5800  218.8190 C   0  0  0  0  0  0  0  0  0  0  0  0
  145.8490   67.7560  220.1620 N   0  0  0  0  0  0  0  0  0  0  0  0
  144.5870   68.4650  220.0990 C   0  0  0  0  0  0  0  0  0  0  0  0
  142.7350   72.2380  218.6960 C   0  0  0  0  0  0  0  0  0  0  0  0
  141.6450   73.4310  220.5950 C   0  0  0  0  0  0  0  0  0  0  0  0
  142.0310   74.7520  220.4890 C   0  0  0  0  0  0  0  0  0  0  0  0
  141.3730   75.7880  221.1140 C   0  0  0  0  0  0  0  0  0  0  0  0
  140.2720   75.4760  221.8850 C   0  0  0  0  0  0  0  0  0  0  0  0
  139.8640   74.1650  222.0080 C   0  0  0  0  0  0  0  0  0  0  0  0
  140.5330   73.1390  221.3750 C   0  0  0  0  0  0  0  0  0  0  0  0
  139.1755   68.8225  224.3552 H   0  0  0  0  0  0  0  0  0  0  0  0
  139.6721   68.5371  227.1249 H   0  0  0  0  0  0  0  0  0  0  0  0
  140.5805   69.7454  229.1164 H   0  0  0  0  0  0  0  0  0  0  0  0
  141.4482   72.0587  228.9059 H   0  0  0  0  0  0  0  0  0  0  0  0
  141.4299   73.2301  226.6992 H   0  0  0  0  0  0  0  0  0  0  0  0
  140.6840   72.8410  224.0080 H   0  0  0  0  0  0  0  0  0  0  0  0
  141.2230   70.1957  220.2595 H   0  0  0  0  0  0  0  0  0  0  0  0
  140.2864   71.2698  219.2610 H   0  0  0  0  0  0  0  0  0  0  0  0
  143.1512   71.9268  221.9561 H   0  0  0  0  0  0  0  0  0  0  0  0
  143.4093   70.5755  220.8790 H   0  0  0  0  0  0  0  0  0  0  0  0
  144.5182   73.4325  220.7101 H   0  0  0  0  0  0  0  0  0  0  0  0
  145.4128   71.9379  220.4890 H   0  0  0  0  0  0  0  0  0  0  0  0
  144.4585   71.2477  217.2789 H   0  0  0  0  0  0  0  0  0  0  0  0
  145.8992   72.1758  217.9529 H   0  0  0  0  0  0  0  0  0  0  0  0
  146.4767   70.1443  218.5976 H   0  0  0  0  0  0  0  0  0  0  0  0
  145.3998   70.6438  219.9969 H   0  0  0  0  0  0  0  0  0  0  0  0
  143.6638   69.5353  218.3013 H   0  0  0  0  0  0  0  0  0  0  0  0
  144.4867   67.3141  217.6583 H   0  0  0  0  0  0  0  0  0  0  0  0
  145.5801   68.4500  216.9201 H   0  0  0  0  0  0  0  0  0  0  0  0
  146.5019   66.5144  218.6199 H   0  0  0  0  0  0  0  0  0  0  0  0
  147.2575   68.1228  218.6547 H   0  0  0  0  0  0  0  0  0  0  0  0
  145.6880   66.8130  220.5650 H   0  0  0  0  0  0  0  0  0  0  0  0
  143.7435   67.7613  220.1571 H   0  0  0  0  0  0  0  0  0  0  0  0
  144.4636   69.1696  220.9347 H   0  0  0  0  0  0  0  0  0  0  0  0
  142.2883   73.0705  218.1327 H   0  0  0  0  0  0  0  0  0  0  0  0
  142.5595   71.3190  218.1175 H   0  0  0  0  0  0  0  0  0  0  0  0
  142.9106   74.9899  219.8728 H   0  0  0  0  0  0  0  0  0  0  0  0
  141.7134   76.8281  221.0024 H   0  0  0  0  0  0  0  0  0  0  0  0
  139.7193   76.2742  222.4020 H   0  0  0  0  0  0  0  0  0  0  0  0
  138.9841   73.9320  222.6256 H   0  0  0  0  0  0  0  0  0  0  0  0
  1  2  2  0
  2  3  1  0
  3  4  2  0
  4  5  1  0
  5  6  2  0
  6  7  1  0
  7  8  2  0
  8  9  1  0
  9 10  2  0
 10 11  1  0
  2 12  1  0
 12 13  1  0
 14 13  1  6
 14 15  1  0
 15 16  1  0
 16 17  1  0
 17 18  1  0
 18 19  1  0
 19 20  1  0
 20 21  1  0
 21 22  1  0
 22 23  1  0
 23 24  1  0
 17 25  1  0
 14 26  1  0
 26 27  2  0
 27 28  1  0
 28 29  2  0
 29 30  1  0
 30 31  2  0
 11  3  1  0
 31 12  1  0
 10  5  1  0
 25 14  1  0
 31 26  1  0
 24 20  1  0
  4 32  1  0
  6 33  1  0
  7 34  1  0
  8 35  1  0
  9 36  1  0
 11 37  1  0
 13 38  1  0
 13 39  1  0
 15 40  1  0
 15 41  1  0
 16 42  1  0
 16 43  1  0
 18 44  1  0
 18 45  1  0
 19 46  1  0
 19 47  1  0
 20 48  1  6
 21 49  1  0
 21 50  1  0
 22 51  1  0
 22 52  1  0
 23 53  1  0
 24 54  1  0
 24 55  1  0
 25 56  1  0
 25 57  1  0
 27 58  1  0
 28 59  1  0
 29 60  1  0
 30 61  1  0
M  END
>  <smiles>  (54) 
O=C(c1cc2ccccc2[nH]1)N1C[C@]2(CCN(CCC3CCNC3)C2)c2ccccc21

>  <score_type>  (54) 
oracle

>  <origin>  (54) 
autodockgpu

>  <m_score__min__energy>  (54) 
-9.3000000000000007

>  <m_primary>  (54) 
energy

>  <rmsd>  (54) 
4.426577770523004

>  <m_score__min__rmsd>  (54) 
4.426577770523004

>  <meeko>  (54) 
{"free_energy": -8.55, "intermolecular_energy": -10.04, "internal_energy": -1.54, "cluster_size": 16, "cluster_id": 3, "rank_in_cluster": 2}

>  <energy>  (54) 
-8.92

>  <cluster_rmsd>  (54) 
0.69

>  <cluster>  (54) 
1

$$$$

     RDKit          3D

 61 66  0  0  1  0  0  0  0  0999 V2000
  139.1200   72.0230  220.9770 O   0  0  0  0  0  0  0  0  0  0  0  0
  139.9730   72.3880  221.8630 C   0  0  0  0  0  0  0  0  0  0  0  0
  140.0030   71.5900  223.0650 C   0  0  0  0  0  0  0  0  0  0  0  0
  140.6300   71.8570  224.2880 C   0  0  0  0  0  0  0  0  0  0  0  0
  140.3520   70.7750  225.1130 C   0  0  0  0  0  0  0  0  0  0  0  0
  140.7390   70.5570  226.4150 C   0  0  0  0  0  0  0  0  0  0  0  0
  140.3160   69.3770  227.0040 C   0  0  0  0  0  0  0  0  0  0  0  0
  139.5310   68.4580  226.3020 C   0  0  0  0  0  0  0  0  0  0  0  0
  139.1510   68.7000  224.9890 C   0  0  0  0  0  0  0  0  0  0  0  0
  139.5740   69.8780  224.3980 C   0  0  0  0  0  0  0  0  0  0  0  0
  139.3680   70.3840  223.1540 N   0  0  0  0  0  0  0  0  0  0  0  0
  140.7990   73.5100  221.6150 N   0  0  0  0  0  0  0  0  0  0  0  0
  140.4580   74.8940  221.9730 C   0  0  0  0  0  0  0  0  0  0  0  0
  141.0860   75.6540  220.8460 C   0  0  1  0  0  0  0  0  0  0  0  0
  140.2070   75.7470  219.6330 C   0  0  0  0  0  0  0  0  0  0  0  0
  140.8150   76.9040  218.8770 C   0  0  0  0  0  0  0  0  0  0  0  0
  141.2360   77.8000  219.9080 N   0  0  0  0  0  0  0  0  0  0  0  0
  140.3800   78.9420  219.9290 C   0  0  0  0  0  0  0  0  0  0  0  0
  139.9350   79.3840  221.2860 C   0  0  0  0  0  0  0  0  0  0  0  0
  140.6640   80.5710  221.8200 C   0  0  1  0  0  0  0  0  0  0  0  0
  140.9410   80.5320  223.2890 C   0  0  0  0  0  0  0  0  0  0  0  0
  142.0030   79.4410  223.3700 C   0  0  0  0  0  0  0  0  0  0  0  0
  142.7370   79.4830  222.1420 N   0  0  0  0  0  0  0  0  0  0  0  0
  142.0950   80.4560  221.2800 C   0  0  0  0  0  0  0  0  0  0  0  0
  141.3480   77.1080  221.1500 C   0  0  0  0  0  0  0  0  0  0  0  0
  142.2920   74.8870  220.5220 C   0  0  0  0  0  0  0  0  0  0  0  0
  143.4950   75.1460  219.8950 C   0  0  0  0  0  0  0  0  0  0  0  0
  144.4800   74.1990  219.7240 C   0  0  0  0  0  0  0  0  0  0  0  0
  144.2410   72.9290  220.2060 C   0  0  0  0  0  0  0  0  0  0  0  0
  143.0480   72.6430  220.8360 C   0  0  0  0  0  0  0  0  0  0  0  0
  142.0710   73.6030  221.0010 C   0  0  0  0  0  0  0  0  0  0  0  0
  141.2243   72.7464  224.5443 H   0  0  0  0  0  0  0  0  0  0  0  0
  141.3553   71.2854  226.9624 H   0  0  0  0  0  0  0  0  0  0  0  0
  140.6031   69.1591  228.0433 H   0  0  0  0  0  0  0  0  0  0  0  0
  139.2097   67.5297  226.7971 H   0  0  0  0  0  0  0  0  0  0  0  0
  138.5328   67.9779  224.4354 H   0  0  0  0  0  0  0  0  0  0  0  0
  138.8080   69.9030  222.3940 H   0  0  0  0  0  0  0  0  0  0  0  0
  139.3688   75.0452  222.0026 H   0  0  0  0  0  0  0  0  0  0  0  0
  140.8066   75.1993  222.9706 H   0  0  0  0  0  0  0  0  0  0  0  0
  140.2468   74.8206  219.0412 H   0  0  0  0  0  0  0  0  0  0  0  0
  139.1430   75.8902  219.8724 H   0  0  0  0  0  0  0  0  0  0  0  0
  141.6719   76.5708  218.2731 H   0  0  0  0  0  0  0  0  0  0  0  0
  140.1110   77.3682  218.1707 H   0  0  0  0  0  0  0  0  0  0  0  0
  140.9182   79.7784  219.4590 H   0  0  0  0  0  0  0  0  0  0  0  0
  139.4669   78.6467  219.3915 H   0  0  0  0  0  0  0  0  0  0  0  0
  138.8650   79.6335  221.2323 H   0  0  0  0  0  0  0  0  0  0  0  0
  140.1486   78.5510  221.9720 H   0  0  0  0  0  0  0  0  0  0  0  0
  140.0506   81.4447  221.5547 H   0  0  0  0  0  0  0  0  0  0  0  0
  141.3274   81.4963  223.6507 H   0  0  0  0  0  0  0  0  0  0  0  0
  140.0522   80.3391  223.9077 H   0  0  0  0  0  0  0  0  0  0  0  0
  142.6758   79.6304  224.2194 H   0  0  0  0  0  0  0  0  0  0  0  0
  141.5422   78.4534  223.5196 H   0  0  0  0  0  0  0  0  0  0  0  0
  143.6990   79.8070  222.3600 H   0  0  0  0  0  0  0  0  0  0  0  0
  142.6107   81.4259  221.3384 H   0  0  0  0  0  0  0  0  0  0  0  0
  142.1176   80.1539  220.2225 H   0  0  0  0  0  0  0  0  0  0  0  0
  142.3579   77.2345  221.5674 H   0  0  0  0  0  0  0  0  0  0  0  0
  140.6353   77.4974  221.8918 H   0  0  0  0  0  0  0  0  0  0  0  0
  143.6757   76.1614  219.5124 H   0  0  0  0  0  0  0  0  0  0  0  0
  145.4257   74.4471  219.2199 H   0  0  0  0  0  0  0  0  0  0  0  0
  145.0023   72.1439  220.0878 H   0  0  0  0  0  0  0  0  0  0  0  0
  142.8713   71.6259  221.2157 H   0  0  0  0  0  0  0  0  0  0  0  0
  1  2  2  0
  2  3  1  0
  3  4  2  0
  4  5  1  0
  5  6  2  0
  6  7  1  0
  7  8  2  0
  8  9  1  0
  9 10  2  0
 10 11  1  0
  2 12  1  0
 12 13  1  0
 14 13  1  1
 14 15  1  0
 15 16  1  0
 16 17  1  0
 17 18  1  0
 18 19  1  0
 19 20  1  0
 20 21  1  0
 21 22  1  0
 22 23  1  0
 23 24  1  0
 17 25  1  0
 14 26  1  0
 26 27  2  0
 27 28  1  0
 28 29  2  0
 29 30  1  0
 30 31  2  0
 11  3  1  0
 31 12  1  0
 10  5  1  0
 25 14  1  0
 31 26  1  0
 24 20  1  0
  4 32  1  0
  6 33  1  0
  7 34  1  0
  8 35  1  0
  9 36  1  0
 11 37  1  0
 13 38  1  0
 13 39  1  0
 15 40  1  0
 15 41  1  0
 16 42  1  0
 16 43  1  0
 18 44  1  0
 18 45  1  0
 19 46  1  0
 19 47  1  0
 20 48  1  1
 21 49  1  0
 21 50  1  0
 22 51  1  0
 22 52  1  0
 23 53  1  0
 24 54  1  0
 24 55  1  0
 25 56  1  0
 25 57  1  0
 27 58  1  0
 28 59  1  0
 29 60  1  0
 30 61  1  0
M  END
>  <smiles>  (55) 
O=C(c1cc2ccccc2[nH]1)N1C[C@]2(CCN(CCC3CCNC3)C2)c2ccccc21

>  <score_type>  (55) 
oracle

>  <origin>  (55) 
autodockgpu

>  <m_score__min__energy>  (55) 
-9.3000000000000007

>  <m_primary>  (55) 
energy

>  <rmsd>  (55) 
3.9432057981631736

>  <m_score__min__rmsd>  (55) 
3.9432057981631736

>  <meeko>  (55) 
{"free_energy": -8.06, "intermolecular_energy": -9.55, "internal_energy": -1.57, "cluster_size": 4, "cluster_id": 6, "rank_in_cluster": 3}

>  <energy>  (55) 
-8.9

>  <cluster_rmsd>  (55) 
1.09

>  <cluster>  (55) 
1

$$$$

     RDKit          3D

 61 66  0  0  1  0  0  0  0  0999 V2000
  140.3250   75.7260  222.1990 O   0  0  0  0  0  0  0  0  0  0  0  0
  140.6870   76.8970  221.8220 C   0  0  0  0  0  0  0  0  0  0  0  0
  141.3690   76.9610  220.5520 C   0  0  0  0  0  0  0  0  0  0  0  0
  141.4620   78.0270  219.6510 C   0  0  0  0  0  0  0  0  0  0  0  0
  142.2310   77.5730  218.5870 C   0  0  0  0  0  0  0  0  0  0  0  0
  142.6120   78.2410  217.4470 C   0  0  0  0  0  0  0  0  0  0  0  0
  143.3880   77.5390  216.5410 C   0  0  0  0  0  0  0  0  0  0  0  0
  143.7640   76.2140  216.7820 C   0  0  0  0  0  0  0  0  0  0  0  0
  143.3690   75.5600  217.9410 C   0  0  0  0  0  0  0  0  0  0  0  0
  142.5920   76.2610  218.8480 C   0  0  0  0  0  0  0  0  0  0  0  0
  142.0620   75.8990  220.0450 N   0  0  0  0  0  0  0  0  0  0  0  0
  140.4050   78.0140  222.6470 N   0  0  0  0  0  0  0  0  0  0  0  0
  139.1080   78.2710  223.2880 C   0  0  0  0  0  0  0  0  0  0  0  0
  139.0500   79.7670  223.2470 C   0  0  1  0  0  0  0  0  0  0  0  0
  138.5190   80.3030  221.9490 C   0  0  0  0  0  0  0  0  0  0  0  0
  138.1150   81.7110  222.3180 C   0  0  0  0  0  0  0  0  0  0  0  0
  137.6190   81.5830  223.6520 N   0  0  0  0  0  0  0  0  0  0  0  0
  136.2010   81.7330  223.6530 C   0  0  0  0  0  0  0  0  0  0  0  0
  135.6350   82.4720  224.8230 C   0  0  0  0  0  0  0  0  0  0  0  0
  136.6520   83.1680  225.6650 C   0  0  1  0  0  0  0  0  0  0  0  0
  136.1360   84.3450  226.4310 C   0  0  0  0  0  0  0  0  0  0  0  0
  135.2630   83.6660  227.4800 C   0  0  0  0  0  0  0  0  0  0  0  0
  135.8490   82.3880  227.7450 N   0  0  0  0  0  0  0  0  0  0  0  0
  136.9550   82.2120  226.8250 C   0  0  0  0  0  0  0  0  0  0  0  0
  138.0980   80.3780  224.2450 C   0  0  0  0  0  0  0  0  0  0  0  0
  140.4430   80.1860  223.4190 C   0  0  0  0  0  0  0  0  0  0  0  0
  141.0910   81.3310  223.8380 C   0  0  0  0  0  0  0  0  0  0  0  0
  142.4620   81.4480  223.9010 C   0  0  0  0  0  0  0  0  0  0  0  0
  143.2160   80.3570  223.5220 C   0  0  0  0  0  0  0  0  0  0  0  0
  142.5950   79.2010  223.0990 C   0  0  0  0  0  0  0  0  0  0  0  0
  141.2210   79.0990  223.0430 C   0  0  0  0  0  0  0  0  0  0  0  0
  141.0151   79.0259  219.7628 H   0  0  0  0  0  0  0  0  0  0  0  0
  142.3141   79.2839  217.2638 H   0  0  0  0  0  0  0  0  0  0  0  0
  143.7150   78.0327  215.6140 H   0  0  0  0  0  0  0  0  0  0  0  0
  144.3814   75.6825  216.0429 H   0  0  0  0  0  0  0  0  0  0  0  0
  143.6639   74.5178  218.1329 H   0  0  0  0  0  0  0  0  0  0  0  0
  142.1780   74.9440  220.4900 H   0  0  0  0  0  0  0  0  0  0  0  0
  138.2815   77.8205  222.7188 H   0  0  0  0  0  0  0  0  0  0  0  0
  139.0127   77.8446  224.2975 H   0  0  0  0  0  0  0  0  0  0  0  0
  139.2968   80.3035  221.1711 H   0  0  0  0  0  0  0  0  0  0  0  0
  137.6951   79.7053  221.5319 H   0  0  0  0  0  0  0  0  0  0  0  0
  138.9807   82.3888  222.2848 H   0  0  0  0  0  0  0  0  0  0  0  0
  137.3729   82.1364  221.6264 H   0  0  0  0  0  0  0  0  0  0  0  0
  135.9165   82.2753  222.7392 H   0  0  0  0  0  0  0  0  0  0  0  0
  135.7886   80.7148  223.7094 H   0  0  0  0  0  0  0  0  0  0  0  0
  134.9283   83.2252  224.4446 H   0  0  0  0  0  0  0  0  0  0  0  0
  135.1567   81.7195  225.4673 H   0  0  0  0  0  0  0  0  0  0  0  0
  137.4594   83.4633  224.9787 H   0  0  0  0  0  0  0  0  0  0  0  0
  136.9556   84.9122  226.8963 H   0  0  0  0  0  0  0  0  0  0  0  0
  135.6031   85.0832  225.8137 H   0  0  0  0  0  0  0  0  0  0  0  0
  135.2388   84.2690  228.3997 H   0  0  0  0  0  0  0  0  0  0  0  0
  134.2288   83.5579  227.1212 H   0  0  0  0  0  0  0  0  0  0  0  0
  136.2170   82.4050  228.7160 H   0  0  0  0  0  0  0  0  0  0  0  0
  137.9072   82.4773  227.3077 H   0  0  0  0  0  0  0  0  0  0  0  0
  137.0556   81.1692  226.4896 H   0  0  0  0  0  0  0  0  0  0  0  0
  138.6224   80.5986  225.1865 H   0  0  0  0  0  0  0  0  0  0  0  0
  137.2715   79.6920  224.4823 H   0  0  0  0  0  0  0  0  0  0  0  0
  140.4801   82.1954  224.1373 H   0  0  0  0  0  0  0  0  0  0  0  0
  142.9388   82.3789  224.2416 H   0  0  0  0  0  0  0  0  0  0  0  0
  144.3142   80.4093  223.5573 H   0  0  0  0  0  0  0  0  0  0  0  0
  143.2101   78.3398  222.7991 H   0  0  0  0  0  0  0  0  0  0  0  0
  1  2  2  0
  2  3  1  0
  3  4  2  0
  4  5  1  0
  5  6  2  0
  6  7  1  0
  7  8  2  0
  8  9  1  0
  9 10  2  0
 10 11  1  0
  2 12  1  0
 12 13  1  0
 14 13  1  6
 14 15  1  0
 15 16  1  0
 16 17  1  0
 17 18  1  0
 18 19  1  0
 19 20  1  0
 20 21  1  0
 21 22  1  0
 22 23  1  0
 23 24  1  0
 17 25  1  0
 14 26  1  0
 26 27  2  0
 27 28  1  0
 28 29  2  0
 29 30  1  0
 30 31  2  0
 11  3  1  0
 31 12  1  0
 10  5  1  0
 25 14  1  0
 31 26  1  0
 24 20  1  0
  4 32  1  0
  6 33  1  0
  7 34  1  0
  8 35  1  0
  9 36  1  0
 11 37  1  0
 13 38  1  0
 13 39  1  0
 15 40  1  0
 15 41  1  0
 16 42  1  0
 16 43  1  0
 18 44  1  0
 18 45  1  0
 19 46  1  0
 19 47  1  0
 20 48  1  6
 21 49  1  0
 21 50  1  0
 22 51  1  0
 22 52  1  0
 23 53  1  0
 24 54  1  0
 24 55  1  0
 25 56  1  0
 25 57  1  0
 27 58  1  0
 28 59  1  0
 29 60  1  0
 30 61  1  0
M  END
>  <smiles>  (56) 
O=C(c1cc2ccccc2[nH]1)N1C[C@]2(CCN(CCC3CCNC3)C2)c2ccccc21

>  <score_type>  (56) 
oracle

>  <origin>  (56) 
autodockgpu

>  <m_score__min__energy>  (56) 
-9.3000000000000007

>  <m_primary>  (56) 
energy

>  <rmsd>  (56) 
8.087400770124969

>  <m_score__min__rmsd>  (56) 
8.087400770124969

>  <meeko>  (56) 
{"free_energy": -7.81, "intermolecular_energy": -9.3, "internal_energy": -1.6, "cluster_size": 7, "cluster_id": 2, "rank_in_cluster": 7}

>  <energy>  (56) 
-8.9

>  <cluster_rmsd>  (56) 
0.44

>  <cluster>  (56) 
1

$$$$

     RDKit          3D

 61 66  0  0  1  0  0  0  0  0999 V2000
  140.1440   74.1460  222.2940 O   0  0  0  0  0  0  0  0  0  0  0  0
  140.7600   75.0230  221.5900 C   0  0  0  0  0  0  0  0  0  0  0  0
  140.5730   76.3940  222.0010 C   0  0  0  0  0  0  0  0  0  0  0  0
  141.4500   77.4790  221.8840 C   0  0  0  0  0  0  0  0  0  0  0  0
  140.7900   78.5740  222.4280 C   0  0  0  0  0  0  0  0  0  0  0  0
  141.2240   79.8730  222.5510 C   0  0  0  0  0  0  0  0  0  0  0  0
  140.3520   80.7710  223.1410 C   0  0  0  0  0  0  0  0  0  0  0  0
  139.0890   80.3680  223.5870 C   0  0  0  0  0  0  0  0  0  0  0  0
  138.6710   79.0510  223.4510 C   0  0  0  0  0  0  0  0  0  0  0  0
  139.5430   78.1520  222.8620 C   0  0  0  0  0  0  0  0  0  0  0  0
  139.4230   76.8250  222.5970 N   0  0  0  0  0  0  0  0  0  0  0  0
  141.5540   74.6070  220.4950 N   0  0  0  0  0  0  0  0  0  0  0  0
  141.9800   73.2210  220.2520 C   0  0  0  0  0  0  0  0  0  0  0  0
  143.3330   73.4300  219.6460 C   0  0  1  0  0  0  0  0  0  0  0  0
  144.4210   73.5900  220.6680 C   0  0  0  0  0  0  0  0  0  0  0  0
  145.6680   73.3030  219.8650 C   0  0  0  0  0  0  0  0  0  0  0  0
  145.2590   72.2790  218.9560 N   0  0  0  0  0  0  0  0  0  0  0  0
  145.8480   71.0370  219.3370 C   0  0  0  0  0  0  0  0  0  0  0  0
  145.9190   70.0040  218.2580 C   0  0  0  0  0  0  0  0  0  0  0  0
  144.8910   68.9270  218.3640 C   0  0  1  0  0  0  0  0  0  0  0  0
  145.3080   67.6020  217.8100 C   0  0  0  0  0  0  0  0  0  0  0  0
  146.3440   67.1560  218.8350 C   0  0  0  0  0  0  0  0  0  0  0  0
  145.9540   67.7170  220.0920 N   0  0  0  0  0  0  0  0  0  0  0  0
  144.8110   68.5760  219.8540 C   0  0  0  0  0  0  0  0  0  0  0  0
  143.8380   72.2610  218.8370 C   0  0  0  0  0  0  0  0  0  0  0  0
  143.1960   74.6700  218.8770 C   0  0  0  0  0  0  0  0  0  0  0  0
  143.8550   75.2590  217.8160 C   0  0  0  0  0  0  0  0  0  0  0  0
  143.4950   76.4750  217.2790 C   0  0  0  0  0  0  0  0  0  0  0  0
  142.4190   77.1300  217.8400 C   0  0  0  0  0  0  0  0  0  0  0  0
  141.7430   76.5660  218.9010 C   0  0  0  0  0  0  0  0  0  0  0  0
  142.1150   75.3460  219.4270 C   0  0  0  0  0  0  0  0  0  0  0  0
  142.4600   77.4670  221.4484 H   0  0  0  0  0  0  0  0  0  0  0  0
  142.2180   80.1838  222.1969 H   0  0  0  0  0  0  0  0  0  0  0  0
  140.6576   81.8208  223.2615 H   0  0  0  0  0  0  0  0  0  0  0  0
  138.4175   81.1048  224.0520 H   0  0  0  0  0  0  0  0  0  0  0  0
  137.6779   78.7321  223.8004 H   0  0  0  0  0  0  0  0  0  0  0  0
  138.5690   76.2410  222.8270 H   0  0  0  0  0  0  0  0  0  0  0  0
  142.0430   72.6492  221.1896 H   0  0  0  0  0  0  0  0  0  0  0  0
  141.2892   72.6422  219.6213 H   0  0  0  0  0  0  0  0  0  0  0  0
  144.4368   74.6117  221.0753 H   0  0  0  0  0  0  0  0  0  0  0  0
  144.3015   72.9334  221.5424 H   0  0  0  0  0  0  0  0  0  0  0  0
  145.9994   74.2001  219.3216 H   0  0  0  0  0  0  0  0  0  0  0  0
  146.5185   72.9997  220.4932 H   0  0  0  0  0  0  0  0  0  0  0  0
  146.8729   71.2389  219.6818 H   0  0  0  0  0  0  0  0  0  0  0  0
  145.1946   70.6176  220.1162 H   0  0  0  0  0  0  0  0  0  0  0  0
  145.7889   70.5092  217.2896 H   0  0  0  0  0  0  0  0  0  0  0  0
  146.8982   69.5130  218.3587 H   0  0  0  0  0  0  0  0  0  0  0  0
  143.9990   69.3104  217.8470 H   0  0  0  0  0  0  0  0  0  0  0  0
  144.4612   66.9014  217.7637 H   0  0  0  0  0  0  0  0  0  0  0  0
  145.6881   67.6468  216.7787 H   0  0  0  0  0  0  0  0  0  0  0  0
  146.3629   66.0581  218.9005 H   0  0  0  0  0  0  0  0  0  0  0  0
  147.3511   67.4935  218.5490 H   0  0  0  0  0  0  0  0  0  0  0  0
  145.6670   66.9350  220.7110 H   0  0  0  0  0  0  0  0  0  0  0  0
  143.8738   68.0453  220.0777 H   0  0  0  0  0  0  0  0  0  0  0  0
  144.8229   69.4710  220.4934 H   0  0  0  0  0  0  0  0  0  0  0  0
  143.5422   72.3704  217.7832 H   0  0  0  0  0  0  0  0  0  0  0  0
  143.4174   71.3113  219.1993 H   0  0  0  0  0  0  0  0  0  0  0  0
  144.7128   74.7289  217.3765 H   0  0  0  0  0  0  0  0  0  0  0  0
  144.0467   76.9087  216.4319 H   0  0  0  0  0  0  0  0  0  0  0  0
  142.0996   78.1038  217.4404 H   0  0  0  0  0  0  0  0  0  0  0  0
  140.8872   77.1011  219.3383 H   0  0  0  0  0  0  0  0  0  0  0  0
  1  2  2  0
  2  3  1  0
  3  4  2  0
  4  5  1  0
  5  6  2  0
  6  7  1  0
  7  8  2  0
  8  9  1  0
  9 10  2  0
 10 11  1  0
  2 12  1  0
 12 13  1  0
 14 13  1  1
 14 15  1  0
 15 16  1  0
 16 17  1  0
 17 18  1  0
 18 19  1  0
 19 20  1  0
 20 21  1  0
 21 22  1  0
 22 23  1  0
 23 24  1  0
 17 25  1  0
 14 26  1  0
 26 27  2  0
 27 28  1  0
 28 29  2  0
 29 30  1  0
 30 31  2  0
 11  3  1  0
 31 12  1  0
 10  5  1  0
 25 14  1  0
 31 26  1  0
 24 20  1  0
  4 32  1  0
  6 33  1  0
  7 34  1  0
  8 35  1  0
  9 36  1  0
 11 37  1  0
 13 38  1  0
 13 39  1  0
 15 40  1  0
 15 41  1  0
 16 42  1  0
 16 43  1  0
 18 44  1  0
 18 45  1  0
 19 46  1  0
 19 47  1  0
 20 48  1  6
 21 49  1  0
 21 50  1  0
 22 51  1  0
 22 52  1  0
 23 53  1  0
 24 54  1  0
 24 55  1  0
 25 56  1  0
 25 57  1  0
 27 58  1  0
 28 59  1  0
 29 60  1  0
 30 61  1  0
M  END
>  <smiles>  (57) 
O=C(c1cc2ccccc2[nH]1)N1C[C@]2(CCN(CCC3CCNC3)C2)c2ccccc21

>  <score_type>  (57) 
oracle

>  <origin>  (57) 
autodockgpu

>  <m_score__min__energy>  (57) 
-9.3000000000000007

>  <m_primary>  (57) 
energy

>  <rmsd>  (57) 
6.8370497531742185

>  <m_score__min__rmsd>  (57) 
6.8370497531742185

>  <meeko>  (57) 
{"free_energy": -8.57, "intermolecular_energy": -10.07, "internal_energy": -1.42, "cluster_size": 16, "cluster_id": 1, "rank_in_cluster": 12}

>  <energy>  (57) 
-8.88

>  <cluster_rmsd>  (57) 
1.07

>  <cluster>  (57) 
1

$$$$

     RDKit          3D

 61 66  0  0  1  0  0  0  0  0999 V2000
  138.4460   70.5820  221.8270 O   0  0  0  0  0  0  0  0  0  0  0  0
  139.4870   71.2120  222.2330 C   0  0  0  0  0  0  0  0  0  0  0  0
  139.8000   71.0610  223.6340 C   0  0  0  0  0  0  0  0  0  0  0  0
  140.5460   71.9000  224.4690 C   0  0  0  0  0  0  0  0  0  0  0  0
  140.5450   71.3040  225.7230 C   0  0  0  0  0  0  0  0  0  0  0  0
  141.1370   71.7350  226.8870 C   0  0  0  0  0  0  0  0  0  0  0  0
  140.9760   70.9340  228.0050 C   0  0  0  0  0  0  0  0  0  0  0  0
  140.2420   69.7460  227.9450 C   0  0  0  0  0  0  0  0  0  0  0  0
  139.6510   69.3310  226.7590 C   0  0  0  0  0  0  0  0  0  0  0  0
  139.8130   70.1300  225.6400 C   0  0  0  0  0  0  0  0  0  0  0  0
  139.3640   69.9920  224.3650 N   0  0  0  0  0  0  0  0  0  0  0  0
  140.2350   71.9880  221.3150 N   0  0  0  0  0  0  0  0  0  0  0  0
  140.9040   71.4540  220.1210 C   0  0  0  0  0  0  0  0  0  0  0  0
  142.1200   72.3250  220.0490 C   0  0  1  0  0  0  0  0  0  0  0  0
  143.2510   71.8350  220.9070 C   0  0  0  0  0  0  0  0  0  0  0  0
  144.4420   72.5490  220.3150 C   0  0  0  0  0  0  0  0  0  0  0  0
  144.1590   72.5800  218.9150 N   0  0  0  0  0  0  0  0  0  0  0  0
  145.0210   71.6730  218.2310 C   0  0  0  0  0  0  0  0  0  0  0  0
  145.4420   70.4720  219.0160 C   0  0  0  0  0  0  0  0  0  0  0  0
  144.6190   69.2520  218.7690 C   0  0  1  0  0  0  0  0  0  0  0  0
  145.2390   68.2500  217.8480 C   0  0  0  0  0  0  0  0  0  0  0  0
  146.3710   67.7030  218.7100 C   0  0  0  0  0  0  0  0  0  0  0  0
  145.9320   67.7810  220.0700 N   0  0  0  0  0  0  0  0  0  0  0  0
  144.6510   68.4580  220.0810 C   0  0  0  0  0  0  0  0  0  0  0  0
  142.7660   72.3760  218.6870 C   0  0  0  0  0  0  0  0  0  0  0  0
  141.6590   73.6270  220.5390 C   0  0  0  0  0  0  0  0  0  0  0  0
  142.0770   74.9380  220.4180 C   0  0  0  0  0  0  0  0  0  0  0  0
  141.4280   75.9990  221.0090 C   0  0  0  0  0  0  0  0  0  0  0  0
  140.3030   75.7250  221.7590 C   0  0  0  0  0  0  0  0  0  0  0  0
  139.8640   74.4250  221.8970 C   0  0  0  0  0  0  0  0  0  0  0  0
  140.5250   73.3730  221.2980 C   0  0  0  0  0  0  0  0  0  0  0  0
  141.0358   72.8440  224.1879 H   0  0  0  0  0  0  0  0  0  0  0  0
  141.7115   72.6722  226.9280 H   0  0  0  0  0  0  0  0  0  0  0  0
  141.4341   71.2382  228.9577 H   0  0  0  0  0  0  0  0  0  0  0  0
  140.1310   69.1310  228.8503 H   0  0  0  0  0  0  0  0  0  0  0  0
  139.0723   68.3968  226.7101 H   0  0  0  0  0  0  0  0  0  0  0  0
  138.7790   69.1810  224.0180 H   0  0  0  0  0  0  0  0  0  0  0  0
  141.1743   70.3957  220.2508 H   0  0  0  0  0  0  0  0  0  0  0  0
  140.2840   71.4715  219.2126 H   0  0  0  0  0  0  0  0  0  0  0  0
  143.1019   72.1159  221.9600 H   0  0  0  0  0  0  0  0  0  0  0  0
  143.3545   70.7399  220.9134 H   0  0  0  0  0  0  0  0  0  0  0  0
  144.5291   73.5681  220.7199 H   0  0  0  0  0  0  0  0  0  0  0  0
  145.3950   72.0503  220.5456 H   0  0  0  0  0  0  0  0  0  0  0  0
  144.4978   71.3225  217.3291 H   0  0  0  0  0  0  0  0  0  0  0  0
  145.9429   72.2338  218.0177 H   0  0  0  0  0  0  0  0  0  0  0  0
  146.4857   70.2407  218.7569 H   0  0  0  0  0  0  0  0  0  0  0  0
  145.3094   70.7294  220.0772 H   0  0  0  0  0  0  0  0  0  0  0  0
  143.6576   69.6125  218.3744 H   0  0  0  0  0  0  0  0  0  0  0  0
  144.5244   67.4597  217.5746 H   0  0  0  0  0  0  0  0  0  0  0  0
  145.5704   68.6698  216.8868 H   0  0  0  0  0  0  0  0  0  0  0  0
  146.5813   66.6577  218.4396 H   0  0  0  0  0  0  0  0  0  0  0  0
  147.2948   68.2811  218.5604 H   0  0  0  0  0  0  0  0  0  0  0  0
  145.8060   66.8110  220.4170 H   0  0  0  0  0  0  0  0  0  0  0  0
  143.8275   67.7295  220.1137 H   0  0  0  0  0  0  0  0  0  0  0  0
  144.5298   69.1052  220.9622 H   0  0  0  0  0  0  0  0  0  0  0  0
  142.3501   73.2071  218.0985 H   0  0  0  0  0  0  0  0  0  0  0  0
  142.5836   71.4501  218.1218 H   0  0  0  0  0  0  0  0  0  0  0  0
  142.9754   75.1453  219.8181 H   0  0  0  0  0  0  0  0  0  0  0  0
  141.7939   77.0292  220.8873 H   0  0  0  0  0  0  0  0  0  0  0  0
  139.7555   76.5445  222.2475 H   0  0  0  0  0  0  0  0  0  0  0  0
  138.9658   74.2223  222.4988 H   0  0  0  0  0  0  0  0  0  0  0  0
  1  2  2  0
  2  3  1  0
  3  4  2  0
  4  5  1  0
  5  6  2  0
  6  7  1  0
  7  8  2  0
  8  9  1  0
  9 10  2  0
 10 11  1  0
  2 12  1  0
 12 13  1  0
 14 13  1  6
 14 15  1  0
 15 16  1  0
 16 17  1  0
 17 18  1  0
 18 19  1  0
 19 20  1  0
 20 21  1  0
 21 22  1  0
 22 23  1  0
 23 24  1  0
 17 25  1  0
 14 26  1  0
 26 27  2  0
 27 28  1  0
 28 29  2  0
 29 30  1  0
 30 31  2  0
 11  3  1  0
 31 12  1  0
 10  5  1  0
 25 14  1  0
 31 26  1  0
 24 20  1  0
  4 32  1  0
  6 33  1  0
  7 34  1  0
  8 35  1  0
  9 36  1  0
 11 37  1  0
 13 38  1  0
 13 39  1  0
 15 40  1  0
 15 41  1  0
 16 42  1  0
 16 43  1  0
 18 44  1  0
 18 45  1  0
 19 46  1  0
 19 47  1  0
 20 48  1  6
 21 49  1  0
 21 50  1  0
 22 51  1  0
 22 52  1  0
 23 53  1  0
 24 54  1  0
 24 55  1  0
 25 56  1  0
 25 57  1  0
 27 58  1  0
 28 59  1  0
 29 60  1  0
 30 61  1  0
M  END
>  <smiles>  (58) 
O=C(c1cc2ccccc2[nH]1)N1C[C@]2(CCN(CCC3CCNC3)C2)c2ccccc21

>  <score_type>  (58) 
oracle

>  <origin>  (58) 
autodockgpu

>  <m_score__min__energy>  (58) 
-9.3000000000000007

>  <m_primary>  (58) 
energy

>  <rmsd>  (58) 
4.273829734756678

>  <m_score__min__rmsd>  (58) 
4.273829734756678

>  <meeko>  (58) 
{"free_energy": -8.42, "intermolecular_energy": -9.91, "internal_energy": -1.67, "cluster_size": 16, "cluster_id": 3, "rank_in_cluster": 6}

>  <energy>  (58) 
-8.81

>  <cluster_rmsd>  (58) 
0.88

>  <cluster>  (58) 
1

$$$$

     RDKit          3D

 61 66  0  0  1  0  0  0  0  0999 V2000
  138.0570   77.3310  220.7890 O   0  0  0  0  0  0  0  0  0  0  0  0
  139.0450   76.9310  221.5010 C   0  0  0  0  0  0  0  0  0  0  0  0
  139.8640   77.9720  222.0730 C   0  0  0  0  0  0  0  0  0  0  0  0
  139.4750   79.1890  222.6440 C   0  0  0  0  0  0  0  0  0  0  0  0
  140.6440   79.8240  223.0450 C   0  0  0  0  0  0  0  0  0  0  0  0
  140.8000   81.0450  223.6590 C   0  0  0  0  0  0  0  0  0  0  0  0
  142.0950   81.4380  223.9480 C   0  0  0  0  0  0  0  0  0  0  0  0
  143.1870   80.6260  223.6300 C   0  0  0  0  0  0  0  0  0  0  0  0
  143.0060   79.3970  223.0100 C   0  0  0  0  0  0  0  0  0  0  0  0
  141.7120   79.0020  222.7200 C   0  0  0  0  0  0  0  0  0  0  0  0
  141.2250   77.8790  222.1290 N   0  0  0  0  0  0  0  0  0  0  0  0
  139.2640   75.5420  221.6740 N   0  0  0  0  0  0  0  0  0  0  0  0
  140.5860   74.9010  221.6910 C   0  0  0  0  0  0  0  0  0  0  0  0
  140.2830   73.5830  221.0480 C   0  0  1  0  0  0  0  0  0  0  0  0
  140.3210   73.6340  219.5480 C   0  0  0  0  0  0  0  0  0  0  0  0
  140.4690   72.1770  219.1760 C   0  0  0  0  0  0  0  0  0  0  0  0
  141.3080   71.6470  220.2040 N   0  0  0  0  0  0  0  0  0  0  0  0
  142.6040   71.3750  219.6740 C   0  0  0  0  0  0  0  0  0  0  0  0
  143.7440   71.9850  220.4230 C   0  0  0  0  0  0  0  0  0  0  0  0
  143.9790   73.4280  220.1260 C   0  0  1  0  0  0  0  0  0  0  0  0
  145.1100   74.0510  220.8800 C   0  0  0  0  0  0  0  0  0  0  0  0
  146.3160   73.3900  220.2220 C   0  0  0  0  0  0  0  0  0  0  0  0
  145.9520   73.1200  218.8640 N   0  0  0  0  0  0  0  0  0  0  0  0
  144.5550   73.4710  218.7060 C   0  0  0  0  0  0  0  0  0  0  0  0
  141.2910   72.5010  221.3460 C   0  0  0  0  0  0  0  0  0  0  0  0
  138.9230   73.2690  221.4950 C   0  0  0  0  0  0  0  0  0  0  0  0
  138.1580   72.1260  221.6190 C   0  0  0  0  0  0  0  0  0  0  0  0
  136.8610   72.1280  222.0830 C   0  0  0  0  0  0  0  0  0  0  0  0
  136.3090   73.3400  222.4390 C   0  0  0  0  0  0  0  0  0  0  0  0
  137.0500   74.4970  222.3240 C   0  0  0  0  0  0  0  0  0  0  0  0
  138.3480   74.4790  221.8580 C   0  0  0  0  0  0  0  0  0  0  0  0
  138.4480   79.5676  222.7536 H   0  0  0  0  0  0  0  0  0  0  0  0
  139.9363   81.6789  223.9084 H   0  0  0  0  0  0  0  0  0  0  0  0
  142.2681   82.4079  224.4373 H   0  0  0  0  0  0  0  0  0  0  0  0
  144.2044   80.9654  223.8744 H   0  0  0  0  0  0  0  0  0  0  0  0
  143.8644   78.7573  222.7572 H   0  0  0  0  0  0  0  0  0  0  0  0
  141.8230   77.0790  221.7760 H   0  0  0  0  0  0  0  0  0  0  0  0
  141.3192   75.4752  221.1056 H   0  0  0  0  0  0  0  0  0  0  0  0
  141.0342   74.8206  222.6923 H   0  0  0  0  0  0  0  0  0  0  0  0
  139.3903   74.0559  219.1407 H   0  0  0  0  0  0  0  0  0  0  0  0
  141.1240   74.2722  219.1507 H   0  0  0  0  0  0  0  0  0  0  0  0
  139.4913   71.6729  219.1692 H   0  0  0  0  0  0  0  0  0  0  0  0
  140.8883   72.0352  218.1690 H   0  0  0  0  0  0  0  0  0  0  0  0
  142.7464   70.2843  219.6687 H   0  0  0  0  0  0  0  0  0  0  0  0
  142.6228   71.8283  218.6719 H   0  0  0  0  0  0  0  0  0  0  0  0
  143.5406   71.8846  221.4994 H   0  0  0  0  0  0  0  0  0  0  0  0
  144.6500   71.4488  220.1041 H   0  0  0  0  0  0  0  0  0  0  0  0
  143.0287   73.9375  220.3434 H   0  0  0  0  0  0  0  0  0  0  0  0
  145.1282   75.1428  220.7472 H   0  0  0  0  0  0  0  0  0  0  0  0
  145.0573   73.9043  221.9689 H   0  0  0  0  0  0  0  0  0  0  0  0
  147.1827   74.0666  220.2541 H   0  0  0  0  0  0  0  0  0  0  0  0
  146.5931   72.4640  220.7472 H   0  0  0  0  0  0  0  0  0  0  0  0
  146.5270   73.7350  218.2560 H   0  0  0  0  0  0  0  0  0  0  0  0
  144.4545   74.4790  218.2772 H   0  0  0  0  0  0  0  0  0  0  0  0
  144.0292   72.7875  218.0231 H   0  0  0  0  0  0  0  0  0  0  0  0
  140.9903   71.9356  222.2404 H   0  0  0  0  0  0  0  0  0  0  0  0
  142.2866   72.9246  221.5444 H   0  0  0  0  0  0  0  0  0  0  0  0
  138.6077   71.1639  221.3324 H   0  0  0  0  0  0  0  0  0  0  0  0
  136.2854   71.1944  222.1666 H   0  0  0  0  0  0  0  0  0  0  0  0
  135.2763   73.3841  222.8152 H   0  0  0  0  0  0  0  0  0  0  0  0
  136.5954   75.4568  222.6106 H   0  0  0  0  0  0  0  0  0  0  0  0
  1  2  2  0
  2  3  1  0
  3  4  2  0
  4  5  1  0
  5  6  2  0
  6  7  1  0
  7  8  2  0
  8  9  1  0
  9 10  2  0
 10 11  1  0
  2 12  1  0
 12 13  1  0
 14 13  1  1
 14 15  1  0
 15 16  1  0
 16 17  1  0
 17 18  1  0
 18 19  1  0
 19 20  1  0
 20 21  1  0
 21 22  1  0
 22 23  1  0
 23 24  1  0
 17 25  1  0
 14 26  1  0
 26 27  2  0
 27 28  1  0
 28 29  2  0
 29 30  1  0
 30 31  2  0
 11  3  1  0
 31 12  1  0
 10  5  1  0
 25 14  1  0
 31 26  1  0
 24 20  1  0
  4 32  1  0
  6 33  1  0
  7 34  1  0
  8 35  1  0
  9 36  1  0
 11 37  1  0
 13 38  1  0
 13 39  1  0
 15 40  1  0
 15 41  1  0
 16 42  1  0
 16 43  1  0
 18 44  1  0
 18 45  1  0
 19 46  1  0
 19 47  1  0
 20 48  1  6
 21 49  1  0
 21 50  1  0
 22 51  1  0
 22 52  1  0
 23 53  1  0
 24 54  1  0
 24 55  1  0
 25 56  1  0
 25 57  1  0
 27 58  1  0
 28 59  1  0
 29 60  1  0
 30 61  1  0
M  END
>  <smiles>  (59) 
O=C(c1cc2ccccc2[nH]1)N1C[C@]2(CCN(CCC3CCNC3)C2)c2ccccc21

>  <score_type>  (59) 
oracle

>  <origin>  (59) 
autodockgpu

>  <m_score__min__energy>  (59) 
-9.3000000000000007

>  <m_primary>  (59) 
energy

>  <rmsd>  (59) 
8.122397795002748

>  <m_score__min__rmsd>  (59) 
8.122397795002748

>  <meeko>  (59) 
{"free_energy": -8.15, "intermolecular_energy": -9.64, "internal_energy": -1.35, "cluster_size": 2, "cluster_id": 4, "rank_in_cluster": 2}

>  <energy>  (59) 
-8.69

>  <cluster_rmsd>  (59) 
0.87

>  <cluster>  (59) 
1

$$$$

     RDKit          3D

 61 66  0  0  1  0  0  0  0  0999 V2000
  138.8080   70.0040  221.9940 O   0  0  0  0  0  0  0  0  0  0  0  0
  139.7470   70.7780  222.4000 C   0  0  0  0  0  0  0  0  0  0  0  0
  139.9640   70.8000  223.8270 C   0  0  0  0  0  0  0  0  0  0  0  0
  139.5750   69.8660  224.7940 C   0  0  0  0  0  0  0  0  0  0  0  0
  140.0290   70.3540  226.0130 C   0  0  0  0  0  0  0  0  0  0  0  0
  139.9020   69.8050  227.2670 C   0  0  0  0  0  0  0  0  0  0  0  0
  140.4560   70.5150  228.3200 C   0  0  0  0  0  0  0  0  0  0  0  0
  141.1130   71.7300  228.1080 C   0  0  0  0  0  0  0  0  0  0  0  0
  141.2310   72.2650  226.8320 C   0  0  0  0  0  0  0  0  0  0  0  0
  140.6770   71.5570  225.7790 C   0  0  0  0  0  0  0  0  0  0  0  0
  140.6310   71.8180  224.4460 N   0  0  0  0  0  0  0  0  0  0  0  0
  140.4840   71.5360  221.4580 N   0  0  0  0  0  0  0  0  0  0  0  0
  141.2190   70.9660  220.3200 C   0  0  0  0  0  0  0  0  0  0  0  0
  142.3900   71.8950  220.2300 C   0  0  1  0  0  0  0  0  0  0  0  0
  143.5150   71.5210  221.1500 C   0  0  0  0  0  0  0  0  0  0  0  0
  144.6870   72.2600  220.5500 C   0  0  0  0  0  0  0  0  0  0  0  0
  144.4490   72.1890  219.1430 N   0  0  0  0  0  0  0  0  0  0  0  0
  145.3790   71.2890  218.5430 C   0  0  0  0  0  0  0  0  0  0  0  0
  144.9080   69.8770  218.4060 C   0  0  0  0  0  0  0  0  0  0  0  0
  145.9480   68.8470  218.6960 C   0  0  1  0  0  0  0  0  0  0  0  0
  145.5780   67.8620  219.7580 C   0  0  0  0  0  0  0  0  0  0  0  0
  144.5040   67.0410  219.0530 C   0  0  0  0  0  0  0  0  0  0  0  0
  144.8290   67.0440  217.6580 N   0  0  0  0  0  0  0  0  0  0  0  0
  145.9670   67.9220  217.4740 C   0  0  0  0  0  0  0  0  0  0  0  0
  143.0770   71.8970  218.8870 C   0  0  0  0  0  0  0  0  0  0  0  0
  141.8460   73.1980  220.6220 C   0  0  0  0  0  0  0  0  0  0  0  0
  142.1990   74.5190  220.4310 C   0  0  0  0  0  0  0  0  0  0  0  0
  141.4770   75.5780  220.9350 C   0  0  0  0  0  0  0  0  0  0  0  0
  140.3440   75.2910  221.6670 C   0  0  0  0  0  0  0  0  0  0  0  0
  139.9680   73.9800  221.8740 C   0  0  0  0  0  0  0  0  0  0  0  0
  140.7020   72.9300  221.3620 C   0  0  0  0  0  0  0  0  0  0  0  0
  139.0203   68.9316  224.6230 H   0  0  0  0  0  0  0  0  0  0  0  0
  139.3850   68.8473  227.4268 H   0  0  0  0  0  0  0  0  0  0  0  0
  140.3772   70.1149  229.3416 H   0  0  0  0  0  0  0  0  0  0  0  0
  141.5429   72.2704  228.9642 H   0  0  0  0  0  0  0  0  0  0  0  0
  141.7482   73.2210  226.6632 H   0  0  0  0  0  0  0  0  0  0  0  0
  141.0470   72.6770  223.9870 H   0  0  0  0  0  0  0  0  0  0  0  0
  141.5391   69.9336  220.5242 H   0  0  0  0  0  0  0  0  0  0  0  0
  140.6294   70.8943  219.3941 H   0  0  0  0  0  0  0  0  0  0  0  0
  143.3166   71.8581  222.1781 H   0  0  0  0  0  0  0  0  0  0  0  0
  143.6748   70.4355  221.2287 H   0  0  0  0  0  0  0  0  0  0  0  0
  144.7080   73.3053  220.8918 H   0  0  0  0  0  0  0  0  0  0  0  0
  145.6563   71.8285  220.8403 H   0  0  0  0  0  0  0  0  0  0  0  0
  145.6162   71.6666  217.5374 H   0  0  0  0  0  0  0  0  0  0  0  0
  146.2465   71.2548  219.2185 H   0  0  0  0  0  0  0  0  0  0  0  0
  144.0703   69.7251  219.1026 H   0  0  0  0  0  0  0  0  0  0  0  0
  144.6209   69.7438  217.3525 H   0  0  0  0  0  0  0  0  0  0  0  0
  146.8559   69.4043  218.9700 H   0  0  0  0  0  0  0  0  0  0  0  0
  146.4375   67.2378  220.0437 H   0  0  0  0  0  0  0  0  0  0  0  0
  145.2436   68.3228  220.6992 H   0  0  0  0  0  0  0  0  0  0  0  0
  144.5008   66.0109  219.4387 H   0  0  0  0  0  0  0  0  0  0  0  0
  143.5048   67.4671  219.2261 H   0  0  0  0  0  0  0  0  0  0  0  0
  145.1010   66.0770  217.3960 H   0  0  0  0  0  0  0  0  0  0  0  0
  146.9018   67.3432  217.4404 H   0  0  0  0  0  0  0  0  0  0  0  0
  145.9119   68.4813  216.5284 H   0  0  0  0  0  0  0  0  0  0  0  0
  142.6383   72.6670  218.2353 H   0  0  0  0  0  0  0  0  0  0  0  0
  142.9614   70.9298  218.3759 H   0  0  0  0  0  0  0  0  0  0  0  0
  143.1044   74.7371  219.8456 H   0  0  0  0  0  0  0  0  0  0  0  0
  141.7932   76.6169  220.7597 H   0  0  0  0  0  0  0  0  0  0  0  0
  139.7393   76.1086  222.0864 H   0  0  0  0  0  0  0  0  0  0  0  0
  139.0622   73.7669  222.4607 H   0  0  0  0  0  0  0  0  0  0  0  0
  1  2  2  0
  2  3  1  0
  3  4  2  0
  4  5  1  0
  5  6  2  0
  6  7  1  0
  7  8  2  0
  8  9  1  0
  9 10  2  0
 10 11  1  0
  2 12  1  0
 12 13  1  0
 14 13  1  6
 14 15  1  0
 15 16  1  0
 16 17  1  0
 17 18  1  0
 18 19  1  0
 19 20  1  0
 20 21  1  0
 21 22  1  0
 22 23  1  0
 23 24  1  0
 17 25  1  0
 14 26  1  0
 26 27  2  0
 27 28  1  0
 28 29  2  0
 29 30  1  0
 30 31  2  0
 11  3  1  0
 31 12  1  0
 10  5  1  0
 25 14  1  0
 31 26  1  0
 24 20  1  0
  4 32  1  0
  6 33  1  0
  7 34  1  0
  8 35  1  0
  9 36  1  0
 11 37  1  0
 13 38  1  0
 13 39  1  0
 15 40  1  0
 15 41  1  0
 16 42  1  0
 16 43  1  0
 18 44  1  0
 18 45  1  0
 19 46  1  0
 19 47  1  0
 20 48  1  1
 21 49  1  0
 21 50  1  0
 22 51  1  0
 22 52  1  0
 23 53  1  0
 24 54  1  0
 24 55  1  0
 25 56  1  0
 25 57  1  0
 27 58  1  0
 28 59  1  0
 29 60  1  0
 30 61  1  0
M  END
>  <smiles>  (60) 
O=C(c1cc2ccccc2[nH]1)N1C[C@]2(CCN(CCC3CCNC3)C2)c2ccccc21

>  <score_type>  (60) 
oracle

>  <origin>  (60) 
autodockgpu

>  <m_score__min__energy>  (60) 
-9.3000000000000007

>  <m_primary>  (60) 
energy

>  <rmsd>  (60) 
4.55504143856427

>  <m_score__min__rmsd>  (60) 
4.55504143856427

>  <meeko>  (60) 
{"free_energy": -8.3, "intermolecular_energy": -9.79, "internal_energy": -1.5, "cluster_size": 16, "cluster_id": 3, "rank_in_cluster": 13}

>  <energy>  (60) 
-8.65

>  <cluster_rmsd>  (60) 
0.61

>  <cluster>  (60) 
1

$$$$

     RDKit          3D

 61 66  0  0  1  0  0  0  0  0999 V2000
  138.6050   70.1720  222.0640 O   0  0  0  0  0  0  0  0  0  0  0  0
  139.6220   70.8840  222.3870 C   0  0  0  0  0  0  0  0  0  0  0  0
  139.9260   70.9330  223.7970 C   0  0  0  0  0  0  0  0  0  0  0  0
  140.7260   71.8430  224.4970 C   0  0  0  0  0  0  0  0  0  0  0  0
  140.6890   71.4510  225.8300 C   0  0  0  0  0  0  0  0  0  0  0  0
  141.3090   72.0190  226.9170 C   0  0  0  0  0  0  0  0  0  0  0  0
  141.0970   71.4140  228.1450 C   0  0  0  0  0  0  0  0  0  0  0  0
  140.2870   70.2810  228.2640 C   0  0  0  0  0  0  0  0  0  0  0  0
  139.6690   69.7250  227.1520 C   0  0  0  0  0  0  0  0  0  0  0  0
  139.8810   70.3280  225.9240 C   0  0  0  0  0  0  0  0  0  0  0  0
  139.4230   70.0220  224.6820 N   0  0  0  0  0  0  0  0  0  0  0  0
  140.3550   71.5520  221.3770 N   0  0  0  0  0  0  0  0  0  0  0  0
  140.9200   70.9010  220.1860 C   0  0  0  0  0  0  0  0  0  0  0  0
  142.1750   71.6920  219.9850 C   0  0  1  0  0  0  0  0  0  0  0  0
  143.3270   71.1950  220.8090 C   0  0  0  0  0  0  0  0  0  0  0  0
  144.5180   71.7960  220.1030 C   0  0  0  0  0  0  0  0  0  0  0  0
  144.1520   71.7510  218.7220 N   0  0  0  0  0  0  0  0  0  0  0  0
  144.9200   70.7510  218.0540 C   0  0  0  0  0  0  0  0  0  0  0  0
  144.7830   69.3670  218.6010 C   0  0  0  0  0  0  0  0  0  0  0  0
  146.0280   68.5470  218.5270 C   0  0  1  0  0  0  0  0  0  0  0  0
  146.0440   67.3450  219.4170 C   0  0  0  0  0  0  0  0  0  0  0  0
  145.0260   66.4430  218.7290 C   0  0  0  0  0  0  0  0  0  0  0  0
  145.0840   66.7420  217.3300 N   0  0  0  0  0  0  0  0  0  0  0  0
  145.9910   67.8590  217.1570 C   0  0  0  0  0  0  0  0  0  0  0  0
  142.7390   71.6150  218.5880 C   0  0  0  0  0  0  0  0  0  0  0  0
  141.8180   73.0490  220.4080 C   0  0  0  0  0  0  0  0  0  0  0  0
  142.2990   74.3220  220.1730 C   0  0  0  0  0  0  0  0  0  0  0  0
  141.7460   75.4560  220.7260 C   0  0  0  0  0  0  0  0  0  0  0  0
  140.6560   75.2990  221.5560 C   0  0  0  0  0  0  0  0  0  0  0  0
  140.1550   74.0400  221.8090 C   0  0  0  0  0  0  0  0  0  0  0  0
  140.7190   72.9130  221.2470 C   0  0  0  0  0  0  0  0  0  0  0  0
  141.2749   72.6983  224.0761 H   0  0  0  0  0  0  0  0  0  0  0  0
  141.9436   72.9119  226.8167 H   0  0  0  0  0  0  0  0  0  0  0  0
  141.5748   71.8329  229.0429 H   0  0  0  0  0  0  0  0  0  0  0  0
  140.1371   69.8233  229.2530 H   0  0  0  0  0  0  0  0  0  0  0  0
  139.0311   68.8336  227.2438 H   0  0  0  0  0  0  0  0  0  0  0  0
  138.7850   69.2060  224.4600 H   0  0  0  0  0  0  0  0  0  0  0  0
  141.1391   69.8394  220.3734 H   0  0  0  0  0  0  0  0  0  0  0  0
  140.2479   70.8947  219.3153 H   0  0  0  0  0  0  0  0  0  0  0  0
  143.2574   71.5537  221.8465 H   0  0  0  0  0  0  0  0  0  0  0  0
  143.3703   70.0985  220.8854 H   0  0  0  0  0  0  0  0  0  0  0  0
  144.6861   72.8325  220.4306 H   0  0  0  0  0  0  0  0  0  0  0  0
  145.4542   71.2581  220.3134 H   0  0  0  0  0  0  0  0  0  0  0  0
  144.6083   70.7316  216.9993 H   0  0  0  0  0  0  0  0  0  0  0  0
  145.9739   71.0313  218.1979 H   0  0  0  0  0  0  0  0  0  0  0  0
  144.4836   69.4427  219.6567 H   0  0  0  0  0  0  0  0  0  0  0  0
  144.0342   68.8565  217.9775 H   0  0  0  0  0  0  0  0  0  0  0  0
  146.8539   69.2319  218.7694 H   0  0  0  0  0  0  0  0  0  0  0  0
  147.0399   66.8788  219.4446 H   0  0  0  0  0  0  0  0  0  0  0  0
  145.8103   67.5634  220.4695 H   0  0  0  0  0  0  0  0  0  0  0  0
  145.2796   65.3865  218.9009 H   0  0  0  0  0  0  0  0  0  0  0  0
  144.0150   66.6151  219.1269 H   0  0  0  0  0  0  0  0  0  0  0  0
  145.4740   65.9100  216.8460 H   0  0  0  0  0  0  0  0  0  0  0  0
  146.9931   67.5046  216.8738 H   0  0  0  0  0  0  0  0  0  0  0  0
  145.6638   68.5406  216.3580 H   0  0  0  0  0  0  0  0  0  0  0  0
  142.3346   72.4287  217.9680 H   0  0  0  0  0  0  0  0  0  0  0  0
  142.4719   70.6664  218.0994 H   0  0  0  0  0  0  0  0  0  0  0  0
  143.1690   74.4364  219.5097 H   0  0  0  0  0  0  0  0  0  0  0  0
  142.1597   76.4527  220.5128 H   0  0  0  0  0  0  0  0  0  0  0  0
  140.1855   76.1800  222.0170 H   0  0  0  0  0  0  0  0  0  0  0  0
  139.2857   73.9312  222.4742 H   0  0  0  0  0  0  0  0  0  0  0  0
  1  2  2  0
  2  3  1  0
  3  4  2  0
  4  5  1  0
  5  6  2  0
  6  7  1  0
  7  8  2  0
  8  9  1  0
  9 10  2  0
 10 11  1  0
  2 12  1  0
 12 13  1  0
 14 13  1  6
 14 15  1  0
 15 16  1  0
 16 17  1  0
 17 18  1  0
 18 19  1  0
 19 20  1  0
 20 21  1  0
 21 22  1  0
 22 23  1  0
 23 24  1  0
 17 25  1  0
 14 26  1  0
 26 27  2  0
 27 28  1  0
 28 29  2  0
 29 30  1  0
 30 31  2  0
 11  3  1  0
 31 12  1  0
 10  5  1  0
 25 14  1  0
 31 26  1  0
 24 20  1  0
  4 32  1  0
  6 33  1  0
  7 34  1  0
  8 35  1  0
  9 36  1  0
 11 37  1  0
 13 38  1  0
 13 39  1  0
 15 40  1  0
 15 41  1  0
 16 42  1  0
 16 43  1  0
 18 44  1  0
 18 45  1  0
 19 46  1  0
 19 47  1  0
 20 48  1  6
 21 49  1  0
 21 50  1  0
 22 51  1  0
 22 52  1  0
 23 53  1  0
 24 54  1  0
 24 55  1  0
 25 56  1  0
 25 57  1  0
 27 58  1  0
 28 59  1  0
 29 60  1  0
 30 61  1  0
M  END
>  <smiles>  (61) 
O=C(c1cc2ccccc2[nH]1)N1C[C@]2(CCN(CCC3CCNC3)C2)c2ccccc21

>  <score_type>  (61) 
oracle

>  <origin>  (61) 
autodockgpu

>  <m_score__min__energy>  (61) 
-9.3000000000000007

>  <m_primary>  (61) 
energy

>  <rmsd>  (61) 
4.532056248636078

>  <m_score__min__rmsd>  (61) 
4.532056248636078

>  <meeko>  (61) 
{"free_energy": -8.16, "intermolecular_energy": -9.65, "internal_energy": -1.54, "cluster_size": 16, "cluster_id": 3, "rank_in_cluster": 16}

>  <energy>  (61) 
-8.58

>  <cluster_rmsd>  (61) 
1.26

>  <cluster>  (61) 
1

$$$$

     RDKit          3D

 61 66  0  0  1  0  0  0  0  0999 V2000
  140.1380   73.8210  222.2010 O   0  0  0  0  0  0  0  0  0  0  0  0
  140.7410   74.7190  221.5130 C   0  0  0  0  0  0  0  0  0  0  0  0
  140.5040   76.0830  221.9230 C   0  0  0  0  0  0  0  0  0  0  0  0
  139.3720   76.6390  222.5290 C   0  0  0  0  0  0  0  0  0  0  0  0
  139.6540   77.9860  222.7190 C   0  0  0  0  0  0  0  0  0  0  0  0
  138.8660   78.9650  223.2780 C   0  0  0  0  0  0  0  0  0  0  0  0
  139.4030   80.2400  223.3410 C   0  0  0  0  0  0  0  0  0  0  0  0
  140.6870   80.5100  222.8600 C   0  0  0  0  0  0  0  0  0  0  0  0
  141.4650   79.5050  222.3000 C   0  0  0  0  0  0  0  0  0  0  0  0
  140.9290   78.2310  222.2360 C   0  0  0  0  0  0  0  0  0  0  0  0
  141.4370   77.0660  221.7530 N   0  0  0  0  0  0  0  0  0  0  0  0
  141.5710   74.3310  220.4330 N   0  0  0  0  0  0  0  0  0  0  0  0
  142.0180   72.9550  220.1760 C   0  0  0  0  0  0  0  0  0  0  0  0
  143.3850   73.1880  219.6140 C   0  0  1  0  0  0  0  0  0  0  0  0
  144.4420   73.3380  220.6700 C   0  0  0  0  0  0  0  0  0  0  0  0
  145.7140   73.0790  219.8980 C   0  0  0  0  0  0  0  0  0  0  0  0
  145.3410   72.0680  218.9590 N   0  0  0  0  0  0  0  0  0  0  0  0
  145.9310   70.8240  219.3330 C   0  0  0  0  0  0  0  0  0  0  0  0
  145.1840   69.6040  218.9000 C   0  0  0  0  0  0  0  0  0  0  0  0
  145.9620   68.3350  219.0000 C   0  0  1  0  0  0  0  0  0  0  0  0
  145.2640   67.2230  219.7150 C   0  0  0  0  0  0  0  0  0  0  0  0
  144.1760   66.8520  218.7140 C   0  0  0  0  0  0  0  0  0  0  0  0
  144.7000   67.1260  217.4100 N   0  0  0  0  0  0  0  0  0  0  0  0
  145.9940   67.7550  217.5800 C   0  0  0  0  0  0  0  0  0  0  0  0
  143.9250   72.0390  218.7990 C   0  0  0  0  0  0  0  0  0  0  0  0
  143.2580   74.4410  218.8650 C   0  0  0  0  0  0  0  0  0  0  0  0
  143.9420   75.0560  217.8340 C   0  0  0  0  0  0  0  0  0  0  0  0
  143.5850   76.2790  217.3110 C   0  0  0  0  0  0  0  0  0  0  0  0
  142.4870   76.9130  217.8530 C   0  0  0  0  0  0  0  0  0  0  0  0
  141.7860   76.3220  218.8830 C   0  0  0  0  0  0  0  0  0  0  0  0
  142.1550   75.0960  219.3960 C   0  0  0  0  0  0  0  0  0  0  0  0
  138.4441   76.1144  222.8007 H   0  0  0  0  0  0  0  0  0  0  0  0
  137.8570   78.7456  223.6571 H   0  0  0  0  0  0  0  0  0  0  0  0
  138.8077   81.0554  223.7778 H   0  0  0  0  0  0  0  0  0  0  0  0
  141.0870   81.5326  222.9258 H   0  0  0  0  0  0  0  0  0  0  0  0
  142.4754   79.7152  221.9194 H   0  0  0  0  0  0  0  0  0  0  0  0
  142.3980   76.9630  221.3200 H   0  0  0  0  0  0  0  0  0  0  0  0
  142.0597   72.3657  221.1039 H   0  0  0  0  0  0  0  0  0  0  0  0
  141.3517   72.3822  219.5142 H   0  0  0  0  0  0  0  0  0  0  0  0
  144.4358   74.3515  221.0976 H   0  0  0  0  0  0  0  0  0  0  0  0
  144.3042   72.6630  221.5275 H   0  0  0  0  0  0  0  0  0  0  0  0
  146.0512   73.9894  219.3808 H   0  0  0  0  0  0  0  0  0  0  0  0
  146.5498   72.7728  220.5442 H   0  0  0  0  0  0  0  0  0  0  0  0
  146.9378   70.7798  218.8920 H   0  0  0  0  0  0  0  0  0  0  0  0
  145.9288   70.8061  220.4328 H   0  0  0  0  0  0  0  0  0  0  0  0
  144.2876   69.5081  219.5302 H   0  0  0  0  0  0  0  0  0  0  0  0
  144.9476   69.7432  217.8348 H   0  0  0  0  0  0  0  0  0  0  0  0
  146.9048   68.5993  219.5012 H   0  0  0  0  0  0  0  0  0  0  0  0
  145.9425   66.3777  219.9024 H   0  0  0  0  0  0  0  0  0  0  0  0
  144.8828   67.4992  220.7092 H   0  0  0  0  0  0  0  0  0  0  0  0
  143.9264   65.7845  218.8048 H   0  0  0  0  0  0  0  0  0  0  0  0
  143.2577   67.4287  218.8986 H   0  0  0  0  0  0  0  0  0  0  0  0
  144.8260   66.2180  216.9240 H   0  0  0  0  0  0  0  0  0  0  0  0
  146.8012   67.0142  217.4817 H   0  0  0  0  0  0  0  0  0  0  0  0
  146.1846   68.5267  216.8196 H   0  0  0  0  0  0  0  0  0  0  0  0
  143.6585   72.1649  217.7392 H   0  0  0  0  0  0  0  0  0  0  0  0
  143.5039   71.0789  219.1320 H   0  0  0  0  0  0  0  0  0  0  0  0
  144.8169   74.5423  217.4090 H   0  0  0  0  0  0  0  0  0  0  0  0
  144.1564   76.7346  216.4888 H   0  0  0  0  0  0  0  0  0  0  0  0
  142.1698   77.8915  217.4632 H   0  0  0  0  0  0  0  0  0  0  0  0
  140.9124   76.8403  219.3052 H   0  0  0  0  0  0  0  0  0  0  0  0
  1  2  2  0
  2  3  1  0
  3  4  2  0
  4  5  1  0
  5  6  2  0
  6  7  1  0
  7  8  2  0
  8  9  1  0
  9 10  2  0
 10 11  1  0
  2 12  1  0
 12 13  1  0
 14 13  1  1
 14 15  1  0
 15 16  1  0
 16 17  1  0
 17 18  1  0
 18 19  1  0
 19 20  1  0
 20 21  1  0
 21 22  1  0
 22 23  1  0
 23 24  1  0
 17 25  1  0
 14 26  1  0
 26 27  2  0
 27 28  1  0
 28 29  2  0
 29 30  1  0
 30 31  2  0
 11  3  1  0
 31 12  1  0
 10  5  1  0
 25 14  1  0
 31 26  1  0
 24 20  1  0
  4 32  1  0
  6 33  1  0
  7 34  1  0
  8 35  1  0
  9 36  1  0
 11 37  1  0
 13 38  1  0
 13 39  1  0
 15 40  1  0
 15 41  1  0
 16 42  1  0
 16 43  1  0
 18 44  1  0
 18 45  1  0
 19 46  1  0
 19 47  1  0
 20 48  1  1
 21 49  1  0
 21 50  1  0
 22 51  1  0
 22 52  1  0
 23 53  1  0
 24 54  1  0
 24 55  1  0
 25 56  1  0
 25 57  1  0
 27 58  1  0
 28 59  1  0
 29 60  1  0
 30 61  1  0
M  END
>  <smiles>  (62) 
O=C(c1cc2ccccc2[nH]1)N1C[C@]2(CCN(CCC3CCNC3)C2)c2ccccc21

>  <score_type>  (62) 
oracle

>  <origin>  (62) 
autodockgpu

>  <m_score__min__energy>  (62) 
-9.3000000000000007

>  <m_primary>  (62) 
energy

>  <rmsd>  (62) 
6.739031493198387

>  <m_score__min__rmsd>  (62) 
6.739031493198387

>  <meeko>  (62) 
{"free_energy": -8.88, "intermolecular_energy": -10.37, "internal_energy": -1.26, "cluster_size": 16, "cluster_id": 1, "rank_in_cluster": 7}

>  <energy>  (62) 
-8.57

>  <cluster_rmsd>  (62) 
0.9

>  <cluster>  (62) 
1

$$$$

     RDKit          3D

 61 66  0  0  1  0  0  0  0  0999 V2000
  138.7740   69.3670  222.0780 O   0  0  0  0  0  0  0  0  0  0  0  0
  139.1150   70.4880  222.5990 C   0  0  0  0  0  0  0  0  0  0  0  0
  139.5480   70.4300  223.9750 C   0  0  0  0  0  0  0  0  0  0  0  0
  139.5910   69.3330  224.8420 C   0  0  0  0  0  0  0  0  0  0  0  0
  140.0880   69.8090  226.0490 C   0  0  0  0  0  0  0  0  0  0  0  0
  140.3220   69.1250  227.2190 C   0  0  0  0  0  0  0  0  0  0  0  0
  140.8260   69.8570  228.2810 C   0  0  0  0  0  0  0  0  0  0  0  0
  141.0850   71.2250  228.1600 C   0  0  0  0  0  0  0  0  0  0  0  0
  140.8430   71.8950  226.9680 C   0  0  0  0  0  0  0  0  0  0  0  0
  140.3380   71.1640  225.9060 C   0  0  0  0  0  0  0  0  0  0  0  0
  140.0050   71.5310  224.6400 N   0  0  0  0  0  0  0  0  0  0  0  0
  139.0470   71.6690  221.8210 N   0  0  0  0  0  0  0  0  0  0  0  0
  139.8800   71.9390  220.6400 C   0  0  0  0  0  0  0  0  0  0  0  0
  140.0730   73.4200  220.7480 C   0  0  1  0  0  0  0  0  0  0  0  0
  141.2130   73.8050  221.6450 C   0  0  0  0  0  0  0  0  0  0  0  0
  141.4980   75.2260  221.2200 C   0  0  0  0  0  0  0  0  0  0  0  0
  141.2640   75.2120  219.8100 N   0  0  0  0  0  0  0  0  0  0  0  0
  142.5070   75.3080  219.1170 C   0  0  0  0  0  0  0  0  0  0  0  0
  143.7050   74.8440  219.8810 C   0  0  0  0  0  0  0  0  0  0  0  0
  144.1700   73.4710  219.5270 C   0  0  1  0  0  0  0  0  0  0  0  0
  145.6220   73.3660  219.1870 C   0  0  0  0  0  0  0  0  0  0  0  0
  146.2710   73.5820  220.5490 C   0  0  0  0  0  0  0  0  0  0  0  0
  145.3600   73.0730  221.5290 N   0  0  0  0  0  0  0  0  0  0  0  0
  144.1490   72.6760  220.8390 C   0  0  0  0  0  0  0  0  0  0  0  0
  140.4590   74.0910  219.4530 C   0  0  0  0  0  0  0  0  0  0  0  0
  138.8130   73.9070  221.3170 C   0  0  0  0  0  0  0  0  0  0  0  0
  138.1390   75.1120  221.3520 C   0  0  0  0  0  0  0  0  0  0  0  0
  136.9290   75.2860  221.9860 C   0  0  0  0  0  0  0  0  0  0  0  0
  136.3700   74.1920  222.6140 C   0  0  0  0  0  0  0  0  0  0  0  0
  137.0220   72.9770  222.5950 C   0  0  0  0  0  0  0  0  0  0  0  0
  138.2340   72.8180  221.9560 C   0  0  0  0  0  0  0  0  0  0  0  0
  139.2911   68.2996  224.6137 H   0  0  0  0  0  0  0  0  0  0  0  0
  140.1185   68.0476  227.3070 H   0  0  0  0  0  0  0  0  0  0  0  0
  141.0262   69.3523  229.2377 H   0  0  0  0  0  0  0  0  0  0  0  0
  141.4864   71.7790  229.0214 H   0  0  0  0  0  0  0  0  0  0  0  0
  141.0459   72.9717  226.8706 H   0  0  0  0  0  0  0  0  0  0  0  0
  140.0920   72.5150  224.2570 H   0  0  0  0  0  0  0  0  0  0  0  0
  140.8392   71.4032  220.6930 H   0  0  0  0  0  0  0  0  0  0  0  0
  139.4331   71.6115  219.6897 H   0  0  0  0  0  0  0  0  0  0  0  0
  140.9189   73.7582  222.7039 H   0  0  0  0  0  0  0  0  0  0  0  0
  142.0837   73.1384  221.5582 H   0  0  0  0  0  0  0  0  0  0  0  0
  140.8186   75.9296  221.7233 H   0  0  0  0  0  0  0  0  0  0  0  0
  142.5159   75.5523  221.4797 H   0  0  0  0  0  0  0  0  0  0  0  0
  142.4328   74.7024  218.2017 H   0  0  0  0  0  0  0  0  0  0  0  0
  142.6656   76.3797  218.9266 H   0  0  0  0  0  0  0  0  0  0  0  0
  144.5291   75.5465  219.6878 H   0  0  0  0  0  0  0  0  0  0  0  0
  143.4079   74.8109  220.9396 H   0  0  0  0  0  0  0  0  0  0  0  0
  143.5408   73.1479  218.6845 H   0  0  0  0  0  0  0  0  0  0  0  0
  145.8679   72.3751  218.7776 H   0  0  0  0  0  0  0  0  0  0  0  0
  145.9537   74.0760  218.4151 H   0  0  0  0  0  0  0  0  0  0  0  0
  147.2265   73.0397  220.6030 H   0  0  0  0  0  0  0  0  0  0  0  0
  146.4794   74.6483  220.7213 H   0  0  0  0  0  0  0  0  0  0  0  0
  145.7960   72.2340  221.9580 H   0  0  0  0  0  0  0  0  0  0  0  0
  144.1541   71.5946  220.6375 H   0  0  0  0  0  0  0  0  0  0  0  0
  143.2459   72.8779  221.4336 H   0  0  0  0  0  0  0  0  0  0  0  0
  139.5601   74.4236  218.9132 H   0  0  0  0  0  0  0  0  0  0  0  0
  141.0033   73.4014  218.7911 H   0  0  0  0  0  0  0  0  0  0  0  0
  138.5924   75.9778  220.8472 H   0  0  0  0  0  0  0  0  0  0  0  0
  136.4253   76.2639  221.9916 H   0  0  0  0  0  0  0  0  0  0  0  0
  135.4035   74.2891  223.1302 H   0  0  0  0  0  0  0  0  0  0  0  0
  136.5647   72.1142  223.1014 H   0  0  0  0  0  0  0  0  0  0  0  0
  1  2  2  0
  2  3  1  0
  3  4  2  0
  4  5  1  0
  5  6  2  0
  6  7  1  0
  7  8  2  0
  8  9  1  0
  9 10  2  0
 10 11  1  0
  2 12  1  0
 12 13  1  0
 14 13  1  6
 14 15  1  0
 15 16  1  0
 16 17  1  0
 17 18  1  0
 18 19  1  0
 19 20  1  0
 20 21  1  0
 21 22  1  0
 22 23  1  0
 23 24  1  0
 17 25  1  0
 14 26  1  0
 26 27  2  0
 27 28  1  0
 28 29  2  0
 29 30  1  0
 30 31  2  0
 11  3  1  0
 31 12  1  0
 10  5  1  0
 25 14  1  0
 31 26  1  0
 24 20  1  0
  4 32  1  0
  6 33  1  0
  7 34  1  0
  8 35  1  0
  9 36  1  0
 11 37  1  0
 13 38  1  0
 13 39  1  0
 15 40  1  0
 15 41  1  0
 16 42  1  0
 16 43  1  0
 18 44  1  0
 18 45  1  0
 19 46  1  0
 19 47  1  0
 20 48  1  6
 21 49  1  0
 21 50  1  0
 22 51  1  0
 22 52  1  0
 23 53  1  0
 24 54  1  0
 24 55  1  0
 25 56  1  0
 25 57  1  0
 27 58  1  0
 28 59  1  0
 29 60  1  0
 30 61  1  0
M  END
>  <smiles>  (63) 
O=C(c1cc2ccccc2[nH]1)N1C[C@]2(CCN(CCC3CCNC3)C2)c2ccccc21

>  <score_type>  (63) 
oracle

>  <origin>  (63) 
autodockgpu

>  <m_score__min__energy>  (63) 
-9.3000000000000007

>  <m_primary>  (63) 
energy

>  <rmsd>  (63) 
5.072001576428494

>  <m_score__min__rmsd>  (63) 
5.072001576428494

>  <meeko>  (63) 
{"free_energy": -8.18, "intermolecular_energy": -9.68, "internal_energy": -1.57, "cluster_size": 4, "cluster_id": 5, "rank_in_cluster": 1}

>  <energy>  (63) 
-8.56

>  <cluster_rmsd>  (63) 
0.87

>  <cluster>  (63) 
1

$$$$

     RDKit          3D

 61 66  0  0  1  0  0  0  0  0999 V2000
  139.0460   69.8660  221.8950 O   0  0  0  0  0  0  0  0  0  0  0  0
  139.8480   70.7590  222.3460 C   0  0  0  0  0  0  0  0  0  0  0  0
  140.0400   70.7590  223.7770 C   0  0  0  0  0  0  0  0  0  0  0  0
  139.6600   69.7970  224.7190 C   0  0  0  0  0  0  0  0  0  0  0  0
  140.0810   70.2730  225.9550 C   0  0  0  0  0  0  0  0  0  0  0  0
  139.9470   69.6970  227.1960 C   0  0  0  0  0  0  0  0  0  0  0  0
  140.4640   70.4010  228.2710 C   0  0  0  0  0  0  0  0  0  0  0  0
  141.0930   71.6360  228.0930 C   0  0  0  0  0  0  0  0  0  0  0  0
  141.2170   72.1990  226.8300 C   0  0  0  0  0  0  0  0  0  0  0  0
  140.7000   71.4970  225.7540 C   0  0  0  0  0  0  0  0  0  0  0  0
  140.6690   71.7820  224.4260 N   0  0  0  0  0  0  0  0  0  0  0  0
  140.4710   71.6570  221.4460 N   0  0  0  0  0  0  0  0  0  0  0  0
  141.2390   71.2520  220.2600 C   0  0  0  0  0  0  0  0  0  0  0  0
  142.2930   72.3140  220.2140 C   0  0  1  0  0  0  0  0  0  0  0  0
  143.4760   72.0120  221.0890 C   0  0  0  0  0  0  0  0  0  0  0  0
  144.5410   72.9200  220.5210 C   0  0  0  0  0  0  0  0  0  0  0  0
  144.2790   72.9150  219.1170 N   0  0  0  0  0  0  0  0  0  0  0  0
  145.2910   72.1690  218.4420 C   0  0  0  0  0  0  0  0  0  0  0  0
  145.6120   70.8370  219.0390 C   0  0  0  0  0  0  0  0  0  0  0  0
  144.8040   69.7060  218.4950 C   0  0  1  0  0  0  0  0  0  0  0  0
  145.5960   68.6440  217.8010 C   0  0  0  0  0  0  0  0  0  0  0  0
  146.3180   67.9870  218.9720 C   0  0  0  0  0  0  0  0  0  0  0  0
  145.4610   68.1130  220.1120 N   0  0  0  0  0  0  0  0  0  0  0  0
  144.3210   68.9160  219.7180 C   0  0  0  0  0  0  0  0  0  0  0  0
  142.9440   72.4830  218.8640 C   0  0  0  0  0  0  0  0  0  0  0  0
  141.6150   73.5170  220.7030 C   0  0  0  0  0  0  0  0  0  0  0  0
  141.8100   74.8800  220.5970 C   0  0  0  0  0  0  0  0  0  0  0  0
  140.9830   75.8130  221.1830 C   0  0  0  0  0  0  0  0  0  0  0  0
  139.9080   75.3490  221.9130 C   0  0  0  0  0  0  0  0  0  0  0  0
  139.6900   73.9930  222.0360 C   0  0  0  0  0  0  0  0  0  0  0  0
  140.5260   73.0710  221.4410 C   0  0  0  0  0  0  0  0  0  0  0  0
  139.1330   68.8520  224.5208 H   0  0  0  0  0  0  0  0  0  0  0  0
  139.4527   68.7233  227.3290 H   0  0  0  0  0  0  0  0  0  0  0  0
  140.3778   69.9801  229.2836 H   0  0  0  0  0  0  0  0  0  0  0  0
  141.4958   72.1699  228.9663 H   0  0  0  0  0  0  0  0  0  0  0  0
  141.7103   73.1719  226.6885 H   0  0  0  0  0  0  0  0  0  0  0  0
  141.0700   72.6610  223.9900 H   0  0  0  0  0  0  0  0  0  0  0  0
  141.6802   70.2525  220.3883 H   0  0  0  0  0  0  0  0  0  0  0  0
  140.6394   71.1734  219.3412 H   0  0  0  0  0  0  0  0  0  0  0  0
  143.2653   72.2555  222.1408 H   0  0  0  0  0  0  0  0  0  0  0  0
  143.7605   70.9494  221.0915 H   0  0  0  0  0  0  0  0  0  0  0  0
  144.4505   73.9359  220.9330 H   0  0  0  0  0  0  0  0  0  0  0  0
  145.5600   72.5853  220.7650 H   0  0  0  0  0  0  0  0  0  0  0  0
  144.9580   72.0053  217.4065 H   0  0  0  0  0  0  0  0  0  0  0  0
  146.2113   72.7662  218.5216 H   0  0  0  0  0  0  0  0  0  0  0  0
  146.6743   70.6226  218.8505 H   0  0  0  0  0  0  0  0  0  0  0  0
  145.3719   70.9073  220.1102 H   0  0  0  0  0  0  0  0  0  0  0  0
  144.0680   70.1610  217.8158 H   0  0  0  0  0  0  0  0  0  0  0  0
  144.9408   67.9295  217.2813 H   0  0  0  0  0  0  0  0  0  0  0  0
  146.2676   69.0258  217.0180 H   0  0  0  0  0  0  0  0  0  0  0  0
  146.5040   66.9250  218.7540 H   0  0  0  0  0  0  0  0  0  0  0  0
  147.2903   68.4678  219.1551 H   0  0  0  0  0  0  0  0  0  0  0  0
  145.1330   67.1610  220.3660 H   0  0  0  0  0  0  0  0  0  0  0  0
  143.4678   68.2743  219.4529 H   0  0  0  0  0  0  0  0  0  0  0  0
  143.9762   69.5746  220.5288 H   0  0  0  0  0  0  0  0  0  0  0  0
  142.4048   73.2375  218.2725 H   0  0  0  0  0  0  0  0  0  0  0  0
  142.9285   71.5440  218.2913 H   0  0  0  0  0  0  0  0  0  0  0  0
  142.6708   75.2396  220.0141 H   0  0  0  0  0  0  0  0  0  0  0  0
  141.1731   76.8908  221.0727 H   0  0  0  0  0  0  0  0  0  0  0  0
  139.2242   76.0616  222.3974 H   0  0  0  0  0  0  0  0  0  0  0  0
  138.8295   73.6382  222.6222 H   0  0  0  0  0  0  0  0  0  0  0  0
  1  2  2  0
  2  3  1  0
  3  4  2  0
  4  5  1  0
  5  6  2  0
  6  7  1  0
  7  8  2  0
  8  9  1  0
  9 10  2  0
 10 11  1  0
  2 12  1  0
 12 13  1  0
 14 13  1  6
 14 15  1  0
 15 16  1  0
 16 17  1  0
 17 18  1  0
 18 19  1  0
 19 20  1  0
 20 21  1  0
 21 22  1  0
 22 23  1  0
 23 24  1  0
 17 25  1  0
 14 26  1  0
 26 27  2  0
 27 28  1  0
 28 29  2  0
 29 30  1  0
 30 31  2  0
 11  3  1  0
 31 12  1  0
 10  5  1  0
 25 14  1  0
 31 26  1  0
 24 20  1  0
  4 32  1  0
  6 33  1  0
  7 34  1  0
  8 35  1  0
  9 36  1  0
 11 37  1  0
 13 38  1  0
 13 39  1  0
 15 40  1  0
 15 41  1  0
 16 42  1  0
 16 43  1  0
 18 44  1  0
 18 45  1  0
 19 46  1  0
 19 47  1  0
 20 48  1  6
 21 49  1  0
 21 50  1  0
 22 51  1  0
 22 52  1  0
 23 53  1  0
 24 54  1  0
 24 55  1  0
 25 56  1  0
 25 57  1  0
 27 58  1  0
 28 59  1  0
 29 60  1  0
 30 61  1  0
M  END
>  <smiles>  (64) 
O=C(c1cc2ccccc2[nH]1)N1C[C@]2(CCN(CCC3CCNC3)C2)c2ccccc21

>  <score_type>  (64) 
oracle

>  <origin>  (64) 
autodockgpu

>  <m_score__min__energy>  (64) 
-9.3000000000000007

>  <m_primary>  (64) 
energy

>  <rmsd>  (64) 
4.547601804701559

>  <m_score__min__rmsd>  (64) 
4.547601804701559

>  <meeko>  (64) 
{"free_energy": -8.39, "intermolecular_energy": -9.88, "internal_energy": -1.59, "cluster_size": 16, "cluster_id": 3, "rank_in_cluster": 7}

>  <energy>  (64) 
-8.5

>  <cluster_rmsd>  (64) 
1.27

>  <cluster>  (64) 
1

$$$$

     RDKit          3D

 61 66  0  0  1  0  0  0  0  0999 V2000
  140.9540   78.2870  219.3280 O   0  0  0  0  0  0  0  0  0  0  0  0
  141.2200   77.7970  220.4820 C   0  0  0  0  0  0  0  0  0  0  0  0
  141.8890   76.5180  220.4770 C   0  0  0  0  0  0  0  0  0  0  0  0
  141.3900   75.2580  220.8270 C   0  0  0  0  0  0  0  0  0  0  0  0
  142.4340   74.3600  220.6440 C   0  0  0  0  0  0  0  0  0  0  0  0
  142.4530   73.0000  220.8480 C   0  0  0  0  0  0  0  0  0  0  0  0
  143.6430   72.3440  220.5840 C   0  0  0  0  0  0  0  0  0  0  0  0
  144.7680   73.0390  220.1300 C   0  0  0  0  0  0  0  0  0  0  0  0
  144.7260   74.4120  219.9290 C   0  0  0  0  0  0  0  0  0  0  0  0
  143.5360   75.0690  220.1940 C   0  0  0  0  0  0  0  0  0  0  0  0
  143.1930   76.3810  220.0960 N   0  0  0  0  0  0  0  0  0  0  0  0
  140.8540   78.5140  221.6470 N   0  0  0  0  0  0  0  0  0  0  0  0
  139.5330   78.4460  222.2880 C   0  0  0  0  0  0  0  0  0  0  0  0
  139.3790   79.8460  222.7950 C   0  0  1  0  0  0  0  0  0  0  0  0
  138.8350   80.7930  221.7650 C   0  0  0  0  0  0  0  0  0  0  0  0
  138.3350   81.9420  222.6080 C   0  0  0  0  0  0  0  0  0  0  0  0
  137.8280   81.3050  223.7820 N   0  0  0  0  0  0  0  0  0  0  0  0
  136.4020   81.3670  223.7840 C   0  0  0  0  0  0  0  0  0  0  0  0
  135.7430   80.9430  225.0570 C   0  0  0  0  0  0  0  0  0  0  0  0
  135.1140   82.0550  225.8280 C   0  0  1  0  0  0  0  0  0  0  0  0
  134.8220   81.7410  227.2610 C   0  0  0  0  0  0  0  0  0  0  0  0
  136.2250   81.6950  227.8550 C   0  0  0  0  0  0  0  0  0  0  0  0
  137.0260   82.6100  227.0980 N   0  0  0  0  0  0  0  0  0  0  0  0
  136.2130   83.1090  226.0080 C   0  0  0  0  0  0  0  0  0  0  0  0
  138.3740   79.9940  223.9110 C   0  0  0  0  0  0  0  0  0  0  0  0
  140.7390   80.2480  223.1620 C   0  0  0  0  0  0  0  0  0  0  0  0
  141.3050   81.1920  223.9960 C   0  0  0  0  0  0  0  0  0  0  0  0
  142.6640   81.3520  224.1500 C   0  0  0  0  0  0  0  0  0  0  0  0
  143.4940   80.5200  223.4270 C   0  0  0  0  0  0  0  0  0  0  0  0
  142.9560   79.5690  222.5860 C   0  0  0  0  0  0  0  0  0  0  0  0
  141.5910   79.4200  222.4440 C   0  0  0  0  0  0  0  0  0  0  0  0
  140.3736   75.0252  221.1772 H   0  0  0  0  0  0  0  0  0  0  0  0
  141.5641   72.4588  221.2043 H   0  0  0  0  0  0  0  0  0  0  0  0
  143.7047   71.2560  220.7341 H   0  0  0  0  0  0  0  0  0  0  0  0
  145.6998   72.4900  219.9292 H   0  0  0  0  0  0  0  0  0  0  0  0
  145.6096   74.9605  219.5707 H   0  0  0  0  0  0  0  0  0  0  0  0
  143.8470   77.1510  219.7790 H   0  0  0  0  0  0  0  0  0  0  0  0
  138.7462   78.1919  221.5624 H   0  0  0  0  0  0  0  0  0  0  0  0
  139.4501   77.6737  223.0669 H   0  0  0  0  0  0  0  0  0  0  0  0
  139.6234   81.1221  221.0720 H   0  0  0  0  0  0  0  0  0  0  0  0
  138.0579   80.3471  221.1268 H   0  0  0  0  0  0  0  0  0  0  0  0
  139.1553   82.6307  222.8586 H   0  0  0  0  0  0  0  0  0  0  0  0
  137.5777   82.5510  222.0926 H   0  0  0  0  0  0  0  0  0  0  0  0
  136.1073   82.4069  223.5794 H   0  0  0  0  0  0  0  0  0  0  0  0
  136.0668   80.6532  223.0171 H   0  0  0  0  0  0  0  0  0  0  0  0
  134.9607   80.2097  224.8113 H   0  0  0  0  0  0  0  0  0  0  0  0
  136.5358   80.5279  225.6967 H   0  0  0  0  0  0  0  0  0  0  0  0
  134.1947   82.3160  225.2833 H   0  0  0  0  0  0  0  0  0  0  0  0
  134.2134   82.5288  227.7289 H   0  0  0  0  0  0  0  0  0  0  0  0
  134.2425   80.8177  227.4084 H   0  0  0  0  0  0  0  0  0  0  0  0
  136.1989   81.9995  228.9117 H   0  0  0  0  0  0  0  0  0  0  0  0
  136.6394   80.6771  227.8093 H   0  0  0  0  0  0  0  0  0  0  0  0
  137.2770   83.4000  227.7230 H   0  0  0  0  0  0  0  0  0  0  0  0
  135.7759   84.0851  226.2653 H   0  0  0  0  0  0  0  0  0  0  0  0
  136.7976   83.2619  225.0888 H   0  0  0  0  0  0  0  0  0  0  0  0
  138.8684   79.8810  224.8871 H   0  0  0  0  0  0  0  0  0  0  0  0
  137.5899   79.2249  223.8496 H   0  0  0  0  0  0  0  0  0  0  0  0
  140.6348   81.8510  224.5675 H   0  0  0  0  0  0  0  0  0  0  0  0
  143.0738   82.1168  224.8261 H   0  0  0  0  0  0  0  0  0  0  0  0
  144.5858   80.6155  223.5216 H   0  0  0  0  0  0  0  0  0  0  0  0
  143.6302   78.9138  222.0149 H   0  0  0  0  0  0  0  0  0  0  0  0
  1  2  2  0
  2  3  1  0
  3  4  2  0
  4  5  1  0
  5  6  2  0
  6  7  1  0
  7  8  2  0
  8  9  1  0
  9 10  2  0
 10 11  1  0
  2 12  1  0
 12 13  1  0
 14 13  1  6
 14 15  1  0
 15 16  1  0
 16 17  1  0
 17 18  1  0
 18 19  1  0
 19 20  1  0
 20 21  1  0
 21 22  1  0
 22 23  1  0
 23 24  1  0
 17 25  1  0
 14 26  1  0
 26 27  2  0
 27 28  1  0
 28 29  2  0
 29 30  1  0
 30 31  2  0
 11  3  1  0
 31 12  1  0
 10  5  1  0
 25 14  1  0
 31 26  1  0
 24 20  1  0
  4 32  1  0
  6 33  1  0
  7 34  1  0
  8 35  1  0
  9 36  1  0
 11 37  1  0
 13 38  1  0
 13 39  1  0
 15 40  1  0
 15 41  1  0
 16 42  1  0
 16 43  1  0
 18 44  1  0
 18 45  1  0
 19 46  1  0
 19 47  1  0
 20 48  1  6
 21 49  1  0
 21 50  1  0
 22 51  1  0
 22 52  1  0
 23 53  1  0
 24 54  1  0
 24 55  1  0
 25 56  1  0
 25 57  1  0
 27 58  1  0
 28 59  1  0
 29 60  1  0
 30 61  1  0
M  END
>  <smiles>  (65) 
O=C(c1cc2ccccc2[nH]1)N1C[C@]2(CCN(CCC3CCNC3)C2)c2ccccc21

>  <score_type>  (65) 
oracle

>  <origin>  (65) 
autodockgpu

>  <m_score__min__energy>  (65) 
-9.3000000000000007

>  <m_primary>  (65) 
energy

>  <rmsd>  (65) 
6.4295035356675

>  <m_score__min__rmsd>  (65) 
6.4295035356675

>  <meeko>  (65) 
{"free_energy": -8.56, "intermolecular_energy": -10.05, "internal_energy": -1.29, "cluster_size": 7, "cluster_id": 2, "rank_in_cluster": 3}

>  <energy>  (65) 
-8.43

>  <cluster_rmsd>  (65) 
1.16

>  <cluster>  (65) 
1

$$$$

     RDKit          3D

 61 66  0  0  1  0  0  0  0  0999 V2000
  138.9330   69.9490  221.7410 O   0  0  0  0  0  0  0  0  0  0  0  0
  139.7750   70.7960  222.2070 C   0  0  0  0  0  0  0  0  0  0  0  0
  139.9690   70.7610  223.6370 C   0  0  0  0  0  0  0  0  0  0  0  0
  139.5870   69.7780  224.5570 C   0  0  0  0  0  0  0  0  0  0  0  0
  140.0100   70.2230  225.8030 C   0  0  0  0  0  0  0  0  0  0  0  0
  139.8760   69.6180  227.0300 C   0  0  0  0  0  0  0  0  0  0  0  0
  140.3950   70.2940  228.1210 C   0  0  0  0  0  0  0  0  0  0  0  0
  141.0270   71.5330  227.9720 C   0  0  0  0  0  0  0  0  0  0  0  0
  141.1520   72.1240  226.7220 C   0  0  0  0  0  0  0  0  0  0  0  0
  140.6320   71.4500  225.6310 C   0  0  0  0  0  0  0  0  0  0  0  0
  140.6010   71.7670  224.3100 N   0  0  0  0  0  0  0  0  0  0  0  0
  140.4380   71.6810  221.3220 N   0  0  0  0  0  0  0  0  0  0  0  0
  141.1780   71.2630  220.1230 C   0  0  0  0  0  0  0  0  0  0  0  0
  142.2850   72.2710  220.0930 C   0  0  1  0  0  0  0  0  0  0  0  0
  143.4550   71.8910  220.9530 C   0  0  0  0  0  0  0  0  0  0  0  0
  144.5620   72.7550  220.3980 C   0  0  0  0  0  0  0  0  0  0  0  0
  144.2920   72.7940  218.9950 N   0  0  0  0  0  0  0  0  0  0  0  0
  145.2620   72.0130  218.2980 C   0  0  0  0  0  0  0  0  0  0  0  0
  145.6110   70.7070  218.9350 C   0  0  0  0  0  0  0  0  0  0  0  0
  144.7970   69.5500  218.4600 C   0  0  1  0  0  0  0  0  0  0  0  0
  145.5780   68.4580  217.8010 C   0  0  0  0  0  0  0  0  0  0  0  0
  146.3240   67.8580  218.9880 C   0  0  0  0  0  0  0  0  0  0  0  0
  145.4880   68.0360  220.1370 N   0  0  0  0  0  0  0  0  0  0  0  0
  144.3380   68.8170  219.7270 C   0  0  0  0  0  0  0  0  0  0  0  0
  142.9350   72.4360  218.7420 C   0  0  0  0  0  0  0  0  0  0  0  0
  141.6710   73.4960  220.6110 C   0  0  0  0  0  0  0  0  0  0  0  0
  141.9340   74.8490  220.5330 C   0  0  0  0  0  0  0  0  0  0  0  0
  141.1590   75.8100  221.1440 C   0  0  0  0  0  0  0  0  0  0  0  0
  140.0660   75.3850  221.8710 C   0  0  0  0  0  0  0  0  0  0  0  0
  139.7800   74.0400  221.9660 C   0  0  0  0  0  0  0  0  0  0  0  0
  140.5650   73.0900  221.3470 C   0  0  0  0  0  0  0  0  0  0  0  0
  139.0571   68.8395  224.3371 H   0  0  0  0  0  0  0  0  0  0  0  0
  139.3797   68.6425  227.1399 H   0  0  0  0  0  0  0  0  0  0  0  0
  140.3088   69.8488  229.1232 H   0  0  0  0  0  0  0  0  0  0  0  0
  141.4305   72.0461  228.8574 H   0  0  0  0  0  0  0  0  0  0  0  0
  141.6490   73.0980  226.6025 H   0  0  0  0  0  0  0  0  0  0  0  0
  141.0040   72.6550  223.8950 H   0  0  0  0  0  0  0  0  0  0  0  0
  141.5682   70.2398  220.2273 H   0  0  0  0  0  0  0  0  0  0  0  0
  140.5704   71.2348  219.2065 H   0  0  0  0  0  0  0  0  0  0  0  0
  143.2625   72.1223  222.0110 H   0  0  0  0  0  0  0  0  0  0  0  0
  143.6848   70.8155  220.9309 H   0  0  0  0  0  0  0  0  0  0  0  0
  144.5262   73.7650  220.8323 H   0  0  0  0  0  0  0  0  0  0  0  0
  145.5638   72.3633  220.6280 H   0  0  0  0  0  0  0  0  0  0  0  0
  144.8708   71.8057  217.2910 H   0  0  0  0  0  0  0  0  0  0  0  0
  146.1874   72.6076  218.2989 H   0  0  0  0  0  0  0  0  0  0  0  0
  146.6689   70.4930  218.7228 H   0  0  0  0  0  0  0  0  0  0  0  0
  145.4016   70.8169  220.0093 H   0  0  0  0  0  0  0  0  0  0  0  0
  144.0477   69.9719  217.7740 H   0  0  0  0  0  0  0  0  0  0  0  0
  144.9147   67.7188  217.3281 H   0  0  0  0  0  0  0  0  0  0  0  0
  146.2333   68.8035  216.9879 H   0  0  0  0  0  0  0  0  0  0  0  0
  146.5088   66.7872  218.8167 H   0  0  0  0  0  0  0  0  0  0  0  0
  147.2983   68.3486  219.1298 H   0  0  0  0  0  0  0  0  0  0  0  0
  145.1670   67.0960  220.4410 H   0  0  0  0  0  0  0  0  0  0  0  0
  143.4822   68.1616  219.5075 H   0  0  0  0  0  0  0  0  0  0  0  0
  144.0052   69.5116  220.5123 H   0  0  0  0  0  0  0  0  0  0  0  0
  142.4313   73.2297  218.1708 H   0  0  0  0  0  0  0  0  0  0  0  0
  142.8679   71.5119  218.1491 H   0  0  0  0  0  0  0  0  0  0  0  0
  142.8087   75.1770  219.9522 H   0  0  0  0  0  0  0  0  0  0  0  0
  141.4030   76.8789  221.0554 H   0  0  0  0  0  0  0  0  0  0  0  0
  139.4221   76.1205  222.3754 H   0  0  0  0  0  0  0  0  0  0  0  0
  138.9051   73.7168  222.5492 H   0  0  0  0  0  0  0  0  0  0  0  0
  1  2  2  0
  2  3  1  0
  3  4  2  0
  4  5  1  0
  5  6  2  0
  6  7  1  0
  7  8  2  0
  8  9  1  0
  9 10  2  0
 10 11  1  0
  2 12  1  0
 12 13  1  0
 14 13  1  6
 14 15  1  0
 15 16  1  0
 16 17  1  0
 17 18  1  0
 18 19  1  0
 19 20  1  0
 20 21  1  0
 21 22  1  0
 22 23  1  0
 23 24  1  0
 17 25  1  0
 14 26  1  0
 26 27  2  0
 27 28  1  0
 28 29  2  0
 29 30  1  0
 30 31  2  0
 11  3  1  0
 31 12  1  0
 10  5  1  0
 25 14  1  0
 31 26  1  0
 24 20  1  0
  4 32  1  0
  6 33  1  0
  7 34  1  0
  8 35  1  0
  9 36  1  0
 11 37  1  0
 13 38  1  0
 13 39  1  0
 15 40  1  0
 15 41  1  0
 16 42  1  0
 16 43  1  0
 18 44  1  0
 18 45  1  0
 19 46  1  0
 19 47  1  0
 20 48  1  6
 21 49  1  0
 21 50  1  0
 22 51  1  0
 22 52  1  0
 23 53  1  0
 24 54  1  0
 24 55  1  0
 25 56  1  0
 25 57  1  0
 27 58  1  0
 28 59  1  0
 29 60  1  0
 30 61  1  0
M  END
>  <smiles>  (66) 
O=C(c1cc2ccccc2[nH]1)N1C[C@]2(CCN(CCC3CCNC3)C2)c2ccccc21

>  <score_type>  (66) 
oracle

>  <origin>  (66) 
autodockgpu

>  <m_score__min__energy>  (66) 
-9.3000000000000007

>  <m_primary>  (66) 
energy

>  <rmsd>  (66) 
4.460465708339102

>  <m_score__min__rmsd>  (66) 
4.460465708339102

>  <meeko>  (66) 
{"free_energy": -8.43, "intermolecular_energy": -9.92, "internal_energy": -1.58, "cluster_size": 16, "cluster_id": 3, "rank_in_cluster": 4}

>  <energy>  (66) 
-8.33

>  <cluster_rmsd>  (66) 
1.0

>  <cluster>  (66) 
1

$$$$

     RDKit          3D

 61 66  0  0  1  0  0  0  0  0999 V2000
  140.2460   74.6870  221.9900 O   0  0  0  0  0  0  0  0  0  0  0  0
  141.0030   75.4610  221.3010 C   0  0  0  0  0  0  0  0  0  0  0  0
  141.0160   76.8450  221.7090 C   0  0  0  0  0  0  0  0  0  0  0  0
  141.8440   77.8860  221.2760 C   0  0  0  0  0  0  0  0  0  0  0  0
  141.4460   79.0190  221.9750 C   0  0  0  0  0  0  0  0  0  0  0  0
  141.9450   80.2980  221.9080 C   0  0  0  0  0  0  0  0  0  0  0  0
  141.3530   81.2440  222.7280 C   0  0  0  0  0  0  0  0  0  0  0  0
  140.2960   80.9070  223.5780 C   0  0  0  0  0  0  0  0  0  0  0  0
  139.8070   79.6080  223.6280 C   0  0  0  0  0  0  0  0  0  0  0  0
  140.3980   78.6610  222.8100 C   0  0  0  0  0  0  0  0  0  0  0  0
  140.1460   77.3370  222.6390 N   0  0  0  0  0  0  0  0  0  0  0  0
  141.7490   74.9270  220.2220 N   0  0  0  0  0  0  0  0  0  0  0  0
  142.0880   73.5060  220.0640 C   0  0  0  0  0  0  0  0  0  0  0  0
  143.4390   73.5940  219.4240 C   0  0  1  0  0  0  0  0  0  0  0  0
  144.5550   73.7550  220.4150 C   0  0  0  0  0  0  0  0  0  0  0  0
  145.7660   73.3430  219.6130 C   0  0  0  0  0  0  0  0  0  0  0  0
  145.2800   72.2880  218.7800 N   0  0  0  0  0  0  0  0  0  0  0  0
  145.8030   71.0400  219.2330 C   0  0  0  0  0  0  0  0  0  0  0  0
  145.8910   69.9680  218.1950 C   0  0  0  0  0  0  0  0  0  0  0  0
  144.8790   68.8810  218.3410 C   0  0  1  0  0  0  0  0  0  0  0  0
  145.3150   67.5420  217.8390 C   0  0  0  0  0  0  0  0  0  0  0  0
  146.3570   67.1510  218.8820 C   0  0  0  0  0  0  0  0  0  0  0  0
  145.9560   67.7550  220.1160 N   0  0  0  0  0  0  0  0  0  0  0  0
  144.8010   68.5870  219.8440 C   0  0  0  0  0  0  0  0  0  0  0  0
  143.8580   72.3470  218.6860 C   0  0  0  0  0  0  0  0  0  0  0  0
  143.3590   74.7870  218.5770 C   0  0  0  0  0  0  0  0  0  0  0  0
  144.0290   75.2660  217.4680 C   0  0  0  0  0  0  0  0  0  0  0  0
  143.7300   76.4640  216.8590 C   0  0  0  0  0  0  0  0  0  0  0  0
  142.7060   77.2170  217.3930 C   0  0  0  0  0  0  0  0  0  0  0  0
  142.0190   76.7640  218.4990 C   0  0  0  0  0  0  0  0  0  0  0  0
  142.3300   75.5610  219.0980 C   0  0  0  0  0  0  0  0  0  0  0  0
  142.6500   77.8207  220.5303 H   0  0  0  0  0  0  0  0  0  0  0  0
  142.7753   80.5578  221.2349 H   0  0  0  0  0  0  0  0  0  0  0  0
  141.7216   82.2802  222.7100 H   0  0  0  0  0  0  0  0  0  0  0  0
  139.8452   81.6812  224.2162 H   0  0  0  0  0  0  0  0  0  0  0  0
  138.9759   79.3403  224.2970 H   0  0  0  0  0  0  0  0  0  0  0  0
  139.3960   76.7970  223.1570 H   0  0  0  0  0  0  0  0  0  0  0  0
  142.1359   72.9933  221.0360 H   0  0  0  0  0  0  0  0  0  0  0  0
  141.3522   72.9299  219.4837 H   0  0  0  0  0  0  0  0  0  0  0  0
  144.6385   74.7982  220.7536 H   0  0  0  0  0  0  0  0  0  0  0  0
  144.4152   73.1648  221.3326 H   0  0  0  0  0  0  0  0  0  0  0  0
  146.1382   74.1817  219.0063 H   0  0  0  0  0  0  0  0  0  0  0  0
  146.6097   73.0310  220.2461 H   0  0  0  0  0  0  0  0  0  0  0  0
  146.8156   71.2180  219.6239 H   0  0  0  0  0  0  0  0  0  0  0  0
  145.0956   70.6716  219.9906 H   0  0  0  0  0  0  0  0  0  0  0  0
  145.7551   70.4337  217.2077 H   0  0  0  0  0  0  0  0  0  0  0  0
  146.8771   69.4958  218.3156 H   0  0  0  0  0  0  0  0  0  0  0  0
  143.9827   69.2311  217.8080 H   0  0  0  0  0  0  0  0  0  0  0  0
  144.4783   66.8282  217.8196 H   0  0  0  0  0  0  0  0  0  0  0  0
  145.6952   67.5519  216.8069 H   0  0  0  0  0  0  0  0  0  0  0  0
  146.3922   66.0569  218.9901 H   0  0  0  0  0  0  0  0  0  0  0  0
  147.3597   67.4915  218.5842 H   0  0  0  0  0  0  0  0  0  0  0  0
  145.6800   66.9930  220.7650 H   0  0  0  0  0  0  0  0  0  0  0  0
  143.8713   68.0516  220.0869 H   0  0  0  0  0  0  0  0  0  0  0  0
  144.7982   69.5060  220.4485 H   0  0  0  0  0  0  0  0  0  0  0  0
  143.5476   72.4050  217.6323 H   0  0  0  0  0  0  0  0  0  0  0  0
  143.3902   71.4497  219.1172 H   0  0  0  0  0  0  0  0  0  0  0  0
  144.8446   74.6581  217.0493 H   0  0  0  0  0  0  0  0  0  0  0  0
  144.2890   76.8086  215.9765 H   0  0  0  0  0  0  0  0  0  0  0  0
  142.4368   78.1806  216.9359 H   0  0  0  0  0  0  0  0  0  0  0  0
  141.2042   77.3759  218.9133 H   0  0  0  0  0  0  0  0  0  0  0  0
  1  2  2  0
  2  3  1  0
  3  4  2  0
  4  5  1  0
  5  6  2  0
  6  7  1  0
  7  8  2  0
  8  9  1  0
  9 10  2  0
 10 11  1  0
  2 12  1  0
 12 13  1  0
 14 13  1  1
 14 15  1  0
 15 16  1  0
 16 17  1  0
 17 18  1  0
 18 19  1  0
 19 20  1  0
 20 21  1  0
 21 22  1  0
 22 23  1  0
 23 24  1  0
 17 25  1  0
 14 26  1  0
 26 27  2  0
 27 28  1  0
 28 29  2  0
 29 30  1  0
 30 31  2  0
 11  3  1  0
 31 12  1  0
 10  5  1  0
 25 14  1  0
 31 26  1  0
 24 20  1  0
  4 32  1  0
  6 33  1  0
  7 34  1  0
  8 35  1  0
  9 36  1  0
 11 37  1  0
 13 38  1  0
 13 39  1  0
 15 40  1  0
 15 41  1  0
 16 42  1  0
 16 43  1  0
 18 44  1  0
 18 45  1  0
 19 46  1  0
 19 47  1  0
 20 48  1  6
 21 49  1  0
 21 50  1  0
 22 51  1  0
 22 52  1  0
 23 53  1  0
 24 54  1  0
 24 55  1  0
 25 56  1  0
 25 57  1  0
 27 58  1  0
 28 59  1  0
 29 60  1  0
 30 61  1  0
M  END
>  <smiles>  (67) 
O=C(c1cc2ccccc2[nH]1)N1C[C@]2(CCN(CCC3CCNC3)C2)c2ccccc21

>  <score_type>  (67) 
oracle

>  <origin>  (67) 
autodockgpu

>  <m_score__min__energy>  (67) 
-9.3000000000000007

>  <m_primary>  (67) 
energy

>  <rmsd>  (67) 
7.270493206645951

>  <m_score__min__rmsd>  (67) 
7.270493206645951

>  <meeko>  (67) 
{"free_energy": -8.81, "intermolecular_energy": -10.3, "internal_energy": -1.38, "cluster_size": 16, "cluster_id": 1, "rank_in_cluster": 8}

>  <energy>  (67) 
-8.61

>  <cluster_rmsd>  (67) 
0.0

>  <cluster>  (67) 
2

$$$$

     RDKit          3D

 61 66  0  0  1  0  0  0  0  0999 V2000
  139.1150   69.8670  221.9320 O   0  0  0  0  0  0  0  0  0  0  0  0
  139.9070   70.7850  222.3520 C   0  0  0  0  0  0  0  0  0  0  0  0
  140.1030   70.8340  223.7810 C   0  0  0  0  0  0  0  0  0  0  0  0
  140.7120   71.8270  224.5560 C   0  0  0  0  0  0  0  0  0  0  0  0
  140.6390   71.3930  225.8740 C   0  0  0  0  0  0  0  0  0  0  0  0
  141.0930   72.0100  227.0150 C   0  0  0  0  0  0  0  0  0  0  0  0
  140.8870   71.3440  228.2110 C   0  0  0  0  0  0  0  0  0  0  0  0
  140.2450   70.1030  228.2480 C   0  0  0  0  0  0  0  0  0  0  0  0
  139.7930   69.4990  227.0830 C   0  0  0  0  0  0  0  0  0  0  0  0
  139.9990   70.1630  225.8860 C   0  0  0  0  0  0  0  0  0  0  0  0
  139.6780   69.8330  224.6070 N   0  0  0  0  0  0  0  0  0  0  0  0
  140.5170   71.6590  221.4210 N   0  0  0  0  0  0  0  0  0  0  0  0
  141.2540   71.2250  220.2250 C   0  0  0  0  0  0  0  0  0  0  0  0
  142.3160   72.2760  220.1350 C   0  0  1  0  0  0  0  0  0  0  0  0
  143.5160   71.9790  220.9870 C   0  0  0  0  0  0  0  0  0  0  0  0
  144.5760   72.8660  220.3780 C   0  0  0  0  0  0  0  0  0  0  0  0
  144.2810   72.8370  218.9800 N   0  0  0  0  0  0  0  0  0  0  0  0
  145.2710   72.0700  218.2970 C   0  0  0  0  0  0  0  0  0  0  0  0
  145.6110   70.7570  218.9250 C   0  0  0  0  0  0  0  0  0  0  0  0
  144.7810   69.6110  218.4510 C   0  0  1  0  0  0  0  0  0  0  0  0
  145.5440   68.5200  217.7710 C   0  0  0  0  0  0  0  0  0  0  0  0
  146.3020   67.9030  218.9410 C   0  0  0  0  0  0  0  0  0  0  0  0
  145.4850   68.0760  220.1030 N   0  0  0  0  0  0  0  0  0  0  0  0
  144.3360   68.8700  219.7180 C   0  0  0  0  0  0  0  0  0  0  0  0
  142.9370   72.4140  218.7670 C   0  0  0  0  0  0  0  0  0  0  0  0
  141.6600   73.4940  220.6160 C   0  0  0  0  0  0  0  0  0  0  0  0
  141.8650   74.8530  220.4800 C   0  0  0  0  0  0  0  0  0  0  0  0
  141.0610   75.8040  221.0680 C   0  0  0  0  0  0  0  0  0  0  0  0
  139.9990   75.3650  221.8300 C   0  0  0  0  0  0  0  0  0  0  0  0
  139.7720   74.0130  221.9840 C   0  0  0  0  0  0  0  0  0  0  0  0
  140.5860   73.0720  221.3880 C   0  0  0  0  0  0  0  0  0  0  0  0
  141.1594   72.7645  224.1941 H   0  0  0  0  0  0  0  0  0  0  0  0
  141.5965   72.9873  226.9796 H   0  0  0  0  0  0  0  0  0  0  0  0
  141.2350   71.7999  229.1496 H   0  0  0  0  0  0  0  0  0  0  0  0
  140.0959   69.5980  229.2138 H   0  0  0  0  0  0  0  0  0  0  0  0
  139.2867   68.5228  227.1100 H   0  0  0  0  0  0  0  0  0  0  0  0
  139.1830   68.9410  224.3230 H   0  0  0  0  0  0  0  0  0  0  0  0
  141.6891   70.2240  220.3617 H   0  0  0  0  0  0  0  0  0  0  0  0
  140.6326   71.1351  219.3218 H   0  0  0  0  0  0  0  0  0  0  0  0
  143.3323   72.2436  222.0388 H   0  0  0  0  0  0  0  0  0  0  0  0
  143.7907   70.9139  221.0021 H   0  0  0  0  0  0  0  0  0  0  0  0
  144.5044   73.8902  220.7727 H   0  0  0  0  0  0  0  0  0  0  0  0
  145.5974   72.5265  220.6049 H   0  0  0  0  0  0  0  0  0  0  0  0
  144.9054   71.8743  217.2782 H   0  0  0  0  0  0  0  0  0  0  0  0
  146.1932   72.6688  218.3285 H   0  0  0  0  0  0  0  0  0  0  0  0
  146.6649   70.5328  218.7034 H   0  0  0  0  0  0  0  0  0  0  0  0
  145.4111   70.8639  220.0014 H   0  0  0  0  0  0  0  0  0  0  0  0
  144.0247   70.0444  217.7800 H   0  0  0  0  0  0  0  0  0  0  0  0
  144.8685   67.7904  217.3005 H   0  0  0  0  0  0  0  0  0  0  0  0
  146.1905   68.8685  216.9521 H   0  0  0  0  0  0  0  0  0  0  0  0
  146.4759   66.8326  218.7568 H   0  0  0  0  0  0  0  0  0  0  0  0
  147.2819   68.3849  219.0733 H   0  0  0  0  0  0  0  0  0  0  0  0
  145.1620   67.1360  220.4040 H   0  0  0  0  0  0  0  0  0  0  0  0
  143.4715   68.2238  219.5059 H   0  0  0  0  0  0  0  0  0  0  0  0
  144.0215   69.5602  220.5147 H   0  0  0  0  0  0  0  0  0  0  0  0
  142.3911   73.1630  218.1745 H   0  0  0  0  0  0  0  0  0  0  0  0
  142.8992   71.4647  218.2126 H   0  0  0  0  0  0  0  0  0  0  0  0
  142.7148   75.1936  219.8702 H   0  0  0  0  0  0  0  0  0  0  0  0
  141.2594   76.8777  220.9343 H   0  0  0  0  0  0  0  0  0  0  0  0
  139.3325   76.0931  222.3153 H   0  0  0  0  0  0  0  0  0  0  0  0
  138.9221   73.6774  222.5963 H   0  0  0  0  0  0  0  0  0  0  0  0
  1  2  2  0
  2  3  1  0
  3  4  2  0
  4  5  1  0
  5  6  2  0
  6  7  1  0
  7  8  2  0
  8  9  1  0
  9 10  2  0
 10 11  1  0
  2 12  1  0
 12 13  1  0
 14 13  1  6
 14 15  1  0
 15 16  1  0
 16 17  1  0
 17 18  1  0
 18 19  1  0
 19 20  1  0
 20 21  1  0
 21 22  1  0
 22 23  1  0
 23 24  1  0
 17 25  1  0
 14 26  1  0
 26 27  2  0
 27 28  1  0
 28 29  2  0
 29 30  1  0
 30 31  2  0
 11  3  1  0
 31 12  1  0
 10  5  1  0
 25 14  1  0
 31 26  1  0
 24 20  1  0
  4 32  1  0
  6 33  1  0
  7 34  1  0
  8 35  1  0
  9 36  1  0
 11 37  1  0
 13 38  1  0
 13 39  1  0
 15 40  1  0
 15 41  1  0
 16 42  1  0
 16 43  1  0
 18 44  1  0
 18 45  1  0
 19 46  1  0
 19 47  1  0
 20 48  1  6
 21 49  1  0
 21 50  1  0
 22 51  1  0
 22 52  1  0
 23 53  1  0
 24 54  1  0
 24 55  1  0
 25 56  1  0
 25 57  1  0
 27 58  1  0
 28 59  1  0
 29 60  1  0
 30 61  1  0
M  END
>  <smiles>  (68) 
O=C(c1cc2ccccc2[nH]1)N1C[C@]2(CCN(CCC3CCNC3)C2)c2ccccc21

>  <score_type>  (68) 
oracle

>  <origin>  (68) 
autodockgpu

>  <m_score__min__energy>  (68) 
-9.3000000000000007

>  <m_primary>  (68) 
energy

>  <rmsd>  (68) 
4.5653492558128335

>  <m_score__min__rmsd>  (68) 
4.5653492558128335

>  <meeko>  (68) 
{"free_energy": -8.37, "intermolecular_energy": -9.86, "internal_energy": -1.77, "cluster_size": 16, "cluster_id": 3, "rank_in_cluster": 8}

>  <energy>  (68) 
-8.56

>  <cluster_rmsd>  (68) 
0.55

>  <cluster>  (68) 
2

$$$$

     RDKit          3D

 61 66  0  0  1  0  0  0  0  0999 V2000
  139.9160   74.6540  222.2930 O   0  0  0  0  0  0  0  0  0  0  0  0
  140.5800   75.5230  221.6230 C   0  0  0  0  0  0  0  0  0  0  0  0
  140.4950   76.8810  222.1050 C   0  0  0  0  0  0  0  0  0  0  0  0
  141.4700   77.8840  222.0990 C   0  0  0  0  0  0  0  0  0  0  0  0
  140.8820   79.0040  222.6730 C   0  0  0  0  0  0  0  0  0  0  0  0
  141.4230   80.2480  222.8960 C   0  0  0  0  0  0  0  0  0  0  0  0
  140.6020   81.1900  223.4940 C   0  0  0  0  0  0  0  0  0  0  0  0
  139.2860   80.8820  223.8490 C   0  0  0  0  0  0  0  0  0  0  0  0
  138.7600   79.6190  223.6130 C   0  0  0  0  0  0  0  0  0  0  0  0
  139.5800   78.6760  223.0160 C   0  0  0  0  0  0  0  0  0  0  0  0
  139.3550   77.3830  222.6660 N   0  0  0  0  0  0  0  0  0  0  0  0
  141.3280   75.1100  220.4940 N   0  0  0  0  0  0  0  0  0  0  0  0
  141.6480   73.7130  220.1700 C   0  0  0  0  0  0  0  0  0  0  0  0
  143.0050   73.8560  219.5530 C   0  0  1  0  0  0  0  0  0  0  0  0
  144.1140   73.8790  220.5640 C   0  0  0  0  0  0  0  0  0  0  0  0
  145.3260   73.5470  219.7260 C   0  0  0  0  0  0  0  0  0  0  0  0
  144.8310   72.6070  218.7710 N   0  0  0  0  0  0  0  0  0  0  0  0
  145.3320   71.3060  219.0750 C   0  0  0  0  0  0  0  0  0  0  0  0
  144.3550   70.3760  219.7190 C   0  0  0  0  0  0  0  0  0  0  0  0
  144.1100   69.1140  218.9620 C   0  0  1  0  0  0  0  0  0  0  0  0
  145.1810   68.7490  217.9850 C   0  0  0  0  0  0  0  0  0  0  0  0
  146.3200   68.3470  218.9160 C   0  0  0  0  0  0  0  0  0  0  0  0
  145.7190   67.8100  220.0990 N   0  0  0  0  0  0  0  0  0  0  0  0
  144.2850   67.9800  219.9800 C   0  0  0  0  0  0  0  0  0  0  0  0
  143.4110   72.6980  218.6750 C   0  0  0  0  0  0  0  0  0  0  0  0
  142.9490   75.1420  218.8540 C   0  0  0  0  0  0  0  0  0  0  0  0
  143.6360   75.7380  217.8150 C   0  0  0  0  0  0  0  0  0  0  0  0
  143.3600   77.0050  217.3510 C   0  0  0  0  0  0  0  0  0  0  0  0
  142.3420   77.7060  217.9640 C   0  0  0  0  0  0  0  0  0  0  0  0
  141.6400   77.1350  219.0040 C   0  0  0  0  0  0  0  0  0  0  0  0
  141.9280   75.8640  219.4570 C   0  0  0  0  0  0  0  0  0  0  0  0
  142.4979   77.8021  221.7159 H   0  0  0  0  0  0  0  0  0  0  0  0
  142.4593   80.4843  222.6128 H   0  0  0  0  0  0  0  0  0  0  0  0
  140.9931   82.1987  223.6930 H   0  0  0  0  0  0  0  0  0  0  0  0
  138.6579   81.6512  224.3221 H   0  0  0  0  0  0  0  0  0  0  0  0
  137.7242   79.3749  223.8915 H   0  0  0  0  0  0  0  0  0  0  0  0
  138.4410   76.8690  222.8170 H   0  0  0  0  0  0  0  0  0  0  0  0
  141.6811   73.0877  221.0744 H   0  0  0  0  0  0  0  0  0  0  0  0
  140.9085   73.2212  219.5209 H   0  0  0  0  0  0  0  0  0  0  0  0
  144.2102   74.8725  221.0263 H   0  0  0  0  0  0  0  0  0  0  0  0
  143.9573   73.1853  221.4032 H   0  0  0  0  0  0  0  0  0  0  0  0
  145.7152   74.4461  219.2259 H   0  0  0  0  0  0  0  0  0  0  0  0
  146.1603   73.1492  220.3224 H   0  0  0  0  0  0  0  0  0  0  0  0
  145.6706   70.8449  218.1355 H   0  0  0  0  0  0  0  0  0  0  0  0
  146.1368   71.4557  219.8098 H   0  0  0  0  0  0  0  0  0  0  0  0
  144.7391   70.1101  220.7149 H   0  0  0  0  0  0  0  0  0  0  0  0
  143.3938   70.9095  219.7567 H   0  0  0  0  0  0  0  0  0  0  0  0
  143.1414   69.2479  218.4581 H   0  0  0  0  0  0  0  0  0  0  0  0
  144.8711   67.9103  217.3442 H   0  0  0  0  0  0  0  0  0  0  0  0
  145.4400   69.5549  217.2825 H   0  0  0  0  0  0  0  0  0  0  0  0
  146.9522   67.5867  218.4341 H   0  0  0  0  0  0  0  0  0  0  0  0
  146.9573   69.2111  219.1551 H   0  0  0  0  0  0  0  0  0  0  0  0
  145.9390   66.7960  220.1310 H   0  0  0  0  0  0  0  0  0  0  0  0
  143.8138   67.0553  219.6154 H   0  0  0  0  0  0  0  0  0  0  0  0
  143.8119   68.2113  220.9458 H   0  0  0  0  0  0  0  0  0  0  0  0
  143.1101   72.8848  217.6336 H   0  0  0  0  0  0  0  0  0  0  0  0
  142.9262   71.7633  218.9934 H   0  0  0  0  0  0  0  0  0  0  0  0
  144.4460   75.1712  217.3327 H   0  0  0  0  0  0  0  0  0  0  0  0
  143.9319   77.4432  216.5198 H   0  0  0  0  0  0  0  0  0  0  0  0
  142.0904   78.7210  217.6227 H   0  0  0  0  0  0  0  0  0  0  0  0
  140.8315   77.7060  219.4838 H   0  0  0  0  0  0  0  0  0  0  0  0
  1  2  2  0
  2  3  1  0
  3  4  2  0
  4  5  1  0
  5  6  2  0
  6  7  1  0
  7  8  2  0
  8  9  1  0
  9 10  2  0
 10 11  1  0
  2 12  1  0
 12 13  1  0
 14 13  1  1
 14 15  1  0
 15 16  1  0
 16 17  1  0
 17 18  1  0
 18 19  1  0
 19 20  1  0
 20 21  1  0
 21 22  1  0
 22 23  1  0
 23 24  1  0
 17 25  1  0
 14 26  1  0
 26 27  2  0
 27 28  1  0
 28 29  2  0
 29 30  1  0
 30 31  2  0
 11  3  1  0
 31 12  1  0
 10  5  1  0
 25 14  1  0
 31 26  1  0
 24 20  1  0
  4 32  1  0
  6 33  1  0
  7 34  1  0
  8 35  1  0
  9 36  1  0
 11 37  1  0
 13 38  1  0
 13 39  1  0
 15 40  1  0
 15 41  1  0
 16 42  1  0
 16 43  1  0
 18 44  1  0
 18 45  1  0
 19 46  1  0
 19 47  1  0
 20 48  1  6
 21 49  1  0
 21 50  1  0
 22 51  1  0
 22 52  1  0
 23 53  1  0
 24 54  1  0
 24 55  1  0
 25 56  1  0
 25 57  1  0
 27 58  1  0
 28 59  1  0
 29 60  1  0
 30 61  1  0
M  END
>  <smiles>  (69) 
O=C(c1cc2ccccc2[nH]1)N1C[C@]2(CCN(CCC3CCNC3)C2)c2ccccc21

>  <score_type>  (69) 
oracle

>  <origin>  (69) 
autodockgpu

>  <m_score__min__energy>  (69) 
-9.3000000000000007

>  <m_primary>  (69) 
energy

>  <rmsd>  (69) 
7.066624627548621

>  <m_score__min__rmsd>  (69) 
7.066624627548621

>  <meeko>  (69) 
{"free_energy": -8.33, "intermolecular_energy": -9.82, "internal_energy": -1.4, "cluster_size": 16, "cluster_id": 1, "rank_in_cluster": 16}

>  <energy>  (69) 
-8.56

>  <cluster_rmsd>  (69) 
0.79

>  <cluster>  (69) 
2

$$$$

     RDKit          3D

 61 66  0  0  1  0  0  0  0  0999 V2000
  139.9670   75.6820  222.3270 O   0  0  0  0  0  0  0  0  0  0  0  0
  140.4870   76.7930  221.9540 C   0  0  0  0  0  0  0  0  0  0  0  0
  141.2450   76.7470  220.7270 C   0  0  0  0  0  0  0  0  0  0  0  0
  142.0090   75.7010  220.1990 C   0  0  0  0  0  0  0  0  0  0  0  0
  142.5300   76.1650  218.9980 C   0  0  0  0  0  0  0  0  0  0  0  0
  143.3440   75.5170  218.0990 C   0  0  0  0  0  0  0  0  0  0  0  0
  143.7190   76.2260  216.9700 C   0  0  0  0  0  0  0  0  0  0  0  0
  143.2840   77.5380  216.7610 C   0  0  0  0  0  0  0  0  0  0  0  0
  142.4600   78.1720  217.6820 C   0  0  0  0  0  0  0  0  0  0  0  0
  142.0860   77.4640  218.8110 C   0  0  0  0  0  0  0  0  0  0  0  0
  141.3050   77.8080  219.8690 N   0  0  0  0  0  0  0  0  0  0  0  0
  140.2930   77.9530  222.7430 N   0  0  0  0  0  0  0  0  0  0  0  0
  139.0300   78.3100  223.4060 C   0  0  0  0  0  0  0  0  0  0  0  0
  139.0590   79.8040  223.3100 C   0  0  1  0  0  0  0  0  0  0  0  0
  138.5260   80.3240  222.0060 C   0  0  0  0  0  0  0  0  0  0  0  0
  138.2150   81.7650  222.3320 C   0  0  0  0  0  0  0  0  0  0  0  0
  137.7480   81.7150  223.6810 N   0  0  0  0  0  0  0  0  0  0  0  0
  136.3410   81.9490  223.7110 C   0  0  0  0  0  0  0  0  0  0  0  0
  135.6000   81.2630  224.8140 C   0  0  0  0  0  0  0  0  0  0  0  0
  134.9990   82.1850  225.8220 C   0  0  1  0  0  0  0  0  0  0  0  0
  134.9310   81.6390  227.2120 C   0  0  0  0  0  0  0  0  0  0  0  0
  136.4010   81.6420  227.6140 C   0  0  0  0  0  0  0  0  0  0  0  0
  137.0190   82.7300  226.9180 N   0  0  0  0  0  0  0  0  0  0  0  0
  136.0290   83.3020  226.0280 C   0  0  0  0  0  0  0  0  0  0  0  0
  138.1710   80.5060  224.3070 C   0  0  0  0  0  0  0  0  0  0  0  0
  140.4780   80.1460  223.4320 C   0  0  0  0  0  0  0  0  0  0  0  0
  141.2030   81.2650  223.7920 C   0  0  0  0  0  0  0  0  0  0  0  0
  142.5790   81.3030  223.8160 C   0  0  0  0  0  0  0  0  0  0  0  0
  143.2580   80.1560  223.4600 C   0  0  0  0  0  0  0  0  0  0  0  0
  142.5600   79.0240  223.0960 C   0  0  0  0  0  0  0  0  0  0  0  0
  141.1810   79.0020  223.0780 C   0  0  0  0  0  0  0  0  0  0  0  0
  142.1660   74.7083  220.6461 H   0  0  0  0  0  0  0  0  0  0  0  0
  143.6815   74.4839  218.2686 H   0  0  0  0  0  0  0  0  0  0  0  0
  144.3710   75.7480  216.2241 H   0  0  0  0  0  0  0  0  0  0  0  0
  143.5987   78.0758  215.8545 H   0  0  0  0  0  0  0  0  0  0  0  0
  142.1156   79.2040  217.5193 H   0  0  0  0  0  0  0  0  0  0  0  0
  140.8350   78.7500  219.9890 H   0  0  0  0  0  0  0  0  0  0  0  0
  138.1636   77.8893  222.8747 H   0  0  0  0  0  0  0  0  0  0  0  0
  138.9367   77.9267  224.4329 H   0  0  0  0  0  0  0  0  0  0  0  0
  139.2816   80.2506  221.2100 H   0  0  0  0  0  0  0  0  0  0  0  0
  137.6579   79.7617  221.6314 H   0  0  0  0  0  0  0  0  0  0  0  0
  139.1177   82.3886  222.2525 H   0  0  0  0  0  0  0  0  0  0  0  0
  137.4807   82.2084  221.6434 H   0  0  0  0  0  0  0  0  0  0  0  0
  136.1793   83.0320  223.8158 H   0  0  0  0  0  0  0  0  0  0  0  0
  135.9443   81.5314  222.7739 H   0  0  0  0  0  0  0  0  0  0  0  0
  134.7901   80.6685  224.3661 H   0  0  0  0  0  0  0  0  0  0  0  0
  136.3373   80.6488  225.3518 H   0  0  0  0  0  0  0  0  0  0  0  0
  133.9965   82.4330  225.4433 H   0  0  0  0  0  0  0  0  0  0  0  0
  134.3337   82.2878  227.8694 H   0  0  0  0  0  0  0  0  0  0  0  0
  134.4496   80.6525  227.2825 H   0  0  0  0  0  0  0  0  0  0  0  0
  136.4960   81.7850  228.7005 H   0  0  0  0  0  0  0  0  0  0  0  0
  136.8817   80.6863  227.3580 H   0  0  0  0  0  0  0  0  0  0  0  0
  137.2920   83.4410  227.6230 H   0  0  0  0  0  0  0  0  0  0  0  0
  135.5583   84.1839  226.4869 H   0  0  0  0  0  0  0  0  0  0  0  0
  136.4695   83.6421  225.0791 H   0  0  0  0  0  0  0  0  0  0  0  0
  138.7320   80.7288  225.2266 H   0  0  0  0  0  0  0  0  0  0  0  0
  137.3123   79.8794  224.5897 H   0  0  0  0  0  0  0  0  0  0  0  0
  140.6518   82.1741  224.0745 H   0  0  0  0  0  0  0  0  0  0  0  0
  143.1182   82.2160  224.1088 H   0  0  0  0  0  0  0  0  0  0  0  0
  144.3579   80.1446  223.4666 H   0  0  0  0  0  0  0  0  0  0  0  0
  143.1156   78.1177  222.8135 H   0  0  0  0  0  0  0  0  0  0  0  0
  1  2  2  0
  2  3  1  0
  3  4  2  0
  4  5  1  0
  5  6  2  0
  6  7  1  0
  7  8  2  0
  8  9  1  0
  9 10  2  0
 10 11  1  0
  2 12  1  0
 12 13  1  0
 14 13  1  6
 14 15  1  0
 15 16  1  0
 16 17  1  0
 17 18  1  0
 18 19  1  0
 19 20  1  0
 20 21  1  0
 21 22  1  0
 22 23  1  0
 23 24  1  0
 17 25  1  0
 14 26  1  0
 26 27  2  0
 27 28  1  0
 28 29  2  0
 29 30  1  0
 30 31  2  0
 11  3  1  0
 31 12  1  0
 10  5  1  0
 25 14  1  0
 31 26  1  0
 24 20  1  0
  4 32  1  0
  6 33  1  0
  7 34  1  0
  8 35  1  0
  9 36  1  0
 11 37  1  0
 13 38  1  0
 13 39  1  0
 15 40  1  0
 15 41  1  0
 16 42  1  0
 16 43  1  0
 18 44  1  0
 18 45  1  0
 19 46  1  0
 19 47  1  0
 20 48  1  6
 21 49  1  0
 21 50  1  0
 22 51  1  0
 22 52  1  0
 23 53  1  0
 24 54  1  0
 24 55  1  0
 25 56  1  0
 25 57  1  0
 27 58  1  0
 28 59  1  0
 29 60  1  0
 30 61  1  0
M  END
>  <smiles>  (70) 
O=C(c1cc2ccccc2[nH]1)N1C[C@]2(CCN(CCC3CCNC3)C2)c2ccccc21

>  <score_type>  (70) 
oracle

>  <origin>  (70) 
autodockgpu

>  <m_score__min__energy>  (70) 
-9.3000000000000007

>  <m_primary>  (70) 
energy

>  <rmsd>  (70) 
7.828784217748353

>  <m_score__min__rmsd>  (70) 
7.828784217748353

>  <meeko>  (70) 
{"free_energy": -7.86, "intermolecular_energy": -9.35, "internal_energy": -1.53, "cluster_size": 7, "cluster_id": 2, "rank_in_cluster": 6}

>  <energy>  (70) 
-8.49

>  <cluster_rmsd>  (70) 
0.19

>  <cluster>  (70) 
2

$$$$

     RDKit          3D

 61 66  0  0  1  0  0  0  0  0999 V2000
  139.1610   71.9150  220.8340 O   0  0  0  0  0  0  0  0  0  0  0  0
  139.9670   72.2880  221.7590 C   0  0  0  0  0  0  0  0  0  0  0  0
  139.9950   71.4530  222.9360 C   0  0  0  0  0  0  0  0  0  0  0  0
  140.6470   71.6660  224.1560 C   0  0  0  0  0  0  0  0  0  0  0  0
  140.3530   70.5660  224.9520 C   0  0  0  0  0  0  0  0  0  0  0  0
  140.7530   70.2980  226.2400 C   0  0  0  0  0  0  0  0  0  0  0  0
  140.3080   69.1130  226.8000 C   0  0  0  0  0  0  0  0  0  0  0  0
  139.4880   68.2360  226.0830 C   0  0  0  0  0  0  0  0  0  0  0  0
  139.0940   68.5290  224.7840 C   0  0  0  0  0  0  0  0  0  0  0  0
  139.5400   69.7130  224.2230 C   0  0  0  0  0  0  0  0  0  0  0  0
  139.3290   70.2620  222.9980 N   0  0  0  0  0  0  0  0  0  0  0  0
  140.7500   73.4530  221.5740 N   0  0  0  0  0  0  0  0  0  0  0  0
  140.3380   74.8070  221.9690 C   0  0  0  0  0  0  0  0  0  0  0  0
  140.9640   75.6330  220.8880 C   0  0  1  0  0  0  0  0  0  0  0  0
  140.1170   75.7310  219.6520 C   0  0  0  0  0  0  0  0  0  0  0  0
  140.6960   76.9390  218.9550 C   0  0  0  0  0  0  0  0  0  0  0  0
  141.0450   77.8150  220.0280 N   0  0  0  0  0  0  0  0  0  0  0  0
  140.1400   78.9180  220.0610 C   0  0  0  0  0  0  0  0  0  0  0  0
  139.8930   79.5040  221.4140 C   0  0  0  0  0  0  0  0  0  0  0  0
  140.7470   80.6830  221.7410 C   0  0  1  0  0  0  0  0  0  0  0  0
  141.0490   80.8580  223.1960 C   0  0  0  0  0  0  0  0  0  0  0  0
  141.9990   79.6950  223.4520 C   0  0  0  0  0  0  0  0  0  0  0  0
  142.7080   79.4600  222.2310 N   0  0  0  0  0  0  0  0  0  0  0  0
  142.1480   80.3370  221.2230 C   0  0  0  0  0  0  0  0  0  0  0  0
  141.1520   77.0860  221.2480 C   0  0  0  0  0  0  0  0  0  0  0  0
  142.2110   74.9310  220.5750 C   0  0  0  0  0  0  0  0  0  0  0  0
  143.4200   75.2640  219.9950 C   0  0  0  0  0  0  0  0  0  0  0  0
  144.4510   74.3670  219.8220 C   0  0  0  0  0  0  0  0  0  0  0  0
  144.2540   73.0720  220.2540 C   0  0  0  0  0  0  0  0  0  0  0  0
  143.0570   72.7120  220.8360 C   0  0  0  0  0  0  0  0  0  0  0  0
  142.0340   73.6220  221.0040 C   0  0  0  0  0  0  0  0  0  0  0  0
  141.2682   72.5315  224.4299 H   0  0  0  0  0  0  0  0  0  0  0  0
  141.3967   70.9929  226.7993 H   0  0  0  0  0  0  0  0  0  0  0  0
  140.6047   68.8564  227.8277 H   0  0  0  0  0  0  0  0  0  0  0  0
  139.1505   67.3012  226.5544 H   0  0  0  0  0  0  0  0  0  0  0  0
  138.4476   67.8416  224.2186 H   0  0  0  0  0  0  0  0  0  0  0  0
  138.7440   69.8200  222.2330 H   0  0  0  0  0  0  0  0  0  0  0  0
  139.2428   74.9099  221.9709 H   0  0  0  0  0  0  0  0  0  0  0  0
  140.6438   75.0914  222.9866 H   0  0  0  0  0  0  0  0  0  0  0  0
  140.2145   74.8286  219.0305 H   0  0  0  0  0  0  0  0  0  0  0  0
  139.0411   75.8199  219.8632 H   0  0  0  0  0  0  0  0  0  0  0  0
  141.5849   76.6645  218.3680 H   0  0  0  0  0  0  0  0  0  0  0  0
  139.9941   77.3968  218.2424 H   0  0  0  0  0  0  0  0  0  0  0  0
  140.5477   79.7110  219.4169 H   0  0  0  0  0  0  0  0  0  0  0  0
  139.1710   78.5256  219.7190 H   0  0  0  0  0  0  0  0  0  0  0  0
  138.8398   79.8172  221.4661 H   0  0  0  0  0  0  0  0  0  0  0  0
  140.1448   78.7218  222.1453 H   0  0  0  0  0  0  0  0  0  0  0  0
  140.2179   81.5584  221.3364 H   0  0  0  0  0  0  0  0  0  0  0  0
  141.5358   81.8248  223.3917 H   0  0  0  0  0  0  0  0  0  0  0  0
  140.1583   80.8595  223.8415 H   0  0  0  0  0  0  0  0  0  0  0  0
  142.7047   79.9529  224.2554 H   0  0  0  0  0  0  0  0  0  0  0  0
  141.4462   78.7970  223.7651 H   0  0  0  0  0  0  0  0  0  0  0  0
  143.7020   79.7170  222.3890 H   0  0  0  0  0  0  0  0  0  0  0  0
  142.7580   81.2463  221.1181 H   0  0  0  0  0  0  0  0  0  0  0  0
  142.1190   79.8641  220.2303 H   0  0  0  0  0  0  0  0  0  0  0  0
  142.1428   77.2418  221.6997 H   0  0  0  0  0  0  0  0  0  0  0  0
  140.4013   77.4179  221.9804 H   0  0  0  0  0  0  0  0  0  0  0  0
  143.5669   76.2993  219.6536 H   0  0  0  0  0  0  0  0  0  0  0  0
  145.3989   74.6730  219.3553 H   0  0  0  0  0  0  0  0  0  0  0  0
  145.0529   72.3254  220.1340 H   0  0  0  0  0  0  0  0  0  0  0  0
  142.9145   71.6750  221.1742 H   0  0  0  0  0  0  0  0  0  0  0  0
  1  2  2  0
  2  3  1  0
  3  4  2  0
  4  5  1  0
  5  6  2  0
  6  7  1  0
  7  8  2  0
  8  9  1  0
  9 10  2  0
 10 11  1  0
  2 12  1  0
 12 13  1  0
 14 13  1  1
 14 15  1  0
 15 16  1  0
 16 17  1  0
 17 18  1  0
 18 19  1  0
 19 20  1  0
 20 21  1  0
 21 22  1  0
 22 23  1  0
 23 24  1  0
 17 25  1  0
 14 26  1  0
 26 27  2  0
 27 28  1  0
 28 29  2  0
 29 30  1  0
 30 31  2  0
 11  3  1  0
 31 12  1  0
 10  5  1  0
 25 14  1  0
 31 26  1  0
 24 20  1  0
  4 32  1  0
  6 33  1  0
  7 34  1  0
  8 35  1  0
  9 36  1  0
 11 37  1  0
 13 38  1  0
 13 39  1  0
 15 40  1  0
 15 41  1  0
 16 42  1  0
 16 43  1  0
 18 44  1  0
 18 45  1  0
 19 46  1  0
 19 47  1  0
 20 48  1  6
 21 49  1  0
 21 50  1  0
 22 51  1  0
 22 52  1  0
 23 53  1  0
 24 54  1  0
 24 55  1  0
 25 56  1  0
 25 57  1  0
 27 58  1  0
 28 59  1  0
 29 60  1  0
 30 61  1  0
M  END
>  <smiles>  (71) 
O=C(c1cc2ccccc2[nH]1)N1C[C@]2(CCN(CCC3CCNC3)C2)c2ccccc21

>  <score_type>  (71) 
oracle

>  <origin>  (71) 
autodockgpu

>  <m_score__min__energy>  (71) 
-9.3000000000000007

>  <m_primary>  (71) 
energy

>  <rmsd>  (71) 
3.900641558967653

>  <m_score__min__rmsd>  (71) 
3.900641558967653

>  <meeko>  (71) 
{"free_energy": -8.07, "intermolecular_energy": -9.56, "internal_energy": -1.59, "cluster_size": 4, "cluster_id": 6, "rank_in_cluster": 2}

>  <energy>  (71) 
-8.44

>  <cluster_rmsd>  (71) 
0.55

>  <cluster>  (71) 
2

$$$$

     RDKit          3D

 61 66  0  0  1  0  0  0  0  0999 V2000
  139.5560   75.2700  222.3180 O   0  0  0  0  0  0  0  0  0  0  0  0
  140.5330   75.7740  221.6580 C   0  0  0  0  0  0  0  0  0  0  0  0
  141.5470   74.8390  221.2330 C   0  0  0  0  0  0  0  0  0  0  0  0
  141.4950   73.4420  221.1820 C   0  0  0  0  0  0  0  0  0  0  0  0
  142.7280   73.0230  220.6970 C   0  0  0  0  0  0  0  0  0  0  0  0
  143.1770   71.7440  220.4630 C   0  0  0  0  0  0  0  0  0  0  0  0
  144.4660   71.6140  219.9730 C   0  0  0  0  0  0  0  0  0  0  0  0
  145.2650   72.7350  219.7290 C   0  0  0  0  0  0  0  0  0  0  0  0
  144.7900   74.0170  219.9720 C   0  0  0  0  0  0  0  0  0  0  0  0
  143.5020   74.1480  220.4620 C   0  0  0  0  0  0  0  0  0  0  0  0
  142.7730   75.2470  220.7920 N   0  0  0  0  0  0  0  0  0  0  0  0
  140.5560   77.1660  221.3990 N   0  0  0  0  0  0  0  0  0  0  0  0
  139.8870   77.8140  220.2620 C   0  0  0  0  0  0  0  0  0  0  0  0
  140.8390   78.9290  219.9560 C   0  0  1  0  0  0  0  0  0  0  0  0
  141.9700   78.5130  219.0600 C   0  0  0  0  0  0  0  0  0  0  0  0
  142.4710   79.8360  218.5330 C   0  0  0  0  0  0  0  0  0  0  0  0
  141.2830   80.6160  218.3860 N   0  0  0  0  0  0  0  0  0  0  0  0
  140.9790   80.7720  217.0010 C   0  0  0  0  0  0  0  0  0  0  0  0
  142.1610   80.9110  216.0970 C   0  0  0  0  0  0  0  0  0  0  0  0
  142.3790   82.2920  215.5730 C   0  0  1  0  0  0  0  0  0  0  0  0
  142.1990   83.3830  216.5800 C   0  0  0  0  0  0  0  0  0  0  0  0
  143.4200   83.1810  217.4700 C   0  0  0  0  0  0  0  0  0  0  0  0
  144.4570   82.6510  216.6370 N   0  0  0  0  0  0  0  0  0  0  0  0
  143.8880   82.4080  215.3270 C   0  0  0  0  0  0  0  0  0  0  0  0
  140.2300   80.0680  219.1760 C   0  0  0  0  0  0  0  0  0  0  0  0
  141.3680   79.3200  221.2660 C   0  0  0  0  0  0  0  0  0  0  0  0
  141.9630   80.4460  221.8010 C   0  0  0  0  0  0  0  0  0  0  0  0
  142.3760   80.5360  223.1120 C   0  0  0  0  0  0  0  0  0  0  0  0
  142.1780   79.4380  223.9230 C   0  0  0  0  0  0  0  0  0  0  0  0
  141.5860   78.3010  223.4150 C   0  0  0  0  0  0  0  0  0  0  0  0
  141.1780   78.2260  222.0990 C   0  0  0  0  0  0  0  0  0  0  0  0
  140.6471   72.8026  221.4687 H   0  0  0  0  0  0  0  0  0  0  0  0
  142.5426   70.8663  220.6558 H   0  0  0  0  0  0  0  0  0  0  0  0
  144.8685   70.6102  219.7721 H   0  0  0  0  0  0  0  0  0  0  0  0
  146.2846   72.5995  219.3389 H   0  0  0  0  0  0  0  0  0  0  0  0
  145.4172   74.9003  219.7812 H   0  0  0  0  0  0  0  0  0  0  0  0
  143.1220   76.2450  220.7140 H   0  0  0  0  0  0  0  0  0  0  0  0
  139.7854   77.1262  219.4096 H   0  0  0  0  0  0  0  0  0  0  0  0
  138.8595   78.1450  220.4736 H   0  0  0  0  0  0  0  0  0  0  0  0
  142.7535   77.9879  219.6261 H   0  0  0  0  0  0  0  0  0  0  0  0
  141.6679   77.8112  218.2687 H   0  0  0  0  0  0  0  0  0  0  0  0
  143.1625   80.3060  219.2478 H   0  0  0  0  0  0  0  0  0  0  0  0
  143.0323   79.7343  217.5925 H   0  0  0  0  0  0  0  0  0  0  0  0
  140.4064   79.8901  216.6778 H   0  0  0  0  0  0  0  0  0  0  0  0
  140.4210   81.7163  216.9177 H   0  0  0  0  0  0  0  0  0  0  0  0
  143.0590   80.6098  216.6564 H   0  0  0  0  0  0  0  0  0  0  0  0
  141.9646   80.2717  215.2236 H   0  0  0  0  0  0  0  0  0  0  0  0
  141.6800   82.4087  214.7317 H   0  0  0  0  0  0  0  0  0  0  0  0
  142.2086   84.3746  216.1039 H   0  0  0  0  0  0  0  0  0  0  0  0
  141.2405   83.3424  217.1182 H   0  0  0  0  0  0  0  0  0  0  0  0
  143.7360   84.1416  217.9029 H   0  0  0  0  0  0  0  0  0  0  0  0
  143.1934   82.4969  218.3010 H   0  0  0  0  0  0  0  0  0  0  0  0
  145.1980   83.3740  216.5560 H   0  0  0  0  0  0  0  0  0  0  0  0
  144.1070   83.2450  214.6477 H   0  0  0  0  0  0  0  0  0  0  0  0
  144.3030   81.5057  214.8541 H   0  0  0  0  0  0  0  0  0  0  0  0
  139.8315   80.8300  219.8620 H   0  0  0  0  0  0  0  0  0  0  0  0
  139.3952   79.7231  218.5481 H   0  0  0  0  0  0  0  0  0  0  0  0
  142.1150   81.3164  221.1458 H   0  0  0  0  0  0  0  0  0  0  0  0
  142.8473   81.4516  223.4987 H   0  0  0  0  0  0  0  0  0  0  0  0
  142.4928   79.4694  224.9765 H   0  0  0  0  0  0  0  0  0  0  0  0
  141.4355   77.4334  224.0743 H   0  0  0  0  0  0  0  0  0  0  0  0
  1  2  2  0
  2  3  1  0
  3  4  2  0
  4  5  1  0
  5  6  2  0
  6  7  1  0
  7  8  2  0
  8  9  1  0
  9 10  2  0
 10 11  1  0
  2 12  1  0
 12 13  1  0
 14 13  1  1
 14 15  1  0
 15 16  1  0
 16 17  1  0
 17 18  1  0
 18 19  1  0
 19 20  1  0
 20 21  1  0
 21 22  1  0
 22 23  1  0
 23 24  1  0
 17 25  1  0
 14 26  1  0
 26 27  2  0
 27 28  1  0
 28 29  2  0
 29 30  1  0
 30 31  2  0
 11  3  1  0
 31 12  1  0
 10  5  1  0
 25 14  1  0
 31 26  1  0
 24 20  1  0
  4 32  1  0
  6 33  1  0
  7 34  1  0
  8 35  1  0
  9 36  1  0
 11 37  1  0
 13 38  1  0
 13 39  1  0
 15 40  1  0
 15 41  1  0
 16 42  1  0
 16 43  1  0
 18 44  1  0
 18 45  1  0
 19 46  1  0
 19 47  1  0
 20 48  1  6
 21 49  1  0
 21 50  1  0
 22 51  1  0
 22 52  1  0
 23 53  1  0
 24 54  1  0
 24 55  1  0
 25 56  1  0
 25 57  1  0
 27 58  1  0
 28 59  1  0
 29 60  1  0
 30 61  1  0
M  END
>  <smiles>  (72) 
O=C(c1cc2ccccc2[nH]1)N1C[C@]2(CCN(CCC3CCNC3)C2)c2ccccc21

>  <score_type>  (72) 
oracle

>  <origin>  (72) 
autodockgpu

>  <m_score__min__energy>  (72) 
-9.3000000000000007

>  <m_primary>  (72) 
energy

>  <rmsd>  (72) 
5.891610854781858

>  <m_score__min__rmsd>  (72) 
5.891610854781858

>  <meeko>  (72) 
{"free_energy": -7.84, "intermolecular_energy": -9.33, "internal_energy": -1.49, "cluster_size": 1, "cluster_id": 7, "rank_in_cluster": 1}

>  <energy>  (72) 
-7.86

>  <cluster_rmsd>  (72) 
1.87

>  <cluster>  (72) 
2

$$$$

     RDKit          3D

 61 66  0  0  1  0  0  0  0  0999 V2000
  140.2940   74.2490  222.3200 O   0  0  0  0  0  0  0  0  0  0  0  0
  140.8940   75.1160  221.5890 C   0  0  0  0  0  0  0  0  0  0  0  0
  140.7010   76.4940  221.9700 C   0  0  0  0  0  0  0  0  0  0  0  0
  139.7860   77.4290  221.4740 C   0  0  0  0  0  0  0  0  0  0  0  0
  140.0090   78.6060  222.1780 C   0  0  0  0  0  0  0  0  0  0  0  0
  139.3700   79.8180  222.0640 C   0  0  0  0  0  0  0  0  0  0  0  0
  139.8010   80.8340  222.9000 C   0  0  0  0  0  0  0  0  0  0  0  0
  140.8370   80.6280  223.8160 C   0  0  0  0  0  0  0  0  0  0  0  0
  141.4680   79.3940  223.9150 C   0  0  0  0  0  0  0  0  0  0  0  0
  141.0380   78.3780  223.0780 C   0  0  0  0  0  0  0  0  0  0  0  0
  141.4510   77.0910  222.9430 N   0  0  0  0  0  0  0  0  0  0  0  0
  141.6780   74.6810  220.4930 N   0  0  0  0  0  0  0  0  0  0  0  0
  142.0850   73.2890  220.2570 C   0  0  0  0  0  0  0  0  0  0  0  0
  143.4370   73.4760  219.6430 C   0  0  1  0  0  0  0  0  0  0  0  0
  144.5320   73.6290  220.6590 C   0  0  0  0  0  0  0  0  0  0  0  0
  145.7710   73.3210  219.8520 C   0  0  0  0  0  0  0  0  0  0  0  0
  145.3450   72.2960  218.9530 N   0  0  0  0  0  0  0  0  0  0  0  0
  145.9200   71.0490  219.3400 C   0  0  0  0  0  0  0  0  0  0  0  0
  145.9690   70.0060  218.2700 C   0  0  0  0  0  0  0  0  0  0  0  0
  144.9260   68.9450  218.3930 C   0  0  1  0  0  0  0  0  0  0  0  0
  145.3350   67.5990  217.8860 C   0  0  0  0  0  0  0  0  0  0  0  0
  146.3510   67.1720  218.9400 C   0  0  0  0  0  0  0  0  0  0  0  0
  145.9490   67.7760  220.1730 N   0  0  0  0  0  0  0  0  0  0  0  0
  144.8200   68.6400  219.8920 C   0  0  0  0  0  0  0  0  0  0  0  0
  143.9230   72.2940  218.8420 C   0  0  0  0  0  0  0  0  0  0  0  0
  143.3120   74.7120  218.8660 C   0  0  0  0  0  0  0  0  0  0  0  0
  143.9730   75.2840  217.7970 C   0  0  0  0  0  0  0  0  0  0  0  0
  143.6260   76.5010  217.2540 C   0  0  0  0  0  0  0  0  0  0  0  0
  142.5610   77.1740  217.8150 C   0  0  0  0  0  0  0  0  0  0  0  0
  141.8830   76.6260  218.8830 C   0  0  0  0  0  0  0  0  0  0  0  0
  142.2420   75.4050  219.4160 C   0  0  0  0  0  0  0  0  0  0  0  0
  139.0386   77.2649  220.6838 H   0  0  0  0  0  0  0  0  0  0  0  0
  138.5544   79.9732  221.3423 H   0  0  0  0  0  0  0  0  0  0  0  0
  139.3195   81.8214  222.8425 H   0  0  0  0  0  0  0  0  0  0  0  0
  141.1571   81.4545  224.4675 H   0  0  0  0  0  0  0  0  0  0  0  0
  142.2830   79.2294  224.6352 H   0  0  0  0  0  0  0  0  0  0  0  0
  142.2300   76.6470  223.5070 H   0  0  0  0  0  0  0  0  0  0  0  0
  142.1455   72.7226  221.1980 H   0  0  0  0  0  0  0  0  0  0  0  0
  141.3836   72.7153  219.6334 H   0  0  0  0  0  0  0  0  0  0  0  0
  144.5626   74.6531  221.0594 H   0  0  0  0  0  0  0  0  0  0  0  0
  144.4085   72.9798  221.5384 H   0  0  0  0  0  0  0  0  0  0  0  0
  146.1106   74.2100  219.3003 H   0  0  0  0  0  0  0  0  0  0  0  0
  146.6209   73.0119  220.4781 H   0  0  0  0  0  0  0  0  0  0  0  0
  146.9501   71.2398  219.6754 H   0  0  0  0  0  0  0  0  0  0  0  0
  145.2665   70.6452  220.1273 H   0  0  0  0  0  0  0  0  0  0  0  0
  145.8395   70.5043  217.2980 H   0  0  0  0  0  0  0  0  0  0  0  0
  146.9418   69.5020  218.3681 H   0  0  0  0  0  0  0  0  0  0  0  0
  144.0465   69.3232  217.8514 H   0  0  0  0  0  0  0  0  0  0  0  0
  144.4805   66.9073  217.8483 H   0  0  0  0  0  0  0  0  0  0  0  0
  145.7308   67.6080  216.8597 H   0  0  0  0  0  0  0  0  0  0  0  0
  146.3555   66.0765  219.0392 H   0  0  0  0  0  0  0  0  0  0  0  0
  147.3664   67.4882  218.6592 H   0  0  0  0  0  0  0  0  0  0  0  0
  145.6430   67.0160  220.8120 H   0  0  0  0  0  0  0  0  0  0  0  0
  143.8735   68.1269  220.1174 H   0  0  0  0  0  0  0  0  0  0  0  0
  144.8330   69.5537  220.5043 H   0  0  0  0  0  0  0  0  0  0  0  0
  143.6225   72.3975  217.7889 H   0  0  0  0  0  0  0  0  0  0  0  0
  143.4930   71.3528  219.2151 H   0  0  0  0  0  0  0  0  0  0  0  0
  144.8209   74.7391  217.3562 H   0  0  0  0  0  0  0  0  0  0  0  0
  144.1795   76.9220  216.4017 H   0  0  0  0  0  0  0  0  0  0  0  0
  142.2522   78.1490  217.4099 H   0  0  0  0  0  0  0  0  0  0  0  0
  141.0361   77.1750  219.3204 H   0  0  0  0  0  0  0  0  0  0  0  0
  1  2  2  0
  2  3  1  0
  3  4  2  0
  4  5  1  0
  5  6  2  0
  6  7  1  0
  7  8  2  0
  8  9  1  0
  9 10  2  0
 10 11  1  0
  2 12  1  0
 12 13  1  0
 14 13  1  1
 14 15  1  0
 15 16  1  0
 16 17  1  0
 17 18  1  0
 18 19  1  0
 19 20  1  0
 20 21  1  0
 21 22  1  0
 22 23  1  0
 23 24  1  0
 17 25  1  0
 14 26  1  0
 26 27  2  0
 27 28  1  0
 28 29  2  0
 29 30  1  0
 30 31  2  0
 11  3  1  0
 31 12  1  0
 10  5  1  0
 25 14  1  0
 31 26  1  0
 24 20  1  0
  4 32  1  0
  6 33  1  0
  7 34  1  0
  8 35  1  0
  9 36  1  0
 11 37  1  0
 13 38  1  0
 13 39  1  0
 15 40  1  0
 15 41  1  0
 16 42  1  0
 16 43  1  0
 18 44  1  0
 18 45  1  0
 19 46  1  0
 19 47  1  0
 20 48  1  6
 21 49  1  0
 21 50  1  0
 22 51  1  0
 22 52  1  0
 23 53  1  0
 24 54  1  0
 24 55  1  0
 25 56  1  0
 25 57  1  0
 27 58  1  0
 28 59  1  0
 29 60  1  0
 30 61  1  0
M  END
>  <smiles>  (73) 
O=C(c1cc2ccccc2[nH]1)N1C[C@]2(CCN(CCC3CCNC3)C2)c2ccccc21

>  <score_type>  (73) 
oracle

>  <origin>  (73) 
autodockgpu

>  <m_score__min__energy>  (73) 
-9.3000000000000007

>  <m_primary>  (73) 
energy

>  <rmsd>  (73) 
7.085246312791429

>  <m_score__min__rmsd>  (73) 
7.085246312791429

>  <meeko>  (73) 
{"free_energy": -8.92, "intermolecular_energy": -10.41, "internal_energy": -1.33, "cluster_size": 16, "cluster_id": 1, "rank_in_cluster": 4}

>  <energy>  (73) 
-7.81

>  <cluster_rmsd>  (73) 
1.76

>  <cluster>  (73) 
2

$$$$

     RDKit          3D

 61 66  0  0  1  0  0  0  0  0999 V2000
  139.6450   73.8940  222.3330 O   0  0  0  0  0  0  0  0  0  0  0  0
  140.2840   74.7660  221.6430 C   0  0  0  0  0  0  0  0  0  0  0  0
  140.1080   76.1380  222.0550 C   0  0  0  0  0  0  0  0  0  0  0  0
  138.9240   76.8670  222.2180 C   0  0  0  0  0  0  0  0  0  0  0  0
  139.3030   78.1380  222.6310 C   0  0  0  0  0  0  0  0  0  0  0  0
  138.5130   79.2240  222.9260 C   0  0  0  0  0  0  0  0  0  0  0  0
  139.1620   80.3830  223.3170 C   0  0  0  0  0  0  0  0  0  0  0  0
  140.5560   80.4370  223.4070 C   0  0  0  0  0  0  0  0  0  0  0  0
  141.3340   79.3270  223.1060 C   0  0  0  0  0  0  0  0  0  0  0  0
  140.6860   78.1690  222.7140 C   0  0  0  0  0  0  0  0  0  0  0  0
  141.1650   76.9460  222.3610 N   0  0  0  0  0  0  0  0  0  0  0  0
  141.0910   74.3430  220.5600 N   0  0  0  0  0  0  0  0  0  0  0  0
  141.2670   72.9440  220.1460 C   0  0  0  0  0  0  0  0  0  0  0  0
  142.6900   72.9520  219.6790 C   0  0  1  0  0  0  0  0  0  0  0  0
  143.6790   72.7530  220.7900 C   0  0  0  0  0  0  0  0  0  0  0  0
  144.9230   72.3270  220.0470 C   0  0  0  0  0  0  0  0  0  0  0  0
  144.4210   71.5340  218.9700 N   0  0  0  0  0  0  0  0  0  0  0  0
  144.7210   70.1590  219.2050 C   0  0  0  0  0  0  0  0  0  0  0  0
  145.7470   69.5620  218.2960 C   0  0  0  0  0  0  0  0  0  0  0  0
  146.2630   68.2320  218.7350 C   0  0  1  0  0  0  0  0  0  0  0  0
  145.3050   67.4230  219.5500 C   0  0  0  0  0  0  0  0  0  0  0  0
  144.2670   67.0340  218.5030 C   0  0  0  0  0  0  0  0  0  0  0  0
  144.9550   66.9410  217.2510 N   0  0  0  0  0  0  0  0  0  0  0  0
  146.3210   67.3720  217.4670 C   0  0  0  0  0  0  0  0  0  0  0  0
  143.0420   71.8190  218.7460 C   0  0  0  0  0  0  0  0  0  0  0  0
  142.8690   74.2830  219.0930 C   0  0  0  0  0  0  0  0  0  0  0  0
  143.7320   74.8590  218.1820 C   0  0  0  0  0  0  0  0  0  0  0  0
  143.6670   76.1820  217.8060 C   0  0  0  0  0  0  0  0  0  0  0  0
  142.6840   76.9630  218.3770 C   0  0  0  0  0  0  0  0  0  0  0  0
  141.8090   76.4140  219.2900 C   0  0  0  0  0  0  0  0  0  0  0  0
  141.8870   75.0860  219.6560 C   0  0  0  0  0  0  0  0  0  0  0  0
  137.8984   76.5055  222.0522 H   0  0  0  0  0  0  0  0  0  0  0  0
  137.4164   79.1744  222.8547 H   0  0  0  0  0  0  0  0  0  0  0  0
  138.5700   81.2774  223.5612 H   0  0  0  0  0  0  0  0  0  0  0  0
  141.0434   81.3719  223.7207 H   0  0  0  0  0  0  0  0  0  0  0  0
  142.4310   79.3670  223.1770 H   0  0  0  0  0  0  0  0  0  0  0  0
  142.1920   76.6880  222.3320 H   0  0  0  0  0  0  0  0  0  0  0  0
  141.1243   72.2534  220.9902 H   0  0  0  0  0  0  0  0  0  0  0  0
  140.5462   72.6050  219.3874 H   0  0  0  0  0  0  0  0  0  0  0  0
  143.8476   73.6879  221.3445 H   0  0  0  0  0  0  0  0  0  0  0  0
  143.3489   72.0256  221.5462 H   0  0  0  0  0  0  0  0  0  0  0  0
  145.4716   73.2016  219.6673 H   0  0  0  0  0  0  0  0  0  0  0  0
  145.6328   71.7792  220.6842 H   0  0  0  0  0  0  0  0  0  0  0  0
  145.0860   70.0631  220.2382 H   0  0  0  0  0  0  0  0  0  0  0  0
  143.7885   69.6082  219.0127 H   0  0  0  0  0  0  0  0  0  0  0  0
  145.2963   69.4440  217.2995 H   0  0  0  0  0  0  0  0  0  0  0  0
  146.6066   70.2484  218.3004 H   0  0  0  0  0  0  0  0  0  0  0  0
  147.1866   68.4373  219.2961 H   0  0  0  0  0  0  0  0  0  0  0  0
  145.7931   66.5362  219.9806 H   0  0  0  0  0  0  0  0  0  0  0  0
  144.8891   67.9592  220.4158 H   0  0  0  0  0  0  0  0  0  0  0  0
  143.8156   66.0643  218.7597 H   0  0  0  0  0  0  0  0  0  0  0  0
  143.4585   67.7783  218.4541 H   0  0  0  0  0  0  0  0  0  0  0  0
  144.9550   65.9430  216.9650 H   0  0  0  0  0  0  0  0  0  0  0  0
  146.9820   66.5055  217.6161 H   0  0  0  0  0  0  0  0  0  0  0  0
  146.7229   67.9268  216.6064 H   0  0  0  0  0  0  0  0  0  0  0  0
  142.8798   72.1211  217.7008 H   0  0  0  0  0  0  0  0  0  0  0  0
  142.4142   70.9354  218.9332 H   0  0  0  0  0  0  0  0  0  0  0  0
  144.5127   74.2276  217.7329 H   0  0  0  0  0  0  0  0  0  0  0  0
  144.3745   76.6015  217.0756 H   0  0  0  0  0  0  0  0  0  0  0  0
  142.5981   78.0250  218.1036 H   0  0  0  0  0  0  0  0  0  0  0  0
  141.0305   77.0496  219.7371 H   0  0  0  0  0  0  0  0  0  0  0  0
  1  2  2  0
  2  3  1  0
  3  4  2  0
  4  5  1  0
  5  6  2  0
  6  7  1  0
  7  8  2  0
  8  9  1  0
  9 10  2  0
 10 11  1  0
  2 12  1  0
 12 13  1  0
 14 13  1  1
 14 15  1  0
 15 16  1  0
 16 17  1  0
 17 18  1  0
 18 19  1  0
 19 20  1  0
 20 21  1  0
 21 22  1  0
 22 23  1  0
 23 24  1  0
 17 25  1  0
 14 26  1  0
 26 27  2  0
 27 28  1  0
 28 29  2  0
 29 30  1  0
 30 31  2  0
 11  3  1  0
 31 12  1  0
 10  5  1  0
 25 14  1  0
 31 26  1  0
 24 20  1  0
  4 32  1  0
  6 33  1  0
  7 34  1  0
  8 35  1  0
  9 36  1  0
 11 37  1  0
 13 38  1  0
 13 39  1  0
 15 40  1  0
 15 41  1  0
 16 42  1  0
 16 43  1  0
 18 44  1  0
 18 45  1  0
 19 46  1  0
 19 47  1  0
 20 48  1  1
 21 49  1  0
 21 50  1  0
 22 51  1  0
 22 52  1  0
 23 53  1  0
 24 54  1  0
 24 55  1  0
 25 56  1  0
 25 57  1  0
 27 58  1  0
 28 59  1  0
 29 60  1  0
 30 61  1  0
M  END
>  <smiles>  (74) 
O=C(c1cc2ccccc2[nH]1)N1C[C@]2(CCN(CCC3CCNC3)C2)c2ccccc21

>  <score_type>  (74) 
oracle

>  <origin>  (74) 
autodockgpu

>  <m_score__min__energy>  (74) 
-9.3000000000000007

>  <m_primary>  (74) 
energy

>  <rmsd>  (74) 
6.765129321161091

>  <m_score__min__rmsd>  (74) 
6.765129321161091

>  <meeko>  (74) 
{"free_energy": -8.43, "intermolecular_energy": -9.92, "internal_energy": -1.22, "cluster_size": 16, "cluster_id": 1, "rank_in_cluster": 15}

>  <energy>  (74) 
-8.58

>  <cluster_rmsd>  (74) 
0.0

>  <cluster>  (74) 
3

$$$$

     RDKit          3D

 61 66  0  0  1  0  0  0  0  0999 V2000
  139.9280   74.2470  222.2820 O   0  0  0  0  0  0  0  0  0  0  0  0
  140.5810   75.1220  221.6100 C   0  0  0  0  0  0  0  0  0  0  0  0
  140.4300   76.4880  222.0500 C   0  0  0  0  0  0  0  0  0  0  0  0
  139.3180   77.1140  222.6240 C   0  0  0  0  0  0  0  0  0  0  0  0
  139.6910   78.4290  222.8660 C   0  0  0  0  0  0  0  0  0  0  0  0
  138.9560   79.4510  223.4200 C   0  0  0  0  0  0  0  0  0  0  0  0
  139.5840   80.6780  223.5440 C   0  0  0  0  0  0  0  0  0  0  0  0
  140.9050   80.8620  223.1260 C   0  0  0  0  0  0  0  0  0  0  0  0
  141.6300   79.8150  222.5700 C   0  0  0  0  0  0  0  0  0  0  0  0
  141.0020   78.5880  222.4450 C   0  0  0  0  0  0  0  0  0  0  0  0
  141.4410   77.4000  221.9500 N   0  0  0  0  0  0  0  0  0  0  0  0
  141.3810   74.7070  220.5170 N   0  0  0  0  0  0  0  0  0  0  0  0
  141.7360   73.3120  220.2250 C   0  0  0  0  0  0  0  0  0  0  0  0
  143.1140   73.4690  219.6610 C   0  0  1  0  0  0  0  0  0  0  0  0
  144.1820   73.5250  220.7150 C   0  0  0  0  0  0  0  0  0  0  0  0
  145.4310   73.2020  219.9310 C   0  0  0  0  0  0  0  0  0  0  0  0
  144.9910   72.2410  218.9690 N   0  0  0  0  0  0  0  0  0  0  0  0
  145.5000   70.9530  219.3100 C   0  0  0  0  0  0  0  0  0  0  0  0
  145.4570   69.9360  218.2160 C   0  0  0  0  0  0  0  0  0  0  0  0
  144.6060   68.7460  218.5110 C   0  0  1  0  0  0  0  0  0  0  0  0
  145.1170   67.4540  217.9570 C   0  0  0  0  0  0  0  0  0  0  0  0
  146.3340   67.2040  218.8400 C   0  0  0  0  0  0  0  0  0  0  0  0
  146.0480   67.7840  220.1170 N   0  0  0  0  0  0  0  0  0  0  0  0
  144.7780   68.4750  220.0110 C   0  0  0  0  0  0  0  0  0  0  0  0
  143.5750   72.3080  218.8160 C   0  0  0  0  0  0  0  0  0  0  0  0
  143.0650   74.7450  218.9430 C   0  0  0  0  0  0  0  0  0  0  0  0
  143.7840   75.3400  217.9240 C   0  0  0  0  0  0  0  0  0  0  0  0
  143.5060   76.5960  217.4320 C   0  0  0  0  0  0  0  0  0  0  0  0
  142.4530   77.2860  217.9940 C   0  0  0  0  0  0  0  0  0  0  0  0
  141.7190   76.7170  219.0130 C   0  0  0  0  0  0  0  0  0  0  0  0
  142.0090   75.4570  219.4950 C   0  0  0  0  0  0  0  0  0  0  0  0
  138.3420   76.6552  222.8405 H   0  0  0  0  0  0  0  0  0  0  0  0
  137.9173   79.3001  223.7492 H   0  0  0  0  0  0  0  0  0  0  0  0
  139.0331   81.5245  223.9798 H   0  0  0  0  0  0  0  0  0  0  0  0
  141.3772   81.8491  223.2387 H   0  0  0  0  0  0  0  0  0  0  0  0
  142.6697   79.9568  222.2398 H   0  0  0  0  0  0  0  0  0  0  0  0
  142.4100   77.2350  221.5540 H   0  0  0  0  0  0  0  0  0  0  0  0
  141.7426   72.6990  221.1384 H   0  0  0  0  0  0  0  0  0  0  0  0
  141.0311   72.8000  219.5534 H   0  0  0  0  0  0  0  0  0  0  0  0
  144.2435   74.5264  221.1660 H   0  0  0  0  0  0  0  0  0  0  0  0
  144.0034   72.8406  221.5574 H   0  0  0  0  0  0  0  0  0  0  0  0
  145.8255   74.1009  219.4347 H   0  0  0  0  0  0  0  0  0  0  0  0
  146.2463   72.8254  220.5661 H   0  0  0  0  0  0  0  0  0  0  0  0
  146.5485   71.0737  219.6199 H   0  0  0  0  0  0  0  0  0  0  0  0
  144.8448   70.5694  220.1060 H   0  0  0  0  0  0  0  0  0  0  0  0
  145.0659   70.4221  217.3101 H   0  0  0  0  0  0  0  0  0  0  0  0
  146.4848   69.5634  218.0943 H   0  0  0  0  0  0  0  0  0  0  0  0
  143.6087   68.9828  218.1119 H   0  0  0  0  0  0  0  0  0  0  0  0
  144.3733   66.6502  218.0610 H   0  0  0  0  0  0  0  0  0  0  0  0
  145.3430   67.4859  216.8809 H   0  0  0  0  0  0  0  0  0  0  0  0
  146.5086   66.1231  218.9461 H   0  0  0  0  0  0  0  0  0  0  0  0
  147.2381   67.6492  218.3992 H   0  0  0  0  0  0  0  0  0  0  0  0
  145.9560   67.0100  220.8020 H   0  0  0  0  0  0  0  0  0  0  0  0
  143.9600   67.8431  220.3873 H   0  0  0  0  0  0  0  0  0  0  0  0
  144.7565   69.3999  220.6061 H   0  0  0  0  0  0  0  0  0  0  0  0
  143.3132   72.4768  217.7610 H   0  0  0  0  0  0  0  0  0  0  0  0
  143.0936   71.3695  219.1282 H   0  0  0  0  0  0  0  0  0  0  0  0
  144.6224   74.7812  217.4826 H   0  0  0  0  0  0  0  0  0  0  0  0
  144.1035   77.0335  216.6187 H   0  0  0  0  0  0  0  0  0  0  0  0
  142.1981   78.2919  217.6289 H   0  0  0  0  0  0  0  0  0  0  0  0
  140.8826   77.2807  219.4520 H   0  0  0  0  0  0  0  0  0  0  0  0
  1  2  2  0
  2  3  1  0
  3  4  2  0
  4  5  1  0
  5  6  2  0
  6  7  1  0
  7  8  2  0
  8  9  1  0
  9 10  2  0
 10 11  1  0
  2 12  1  0
 12 13  1  0
 14 13  1  1
 14 15  1  0
 15 16  1  0
 16 17  1  0
 17 18  1  0
 18 19  1  0
 19 20  1  0
 20 21  1  0
 21 22  1  0
 22 23  1  0
 23 24  1  0
 17 25  1  0
 14 26  1  0
 26 27  2  0
 27 28  1  0
 28 29  2  0
 29 30  1  0
 30 31  2  0
 11  3  1  0
 31 12  1  0
 10  5  1  0
 25 14  1  0
 31 26  1  0
 24 20  1  0
  4 32  1  0
  6 33  1  0
  7 34  1  0
  8 35  1  0
  9 36  1  0
 11 37  1  0
 13 38  1  0
 13 39  1  0
 15 40  1  0
 15 41  1  0
 16 42  1  0
 16 43  1  0
 18 44  1  0
 18 45  1  0
 19 46  1  0
 19 47  1  0
 20 48  1  1
 21 49  1  0
 21 50  1  0
 22 51  1  0
 22 52  1  0
 23 53  1  0
 24 54  1  0
 24 55  1  0
 25 56  1  0
 25 57  1  0
 27 58  1  0
 28 59  1  0
 29 60  1  0
 30 61  1  0
M  END
>  <smiles>  (75) 
O=C(c1cc2ccccc2[nH]1)N1C[C@]2(CCN(CCC3CCNC3)C2)c2ccccc21

>  <score_type>  (75) 
oracle

>  <origin>  (75) 
autodockgpu

>  <m_score__min__energy>  (75) 
-9.3000000000000007

>  <m_primary>  (75) 
energy

>  <rmsd>  (75) 
6.941781156778151

>  <m_score__min__rmsd>  (75) 
6.941781156778151

>  <meeko>  (75) 
{"free_energy": -9.3, "intermolecular_energy": -10.79, "internal_energy": -1.33, "cluster_size": 16, "cluster_id": 1, "rank_in_cluster": 1}

>  <energy>  (75) 
-8.55

>  <cluster_rmsd>  (75) 
0.88

>  <cluster>  (75) 
3

$$$$

     RDKit          3D

 61 66  0  0  1  0  0  0  0  0999 V2000
  138.6430   70.3950  221.9480 O   0  0  0  0  0  0  0  0  0  0  0  0
  139.6290   71.1070  222.3560 C   0  0  0  0  0  0  0  0  0  0  0  0
  139.9210   71.0180  223.7660 C   0  0  0  0  0  0  0  0  0  0  0  0
  140.6580   71.8910  224.5740 C   0  0  0  0  0  0  0  0  0  0  0  0
  140.6370   71.3520  225.8540 C   0  0  0  0  0  0  0  0  0  0  0  0
  141.2140   71.8320  227.0060 C   0  0  0  0  0  0  0  0  0  0  0  0
  141.0330   71.0820  228.1560 C   0  0  0  0  0  0  0  0  0  0  0  0
  140.2950   69.8950  228.1380 C   0  0  0  0  0  0  0  0  0  0  0  0
  139.7200   69.4300  226.9630 C   0  0  0  0  0  0  0  0  0  0  0  0
  139.9010   70.1780  225.8120 C   0  0  0  0  0  0  0  0  0  0  0  0
  139.4710   69.9850  224.5380 N   0  0  0  0  0  0  0  0  0  0  0  0
  140.3420   71.9070  221.4310 N   0  0  0  0  0  0  0  0  0  0  0  0
  141.0610   71.3890  220.2590 C   0  0  0  0  0  0  0  0  0  0  0  0
  142.2220   72.3310  220.1830 C   0  0  1  0  0  0  0  0  0  0  0  0
  143.3670   71.9320  221.0680 C   0  0  0  0  0  0  0  0  0  0  0  0
  144.5220   72.7050  220.4760 C   0  0  0  0  0  0  0  0  0  0  0  0
  144.2580   72.6870  219.0710 N   0  0  0  0  0  0  0  0  0  0  0  0
  145.1850   71.8190  218.4210 C   0  0  0  0  0  0  0  0  0  0  0  0
  145.4530   70.5260  219.1200 C   0  0  0  0  0  0  0  0  0  0  0  0
  144.6680   69.3680  218.6000 C   0  0  1  0  0  0  0  0  0  0  0  0
  145.4640   68.3620  217.8320 C   0  0  0  0  0  0  0  0  0  0  0  0
  146.2900   67.7170  218.9390 C   0  0  0  0  0  0  0  0  0  0  0  0
  145.5020   67.7750  220.1330 N   0  0  0  0  0  0  0  0  0  0  0  0
  144.3020   68.5290  219.8310 C   0  0  0  0  0  0  0  0  0  0  0  0
  142.8840   72.3920  218.8290 C   0  0  0  0  0  0  0  0  0  0  0  0
  141.6750   73.6130  220.6350 C   0  0  0  0  0  0  0  0  0  0  0  0
  142.0130   74.9440  220.4900 C   0  0  0  0  0  0  0  0  0  0  0  0
  141.2900   75.9760  221.0470 C   0  0  0  0  0  0  0  0  0  0  0  0
  140.1740   75.6500  221.7880 C   0  0  0  0  0  0  0  0  0  0  0  0
  139.8130   74.3290  221.9500 C   0  0  0  0  0  0  0  0  0  0  0  0
  140.5470   73.3070  221.3850 C   0  0  0  0  0  0  0  0  0  0  0  0
  141.1554   72.8199  224.2581 H   0  0  0  0  0  0  0  0  0  0  0  0
  141.7922   72.7677  227.0138 H   0  0  0  0  0  0  0  0  0  0  0  0
  141.4782   71.4267  229.1010 H   0  0  0  0  0  0  0  0  0  0  0  0
  140.1680   69.3213  229.0679 H   0  0  0  0  0  0  0  0  0  0  0  0
  139.1387   68.4963  226.9469 H   0  0  0  0  0  0  0  0  0  0  0  0
  138.8880   69.1600  224.2190 H   0  0  0  0  0  0  0  0  0  0  0  0
  141.3938   70.3525  220.4171 H   0  0  0  0  0  0  0  0  0  0  0  0
  140.4548   71.3483  219.3420 H   0  0  0  0  0  0  0  0  0  0  0  0
  143.1844   72.2272  222.1118 H   0  0  0  0  0  0  0  0  0  0  0  0
  143.5375   70.8458  221.1018 H   0  0  0  0  0  0  0  0  0  0  0  0
  144.5407   73.7363  220.8583 H   0  0  0  0  0  0  0  0  0  0  0  0
  145.5002   72.2714  220.7313 H   0  0  0  0  0  0  0  0  0  0  0  0
  144.7894   71.5881  217.4209 H   0  0  0  0  0  0  0  0  0  0  0  0
  146.1436   72.3582  218.4045 H   0  0  0  0  0  0  0  0  0  0  0  0
  146.5225   70.2923  219.0124 H   0  0  0  0  0  0  0  0  0  0  0  0
  145.1472   70.6668  220.1672 H   0  0  0  0  0  0  0  0  0  0  0  0
  143.8694   69.8004  217.9793 H   0  0  0  0  0  0  0  0  0  0  0  0
  144.8121   67.6271  217.3371 H   0  0  0  0  0  0  0  0  0  0  0  0
  146.0650   68.7932  217.0178 H   0  0  0  0  0  0  0  0  0  0  0  0
  146.5134   66.6706  218.6836 H   0  0  0  0  0  0  0  0  0  0  0  0
  147.2473   68.2420  219.0730 H   0  0  0  0  0  0  0  0  0  0  0  0
  145.2370   66.8030  220.3840 H   0  0  0  0  0  0  0  0  0  0  0  0
  143.4654   67.8519  219.6040 H   0  0  0  0  0  0  0  0  0  0  0  0
  143.9781   69.1521  220.6777 H   0  0  0  0  0  0  0  0  0  0  0  0
  142.4265   73.1825  218.2161 H   0  0  0  0  0  0  0  0  0  0  0  0
  142.7676   71.4443  218.2828 H   0  0  0  0  0  0  0  0  0  0  0  0
  142.9064   75.1934  219.8987 H   0  0  0  0  0  0  0  0  0  0  0  0
  141.5927   77.0240  220.9054 H   0  0  0  0  0  0  0  0  0  0  0  0
  139.5706   76.4449  222.2507 H   0  0  0  0  0  0  0  0  0  0  0  0
  138.9195   74.0848  222.5432 H   0  0  0  0  0  0  0  0  0  0  0  0
  1  2  2  0
  2  3  1  0
  3  4  2  0
  4  5  1  0
  5  6  2  0
  6  7  1  0
  7  8  2  0
  8  9  1  0
  9 10  2  0
 10 11  1  0
  2 12  1  0
 12 13  1  0
 14 13  1  6
 14 15  1  0
 15 16  1  0
 16 17  1  0
 17 18  1  0
 18 19  1  0
 19 20  1  0
 20 21  1  0
 21 22  1  0
 22 23  1  0
 23 24  1  0
 17 25  1  0
 14 26  1  0
 26 27  2  0
 27 28  1  0
 28 29  2  0
 29 30  1  0
 30 31  2  0
 11  3  1  0
 31 12  1  0
 10  5  1  0
 25 14  1  0
 31 26  1  0
 24 20  1  0
  4 32  1  0
  6 33  1  0
  7 34  1  0
  8 35  1  0
  9 36  1  0
 11 37  1  0
 13 38  1  0
 13 39  1  0
 15 40  1  0
 15 41  1  0
 16 42  1  0
 16 43  1  0
 18 44  1  0
 18 45  1  0
 19 46  1  0
 19 47  1  0
 20 48  1  6
 21 49  1  0
 21 50  1  0
 22 51  1  0
 22 52  1  0
 23 53  1  0
 24 54  1  0
 24 55  1  0
 25 56  1  0
 25 57  1  0
 27 58  1  0
 28 59  1  0
 29 60  1  0
 30 61  1  0
M  END
>  <smiles>  (76) 
O=C(c1cc2ccccc2[nH]1)N1C[C@]2(CCN(CCC3CCNC3)C2)c2ccccc21

>  <score_type>  (76) 
oracle

>  <origin>  (76) 
autodockgpu

>  <m_score__min__energy>  (76) 
-9.3000000000000007

>  <m_primary>  (76) 
energy

>  <rmsd>  (76) 
4.3985949374226445

>  <m_score__min__rmsd>  (76) 
4.3985949374226445

>  <meeko>  (76) 
{"free_energy": -8.34, "intermolecular_energy": -9.84, "internal_energy": -1.71, "cluster_size": 16, "cluster_id": 3, "rank_in_cluster": 9}

>  <energy>  (76) 
-8.52

>  <cluster_rmsd>  (76) 
0.16

>  <cluster>  (76) 
3

$$$$

     RDKit          3D

 61 66  0  0  1  0  0  0  0  0999 V2000
  140.2500   74.5140  222.1640 O   0  0  0  0  0  0  0  0  0  0  0  0
  140.8290   75.4160  221.4590 C   0  0  0  0  0  0  0  0  0  0  0  0
  140.7310   76.7630  221.9690 C   0  0  0  0  0  0  0  0  0  0  0  0
  139.6860   77.3670  222.6760 C   0  0  0  0  0  0  0  0  0  0  0  0
  140.0910   78.6710  222.9340 C   0  0  0  0  0  0  0  0  0  0  0  0
  139.4210   79.6700  223.6000 C   0  0  0  0  0  0  0  0  0  0  0  0
  140.0680   80.8890  223.7120 C   0  0  0  0  0  0  0  0  0  0  0  0
  141.3420   81.0860  223.1720 C   0  0  0  0  0  0  0  0  0  0  0  0
  142.0000   80.0620  222.5050 C   0  0  0  0  0  0  0  0  0  0  0  0
  141.3550   78.8430  222.3910 C   0  0  0  0  0  0  0  0  0  0  0  0
  141.7340   77.6760  221.8060 N   0  0  0  0  0  0  0  0  0  0  0  0
  141.5010   75.0470  220.2690 N   0  0  0  0  0  0  0  0  0  0  0  0
  141.7490   73.6620  219.8460 C   0  0  0  0  0  0  0  0  0  0  0  0
  143.0770   73.7940  219.1670 C   0  0  1  0  0  0  0  0  0  0  0  0
  144.2370   73.7160  220.1160 C   0  0  0  0  0  0  0  0  0  0  0  0
  145.3900   73.3930  219.1960 C   0  0  0  0  0  0  0  0  0  0  0  0
  144.8110   72.5310  218.2150 N   0  0  0  0  0  0  0  0  0  0  0  0
  145.2760   71.1970  218.4130 C   0  0  0  0  0  0  0  0  0  0  0  0
  144.5050   70.3900  219.4070 C   0  0  0  0  0  0  0  0  0  0  0  0
  144.1490   69.0160  218.9450 C   0  0  1  0  0  0  0  0  0  0  0  0
  145.0820   68.4300  217.9350 C   0  0  0  0  0  0  0  0  0  0  0  0
  146.3240   68.1710  218.7800 C   0  0  0  0  0  0  0  0  0  0  0  0
  145.8710   67.8930  220.1100 N   0  0  0  0  0  0  0  0  0  0  0  0
  144.4350   68.0920  220.1350 C   0  0  0  0  0  0  0  0  0  0  0  0
  143.3930   72.6790  218.2010 C   0  0  0  0  0  0  0  0  0  0  0  0
  143.0350   75.1220  218.5490 C   0  0  0  0  0  0  0  0  0  0  0  0
  143.6910   75.7560  217.5130 C   0  0  0  0  0  0  0  0  0  0  0  0
  143.4410   77.0580  217.1400 C   0  0  0  0  0  0  0  0  0  0  0  0
  142.4840   77.7550  217.8470 C   0  0  0  0  0  0  0  0  0  0  0  0
  141.8140   77.1470  218.8880 C   0  0  0  0  0  0  0  0  0  0  0  0
  142.0750   75.8410  219.2490 C   0  0  0  0  0  0  0  0  0  0  0  0
  138.7332   76.9022  222.9694 H   0  0  0  0  0  0  0  0  0  0  0  0
  138.4188   79.5085  224.0236 H   0  0  0  0  0  0  0  0  0  0  0  0
  139.5699   81.7181  224.2359 H   0  0  0  0  0  0  0  0  0  0  0  0
  141.8300   82.0662  223.2771 H   0  0  0  0  0  0  0  0  0  0  0  0
  143.0031   80.2147  222.0802 H   0  0  0  0  0  0  0  0  0  0  0  0
  142.6580   77.5240  221.3100 H   0  0  0  0  0  0  0  0  0  0  0  0
  141.8039   72.9816  220.7085 H   0  0  0  0  0  0  0  0  0  0  0  0
  140.9586   73.2378  219.2094 H   0  0  0  0  0  0  0  0  0  0  0  0
  144.3953   74.6755  220.6301 H   0  0  0  0  0  0  0  0  0  0  0  0
  144.0973   72.9784  220.9200 H   0  0  0  0  0  0  0  0  0  0  0  0
  145.7872   74.3066  218.7296 H   0  0  0  0  0  0  0  0  0  0  0  0
  146.2378   72.9301  219.7223 H   0  0  0  0  0  0  0  0  0  0  0  0
  145.2324   70.6754  217.4455 H   0  0  0  0  0  0  0  0  0  0  0  0
  146.2935   71.2882  218.8208 H   0  0  0  0  0  0  0  0  0  0  0  0
  145.1113   70.2992  220.3203 H   0  0  0  0  0  0  0  0  0  0  0  0
  143.5557   70.9206  219.5723 H   0  0  0  0  0  0  0  0  0  0  0  0
  143.1266   69.0882  218.5457 H   0  0  0  0  0  0  0  0  0  0  0  0
  144.6818   67.4964  217.5128 H   0  0  0  0  0  0  0  0  0  0  0  0
  145.2606   69.0759  217.0627 H   0  0  0  0  0  0  0  0  0  0  0  0
  146.8797   67.3093  218.3817 H   0  0  0  0  0  0  0  0  0  0  0  0
  146.9978   69.0404  218.7669 H   0  0  0  0  0  0  0  0  0  0  0  0
  146.0780   66.8960  220.3110 H   0  0  0  0  0  0  0  0  0  0  0  0
  143.9085   67.1334  220.0171 H   0  0  0  0  0  0  0  0  0  0  0  0
  144.0910   68.5216  221.0874 H   0  0  0  0  0  0  0  0  0  0  0  0
  143.0468   72.9406  217.1902 H   0  0  0  0  0  0  0  0  0  0  0  0
  142.8894   71.7443  218.4888 H   0  0  0  0  0  0  0  0  0  0  0  0
  144.4535   75.1916  216.9561 H   0  0  0  0  0  0  0  0  0  0  0  0
  143.9860   77.5258  216.3068 H   0  0  0  0  0  0  0  0  0  0  0  0
  142.2546   78.7973  217.5804 H   0  0  0  0  0  0  0  0  0  0  0  0
  141.0540   77.7163  219.4433 H   0  0  0  0  0  0  0  0  0  0  0  0
  1  2  2  0
  2  3  1  0
  3  4  2  0
  4  5  1  0
  5  6  2  0
  6  7  1  0
  7  8  2  0
  8  9  1  0
  9 10  2  0
 10 11  1  0
  2 12  1  0
 12 13  1  0
 14 13  1  1
 14 15  1  0
 15 16  1  0
 16 17  1  0
 17 18  1  0
 18 19  1  0
 19 20  1  0
 20 21  1  0
 21 22  1  0
 22 23  1  0
 23 24  1  0
 17 25  1  0
 14 26  1  0
 26 27  2  0
 27 28  1  0
 28 29  2  0
 29 30  1  0
 30 31  2  0
 11  3  1  0
 31 12  1  0
 10  5  1  0
 25 14  1  0
 31 26  1  0
 24 20  1  0
  4 32  1  0
  6 33  1  0
  7 34  1  0
  8 35  1  0
  9 36  1  0
 11 37  1  0
 13 38  1  0
 13 39  1  0
 15 40  1  0
 15 41  1  0
 16 42  1  0
 16 43  1  0
 18 44  1  0
 18 45  1  0
 19 46  1  0
 19 47  1  0
 20 48  1  6
 21 49  1  0
 21 50  1  0
 22 51  1  0
 22 52  1  0
 23 53  1  0
 24 54  1  0
 24 55  1  0
 25 56  1  0
 25 57  1  0
 27 58  1  0
 28 59  1  0
 29 60  1  0
 30 61  1  0
M  END
>  <smiles>  (77) 
O=C(c1cc2ccccc2[nH]1)N1C[C@]2(CCN(CCC3CCNC3)C2)c2ccccc21

>  <score_type>  (77) 
oracle

>  <origin>  (77) 
autodockgpu

>  <m_score__min__energy>  (77) 
-9.3000000000000007

>  <m_primary>  (77) 
energy

>  <rmsd>  (77) 
7.0981669763939275

>  <m_score__min__rmsd>  (77) 
7.0981669763939275

>  <meeko>  (77) 
{"free_energy": -8.65, "intermolecular_energy": -10.14, "internal_energy": -1.31, "cluster_size": 16, "cluster_id": 1, "rank_in_cluster": 10}

>  <energy>  (77) 
-8.43

>  <cluster_rmsd>  (77) 
0.9

>  <cluster>  (77) 
3

$$$$

     RDKit          3D

 61 66  0  0  1  0  0  0  0  0999 V2000
  138.7030   70.3460  221.9290 O   0  0  0  0  0  0  0  0  0  0  0  0
  139.6940   71.0520  222.3350 C   0  0  0  0  0  0  0  0  0  0  0  0
  139.9930   70.9540  223.7440 C   0  0  0  0  0  0  0  0  0  0  0  0
  140.6140   71.8870  224.5820 C   0  0  0  0  0  0  0  0  0  0  0  0
  140.6580   71.3080  225.8440 C   0  0  0  0  0  0  0  0  0  0  0  0
  141.1690   71.8200  227.0140 C   0  0  0  0  0  0  0  0  0  0  0  0
  141.0810   71.0180  228.1390 C   0  0  0  0  0  0  0  0  0  0  0  0
  140.4970   69.7490  228.0800 C   0  0  0  0  0  0  0  0  0  0  0  0
  139.9860   69.2530  226.8880 C   0  0  0  0  0  0  0  0  0  0  0  0
  140.0740   70.0540  225.7620 C   0  0  0  0  0  0  0  0  0  0  0  0
  139.6730   69.8500  224.4800 N   0  0  0  0  0  0  0  0  0  0  0  0
  140.4060   71.8530  221.4100 N   0  0  0  0  0  0  0  0  0  0  0  0
  141.0950   71.3390  220.2180 C   0  0  0  0  0  0  0  0  0  0  0  0
  142.2720   72.2620  220.1370 C   0  0  1  0  0  0  0  0  0  0  0  0
  143.4250   71.8280  220.9950 C   0  0  0  0  0  0  0  0  0  0  0  0
  144.5830   72.5890  220.3950 C   0  0  0  0  0  0  0  0  0  0  0  0
  144.2950   72.5970  218.9950 N   0  0  0  0  0  0  0  0  0  0  0  0
  145.1940   71.7230  218.3150 C   0  0  0  0  0  0  0  0  0  0  0  0
  145.5540   70.4730  219.0520 C   0  0  0  0  0  0  0  0  0  0  0  0
  144.6650   69.3090  218.7660 C   0  0  1  0  0  0  0  0  0  0  0  0
  145.2550   68.2730  217.8630 C   0  0  0  0  0  0  0  0  0  0  0  0
  146.3160   67.6510  218.7650 C   0  0  0  0  0  0  0  0  0  0  0  0
  145.8310   67.7520  220.1080 N   0  0  0  0  0  0  0  0  0  0  0  0
  144.5950   68.5100  220.0730 C   0  0  0  0  0  0  0  0  0  0  0  0
  142.9120   72.3310  218.7720 C   0  0  0  0  0  0  0  0  0  0  0  0
  141.7560   73.5460  220.6180 C   0  0  0  0  0  0  0  0  0  0  0  0
  142.1160   74.8730  220.4870 C   0  0  0  0  0  0  0  0  0  0  0  0
  141.4230   75.9090  221.0720 C   0  0  0  0  0  0  0  0  0  0  0  0
  140.3130   75.5920  221.8270 C   0  0  0  0  0  0  0  0  0  0  0  0
  139.9310   74.2760  221.9760 C   0  0  0  0  0  0  0  0  0  0  0  0
  140.6360   73.2490  221.3820 C   0  0  0  0  0  0  0  0  0  0  0  0
  140.9918   72.8803  224.2981 H   0  0  0  0  0  0  0  0  0  0  0  0
  141.6261   72.8197  227.0539 H   0  0  0  0  0  0  0  0  0  0  0  0
  141.4777   71.3858  229.0968 H   0  0  0  0  0  0  0  0  0  0  0  0
  140.4416   69.1348  228.9909 H   0  0  0  0  0  0  0  0  0  0  0  0
  139.5257   68.2551  226.8397 H   0  0  0  0  0  0  0  0  0  0  0  0
  139.1970   68.9690  224.1320 H   0  0  0  0  0  0  0  0  0  0  0  0
  141.4114   70.2944  220.3551 H   0  0  0  0  0  0  0  0  0  0  0  0
  140.4730   71.3222  219.3109 H   0  0  0  0  0  0  0  0  0  0  0  0
  143.2663   72.1096  222.0464 H   0  0  0  0  0  0  0  0  0  0  0  0
  143.5760   70.7385  221.0085 H   0  0  0  0  0  0  0  0  0  0  0  0
  144.6267   73.6138  220.7922 H   0  0  0  0  0  0  0  0  0  0  0  0
  145.5574   72.1344  220.6269 H   0  0  0  0  0  0  0  0  0  0  0  0
  144.7288   71.4327  217.3614 H   0  0  0  0  0  0  0  0  0  0  0  0
  146.1318   72.2855  218.1963 H   0  0  0  0  0  0  0  0  0  0  0  0
  146.5823   70.1959  218.7769 H   0  0  0  0  0  0  0  0  0  0  0  0
  145.4413   70.6974  220.1230 H   0  0  0  0  0  0  0  0  0  0  0  0
  143.7445   69.7317  218.3370 H   0  0  0  0  0  0  0  0  0  0  0  0
  144.5026   67.5311  217.5572 H   0  0  0  0  0  0  0  0  0  0  0  0
  145.6495   68.6744  216.9179 H   0  0  0  0  0  0  0  0  0  0  0  0
  146.4692   66.5953  218.4965 H   0  0  0  0  0  0  0  0  0  0  0  0
  147.2799   68.1693  218.6544 H   0  0  0  0  0  0  0  0  0  0  0  0
  145.6290   66.7910  220.4430 H   0  0  0  0  0  0  0  0  0  0  0  0
  143.7262   67.8353  220.0691 H   0  0  0  0  0  0  0  0  0  0  0  0
  144.4807   69.1604  220.9527 H   0  0  0  0  0  0  0  0  0  0  0  0
  142.4590   73.1389  218.1787 H   0  0  0  0  0  0  0  0  0  0  0  0
  142.7686   71.3941  218.2138 H   0  0  0  0  0  0  0  0  0  0  0  0
  143.0032   75.1149  219.8834 H   0  0  0  0  0  0  0  0  0  0  0  0
  141.7434   76.9532  220.9418 H   0  0  0  0  0  0  0  0  0  0  0  0
  139.7317   76.3907  222.3110 H   0  0  0  0  0  0  0  0  0  0  0  0
  139.0441   74.0390  222.5821 H   0  0  0  0  0  0  0  0  0  0  0  0
  1  2  2  0
  2  3  1  0
  3  4  2  0
  4  5  1  0
  5  6  2  0
  6  7  1  0
  7  8  2  0
  8  9  1  0
  9 10  2  0
 10 11  1  0
  2 12  1  0
 12 13  1  0
 14 13  1  6
 14 15  1  0
 15 16  1  0
 16 17  1  0
 17 18  1  0
 18 19  1  0
 19 20  1  0
 20 21  1  0
 21 22  1  0
 22 23  1  0
 23 24  1  0
 17 25  1  0
 14 26  1  0
 26 27  2  0
 27 28  1  0
 28 29  2  0
 29 30  1  0
 30 31  2  0
 11  3  1  0
 31 12  1  0
 10  5  1  0
 25 14  1  0
 31 26  1  0
 24 20  1  0
  4 32  1  0
  6 33  1  0
  7 34  1  0
  8 35  1  0
  9 36  1  0
 11 37  1  0
 13 38  1  0
 13 39  1  0
 15 40  1  0
 15 41  1  0
 16 42  1  0
 16 43  1  0
 18 44  1  0
 18 45  1  0
 19 46  1  0
 19 47  1  0
 20 48  1  6
 21 49  1  0
 21 50  1  0
 22 51  1  0
 22 52  1  0
 23 53  1  0
 24 54  1  0
 24 55  1  0
 25 56  1  0
 25 57  1  0
 27 58  1  0
 28 59  1  0
 29 60  1  0
 30 61  1  0
M  END
>  <smiles>  (78) 
O=C(c1cc2ccccc2[nH]1)N1C[C@]2(CCN(CCC3CCNC3)C2)c2ccccc21

>  <score_type>  (78) 
oracle

>  <origin>  (78) 
autodockgpu

>  <m_score__min__energy>  (78) 
-9.3000000000000007

>  <m_primary>  (78) 
energy

>  <rmsd>  (78) 
4.427856106406495

>  <m_score__min__rmsd>  (78) 
4.427856106406495

>  <meeko>  (78) 
{"free_energy": -8.58, "intermolecular_energy": -10.07, "internal_energy": -1.69, "cluster_size": 16, "cluster_id": 3, "rank_in_cluster": 1}

>  <energy>  (78) 
-8.42

>  <cluster_rmsd>  (78) 
0.91

>  <cluster>  (78) 
3

$$$$

     RDKit          3D

 61 66  0  0  1  0  0  0  0  0999 V2000
  138.9340   72.2720  220.9550 O   0  0  0  0  0  0  0  0  0  0  0  0
  139.8410   72.5410  221.8210 C   0  0  0  0  0  0  0  0  0  0  0  0
  139.8710   71.6800  222.9790 C   0  0  0  0  0  0  0  0  0  0  0  0
  140.6120   71.8110  224.1590 C   0  0  0  0  0  0  0  0  0  0  0  0
  140.2760   70.7220  224.9540 C   0  0  0  0  0  0  0  0  0  0  0  0
  140.7310   70.3930  226.2090 C   0  0  0  0  0  0  0  0  0  0  0  0
  140.2240   69.2360  226.7750 C   0  0  0  0  0  0  0  0  0  0  0  0
  139.2910   68.4460  226.0970 C   0  0  0  0  0  0  0  0  0  0  0  0
  138.8450   68.7990  224.8300 C   0  0  0  0  0  0  0  0  0  0  0  0
  139.3520   69.9550  224.2630 C   0  0  0  0  0  0  0  0  0  0  0  0
  139.1130   70.5470  223.0630 N   0  0  0  0  0  0  0  0  0  0  0  0
  140.7230   73.6250  221.5950 N   0  0  0  0  0  0  0  0  0  0  0  0
  140.4440   75.0200  221.9650 C   0  0  0  0  0  0  0  0  0  0  0  0
  141.1210   75.7610  220.8540 C   0  0  1  0  0  0  0  0  0  0  0  0
  140.2630   75.9080  219.6310 C   0  0  0  0  0  0  0  0  0  0  0  0
  140.9350   77.0430  218.8950 C   0  0  0  0  0  0  0  0  0  0  0  0
  141.3830   77.9070  219.9410 N   0  0  0  0  0  0  0  0  0  0  0  0
  140.5830   79.0880  219.9640 C   0  0  0  0  0  0  0  0  0  0  0  0
  141.1880   80.2590  220.6680 C   0  0  0  0  0  0  0  0  0  0  0  0
  140.5220   80.6200  221.9530 C   0  0  1  0  0  0  0  0  0  0  0  0
  140.5370   79.5460  222.9940 C   0  0  0  0  0  0  0  0  0  0  0  0
  142.0090   79.5270  223.3910 C   0  0  0  0  0  0  0  0  0  0  0  0
  142.5030   80.8590  223.2190 N   0  0  0  0  0  0  0  0  0  0  0  0
  141.4420   81.6480  222.6230 C   0  0  0  0  0  0  0  0  0  0  0  0
  141.4470   77.1980  221.1760 C   0  0  0  0  0  0  0  0  0  0  0  0
  142.2930   74.9410  220.5360 C   0  0  0  0  0  0  0  0  0  0  0  0
  143.5150   75.1490  219.9270 C   0  0  0  0  0  0  0  0  0  0  0  0
  144.4570   74.1580  219.7570 C   0  0  0  0  0  0  0  0  0  0  0  0
  144.1510   72.8960  220.2230 C   0  0  0  0  0  0  0  0  0  0  0  0
  142.9380   72.6600  220.8350 C   0  0  0  0  0  0  0  0  0  0  0  0
  142.0060   73.6640  220.9990 C   0  0  0  0  0  0  0  0  0  0  0  0
  141.3195   72.6158  224.4076 H   0  0  0  0  0  0  0  0  0  0  0  0
  141.4636   71.0198  226.7385 H   0  0  0  0  0  0  0  0  0  0  0  0
  140.5615   68.9325  227.7770 H   0  0  0  0  0  0  0  0  0  0  0  0
  138.9050   67.5327  226.5733 H   0  0  0  0  0  0  0  0  0  0  0  0
  138.1115   68.1789  224.2938 H   0  0  0  0  0  0  0  0  0  0  0  0
  138.4480   70.1710  222.3290 H   0  0  0  0  0  0  0  0  0  0  0  0
  139.3630   75.2228  221.9839 H   0  0  0  0  0  0  0  0  0  0  0  0
  140.7946   75.2976  222.9700 H   0  0  0  0  0  0  0  0  0  0  0  0
  140.2667   74.9869  219.0297 H   0  0  0  0  0  0  0  0  0  0  0  0
  139.2039   76.0990  219.8586 H   0  0  0  0  0  0  0  0  0  0  0  0
  141.7836   76.6760  218.2989 H   0  0  0  0  0  0  0  0  0  0  0  0
  140.2635   77.5469  218.1842 H   0  0  0  0  0  0  0  0  0  0  0  0
  140.3842   79.3835  218.9232 H   0  0  0  0  0  0  0  0  0  0  0  0
  139.6767   78.8289  220.5311 H   0  0  0  0  0  0  0  0  0  0  0  0
  142.2415   80.0251  220.8809 H   0  0  0  0  0  0  0  0  0  0  0  0
  141.0661   81.1235  219.9988 H   0  0  0  0  0  0  0  0  0  0  0  0
  139.4923   80.9024  221.6885 H   0  0  0  0  0  0  0  0  0  0  0  0
  139.8939   79.8053  223.8480 H   0  0  0  0  0  0  0  0  0  0  0  0
  140.1549   78.5761  222.6429 H   0  0  0  0  0  0  0  0  0  0  0  0
  142.1136   79.2174  224.4414 H   0  0  0  0  0  0  0  0  0  0  0  0
  142.5745   78.8144  222.7726 H   0  0  0  0  0  0  0  0  0  0  0  0
  142.7200   81.2390  224.1600 H   0  0  0  0  0  0  0  0  0  0  0  0
  140.8971   82.2114  223.3948 H   0  0  0  0  0  0  0  0  0  0  0  0
  141.8266   82.3906  221.9084 H   0  0  0  0  0  0  0  0  0  0  0  0
  142.4565   77.2727  221.6066 H   0  0  0  0  0  0  0  0  0  0  0  0
  140.7438   77.6129  221.9132 H   0  0  0  0  0  0  0  0  0  0  0  0
  143.7485   76.1588  219.5584 H   0  0  0  0  0  0  0  0  0  0  0  0
  145.4196   74.3658  219.2668 H   0  0  0  0  0  0  0  0  0  0  0  0
  144.8757   72.0768  220.1062 H   0  0  0  0  0  0  0  0  0  0  0  0
  142.7083   71.6483  221.2007 H   0  0  0  0  0  0  0  0  0  0  0  0
  1  2  2  0
  2  3  1  0
  3  4  2  0
  4  5  1  0
  5  6  2  0
  6  7  1  0
  7  8  2  0
  8  9  1  0
  9 10  2  0
 10 11  1  0
  2 12  1  0
 12 13  1  0
 14 13  1  1
 14 15  1  0
 15 16  1  0
 16 17  1  0
 17 18  1  0
 18 19  1  0
 19 20  1  0
 20 21  1  0
 21 22  1  0
 22 23  1  0
 23 24  1  0
 17 25  1  0
 14 26  1  0
 26 27  2  0
 27 28  1  0
 28 29  2  0
 29 30  1  0
 30 31  2  0
 11  3  1  0
 31 12  1  0
 10  5  1  0
 25 14  1  0
 31 26  1  0
 24 20  1  0
  4 32  1  0
  6 33  1  0
  7 34  1  0
  8 35  1  0
  9 36  1  0
 11 37  1  0
 13 38  1  0
 13 39  1  0
 15 40  1  0
 15 41  1  0
 16 42  1  0
 16 43  1  0
 18 44  1  0
 18 45  1  0
 19 46  1  0
 19 47  1  0
 20 48  1  6
 21 49  1  0
 21 50  1  0
 22 51  1  0
 22 52  1  0
 23 53  1  0
 24 54  1  0
 24 55  1  0
 25 56  1  0
 25 57  1  0
 27 58  1  0
 28 59  1  0
 29 60  1  0
 30 61  1  0
M  END
>  <smiles>  (79) 
O=C(c1cc2ccccc2[nH]1)N1C[C@]2(CCN(CCC3CCNC3)C2)c2ccccc21

>  <score_type>  (79) 
oracle

>  <origin>  (79) 
autodockgpu

>  <m_score__min__energy>  (79) 
-9.3000000000000007

>  <m_primary>  (79) 
energy

>  <rmsd>  (79) 
3.847787430265831

>  <m_score__min__rmsd>  (79) 
3.847787430265831

>  <meeko>  (79) 
{"free_energy": -7.87, "intermolecular_energy": -9.36, "internal_energy": -1.51, "cluster_size": 4, "cluster_id": 6, "rank_in_cluster": 4}

>  <energy>  (79) 
-8.42

>  <cluster_rmsd>  (79) 
0.22

>  <cluster>  (79) 
3

$$$$

     RDKit          3D

 61 66  0  0  1  0  0  0  0  0999 V2000
  139.2290   71.8670  220.9190 O   0  0  0  0  0  0  0  0  0  0  0  0
  140.0250   72.2910  221.8310 C   0  0  0  0  0  0  0  0  0  0  0  0
  140.0480   71.5150  223.0480 C   0  0  0  0  0  0  0  0  0  0  0  0
  140.6690   71.8030  224.2690 C   0  0  0  0  0  0  0  0  0  0  0  0
  140.3850   70.7360  225.1120 C   0  0  0  0  0  0  0  0  0  0  0  0
  140.7650   70.5410  226.4190 C   0  0  0  0  0  0  0  0  0  0  0  0
  140.3380   69.3730  227.0270 C   0  0  0  0  0  0  0  0  0  0  0  0
  139.5560   68.4420  226.3380 C   0  0  0  0  0  0  0  0  0  0  0  0
  139.1830   68.6600  225.0190 C   0  0  0  0  0  0  0  0  0  0  0  0
  139.6100   69.8270  224.4090 C   0  0  0  0  0  0  0  0  0  0  0  0
  139.4120   70.3110  223.1550 N   0  0  0  0  0  0  0  0  0  0  0  0
  140.8020   73.4510  221.5960 N   0  0  0  0  0  0  0  0  0  0  0  0
  140.4010   74.8140  221.9700 C   0  0  0  0  0  0  0  0  0  0  0  0
  140.9940   75.6140  220.8520 C   0  0  1  0  0  0  0  0  0  0  0  0
  140.1110   75.6830  219.6400 C   0  0  0  0  0  0  0  0  0  0  0  0
  140.6680   76.8740  218.8980 C   0  0  0  0  0  0  0  0  0  0  0  0
  141.0490   77.7750  219.9390 N   0  0  0  0  0  0  0  0  0  0  0  0
  140.1450   78.8780  219.9740 C   0  0  0  0  0  0  0  0  0  0  0  0
  139.8360   79.4110  221.3360 C   0  0  0  0  0  0  0  0  0  0  0  0
  140.6370   80.6080  221.7280 C   0  0  1  0  0  0  0  0  0  0  0  0
  140.9280   80.7200  223.1910 C   0  0  0  0  0  0  0  0  0  0  0  0
  141.9280   79.5870  223.3900 C   0  0  0  0  0  0  0  0  0  0  0  0
  142.6490   79.4470  222.1610 N   0  0  0  0  0  0  0  0  0  0  0  0
  142.0530   80.3510  221.1970 C   0  0  0  0  0  0  0  0  0  0  0  0
  141.1930   77.0750  221.1730 C   0  0  0  0  0  0  0  0  0  0  0  0
  142.2320   74.9040  220.5190 C   0  0  0  0  0  0  0  0  0  0  0  0
  143.4220   75.2230  219.8950 C   0  0  0  0  0  0  0  0  0  0  0  0
  144.4480   74.3210  219.7110 C   0  0  0  0  0  0  0  0  0  0  0  0
  144.2640   73.0370  220.1790 C   0  0  0  0  0  0  0  0  0  0  0  0
  143.0860   72.6920  220.8060 C   0  0  0  0  0  0  0  0  0  0  0  0
  142.0680   73.6060  220.9830 C   0  0  0  0  0  0  0  0  0  0  0  0
  141.2633   72.6960  224.5124 H   0  0  0  0  0  0  0  0  0  0  0  0
  141.3794   71.2785  226.9562 H   0  0  0  0  0  0  0  0  0  0  0  0
  140.6194   69.1740  228.0716 H   0  0  0  0  0  0  0  0  0  0  0  0
  139.2314   67.5232  226.8484 H   0  0  0  0  0  0  0  0  0  0  0  0
  138.5673   67.9283  224.4753 H   0  0  0  0  0  0  0  0  0  0  0  0
  138.8550   69.8170  222.4010 H   0  0  0  0  0  0  0  0  0  0  0  0
  139.3063   74.9169  222.0017 H   0  0  0  0  0  0  0  0  0  0  0  0
  140.7367   75.1227  222.9710 H   0  0  0  0  0  0  0  0  0  0  0  0
  140.1906   74.7662  219.0373 H   0  0  0  0  0  0  0  0  0  0  0  0
  139.0418   75.7770  219.8809 H   0  0  0  0  0  0  0  0  0  0  0  0
  141.5388   76.5855  218.2910 H   0  0  0  0  0  0  0  0  0  0  0  0
  139.9445   77.3152  218.1966 H   0  0  0  0  0  0  0  0  0  0  0  0
  140.5830   79.6947  219.3814 H   0  0  0  0  0  0  0  0  0  0  0  0
  139.1924   78.5019  219.5725 H   0  0  0  0  0  0  0  0  0  0  0  0
  138.7712   79.6857  221.3641 H   0  0  0  0  0  0  0  0  0  0  0  0
  140.0934   78.6146  222.0497 H   0  0  0  0  0  0  0  0  0  0  0  0
  140.0708   81.4798  221.3682 H   0  0  0  0  0  0  0  0  0  0  0  0
  141.3716   81.6956  223.4388 H   0  0  0  0  0  0  0  0  0  0  0  0
  140.0369   80.6492  223.8320 H   0  0  0  0  0  0  0  0  0  0  0  0
  142.6203   79.8331  224.2086 H   0  0  0  0  0  0  0  0  0  0  0  0
  141.4143   78.6507  223.6536 H   0  0  0  0  0  0  0  0  0  0  0  0
  143.6300   79.7380  222.3370 H   0  0  0  0  0  0  0  0  0  0  0  0
  142.6230   81.2902  221.1419 H   0  0  0  0  0  0  0  0  0  0  0  0
  142.0464   79.9303  220.1806 H   0  0  0  0  0  0  0  0  0  0  0  0
  142.1970   77.2406  221.5908 H   0  0  0  0  0  0  0  0  0  0  0  0
  140.4654   77.4246  221.9203 H   0  0  0  0  0  0  0  0  0  0  0  0
  143.5582   76.2502  219.5257 H   0  0  0  0  0  0  0  0  0  0  0  0
  145.3811   74.6152  219.2083 H   0  0  0  0  0  0  0  0  0  0  0  0
  145.0585   72.2870  220.0518 H   0  0  0  0  0  0  0  0  0  0  0  0
  142.9545   71.6637  221.1739 H   0  0  0  0  0  0  0  0  0  0  0  0
  1  2  2  0
  2  3  1  0
  3  4  2  0
  4  5  1  0
  5  6  2  0
  6  7  1  0
  7  8  2  0
  8  9  1  0
  9 10  2  0
 10 11  1  0
  2 12  1  0
 12 13  1  0
 14 13  1  1
 14 15  1  0
 15 16  1  0
 16 17  1  0
 17 18  1  0
 18 19  1  0
 19 20  1  0
 20 21  1  0
 21 22  1  0
 22 23  1  0
 23 24  1  0
 17 25  1  0
 14 26  1  0
 26 27  2  0
 27 28  1  0
 28 29  2  0
 29 30  1  0
 30 31  2  0
 11  3  1  0
 31 12  1  0
 10  5  1  0
 25 14  1  0
 31 26  1  0
 24 20  1  0
  4 32  1  0
  6 33  1  0
  7 34  1  0
  8 35  1  0
  9 36  1  0
 11 37  1  0
 13 38  1  0
 13 39  1  0
 15 40  1  0
 15 41  1  0
 16 42  1  0
 16 43  1  0
 18 44  1  0
 18 45  1  0
 19 46  1  0
 19 47  1  0
 20 48  1  6
 21 49  1  0
 21 50  1  0
 22 51  1  0
 22 52  1  0
 23 53  1  0
 24 54  1  0
 24 55  1  0
 25 56  1  0
 25 57  1  0
 27 58  1  0
 28 59  1  0
 29 60  1  0
 30 61  1  0
M  END
>  <smiles>  (80) 
O=C(c1cc2ccccc2[nH]1)N1C[C@]2(CCN(CCC3CCNC3)C2)c2ccccc21

>  <score_type>  (80) 
oracle

>  <origin>  (80) 
autodockgpu

>  <m_score__min__energy>  (80) 
-9.3000000000000007

>  <m_primary>  (80) 
energy

>  <rmsd>  (80) 
3.949291475609411

>  <m_score__min__rmsd>  (80) 
3.949291475609411

>  <meeko>  (80) 
{"free_energy": -8.08, "intermolecular_energy": -9.58, "internal_energy": -1.58, "cluster_size": 4, "cluster_id": 6, "rank_in_cluster": 1}

>  <energy>  (80) 
-8.39

>  <cluster_rmsd>  (80) 
0.93

>  <cluster>  (80) 
3

$$$$

     RDKit          3D

 61 66  0  0  1  0  0  0  0  0999 V2000
  139.8910   74.1430  222.2050 O   0  0  0  0  0  0  0  0  0  0  0  0
  140.5730   75.0170  221.5610 C   0  0  0  0  0  0  0  0  0  0  0  0
  140.4390   76.3770  222.0220 C   0  0  0  0  0  0  0  0  0  0  0  0
  139.3550   76.9920  222.6580 C   0  0  0  0  0  0  0  0  0  0  0  0
  139.7350   78.3070  222.8950 C   0  0  0  0  0  0  0  0  0  0  0  0
  139.0250   79.3190  223.4960 C   0  0  0  0  0  0  0  0  0  0  0  0
  139.6540   80.5480  223.6020 C   0  0  0  0  0  0  0  0  0  0  0  0
  140.9520   80.7410  223.1200 C   0  0  0  0  0  0  0  0  0  0  0  0
  141.6510   79.7040  222.5180 C   0  0  0  0  0  0  0  0  0  0  0  0
  141.0230   78.4750  222.4100 C   0  0  0  0  0  0  0  0  0  0  0  0
  141.4410   77.2950  221.8820 N   0  0  0  0  0  0  0  0  0  0  0  0
  141.3850   74.6060  220.4760 N   0  0  0  0  0  0  0  0  0  0  0  0
  141.7900   73.2180  220.2140 C   0  0  0  0  0  0  0  0  0  0  0  0
  143.1600   73.4120  219.6440 C   0  0  1  0  0  0  0  0  0  0  0  0
  144.2270   73.5290  220.6940 C   0  0  0  0  0  0  0  0  0  0  0  0
  145.4860   73.2330  219.9150 C   0  0  0  0  0  0  0  0  0  0  0  0
  145.0790   72.2360  218.9770 N   0  0  0  0  0  0  0  0  0  0  0  0
  145.6350   70.9750  219.3450 C   0  0  0  0  0  0  0  0  0  0  0  0
  145.2740   69.8300  218.4540 C   0  0  0  0  0  0  0  0  0  0  0  0
  144.5450   68.7210  219.1370 C   0  0  1  0  0  0  0  0  0  0  0  0
  144.2130   67.5540  218.2630 C   0  0  0  0  0  0  0  0  0  0  0  0
  145.5900   66.9400  218.0380 C   0  0  0  0  0  0  0  0  0  0  0  0
  146.3650   67.2160  219.2100 N   0  0  0  0  0  0  0  0  0  0  0  0
  145.5690   68.0660  220.0730 C   0  0  0  0  0  0  0  0  0  0  0  0
  143.6610   72.2480  218.8240 C   0  0  0  0  0  0  0  0  0  0  0  0
  143.0660   74.6690  218.8980 C   0  0  0  0  0  0  0  0  0  0  0  0
  143.7610   75.2650  217.8640 C   0  0  0  0  0  0  0  0  0  0  0  0
  143.4380   76.4990  217.3450 C   0  0  0  0  0  0  0  0  0  0  0  0
  142.3620   77.1640  217.8940 C   0  0  0  0  0  0  0  0  0  0  0  0
  141.6500   76.5920  218.9270 C   0  0  0  0  0  0  0  0  0  0  0  0
  141.9850   75.3550  219.4360 C   0  0  0  0  0  0  0  0  0  0  0  0
  138.3929   76.5266  222.9186 H   0  0  0  0  0  0  0  0  0  0  0  0
  138.0047   79.1599  223.8751 H   0  0  0  0  0  0  0  0  0  0  0  0
  139.1228   81.3876  224.0740 H   0  0  0  0  0  0  0  0  0  0  0  0
  141.4260   81.7287  223.2192 H   0  0  0  0  0  0  0  0  0  0  0  0
  142.6725   79.8540  222.1384 H   0  0  0  0  0  0  0  0  0  0  0  0
  142.3890   77.1380  221.4360 H   0  0  0  0  0  0  0  0  0  0  0  0
  141.8200   72.6260  221.1407 H   0  0  0  0  0  0  0  0  0  0  0  0
  141.1032   72.6662  219.5554 H   0  0  0  0  0  0  0  0  0  0  0  0
  144.2536   74.5417  221.1226 H   0  0  0  0  0  0  0  0  0  0  0  0
  144.0738   72.8573  221.5515 H   0  0  0  0  0  0  0  0  0  0  0  0
  145.8476   74.1338  219.3974 H   0  0  0  0  0  0  0  0  0  0  0  0
  146.3153   72.9005  220.5566 H   0  0  0  0  0  0  0  0  0  0  0  0
  146.7305   71.0738  219.3435 H   0  0  0  0  0  0  0  0  0  0  0  0
  145.2139   70.7349  220.3324 H   0  0  0  0  0  0  0  0  0  0  0  0
  144.6361   70.2129  217.6437 H   0  0  0  0  0  0  0  0  0  0  0  0
  146.2214   69.4050  218.0908 H   0  0  0  0  0  0  0  0  0  0  0  0
  143.6350   69.1735  219.5579 H   0  0  0  0  0  0  0  0  0  0  0  0
  143.5378   66.8504  218.7719 H   0  0  0  0  0  0  0  0  0  0  0  0
  143.6859   67.8240  217.3360 H   0  0  0  0  0  0  0  0  0  0  0  0
  145.5003   65.8536  217.8910 H   0  0  0  0  0  0  0  0  0  0  0  0
  146.0677   67.3623  217.1416 H   0  0  0  0  0  0  0  0  0  0  0  0
  146.5400   66.3130  219.6930 H   0  0  0  0  0  0  0  0  0  0  0  0
  145.0622   67.4688  220.8454 H   0  0  0  0  0  0  0  0  0  0  0  0
  146.1813   68.8088  220.6053 H   0  0  0  0  0  0  0  0  0  0  0  0
  143.3926   72.3831  217.7659 H   0  0  0  0  0  0  0  0  0  0  0  0
  143.2133   71.3001  219.1573 H   0  0  0  0  0  0  0  0  0  0  0  0
  144.6172   74.7259  217.4325 H   0  0  0  0  0  0  0  0  0  0  0  0
  144.0185   76.9391  216.5208 H   0  0  0  0  0  0  0  0  0  0  0  0
  142.0713   78.1520  217.5074 H   0  0  0  0  0  0  0  0  0  0  0  0
  140.7946   77.1352  219.3551 H   0  0  0  0  0  0  0  0  0  0  0  0
  1  2  2  0
  2  3  1  0
  3  4  2  0
  4  5  1  0
  5  6  2  0
  6  7  1  0
  7  8  2  0
  8  9  1  0
  9 10  2  0
 10 11  1  0
  2 12  1  0
 12 13  1  0
 14 13  1  1
 14 15  1  0
 15 16  1  0
 16 17  1  0
 17 18  1  0
 18 19  1  0
 19 20  1  0
 20 21  1  0
 21 22  1  0
 22 23  1  0
 23 24  1  0
 17 25  1  0
 14 26  1  0
 26 27  2  0
 27 28  1  0
 28 29  2  0
 29 30  1  0
 30 31  2  0
 11  3  1  0
 31 12  1  0
 10  5  1  0
 25 14  1  0
 31 26  1  0
 24 20  1  0
  4 32  1  0
  6 33  1  0
  7 34  1  0
  8 35  1  0
  9 36  1  0
 11 37  1  0
 13 38  1  0
 13 39  1  0
 15 40  1  0
 15 41  1  0
 16 42  1  0
 16 43  1  0
 18 44  1  0
 18 45  1  0
 19 46  1  0
 19 47  1  0
 20 48  1  1
 21 49  1  0
 21 50  1  0
 22 51  1  0
 22 52  1  0
 23 53  1  0
 24 54  1  0
 24 55  1  0
 25 56  1  0
 25 57  1  0
 27 58  1  0
 28 59  1  0
 29 60  1  0
 30 61  1  0
M  END
>  <smiles>  (81) 
O=C(c1cc2ccccc2[nH]1)N1C[C@]2(CCN(CCC3CCNC3)C2)c2ccccc21

>  <score_type>  (81) 
oracle

>  <origin>  (81) 
autodockgpu

>  <m_score__min__energy>  (81) 
-9.3000000000000007

>  <m_primary>  (81) 
energy

>  <rmsd>  (81) 
6.866314176505979

>  <m_score__min__rmsd>  (81) 
6.866314176505979

>  <meeko>  (81) 
{"free_energy": -8.9, "intermolecular_energy": -10.39, "internal_energy": -1.32, "cluster_size": 16, "cluster_id": 1, "rank_in_cluster": 6}

>  <energy>  (81) 
-8.37

>  <cluster_rmsd>  (81) 
0.33

>  <cluster>  (81) 
3

$$$$

     RDKit          3D

 61 66  0  0  1  0  0  0  0  0999 V2000
  138.6520   77.4500  220.3760 O   0  0  0  0  0  0  0  0  0  0  0  0
  139.4650   77.0670  221.2920 C   0  0  0  0  0  0  0  0  0  0  0  0
  140.1810   78.1210  221.9700 C   0  0  0  0  0  0  0  0  0  0  0  0
  139.6790   79.2370  222.6470 C   0  0  0  0  0  0  0  0  0  0  0  0
  140.7820   79.9360  223.1210 C   0  0  0  0  0  0  0  0  0  0  0  0
  140.8210   81.1020  223.8490 C   0  0  0  0  0  0  0  0  0  0  0  0
  142.0740   81.5830  224.1910 C   0  0  0  0  0  0  0  0  0  0  0  0
  143.2380   80.9090  223.8120 C   0  0  0  0  0  0  0  0  0  0  0  0
  143.1740   79.7320  223.0780 C   0  0  0  0  0  0  0  0  0  0  0  0
  141.9230   79.2500  222.7340 C   0  0  0  0  0  0  0  0  0  0  0  0
  141.5450   78.1480  222.0340 N   0  0  0  0  0  0  0  0  0  0  0  0
  139.6040   75.6860  221.5690 N   0  0  0  0  0  0  0  0  0  0  0  0
  140.8860   74.9710  221.6260 C   0  0  0  0  0  0  0  0  0  0  0  0
  140.5000   73.6280  221.0870 C   0  0  1  0  0  0  0  0  0  0  0  0
  140.5260   73.5630  219.5870 C   0  0  0  0  0  0  0  0  0  0  0  0
  140.5850   72.0760  219.3270 C   0  0  0  0  0  0  0  0  0  0  0  0
  141.4020   71.5770  220.3870 N   0  0  0  0  0  0  0  0  0  0  0  0
  142.6740   71.1900  219.8710 C   0  0  0  0  0  0  0  0  0  0  0  0
  143.8490   71.9020  220.4610 C   0  0  0  0  0  0  0  0  0  0  0  0
  143.9480   73.3440  220.0900 C   0  0  1  0  0  0  0  0  0  0  0  0
  144.9760   74.1210  220.8490 C   0  0  0  0  0  0  0  0  0  0  0  0
  146.2700   73.5540  220.2760 C   0  0  0  0  0  0  0  0  0  0  0  0
  145.9950   73.1760  218.9220 N   0  0  0  0  0  0  0  0  0  0  0  0
  144.5770   73.3700  218.6920 C   0  0  0  0  0  0  0  0  0  0  0  0
  141.4470   72.5150  221.4610 C   0  0  0  0  0  0  0  0  0  0  0  0
  139.1290   73.4290  221.5640 C   0  0  0  0  0  0  0  0  0  0  0  0
  138.3000   72.3460  221.7800 C   0  0  0  0  0  0  0  0  0  0  0  0
  137.0110   72.4590  222.2500 C   0  0  0  0  0  0  0  0  0  0  0  0
  136.5340   73.7250  222.5150 C   0  0  0  0  0  0  0  0  0  0  0  0
  137.3400   74.8250  222.3090 C   0  0  0  0  0  0  0  0  0  0  0  0
  138.6300   74.6950  221.8380 C   0  0  0  0  0  0  0  0  0  0  0  0
  138.6209   79.5076  222.7781 H   0  0  0  0  0  0  0  0  0  0  0  0
  139.9012   81.6275  224.1455 H   0  0  0  0  0  0  0  0  0  0  0  0
  142.1544   82.5135  224.7721 H   0  0  0  0  0  0  0  0  0  0  0  0
  144.2186   81.3165  224.0991 H   0  0  0  0  0  0  0  0  0  0  0  0
  144.0889   79.1994  222.7793 H   0  0  0  0  0  0  0  0  0  0  0  0
  142.2160   77.4430  221.6150 H   0  0  0  0  0  0  0  0  0  0  0  0
  141.6451   75.4551  220.9940 H   0  0  0  0  0  0  0  0  0  0  0  0
  141.3393   74.9400  222.6278 H   0  0  0  0  0  0  0  0  0  0  0  0
  139.6176   74.0069  219.1538 H   0  0  0  0  0  0  0  0  0  0  0  0
  141.3607   74.1209  219.1376 H   0  0  0  0  0  0  0  0  0  0  0  0
  139.5796   71.6314  219.3646 H   0  0  0  0  0  0  0  0  0  0  0  0
  140.9851   71.8338  218.3314 H   0  0  0  0  0  0  0  0  0  0  0  0
  142.8018   70.1132  220.0558 H   0  0  0  0  0  0  0  0  0  0  0  0
  142.6622   71.4571  218.8040 H   0  0  0  0  0  0  0  0  0  0  0  0
  143.7781   71.8330  221.5565 H   0  0  0  0  0  0  0  0  0  0  0  0
  144.7472   71.4123  220.0569 H   0  0  0  0  0  0  0  0  0  0  0  0
  142.9424   73.7631  220.2418 H   0  0  0  0  0  0  0  0  0  0  0  0
  144.8890   75.2001  220.6539 H   0  0  0  0  0  0  0  0  0  0  0  0
  144.8912   74.0288  221.9418 H   0  0  0  0  0  0  0  0  0  0  0  0
  147.0617   74.3172  220.3023 H   0  0  0  0  0  0  0  0  0  0  0  0
  146.6157   72.6906  220.8634 H   0  0  0  0  0  0  0  0  0  0  0  0
  146.5290   73.8140  218.3020 H   0  0  0  0  0  0  0  0  0  0  0  0
  144.3924   74.3372  218.2017 H   0  0  0  0  0  0  0  0  0  0  0  0
  144.1536   72.5993  218.0311 H   0  0  0  0  0  0  0  0  0  0  0  0
  141.1237   72.0378  222.3979 H   0  0  0  0  0  0  0  0  0  0  0  0
  142.4675   72.8934  221.6205 H   0  0  0  0  0  0  0  0  0  0  0  0
  138.6901   71.3402  221.5652 H   0  0  0  0  0  0  0  0  0  0  0  0
  136.3833   71.5697  222.4086 H   0  0  0  0  0  0  0  0  0  0  0  0
  135.5090   73.8580  222.8913 H   0  0  0  0  0  0  0  0  0  0  0  0
  136.9452   75.8287  222.5252 H   0  0  0  0  0  0  0  0  0  0  0  0
  1  2  2  0
  2  3  1  0
  3  4  2  0
  4  5  1  0
  5  6  2  0
  6  7  1  0
  7  8  2  0
  8  9  1  0
  9 10  2  0
 10 11  1  0
  2 12  1  0
 12 13  1  0
 14 13  1  6
 14 15  1  0
 15 16  1  0
 16 17  1  0
 17 18  1  0
 18 19  1  0
 19 20  1  0
 20 21  1  0
 21 22  1  0
 22 23  1  0
 23 24  1  0
 17 25  1  0
 14 26  1  0
 26 27  2  0
 27 28  1  0
 28 29  2  0
 29 30  1  0
 30 31  2  0
 11  3  1  0
 31 12  1  0
 10  5  1  0
 25 14  1  0
 31 26  1  0
 24 20  1  0
  4 32  1  0
  6 33  1  0
  7 34  1  0
  8 35  1  0
  9 36  1  0
 11 37  1  0
 13 38  1  0
 13 39  1  0
 15 40  1  0
 15 41  1  0
 16 42  1  0
 16 43  1  0
 18 44  1  0
 18 45  1  0
 19 46  1  0
 19 47  1  0
 20 48  1  6
 21 49  1  0
 21 50  1  0
 22 51  1  0
 22 52  1  0
 23 53  1  0
 24 54  1  0
 24 55  1  0
 25 56  1  0
 25 57  1  0
 27 58  1  0
 28 59  1  0
 29 60  1  0
 30 61  1  0
M  END
>  <smiles>  (82) 
O=C(c1cc2ccccc2[nH]1)N1C[C@]2(CCN(CCC3CCNC3)C2)c2ccccc21

>  <score_type>  (82) 
oracle

>  <origin>  (82) 
autodockgpu

>  <m_score__min__energy>  (82) 
-9.3000000000000007

>  <m_primary>  (82) 
energy

>  <rmsd>  (82) 
8.193676906185871

>  <m_score__min__rmsd>  (82) 
8.193676906185871

>  <meeko>  (82) 
{"free_energy": -8.29, "intermolecular_energy": -9.78, "internal_energy": -1.34, "cluster_size": 2, "cluster_id": 4, "rank_in_cluster": 1}

>  <energy>  (82) 
-8.34

>  <cluster_rmsd>  (82) 
0.19

>  <cluster>  (82) 
3

$$$$

     RDKit          3D

 61 66  0  0  1  0  0  0  0  0999 V2000
  140.1560   74.9520  221.9860 O   0  0  0  0  0  0  0  0  0  0  0  0
  141.0100   75.6450  221.3260 C   0  0  0  0  0  0  0  0  0  0  0  0
  141.1670   77.0140  221.7550 C   0  0  0  0  0  0  0  0  0  0  0  0
  141.4290   77.5140  223.0360 C   0  0  0  0  0  0  0  0  0  0  0  0
  141.4890   78.8960  222.9100 C   0  0  0  0  0  0  0  0  0  0  0  0
  141.7220   79.8450  223.8780 C   0  0  0  0  0  0  0  0  0  0  0  0
  141.7260   81.1680  223.4700 C   0  0  0  0  0  0  0  0  0  0  0  0
  141.5050   81.5140  222.1340 C   0  0  0  0  0  0  0  0  0  0  0  0
  141.2730   80.5390  221.1730 C   0  0  0  0  0  0  0  0  0  0  0  0
  141.2680   79.2170  221.5800 C   0  0  0  0  0  0  0  0  0  0  0  0
  141.0730   78.0640  220.8870 N   0  0  0  0  0  0  0  0  0  0  0  0
  141.7190   75.0450  220.2570 N   0  0  0  0  0  0  0  0  0  0  0  0
  141.9870   73.6050  220.1370 C   0  0  0  0  0  0  0  0  0  0  0  0
  143.3330   73.6090  219.4830 C   0  0  1  0  0  0  0  0  0  0  0  0
  144.4660   73.7410  220.4600 C   0  0  0  0  0  0  0  0  0  0  0  0
  145.6470   73.2480  219.6590 C   0  0  0  0  0  0  0  0  0  0  0  0
  145.1010   72.1950  218.8620 N   0  0  0  0  0  0  0  0  0  0  0  0
  145.5670   70.9360  219.3450 C   0  0  0  0  0  0  0  0  0  0  0  0
  145.5960   69.8330  218.3360 C   0  0  0  0  0  0  0  0  0  0  0  0
  146.1550   68.5460  218.8440 C   0  0  1  0  0  0  0  0  0  0  0  0
  145.2020   67.7180  219.6440 C   0  0  0  0  0  0  0  0  0  0  0  0
  144.2320   67.2430  218.5670 C   0  0  0  0  0  0  0  0  0  0  0  0
  144.9800   67.1420  217.3510 N   0  0  0  0  0  0  0  0  0  0  0  0
  146.3130   67.6480  217.6110 C   0  0  0  0  0  0  0  0  0  0  0  0
  143.6830   72.3210  218.7780 C   0  0  0  0  0  0  0  0  0  0  0  0
  143.3040   74.7800  218.6030 C   0  0  0  0  0  0  0  0  0  0  0  0
  143.9860   75.1930  217.4760 C   0  0  0  0  0  0  0  0  0  0  0  0
  143.7410   76.3870  216.8350 C   0  0  0  0  0  0  0  0  0  0  0  0
  142.7590   77.2040  217.3560 C   0  0  0  0  0  0  0  0  0  0  0  0
  142.0620   76.8170  218.4800 C   0  0  0  0  0  0  0  0  0  0  0  0
  142.3190   75.6170  219.1110 C   0  0  0  0  0  0  0  0  0  0  0  0
  141.5610   76.9292  223.9583 H   0  0  0  0  0  0  0  0  0  0  0  0
  141.8970   79.5658  224.9275 H   0  0  0  0  0  0  0  0  0  0  0  0
  141.9063   81.9611  224.2106 H   0  0  0  0  0  0  0  0  0  0  0  0
  141.5150   82.5738  221.8396 H   0  0  0  0  0  0  0  0  0  0  0  0
  141.0986   80.8094  220.1211 H   0  0  0  0  0  0  0  0  0  0  0  0
  140.8790   78.0130  219.8470 H   0  0  0  0  0  0  0  0  0  0  0  0
  142.0201   73.1183  221.1229 H   0  0  0  0  0  0  0  0  0  0  0  0
  141.2181   73.0492  219.5803 H   0  0  0  0  0  0  0  0  0  0  0  0
  144.6044   74.7875  220.7693 H   0  0  0  0  0  0  0  0  0  0  0  0
  144.3064   73.1833  221.3946 H   0  0  0  0  0  0  0  0  0  0  0  0
  146.0527   74.0499  219.0247 H   0  0  0  0  0  0  0  0  0  0  0  0
  146.4817   72.9136  220.2926 H   0  0  0  0  0  0  0  0  0  0  0  0
  146.5899   71.0757  219.7246 H   0  0  0  0  0  0  0  0  0  0  0  0
  144.8482   70.6224  220.1164 H   0  0  0  0  0  0  0  0  0  0  0  0
  144.5657   69.6502  217.9967 H   0  0  0  0  0  0  0  0  0  0  0  0
  146.2620   70.1662  217.5264 H   0  0  0  0  0  0  0  0  0  0  0  0
  147.0409   68.8160  219.4376 H   0  0  0  0  0  0  0  0  0  0  0  0
  145.7125   66.8714  220.1264 H   0  0  0  0  0  0  0  0  0  0  0  0
  144.7219   68.2611  220.4714 H   0  0  0  0  0  0  0  0  0  0  0  0
  143.8162   66.2614  218.8383 H   0  0  0  0  0  0  0  0  0  0  0  0
  143.3918   67.9442  218.4560 H   0  0  0  0  0  0  0  0  0  0  0  0
  145.0420   66.1360  217.1010 H   0  0  0  0  0  0  0  0  0  0  0  0
  147.0079   66.8212  217.8198 H   0  0  0  0  0  0  0  0  0  0  0  0
  146.7266   68.1929  216.7496 H   0  0  0  0  0  0  0  0  0  0  0  0
  143.3655   72.3637  217.7257 H   0  0  0  0  0  0  0  0  0  0  0  0
  143.1758   71.4607  219.2390 H   0  0  0  0  0  0  0  0  0  0  0  0
  144.7664   74.5335  217.0684 H   0  0  0  0  0  0  0  0  0  0  0  0
  144.3084   76.6790  215.9390 H   0  0  0  0  0  0  0  0  0  0  0  0
  142.5320   78.1660  216.8733 H   0  0  0  0  0  0  0  0  0  0  0  0
  141.2826   77.4801  218.8836 H   0  0  0  0  0  0  0  0  0  0  0  0
  1  2  2  0
  2  3  1  0
  3  4  2  0
  4  5  1  0
  5  6  2  0
  6  7  1  0
  7  8  2  0
  8  9  1  0
  9 10  2  0
 10 11  1  0
  2 12  1  0
 12 13  1  0
 14 13  1  1
 14 15  1  0
 15 16  1  0
 16 17  1  0
 17 18  1  0
 18 19  1  0
 19 20  1  0
 20 21  1  0
 21 22  1  0
 22 23  1  0
 23 24  1  0
 17 25  1  0
 14 26  1  0
 26 27  2  0
 27 28  1  0
 28 29  2  0
 29 30  1  0
 30 31  2  0
 11  3  1  0
 31 12  1  0
 10  5  1  0
 25 14  1  0
 31 26  1  0
 24 20  1  0
  4 32  1  0
  6 33  1  0
  7 34  1  0
  8 35  1  0
  9 36  1  0
 11 37  1  0
 13 38  1  0
 13 39  1  0
 15 40  1  0
 15 41  1  0
 16 42  1  0
 16 43  1  0
 18 44  1  0
 18 45  1  0
 19 46  1  0
 19 47  1  0
 20 48  1  1
 21 49  1  0
 21 50  1  0
 22 51  1  0
 22 52  1  0
 23 53  1  0
 24 54  1  0
 24 55  1  0
 25 56  1  0
 25 57  1  0
 27 58  1  0
 28 59  1  0
 29 60  1  0
 30 61  1  0
M  END
>  <smiles>  (83) 
O=C(c1cc2ccccc2[nH]1)N1C[C@]2(CCN(CCC3CCNC3)C2)c2ccccc21

>  <score_type>  (83) 
oracle

>  <origin>  (83) 
autodockgpu

>  <m_score__min__energy>  (83) 
-9.3000000000000007

>  <m_primary>  (83) 
energy

>  <rmsd>  (83) 
7.323675910007718

>  <m_score__min__rmsd>  (83) 
7.323675910007718

>  <meeko>  (83) 
{"free_energy": -8.5, "intermolecular_energy": -9.99, "internal_energy": -1.11, "cluster_size": 16, "cluster_id": 1, "rank_in_cluster": 14}

>  <energy>  (83) 
-8.34

>  <cluster_rmsd>  (83) 
0.38

>  <cluster>  (83) 
3

$$$$

     RDKit          3D

 61 66  0  0  1  0  0  0  0  0999 V2000
  138.0070   71.0460  222.0030 O   0  0  0  0  0  0  0  0  0  0  0  0
  139.1650   71.4890  222.3320 C   0  0  0  0  0  0  0  0  0  0  0  0
  139.5830   71.1970  223.6820 C   0  0  0  0  0  0  0  0  0  0  0  0
  140.4620   71.9060  224.5080 C   0  0  0  0  0  0  0  0  0  0  0  0
  140.5210   71.2070  225.7070 C   0  0  0  0  0  0  0  0  0  0  0  0
  141.2430   71.4930  226.8420 C   0  0  0  0  0  0  0  0  0  0  0  0
  141.1130   70.6140  227.9040 C   0  0  0  0  0  0  0  0  0  0  0  0
  140.2840   69.4920  227.8190 C   0  0  0  0  0  0  0  0  0  0  0  0
  139.5620   69.2240  226.6630 C   0  0  0  0  0  0  0  0  0  0  0  0
  139.6920   70.1010  225.6010 C   0  0  0  0  0  0  0  0  0  0  0  0
  139.1270   70.1050  224.3650 N   0  0  0  0  0  0  0  0  0  0  0  0
  139.9310   72.2110  221.3860 N   0  0  0  0  0  0  0  0  0  0  0  0
  140.5010   71.6350  220.1600 C   0  0  0  0  0  0  0  0  0  0  0  0
  141.7780   72.4060  220.0370 C   0  0  1  0  0  0  0  0  0  0  0  0
  142.9030   71.8210  220.8400 C   0  0  0  0  0  0  0  0  0  0  0  0
  144.1210   72.4420  220.1990 C   0  0  0  0  0  0  0  0  0  0  0  0
  143.7780   72.5080  218.8130 N   0  0  0  0  0  0  0  0  0  0  0  0
  144.5330   71.5400  218.0860 C   0  0  0  0  0  0  0  0  0  0  0  0
  145.1210   70.4370  218.9060 C   0  0  0  0  0  0  0  0  0  0  0  0
  144.4290   69.1220  218.7600 C   0  0  1  0  0  0  0  0  0  0  0  0
  145.1220   68.1420  217.8680 C   0  0  0  0  0  0  0  0  0  0  0  0
  146.3390   67.7710  218.7090 C   0  0  0  0  0  0  0  0  0  0  0  0
  145.9440   67.8800  220.0810 N   0  0  0  0  0  0  0  0  0  0  0  0
  144.5970   68.4140  220.1100 C   0  0  0  0  0  0  0  0  0  0  0  0
  142.3650   72.4170  218.6470 C   0  0  0  0  0  0  0  0  0  0  0  0
  141.4460   73.7370  220.5530 C   0  0  0  0  0  0  0  0  0  0  0  0
  141.9620   75.0110  220.4200 C   0  0  0  0  0  0  0  0  0  0  0  0
  141.4270   76.1150  221.0460 C   0  0  0  0  0  0  0  0  0  0  0  0
  140.3190   75.9260  221.8450 C   0  0  0  0  0  0  0  0  0  0  0  0
  139.7840   74.6640  221.9960 C   0  0  0  0  0  0  0  0  0  0  0  0
  140.3300   73.5680  221.3620 C   0  0  0  0  0  0  0  0  0  0  0  0
  140.9994   72.8326  224.2577 H   0  0  0  0  0  0  0  0  0  0  0  0
  141.8931   72.3782  226.9033 H   0  0  0  0  0  0  0  0  0  0  0  0
  141.6727   70.8023  228.8320 H   0  0  0  0  0  0  0  0  0  0  0  0
  140.2021   68.8117  228.6795 H   0  0  0  0  0  0  0  0  0  0  0  0
  138.9077   68.3425  226.5942 H   0  0  0  0  0  0  0  0  0  0  0  0
  138.4500   69.3710  224.0100 H   0  0  0  0  0  0  0  0  0  0  0  0
  140.6910   70.5574  220.2724 H   0  0  0  0  0  0  0  0  0  0  0  0
  139.8443   71.7097  219.2807 H   0  0  0  0  0  0  0  0  0  0  0  0
  142.8238   72.1043  221.8999 H   0  0  0  0  0  0  0  0  0  0  0  0
  142.9185   70.7211  220.8358 H   0  0  0  0  0  0  0  0  0  0  0  0
  144.3085   73.4470  220.6050 H   0  0  0  0  0  0  0  0  0  0  0  0
  145.0401   71.8666  220.3838 H   0  0  0  0  0  0  0  0  0  0  0  0
  143.8698   71.0873  217.3342 H   0  0  0  0  0  0  0  0  0  0  0  0
  145.3859   72.0836  217.6535 H   0  0  0  0  0  0  0  0  0  0  0  0
  146.1714   70.3079  218.6060 H   0  0  0  0  0  0  0  0  0  0  0  0
  145.0086   70.7351  219.9589 H   0  0  0  0  0  0  0  0  0  0  0  0
  143.4196   69.3521  218.3884 H   0  0  0  0  0  0  0  0  0  0  0  0
  144.4897   67.2645  217.6676 H   0  0  0  0  0  0  0  0  0  0  0  0
  145.3696   68.5395  216.8727 H   0  0  0  0  0  0  0  0  0  0  0  0
  146.6531   66.7406  218.4863 H   0  0  0  0  0  0  0  0  0  0  0  0
  147.1875   68.4355  218.4891 H   0  0  0  0  0  0  0  0  0  0  0  0
  145.9380   66.9240  220.4840 H   0  0  0  0  0  0  0  0  0  0  0  0
  143.8608   67.6037  220.2172 H   0  0  0  0  0  0  0  0  0  0  0  0
  144.4376   69.0947  220.9593 H   0  0  0  0  0  0  0  0  0  0  0  0
  141.9908   73.2834  218.0818 H   0  0  0  0  0  0  0  0  0  0  0  0
  142.0846   71.5132  218.0861 H   0  0  0  0  0  0  0  0  0  0  0  0
  142.8462   75.1514  219.7809 H   0  0  0  0  0  0  0  0  0  0  0  0
  141.8686   77.1137  220.9132 H   0  0  0  0  0  0  0  0  0  0  0  0
  139.8617   76.7824  222.3622 H   0  0  0  0  0  0  0  0  0  0  0  0
  138.9007   74.5285  222.6374 H   0  0  0  0  0  0  0  0  0  0  0  0
  1  2  2  0
  2  3  1  0
  3  4  2  0
  4  5  1  0
  5  6  2  0
  6  7  1  0
  7  8  2  0
  8  9  1  0
  9 10  2  0
 10 11  1  0
  2 12  1  0
 12 13  1  0
 14 13  1  6
 14 15  1  0
 15 16  1  0
 16 17  1  0
 17 18  1  0
 18 19  1  0
 19 20  1  0
 20 21  1  0
 21 22  1  0
 22 23  1  0
 23 24  1  0
 17 25  1  0
 14 26  1  0
 26 27  2  0
 27 28  1  0
 28 29  2  0
 29 30  1  0
 30 31  2  0
 11  3  1  0
 31 12  1  0
 10  5  1  0
 25 14  1  0
 31 26  1  0
 24 20  1  0
  4 32  1  0
  6 33  1  0
  7 34  1  0
  8 35  1  0
  9 36  1  0
 11 37  1  0
 13 38  1  0
 13 39  1  0
 15 40  1  0
 15 41  1  0
 16 42  1  0
 16 43  1  0
 18 44  1  0
 18 45  1  0
 19 46  1  0
 19 47  1  0
 20 48  1  6
 21 49  1  0
 21 50  1  0
 22 51  1  0
 22 52  1  0
 23 53  1  0
 24 54  1  0
 24 55  1  0
 25 56  1  0
 25 57  1  0
 27 58  1  0
 28 59  1  0
 29 60  1  0
 30 61  1  0
M  END
>  <smiles>  (84) 
O=C(c1cc2ccccc2[nH]1)N1C[C@]2(CCN(CCC3CCNC3)C2)c2ccccc21

>  <score_type>  (84) 
oracle

>  <origin>  (84) 
autodockgpu

>  <m_score__min__energy>  (84) 
-9.3000000000000007

>  <m_primary>  (84) 
energy

>  <rmsd>  (84) 
4.152617978587393

>  <m_score__min__rmsd>  (84) 
4.152617978587393

>  <meeko>  (84) 
{"free_energy": -8.24, "intermolecular_energy": -9.73, "internal_energy": -1.61, "cluster_size": 16, "cluster_id": 3, "rank_in_cluster": 15}

>  <energy>  (84) 
-8.34

>  <cluster_rmsd>  (84) 
0.91

>  <cluster>  (84) 
3

$$$$

     RDKit          3D

 61 66  0  0  1  0  0  0  0  0999 V2000
  140.1340   73.9020  222.1590 O   0  0  0  0  0  0  0  0  0  0  0  0
  140.7530   74.8080  221.4940 C   0  0  0  0  0  0  0  0  0  0  0  0
  140.5360   76.1640  221.9360 C   0  0  0  0  0  0  0  0  0  0  0  0
  139.3900   76.7380  222.4970 C   0  0  0  0  0  0  0  0  0  0  0  0
  139.7020   78.0690  222.7470 C   0  0  0  0  0  0  0  0  0  0  0  0
  138.9150   79.0550  223.2940 C   0  0  0  0  0  0  0  0  0  0  0  0
  139.4870   80.3080  223.4300 C   0  0  0  0  0  0  0  0  0  0  0  0
  140.8040   80.5510  223.0300 C   0  0  0  0  0  0  0  0  0  0  0  0
  141.5810   79.5390  222.4810 C   0  0  0  0  0  0  0  0  0  0  0  0
  141.0100   78.2860  222.3430 C   0  0  0  0  0  0  0  0  0  0  0  0
  141.5070   77.1210  221.8510 N   0  0  0  0  0  0  0  0  0  0  0  0
  141.5800   74.4330  220.4070 N   0  0  0  0  0  0  0  0  0  0  0  0
  142.0340   73.0610  220.1380 C   0  0  0  0  0  0  0  0  0  0  0  0
  143.3970   73.3070  219.5700 C   0  0  1  0  0  0  0  0  0  0  0  0
  144.4580   73.4570  220.6220 C   0  0  0  0  0  0  0  0  0  0  0  0
  145.7280   73.2110  219.8410 C   0  0  0  0  0  0  0  0  0  0  0  0
  145.3570   72.2050  218.8970 N   0  0  0  0  0  0  0  0  0  0  0  0
  145.9570   70.9620  219.2590 C   0  0  0  0  0  0  0  0  0  0  0  0
  145.4770   69.7710  218.4940 C   0  0  0  0  0  0  0  0  0  0  0  0
  145.0310   68.6290  219.3450 C   0  0  1  0  0  0  0  0  0  0  0  0
  143.6930   68.0640  218.9890 C   0  0  0  0  0  0  0  0  0  0  0  0
  143.9950   67.3750  217.6630 C   0  0  0  0  0  0  0  0  0  0  0  0
  145.3600   66.9460  217.7190 N   0  0  0  0  0  0  0  0  0  0  0  0
  145.9270   67.4470  218.9550 C   0  0  0  0  0  0  0  0  0  0  0  0
  143.9390   72.1670  218.7440 C   0  0  0  0  0  0  0  0  0  0  0  0
  143.2570   74.5640  218.8300 C   0  0  0  0  0  0  0  0  0  0  0  0
  143.9320   75.1910  217.8010 C   0  0  0  0  0  0  0  0  0  0  0  0
  143.5650   76.4150  217.2880 C   0  0  0  0  0  0  0  0  0  0  0  0
  142.4650   77.0380  217.8400 C   0  0  0  0  0  0  0  0  0  0  0  0
  141.7730   76.4360  218.8690 C   0  0  0  0  0  0  0  0  0  0  0  0
  142.1530   75.2080  219.3720 C   0  0  0  0  0  0  0  0  0  0  0  0
  138.4326   76.2357  222.6998 H   0  0  0  0  0  0  0  0  0  0  0  0
  137.8797   78.8573  223.6087 H   0  0  0  0  0  0  0  0  0  0  0  0
  138.8939   81.1280  223.8610 H   0  0  0  0  0  0  0  0  0  0  0  0
  141.2310   81.5574  223.1516 H   0  0  0  0  0  0  0  0  0  0  0  0
  142.6178   79.7276  222.1658 H   0  0  0  0  0  0  0  0  0  0  0  0
  142.4870   77.0000  221.4680 H   0  0  0  0  0  0  0  0  0  0  0  0
  142.0844   72.4655  221.0615 H   0  0  0  0  0  0  0  0  0  0  0  0
  141.3676   72.4884  219.4761 H   0  0  0  0  0  0  0  0  0  0  0  0
  144.4475   74.4676  221.0562 H   0  0  0  0  0  0  0  0  0  0  0  0
  144.3289   72.7759  221.4761 H   0  0  0  0  0  0  0  0  0  0  0  0
  146.0569   74.1272  219.3287 H   0  0  0  0  0  0  0  0  0  0  0  0
  146.5688   72.9051  220.4809 H   0  0  0  0  0  0  0  0  0  0  0  0
  147.0422   71.0508  219.1027 H   0  0  0  0  0  0  0  0  0  0  0  0
  145.6742   70.7830  220.3069 H   0  0  0  0  0  0  0  0  0  0  0  0
  144.6293   70.0840  217.8668 H   0  0  0  0  0  0  0  0  0  0  0  0
  146.3343   69.4088  217.9076 H   0  0  0  0  0  0  0  0  0  0  0  0
  145.0424   69.0023  220.3797 H   0  0  0  0  0  0  0  0  0  0  0  0
  143.3467   67.3445  219.7456 H   0  0  0  0  0  0  0  0  0  0  0  0
  142.8910   68.8146  218.9311 H   0  0  0  0  0  0  0  0  0  0  0  0
  143.3313   66.5084  217.5272 H   0  0  0  0  0  0  0  0  0  0  0  0
  143.8315   68.0592  216.8174 H   0  0  0  0  0  0  0  0  0  0  0  0
  145.3630   65.9080  217.7410 H   0  0  0  0  0  0  0  0  0  0  0  0
  145.9056   66.6707  219.7340 H   0  0  0  0  0  0  0  0  0  0  0  0
  146.9798   67.7440  218.8390 H   0  0  0  0  0  0  0  0  0  0  0  0
  143.6657   72.2984  217.6866 H   0  0  0  0  0  0  0  0  0  0  0  0
  143.5257   71.2018  219.0720 H   0  0  0  0  0  0  0  0  0  0  0  0
  144.8085   74.6862  217.3687 H   0  0  0  0  0  0  0  0  0  0  0  0
  144.1295   76.8800  216.4663 H   0  0  0  0  0  0  0  0  0  0  0  0
  142.1395   78.0170  217.4583 H   0  0  0  0  0  0  0  0  0  0  0  0
  140.8982   76.9457  219.2990 H   0  0  0  0  0  0  0  0  0  0  0  0
  1  2  2  0
  2  3  1  0
  3  4  2  0
  4  5  1  0
  5  6  2  0
  6  7  1  0
  7  8  2  0
  8  9  1  0
  9 10  2  0
 10 11  1  0
  2 12  1  0
 12 13  1  0
 14 13  1  1
 14 15  1  0
 15 16  1  0
 16 17  1  0
 17 18  1  0
 18 19  1  0
 19 20  1  0
 20 21  1  0
 21 22  1  0
 22 23  1  0
 23 24  1  0
 17 25  1  0
 14 26  1  0
 26 27  2  0
 27 28  1  0
 28 29  2  0
 29 30  1  0
 30 31  2  0
 11  3  1  0
 31 12  1  0
 10  5  1  0
 25 14  1  0
 31 26  1  0
 24 20  1  0
  4 32  1  0
  6 33  1  0
  7 34  1  0
  8 35  1  0
  9 36  1  0
 11 37  1  0
 13 38  1  0
 13 39  1  0
 15 40  1  0
 15 41  1  0
 16 42  1  0
 16 43  1  0
 18 44  1  0
 18 45  1  0
 19 46  1  0
 19 47  1  0
 20 48  1  1
 21 49  1  0
 21 50  1  0
 22 51  1  0
 22 52  1  0
 23 53  1  0
 24 54  1  0
 24 55  1  0
 25 56  1  0
 25 57  1  0
 27 58  1  0
 28 59  1  0
 29 60  1  0
 30 61  1  0
M  END
>  <smiles>  (85) 
O=C(c1cc2ccccc2[nH]1)N1C[C@]2(CCN(CCC3CCNC3)C2)c2ccccc21

>  <score_type>  (85) 
oracle

>  <origin>  (85) 
autodockgpu

>  <m_score__min__energy>  (85) 
-9.3000000000000007

>  <m_primary>  (85) 
energy

>  <rmsd>  (85) 
6.777543127432884

>  <m_score__min__rmsd>  (85) 
6.777543127432884

>  <meeko>  (85) 
{"free_energy": -8.56, "intermolecular_energy": -10.05, "internal_energy": -1.35, "cluster_size": 16, "cluster_id": 1, "rank_in_cluster": 13}

>  <energy>  (85) 
-8.31

>  <cluster_rmsd>  (85) 
0.37

>  <cluster>  (85) 
3

$$$$

     RDKit          3D

 61 66  0  0  1  0  0  0  0  0999 V2000
  140.9330   78.3460  219.3420 O   0  0  0  0  0  0  0  0  0  0  0  0
  141.1910   77.8440  220.4940 C   0  0  0  0  0  0  0  0  0  0  0  0
  141.8380   76.5550  220.4820 C   0  0  0  0  0  0  0  0  0  0  0  0
  141.3220   75.3030  220.8350 C   0  0  0  0  0  0  0  0  0  0  0  0
  142.3490   74.3880  220.6420 C   0  0  0  0  0  0  0  0  0  0  0  0
  142.3480   73.0280  220.8440 C   0  0  0  0  0  0  0  0  0  0  0  0
  143.5250   72.3530  220.5690 C   0  0  0  0  0  0  0  0  0  0  0  0
  144.6570   73.0290  220.1050 C   0  0  0  0  0  0  0  0  0  0  0  0
  144.6350   74.4040  219.9070 C   0  0  0  0  0  0  0  0  0  0  0  0
  143.4590   75.0800  220.1820 C   0  0  0  0  0  0  0  0  0  0  0  0
  143.1370   76.3970  220.0890 N   0  0  0  0  0  0  0  0  0  0  0  0
  140.8360   78.5610  221.6630 N   0  0  0  0  0  0  0  0  0  0  0  0
  139.5140   78.5120  222.3030 C   0  0  0  0  0  0  0  0  0  0  0  0
  139.3830   79.9110  222.8190 C   0  0  1  0  0  0  0  0  0  0  0  0
  138.8550   80.8730  221.7940 C   0  0  0  0  0  0  0  0  0  0  0  0
  138.3750   82.0250  222.6440 C   0  0  0  0  0  0  0  0  0  0  0  0
  137.8570   81.3900  223.8140 N   0  0  0  0  0  0  0  0  0  0  0  0
  136.4320   81.4750  223.8160 C   0  0  0  0  0  0  0  0  0  0  0  0
  135.8510   82.4670  224.7720 C   0  0  0  0  0  0  0  0  0  0  0  0
  136.6910   82.7310  225.9770 C   0  0  1  0  0  0  0  0  0  0  0  0
  136.0330   83.5600  227.0330 C   0  0  0  0  0  0  0  0  0  0  0  0
  134.9910   82.5900  227.5770 C   0  0  0  0  0  0  0  0  0  0  0  0
  135.5320   81.2720  227.4300 N   0  0  0  0  0  0  0  0  0  0  0  0
  136.7870   81.3910  226.7160 C   0  0  0  0  0  0  0  0  0  0  0  0
  138.3810   80.0690  223.9350 C   0  0  0  0  0  0  0  0  0  0  0  0
  140.7500   80.2880  223.1890 C   0  0  0  0  0  0  0  0  0  0  0  0
  141.3310   81.2180  224.0280 C   0  0  0  0  0  0  0  0  0  0  0  0
  142.6930   81.3540  224.1830 C   0  0  0  0  0  0  0  0  0  0  0  0
  143.5090   80.5130  223.4550 C   0  0  0  0  0  0  0  0  0  0  0  0
  142.9550   79.5750  222.6090 C   0  0  0  0  0  0  0  0  0  0  0  0
  141.5890   79.4500  222.4650 C   0  0  0  0  0  0  0  0  0  0  0  0
  140.3050   75.0865  221.1940 H   0  0  0  0  0  0  0  0  0  0  0  0
  141.4535   72.5008  221.2072 H   0  0  0  0  0  0  0  0  0  0  0  0
  143.5702   71.2641  220.7185 H   0  0  0  0  0  0  0  0  0  0  0  0
  145.5774   72.4649  219.8938 H   0  0  0  0  0  0  0  0  0  0  0  0
  145.5246   74.9388  219.5430 H   0  0  0  0  0  0  0  0  0  0  0  0
  143.8000   77.1570  219.7670 H   0  0  0  0  0  0  0  0  0  0  0  0
  138.7234   78.2759  221.5755 H   0  0  0  0  0  0  0  0  0  0  0  0
  139.4179   77.7365  223.0772 H   0  0  0  0  0  0  0  0  0  0  0  0
  139.6487   81.1927  221.1027 H   0  0  0  0  0  0  0  0  0  0  0  0
  138.0706   80.4442  221.1531 H   0  0  0  0  0  0  0  0  0  0  0  0
  139.2071   82.6978  222.8987 H   0  0  0  0  0  0  0  0  0  0  0  0
  137.6283   82.6501  222.1323 H   0  0  0  0  0  0  0  0  0  0  0  0
  136.1068   81.7501  222.8018 H   0  0  0  0  0  0  0  0  0  0  0  0
  136.0696   80.4895  224.1437 H   0  0  0  0  0  0  0  0  0  0  0  0
  135.7096   83.4176  224.2369 H   0  0  0  0  0  0  0  0  0  0  0  0
  134.9079   82.0342  225.1370 H   0  0  0  0  0  0  0  0  0  0  0  0
  137.6068   83.2144  225.6061 H   0  0  0  0  0  0  0  0  0  0  0  0
  136.7489   83.8593  227.8127 H   0  0  0  0  0  0  0  0  0  0  0  0
  135.6134   84.5069  226.6625 H   0  0  0  0  0  0  0  0  0  0  0  0
  134.7946   82.8020  228.6384 H   0  0  0  0  0  0  0  0  0  0  0  0
  134.0401   82.6880  227.0328 H   0  0  0  0  0  0  0  0  0  0  0  0
  135.7160   80.8990  228.3810 H   0  0  0  0  0  0  0  0  0  0  0  0
  137.6336   81.3955  227.4183 H   0  0  0  0  0  0  0  0  0  0  0  0
  136.9555   80.5487  226.0288 H   0  0  0  0  0  0  0  0  0  0  0  0
  138.8732   79.9417  224.9105 H   0  0  0  0  0  0  0  0  0  0  0  0
  137.5841   79.3136  223.8687 H   0  0  0  0  0  0  0  0  0  0  0  0
  140.6718   81.8852  224.6027 H   0  0  0  0  0  0  0  0  0  0  0  0
  143.1155   82.1075  224.8640 H   0  0  0  0  0  0  0  0  0  0  0  0
  144.6022   80.5905  223.5493 H   0  0  0  0  0  0  0  0  0  0  0  0
  143.6184   78.9109  222.0355 H   0  0  0  0  0  0  0  0  0  0  0  0
  1  2  2  0
  2  3  1  0
  3  4  2  0
  4  5  1  0
  5  6  2  0
  6  7  1  0
  7  8  2  0
  8  9  1  0
  9 10  2  0
 10 11  1  0
  2 12  1  0
 12 13  1  0
 14 13  1  6
 14 15  1  0
 15 16  1  0
 16 17  1  0
 17 18  1  0
 18 19  1  0
 19 20  1  0
 20 21  1  0
 21 22  1  0
 22 23  1  0
 23 24  1  0
 17 25  1  0
 14 26  1  0
 26 27  2  0
 27 28  1  0
 28 29  2  0
 29 30  1  0
 30 31  2  0
 11  3  1  0
 31 12  1  0
 10  5  1  0
 25 14  1  0
 31 26  1  0
 24 20  1  0
  4 32  1  0
  6 33  1  0
  7 34  1  0
  8 35  1  0
  9 36  1  0
 11 37  1  0
 13 38  1  0
 13 39  1  0
 15 40  1  0
 15 41  1  0
 16 42  1  0
 16 43  1  0
 18 44  1  0
 18 45  1  0
 19 46  1  0
 19 47  1  0
 20 48  1  6
 21 49  1  0
 21 50  1  0
 22 51  1  0
 22 52  1  0
 23 53  1  0
 24 54  1  0
 24 55  1  0
 25 56  1  0
 25 57  1  0
 27 58  1  0
 28 59  1  0
 29 60  1  0
 30 61  1  0
M  END
>  <smiles>  (86) 
O=C(c1cc2ccccc2[nH]1)N1C[C@]2(CCN(CCC3CCNC3)C2)c2ccccc21

>  <score_type>  (86) 
oracle

>  <origin>  (86) 
autodockgpu

>  <m_score__min__energy>  (86) 
-9.3000000000000007

>  <m_primary>  (86) 
energy

>  <rmsd>  (86) 
6.421512623846562

>  <m_score__min__rmsd>  (86) 
6.421512623846562

>  <meeko>  (86) 
{"free_energy": -8.61, "intermolecular_energy": -10.1, "internal_energy": -1.29, "cluster_size": 7, "cluster_id": 2, "rank_in_cluster": 1}

>  <energy>  (86) 
-8.3

>  <cluster_rmsd>  (86) 
1.26

>  <cluster>  (86) 
3

$$$$

     RDKit          3D

 61 66  0  0  1  0  0  0  0  0999 V2000
  139.2810   69.3180  222.0530 O   0  0  0  0  0  0  0  0  0  0  0  0
  139.5610   70.4890  222.4950 C   0  0  0  0  0  0  0  0  0  0  0  0
  139.9220   70.5590  223.8910 C   0  0  0  0  0  0  0  0  0  0  0  0
  140.3660   71.6580  224.6350 C   0  0  0  0  0  0  0  0  0  0  0  0
  140.5730   71.1960  225.9280 C   0  0  0  0  0  0  0  0  0  0  0  0
  141.0070   71.8860  227.0360 C   0  0  0  0  0  0  0  0  0  0  0  0
  141.1270   71.1680  228.2130 C   0  0  0  0  0  0  0  0  0  0  0  0
  140.8170   69.8060  228.2660 C   0  0  0  0  0  0  0  0  0  0  0  0
  140.3790   69.1300  227.1350 C   0  0  0  0  0  0  0  0  0  0  0  0
  140.2600   69.8460  225.9570 C   0  0  0  0  0  0  0  0  0  0  0  0
  139.8650   69.4700  224.7120 N   0  0  0  0  0  0  0  0  0  0  0  0
  139.4990   71.5990  221.6180 N   0  0  0  0  0  0  0  0  0  0  0  0
  140.4800   71.8830  220.5610 C   0  0  0  0  0  0  0  0  0  0  0  0
  140.4990   73.3800  220.5710 C   0  0  1  0  0  0  0  0  0  0  0  0
  141.4320   73.9540  221.5970 C   0  0  0  0  0  0  0  0  0  0  0  0
  141.6340   75.3660  221.1010 C   0  0  0  0  0  0  0  0  0  0  0  0
  141.6350   75.2300  219.6790 N   0  0  0  0  0  0  0  0  0  0  0  0
  142.9570   75.4220  219.1790 C   0  0  0  0  0  0  0  0  0  0  0  0
  143.7900   74.1840  219.0770 C   0  0  0  0  0  0  0  0  0  0  0  0
  144.3120   73.6810  220.3810 C   0  0  1  0  0  0  0  0  0  0  0  0
  143.9440   72.2680  220.7040 C   0  0  0  0  0  0  0  0  0  0  0  0
  144.7920   71.4950  219.7000 C   0  0  0  0  0  0  0  0  0  0  0  0
  145.9740   72.2690  219.4710 N   0  0  0  0  0  0  0  0  0  0  0  0
  145.8250   73.5210  220.1880 C   0  0  0  0  0  0  0  0  0  0  0  0
  141.0190   74.0020  219.2980 C   0  0  0  0  0  0  0  0  0  0  0  0
  139.1200   73.7560  220.8950 C   0  0  0  0  0  0  0  0  0  0  0  0
  138.3290   74.8750  220.7240 C   0  0  0  0  0  0  0  0  0  0  0  0
  137.0200   74.9500  221.1460 C   0  0  0  0  0  0  0  0  0  0  0  0
  136.4830   73.8440  221.7710 C   0  0  0  0  0  0  0  0  0  0  0  0
  137.2500   72.7140  221.9560 C   0  0  0  0  0  0  0  0  0  0  0  0
  138.5600   72.6530  221.5270 C   0  0  0  0  0  0  0  0  0  0  0  0
  140.5203   72.6836  224.2685 H   0  0  0  0  0  0  0  0  0  0  0  0
  141.2475   72.9584  226.9887 H   0  0  0  0  0  0  0  0  0  0  0  0
  141.4728   71.6787  229.1239 H   0  0  0  0  0  0  0  0  0  0  0  0
  140.9215   69.2624  229.2166 H   0  0  0  0  0  0  0  0  0  0  0  0
  140.1342   68.0583  227.1743 H   0  0  0  0  0  0  0  0  0  0  0  0
  139.5700   68.4880  224.4460 H   0  0  0  0  0  0  0  0  0  0  0  0
  141.4680   71.4663  220.8064 H   0  0  0  0  0  0  0  0  0  0  0  0
  140.2295   71.4427  219.5846 H   0  0  0  0  0  0  0  0  0  0  0  0
  140.9760   73.9457  222.5980 H   0  0  0  0  0  0  0  0  0  0  0  0
  142.3693   73.3880  221.7030 H   0  0  0  0  0  0  0  0  0  0  0  0
  140.8129   76.0189  221.4318 H   0  0  0  0  0  0  0  0  0  0  0  0
  142.5571   75.8243  221.4855 H   0  0  0  0  0  0  0  0  0  0  0  0
  142.8792   75.8625  218.1741 H   0  0  0  0  0  0  0  0  0  0  0  0
  143.4656   76.0705  219.9076 H   0  0  0  0  0  0  0  0  0  0  0  0
  143.1749   73.3922  218.6246 H   0  0  0  0  0  0  0  0  0  0  0  0
  144.6680   74.4466  218.4686 H   0  0  0  0  0  0  0  0  0  0  0  0
  143.9314   74.3749  221.1449 H   0  0  0  0  0  0  0  0  0  0  0  0
  144.2119   72.0097  221.7391 H   0  0  0  0  0  0  0  0  0  0  0  0
  142.8663   72.0587  220.6354 H   0  0  0  0  0  0  0  0  0  0  0  0
  145.0586   70.5095  220.1095 H   0  0  0  0  0  0  0  0  0  0  0  0
  144.2407   71.3315  218.7623 H   0  0  0  0  0  0  0  0  0  0  0  0
  146.7760   71.7450  219.8700 H   0  0  0  0  0  0  0  0  0  0  0  0
  146.3374   73.4746  221.1603 H   0  0  0  0  0  0  0  0  0  0  0  0
  146.2671   74.3681  219.6430 H   0  0  0  0  0  0  0  0  0  0  0  0
  140.1904   74.1914  218.5998 H   0  0  0  0  0  0  0  0  0  0  0  0
  141.7317   73.3368  218.7885 H   0  0  0  0  0  0  0  0  0  0  0  0
  138.7670   75.7519  220.2249 H   0  0  0  0  0  0  0  0  0  0  0  0
  136.4233   75.8608  220.9899 H   0  0  0  0  0  0  0  0  0  0  0  0
  135.4408   73.8638  222.1224 H   0  0  0  0  0  0  0  0  0  0  0  0
  136.8076   71.8405  222.4573 H   0  0  0  0  0  0  0  0  0  0  0  0
  1  2  2  0
  2  3  1  0
  3  4  2  0
  4  5  1  0
  5  6  2  0
  6  7  1  0
  7  8  2  0
  8  9  1  0
  9 10  2  0
 10 11  1  0
  2 12  1  0
 12 13  1  0
 14 13  1  6
 14 15  1  0
 15 16  1  0
 16 17  1  0
 17 18  1  0
 18 19  1  0
 19 20  1  0
 20 21  1  0
 21 22  1  0
 22 23  1  0
 23 24  1  0
 17 25  1  0
 14 26  1  0
 26 27  2  0
 27 28  1  0
 28 29  2  0
 29 30  1  0
 30 31  2  0
 11  3  1  0
 31 12  1  0
 10  5  1  0
 25 14  1  0
 31 26  1  0
 24 20  1  0
  4 32  1  0
  6 33  1  0
  7 34  1  0
  8 35  1  0
  9 36  1  0
 11 37  1  0
 13 38  1  0
 13 39  1  0
 15 40  1  0
 15 41  1  0
 16 42  1  0
 16 43  1  0
 18 44  1  0
 18 45  1  0
 19 46  1  0
 19 47  1  0
 20 48  1  1
 21 49  1  0
 21 50  1  0
 22 51  1  0
 22 52  1  0
 23 53  1  0
 24 54  1  0
 24 55  1  0
 25 56  1  0
 25 57  1  0
 27 58  1  0
 28 59  1  0
 29 60  1  0
 30 61  1  0
M  END
>  <smiles>  (87) 
O=C(c1cc2ccccc2[nH]1)N1C[C@]2(CCN(CCC3CCNC3)C2)c2ccccc21

>  <score_type>  (87) 
oracle

>  <origin>  (87) 
autodockgpu

>  <m_score__min__energy>  (87) 
-9.3000000000000007

>  <m_primary>  (87) 
energy

>  <rmsd>  (87) 
5.053577463833154

>  <m_score__min__rmsd>  (87) 
5.053577463833154

>  <meeko>  (87) 
{"free_energy": -7.7, "intermolecular_energy": -9.19, "internal_energy": -1.85, "cluster_size": 4, "cluster_id": 5, "rank_in_cluster": 3}

>  <energy>  (87) 
-8.28

>  <cluster_rmsd>  (87) 
0.94

>  <cluster>  (87) 
3

$$$$

     RDKit          3D

 61 66  0  0  1  0  0  0  0  0999 V2000
  139.0440   69.2480  222.1540 O   0  0  0  0  0  0  0  0  0  0  0  0
  139.3610   70.4000  222.6220 C   0  0  0  0  0  0  0  0  0  0  0  0
  139.7640   70.4200  224.0080 C   0  0  0  0  0  0  0  0  0  0  0  0
  140.1810   71.5020  224.7910 C   0  0  0  0  0  0  0  0  0  0  0  0
  140.4520   70.9890  226.0530 C   0  0  0  0  0  0  0  0  0  0  0  0
  140.8910   71.6450  227.1800 C   0  0  0  0  0  0  0  0  0  0  0  0
  141.0820   70.8770  228.3160 C   0  0  0  0  0  0  0  0  0  0  0  0
  140.8360   69.5010  228.3110 C   0  0  0  0  0  0  0  0  0  0  0  0
  140.3920   68.8600  227.1620 C   0  0  0  0  0  0  0  0  0  0  0  0
  140.2020   69.6260  226.0250 C   0  0  0  0  0  0  0  0  0  0  0  0
  139.7840   69.2910  224.7760 N   0  0  0  0  0  0  0  0  0  0  0  0
  139.2950   71.5370  221.7810 N   0  0  0  0  0  0  0  0  0  0  0  0
  140.1600   71.7620  220.6140 C   0  0  0  0  0  0  0  0  0  0  0  0
  140.3210   73.2500  220.6500 C   0  0  1  0  0  0  0  0  0  0  0  0
  141.4250   73.7050  221.5600 C   0  0  0  0  0  0  0  0  0  0  0  0
  141.6970   75.1070  221.0700 C   0  0  0  0  0  0  0  0  0  0  0  0
  141.5080   75.0150  219.6560 N   0  0  0  0  0  0  0  0  0  0  0  0
  142.7700   75.1000  218.9970 C   0  0  0  0  0  0  0  0  0  0  0  0
  143.9650   74.8700  219.8670 C   0  0  0  0  0  0  0  0  0  0  0  0
  144.8670   73.7770  219.4010 C   0  0  1  0  0  0  0  0  0  0  0  0
  146.1380   73.6360  220.1760 C   0  0  0  0  0  0  0  0  0  0  0  0
  145.6270   73.0850  221.5030 C   0  0  0  0  0  0  0  0  0  0  0  0
  144.4590   72.3110  221.2090 N   0  0  0  0  0  0  0  0  0  0  0  0
  144.1720   72.4680  219.7970 C   0  0  0  0  0  0  0  0  0  0  0  0
  140.7360   73.8600  219.3340 C   0  0  0  0  0  0  0  0  0  0  0  0
  139.0360   73.7410  221.1530 C   0  0  0  0  0  0  0  0  0  0  0  0
  138.3390   74.9320  221.1050 C   0  0  0  0  0  0  0  0  0  0  0  0
  137.1050   75.1140  221.6900 C   0  0  0  0  0  0  0  0  0  0  0  0
  136.5480   74.0430  222.3580 C   0  0  0  0  0  0  0  0  0  0  0  0
  137.2220   72.8420  222.4230 C   0  0  0  0  0  0  0  0  0  0  0  0
  138.4570   72.6750  221.8300 C   0  0  0  0  0  0  0  0  0  0  0  0
  140.2754   72.5501  224.4709 H   0  0  0  0  0  0  0  0  0  0  0  0
  141.0812   72.7284  227.1785 H   0  0  0  0  0  0  0  0  0  0  0  0
  141.4340   71.3588  229.2401 H   0  0  0  0  0  0  0  0  0  0  0  0
  140.9963   68.9179  229.2299 H   0  0  0  0  0  0  0  0  0  0  0  0
  140.1974   67.7774  227.1557 H   0  0  0  0  0  0  0  0  0  0  0  0
  139.5260   68.3100  224.4710 H   0  0  0  0  0  0  0  0  0  0  0  0
  141.1271   71.2496  220.7249 H   0  0  0  0  0  0  0  0  0  0  0  0
  139.7504   71.3762  219.6688 H   0  0  0  0  0  0  0  0  0  0  0  0
  141.0984   73.7076  222.6104 H   0  0  0  0  0  0  0  0  0  0  0  0
  142.3103   73.0527  221.5348 H   0  0  0  0  0  0  0  0  0  0  0  0
  140.9891   75.8220  221.5146 H   0  0  0  0  0  0  0  0  0  0  0  0
  142.6999   75.4668  221.3433 H   0  0  0  0  0  0  0  0  0  0  0  0
  142.7850   74.3481  218.1942 H   0  0  0  0  0  0  0  0  0  0  0  0
  142.8536   76.1353  218.6347 H   0  0  0  0  0  0  0  0  0  0  0  0
  144.5467   75.8028  219.9057 H   0  0  0  0  0  0  0  0  0  0  0  0
  143.5816   74.5618  220.8509 H   0  0  0  0  0  0  0  0  0  0  0  0
  145.0694   73.9864  218.3402 H   0  0  0  0  0  0  0  0  0  0  0  0
  146.8295   72.9329  219.6888 H   0  0  0  0  0  0  0  0  0  0  0  0
  146.7114   74.5700  220.2698 H   0  0  0  0  0  0  0  0  0  0  0  0
  146.3943   72.4498  221.9696 H   0  0  0  0  0  0  0  0  0  0  0  0
  145.3936   73.8997  222.2042 H   0  0  0  0  0  0  0  0  0  0  0  0
  144.6840   71.3160  221.4000 H   0  0  0  0  0  0  0  0  0  0  0  0
  144.5794   71.6233  219.2222 H   0  0  0  0  0  0  0  0  0  0  0  0
  143.0915   72.4923  219.5923 H   0  0  0  0  0  0  0  0  0  0  0  0
  139.8489   74.1452  218.7494 H   0  0  0  0  0  0  0  0  0  0  0  0
  141.3145   73.1479  218.7271 H   0  0  0  0  0  0  0  0  0  0  0  0
  138.7929   75.7802  220.5716 H   0  0  0  0  0  0  0  0  0  0  0  0
  136.5820   76.0796  221.6267 H   0  0  0  0  0  0  0  0  0  0  0  0
  135.5645   74.1475  222.8395 H   0  0  0  0  0  0  0  0  0  0  0  0
  136.7650   71.9976  222.9598 H   0  0  0  0  0  0  0  0  0  0  0  0
  1  2  2  0
  2  3  1  0
  3  4  2  0
  4  5  1  0
  5  6  2  0
  6  7  1  0
  7  8  2  0
  8  9  1  0
  9 10  2  0
 10 11  1  0
  2 12  1  0
 12 13  1  0
 14 13  1  6
 14 15  1  0
 15 16  1  0
 16 17  1  0
 17 18  1  0
 18 19  1  0
 19 20  1  0
 20 21  1  0
 21 22  1  0
 22 23  1  0
 23 24  1  0
 17 25  1  0
 14 26  1  0
 26 27  2  0
 27 28  1  0
 28 29  2  0
 29 30  1  0
 30 31  2  0
 11  3  1  0
 31 12  1  0
 10  5  1  0
 25 14  1  0
 31 26  1  0
 24 20  1  0
  4 32  1  0
  6 33  1  0
  7 34  1  0
  8 35  1  0
  9 36  1  0
 11 37  1  0
 13 38  1  0
 13 39  1  0
 15 40  1  0
 15 41  1  0
 16 42  1  0
 16 43  1  0
 18 44  1  0
 18 45  1  0
 19 46  1  0
 19 47  1  0
 20 48  1  6
 21 49  1  0
 21 50  1  0
 22 51  1  0
 22 52  1  0
 23 53  1  0
 24 54  1  0
 24 55  1  0
 25 56  1  0
 25 57  1  0
 27 58  1  0
 28 59  1  0
 29 60  1  0
 30 61  1  0
M  END
>  <smiles>  (88) 
O=C(c1cc2ccccc2[nH]1)N1C[C@]2(CCN(CCC3CCNC3)C2)c2ccccc21

>  <score_type>  (88) 
oracle

>  <origin>  (88) 
autodockgpu

>  <m_score__min__energy>  (88) 
-9.3000000000000007

>  <m_primary>  (88) 
energy

>  <rmsd>  (88) 
5.152222651287081

>  <m_score__min__rmsd>  (88) 
5.152222651287081

>  <meeko>  (88) 
{"free_energy": -7.79, "intermolecular_energy": -9.28, "internal_energy": -1.9, "cluster_size": 4, "cluster_id": 5, "rank_in_cluster": 2}

>  <energy>  (88) 
-8.24

>  <cluster_rmsd>  (88) 
0.49

>  <cluster>  (88) 
3

$$$$

     RDKit          3D

 61 66  0  0  1  0  0  0  0  0999 V2000
  140.1610   74.9540  221.9700 O   0  0  0  0  0  0  0  0  0  0  0  0
  140.9710   75.6610  221.2710 C   0  0  0  0  0  0  0  0  0  0  0  0
  141.0760   77.0490  221.6520 C   0  0  0  0  0  0  0  0  0  0  0  0
  140.8580   78.1970  220.8820 C   0  0  0  0  0  0  0  0  0  0  0  0
  141.0880   79.2790  221.7210 C   0  0  0  0  0  0  0  0  0  0  0  0
  141.0050   80.6240  221.4430 C   0  0  0  0  0  0  0  0  0  0  0  0
  141.2930   81.4960  222.4790 C   0  0  0  0  0  0  0  0  0  0  0  0
  141.6490   81.0240  223.7450 C   0  0  0  0  0  0  0  0  0  0  0  0
  141.7250   79.6620  224.0040 C   0  0  0  0  0  0  0  0  0  0  0  0
  141.4380   78.7890  222.9690 C   0  0  0  0  0  0  0  0  0  0  0  0
  141.4280   77.4310  222.9150 N   0  0  0  0  0  0  0  0  0  0  0  0
  141.6850   75.0580  220.2070 N   0  0  0  0  0  0  0  0  0  0  0  0
  141.9500   73.6170  220.0910 C   0  0  0  0  0  0  0  0  0  0  0  0
  143.3000   73.6160  219.4440 C   0  0  1  0  0  0  0  0  0  0  0  0
  144.4270   73.7490  220.4270 C   0  0  0  0  0  0  0  0  0  0  0  0
  145.6120   73.2510  219.6330 C   0  0  0  0  0  0  0  0  0  0  0  0
  145.0690   72.1980  218.8350 N   0  0  0  0  0  0  0  0  0  0  0  0
  145.5290   70.9390  219.3230 C   0  0  0  0  0  0  0  0  0  0  0  0
  145.6510   69.8590  218.2970 C   0  0  0  0  0  0  0  0  0  0  0  0
  146.1490   68.5560  218.8270 C   0  0  1  0  0  0  0  0  0  0  0  0
  145.1460   67.7690  219.6080 C   0  0  0  0  0  0  0  0  0  0  0  0
  144.1880   67.3210  218.5090 C   0  0  0  0  0  0  0  0  0  0  0  0
  144.9620   67.1850  217.3130 N   0  0  0  0  0  0  0  0  0  0  0  0
  146.3060   67.6440  217.6050 C   0  0  0  0  0  0  0  0  0  0  0  0
  143.6510   72.3270  218.7440 C   0  0  0  0  0  0  0  0  0  0  0  0
  143.2770   74.7860  218.5610 C   0  0  0  0  0  0  0  0  0  0  0  0
  143.9670   75.1950  217.4370 C   0  0  0  0  0  0  0  0  0  0  0  0
  143.7270   76.3880  216.7920 C   0  0  0  0  0  0  0  0  0  0  0  0
  142.7440   77.2090  217.3060 C   0  0  0  0  0  0  0  0  0  0  0  0
  142.0410   76.8250  218.4280 C   0  0  0  0  0  0  0  0  0  0  0  0
  142.2920   75.6260  219.0620 C   0  0  0  0  0  0  0  0  0  0  0  0
  140.5631   78.2346  219.8229 H   0  0  0  0  0  0  0  0  0  0  0  0
  140.7231   80.9893  220.4445 H   0  0  0  0  0  0  0  0  0  0  0  0
  141.2406   82.5804  222.3022 H   0  0  0  0  0  0  0  0  0  0  0  0
  141.8723   81.7418  224.5481 H   0  0  0  0  0  0  0  0  0  0  0  0
  142.0045   79.2886  225.0002 H   0  0  0  0  0  0  0  0  0  0  0  0
  141.6610   76.7950  223.7300 H   0  0  0  0  0  0  0  0  0  0  0  0
  141.9765   73.1321  221.0780 H   0  0  0  0  0  0  0  0  0  0  0  0
  141.1826   73.0623  219.5311 H   0  0  0  0  0  0  0  0  0  0  0  0
  144.5656   74.7962  220.7339 H   0  0  0  0  0  0  0  0  0  0  0  0
  144.2612   73.1948  221.3626 H   0  0  0  0  0  0  0  0  0  0  0  0
  146.0232   74.0507  218.9994 H   0  0  0  0  0  0  0  0  0  0  0  0
  146.4419   72.9157  220.2723 H   0  0  0  0  0  0  0  0  0  0  0  0
  146.5205   71.0918  219.7743 H   0  0  0  0  0  0  0  0  0  0  0  0
  144.7665   70.5939  220.0368 H   0  0  0  0  0  0  0  0  0  0  0  0
  144.6583   69.6927  217.8534 H   0  0  0  0  0  0  0  0  0  0  0  0
  146.3962   70.2048  217.5656 H   0  0  0  0  0  0  0  0  0  0  0  0
  147.0288   68.7980  219.4414 H   0  0  0  0  0  0  0  0  0  0  0  0
  145.6128   66.9084  220.1095 H   0  0  0  0  0  0  0  0  0  0  0  0
  144.6647   68.3354  220.4189 H   0  0  0  0  0  0  0  0  0  0  0  0
  143.7310   66.3566  218.7755 H   0  0  0  0  0  0  0  0  0  0  0  0
  143.3767   68.0511  218.3721 H   0  0  0  0  0  0  0  0  0  0  0  0
  144.9940   66.1760  217.0710 H   0  0  0  0  0  0  0  0  0  0  0  0
  146.9643   66.7939  217.8374 H   0  0  0  0  0  0  0  0  0  0  0  0
  146.7618   68.1669  216.7513 H   0  0  0  0  0  0  0  0  0  0  0  0
  143.3387   72.3681  217.6901 H   0  0  0  0  0  0  0  0  0  0  0  0
  143.1400   71.4687  219.2046 H   0  0  0  0  0  0  0  0  0  0  0  0
  144.7490   74.5336  217.0359 H   0  0  0  0  0  0  0  0  0  0  0  0
  144.2992   76.6765  215.8979 H   0  0  0  0  0  0  0  0  0  0  0  0
  142.5213   78.1704  216.8201 H   0  0  0  0  0  0  0  0  0  0  0  0
  141.2614   77.4906  218.8271 H   0  0  0  0  0  0  0  0  0  0  0  0
  1  2  2  0
  2  3  1  0
  3  4  2  0
  4  5  1  0
  5  6  2  0
  6  7  1  0
  7  8  2  0
  8  9  1  0
  9 10  2  0
 10 11  1  0
  2 12  1  0
 12 13  1  0
 14 13  1  1
 14 15  1  0
 15 16  1  0
 16 17  1  0
 17 18  1  0
 18 19  1  0
 19 20  1  0
 20 21  1  0
 21 22  1  0
 22 23  1  0
 23 24  1  0
 17 25  1  0
 14 26  1  0
 26 27  2  0
 27 28  1  0
 28 29  2  0
 29 30  1  0
 30 31  2  0
 11  3  1  0
 31 12  1  0
 10  5  1  0
 25 14  1  0
 31 26  1  0
 24 20  1  0
  4 32  1  0
  6 33  1  0
  7 34  1  0
  8 35  1  0
  9 36  1  0
 11 37  1  0
 13 38  1  0
 13 39  1  0
 15 40  1  0
 15 41  1  0
 16 42  1  0
 16 43  1  0
 18 44  1  0
 18 45  1  0
 19 46  1  0
 19 47  1  0
 20 48  1  1
 21 49  1  0
 21 50  1  0
 22 51  1  0
 22 52  1  0
 23 53  1  0
 24 54  1  0
 24 55  1  0
 25 56  1  0
 25 57  1  0
 27 58  1  0
 28 59  1  0
 29 60  1  0
 30 61  1  0
M  END
>  <smiles>  (89) 
O=C(c1cc2ccccc2[nH]1)N1C[C@]2(CCN(CCC3CCNC3)C2)c2ccccc21

>  <score_type>  (89) 
oracle

>  <origin>  (89) 
autodockgpu

>  <m_score__min__energy>  (89) 
-9.3000000000000007

>  <m_primary>  (89) 
energy

>  <rmsd>  (89) 
7.518108045016671

>  <m_score__min__rmsd>  (89) 
7.518108045016671

>  <meeko>  (89) 
{"free_energy": -8.58, "intermolecular_energy": -10.07, "internal_energy": -1.16, "cluster_size": 16, "cluster_id": 1, "rank_in_cluster": 11}

>  <energy>  (89) 
-8.16

>  <cluster_rmsd>  (89) 
1.05

>  <cluster>  (89) 
3

$$$$

     RDKit          3D

 61 66  0  0  1  0  0  0  0  0999 V2000
  140.7630   78.3450  219.4400 O   0  0  0  0  0  0  0  0  0  0  0  0
  141.0970   77.8480  220.5750 C   0  0  0  0  0  0  0  0  0  0  0  0
  141.7680   76.5720  220.5230 C   0  0  0  0  0  0  0  0  0  0  0  0
  141.2870   75.3050  220.8730 C   0  0  0  0  0  0  0  0  0  0  0  0
  142.3250   74.4130  220.6350 C   0  0  0  0  0  0  0  0  0  0  0  0
  142.3560   73.0510  220.8170 C   0  0  0  0  0  0  0  0  0  0  0  0
  143.5360   72.4030  220.4960 C   0  0  0  0  0  0  0  0  0  0  0  0
  144.6400   73.1080  220.0080 C   0  0  0  0  0  0  0  0  0  0  0  0
  144.5860   74.4840  219.8310 C   0  0  0  0  0  0  0  0  0  0  0  0
  143.4070   75.1330  220.1520 C   0  0  0  0  0  0  0  0  0  0  0  0
  143.0570   76.4450  220.0890 N   0  0  0  0  0  0  0  0  0  0  0  0
  140.7960   78.5580  221.7630 N   0  0  0  0  0  0  0  0  0  0  0  0
  139.5140   78.4840  222.4770 C   0  0  0  0  0  0  0  0  0  0  0  0
  139.3880   79.8810  223.0010 C   0  0  1  0  0  0  0  0  0  0  0  0
  138.7860   80.8340  222.0100 C   0  0  0  0  0  0  0  0  0  0  0  0
  138.3340   81.9770  222.8880 C   0  0  0  0  0  0  0  0  0  0  0  0
  137.8940   81.3320  224.0850 N   0  0  0  0  0  0  0  0  0  0  0  0
  136.4710   81.3920  224.1670 C   0  0  0  0  0  0  0  0  0  0  0  0
  135.9200   82.5960  224.8620 C   0  0  0  0  0  0  0  0  0  0  0  0
  136.5540   82.8940  226.1790 C   0  0  1  0  0  0  0  0  0  0  0  0
  135.6720   83.6020  227.1570 C   0  0  0  0  0  0  0  0  0  0  0  0
  134.6790   82.5040  227.5220 C   0  0  0  0  0  0  0  0  0  0  0  0
  135.3780   81.2590  227.4140 N   0  0  0  0  0  0  0  0  0  0  0  0
  136.6980   81.5410  226.8860 C   0  0  0  0  0  0  0  0  0  0  0  0
  138.4480   80.0210  224.1730 C   0  0  0  0  0  0  0  0  0  0  0  0
  140.7670   80.2820  223.2940 C   0  0  0  0  0  0  0  0  0  0  0  0
  141.3780   81.2210  224.1010 C   0  0  0  0  0  0  0  0  0  0  0  0
  142.7440   81.3810  224.1780 C   0  0  0  0  0  0  0  0  0  0  0  0
  143.5310   80.5550  223.4040 C   0  0  0  0  0  0  0  0  0  0  0  0
  142.9470   79.6080  222.5890 C   0  0  0  0  0  0  0  0  0  0  0  0
  141.5770   79.4590  222.5230 C   0  0  0  0  0  0  0  0  0  0  0  0
  140.2859   75.0636  221.2597 H   0  0  0  0  0  0  0  0  0  0  0  0
  141.4834   72.5015  221.2000 H   0  0  0  0  0  0  0  0  0  0  0  0
  143.6064   71.3131  220.6273 H   0  0  0  0  0  0  0  0  0  0  0  0
  145.5642   72.5651  219.7608 H   0  0  0  0  0  0  0  0  0  0  0  0
  145.4536   75.0409  219.4475 H   0  0  0  0  0  0  0  0  0  0  0  0
  143.6950   77.2220  219.7570 H   0  0  0  0  0  0  0  0  0  0  0  0
  138.6876   78.2336  221.7956 H   0  0  0  0  0  0  0  0  0  0  0  0
  139.4758   77.7065  223.2542 H   0  0  0  0  0  0  0  0  0  0  0  0
  139.5335   81.1685  221.2756 H   0  0  0  0  0  0  0  0  0  0  0  0
  137.9743   80.3917  221.4138 H   0  0  0  0  0  0  0  0  0  0  0  0
  139.1670   82.6645  223.0965 H   0  0  0  0  0  0  0  0  0  0  0  0
  137.5485   82.5887  222.4202 H   0  0  0  0  0  0  0  0  0  0  0  0
  136.0709   81.3785  223.1424 H   0  0  0  0  0  0  0  0  0  0  0  0
  136.1649   80.5257  224.7718 H   0  0  0  0  0  0  0  0  0  0  0  0
  136.0642   83.4673  224.2062 H   0  0  0  0  0  0  0  0  0  0  0  0
  134.8605   82.3820  225.0660 H   0  0  0  0  0  0  0  0  0  0  0  0
  137.4520   83.4875  225.9525 H   0  0  0  0  0  0  0  0  0  0  0  0
  136.2384   83.9402  228.0372 H   0  0  0  0  0  0  0  0  0  0  0  0
  135.2046   84.5151  226.7598 H   0  0  0  0  0  0  0  0  0  0  0  0
  134.3180   82.6472  228.5512 H   0  0  0  0  0  0  0  0  0  0  0  0
  133.8056   82.5247  226.8536 H   0  0  0  0  0  0  0  0  0  0  0  0
  135.4730   80.8660  228.3700 H   0  0  0  0  0  0  0  0  0  0  0  0
  137.4356   81.6051  227.6995 H   0  0  0  0  0  0  0  0  0  0  0  0
  137.0514   80.7518  226.2061 H   0  0  0  0  0  0  0  0  0  0  0  0
  138.9973   79.9020  225.1186 H   0  0  0  0  0  0  0  0  0  0  0  0
  137.6621   79.2517  224.1503 H   0  0  0  0  0  0  0  0  0  0  0  0
  140.7409   81.8753  224.7142 H   0  0  0  0  0  0  0  0  0  0  0  0
  143.1915   82.1417  224.8345 H   0  0  0  0  0  0  0  0  0  0  0  0
  144.6263   80.6514  223.4365 H   0  0  0  0  0  0  0  0  0  0  0  0
  143.5884   78.9564  221.9774 H   0  0  0  0  0  0  0  0  0  0  0  0
  1  2  2  0
  2  3  1  0
  3  4  2  0
  4  5  1  0
  5  6  2  0
  6  7  1  0
  7  8  2  0
  8  9  1  0
  9 10  2  0
 10 11  1  0
  2 12  1  0
 12 13  1  0
 14 13  1  6
 14 15  1  0
 15 16  1  0
 16 17  1  0
 17 18  1  0
 18 19  1  0
 19 20  1  0
 20 21  1  0
 21 22  1  0
 22 23  1  0
 23 24  1  0
 17 25  1  0
 14 26  1  0
 26 27  2  0
 27 28  1  0
 28 29  2  0
 29 30  1  0
 30 31  2  0
 11  3  1  0
 31 12  1  0
 10  5  1  0
 25 14  1  0
 31 26  1  0
 24 20  1  0
  4 32  1  0
  6 33  1  0
  7 34  1  0
  8 35  1  0
  9 36  1  0
 11 37  1  0
 13 38  1  0
 13 39  1  0
 15 40  1  0
 15 41  1  0
 16 42  1  0
 16 43  1  0
 18 44  1  0
 18 45  1  0
 19 46  1  0
 19 47  1  0
 20 48  1  6
 21 49  1  0
 21 50  1  0
 22 51  1  0
 22 52  1  0
 23 53  1  0
 24 54  1  0
 24 55  1  0
 25 56  1  0
 25 57  1  0
 27 58  1  0
 28 59  1  0
 29 60  1  0
 30 61  1  0
M  END
>  <smiles>  (90) 
O=C(c1cc2ccccc2[nH]1)N1C[C@]2(CCN(CCC3CCNC3)C2)c2ccccc21

>  <score_type>  (90) 
oracle

>  <origin>  (90) 
autodockgpu

>  <m_score__min__energy>  (90) 
-9.3000000000000007

>  <m_primary>  (90) 
energy

>  <rmsd>  (90) 
6.4405347841184

>  <m_score__min__rmsd>  (90) 
6.4405347841184

>  <meeko>  (90) 
{"free_energy": -8.49, "intermolecular_energy": -9.98, "internal_energy": -1.26, "cluster_size": 7, "cluster_id": 2, "rank_in_cluster": 4}

>  <energy>  (90) 
-8.29

>  <cluster_rmsd>  (90) 
0.0

>  <cluster>  (90) 
4

$$$$

     RDKit          3D

 61 66  0  0  1  0  0  0  0  0999 V2000
  138.9030   70.1650  221.7660 O   0  0  0  0  0  0  0  0  0  0  0  0
  139.7890   70.9770  222.2140 C   0  0  0  0  0  0  0  0  0  0  0  0
  140.0010   70.9430  223.6420 C   0  0  0  0  0  0  0  0  0  0  0  0
  140.6720   71.8600  224.4580 C   0  0  0  0  0  0  0  0  0  0  0  0
  140.5880   71.3640  225.7530 C   0  0  0  0  0  0  0  0  0  0  0  0
  141.0870   71.8970  226.9180 C   0  0  0  0  0  0  0  0  0  0  0  0
  140.8550   71.1840  228.0820 C   0  0  0  0  0  0  0  0  0  0  0  0
  140.1430   69.9810  228.0650 C   0  0  0  0  0  0  0  0  0  0  0  0
  139.6460   69.4630  226.8760 C   0  0  0  0  0  0  0  0  0  0  0  0
  139.8780   70.1740  225.7120 C   0  0  0  0  0  0  0  0  0  0  0  0
  139.5270   69.9280  224.4230 N   0  0  0  0  0  0  0  0  0  0  0  0
  140.4780   71.8250  221.3140 N   0  0  0  0  0  0  0  0  0  0  0  0
  141.1640   71.3690  220.0970 C   0  0  0  0  0  0  0  0  0  0  0  0
  142.3240   72.3150  220.0400 C   0  0  1  0  0  0  0  0  0  0  0  0
  143.4920   71.8700  220.8710 C   0  0  0  0  0  0  0  0  0  0  0  0
  144.6310   72.6730  220.2900 C   0  0  0  0  0  0  0  0  0  0  0  0
  144.3300   72.7290  218.8940 N   0  0  0  0  0  0  0  0  0  0  0  0
  145.2380   71.8980  218.1740 C   0  0  0  0  0  0  0  0  0  0  0  0
  145.6480   70.6410  218.8710 C   0  0  0  0  0  0  0  0  0  0  0  0
  144.9930   69.4040  218.3530 C   0  0  1  0  0  0  0  0  0  0  0  0
  145.9230   68.2640  218.0870 C   0  0  0  0  0  0  0  0  0  0  0  0
  146.3110   67.8500  219.5030 C   0  0  0  0  0  0  0  0  0  0  0  0
  145.1910   68.1480  220.3440 N   0  0  0  0  0  0  0  0  0  0  0  0
  144.2010   68.8290  219.5340 C   0  0  0  0  0  0  0  0  0  0  0  0
  142.9490   72.4470  218.6740 C   0  0  0  0  0  0  0  0  0  0  0  0
  141.7900   73.5710  220.5740 C   0  0  0  0  0  0  0  0  0  0  0  0
  142.1260   74.9080  220.4900 C   0  0  0  0  0  0  0  0  0  0  0  0
  141.4200   75.9090  221.1210 C   0  0  0  0  0  0  0  0  0  0  0  0
  140.3230   75.5440  221.8730 C   0  0  0  0  0  0  0  0  0  0  0  0
  139.9660   74.2160  221.9750 C   0  0  0  0  0  0  0  0  0  0  0  0
  140.6830   73.2250  221.3370 C   0  0  0  0  0  0  0  0  0  0  0  0
  141.1673   72.7886  224.1381 H   0  0  0  0  0  0  0  0  0  0  0  0
  141.6444   72.8453  226.9250 H   0  0  0  0  0  0  0  0  0  0  0  0
  141.2379   71.5712  229.0377 H   0  0  0  0  0  0  0  0  0  0  0  0
  139.9741   69.4373  229.0062 H   0  0  0  0  0  0  0  0  0  0  0  0
  139.0853   68.5168  226.8603 H   0  0  0  0  0  0  0  0  0  0  0  0
  138.9790   69.0800  224.1010 H   0  0  0  0  0  0  0  0  0  0  0  0
  141.4998   70.3258  220.1913 H   0  0  0  0  0  0  0  0  0  0  0  0
  140.5333   71.3758  219.1958 H   0  0  0  0  0  0  0  0  0  0  0  0
  143.3382   72.1095  221.9335 H   0  0  0  0  0  0  0  0  0  0  0  0
  143.6620   70.7836  220.8425 H   0  0  0  0  0  0  0  0  0  0  0  0
  144.6610   73.6827  220.7254 H   0  0  0  0  0  0  0  0  0  0  0  0
  145.6151   72.2267  220.4958 H   0  0  0  0  0  0  0  0  0  0  0  0
  144.7609   71.6185  217.2231 H   0  0  0  0  0  0  0  0  0  0  0  0
  146.1572   72.4895  218.0507 H   0  0  0  0  0  0  0  0  0  0  0  0
  146.7363   70.5258  218.7598 H   0  0  0  0  0  0  0  0  0  0  0  0
  145.3315   70.7471  219.9191 H   0  0  0  0  0  0  0  0  0  0  0  0
  144.4622   69.7047  217.4377 H   0  0  0  0  0  0  0  0  0  0  0  0
  145.4145   67.4466  217.5546 H   0  0  0  0  0  0  0  0  0  0  0  0
  146.7783   68.5236  217.4458 H   0  0  0  0  0  0  0  0  0  0  0  0
  146.5325   66.7730  219.5352 H   0  0  0  0  0  0  0  0  0  0  0  0
  147.2100   68.3878  219.8386 H   0  0  0  0  0  0  0  0  0  0  0  0
  144.7970   67.2460  220.6740 H   0  0  0  0  0  0  0  0  0  0  0  0
  143.4360   68.1220  219.1806 H   0  0  0  0  0  0  0  0  0  0  0  0
  143.6679   69.6093  220.0970 H   0  0  0  0  0  0  0  0  0  0  0  0
  142.4762   73.2687  218.1160 H   0  0  0  0  0  0  0  0  0  0  0  0
  142.8165   71.5293  218.0821 H   0  0  0  0  0  0  0  0  0  0  0  0
  143.0029   75.1883  219.8880 H   0  0  0  0  0  0  0  0  0  0  0  0
  141.7210   76.9629  221.0282 H   0  0  0  0  0  0  0  0  0  0  0  0
  139.7322   76.3131  222.3920 H   0  0  0  0  0  0  0  0  0  0  0  0
  139.0891   73.9404  222.5792 H   0  0  0  0  0  0  0  0  0  0  0  0
  1  2  2  0
  2  3  1  0
  3  4  2  0
  4  5  1  0
  5  6  2  0
  6  7  1  0
  7  8  2  0
  8  9  1  0
  9 10  2  0
 10 11  1  0
  2 12  1  0
 12 13  1  0
 14 13  1  6
 14 15  1  0
 15 16  1  0
 16 17  1  0
 17 18  1  0
 18 19  1  0
 19 20  1  0
 20 21  1  0
 21 22  1  0
 22 23  1  0
 23 24  1  0
 17 25  1  0
 14 26  1  0
 26 27  2  0
 27 28  1  0
 28 29  2  0
 29 30  1  0
 30 31  2  0
 11  3  1  0
 31 12  1  0
 10  5  1  0
 25 14  1  0
 31 26  1  0
 24 20  1  0
  4 32  1  0
  6 33  1  0
  7 34  1  0
  8 35  1  0
  9 36  1  0
 11 37  1  0
 13 38  1  0
 13 39  1  0
 15 40  1  0
 15 41  1  0
 16 42  1  0
 16 43  1  0
 18 44  1  0
 18 45  1  0
 19 46  1  0
 19 47  1  0
 20 48  1  6
 21 49  1  0
 21 50  1  0
 22 51  1  0
 22 52  1  0
 23 53  1  0
 24 54  1  0
 24 55  1  0
 25 56  1  0
 25 57  1  0
 27 58  1  0
 28 59  1  0
 29 60  1  0
 30 61  1  0
M  END
>  <smiles>  (91) 
O=C(c1cc2ccccc2[nH]1)N1C[C@]2(CCN(CCC3CCNC3)C2)c2ccccc21

>  <score_type>  (91) 
oracle

>  <origin>  (91) 
autodockgpu

>  <m_score__min__energy>  (91) 
-9.3000000000000007

>  <m_primary>  (91) 
energy

>  <rmsd>  (91) 
4.411548860280691

>  <m_score__min__rmsd>  (91) 
4.411548860280691

>  <meeko>  (91) 
{"free_energy": -8.31, "intermolecular_energy": -9.8, "internal_energy": -1.76, "cluster_size": 16, "cluster_id": 3, "rank_in_cluster": 12}

>  <energy>  (91) 
-8.15

>  <cluster_rmsd>  (91) 
0.33

>  <cluster>  (91) 
4

$$$$

     RDKit          3D

 61 66  0  0  1  0  0  0  0  0999 V2000
  139.9360   74.3340  222.3020 O   0  0  0  0  0  0  0  0  0  0  0  0
  140.6130   75.1950  221.6340 C   0  0  0  0  0  0  0  0  0  0  0  0
  140.5000   76.5610  222.0850 C   0  0  0  0  0  0  0  0  0  0  0  0
  141.4570   77.5820  222.0610 C   0  0  0  0  0  0  0  0  0  0  0  0
  140.8450   78.7040  222.6070 C   0  0  0  0  0  0  0  0  0  0  0  0
  141.3620   79.9620  222.8040 C   0  0  0  0  0  0  0  0  0  0  0  0
  140.5220   80.9010  223.3770 C   0  0  0  0  0  0  0  0  0  0  0  0
  139.2090   80.5770  223.7340 C   0  0  0  0  0  0  0  0  0  0  0  0
  138.7080   79.3000  223.5240 C   0  0  0  0  0  0  0  0  0  0  0  0
  139.5480   78.3600  222.9520 C   0  0  0  0  0  0  0  0  0  0  0  0
  139.3490   77.0540  222.6300 N   0  0  0  0  0  0  0  0  0  0  0  0
  141.3980   74.7670  220.5370 N   0  0  0  0  0  0  0  0  0  0  0  0
  141.7720   73.3700  220.2720 C   0  0  0  0  0  0  0  0  0  0  0  0
  143.1370   73.5380  219.6790 C   0  0  1  0  0  0  0  0  0  0  0  0
  144.2230   73.6380  220.7100 C   0  0  0  0  0  0  0  0  0  0  0  0
  145.4630   73.3170  219.9100 C   0  0  0  0  0  0  0  0  0  0  0  0
  145.0210   72.3250  218.9810 N   0  0  0  0  0  0  0  0  0  0  0  0
  145.5600   71.0540  219.3440 C   0  0  0  0  0  0  0  0  0  0  0  0
  145.5670   70.0270  218.2580 C   0  0  0  0  0  0  0  0  0  0  0  0
  144.6640   68.8640  218.5010 C   0  0  1  0  0  0  0  0  0  0  0  0
  145.1200   67.5760  217.8940 C   0  0  0  0  0  0  0  0  0  0  0  0
  146.3220   67.2350  218.7670 C   0  0  0  0  0  0  0  0  0  0  0  0
  146.0570   67.7730  220.0670 N   0  0  0  0  0  0  0  0  0  0  0  0
  144.8200   68.5230  219.9880 C   0  0  0  0  0  0  0  0  0  0  0  0
  143.6020   72.3630  218.8540 C   0  0  0  0  0  0  0  0  0  0  0  0
  143.0520   74.7940  218.9300 C   0  0  0  0  0  0  0  0  0  0  0  0
  143.7410   75.3750  217.8830 C   0  0  0  0  0  0  0  0  0  0  0  0
  143.4310   76.6130  217.3660 C   0  0  0  0  0  0  0  0  0  0  0  0
  142.3770   77.3000  217.9310 C   0  0  0  0  0  0  0  0  0  0  0  0
  141.6720   76.7440  218.9780 C   0  0  0  0  0  0  0  0  0  0  0  0
  141.9940   75.5020  219.4850 C   0  0  0  0  0  0  0  0  0  0  0  0
  142.4882   77.5106  221.6849 H   0  0  0  0  0  0  0  0  0  0  0  0
  142.3950   80.2110  222.5196 H   0  0  0  0  0  0  0  0  0  0  0  0
  140.8938   81.9208  223.5549 H   0  0  0  0  0  0  0  0  0  0  0  0
  138.5648   81.3448  224.1873 H   0  0  0  0  0  0  0  0  0  0  0  0
  137.6756   79.0427  223.8033 H   0  0  0  0  0  0  0  0  0  0  0  0
  138.4440   76.5270  222.7880 H   0  0  0  0  0  0  0  0  0  0  0  0
  141.8060   72.7795  221.1995 H   0  0  0  0  0  0  0  0  0  0  0  0
  141.0643   72.8293  219.6265 H   0  0  0  0  0  0  0  0  0  0  0  0
  144.2754   74.6511  221.1353 H   0  0  0  0  0  0  0  0  0  0  0  0
  144.0723   72.9715  221.5720 H   0  0  0  0  0  0  0  0  0  0  0  0
  145.8322   74.2098  219.3841 H   0  0  0  0  0  0  0  0  0  0  0  0
  146.2970   72.9706  220.5380 H   0  0  0  0  0  0  0  0  0  0  0  0
  146.5984   71.2071  219.6730 H   0  0  0  0  0  0  0  0  0  0  0  0
  144.9008   70.6587  220.1309 H   0  0  0  0  0  0  0  0  0  0  0  0
  145.2556   70.5142  217.3222 H   0  0  0  0  0  0  0  0  0  0  0  0
  146.5900   69.6252  218.2137 H   0  0  0  0  0  0  0  0  0  0  0  0
  143.6791   69.1604  218.1109 H   0  0  0  0  0  0  0  0  0  0  0  0
  144.3414   66.8020  217.9627 H   0  0  0  0  0  0  0  0  0  0  0  0
  145.3511   67.6439  216.8207 H   0  0  0  0  0  0  0  0  0  0  0  0
  146.4483   66.1440  218.8276 H   0  0  0  0  0  0  0  0  0  0  0  0
  147.2467   67.6574  218.3468 H   0  0  0  0  0  0  0  0  0  0  0  0
  145.9290   66.9750  220.7180 H   0  0  0  0  0  0  0  0  0  0  0  0
  143.9738   67.9128  220.3367 H   0  0  0  0  0  0  0  0  0  0  0  0
  144.8382   69.4225  220.6210 H   0  0  0  0  0  0  0  0  0  0  0  0
  143.3169   72.5001  217.8005 H   0  0  0  0  0  0  0  0  0  0  0  0
  143.1433   71.4245  219.1987 H   0  0  0  0  0  0  0  0  0  0  0  0
  144.5807   74.8199  217.4394 H   0  0  0  0  0  0  0  0  0  0  0  0
  144.0049   77.0398  216.5302 H   0  0  0  0  0  0  0  0  0  0  0  0
  142.0984   78.2922  217.5463 H   0  0  0  0  0  0  0  0  0  0  0  0
  140.8339   77.3036  219.4188 H   0  0  0  0  0  0  0  0  0  0  0  0
  1  2  2  0
  2  3  1  0
  3  4  2  0
  4  5  1  0
  5  6  2  0
  6  7  1  0
  7  8  2  0
  8  9  1  0
  9 10  2  0
 10 11  1  0
  2 12  1  0
 12 13  1  0
 14 13  1  1
 14 15  1  0
 15 16  1  0
 16 17  1  0
 17 18  1  0
 18 19  1  0
 19 20  1  0
 20 21  1  0
 21 22  1  0
 22 23  1  0
 23 24  1  0
 17 25  1  0
 14 26  1  0
 26 27  2  0
 27 28  1  0
 28 29  2  0
 29 30  1  0
 30 31  2  0
 11  3  1  0
 31 12  1  0
 10  5  1  0
 25 14  1  0
 31 26  1  0
 24 20  1  0
  4 32  1  0
  6 33  1  0
  7 34  1  0
  8 35  1  0
  9 36  1  0
 11 37  1  0
 13 38  1  0
 13 39  1  0
 15 40  1  0
 15 41  1  0
 16 42  1  0
 16 43  1  0
 18 44  1  0
 18 45  1  0
 19 46  1  0
 19 47  1  0
 20 48  1  1
 21 49  1  0
 21 50  1  0
 22 51  1  0
 22 52  1  0
 23 53  1  0
 24 54  1  0
 24 55  1  0
 25 56  1  0
 25 57  1  0
 27 58  1  0
 28 59  1  0
 29 60  1  0
 30 61  1  0
M  END
>  <smiles>  (92) 
O=C(c1cc2ccccc2[nH]1)N1C[C@]2(CCN(CCC3CCNC3)C2)c2ccccc21

>  <score_type>  (92) 
oracle

>  <origin>  (92) 
autodockgpu

>  <m_score__min__energy>  (92) 
-9.3000000000000007

>  <m_primary>  (92) 
energy

>  <rmsd>  (92) 
6.899738747979065

>  <m_score__min__rmsd>  (92) 
6.899738747979065

>  <meeko>  (92) 
{"free_energy": -8.69, "intermolecular_energy": -10.18, "internal_energy": -1.42, "cluster_size": 16, "cluster_id": 1, "rank_in_cluster": 9}

>  <energy>  (92) 
-8.18

>  <cluster_rmsd>  (92) 
0.0

>  <cluster>  (92) 
5

$$$$

     RDKit          3D

 61 66  0  0  1  0  0  0  0  0999 V2000
  140.3210   73.7550  222.3280 O   0  0  0  0  0  0  0  0  0  0  0  0
  140.8480   74.6650  221.5940 C   0  0  0  0  0  0  0  0  0  0  0  0
  140.5340   76.0240  221.9660 C   0  0  0  0  0  0  0  0  0  0  0  0
  139.3300   76.5550  222.4420 C   0  0  0  0  0  0  0  0  0  0  0  0
  139.5550   77.9090  222.6510 C   0  0  0  0  0  0  0  0  0  0  0  0
  138.6880   78.8710  223.1140 C   0  0  0  0  0  0  0  0  0  0  0  0
  139.1830   80.1580  223.2260 C   0  0  0  0  0  0  0  0  0  0  0  0
  140.5050   80.4590  222.8850 C   0  0  0  0  0  0  0  0  0  0  0  0
  141.3640   79.4710  222.4210 C   0  0  0  0  0  0  0  0  0  0  0  0
  140.8700   78.1840  222.3080 C   0  0  0  0  0  0  0  0  0  0  0  0
  141.4560   77.0300  221.8920 N   0  0  0  0  0  0  0  0  0  0  0  0
  141.6740   74.2940  220.5060 N   0  0  0  0  0  0  0  0  0  0  0  0
  142.1190   72.9220  220.2260 C   0  0  0  0  0  0  0  0  0  0  0  0
  143.4850   73.1630  219.6620 C   0  0  1  0  0  0  0  0  0  0  0  0
  144.5450   73.2960  220.7170 C   0  0  0  0  0  0  0  0  0  0  0  0
  145.8140   73.0480  219.9360 C   0  0  0  0  0  0  0  0  0  0  0  0
  145.4380   72.0530  218.9830 N   0  0  0  0  0  0  0  0  0  0  0  0
  146.0290   70.8030  219.3350 C   0  0  0  0  0  0  0  0  0  0  0  0
  145.2410   69.5910  218.9540 C   0  0  0  0  0  0  0  0  0  0  0  0
  145.9560   68.2980  219.1640 C   0  0  1  0  0  0  0  0  0  0  0  0
  145.1110   67.1950  219.7180 C   0  0  0  0  0  0  0  0  0  0  0  0
  144.2120   66.8730  218.5290 C   0  0  0  0  0  0  0  0  0  0  0  0
  144.9700   67.1540  217.3470 N   0  0  0  0  0  0  0  0  0  0  0  0
  146.2280   67.7420  217.7610 C   0  0  0  0  0  0  0  0  0  0  0  0
  144.0210   72.0270  218.8270 C   0  0  0  0  0  0  0  0  0  0  0  0
  143.3550   74.4280  218.9330 C   0  0  0  0  0  0  0  0  0  0  0  0
  144.0360   75.0580  217.9100 C   0  0  0  0  0  0  0  0  0  0  0  0
  143.6780   76.2900  217.4070 C   0  0  0  0  0  0  0  0  0  0  0  0
  142.5820   76.9160  217.9630 C   0  0  0  0  0  0  0  0  0  0  0  0
  141.8840   76.3090  218.9860 C   0  0  0  0  0  0  0  0  0  0  0  0
  142.2540   75.0750  219.4780 C   0  0  0  0  0  0  0  0  0  0  0  0
  138.3915   76.0082  222.6160 H   0  0  0  0  0  0  0  0  0  0  0  0
  137.6493   78.6284  223.3828 H   0  0  0  0  0  0  0  0  0  0  0  0
  138.5239   80.9598  223.5903 H   0  0  0  0  0  0  0  0  0  0  0  0
  140.8697   81.4919  222.9855 H   0  0  0  0  0  0  0  0  0  0  0  0
  142.4046   79.7048  222.1518 H   0  0  0  0  0  0  0  0  0  0  0  0
  142.4600   76.9490  221.5660 H   0  0  0  0  0  0  0  0  0  0  0  0
  142.1638   72.3183  221.1445 H   0  0  0  0  0  0  0  0  0  0  0  0
  141.4497   72.3600  219.5580 H   0  0  0  0  0  0  0  0  0  0  0  0
  144.5410   74.3027  221.1603 H   0  0  0  0  0  0  0  0  0  0  0  0
  144.4096   72.6083  221.5648 H   0  0  0  0  0  0  0  0  0  0  0  0
  146.1499   73.9663  219.4321 H   0  0  0  0  0  0  0  0  0  0  0  0
  146.6516   72.7307  220.5746 H   0  0  0  0  0  0  0  0  0  0  0  0
  147.0093   70.7398  218.8400 H   0  0  0  0  0  0  0  0  0  0  0  0
  146.0869   70.7938  220.4334 H   0  0  0  0  0  0  0  0  0  0  0  0
  144.3203   69.5764  219.5558 H   0  0  0  0  0  0  0  0  0  0  0  0
  145.0472   69.6700  217.8741 H   0  0  0  0  0  0  0  0  0  0  0  0
  146.8002   68.5255  219.8315 H   0  0  0  0  0  0  0  0  0  0  0  0
  145.7220   66.3269  220.0063 H   0  0  0  0  0  0  0  0  0  0  0  0
  144.5639   67.4659  220.6330 H   0  0  0  0  0  0  0  0  0  0  0  0
  143.9228   65.8119  218.5497 H   0  0  0  0  0  0  0  0  0  0  0  0
  143.2905   67.4730  218.5580 H   0  0  0  0  0  0  0  0  0  0  0  0
  145.1590   66.2510  216.8710 H   0  0  0  0  0  0  0  0  0  0  0  0
  147.0204   66.9797  217.7929 H   0  0  0  0  0  0  0  0  0  0  0  0
  146.5720   68.5209  217.0646 H   0  0  0  0  0  0  0  0  0  0  0  0
  143.7510   72.1700  217.7703 H   0  0  0  0  0  0  0  0  0  0  0  0
  143.6002   71.0619  219.1457 H   0  0  0  0  0  0  0  0  0  0  0  0
  144.9091   74.5503  217.4743 H   0  0  0  0  0  0  0  0  0  0  0  0
  144.2468   76.7581  216.5901 H   0  0  0  0  0  0  0  0  0  0  0  0
  142.2641   77.9008  217.5900 H   0  0  0  0  0  0  0  0  0  0  0  0
  141.0122   76.8209  219.4194 H   0  0  0  0  0  0  0  0  0  0  0  0
  1  2  2  0
  2  3  1  0
  3  4  2  0
  4  5  1  0
  5  6  2  0
  6  7  1  0
  7  8  2  0
  8  9  1  0
  9 10  2  0
 10 11  1  0
  2 12  1  0
 12 13  1  0
 14 13  1  1
 14 15  1  0
 15 16  1  0
 16 17  1  0
 17 18  1  0
 18 19  1  0
 19 20  1  0
 20 21  1  0
 21 22  1  0
 22 23  1  0
 23 24  1  0
 17 25  1  0
 14 26  1  0
 26 27  2  0
 27 28  1  0
 28 29  2  0
 29 30  1  0
 30 31  2  0
 11  3  1  0
 31 12  1  0
 10  5  1  0
 25 14  1  0
 31 26  1  0
 24 20  1  0
  4 32  1  0
  6 33  1  0
  7 34  1  0
  8 35  1  0
  9 36  1  0
 11 37  1  0
 13 38  1  0
 13 39  1  0
 15 40  1  0
 15 41  1  0
 16 42  1  0
 16 43  1  0
 18 44  1  0
 18 45  1  0
 19 46  1  0
 19 47  1  0
 20 48  1  1
 21 49  1  0
 21 50  1  0
 22 51  1  0
 22 52  1  0
 23 53  1  0
 24 54  1  0
 24 55  1  0
 25 56  1  0
 25 57  1  0
 27 58  1  0
 28 59  1  0
 29 60  1  0
 30 61  1  0
M  END
>  <smiles>  (93) 
O=C(c1cc2ccccc2[nH]1)N1C[C@]2(CCN(CCC3CCNC3)C2)c2ccccc21

>  <score_type>  (93) 
oracle

>  <origin>  (93) 
autodockgpu

>  <m_score__min__energy>  (93) 
-9.3000000000000007

>  <m_primary>  (93) 
energy

>  <rmsd>  (93) 
6.725737363869606

>  <m_score__min__rmsd>  (93) 
6.725737363869606

>  <meeko>  (93) 
{"free_energy": -8.9, "intermolecular_energy": -10.39, "internal_energy": -1.27, "cluster_size": 16, "cluster_id": 1, "rank_in_cluster": 5}

>  <energy>  (93) 
-7.79

>  <cluster_rmsd>  (93) 
1.02

>  <cluster>  (93) 
5

$$$$

     RDKit          3D

 61 66  0  0  1  0  0  0  0  0999 V2000
  141.1230   78.2860  219.3370 O   0  0  0  0  0  0  0  0  0  0  0  0
  141.3350   77.7630  220.4880 C   0  0  0  0  0  0  0  0  0  0  0  0
  141.9770   76.4700  220.4770 C   0  0  0  0  0  0  0  0  0  0  0  0
  141.4540   75.2200  220.8270 C   0  0  0  0  0  0  0  0  0  0  0  0
  142.4780   74.3010  220.6370 C   0  0  0  0  0  0  0  0  0  0  0  0
  142.4700   72.9410  220.8390 C   0  0  0  0  0  0  0  0  0  0  0  0
  143.6440   72.2610  220.5670 C   0  0  0  0  0  0  0  0  0  0  0  0
  144.7810   72.9320  220.1070 C   0  0  0  0  0  0  0  0  0  0  0  0
  144.7660   74.3070  219.9090 C   0  0  0  0  0  0  0  0  0  0  0  0
  143.5920   74.9880  220.1820 C   0  0  0  0  0  0  0  0  0  0  0  0
  143.2760   76.3060  220.0890 N   0  0  0  0  0  0  0  0  0  0  0  0
  140.9400   78.4600  221.6550 N   0  0  0  0  0  0  0  0  0  0  0  0
  139.6150   78.3560  222.2820 C   0  0  0  0  0  0  0  0  0  0  0  0
  139.4230   79.7470  222.8000 C   0  0  1  0  0  0  0  0  0  0  0  0
  138.8670   80.6900  221.7730 C   0  0  0  0  0  0  0  0  0  0  0  0
  138.3320   81.8190  222.6220 C   0  0  0  0  0  0  0  0  0  0  0  0
  137.8280   81.1600  223.7850 N   0  0  0  0  0  0  0  0  0  0  0  0
  136.4020   81.1880  223.7720 C   0  0  0  0  0  0  0  0  0  0  0  0
  135.7490   81.2050  225.1170 C   0  0  0  0  0  0  0  0  0  0  0  0
  135.8210   82.5180  225.8230 C   0  0  1  0  0  0  0  0  0  0  0  0
  134.7410   82.7500  226.8310 C   0  0  0  0  0  0  0  0  0  0  0  0
  135.1360   81.7730  227.9320 C   0  0  0  0  0  0  0  0  0  0  0  0
  136.5620   81.6610  227.8960 N   0  0  0  0  0  0  0  0  0  0  0  0
  137.0340   82.4210  226.7560 C   0  0  0  0  0  0  0  0  0  0  0  0
  138.4040   79.8610  223.9070 C   0  0  0  0  0  0  0  0  0  0  0  0
  140.7700   80.1770  223.1860 C   0  0  0  0  0  0  0  0  0  0  0  0
  141.3050   81.1260  224.0340 C   0  0  0  0  0  0  0  0  0  0  0  0
  142.6590   81.3170  224.2030 C   0  0  0  0  0  0  0  0  0  0  0  0
  143.5140   80.5110  223.4810 C   0  0  0  0  0  0  0  0  0  0  0  0
  143.0070   79.5550  222.6260 C   0  0  0  0  0  0  0  0  0  0  0  0
  141.6490   79.3760  222.4680 C   0  0  0  0  0  0  0  0  0  0  0  0
  140.4347   75.0076  221.1819 H   0  0  0  0  0  0  0  0  0  0  0  0
  141.5722   72.4179  221.2000 H   0  0  0  0  0  0  0  0  0  0  0  0
  143.6834   71.1718  220.7155 H   0  0  0  0  0  0  0  0  0  0  0  0
  145.6996   72.3637  219.8991 H   0  0  0  0  0  0  0  0  0  0  0  0
  145.6587   74.8378  219.5467 H   0  0  0  0  0  0  0  0  0  0  0  0
  143.9440   77.0640  219.7680 H   0  0  0  0  0  0  0  0  0  0  0  0
  138.8416   78.0904  221.5463 H   0  0  0  0  0  0  0  0  0  0  0  0
  139.5427   77.5751  223.0533 H   0  0  0  0  0  0  0  0  0  0  0  0
  139.6540   81.0440  221.0909 H   0  0  0  0  0  0  0  0  0  0  0  0
  138.1071   80.2320  221.1227 H   0  0  0  0  0  0  0  0  0  0  0  0
  139.1337   82.5240  222.8872 H   0  0  0  0  0  0  0  0  0  0  0  0
  137.5658   82.4149  222.1045 H   0  0  0  0  0  0  0  0  0  0  0  0
  136.0851   82.0909  223.2294 H   0  0  0  0  0  0  0  0  0  0  0  0
  136.0846   80.2502  223.2926 H   0  0  0  0  0  0  0  0  0  0  0  0
  134.6887   80.9421  224.9876 H   0  0  0  0  0  0  0  0  0  0  0  0
  136.2978   80.4838  225.7405 H   0  0  0  0  0  0  0  0  0  0  0  0
  135.8009   83.2851  225.0348 H   0  0  0  0  0  0  0  0  0  0  0  0
  134.7470   83.7883  227.1943 H   0  0  0  0  0  0  0  0  0  0  0  0
  133.7239   82.5978  226.4408 H   0  0  0  0  0  0  0  0  0  0  0  0
  134.8111   82.1549  228.9111 H   0  0  0  0  0  0  0  0  0  0  0  0
  134.6600   80.7933  227.7786 H   0  0  0  0  0  0  0  0  0  0  0  0
  136.9340   82.0890  228.7660 H   0  0  0  0  0  0  0  0  0  0  0  0
  137.3646   83.4228  227.0677 H   0  0  0  0  0  0  0  0  0  0  0  0
  137.8974   81.9455  226.2677 H   0  0  0  0  0  0  0  0  0  0  0  0
  138.8914   79.7504  224.8869 H   0  0  0  0  0  0  0  0  0  0  0  0
  137.6390   79.0743  223.8303 H   0  0  0  0  0  0  0  0  0  0  0  0
  140.6137   81.7633  224.6049 H   0  0  0  0  0  0  0  0  0  0  0  0
  143.0444   82.0852  224.8895 H   0  0  0  0  0  0  0  0  0  0  0  0
  144.6023   80.6308  223.5873 H   0  0  0  0  0  0  0  0  0  0  0  0
  143.7023   78.9205  222.0568 H   0  0  0  0  0  0  0  0  0  0  0  0
  1  2  2  0
  2  3  1  0
  3  4  2  0
  4  5  1  0
  5  6  2  0
  6  7  1  0
  7  8  2  0
  8  9  1  0
  9 10  2  0
 10 11  1  0
  2 12  1  0
 12 13  1  0
 14 13  1  6
 14 15  1  0
 15 16  1  0
 16 17  1  0
 17 18  1  0
 18 19  1  0
 19 20  1  0
 20 21  1  0
 21 22  1  0
 22 23  1  0
 23 24  1  0
 17 25  1  0
 14 26  1  0
 26 27  2  0
 27 28  1  0
 28 29  2  0
 29 30  1  0
 30 31  2  0
 11  3  1  0
 31 12  1  0
 10  5  1  0
 25 14  1  0
 31 26  1  0
 24 20  1  0
  4 32  1  0
  6 33  1  0
  7 34  1  0
  8 35  1  0
  9 36  1  0
 11 37  1  0
 13 38  1  0
 13 39  1  0
 15 40  1  0
 15 41  1  0
 16 42  1  0
 16 43  1  0
 18 44  1  0
 18 45  1  0
 19 46  1  0
 19 47  1  0
 20 48  1  6
 21 49  1  0
 21 50  1  0
 22 51  1  0
 22 52  1  0
 23 53  1  0
 24 54  1  0
 24 55  1  0
 25 56  1  0
 25 57  1  0
 27 58  1  0
 28 59  1  0
 29 60  1  0
 30 61  1  0
M  END
>  <smiles>  (94) 
O=C(c1cc2ccccc2[nH]1)N1C[C@]2(CCN(CCC3CCNC3)C2)c2ccccc21

>  <score_type>  (94) 
oracle

>  <origin>  (94) 
autodockgpu

>  <m_score__min__energy>  (94) 
-9.3000000000000007

>  <m_primary>  (94) 
energy

>  <rmsd>  (94) 
6.425873471846173

>  <m_score__min__rmsd>  (94) 
6.425873471846173

>  <meeko>  (94) 
{"free_energy": -8.56, "intermolecular_energy": -10.06, "internal_energy": -1.25, "cluster_size": 7, "cluster_id": 2, "rank_in_cluster": 2}

>  <energy>  (94) 
-7.7

>  <cluster_rmsd>  (94) 
1.16

>  <cluster>  (94) 
5

$$$$

     RDKit          3D

 61 66  0  0  1  0  0  0  0  0999 V2000
  139.6240   75.0190  222.1800 O   0  0  0  0  0  0  0  0  0  0  0  0
  140.5080   75.7270  221.5780 C   0  0  0  0  0  0  0  0  0  0  0  0
  140.6760   77.0710  222.0770 C   0  0  0  0  0  0  0  0  0  0  0  0
  139.8060   77.8390  222.8600 C   0  0  0  0  0  0  0  0  0  0  0  0
  140.4400   79.0570  223.0680 C   0  0  0  0  0  0  0  0  0  0  0  0
  140.0010   80.1520  223.7740 C   0  0  0  0  0  0  0  0  0  0  0  0
  140.8460   81.2480  223.8190 C   0  0  0  0  0  0  0  0  0  0  0  0
  142.0860   81.2330  223.1750 C   0  0  0  0  0  0  0  0  0  0  0  0
  142.5100   80.1140  222.4690 C   0  0  0  0  0  0  0  0  0  0  0  0
  141.6660   79.0190  222.4230 C   0  0  0  0  0  0  0  0  0  0  0  0
  141.7980   77.8060  221.8230 N   0  0  0  0  0  0  0  0  0  0  0  0
  141.2370   75.1670  220.5010 N   0  0  0  0  0  0  0  0  0  0  0  0
  141.3910   73.7260  220.2580 C   0  0  0  0  0  0  0  0  0  0  0  0
  142.7750   73.6690  219.6900 C   0  0  1  0  0  0  0  0  0  0  0  0
  143.8450   73.6110  220.7420 C   0  0  0  0  0  0  0  0  0  0  0  0
  145.0340   73.0900  219.9700 C   0  0  0  0  0  0  0  0  0  0  0  0
  144.4590   72.1670  219.0430 N   0  0  0  0  0  0  0  0  0  0  0  0
  144.7840   70.8330  219.4290 C   0  0  0  0  0  0  0  0  0  0  0  0
  144.8670   69.8430  218.3120 C   0  0  0  0  0  0  0  0  0  0  0  0
  144.2800   68.5070  218.6240 C   0  0  1  0  0  0  0  0  0  0  0  0
  144.9930   67.3470  218.0070 C   0  0  0  0  0  0  0  0  0  0  0  0
  146.2880   67.3220  218.8110 C   0  0  0  0  0  0  0  0  0  0  0  0
  145.9750   67.8180  220.1180 N   0  0  0  0  0  0  0  0  0  0  0  0
  144.5930   68.2530  220.1030 C   0  0  0  0  0  0  0  0  0  0  0  0
  143.0650   72.4260  218.8870 C   0  0  0  0  0  0  0  0  0  0  0  0
  142.9030   74.9140  218.9270 C   0  0  0  0  0  0  0  0  0  0  0  0
  143.6930   75.3650  217.8890 C   0  0  0  0  0  0  0  0  0  0  0  0
  143.5920   76.6300  217.3530 C   0  0  0  0  0  0  0  0  0  0  0  0
  142.6480   77.4810  217.8900 C   0  0  0  0  0  0  0  0  0  0  0  0
  141.8460   77.0560  218.9280 C   0  0  0  0  0  0  0  0  0  0  0  0
  141.9590   75.7850  219.4540 C   0  0  0  0  0  0  0  0  0  0  0  0
  138.8170   77.5377  223.2357 H   0  0  0  0  0  0  0  0  0  0  0  0
  139.0241   80.1572  224.2795 H   0  0  0  0  0  0  0  0  0  0  0  0
  140.5355   82.1469  224.3718 H   0  0  0  0  0  0  0  0  0  0  0  0
  142.7354   82.1193  223.2277 H   0  0  0  0  0  0  0  0  0  0  0  0
  143.4863   80.0993  221.9624 H   0  0  0  0  0  0  0  0  0  0  0  0
  142.6410   77.5050  221.2560 H   0  0  0  0  0  0  0  0  0  0  0  0
  141.3153   73.1500  221.1921 H   0  0  0  0  0  0  0  0  0  0  0  0
  140.6184   73.2949  219.6044 H   0  0  0  0  0  0  0  0  0  0  0  0
  144.0476   74.6088  221.1585 H   0  0  0  0  0  0  0  0  0  0  0  0
  143.5762   72.9871  221.6072 H   0  0  0  0  0  0  0  0  0  0  0  0
  145.5475   73.9072  219.4422 H   0  0  0  0  0  0  0  0  0  0  0  0
  145.7925   72.6263  220.6178 H   0  0  0  0  0  0  0  0  0  0  0  0
  145.7600   70.8549  219.9359 H   0  0  0  0  0  0  0  0  0  0  0  0
  143.9584   70.4946  220.0723 H   0  0  0  0  0  0  0  0  0  0  0  0
  144.3335   70.2585  217.4444 H   0  0  0  0  0  0  0  0  0  0  0  0
  145.9373   69.6772  218.1200 H   0  0  0  0  0  0  0  0  0  0  0  0
  143.2330   68.5522  218.2898 H   0  0  0  0  0  0  0  0  0  0  0  0
  144.4246   66.4136  218.1320 H   0  0  0  0  0  0  0  0  0  0  0  0
  145.1417   67.4387  216.9210 H   0  0  0  0  0  0  0  0  0  0  0  0
  146.6717   66.2933  218.8785 H   0  0  0  0  0  0  0  0  0  0  0  0
  147.0621   67.9383  218.3305 H   0  0  0  0  0  0  0  0  0  0  0  0
  146.0760   67.0290  220.7860 H   0  0  0  0  0  0  0  0  0  0  0  0
  143.9357   67.4703  220.5096 H   0  0  0  0  0  0  0  0  0  0  0  0
  144.4321   69.1481  220.7217 H   0  0  0  0  0  0  0  0  0  0  0  0
  142.8245   72.5925  217.8266 H   0  0  0  0  0  0  0  0  0  0  0  0
  142.4585   71.5756  219.2320 H   0  0  0  0  0  0  0  0  0  0  0  0
  144.4423   74.6786  217.4678 H   0  0  0  0  0  0  0  0  0  0  0  0
  144.2417   76.9506  216.5253 H   0  0  0  0  0  0  0  0  0  0  0  0
  142.5351   78.4994  217.4897 H   0  0  0  0  0  0  0  0  0  0  0  0
  141.0986   77.7461  219.3466 H   0  0  0  0  0  0  0  0  0  0  0  0
  1  2  2  0
  2  3  1  0
  3  4  2  0
  4  5  1  0
  5  6  2  0
  6  7  1  0
  7  8  2  0
  8  9  1  0
  9 10  2  0
 10 11  1  0
  2 12  1  0
 12 13  1  0
 14 13  1  1
 14 15  1  0
 15 16  1  0
 16 17  1  0
 17 18  1  0
 18 19  1  0
 19 20  1  0
 20 21  1  0
 21 22  1  0
 22 23  1  0
 23 24  1  0
 17 25  1  0
 14 26  1  0
 26 27  2  0
 27 28  1  0
 28 29  2  0
 29 30  1  0
 30 31  2  0
 11  3  1  0
 31 12  1  0
 10  5  1  0
 25 14  1  0
 31 26  1  0
 24 20  1  0
  4 32  1  0
  6 33  1  0
  7 34  1  0
  8 35  1  0
  9 36  1  0
 11 37  1  0
 13 38  1  0
 13 39  1  0
 15 40  1  0
 15 41  1  0
 16 42  1  0
 16 43  1  0
 18 44  1  0
 18 45  1  0
 19 46  1  0
 19 47  1  0
 20 48  1  1
 21 49  1  0
 21 50  1  0
 22 51  1  0
 22 52  1  0
 23 53  1  0
 24 54  1  0
 24 55  1  0
 25 56  1  0
 25 57  1  0
 27 58  1  0
 28 59  1  0
 29 60  1  0
 30 61  1  0
M  END
>  <smiles>  (95) 
O=C(c1cc2ccccc2[nH]1)N1C[C@]2(CCN(CCC3CCNC3)C2)c2ccccc21

>  <score_type>  (95) 
oracle

>  <origin>  (95) 
autodockgpu

>  <m_score__min__energy>  (95) 
-9.3000000000000007

>  <m_primary>  (95) 
energy

>  <rmsd>  (95) 
7.294525153330443

>  <m_score__min__rmsd>  (95) 
7.294525153330443

>  <meeko>  (95) 
{"free_energy": -9.0, "intermolecular_energy": -10.5, "internal_energy": -1.26, "cluster_size": 16, "cluster_id": 1, "rank_in_cluster": 3}

>  <energy>  (95) 
-7.7

>  <cluster_rmsd>  (95) 
1.15

>  <cluster>  (95) 
5

$$$$

     RDKit          3D

 61 66  0  0  1  0  0  0  0  0999 V2000
  140.2790   73.7790  222.3080 O   0  0  0  0  0  0  0  0  0  0  0  0
  140.8140   74.6900  221.5800 C   0  0  0  0  0  0  0  0  0  0  0  0
  140.5050   76.0490  221.9550 C   0  0  0  0  0  0  0  0  0  0  0  0
  139.3000   76.5850  222.4210 C   0  0  0  0  0  0  0  0  0  0  0  0
  139.5320   77.9380  222.6380 C   0  0  0  0  0  0  0  0  0  0  0  0
  138.6660   78.9030  223.0960 C   0  0  0  0  0  0  0  0  0  0  0  0
  139.1690   80.1870  223.2190 C   0  0  0  0  0  0  0  0  0  0  0  0
  140.4960   80.4800  222.8920 C   0  0  0  0  0  0  0  0  0  0  0  0
  141.3530   79.4890  222.4320 C   0  0  0  0  0  0  0  0  0  0  0  0
  140.8520   78.2050  222.3080 C   0  0  0  0  0  0  0  0  0  0  0  0
  141.4340   77.0490  221.8940 N   0  0  0  0  0  0  0  0  0  0  0  0
  141.6440   74.3180  220.4950 N   0  0  0  0  0  0  0  0  0  0  0  0
  142.0670   72.9410  220.2010 C   0  0  0  0  0  0  0  0  0  0  0  0
  143.4420   73.1660  219.6540 C   0  0  1  0  0  0  0  0  0  0  0  0
  144.4950   73.2670  220.7190 C   0  0  0  0  0  0  0  0  0  0  0  0
  145.7670   73.0060  219.9480 C   0  0  0  0  0  0  0  0  0  0  0  0
  145.3820   72.0300  218.9780 N   0  0  0  0  0  0  0  0  0  0  0  0
  145.9480   70.7650  219.3200 C   0  0  0  0  0  0  0  0  0  0  0  0
  145.2940   69.5780  218.6880 C   0  0  0  0  0  0  0  0  0  0  0  0
  144.9420   68.4860  219.6420 C   0  0  1  0  0  0  0  0  0  0  0  0
  144.3020   67.2870  219.0180 C   0  0  0  0  0  0  0  0  0  0  0  0
  145.4740   66.6790  218.2540 C   0  0  0  0  0  0  0  0  0  0  0  0
  146.6600   67.0020  218.9870 N   0  0  0  0  0  0  0  0  0  0  0  0
  146.2770   67.8730  220.0810 C   0  0  0  0  0  0  0  0  0  0  0  0
  143.9660   72.0300  218.8090 C   0  0  0  0  0  0  0  0  0  0  0  0
  143.3420   74.4410  218.9390 C   0  0  0  0  0  0  0  0  0  0  0  0
  144.0430   75.0730  217.9310 C   0  0  0  0  0  0  0  0  0  0  0  0
  143.7110   76.3160  217.4400 C   0  0  0  0  0  0  0  0  0  0  0  0
  142.6210   76.9540  217.9930 C   0  0  0  0  0  0  0  0  0  0  0  0
  141.9030   76.3470  219.0020 C   0  0  0  0  0  0  0  0  0  0  0  0
  142.2470   75.1000  219.4820 C   0  0  0  0  0  0  0  0  0  0  0  0
  138.3565   76.0434  222.5834 H   0  0  0  0  0  0  0  0  0  0  0  0
  137.6229   78.6660  223.3525 H   0  0  0  0  0  0  0  0  0  0  0  0
  138.5120   80.9916  223.5808 H   0  0  0  0  0  0  0  0  0  0  0  0
  140.8666   81.5100  223.0006 H   0  0  0  0  0  0  0  0  0  0  0  0
  142.3977   79.7175  222.1742 H   0  0  0  0  0  0  0  0  0  0  0  0
  142.4410   76.9630  221.5770 H   0  0  0  0  0  0  0  0  0  0  0  0
  142.0920   72.3245  221.1117 H   0  0  0  0  0  0  0  0  0  0  0  0
  141.3945   72.3994  219.5195 H   0  0  0  0  0  0  0  0  0  0  0  0
  144.5048   74.2682  221.1745 H   0  0  0  0  0  0  0  0  0  0  0  0
  144.3395   72.5708  221.5563 H   0  0  0  0  0  0  0  0  0  0  0  0
  146.1249   73.9243  219.4595 H   0  0  0  0  0  0  0  0  0  0  0  0
  146.5922   72.6653  220.5906 H   0  0  0  0  0  0  0  0  0  0  0  0
  147.0049   70.7725  219.0153 H   0  0  0  0  0  0  0  0  0  0  0  0
  145.8014   70.6504  220.4042 H   0  0  0  0  0  0  0  0  0  0  0  0
  144.3700   69.9159  218.1961 H   0  0  0  0  0  0  0  0  0  0  0  0
  146.0256   69.1551  217.9837 H   0  0  0  0  0  0  0  0  0  0  0  0
  144.2807   68.9437  220.3925 H   0  0  0  0  0  0  0  0  0  0  0  0
  143.9171   66.5943  219.7809 H   0  0  0  0  0  0  0  0  0  0  0  0
  143.4299   67.5204  218.3895 H   0  0  0  0  0  0  0  0  0  0  0  0
  145.3563   65.5874  218.1868 H   0  0  0  0  0  0  0  0  0  0  0  0
  145.5242   67.0753  217.2291 H   0  0  0  0  0  0  0  0  0  0  0  0
  147.0400   66.1180  219.3760 H   0  0  0  0  0  0  0  0  0  0  0  0
  146.1525   67.2971  221.0099 H   0  0  0  0  0  0  0  0  0  0  0  0
  147.0383   68.6393  220.2887 H   0  0  0  0  0  0  0  0  0  0  0  0
  143.7080   72.1904  217.7518 H   0  0  0  0  0  0  0  0  0  0  0  0
  143.5258   71.0685  219.1118 H   0  0  0  0  0  0  0  0  0  0  0  0
  144.9121   74.5565  217.4976 H   0  0  0  0  0  0  0  0  0  0  0  0
  144.2955   76.7839  216.6341 H   0  0  0  0  0  0  0  0  0  0  0  0
  142.3236   77.9485  217.6289 H   0  0  0  0  0  0  0  0  0  0  0  0
  141.0364   76.8689  219.4339 H   0  0  0  0  0  0  0  0  0  0  0  0
  1  2  2  0
  2  3  1  0
  3  4  2  0
  4  5  1  0
  5  6  2  0
  6  7  1  0
  7  8  2  0
  8  9  1  0
  9 10  2  0
 10 11  1  0
  2 12  1  0
 12 13  1  0
 14 13  1  1
 14 15  1  0
 15 16  1  0
 16 17  1  0
 17 18  1  0
 18 19  1  0
 19 20  1  0
 20 21  1  0
 21 22  1  0
 22 23  1  0
 23 24  1  0
 17 25  1  0
 14 26  1  0
 26 27  2  0
 27 28  1  0
 28 29  2  0
 29 30  1  0
 30 31  2  0
 11  3  1  0
 31 12  1  0
 10  5  1  0
 25 14  1  0
 31 26  1  0
 24 20  1  0
  4 32  1  0
  6 33  1  0
  7 34  1  0
  8 35  1  0
  9 36  1  0
 11 37  1  0
 13 38  1  0
 13 39  1  0
 15 40  1  0
 15 41  1  0
 16 42  1  0
 16 43  1  0
 18 44  1  0
 18 45  1  0
 19 46  1  0
 19 47  1  0
 20 48  1  1
 21 49  1  0
 21 50  1  0
 22 51  1  0
 22 52  1  0
 23 53  1  0
 24 54  1  0
 24 55  1  0
 25 56  1  0
 25 57  1  0
 27 58  1  0
 28 59  1  0
 29 60  1  0
 30 61  1  0
M  END
>  <smiles>  (96) 
O=C(c1cc2ccccc2[nH]1)N1C[C@]2(CCN(CCC3CCNC3)C2)c2ccccc21

>  <score_type>  (96) 
oracle

>  <origin>  (96) 
autodockgpu

>  <m_score__min__energy>  (96) 
-9.3000000000000007

>  <m_primary>  (96) 
energy

>  <rmsd>  (96) 
6.737910412483495

>  <m_score__min__rmsd>  (96) 
6.737910412483495

>  <meeko>  (96) 
{"free_energy": -9.03, "intermolecular_energy": -10.53, "internal_energy": -1.31, "cluster_size": 16, "cluster_id": 1, "rank_in_cluster": 2}

>  <energy>  (96) 
-8.08

>  <cluster_rmsd>  (96) 
0.0

>  <cluster>  (96) 
6

$$$$

     RDKit          3D

 61 66  0  0  1  0  0  0  0  0999 V2000
  139.7000   77.6870  219.6640 O   0  0  0  0  0  0  0  0  0  0  0  0
  140.4050   77.4670  220.7120 C   0  0  0  0  0  0  0  0  0  0  0  0
  141.2970   76.3350  220.6390 C   0  0  0  0  0  0  0  0  0  0  0  0
  141.0280   74.9810  220.8720 C   0  0  0  0  0  0  0  0  0  0  0  0
  142.2230   74.3050  220.6650 C   0  0  0  0  0  0  0  0  0  0  0  0
  142.4850   72.9580  220.7670 C   0  0  0  0  0  0  0  0  0  0  0  0
  143.7820   72.5520  220.5040 C   0  0  0  0  0  0  0  0  0  0  0  0
  144.7720   73.4720  220.1490 C   0  0  0  0  0  0  0  0  0  0  0  0
  144.4840   74.8270  220.0500 C   0  0  0  0  0  0  0  0  0  0  0  0
  143.1880   75.2350  220.3150 C   0  0  0  0  0  0  0  0  0  0  0  0
  142.6140   76.4670  220.3020 N   0  0  0  0  0  0  0  0  0  0  0  0
  140.2690   78.3190  221.8350 N   0  0  0  0  0  0  0  0  0  0  0  0
  139.0520   78.4350  222.6520 C   0  0  0  0  0  0  0  0  0  0  0  0
  139.0870   79.8840  223.0290 C   0  0  1  0  0  0  0  0  0  0  0  0
  138.4810   80.7810  221.9890 C   0  0  0  0  0  0  0  0  0  0  0  0
  138.2020   82.0440  222.7690 C   0  0  0  0  0  0  0  0  0  0  0  0
  137.8180   81.5670  224.0610 N   0  0  0  0  0  0  0  0  0  0  0  0
  136.4180   81.7640  224.2480 C   0  0  0  0  0  0  0  0  0  0  0  0
  136.0430   82.9350  225.0980 C   0  0  0  0  0  0  0  0  0  0  0  0
  136.5780   82.8840  226.4910 C   0  0  1  0  0  0  0  0  0  0  0  0
  135.6610   83.4310  227.5380 C   0  0  0  0  0  0  0  0  0  0  0  0
  134.5700   82.3670  227.5750 C   0  0  0  0  0  0  0  0  0  0  0  0
  135.1920   81.1220  227.2400 N   0  0  0  0  0  0  0  0  0  0  0  0
  136.5690   81.4010  226.8830 C   0  0  0  0  0  0  0  0  0  0  0  0
  138.2680   80.2270  224.2480 C   0  0  0  0  0  0  0  0  0  0  0  0
  140.5150   80.1860  223.1670 C   0  0  0  0  0  0  0  0  0  0  0  0
  141.2690   81.1430  223.8150 C   0  0  0  0  0  0  0  0  0  0  0  0
  142.6450   81.1860  223.7670 C   0  0  0  0  0  0  0  0  0  0  0  0
  143.2910   80.2170  223.0280 C   0  0  0  0  0  0  0  0  0  0  0  0
  142.5630   79.2490  222.3700 C   0  0  0  0  0  0  0  0  0  0  0  0
  141.1850   79.2190  222.4290 C   0  0  0  0  0  0  0  0  0  0  0  0
  140.0625   74.5405  221.1613 H   0  0  0  0  0  0  0  0  0  0  0  0
  141.7010   72.2380  221.0444 H   0  0  0  0  0  0  0  0  0  0  0  0
  144.0382   71.4847  220.5758 H   0  0  0  0  0  0  0  0  0  0  0  0
  145.7934   73.1182  219.9452 H   0  0  0  0  0  0  0  0  0  0  0  0
  145.2613   75.5532  219.7698 H   0  0  0  0  0  0  0  0  0  0  0  0
  143.1230   77.3660  220.0700 H   0  0  0  0  0  0  0  0  0  0  0  0
  138.1513   78.1925  222.0690 H   0  0  0  0  0  0  0  0  0  0  0  0
  139.0189   77.7475  223.5100 H   0  0  0  0  0  0  0  0  0  0  0  0
  139.1867   80.9694  221.1665 H   0  0  0  0  0  0  0  0  0  0  0  0
  137.5872   80.3552  221.5096 H   0  0  0  0  0  0  0  0  0  0  0  0
  139.1030   82.6716  222.8345 H   0  0  0  0  0  0  0  0  0  0  0  0
  137.4306   82.6727  222.3003 H   0  0  0  0  0  0  0  0  0  0  0  0
  135.9596   81.9029  223.2577 H   0  0  0  0  0  0  0  0  0  0  0  0
  136.0554   80.8734  224.7821 H   0  0  0  0  0  0  0  0  0  0  0  0
  136.4259   83.8465  224.6158 H   0  0  0  0  0  0  0  0  0  0  0  0
  134.9463   82.9223  225.1828 H   0  0  0  0  0  0  0  0  0  0  0  0
  137.5294   83.4357  226.4689 H   0  0  0  0  0  0  0  0  0  0  0  0
  136.1686   83.5196  228.5098 H   0  0  0  0  0  0  0  0  0  0  0  0
  135.2910   84.4445  227.3240 H   0  0  0  0  0  0  0  0  0  0  0  0
  134.1300   82.3113  228.5816 H   0  0  0  0  0  0  0  0  0  0  0  0
  133.7623   82.6065  226.8678 H   0  0  0  0  0  0  0  0  0  0  0  0
  135.1770   80.5230  228.0880 H   0  0  0  0  0  0  0  0  0  0  0  0
  137.2355   81.2224  227.7397 H   0  0  0  0  0  0  0  0  0  0  0  0
  136.9268   80.7536  226.0688 H   0  0  0  0  0  0  0  0  0  0  0  0
  138.8861   80.1554  225.1551 H   0  0  0  0  0  0  0  0  0  0  0  0
  137.4228   79.5339  224.3709 H   0  0  0  0  0  0  0  0  0  0  0  0
  140.7437   81.9118  224.4006 H   0  0  0  0  0  0  0  0  0  0  0  0
  143.2090   81.9660  224.2995 H   0  0  0  0  0  0  0  0  0  0  0  0
  144.3891   80.2167  222.9636 H   0  0  0  0  0  0  0  0  0  0  0  0
  143.0928   78.4831  221.7846 H   0  0  0  0  0  0  0  0  0  0  0  0
  1  2  2  0
  2  3  1  0
  3  4  2  0
  4  5  1  0
  5  6  2  0
  6  7  1  0
  7  8  2  0
  8  9  1  0
  9 10  2  0
 10 11  1  0
  2 12  1  0
 12 13  1  0
 14 13  1  6
 14 15  1  0
 15 16  1  0
 16 17  1  0
 17 18  1  0
 18 19  1  0
 19 20  1  0
 20 21  1  0
 21 22  1  0
 22 23  1  0
 23 24  1  0
 17 25  1  0
 14 26  1  0
 26 27  2  0
 27 28  1  0
 28 29  2  0
 29 30  1  0
 30 31  2  0
 11  3  1  0
 31 12  1  0
 10  5  1  0
 25 14  1  0
 31 26  1  0
 24 20  1  0
  4 32  1  0
  6 33  1  0
  7 34  1  0
  8 35  1  0
  9 36  1  0
 11 37  1  0
 13 38  1  0
 13 39  1  0
 15 40  1  0
 15 41  1  0
 16 42  1  0
 16 43  1  0
 18 44  1  0
 18 45  1  0
 19 46  1  0
 19 47  1  0
 20 48  1  6
 21 49  1  0
 21 50  1  0
 22 51  1  0
 22 52  1  0
 23 53  1  0
 24 54  1  0
 24 55  1  0
 25 56  1  0
 25 57  1  0
 27 58  1  0
 28 59  1  0
 29 60  1  0
 30 61  1  0
M  END
>  <smiles>  (97) 
O=C(c1cc2ccccc2[nH]1)N1C[C@]2(CCN(CCC3CCNC3)C2)c2ccccc21

>  <score_type>  (97) 
oracle

>  <origin>  (97) 
autodockgpu

>  <m_score__min__energy>  (97) 
-9.3000000000000007

>  <m_primary>  (97) 
energy

>  <rmsd>  (97) 
6.288143057706343

>  <m_score__min__rmsd>  (97) 
6.288143057706343

>  <meeko>  (97) 
{"free_energy": -8.44, "intermolecular_energy": -9.93, "internal_energy": -1.27, "cluster_size": 7, "cluster_id": 2, "rank_in_cluster": 5}

>  <energy>  (97) 
-8.07

>  <cluster_rmsd>  (97) 
0.16

>  <cluster>  (97) 
6

$$$$

     RDKit          3D

 61 66  0  0  1  0  0  0  0  0999 V2000
  139.2660   69.3100  222.0670 O   0  0  0  0  0  0  0  0  0  0  0  0
  139.5370   70.4800  222.5170 C   0  0  0  0  0  0  0  0  0  0  0  0
  139.9010   70.5430  223.9120 C   0  0  0  0  0  0  0  0  0  0  0  0
  140.3500   71.6370  224.6600 C   0  0  0  0  0  0  0  0  0  0  0  0
  140.5570   71.1680  225.9510 C   0  0  0  0  0  0  0  0  0  0  0  0
  140.9960   71.8520  227.0610 C   0  0  0  0  0  0  0  0  0  0  0  0
  141.1140   71.1280  228.2350 C   0  0  0  0  0  0  0  0  0  0  0  0
  140.7980   69.7670  228.2830 C   0  0  0  0  0  0  0  0  0  0  0  0
  140.3550   69.0970  227.1500 C   0  0  0  0  0  0  0  0  0  0  0  0
  140.2380   69.8190  225.9750 C   0  0  0  0  0  0  0  0  0  0  0  0
  139.8400   69.4500  224.7290 N   0  0  0  0  0  0  0  0  0  0  0  0
  139.4650   71.5960  221.6480 N   0  0  0  0  0  0  0  0  0  0  0  0
  140.4230   71.8780  220.5700 C   0  0  0  0  0  0  0  0  0  0  0  0
  140.4550   73.3750  220.5880 C   0  0  1  0  0  0  0  0  0  0  0  0
  141.4180   73.9340  221.5960 C   0  0  0  0  0  0  0  0  0  0  0  0
  141.6200   75.3480  221.1040 C   0  0  0  0  0  0  0  0  0  0  0  0
  141.5870   75.2210  219.6810 N   0  0  0  0  0  0  0  0  0  0  0  0
  142.8990   75.4040  219.1520 C   0  0  0  0  0  0  0  0  0  0  0  0
  143.7280   74.1640  219.0500 C   0  0  0  0  0  0  0  0  0  0  0  0
  144.2720   73.6750  220.3510 C   0  0  1  0  0  0  0  0  0  0  0  0
  143.9300   72.2570  220.6830 C   0  0  0  0  0  0  0  0  0  0  0  0
  144.7800   71.4940  219.6740 C   0  0  0  0  0  0  0  0  0  0  0  0
  145.9470   72.2860  219.4300 N   0  0  0  0  0  0  0  0  0  0  0  0
  145.7850   73.5380  220.1420 C   0  0  0  0  0  0  0  0  0  0  0  0
  140.9510   74.0000  219.3080 C   0  0  0  0  0  0  0  0  0  0  0  0
  139.0880   73.7610  220.9480 C   0  0  0  0  0  0  0  0  0  0  0  0
  138.3030   74.8870  220.8010 C   0  0  0  0  0  0  0  0  0  0  0  0
  137.0050   74.9710  221.2540 C   0  0  0  0  0  0  0  0  0  0  0  0
  136.4730   73.8670  221.8860 C   0  0  0  0  0  0  0  0  0  0  0  0
  137.2350   72.7280  222.0460 C   0  0  0  0  0  0  0  0  0  0  0  0
  138.5330   72.6590  221.5860 C   0  0  0  0  0  0  0  0  0  0  0  0
  140.5076   72.6637  224.2979 H   0  0  0  0  0  0  0  0  0  0  0  0
  141.2416   72.9234  227.0177 H   0  0  0  0  0  0  0  0  0  0  0  0
  141.4631   71.6333  229.1476 H   0  0  0  0  0  0  0  0  0  0  0  0
  140.9017   69.2192  229.2313 H   0  0  0  0  0  0  0  0  0  0  0  0
  140.1050   68.0264  227.1853 H   0  0  0  0  0  0  0  0  0  0  0  0
  139.5400   68.4710  224.4590 H   0  0  0  0  0  0  0  0  0  0  0  0
  141.4129   71.4517  220.7897 H   0  0  0  0  0  0  0  0  0  0  0  0
  140.1458   71.4456  219.5973 H   0  0  0  0  0  0  0  0  0  0  0  0
  140.9861   73.9227  222.6076 H   0  0  0  0  0  0  0  0  0  0  0  0
  142.3525   73.3593  221.6761 H   0  0  0  0  0  0  0  0  0  0  0  0
  140.8120   76.0053  221.4577 H   0  0  0  0  0  0  0  0  0  0  0  0
  142.5555   75.7965  221.4698 H   0  0  0  0  0  0  0  0  0  0  0  0
  142.8016   75.8310  218.1430 H   0  0  0  0  0  0  0  0  0  0  0  0
  143.4229   76.0614  219.8615 H   0  0  0  0  0  0  0  0  0  0  0  0
  143.1040   73.3680  218.6175 H   0  0  0  0  0  0  0  0  0  0  0  0
  144.5957   74.4182  218.4236 H   0  0  0  0  0  0  0  0  0  0  0  0
  143.8888   74.3659  221.1164 H   0  0  0  0  0  0  0  0  0  0  0  0
  144.2123   72.0072  221.7164 H   0  0  0  0  0  0  0  0  0  0  0  0
  142.8552   72.0302  220.6258 H   0  0  0  0  0  0  0  0  0  0  0  0
  145.0666   70.5146  220.0847 H   0  0  0  0  0  0  0  0  0  0  0  0
  144.2220   71.3178  218.7426 H   0  0  0  0  0  0  0  0  0  0  0  0
  146.7620   71.7760  219.8220 H   0  0  0  0  0  0  0  0  0  0  0  0
  146.3086   73.5048  221.1088 H   0  0  0  0  0  0  0  0  0  0  0  0
  146.2070   74.3893  219.5877 H   0  0  0  0  0  0  0  0  0  0  0  0
  140.1082   74.2007  218.6302 H   0  0  0  0  0  0  0  0  0  0  0  0
  141.6462   73.3315  218.7790 H   0  0  0  0  0  0  0  0  0  0  0  0
  138.7366   75.7626  220.2958 H   0  0  0  0  0  0  0  0  0  0  0  0
  136.4129   75.8877  221.1163 H   0  0  0  0  0  0  0  0  0  0  0  0
  135.4400   73.8944  222.2630 H   0  0  0  0  0  0  0  0  0  0  0  0
  136.7970   71.8550  222.5521 H   0  0  0  0  0  0  0  0  0  0  0  0
  1  2  2  0
  2  3  1  0
  3  4  2  0
  4  5  1  0
  5  6  2  0
  6  7  1  0
  7  8  2  0
  8  9  1  0
  9 10  2  0
 10 11  1  0
  2 12  1  0
 12 13  1  0
 14 13  1  6
 14 15  1  0
 15 16  1  0
 16 17  1  0
 17 18  1  0
 18 19  1  0
 19 20  1  0
 20 21  1  0
 21 22  1  0
 22 23  1  0
 23 24  1  0
 17 25  1  0
 14 26  1  0
 26 27  2  0
 27 28  1  0
 28 29  2  0
 29 30  1  0
 30 31  2  0
 11  3  1  0
 31 12  1  0
 10  5  1  0
 25 14  1  0
 31 26  1  0
 24 20  1  0
  4 32  1  0
  6 33  1  0
  7 34  1  0
  8 35  1  0
  9 36  1  0
 11 37  1  0
 13 38  1  0
 13 39  1  0
 15 40  1  0
 15 41  1  0
 16 42  1  0
 16 43  1  0
 18 44  1  0
 18 45  1  0
 19 46  1  0
 19 47  1  0
 20 48  1  1
 21 49  1  0
 21 50  1  0
 22 51  1  0
 22 52  1  0
 23 53  1  0
 24 54  1  0
 24 55  1  0
 25 56  1  0
 25 57  1  0
 27 58  1  0
 28 59  1  0
 29 60  1  0
 30 61  1  0
M  END
>  <smiles>  (98) 
O=C(c1cc2ccccc2[nH]1)N1C[C@]2(CCN(CCC3CCNC3)C2)c2ccccc21

>  <score_type>  (98) 
oracle

>  <origin>  (98) 
autodockgpu

>  <m_score__min__energy>  (98) 
-9.3000000000000007

>  <m_primary>  (98) 
energy

>  <rmsd>  (98) 
5.07294712719117

>  <m_score__min__rmsd>  (98) 
5.07294712719117

>  <meeko>  (98) 
{"free_energy": -7.7, "intermolecular_energy": -9.19, "internal_energy": -1.83, "cluster_size": 4, "cluster_id": 5, "rank_in_cluster": 4}

>  <energy>  (98) 
-8.06

>  <cluster_rmsd>  (98) 
0.12

>  <cluster>  (98) 
6

$$$$

     RDKit          3D

 61 66  0  0  1  0  0  0  0  0999 V2000
  138.9480   70.0050  222.0110 O   0  0  0  0  0  0  0  0  0  0  0  0
  139.8650   70.8140  222.3990 C   0  0  0  0  0  0  0  0  0  0  0  0
  140.0610   70.8950  223.8260 C   0  0  0  0  0  0  0  0  0  0  0  0
  140.6900   71.8950  224.5770 C   0  0  0  0  0  0  0  0  0  0  0  0
  140.6090   71.4960  225.9050 C   0  0  0  0  0  0  0  0  0  0  0  0
  141.0760   72.1320  227.0310 C   0  0  0  0  0  0  0  0  0  0  0  0
  140.8550   71.5010  228.2430 C   0  0  0  0  0  0  0  0  0  0  0  0
  140.1870   70.2750  228.3110 C   0  0  0  0  0  0  0  0  0  0  0  0
  139.7220   69.6510  227.1610 C   0  0  0  0  0  0  0  0  0  0  0  0
  139.9430   70.2810  225.9480 C   0  0  0  0  0  0  0  0  0  0  0  0
  139.6150   69.9250  224.6780 N   0  0  0  0  0  0  0  0  0  0  0  0
  140.5990   71.5500  221.4380 N   0  0  0  0  0  0  0  0  0  0  0  0
  141.3330   70.9540  220.3130 C   0  0  0  0  0  0  0  0  0  0  0  0
  142.5020   71.8830  220.1980 C   0  0  1  0  0  0  0  0  0  0  0  0
  143.6300   71.5320  221.1250 C   0  0  0  0  0  0  0  0  0  0  0  0
  144.7990   72.2590  220.5050 C   0  0  0  0  0  0  0  0  0  0  0  0
  144.5590   72.1540  219.1000 N   0  0  0  0  0  0  0  0  0  0  0  0
  145.4890   71.2420  218.5210 C   0  0  0  0  0  0  0  0  0  0  0  0
  144.9930   69.8420  218.3500 C   0  0  0  0  0  0  0  0  0  0  0  0
  145.9540   68.7880  218.7880 C   0  0  1  0  0  0  0  0  0  0  0  0
  145.4270   67.8480  219.8260 C   0  0  0  0  0  0  0  0  0  0  0  0
  144.4130   67.0420  219.0210 C   0  0  0  0  0  0  0  0  0  0  0  0
  144.8980   66.9910  217.6750 N   0  0  0  0  0  0  0  0  0  0  0  0
  146.0820   67.8240  217.6020 C   0  0  0  0  0  0  0  0  0  0  0  0
  143.1870   71.8540  218.8540 C   0  0  0  0  0  0  0  0  0  0  0  0
  141.9570   73.1940  220.5600 C   0  0  0  0  0  0  0  0  0  0  0  0
  142.3070   74.5110  220.3370 C   0  0  0  0  0  0  0  0  0  0  0  0
  141.5840   75.5800  220.8170 C   0  0  0  0  0  0  0  0  0  0  0  0
  140.4530   75.3090  221.5580 C   0  0  0  0  0  0  0  0  0  0  0  0
  140.0800   74.0030  221.7960 C   0  0  0  0  0  0  0  0  0  0  0  0
  140.8150   72.9420  221.3080 C   0  0  0  0  0  0  0  0  0  0  0  0
  141.1558   72.8141  224.1920 H   0  0  0  0  0  0  0  0  0  0  0  0
  141.6006   73.0970  226.9715 H   0  0  0  0  0  0  0  0  0  0  0  0
  141.2118   71.9733  229.1702 H   0  0  0  0  0  0  0  0  0  0  0  0
  140.0275   69.7979  229.2892 H   0  0  0  0  0  0  0  0  0  0  0  0
  139.1949   68.6869  227.2120 H   0  0  0  0  0  0  0  0  0  0  0  0
  139.1010   69.0370  224.4160 H   0  0  0  0  0  0  0  0  0  0  0  0
  141.6557   69.9276  220.5417 H   0  0  0  0  0  0  0  0  0  0  0  0
  140.7418   70.8585  219.3903 H   0  0  0  0  0  0  0  0  0  0  0  0
  143.4332   71.8927  222.1454 H   0  0  0  0  0  0  0  0  0  0  0  0
  143.7918   70.4490  221.2292 H   0  0  0  0  0  0  0  0  0  0  0  0
  144.8181   73.3123  220.8217 H   0  0  0  0  0  0  0  0  0  0  0  0
  145.7697   71.8365  220.8036 H   0  0  0  0  0  0  0  0  0  0  0  0
  145.7685   71.6265  217.5290 H   0  0  0  0  0  0  0  0  0  0  0  0
  146.3318   71.1809  219.2252 H   0  0  0  0  0  0  0  0  0  0  0  0
  144.0695   69.7305  218.9371 H   0  0  0  0  0  0  0  0  0  0  0  0
  144.8369   69.6947  217.2712 H   0  0  0  0  0  0  0  0  0  0  0  0
  146.8431   69.3241  219.1514 H   0  0  0  0  0  0  0  0  0  0  0  0
  146.2241   67.2047  220.2271 H   0  0  0  0  0  0  0  0  0  0  0  0
  145.0025   68.3479  220.7091 H   0  0  0  0  0  0  0  0  0  0  0  0
  144.3268   66.0249  219.4310 H   0  0  0  0  0  0  0  0  0  0  0  0
  143.4169   67.5068  219.0637 H   0  0  0  0  0  0  0  0  0  0  0  0
  145.1640   66.0080  217.4730 H   0  0  0  0  0  0  0  0  0  0  0  0
  146.9922   67.2133  217.6950 H   0  0  0  0  0  0  0  0  0  0  0  0
  146.1591   68.3542  216.6413 H   0  0  0  0  0  0  0  0  0  0  0  0
  142.7460   72.6075  218.1849 H   0  0  0  0  0  0  0  0  0  0  0  0
  143.0721   70.8745  218.3667 H   0  0  0  0  0  0  0  0  0  0  0  0
  143.2108   74.7169  219.7448 H   0  0  0  0  0  0  0  0  0  0  0  0
  141.8979   76.6150  220.6162 H   0  0  0  0  0  0  0  0  0  0  0  0
  139.8480   76.1353  221.9595 H   0  0  0  0  0  0  0  0  0  0  0  0
  139.1754   73.8023  222.3888 H   0  0  0  0  0  0  0  0  0  0  0  0
  1  2  2  0
  2  3  1  0
  3  4  2  0
  4  5  1  0
  5  6  2  0
  6  7  1  0
  7  8  2  0
  8  9  1  0
  9 10  2  0
 10 11  1  0
  2 12  1  0
 12 13  1  0
 14 13  1  6
 14 15  1  0
 15 16  1  0
 16 17  1  0
 17 18  1  0
 18 19  1  0
 19 20  1  0
 20 21  1  0
 21 22  1  0
 22 23  1  0
 23 24  1  0
 17 25  1  0
 14 26  1  0
 26 27  2  0
 27 28  1  0
 28 29  2  0
 29 30  1  0
 30 31  2  0
 11  3  1  0
 31 12  1  0
 10  5  1  0
 25 14  1  0
 31 26  1  0
 24 20  1  0
  4 32  1  0
  6 33  1  0
  7 34  1  0
  8 35  1  0
  9 36  1  0
 11 37  1  0
 13 38  1  0
 13 39  1  0
 15 40  1  0
 15 41  1  0
 16 42  1  0
 16 43  1  0
 18 44  1  0
 18 45  1  0
 19 46  1  0
 19 47  1  0
 20 48  1  1
 21 49  1  0
 21 50  1  0
 22 51  1  0
 22 52  1  0
 23 53  1  0
 24 54  1  0
 24 55  1  0
 25 56  1  0
 25 57  1  0
 27 58  1  0
 28 59  1  0
 29 60  1  0
 30 61  1  0
M  END
>  <smiles>  (99) 
O=C(c1cc2ccccc2[nH]1)N1C[C@]2(CCN(CCC3CCNC3)C2)c2ccccc21

>  <score_type>  (99) 
oracle

>  <origin>  (99) 
autodockgpu

>  <m_score__min__energy>  (99) 
-9.3000000000000007

>  <m_primary>  (99) 
energy

>  <rmsd>  (99) 
4.580531246745497

>  <m_score__min__rmsd>  (99) 
4.580531246745497

>  <meeko>  (99) 
{"free_energy": -8.28, "intermolecular_energy": -9.77, "internal_energy": -1.69, "cluster_size": 16, "cluster_id": 3, "rank_in_cluster": 14}

>  <energy>  (99) 
-7.87

>  <cluster_rmsd>  (99) 
0.7

>  <cluster>  (99) 
6

$$$$

     RDKit          3D

 61 66  0  0  1  0  0  0  0  0999 V2000
  138.7180   70.3690  221.8490 O   0  0  0  0  0  0  0  0  0  0  0  0
  139.7690   70.9920  222.2410 C   0  0  0  0  0  0  0  0  0  0  0  0
  140.0490   70.9130  223.6540 C   0  0  0  0  0  0  0  0  0  0  0  0
  140.5710   71.8910  224.5080 C   0  0  0  0  0  0  0  0  0  0  0  0
  140.6430   71.3120  225.7690 C   0  0  0  0  0  0  0  0  0  0  0  0
  141.0860   71.8590  226.9500 C   0  0  0  0  0  0  0  0  0  0  0  0
  141.0480   71.0460  228.0690 C   0  0  0  0  0  0  0  0  0  0  0  0
  140.5780   69.7320  227.9950 C   0  0  0  0  0  0  0  0  0  0  0  0
  140.1340   69.2000  226.7910 C   0  0  0  0  0  0  0  0  0  0  0  0
  140.1720   70.0120  225.6710 C   0  0  0  0  0  0  0  0  0  0  0  0
  139.8140   69.7800  224.3800 N   0  0  0  0  0  0  0  0  0  0  0  0
  140.5580   71.6920  221.2970 N   0  0  0  0  0  0  0  0  0  0  0  0
  141.3090   71.0600  220.2040 C   0  0  0  0  0  0  0  0  0  0  0  0
  142.5110   71.9490  220.1180 C   0  0  1  0  0  0  0  0  0  0  0  0
  143.5950   71.5740  221.0860 C   0  0  0  0  0  0  0  0  0  0  0  0
  144.8080   72.2560  220.4980 C   0  0  0  0  0  0  0  0  0  0  0  0
  144.6110   72.1420  219.0880 N   0  0  0  0  0  0  0  0  0  0  0  0
  145.5300   71.1930  218.5500 C   0  0  0  0  0  0  0  0  0  0  0  0
  145.0370   69.7830  218.4930 C   0  0  0  0  0  0  0  0  0  0  0  0
  146.0890   68.7500  218.7270 C   0  0  1  0  0  0  0  0  0  0  0  0
  145.7690   67.7580  219.7990 C   0  0  0  0  0  0  0  0  0  0  0  0
  144.6620   66.9420  219.1390 C   0  0  0  0  0  0  0  0  0  0  0  0
  144.9210   66.9550  217.7310 N   0  0  0  0  0  0  0  0  0  0  0  0
  146.0500   67.8330  217.4990 C   0  0  0  0  0  0  0  0  0  0  0  0
  143.2390   71.8820  218.7990 C   0  0  0  0  0  0  0  0  0  0  0  0
  141.9970   73.2810  220.4470 C   0  0  0  0  0  0  0  0  0  0  0  0
  142.3970   74.5840  220.2210 C   0  0  0  0  0  0  0  0  0  0  0  0
  141.6920   75.6810  220.6650 C   0  0  0  0  0  0  0  0  0  0  0  0
  140.5290   75.4550  221.3700 C   0  0  0  0  0  0  0  0  0  0  0  0
  140.1070   74.1640  221.6100 C   0  0  0  0  0  0  0  0  0  0  0  0
  140.8230   73.0750  221.1590 C   0  0  0  0  0  0  0  0  0  0  0  0
  140.8658   72.9150  224.2351 H   0  0  0  0  0  0  0  0  0  0  0  0
  141.4534   72.8945  227.0028 H   0  0  0  0  0  0  0  0  0  0  0  0
  141.3943   71.4415  229.0352 H   0  0  0  0  0  0  0  0  0  0  0  0
  140.5594   69.1105  228.9024 H   0  0  0  0  0  0  0  0  0  0  0  0
  139.7639   68.1659  226.7298 H   0  0  0  0  0  0  0  0  0  0  0  0
  139.4230   68.8640  224.0200 H   0  0  0  0  0  0  0  0  0  0  0  0
  141.5902   70.0264  220.4542 H   0  0  0  0  0  0  0  0  0  0  0  0
  140.7458   70.9733  219.2631 H   0  0  0  0  0  0  0  0  0  0  0  0
  143.3757   71.9532  222.0950 H   0  0  0  0  0  0  0  0  0  0  0  0
  143.7182   70.4877  221.2074 H   0  0  0  0  0  0  0  0  0  0  0  0
  144.8511   73.3117  220.8039 H   0  0  0  0  0  0  0  0  0  0  0  0
  145.7541   71.8064  220.8337 H   0  0  0  0  0  0  0  0  0  0  0  0
  145.7805   71.5064  217.5258 H   0  0  0  0  0  0  0  0  0  0  0  0
  146.3917   71.1850  219.2336 H   0  0  0  0  0  0  0  0  0  0  0  0
  144.2580   69.6600  219.2598 H   0  0  0  0  0  0  0  0  0  0  0  0
  144.6631   69.6231  217.4709 H   0  0  0  0  0  0  0  0  0  0  0  0
  147.0092   69.3051  218.9617 H   0  0  0  0  0  0  0  0  0  0  0  0
  146.6406   67.1317  220.0398 H   0  0  0  0  0  0  0  0  0  0  0  0
  145.4797   68.2124  220.7581 H   0  0  0  0  0  0  0  0  0  0  0  0
  144.6763   65.9091  219.5170 H   0  0  0  0  0  0  0  0  0  0  0  0
  143.6723   67.3671  219.3619 H   0  0  0  0  0  0  0  0  0  0  0  0
  145.1790   65.9890  217.4500 H   0  0  0  0  0  0  0  0  0  0  0  0
  146.9816   67.2537  217.4177 H   0  0  0  0  0  0  0  0  0  0  0  0
  145.9515   68.3983  216.5605 H   0  0  0  0  0  0  0  0  0  0  0  0
  142.8447   72.6407  218.1069 H   0  0  0  0  0  0  0  0  0  0  0  0
  143.1095   70.9007  218.3191 H   0  0  0  0  0  0  0  0  0  0  0  0
  143.3263   74.7542  219.6575 H   0  0  0  0  0  0  0  0  0  0  0  0
  142.0452   76.7031  220.4638 H   0  0  0  0  0  0  0  0  0  0  0  0
  139.9373   76.3047  221.7413 H   0  0  0  0  0  0  0  0  0  0  0  0
  139.1774   73.9991  222.1745 H   0  0  0  0  0  0  0  0  0  0  0  0
  1  2  2  0
  2  3  1  0
  3  4  2  0
  4  5  1  0
  5  6  2  0
  6  7  1  0
  7  8  2  0
  8  9  1  0
  9 10  2  0
 10 11  1  0
  2 12  1  0
 12 13  1  0
 14 13  1  6
 14 15  1  0
 15 16  1  0
 16 17  1  0
 17 18  1  0
 18 19  1  0
 19 20  1  0
 20 21  1  0
 21 22  1  0
 22 23  1  0
 23 24  1  0
 17 25  1  0
 14 26  1  0
 26 27  2  0
 27 28  1  0
 28 29  2  0
 29 30  1  0
 30 31  2  0
 11  3  1  0
 31 12  1  0
 10  5  1  0
 25 14  1  0
 31 26  1  0
 24 20  1  0
  4 32  1  0
  6 33  1  0
  7 34  1  0
  8 35  1  0
  9 36  1  0
 11 37  1  0
 13 38  1  0
 13 39  1  0
 15 40  1  0
 15 41  1  0
 16 42  1  0
 16 43  1  0
 18 44  1  0
 18 45  1  0
 19 46  1  0
 19 47  1  0
 20 48  1  1
 21 49  1  0
 21 50  1  0
 22 51  1  0
 22 52  1  0
 23 53  1  0
 24 54  1  0
 24 55  1  0
 25 56  1  0
 25 57  1  0
 27 58  1  0
 28 59  1  0
 29 60  1  0
 30 61  1  0
M  END
>  <smiles>  (100) 
O=C(c1cc2ccccc2[nH]1)N1C[C@]2(CCN(CCC3CCNC3)C2)c2ccccc21

>  <score_type>  (100) 
oracle

>  <origin>  (100) 
autodockgpu

>  <m_score__min__energy>  (100) 
-9.3000000000000007

>  <m_primary>  (100) 
energy

>  <rmsd>  (100) 
4.404618714868716

>  <m_score__min__rmsd>  (100) 
4.404618714868716

>  <meeko>  (100) 
{"free_energy": -8.34, "intermolecular_energy": -9.83, "internal_energy": -1.55, "cluster_size": 16, "cluster_id": 3, "rank_in_cluster": 11}

>  <energy>  (100) 
-7.84

>  <cluster_rmsd>  (100) 
0.0

>  <cluster>  (100) 
7

$$$$
