
     RDKit          3D

 65 69  0  0  1  0  0  0  0  0999 V2000
  139.2290   74.7630  222.1750 O   0  0  0  0  0  0  0  0  0  0  0  0
  140.2950   75.4280  222.0430 C   0  0  0  0  0  0  0  0  0  0  0  0
  141.4760   74.7590  221.6120 N   0  0  0  0  0  0  0  0  0  0  0  0
  141.3320   73.3230  221.3540 C   0  0  0  0  0  0  0  0  0  0  0  0
  141.7950   72.9590  220.0190 C   0  0  0  0  0  0  0  0  0  0  0  0
  141.1850   72.1560  219.2530 O   0  0  0  0  0  0  0  0  0  0  0  0
  143.0010   73.5220  219.5080 N   0  0  0  0  0  0  0  0  0  0  0  0
  144.1470   74.0360  220.2820 C   0  0  0  0  0  0  0  0  0  0  0  0
  145.3070   73.4020  219.5090 C   0  0  0  0  0  0  0  0  0  0  0  0
  144.8070   73.1610  218.1170 C   0  0  0  0  0  0  0  0  0  0  0  0
  143.3820   73.6960  218.1400 C   0  0  2  0  0  0  0  0  0  0  0  0
  143.3260   75.0960  217.7170 C   0  0  0  0  0  0  0  0  0  0  0  0
  144.2550   75.4060  216.8510 O   0  0  0  0  0  0  0  0  0  0  0  0
  142.4680   76.1360  218.0680 N   0  0  0  0  0  0  0  0  0  0  0  0
  141.3370   76.1110  218.9530 C   0  0  0  0  0  0  0  0  0  0  0  0
  140.6990   77.4690  219.1600 C   0  0  0  0  0  0  0  0  0  0  0  0
  141.7150   78.5430  219.4520 C   0  0  0  0  0  0  0  0  0  0  0  0
  141.1030   79.8910  219.4380 C   0  0  0  0  0  0  0  0  0  0  0  0
  141.8210   81.0060  219.7820 C   0  0  0  0  0  0  0  0  0  0  0  0
  141.2610   82.2700  219.7720 C   0  0  0  0  0  0  0  0  0  0  0  0
  139.9440   82.4620  219.4110 C   0  0  0  0  0  0  0  0  0  0  0  0
  139.2030   81.3570  219.0610 C   0  0  0  0  0  0  0  0  0  0  0  0
  139.7690   80.1030  219.0740 C   0  0  0  0  0  0  0  0  0  0  0  0
  142.9370   78.4180  218.5800 C   0  0  0  0  0  0  0  0  0  0  0  0
  142.7370   77.4570  217.4420 C   0  0  0  0  0  0  0  0  0  0  0  0
  140.3020   76.8620  222.3330 C   0  0  0  0  0  0  0  0  0  0  0  0
  139.1090   77.5530  222.3750 C   0  0  0  0  0  0  0  0  0  0  0  0
  139.1090   78.9120  222.6490 C   0  0  0  0  0  0  0  0  0  0  0  0
  140.2970   79.6080  222.8870 C   0  0  0  0  0  0  0  0  0  0  0  0
  140.3000   80.9650  223.1610 C   0  0  0  0  0  0  0  0  0  0  0  0
  141.5140   81.6000  223.3890 C   0  0  0  0  0  0  0  0  0  0  0  0
  142.6770   80.8570  223.3330 C   0  0  0  0  0  0  0  0  0  0  0  0
  142.6970   79.5080  223.0610 C   0  0  0  0  0  0  0  0  0  0  0  0
  141.4720   78.8700  222.8330 C   0  0  0  0  0  0  0  0  0  0  0  0
  141.4360   77.5540  222.5650 N   0  0  0  0  0  0  0  0  0  0  0  0
  142.3760   75.2650  221.4900 H   0  0  0  0  0  0  0  0  0  0  0  0
  141.9215   72.7675  222.0982 H   0  0  0  0  0  0  0  0  0  0  0  0
  140.2637   73.0704  221.4241 H   0  0  0  0  0  0  0  0  0  0  0  0
  144.1943   75.1347  220.2578 H   0  0  0  0  0  0  0  0  0  0  0  0
  144.1228   73.7947  221.3549 H   0  0  0  0  0  0  0  0  0  0  0  0
  146.1697   74.0843  219.4905 H   0  0  0  0  0  0  0  0  0  0  0  0
  145.6362   72.4651  219.9820 H   0  0  0  0  0  0  0  0  0  0  0  0
  145.4176   73.7063  217.3823 H   0  0  0  0  0  0  0  0  0  0  0  0
  144.8568   72.1012  217.8267 H   0  0  0  0  0  0  0  0  0  0  0  0
  142.7066   73.1789  217.4426 H   0  0  0  0  0  0  0  0  0  0  0  0
  140.5809   75.4321  218.5319 H   0  0  0  0  0  0  0  0  0  0  0  0
  141.7024   75.7733  219.9340 H   0  0  0  0  0  0  0  0  0  0  0  0
  140.1477   77.7428  218.2484 H   0  0  0  0  0  0  0  0  0  0  0  0
  140.0294   77.3957  220.0296 H   0  0  0  0  0  0  0  0  0  0  0  0
  142.0780   78.3921  220.4793 H   0  0  0  0  0  0  0  0  0  0  0  0
  142.8751   80.8920  220.0751 H   0  0  0  0  0  0  0  0  0  0  0  0
  141.8759   83.1365  220.0566 H   0  0  0  0  0  0  0  0  0  0  0  0
  139.4995   83.4681  219.4031 H   0  0  0  0  0  0  0  0  0  0  0  0
  138.1494   81.4770  218.7684 H   0  0  0  0  0  0  0  0  0  0  0  0
  139.1519   79.2382  218.7886 H   0  0  0  0  0  0  0  0  0  0  0  0
  143.1782   79.4085  218.1668 H   0  0  0  0  0  0  0  0  0  0  0  0
  143.7549   78.0300  219.2049 H   0  0  0  0  0  0  0  0  0  0  0  0
  141.8824   77.7686  216.8235 H   0  0  0  0  0  0  0  0  0  0  0  0
  143.6178   77.4207  216.7841 H   0  0  0  0  0  0  0  0  0  0  0  0
  138.1603   77.0273  222.1916 H   0  0  0  0  0  0  0  0  0  0  0  0
  138.1525   79.4544  222.6797 H   0  0  0  0  0  0  0  0  0  0  0  0
  139.3572   81.5305  223.1975 H   0  0  0  0  0  0  0  0  0  0  0  0
  141.5487   82.6769  223.6106 H   0  0  0  0  0  0  0  0  0  0  0  0
  143.6338   81.3684  223.5146 H   0  0  0  0  0  0  0  0  0  0  0  0
  143.6441   78.9497  223.0240 H   0  0  0  0  0  0  0  0  0  0  0  0
  1  2  2  0
  2  3  1  0
  3  4  1  0
  4  5  1  0
  5  6  2  0
  5  7  1  0
  7  8  1  0
  8  9  1  0
  9 10  1  0
 10 11  1  0
 11 12  1  0
 12 13  2  0
 12 14  1  0
 14 15  1  0
 15 16  1  0
 16 17  1  0
 17 18  1  0
 18 19  2  0
 19 20  1  0
 20 21  2  0
 21 22  1  0
 22 23  2  0
 17 24  1  0
 24 25  1  0
  2 26  1  0
 26 27  2  0
 27 28  1  0
 28 29  2  0
 29 30  1  0
 30 31  2  0
 31 32  1  0
 32 33  2  0
 33 34  1  0
 34 35  2  0
 11  7  1  0
 25 14  1  0
 35 26  1  0
 23 18  1  0
 34 29  1  0
  3 36  1  0
  4 37  1  0
  4 38  1  0
  8 39  1  0
  8 40  1  0
  9 41  1  0
  9 42  1  0
 10 43  1  0
 10 44  1  0
 11 45  1  6
 15 46  1  0
 15 47  1  0
 16 48  1  0
 16 49  1  0
 17 50  1  0
 19 51  1  0
 20 52  1  0
 21 53  1  0
 22 54  1  0
 23 55  1  0
 24 56  1  0
 24 57  1  0
 25 58  1  0
 25 59  1  0
 27 60  1  0
 28 61  1  0
 30 62  1  0
 31 63  1  0
 32 64  1  0
 33 65  1  0
M  END
>  <smiles>  (1) 
O=C(NCC(=O)N1CCCC1C(=O)N1CCC(c2ccccc2)CC1)c1ccc2ccccc2n1

>  <score_type>  (1) 
oracle

>  <origin>  (1) 
autodockgpu

>  <m_score__min__energy>  (1) 
-9.2699999999999996

>  <m_primary>  (1) 
energy

>  <rmsd>  (1) 
7.014649886216565

>  <m_score__min__rmsd>  (1) 
7.014649886216565

>  <meeko>  (1) 
{"free_energy": -6.9, "intermolecular_energy": -8.69, "internal_energy": -4.18, "cluster_size": 6, "cluster_id": 7, "rank_in_cluster": 4}

>  <energy>  (1) 
-9.27

>  <cluster_rmsd>  (1) 
0.0

>  <cluster>  (1) 
1

$$$$

     RDKit          3D

 65 69  0  0  1  0  0  0  0  0999 V2000
  141.0350   72.1330  221.5420 O   0  0  0  0  0  0  0  0  0  0  0  0
  140.1980   72.3830  222.4550 C   0  0  0  0  0  0  0  0  0  0  0  0
  139.3370   73.5080  222.3110 N   0  0  0  0  0  0  0  0  0  0  0  0
  139.5100   74.2850  221.0810 C   0  0  0  0  0  0  0  0  0  0  0  0
  140.6480   75.1950  221.1650 C   0  0  0  0  0  0  0  0  0  0  0  0
  141.1100   75.6540  222.2500 O   0  0  0  0  0  0  0  0  0  0  0  0
  141.3100   75.6150  219.9730 N   0  0  0  0  0  0  0  0  0  0  0  0
  140.7160   75.7900  218.6330 C   0  0  0  0  0  0  0  0  0  0  0  0
  141.3210   77.1400  218.2390 C   0  0  0  0  0  0  0  0  0  0  0  0
  142.5940   77.2770  219.0170 C   0  0  0  0  0  0  0  0  0  0  0  0
  142.6840   75.9800  219.8090 C   0  0  2  0  0  0  0  0  0  0  0  0
  143.4510   74.9610  219.0910 C   0  0  0  0  0  0  0  0  0  0  0  0
  143.8440   75.3580  217.9080 O   0  0  0  0  0  0  0  0  0  0  0  0
  143.8320   73.6690  219.4430 N   0  0  0  0  0  0  0  0  0  0  0  0
  143.5930   72.9620  220.6700 C   0  0  0  0  0  0  0  0  0  0  0  0
  144.0810   71.5280  220.6490 C   0  0  0  0  0  0  0  0  0  0  0  0
  143.6660   70.7970  219.3990 C   0  0  0  0  0  0  0  0  0  0  0  0
  144.3270   69.4770  219.2930 C   0  0  0  0  0  0  0  0  0  0  0  0
  145.6920   69.3590  219.2720 C   0  0  0  0  0  0  0  0  0  0  0  0
  146.3210   68.1320  219.1740 C   0  0  0  0  0  0  0  0  0  0  0  0
  145.5920   66.9640  219.0940 C   0  0  0  0  0  0  0  0  0  0  0  0
  144.2190   67.0560  219.1140 C   0  0  0  0  0  0  0  0  0  0  0  0
  143.6020   68.2830  219.2110 C   0  0  0  0  0  0  0  0  0  0  0  0
  143.8110   71.6530  218.1670 C   0  0  0  0  0  0  0  0  0  0  0  0
  144.6010   72.9050  218.4260 C   0  0  0  0  0  0  0  0  0  0  0  0
  140.1280   71.5230  223.6370 C   0  0  0  0  0  0  0  0  0  0  0  0
  139.5410   70.2790  223.5390 C   0  0  0  0  0  0  0  0  0  0  0  0
  139.4710   69.4600  224.6540 C   0  0  0  0  0  0  0  0  0  0  0  0
  139.9850   69.8640  225.8900 C   0  0  0  0  0  0  0  0  0  0  0  0
  139.9180   69.0480  227.0060 C   0  0  0  0  0  0  0  0  0  0  0  0
  140.4460   69.5080  228.2040 C   0  0  0  0  0  0  0  0  0  0  0  0
  141.0210   70.7620  228.2440 C   0  0  0  0  0  0  0  0  0  0  0  0
  141.0990   71.5900  227.1470 C   0  0  0  0  0  0  0  0  0  0  0  0
  140.5650   71.1250  225.9390 C   0  0  0  0  0  0  0  0  0  0  0  0
  140.6160   71.8940  224.8380 N   0  0  0  0  0  0  0  0  0  0  0  0
  138.6350   73.7540  223.0370 H   0  0  0  0  0  0  0  0  0  0  0  0
  139.6709   73.5915  220.2424 H   0  0  0  0  0  0  0  0  0  0  0  0
  138.6028   74.8884  220.9297 H   0  0  0  0  0  0  0  0  0  0  0  0
  141.0236   74.9897  217.9439 H   0  0  0  0  0  0  0  0  0  0  0  0
  139.6169   75.7536  218.6085 H   0  0  0  0  0  0  0  0  0  0  0  0
  141.5308   77.1622  217.1594 H   0  0  0  0  0  0  0  0  0  0  0  0
  140.6288   77.9662  218.4587 H   0  0  0  0  0  0  0  0  0  0  0  0
  143.4555   77.3830  218.3413 H   0  0  0  0  0  0  0  0  0  0  0  0
  142.6017   78.1680  219.6621 H   0  0  0  0  0  0  0  0  0  0  0  0
  143.2135   76.0862  220.7673 H   0  0  0  0  0  0  0  0  0  0  0  0
  144.1091   73.4930  221.4834 H   0  0  0  0  0  0  0  0  0  0  0  0
  142.5033   72.9296  220.8165 H   0  0  0  0  0  0  0  0  0  0  0  0
  145.1793   71.5280  220.7098 H   0  0  0  0  0  0  0  0  0  0  0  0
  143.6291   71.0080  221.5066 H   0  0  0  0  0  0  0  0  0  0  0  0
  142.5895   70.5847  219.4769 H   0  0  0  0  0  0  0  0  0  0  0  0
  146.3065   70.2692  219.3351 H   0  0  0  0  0  0  0  0  0  0  0  0
  147.4200   68.0865  219.1596 H   0  0  0  0  0  0  0  0  0  0  0  0
  146.0931   65.9878  219.0165 H   0  0  0  0  0  0  0  0  0  0  0  0
  143.6098   66.1422  219.0520 H   0  0  0  0  0  0  0  0  0  0  0  0
  142.5029   68.3261  219.2245 H   0  0  0  0  0  0  0  0  0  0  0  0
  144.3227   71.0676  217.3889 H   0  0  0  0  0  0  0  0  0  0  0  0
  142.8021   71.9542  217.8486 H   0  0  0  0  0  0  0  0  0  0  0  0
  145.6004   72.6540  218.8110 H   0  0  0  0  0  0  0  0  0  0  0  0
  144.7447   73.4895  217.5053 H   0  0  0  0  0  0  0  0  0  0  0  0
  139.1293   69.9379  222.5777 H   0  0  0  0  0  0  0  0  0  0  0  0
  139.0005   68.4697  224.5651 H   0  0  0  0  0  0  0  0  0  0  0  0
  139.4544   68.0524  226.9443 H   0  0  0  0  0  0  0  0  0  0  0  0
  140.4068   68.8826  229.1081 H   0  0  0  0  0  0  0  0  0  0  0  0
  141.4370   71.1170  229.1984 H   0  0  0  0  0  0  0  0  0  0  0  0
  141.5653   72.5838  227.2171 H   0  0  0  0  0  0  0  0  0  0  0  0
  1  2  2  0
  2  3  1  0
  3  4  1  0
  4  5  1  0
  5  6  2  0
  5  7  1  0
  7  8  1  0
  8  9  1  0
  9 10  1  0
 10 11  1  0
 11 12  1  0
 12 13  2  0
 12 14  1  0
 14 15  1  0
 15 16  1  0
 16 17  1  0
 17 18  1  0
 18 19  2  0
 19 20  1  0
 20 21  2  0
 21 22  1  0
 22 23  2  0
 17 24  1  0
 24 25  1  0
  2 26  1  0
 26 27  2  0
 27 28  1  0
 28 29  2  0
 29 30  1  0
 30 31  2  0
 31 32  1  0
 32 33  2  0
 33 34  1  0
 34 35  2  0
 11  7  1  0
 25 14  1  0
 35 26  1  0
 23 18  1  0
 34 29  1  0
  3 36  1  0
  4 37  1  0
  4 38  1  0
  8 39  1  0
  8 40  1  0
  9 41  1  0
  9 42  1  0
 10 43  1  0
 10 44  1  0
 11 45  1  1
 15 46  1  0
 15 47  1  0
 16 48  1  0
 16 49  1  0
 17 50  1  0
 19 51  1  0
 20 52  1  0
 21 53  1  0
 22 54  1  0
 23 55  1  0
 24 56  1  0
 24 57  1  0
 25 58  1  0
 25 59  1  0
 27 60  1  0
 28 61  1  0
 30 62  1  0
 31 63  1  0
 32 64  1  0
 33 65  1  0
M  END
>  <smiles>  (2) 
O=C(NCC(=O)N1CCCC1C(=O)N1CCC(c2ccccc2)CC1)c1ccc2ccccc2n1

>  <score_type>  (2) 
oracle

>  <origin>  (2) 
autodockgpu

>  <m_score__min__energy>  (2) 
-9.2699999999999996

>  <m_primary>  (2) 
energy

>  <rmsd>  (2) 
6.284482510776972

>  <m_score__min__rmsd>  (2) 
6.284482510776972

>  <meeko>  (2) 
{"free_energy": -9.27, "intermolecular_energy": -11.06, "internal_energy": -2.24, "cluster_size": 6, "cluster_id": 1, "rank_in_cluster": 1}

>  <energy>  (2) 
-9.07

>  <cluster_rmsd>  (2) 
1.12

>  <cluster>  (2) 
1

$$$$

     RDKit          3D

 65 69  0  0  1  0  0  0  0  0999 V2000
  139.0610   75.0230  221.8070 O   0  0  0  0  0  0  0  0  0  0  0  0
  140.1890   75.5690  221.9710 C   0  0  0  0  0  0  0  0  0  0  0  0
  141.3660   74.7930  221.7700 N   0  0  0  0  0  0  0  0  0  0  0  0
  141.1470   73.3980  221.3790 C   0  0  0  0  0  0  0  0  0  0  0  0
  141.5890   73.1380  220.0120 C   0  0  0  0  0  0  0  0  0  0  0  0
  140.9500   72.4230  219.1860 O   0  0  0  0  0  0  0  0  0  0  0  0
  142.8080   73.7070  219.5410 N   0  0  0  0  0  0  0  0  0  0  0  0
  143.9060   74.2700  220.3520 C   0  0  0  0  0  0  0  0  0  0  0  0
  145.1130   73.6330  219.6590 C   0  0  0  0  0  0  0  0  0  0  0  0
  144.6870   73.3350  218.2530 C   0  0  0  0  0  0  0  0  0  0  0  0
  143.2530   73.8420  218.1880 C   0  0  2  0  0  0  0  0  0  0  0  0
  143.1920   75.2260  217.7150 C   0  0  0  0  0  0  0  0  0  0  0  0
  144.0540   75.4790  216.7650 O   0  0  0  0  0  0  0  0  0  0  0  0
  142.3860   76.2980  218.0900 N   0  0  0  0  0  0  0  0  0  0  0  0
  141.3310   76.3360  219.0620 C   0  0  0  0  0  0  0  0  0  0  0  0
  140.7400   77.7150  219.2650 C   0  0  0  0  0  0  0  0  0  0  0  0
  141.7980   78.7750  219.4300 C   0  0  0  0  0  0  0  0  0  0  0  0
  141.2160   80.1360  219.4100 C   0  0  0  0  0  0  0  0  0  0  0  0
  141.9400   81.2190  218.9830 C   0  0  0  0  0  0  0  0  0  0  0  0
  141.4070   82.4940  218.9590 C   0  0  0  0  0  0  0  0  0  0  0  0
  140.1110   82.7310  219.3670 C   0  0  0  0  0  0  0  0  0  0  0  0
  139.3640   81.6590  219.8000 C   0  0  0  0  0  0  0  0  0  0  0  0
  139.9030   80.3930  219.8200 C   0  0  0  0  0  0  0  0  0  0  0  0
  142.9430   78.5870  218.4690 C   0  0  0  0  0  0  0  0  0  0  0  0
  142.6320   77.5870  217.3910 C   0  0  0  0  0  0  0  0  0  0  0  0
  140.2680   76.9760  222.3630 C   0  0  0  0  0  0  0  0  0  0  0  0
  139.1080   77.6820  222.6040 C   0  0  0  0  0  0  0  0  0  0  0  0
  139.1770   79.0150  222.9750 C   0  0  0  0  0  0  0  0  0  0  0  0
  140.4020   79.6720  223.1130 C   0  0  0  0  0  0  0  0  0  0  0  0
  140.4750   81.0040  223.4840 C   0  0  0  0  0  0  0  0  0  0  0  0
  141.7230   81.5990  223.6040 C   0  0  0  0  0  0  0  0  0  0  0  0
  142.8500   80.8440  223.3490 C   0  0  0  0  0  0  0  0  0  0  0  0
  142.8020   79.5190  222.9780 C   0  0  0  0  0  0  0  0  0  0  0  0
  141.5420   78.9210  222.8590 C   0  0  0  0  0  0  0  0  0  0  0  0
  141.4400   77.6300  222.5010 N   0  0  0  0  0  0  0  0  0  0  0  0
  142.3150   75.2000  221.8950 H   0  0  0  0  0  0  0  0  0  0  0  0
  141.7076   72.7449  222.0639 H   0  0  0  0  0  0  0  0  0  0  0  0
  140.0671   73.1956  221.4315 H   0  0  0  0  0  0  0  0  0  0  0  0
  143.9348   75.3680  220.2916 H   0  0  0  0  0  0  0  0  0  0  0  0
  143.8334   74.0652  221.4303 H   0  0  0  0  0  0  0  0  0  0  0  0
  145.9633   74.3309  219.6588 H   0  0  0  0  0  0  0  0  0  0  0  0
  145.4346   72.7190  220.1798 H   0  0  0  0  0  0  0  0  0  0  0  0
  145.3231   73.8672  217.5305 H   0  0  0  0  0  0  0  0  0  0  0  0
  144.7705   72.2672  218.0024 H   0  0  0  0  0  0  0  0  0  0  0  0
  142.6229   73.2880  217.4766 H   0  0  0  0  0  0  0  0  0  0  0  0
  140.5291   75.6598  218.7308 H   0  0  0  0  0  0  0  0  0  0  0  0
  141.7684   76.0290  220.0234 H   0  0  0  0  0  0  0  0  0  0  0  0
  140.1215   77.9664  218.3908 H   0  0  0  0  0  0  0  0  0  0  0  0
  140.1425   77.6911  220.1883 H   0  0  0  0  0  0  0  0  0  0  0  0
  142.2390   78.6552  220.4306 H   0  0  0  0  0  0  0  0  0  0  0  0
  142.9773   81.0686  218.6491 H   0  0  0  0  0  0  0  0  0  0  0  0
  142.0263   83.3330  218.6089 H   0  0  0  0  0  0  0  0  0  0  0  0
  139.6872   83.7459  219.3470 H   0  0  0  0  0  0  0  0  0  0  0  0
  138.3273   81.8156  220.1329 H   0  0  0  0  0  0  0  0  0  0  0  0
  139.2814   79.5556  220.1698 H   0  0  0  0  0  0  0  0  0  0  0  0
  143.1702   79.5545  217.9976 H   0  0  0  0  0  0  0  0  0  0  0  0
  143.8006   78.2046  219.0420 H   0  0  0  0  0  0  0  0  0  0  0  0
  141.7373   77.8949  216.8300 H   0  0  0  0  0  0  0  0  0  0  0  0
  143.4564   77.5033  216.6676 H   0  0  0  0  0  0  0  0  0  0  0  0
  138.1305   77.1879  222.5019 H   0  0  0  0  0  0  0  0  0  0  0  0
  138.2458   79.5687  223.1653 H   0  0  0  0  0  0  0  0  0  0  0  0
  139.5592   81.5809  223.6803 H   0  0  0  0  0  0  0  0  0  0  0  0
  141.8126   82.6553  223.8976 H   0  0  0  0  0  0  0  0  0  0  0  0
  143.8347   81.3244  223.4470 H   0  0  0  0  0  0  0  0  0  0  0  0
  143.7225   78.9497  222.7818 H   0  0  0  0  0  0  0  0  0  0  0  0
  1  2  2  0
  2  3  1  0
  3  4  1  0
  4  5  1  0
  5  6  2  0
  5  7  1  0
  7  8  1  0
  8  9  1  0
  9 10  1  0
 10 11  1  0
 11 12  1  0
 12 13  2  0
 12 14  1  0
 14 15  1  0
 15 16  1  0
 16 17  1  0
 17 18  1  0
 18 19  2  0
 19 20  1  0
 20 21  2  0
 21 22  1  0
 22 23  2  0
 17 24  1  0
 24 25  1  0
  2 26  1  0
 26 27  2  0
 27 28  1  0
 28 29  2  0
 29 30  1  0
 30 31  2  0
 31 32  1  0
 32 33  2  0
 33 34  1  0
 34 35  2  0
 11  7  1  0
 25 14  1  0
 35 26  1  0
 23 18  1  0
 34 29  1  0
  3 36  1  0
  4 37  1  0
  4 38  1  0
  8 39  1  0
  8 40  1  0
  9 41  1  0
  9 42  1  0
 10 43  1  0
 10 44  1  0
 11 45  1  6
 15 46  1  0
 15 47  1  0
 16 48  1  0
 16 49  1  0
 17 50  1  0
 19 51  1  0
 20 52  1  0
 21 53  1  0
 22 54  1  0
 23 55  1  0
 24 56  1  0
 24 57  1  0
 25 58  1  0
 25 59  1  0
 27 60  1  0
 28 61  1  0
 30 62  1  0
 31 63  1  0
 32 64  1  0
 33 65  1  0
M  END
>  <smiles>  (3) 
O=C(NCC(=O)N1CCCC1C(=O)N1CCC(c2ccccc2)CC1)c1ccc2ccccc2n1

>  <score_type>  (3) 
oracle

>  <origin>  (3) 
autodockgpu

>  <m_score__min__energy>  (3) 
-9.2699999999999996

>  <m_primary>  (3) 
energy

>  <rmsd>  (3) 
6.97172130850863

>  <m_score__min__rmsd>  (3) 
6.97172130850863

>  <meeko>  (3) 
{"free_energy": -6.98, "intermolecular_energy": -8.77, "internal_energy": -4.08, "cluster_size": 6, "cluster_id": 7, "rank_in_cluster": 2}

>  <energy>  (3) 
-9.01

>  <cluster_rmsd>  (3) 
0.98

>  <cluster>  (3) 
1

$$$$

     RDKit          3D

 65 69  0  0  1  0  0  0  0  0999 V2000
  137.9860   69.3000  221.9670 O   0  0  0  0  0  0  0  0  0  0  0  0
  138.9880   69.9550  222.3710 C   0  0  0  0  0  0  0  0  0  0  0  0
  139.7040   70.7610  221.4410 N   0  0  0  0  0  0  0  0  0  0  0  0
  139.1920   70.7510  220.0680 C   0  0  0  0  0  0  0  0  0  0  0  0
  137.8820   71.3890  219.9680 C   0  0  0  0  0  0  0  0  0  0  0  0
  136.8490   70.8160  219.5150 O   0  0  0  0  0  0  0  0  0  0  0  0
  137.7160   72.7370  220.4010 N   0  0  0  0  0  0  0  0  0  0  0  0
  137.1650   73.8650  219.6240 C   0  0  0  0  0  0  0  0  0  0  0  0
  136.2240   74.4810  220.6640 C   0  0  0  0  0  0  0  0  0  0  0  0
  136.7670   74.0970  222.0070 C   0  0  0  0  0  0  0  0  0  0  0  0
  138.0200   73.2960  221.6820 C   0  0  2  0  0  0  0  0  0  0  0  0
  139.2110   74.1470  221.6530 C   0  0  0  0  0  0  0  0  0  0  0  0
  140.3260   73.4680  221.7170 O   0  0  0  0  0  0  0  0  0  0  0  0
  139.3590   75.5290  221.5660 N   0  0  0  0  0  0  0  0  0  0  0  0
  138.3450   76.5390  221.4450 C   0  0  0  0  0  0  0  0  0  0  0  0
  138.8900   77.9520  221.4720 C   0  0  0  0  0  0  0  0  0  0  0  0
  139.8750   78.1670  222.5910 C   0  0  0  0  0  0  0  0  0  0  0  0
  140.5550   79.4760  222.4750 C   0  0  0  0  0  0  0  0  0  0  0  0
  140.0750   80.4630  221.6550 C   0  0  0  0  0  0  0  0  0  0  0  0
  140.7010   81.6900  221.5380 C   0  0  0  0  0  0  0  0  0  0  0  0
  141.8470   81.9740  222.2510 C   0  0  0  0  0  0  0  0  0  0  0  0
  142.3490   80.9990  223.0830 C   0  0  0  0  0  0  0  0  0  0  0  0
  141.7180   79.7800  223.1910 C   0  0  0  0  0  0  0  0  0  0  0  0
  140.8170   77.0020  222.7490 C   0  0  0  0  0  0  0  0  0  0  0  0
  140.7520   76.0480  221.5890 C   0  0  0  0  0  0  0  0  0  0  0  0
  139.3940   69.8770  223.7740 C   0  0  0  0  0  0  0  0  0  0  0  0
  139.1680   68.7170  224.4840 C   0  0  0  0  0  0  0  0  0  0  0  0
  139.5500   68.6370  225.8140 C   0  0  0  0  0  0  0  0  0  0  0  0
  140.1660   69.7110  226.4620 C   0  0  0  0  0  0  0  0  0  0  0  0
  140.5500   69.6340  227.7900 C   0  0  0  0  0  0  0  0  0  0  0  0
  141.1570   70.7360  228.3760 C   0  0  0  0  0  0  0  0  0  0  0  0
  141.3580   71.8720  227.6170 C   0  0  0  0  0  0  0  0  0  0  0  0
  140.9830   71.9700  226.2960 C   0  0  0  0  0  0  0  0  0  0  0  0
  140.3720   70.8570  225.7070 C   0  0  0  0  0  0  0  0  0  0  0  0
  139.9890   70.9010  224.4190 N   0  0  0  0  0  0  0  0  0  0  0  0
  140.5350   71.3160  221.7270 H   0  0  0  0  0  0  0  0  0  0  0  0
  139.8998   71.2900  219.4211 H   0  0  0  0  0  0  0  0  0  0  0  0
  139.0843   69.7025  219.7531 H   0  0  0  0  0  0  0  0  0  0  0  0
  137.9512   74.5708  219.3180 H   0  0  0  0  0  0  0  0  0  0  0  0
  136.6816   73.5795  218.6780 H   0  0  0  0  0  0  0  0  0  0  0  0
  136.2065   75.5759  220.5598 H   0  0  0  0  0  0  0  0  0  0  0  0
  135.1934   74.1195  220.5326 H   0  0  0  0  0  0  0  0  0  0  0  0
  137.0165   74.9906  222.5980 H   0  0  0  0  0  0  0  0  0  0  0  0
  136.0441   73.5267  222.6088 H   0  0  0  0  0  0  0  0  0  0  0  0
  138.2579   72.5287  222.4335 H   0  0  0  0  0  0  0  0  0  0  0  0
  137.8162   76.3884  220.4923 H   0  0  0  0  0  0  0  0  0  0  0  0
  137.6793   76.4334  222.3144 H   0  0  0  0  0  0  0  0  0  0  0  0
  139.3930   78.1548  220.5150 H   0  0  0  0  0  0  0  0  0  0  0  0
  138.0431   78.6347  221.6353 H   0  0  0  0  0  0  0  0  0  0  0  0
  139.3085   78.2083  223.5330 H   0  0  0  0  0  0  0  0  0  0  0  0
  139.1623   80.2731  221.0711 H   0  0  0  0  0  0  0  0  0  0  0  0
  140.2787   82.4515  220.8659 H   0  0  0  0  0  0  0  0  0  0  0  0
  142.3449   82.9504  222.1576 H   0  0  0  0  0  0  0  0  0  0  0  0
  143.2610   81.1952  223.6659 H   0  0  0  0  0  0  0  0  0  0  0  0
  142.1426   79.0195  223.8628 H   0  0  0  0  0  0  0  0  0  0  0  0
  141.8440   77.3874  222.8317 H   0  0  0  0  0  0  0  0  0  0  0  0
  140.5181   76.4505  223.6526 H   0  0  0  0  0  0  0  0  0  0  0  0
  140.9806   76.5721  220.6493 H   0  0  0  0  0  0  0  0  0  0  0  0
  141.4846   75.2341  221.6938 H   0  0  0  0  0  0  0  0  0  0  0  0
  138.6857   67.8571  223.9962 H   0  0  0  0  0  0  0  0  0  0  0  0
  139.3641   67.7074  226.3719 H   0  0  0  0  0  0  0  0  0  0  0  0
  140.3771   68.7157  228.3703 H   0  0  0  0  0  0  0  0  0  0  0  0
  141.4732   70.7050  229.4291 H   0  0  0  0  0  0  0  0  0  0  0  0
  141.8406   72.7398  228.0904 H   0  0  0  0  0  0  0  0  0  0  0  0
  141.1577   72.8923  225.7225 H   0  0  0  0  0  0  0  0  0  0  0  0
  1  2  2  0
  2  3  1  0
  3  4  1  0
  4  5  1  0
  5  6  2  0
  5  7  1  0
  7  8  1  0
  8  9  1  0
  9 10  1  0
 10 11  1  0
 11 12  1  0
 12 13  2  0
 12 14  1  0
 14 15  1  0
 15 16  1  0
 16 17  1  0
 17 18  1  0
 18 19  2  0
 19 20  1  0
 20 21  2  0
 21 22  1  0
 22 23  2  0
 17 24  1  0
 24 25  1  0
  2 26  1  0
 26 27  2  0
 27 28  1  0
 28 29  2  0
 29 30  1  0
 30 31  2  0
 31 32  1  0
 32 33  2  0
 33 34  1  0
 34 35  2  0
 11  7  1  0
 25 14  1  0
 35 26  1  0
 23 18  1  0
 34 29  1  0
  3 36  1  0
  4 37  1  0
  4 38  1  0
  8 39  1  0
  8 40  1  0
  9 41  1  0
  9 42  1  0
 10 43  1  0
 10 44  1  0
 11 45  1  1
 15 46  1  0
 15 47  1  0
 16 48  1  0
 16 49  1  0
 17 50  1  0
 19 51  1  0
 20 52  1  0
 21 53  1  0
 22 54  1  0
 23 55  1  0
 24 56  1  0
 24 57  1  0
 25 58  1  0
 25 59  1  0
 27 60  1  0
 28 61  1  0
 30 62  1  0
 31 63  1  0
 32 64  1  0
 33 65  1  0
M  END
>  <smiles>  (4) 
O=C(NCC(=O)N1CCCC1C(=O)N1CCC(c2ccccc2)CC1)c1ccc2ccccc2n1

>  <score_type>  (4) 
oracle

>  <origin>  (4) 
autodockgpu

>  <m_score__min__energy>  (4) 
-9.2699999999999996

>  <m_primary>  (4) 
energy

>  <rmsd>  (4) 
3.437157866731349

>  <m_score__min__rmsd>  (4) 
3.437157866731349

>  <meeko>  (4) 
{"free_energy": -8.2, "intermolecular_energy": -9.99, "internal_energy": -2.66, "cluster_size": 11, "cluster_id": 4, "rank_in_cluster": 8}

>  <energy>  (4) 
-8.96

>  <cluster_rmsd>  (4) 
0.28

>  <cluster>  (4) 
1

$$$$

     RDKit          3D

 65 69  0  0  1  0  0  0  0  0999 V2000
  141.1600   72.4160  221.6680 O   0  0  0  0  0  0  0  0  0  0  0  0
  140.2840   71.5570  221.9730 C   0  0  0  0  0  0  0  0  0  0  0  0
  139.4560   71.0220  220.9450 N   0  0  0  0  0  0  0  0  0  0  0  0
  139.7110   71.5340  219.5950 C   0  0  0  0  0  0  0  0  0  0  0  0
  139.4880   72.9740  219.5060 C   0  0  0  0  0  0  0  0  0  0  0  0
  140.3450   73.7980  219.0710 O   0  0  0  0  0  0  0  0  0  0  0  0
  138.2400   73.5250  219.9210 N   0  0  0  0  0  0  0  0  0  0  0  0
  137.2840   74.2960  219.1020 C   0  0  0  0  0  0  0  0  0  0  0  0
  135.9700   73.6220  219.5070 C   0  0  0  0  0  0  0  0  0  0  0  0
  136.1920   73.0460  220.8720 C   0  0  0  0  0  0  0  0  0  0  0  0
  137.6240   73.4400  221.2100 C   0  0  2  0  0  0  0  0  0  0  0  0
  137.6760   74.7070  221.9400 C   0  0  0  0  0  0  0  0  0  0  0  0
  136.5100   75.0800  222.4000 O   0  0  0  0  0  0  0  0  0  0  0  0
  138.7330   75.5660  222.2300 N   0  0  0  0  0  0  0  0  0  0  0  0
  140.1250   75.4240  221.9040 C   0  0  0  0  0  0  0  0  0  0  0  0
  140.9660   76.6170  222.3060 C   0  0  0  0  0  0  0  0  0  0  0  0
  140.3440   77.9260  221.8930 C   0  0  0  0  0  0  0  0  0  0  0  0
  141.0630   79.0800  222.4770 C   0  0  0  0  0  0  0  0  0  0  0  0
  141.7650   78.9690  223.6480 C   0  0  0  0  0  0  0  0  0  0  0  0
  142.4400   80.0400  224.2030 C   0  0  0  0  0  0  0  0  0  0  0  0
  142.4350   81.2770  223.5930 C   0  0  0  0  0  0  0  0  0  0  0  0
  141.7370   81.4140  222.4150 C   0  0  0  0  0  0  0  0  0  0  0  0
  141.0680   80.3410  221.8710 C   0  0  0  0  0  0  0  0  0  0  0  0
  138.8570   77.9470  222.1340 C   0  0  0  0  0  0  0  0  0  0  0  0
  138.3960   76.7990  222.9880 C   0  0  0  0  0  0  0  0  0  0  0  0
  140.1340   71.1300  223.3640 C   0  0  0  0  0  0  0  0  0  0  0  0
  139.3740   70.0170  223.6560 C   0  0  0  0  0  0  0  0  0  0  0  0
  139.2280   69.6070  224.9710 C   0  0  0  0  0  0  0  0  0  0  0  0
  139.8370   70.2990  226.0230 C   0  0  0  0  0  0  0  0  0  0  0  0
  139.6940   69.8920  227.3380 C   0  0  0  0  0  0  0  0  0  0  0  0
  140.3230   70.6220  228.3370 C   0  0  0  0  0  0  0  0  0  0  0  0
  141.0710   71.7280  227.9860 C   0  0  0  0  0  0  0  0  0  0  0  0
  141.2260   72.1510  226.6850 C   0  0  0  0  0  0  0  0  0  0  0  0
  140.5910   71.4130  225.6800 C   0  0  0  0  0  0  0  0  0  0  0  0
  140.7120   71.7830  224.3930 N   0  0  0  0  0  0  0  0  0  0  0  0
  138.7220   70.3150  221.1490 H   0  0  0  0  0  0  0  0  0  0  0  0
  140.7554   71.3188  219.3248 H   0  0  0  0  0  0  0  0  0  0  0  0
  139.0118   71.0383  218.9055 H   0  0  0  0  0  0  0  0  0  0  0  0
  137.2915   75.3640  219.3653 H   0  0  0  0  0  0  0  0  0  0  0  0
  137.4918   74.2873  218.0218 H   0  0  0  0  0  0  0  0  0  0  0  0
  135.1560   74.3613  219.5341 H   0  0  0  0  0  0  0  0  0  0  0  0
  135.6843   72.8412  218.7868 H   0  0  0  0  0  0  0  0  0  0  0  0
  135.4863   73.4767  221.5976 H   0  0  0  0  0  0  0  0  0  0  0  0
  136.0338   71.9579  220.9031 H   0  0  0  0  0  0  0  0  0  0  0  0
  138.1310   72.7271  221.8769 H   0  0  0  0  0  0  0  0  0  0  0  0
  140.5142   74.5342  222.4205 H   0  0  0  0  0  0  0  0  0  0  0  0
  140.1928   75.3354  220.8097 H   0  0  0  0  0  0  0  0  0  0  0  0
  141.0852   76.6124  223.3995 H   0  0  0  0  0  0  0  0  0  0  0  0
  141.9355   76.5308  221.7935 H   0  0  0  0  0  0  0  0  0  0  0  0
  140.4602   78.0244  220.8036 H   0  0  0  0  0  0  0  0  0  0  0  0
  141.7924   77.9973  224.1627 H   0  0  0  0  0  0  0  0  0  0  0  0
  142.9898   79.9036  225.1460 H   0  0  0  0  0  0  0  0  0  0  0  0
  142.9729   82.1287  224.0350 H   0  0  0  0  0  0  0  0  0  0  0  0
  141.7135   82.3880  221.9044 H   0  0  0  0  0  0  0  0  0  0  0  0
  140.5188   80.4797  220.9281 H   0  0  0  0  0  0  0  0  0  0  0  0
  138.5945   78.8890  222.6377 H   0  0  0  0  0  0  0  0  0  0  0  0
  138.3588   77.8582  221.1573 H   0  0  0  0  0  0  0  0  0  0  0  0
  138.9188   76.8080  223.9558 H   0  0  0  0  0  0  0  0  0  0  0  0
  137.3184   76.8608  223.2000 H   0  0  0  0  0  0  0  0  0  0  0  0
  138.8847   69.4559  222.8462 H   0  0  0  0  0  0  0  0  0  0  0  0
  138.6198   68.7177  225.1928 H   0  0  0  0  0  0  0  0  0  0  0  0
  139.0924   69.0055  227.5871 H   0  0  0  0  0  0  0  0  0  0  0  0
  140.2270   70.3241  229.3915 H   0  0  0  0  0  0  0  0  0  0  0  0
  141.5673   72.2990  228.7845 H   0  0  0  0  0  0  0  0  0  0  0  0
  141.8286   73.0391  226.4438 H   0  0  0  0  0  0  0  0  0  0  0  0
  1  2  2  0
  2  3  1  0
  3  4  1  0
  4  5  1  0
  5  6  2  0
  5  7  1  0
  7  8  1  0
  8  9  1  0
  9 10  1  0
 10 11  1  0
 11 12  1  0
 12 13  2  0
 12 14  1  0
 14 15  1  0
 15 16  1  0
 16 17  1  0
 17 18  1  0
 18 19  2  0
 19 20  1  0
 20 21  2  0
 21 22  1  0
 22 23  2  0
 17 24  1  0
 24 25  1  0
  2 26  1  0
 26 27  2  0
 27 28  1  0
 28 29  2  0
 29 30  1  0
 30 31  2  0
 31 32  1  0
 32 33  2  0
 33 34  1  0
 34 35  2  0
 11  7  1  0
 25 14  1  0
 35 26  1  0
 23 18  1  0
 34 29  1  0
  3 36  1  0
  4 37  1  0
  4 38  1  0
  8 39  1  0
  8 40  1  0
  9 41  1  0
  9 42  1  0
 10 43  1  0
 10 44  1  0
 11 45  1  1
 15 46  1  0
 15 47  1  0
 16 48  1  0
 16 49  1  0
 17 50  1  0
 19 51  1  0
 20 52  1  0
 21 53  1  0
 22 54  1  0
 23 55  1  0
 24 56  1  0
 24 57  1  0
 25 58  1  0
 25 59  1  0
 27 60  1  0
 28 61  1  0
 30 62  1  0
 31 63  1  0
 32 64  1  0
 33 65  1  0
M  END
>  <smiles>  (5) 
O=C(NCC(=O)N1CCCC1C(=O)N1CCC(c2ccccc2)CC1)c1ccc2ccccc2n1

>  <score_type>  (5) 
oracle

>  <origin>  (5) 
autodockgpu

>  <m_score__min__energy>  (5) 
-9.2699999999999996

>  <m_primary>  (5) 
energy

>  <rmsd>  (5) 
3.735049650851565

>  <m_score__min__rmsd>  (5) 
3.735049650851565

>  <meeko>  (5) 
{"free_energy": -8.31, "intermolecular_energy": -10.1, "internal_energy": -2.41, "cluster_size": 11, "cluster_id": 4, "rank_in_cluster": 7}

>  <energy>  (5) 
-8.93

>  <cluster_rmsd>  (5) 
0.51

>  <cluster>  (5) 
1

$$$$

     RDKit          3D

 65 69  0  0  1  0  0  0  0  0999 V2000
  140.8870   72.4200  221.3820 O   0  0  0  0  0  0  0  0  0  0  0  0
  140.0690   72.5960  222.3290 C   0  0  0  0  0  0  0  0  0  0  0  0
  139.2400   73.7530  222.3160 N   0  0  0  0  0  0  0  0  0  0  0  0
  139.4210   74.6510  221.1720 C   0  0  0  0  0  0  0  0  0  0  0  0
  140.7470   75.2610  221.1610 C   0  0  0  0  0  0  0  0  0  0  0  0
  141.4240   75.5040  222.2020 O   0  0  0  0  0  0  0  0  0  0  0  0
  141.3540   75.6160  219.9200 N   0  0  0  0  0  0  0  0  0  0  0  0
  140.7070   75.6860  218.5950 C   0  0  0  0  0  0  0  0  0  0  0  0
  141.2600   77.0210  218.0900 C   0  0  0  0  0  0  0  0  0  0  0  0
  142.5560   77.2420  218.8090 C   0  0  0  0  0  0  0  0  0  0  0  0
  142.7100   76.0040  219.6810 C   0  0  2  0  0  0  0  0  0  0  0  0
  143.4790   74.9590  219.0030 C   0  0  0  0  0  0  0  0  0  0  0  0
  143.8900   75.3180  217.8140 O   0  0  0  0  0  0  0  0  0  0  0  0
  143.8460   73.6750  219.3980 N   0  0  0  0  0  0  0  0  0  0  0  0
  143.5870   73.0060  220.6420 C   0  0  0  0  0  0  0  0  0  0  0  0
  144.0650   71.5700  220.6700 C   0  0  0  0  0  0  0  0  0  0  0  0
  143.6600   70.8040  219.4380 C   0  0  0  0  0  0  0  0  0  0  0  0
  144.3130   69.4780  219.3800 C   0  0  0  0  0  0  0  0  0  0  0  0
  145.6760   69.3520  219.3140 C   0  0  0  0  0  0  0  0  0  0  0  0
  146.2970   68.1190  219.2600 C   0  0  0  0  0  0  0  0  0  0  0  0
  145.5630   66.9520  219.2710 C   0  0  0  0  0  0  0  0  0  0  0  0
  144.1920   67.0510  219.3370 C   0  0  0  0  0  0  0  0  0  0  0  0
  143.5830   68.2840  219.3900 C   0  0  0  0  0  0  0  0  0  0  0  0
  143.8270   71.6220  218.1830 C   0  0  0  0  0  0  0  0  0  0  0  0
  144.6230   72.8760  218.4140 C   0  0  0  0  0  0  0  0  0  0  0  0
  139.9870   71.6180  223.4140 C   0  0  0  0  0  0  0  0  0  0  0  0
  139.4470   70.3730  223.1690 C   0  0  0  0  0  0  0  0  0  0  0  0
  139.3660   69.4430  224.1930 C   0  0  0  0  0  0  0  0  0  0  0  0
  139.8230   69.7350  225.4820 C   0  0  0  0  0  0  0  0  0  0  0  0
  139.7450   68.8080  226.5070 C   0  0  0  0  0  0  0  0  0  0  0  0
  140.2160   69.1590  227.7650 C   0  0  0  0  0  0  0  0  0  0  0  0
  140.7460   70.4200  227.9520 C   0  0  0  0  0  0  0  0  0  0  0  0
  140.8330   71.3570  226.9470 C   0  0  0  0  0  0  0  0  0  0  0  0
  140.3580   71.0010  225.6800 C   0  0  0  0  0  0  0  0  0  0  0  0
  140.4210   71.8790  224.6640 N   0  0  0  0  0  0  0  0  0  0  0  0
  138.5530   73.9400  223.0740 H   0  0  0  0  0  0  0  0  0  0  0  0
  139.2869   74.0757  220.2441 H   0  0  0  0  0  0  0  0  0  0  0  0
  138.6766   75.4569  221.2512 H   0  0  0  0  0  0  0  0  0  0  0  0
  141.0111   74.8492  217.9490 H   0  0  0  0  0  0  0  0  0  0  0  0
  139.6091   75.6207  218.6150 H   0  0  0  0  0  0  0  0  0  0  0  0
  141.4304   76.9758  217.0042 H   0  0  0  0  0  0  0  0  0  0  0  0
  140.5536   77.8425  218.2802 H   0  0  0  0  0  0  0  0  0  0  0  0
  143.3896   77.3240  218.0959 H   0  0  0  0  0  0  0  0  0  0  0  0
  142.5622   78.1742  219.3929 H   0  0  0  0  0  0  0  0  0  0  0  0
  143.2699   76.1875  220.6099 H   0  0  0  0  0  0  0  0  0  0  0  0
  144.0964   73.5576  221.4459 H   0  0  0  0  0  0  0  0  0  0  0  0
  142.4953   72.9847  220.7751 H   0  0  0  0  0  0  0  0  0  0  0  0
  145.1625   71.5648  220.7439 H   0  0  0  0  0  0  0  0  0  0  0  0
  143.5993   71.0792  221.5373 H   0  0  0  0  0  0  0  0  0  0  0  0
  142.5813   70.6006  219.5087 H   0  0  0  0  0  0  0  0  0  0  0  0
  146.2951   70.2612  219.3037 H   0  0  0  0  0  0  0  0  0  0  0  0
  147.3945   68.0676  219.2074 H   0  0  0  0  0  0  0  0  0  0  0  0
  146.0586   65.9709  219.2283 H   0  0  0  0  0  0  0  0  0  0  0  0
  143.5785   66.1380  219.3475 H   0  0  0  0  0  0  0  0  0  0  0  0
  142.4853   68.3327  219.4420 H   0  0  0  0  0  0  0  0  0  0  0  0
  144.3441   71.0099  217.4293 H   0  0  0  0  0  0  0  0  0  0  0  0
  142.8243   71.9208  217.8433 H   0  0  0  0  0  0  0  0  0  0  0  0
  145.6157   72.6301  218.8191 H   0  0  0  0  0  0  0  0  0  0  0  0
  144.7829   73.4316  217.4782 H   0  0  0  0  0  0  0  0  0  0  0  0
  139.0815   70.1188  222.1631 H   0  0  0  0  0  0  0  0  0  0  0  0
  138.9326   68.4531  223.9874 H   0  0  0  0  0  0  0  0  0  0  0  0
  139.3172   67.8105  226.3280 H   0  0  0  0  0  0  0  0  0  0  0  0
  140.1677   68.4438  228.5994 H   0  0  0  0  0  0  0  0  0  0  0  0
  141.1166   70.6891  228.9521 H   0  0  0  0  0  0  0  0  0  0  0  0
  141.2617   72.3526  227.1340 H   0  0  0  0  0  0  0  0  0  0  0  0
  1  2  2  0
  2  3  1  0
  3  4  1  0
  4  5  1  0
  5  6  2  0
  5  7  1  0
  7  8  1  0
  8  9  1  0
  9 10  1  0
 10 11  1  0
 11 12  1  0
 12 13  2  0
 12 14  1  0
 14 15  1  0
 15 16  1  0
 16 17  1  0
 17 18  1  0
 18 19  2  0
 19 20  1  0
 20 21  2  0
 21 22  1  0
 22 23  2  0
 17 24  1  0
 24 25  1  0
  2 26  1  0
 26 27  2  0
 27 28  1  0
 28 29  2  0
 29 30  1  0
 30 31  2  0
 31 32  1  0
 32 33  2  0
 33 34  1  0
 34 35  2  0
 11  7  1  0
 25 14  1  0
 35 26  1  0
 23 18  1  0
 34 29  1  0
  3 36  1  0
  4 37  1  0
  4 38  1  0
  8 39  1  0
  8 40  1  0
  9 41  1  0
  9 42  1  0
 10 43  1  0
 10 44  1  0
 11 45  1  1
 15 46  1  0
 15 47  1  0
 16 48  1  0
 16 49  1  0
 17 50  1  0
 19 51  1  0
 20 52  1  0
 21 53  1  0
 22 54  1  0
 23 55  1  0
 24 56  1  0
 24 57  1  0
 25 58  1  0
 25 59  1  0
 27 60  1  0
 28 61  1  0
 30 62  1  0
 31 63  1  0
 32 64  1  0
 33 65  1  0
M  END
>  <smiles>  (6) 
O=C(NCC(=O)N1CCCC1C(=O)N1CCC(c2ccccc2)CC1)c1ccc2ccccc2n1

>  <score_type>  (6) 
oracle

>  <origin>  (6) 
autodockgpu

>  <m_score__min__energy>  (6) 
-9.2699999999999996

>  <m_primary>  (6) 
energy

>  <rmsd>  (6) 
6.275453619716782

>  <m_score__min__rmsd>  (6) 
6.275453619716782

>  <meeko>  (6) 
{"free_energy": -8.96, "intermolecular_energy": -10.75, "internal_energy": -2.26, "cluster_size": 6, "cluster_id": 1, "rank_in_cluster": 4}

>  <energy>  (6) 
-8.69

>  <cluster_rmsd>  (6) 
1.0

>  <cluster>  (6) 
1

$$$$

     RDKit          3D

 65 69  0  0  1  0  0  0  0  0999 V2000
  139.9850   73.4260  222.4280 O   0  0  0  0  0  0  0  0  0  0  0  0
  139.8880   72.1660  222.4010 C   0  0  0  0  0  0  0  0  0  0  0  0
  139.7260   71.5140  221.1450 N   0  0  0  0  0  0  0  0  0  0  0  0
  139.6880   72.3950  219.9740 C   0  0  0  0  0  0  0  0  0  0  0  0
  141.0160   72.8800  219.6120 C   0  0  0  0  0  0  0  0  0  0  0  0
  142.0830   72.5250  220.1930 O   0  0  0  0  0  0  0  0  0  0  0  0
  141.1630   73.8100  218.5400 N   0  0  0  0  0  0  0  0  0  0  0  0
  142.4220   74.2860  217.9340 C   0  0  0  0  0  0  0  0  0  0  0  0
  142.0700   74.1740  216.4480 C   0  0  0  0  0  0  0  0  0  0  0  0
  140.5780   74.2760  216.3570 C   0  0  0  0  0  0  0  0  0  0  0  0
  140.1330   74.4720  217.8000 C   0  0  2  0  0  0  0  0  0  0  0  0
  140.0220   75.8900  218.1420 C   0  0  0  0  0  0  0  0  0  0  0  0
  139.5900   76.6230  217.1480 O   0  0  0  0  0  0  0  0  0  0  0  0
  140.2870   76.5830  219.3210 N   0  0  0  0  0  0  0  0  0  0  0  0
  140.7310   76.0700  220.5870 C   0  0  0  0  0  0  0  0  0  0  0  0
  141.0030   77.1470  221.6160 C   0  0  0  0  0  0  0  0  0  0  0  0
  141.8280   78.2780  221.0610 C   0  0  0  0  0  0  0  0  0  0  0  0
  141.9030   79.4150  222.0060 C   0  0  0  0  0  0  0  0  0  0  0  0
  141.4330   80.6570  221.6700 C   0  0  0  0  0  0  0  0  0  0  0  0
  141.4960   81.7260  222.5440 C   0  0  0  0  0  0  0  0  0  0  0  0
  142.0400   81.5840  223.8030 C   0  0  0  0  0  0  0  0  0  0  0  0
  142.5190   80.3460  224.1640 C   0  0  0  0  0  0  0  0  0  0  0  0
  142.4520   79.2870  223.2860 C   0  0  0  0  0  0  0  0  0  0  0  0
  141.3940   78.6670  219.6710 C   0  0  0  0  0  0  0  0  0  0  0  0
  140.0770   78.0540  219.2870 C   0  0  0  0  0  0  0  0  0  0  0  0
  139.9440   71.4020  223.6470 C   0  0  0  0  0  0  0  0  0  0  0  0
  139.4720   70.1060  223.6730 C   0  0  0  0  0  0  0  0  0  0  0  0
  139.5210   69.3780  224.8510 C   0  0  0  0  0  0  0  0  0  0  0  0
  140.0420   69.9270  226.0270 C   0  0  0  0  0  0  0  0  0  0  0  0
  140.0930   69.2020  227.2050 C   0  0  0  0  0  0  0  0  0  0  0  0
  140.6220   69.8030  228.3390 C   0  0  0  0  0  0  0  0  0  0  0  0
  141.0790   71.1030  228.2540 C   0  0  0  0  0  0  0  0  0  0  0  0
  141.0370   71.8430  227.0940 C   0  0  0  0  0  0  0  0  0  0  0  0
  140.5040   71.2340  225.9520 C   0  0  0  0  0  0  0  0  0  0  0  0
  140.4410   71.9120  224.7930 N   0  0  0  0  0  0  0  0  0  0  0  0
  139.6410   70.4810  221.0740 H   0  0  0  0  0  0  0  0  0  0  0  0
  139.2694   71.8373  219.1233 H   0  0  0  0  0  0  0  0  0  0  0  0
  139.0644   73.2660  220.2239 H   0  0  0  0  0  0  0  0  0  0  0  0
  142.6455   75.3238  218.2222 H   0  0  0  0  0  0  0  0  0  0  0  0
  143.3194   73.7271  218.2380 H   0  0  0  0  0  0  0  0  0  0  0  0
  142.5422   74.9910  215.8827 H   0  0  0  0  0  0  0  0  0  0  0  0
  142.4312   73.2257  216.0234 H   0  0  0  0  0  0  0  0  0  0  0  0
  140.2820   75.1347  215.7366 H   0  0  0  0  0  0  0  0  0  0  0  0
  140.1211   73.3912  215.8897 H   0  0  0  0  0  0  0  0  0  0  0  0
  139.1317   74.0679  218.0103 H   0  0  0  0  0  0  0  0  0  0  0  0
  139.9537   75.3996  220.9825 H   0  0  0  0  0  0  0  0  0  0  0  0
  141.6824   75.5477  220.4076 H   0  0  0  0  0  0  0  0  0  0  0  0
  140.0418   77.5505  221.9672 H   0  0  0  0  0  0  0  0  0  0  0  0
  141.5730   76.6887  222.4376 H   0  0  0  0  0  0  0  0  0  0  0  0
  142.8608   77.9161  220.9496 H   0  0  0  0  0  0  0  0  0  0  0  0
  140.9918   80.8083  220.6738 H   0  0  0  0  0  0  0  0  0  0  0  0
  141.1060   82.7055  222.2302 H   0  0  0  0  0  0  0  0  0  0  0  0
  142.0895   82.4352  224.4980 H   0  0  0  0  0  0  0  0  0  0  0  0
  142.9589   80.2007  225.1617 H   0  0  0  0  0  0  0  0  0  0  0  0
  142.8430   78.3085  223.6018 H   0  0  0  0  0  0  0  0  0  0  0  0
  141.3005   79.7620  219.6241 H   0  0  0  0  0  0  0  0  0  0  0  0
  142.1535   78.2955  218.9674 H   0  0  0  0  0  0  0  0  0  0  0  0
  139.2956   78.3456  220.0042 H   0  0  0  0  0  0  0  0  0  0  0  0
  139.7486   78.3922  218.2931 H   0  0  0  0  0  0  0  0  0  0  0  0
  139.0578   69.6517  222.7609 H   0  0  0  0  0  0  0  0  0  0  0  0
  139.1417   68.3455  224.8614 H   0  0  0  0  0  0  0  0  0  0  0  0
  139.7208   68.1675  227.2419 H   0  0  0  0  0  0  0  0  0  0  0  0
  140.6762   69.2525  229.2898 H   0  0  0  0  0  0  0  0  0  0  0  0
  141.4972   71.5704  229.1576 H   0  0  0  0  0  0  0  0  0  0  0  0
  141.4096   72.8776  227.0655 H   0  0  0  0  0  0  0  0  0  0  0  0
  1  2  2  0
  2  3  1  0
  3  4  1  0
  4  5  1  0
  5  6  2  0
  5  7  1  0
  7  8  1  0
  8  9  1  0
  9 10  1  0
 10 11  1  0
 11 12  1  0
 12 13  2  0
 12 14  1  0
 14 15  1  0
 15 16  1  0
 16 17  1  0
 17 18  1  0
 18 19  2  0
 19 20  1  0
 20 21  2  0
 21 22  1  0
 22 23  2  0
 17 24  1  0
 24 25  1  0
  2 26  1  0
 26 27  2  0
 27 28  1  0
 28 29  2  0
 29 30  1  0
 30 31  2  0
 31 32  1  0
 32 33  2  0
 33 34  1  0
 34 35  2  0
 11  7  1  0
 25 14  1  0
 35 26  1  0
 23 18  1  0
 34 29  1  0
  3 36  1  0
  4 37  1  0
  4 38  1  0
  8 39  1  0
  8 40  1  0
  9 41  1  0
  9 42  1  0
 10 43  1  0
 10 44  1  0
 11 45  1  6
 15 46  1  0
 15 47  1  0
 16 48  1  0
 16 49  1  0
 17 50  1  0
 19 51  1  0
 20 52  1  0
 21 53  1  0
 22 54  1  0
 23 55  1  0
 24 56  1  0
 24 57  1  0
 25 58  1  0
 25 59  1  0
 27 60  1  0
 28 61  1  0
 30 62  1  0
 31 63  1  0
 32 64  1  0
 33 65  1  0
M  END
>  <smiles>  (7) 
O=C(NCC(=O)N1CCCC1C(=O)N1CCC(c2ccccc2)CC1)c1ccc2ccccc2n1

>  <score_type>  (7) 
oracle

>  <origin>  (7) 
autodockgpu

>  <m_score__min__energy>  (7) 
-9.2699999999999996

>  <m_primary>  (7) 
energy

>  <rmsd>  (7) 
2.891311968487157

>  <m_score__min__rmsd>  (7) 
2.891311968487157

>  <meeko>  (7) 
{"free_energy": -8.71, "intermolecular_energy": -10.5, "internal_energy": -1.99, "cluster_size": 15, "cluster_id": 3, "rank_in_cluster": 5}

>  <energy>  (7) 
-9.24

>  <cluster_rmsd>  (7) 
0.0

>  <cluster>  (7) 
2

$$$$

     RDKit          3D

 65 69  0  0  1  0  0  0  0  0999 V2000
  141.2250   72.1510  221.7360 O   0  0  0  0  0  0  0  0  0  0  0  0
  140.2440   72.3530  222.5070 C   0  0  0  0  0  0  0  0  0  0  0  0
  139.3080   73.3730  222.1760 N   0  0  0  0  0  0  0  0  0  0  0  0
  139.5810   74.1080  220.9370 C   0  0  0  0  0  0  0  0  0  0  0  0
  138.5160   75.0540  220.6170 C   0  0  0  0  0  0  0  0  0  0  0  0
  137.7450   74.9410  219.6200 O   0  0  0  0  0  0  0  0  0  0  0  0
  138.2980   76.1860  221.4560 N   0  0  0  0  0  0  0  0  0  0  0  0
  138.9940   76.5150  222.7160 C   0  0  0  0  0  0  0  0  0  0  0  0
  139.2770   78.0030  222.4930 C   0  0  0  0  0  0  0  0  0  0  0  0
  138.2380   78.4920  221.5300 C   0  0  0  0  0  0  0  0  0  0  0  0
  137.3790   77.2650  221.2600 C   0  0  2  0  0  0  0  0  0  0  0  0
  136.2340   77.1970  222.1700 C   0  0  0  0  0  0  0  0  0  0  0  0
  135.6980   78.3660  222.4050 O   0  0  0  0  0  0  0  0  0  0  0  0
  135.6260   76.1230  222.8150 N   0  0  0  0  0  0  0  0  0  0  0  0
  135.9470   74.7250  222.7360 C   0  0  0  0  0  0  0  0  0  0  0  0
  135.1170   73.8590  223.6600 C   0  0  0  0  0  0  0  0  0  0  0  0
  135.0380   74.4180  225.0570 C   0  0  0  0  0  0  0  0  0  0  0  0
  134.0550   73.6840  225.8840 C   0  0  0  0  0  0  0  0  0  0  0  0
  134.1290   72.3250  226.0460 C   0  0  0  0  0  0  0  0  0  0  0  0
  133.2180   71.6280  226.8170 C   0  0  0  0  0  0  0  0  0  0  0  0
  132.1870   72.2790  227.4620 C   0  0  0  0  0  0  0  0  0  0  0  0
  132.0920   73.6440  227.3150 C   0  0  0  0  0  0  0  0  0  0  0  0
  133.0040   74.3290  226.5450 C   0  0  0  0  0  0  0  0  0  0  0  0
  134.8420   75.9120  225.0580 C   0  0  0  0  0  0  0  0  0  0  0  0
  134.4770   76.4460  223.7010 C   0  0  0  0  0  0  0  0  0  0  0  0
  140.0880   71.5450  223.7160 C   0  0  0  0  0  0  0  0  0  0  0  0
  139.3250   70.3970  223.6730 C   0  0  0  0  0  0  0  0  0  0  0  0
  139.1720   69.6280  224.8150 C   0  0  0  0  0  0  0  0  0  0  0  0
  139.7770   69.9870  226.0230 C   0  0  0  0  0  0  0  0  0  0  0  0
  139.6270   69.2200  227.1660 C   0  0  0  0  0  0  0  0  0  0  0  0
  140.2540   69.6300  228.3350 C   0  0  0  0  0  0  0  0  0  0  0  0
  141.0050   70.7890  228.3190 C   0  0  0  0  0  0  0  0  0  0  0  0
  141.1660   71.5670  227.1950 C   0  0  0  0  0  0  0  0  0  0  0  0
  140.5340   71.1500  226.0170 C   0  0  0  0  0  0  0  0  0  0  0  0
  140.6620   71.8730  224.8910 N   0  0  0  0  0  0  0  0  0  0  0  0
  138.4870   73.5760  222.7810 H   0  0  0  0  0  0  0  0  0  0  0  0
  140.5247   74.6613  221.0527 H   0  0  0  0  0  0  0  0  0  0  0  0
  139.6458   73.3786  220.1162 H   0  0  0  0  0  0  0  0  0  0  0  0
  138.3492   76.3503  223.5919 H   0  0  0  0  0  0  0  0  0  0  0  0
  139.8845   75.9033  222.9229 H   0  0  0  0  0  0  0  0  0  0  0  0
  139.2023   78.5511  223.4438 H   0  0  0  0  0  0  0  0  0  0  0  0
  140.2917   78.1611  222.0988 H   0  0  0  0  0  0  0  0  0  0  0  0
  137.6384   79.2981  221.9779 H   0  0  0  0  0  0  0  0  0  0  0  0
  138.6758   78.9123  220.6126 H   0  0  0  0  0  0  0  0  0  0  0  0
  136.9245   77.2590  220.2583 H   0  0  0  0  0  0  0  0  0  0  0  0
  135.7816   74.3882  221.7020 H   0  0  0  0  0  0  0  0  0  0  0  0
  136.9961   74.6169  223.0486 H   0  0  0  0  0  0  0  0  0  0  0  0
  134.0983   73.7831  223.2521 H   0  0  0  0  0  0  0  0  0  0  0  0
  135.6023   72.8737  223.7208 H   0  0  0  0  0  0  0  0  0  0  0  0
  136.0128   74.2546  225.5398 H   0  0  0  0  0  0  0  0  0  0  0  0
  134.9384   71.7720  225.5470 H   0  0  0  0  0  0  0  0  0  0  0  0
  133.3166   70.5371  226.9179 H   0  0  0  0  0  0  0  0  0  0  0  0
  131.4624   71.7236  228.0756 H   0  0  0  0  0  0  0  0  0  0  0  0
  131.2808   74.1918  227.8169 H   0  0  0  0  0  0  0  0  0  0  0  0
  132.9033   75.4199  226.4459 H   0  0  0  0  0  0  0  0  0  0  0  0
  134.0359   76.1615  225.7637 H   0  0  0  0  0  0  0  0  0  0  0  0
  135.7957   76.3738  225.3533 H   0  0  0  0  0  0  0  0  0  0  0  0
  133.5611   75.9610  223.3324 H   0  0  0  0  0  0  0  0  0  0  0  0
  134.2815   77.5281  223.7314 H   0  0  0  0  0  0  0  0  0  0  0  0
  138.8391   70.0927  222.7342 H   0  0  0  0  0  0  0  0  0  0  0  0
  138.5608   68.7145  224.7703 H   0  0  0  0  0  0  0  0  0  0  0  0
  139.0216   68.3018  227.1482 H   0  0  0  0  0  0  0  0  0  0  0  0
  140.1542   69.0413  229.2589 H   0  0  0  0  0  0  0  0  0  0  0  0
  141.4984   71.1057  229.2497 H   0  0  0  0  0  0  0  0  0  0  0  0
  141.7708   72.4855  227.2212 H   0  0  0  0  0  0  0  0  0  0  0  0
  1  2  2  0
  2  3  1  0
  3  4  1  0
  4  5  1  0
  5  6  2  0
  5  7  1  0
  7  8  1  0
  8  9  1  0
  9 10  1  0
 10 11  1  0
 11 12  1  0
 12 13  2  0
 12 14  1  0
 14 15  1  0
 15 16  1  0
 16 17  1  0
 17 18  1  0
 18 19  2  0
 19 20  1  0
 20 21  2  0
 21 22  1  0
 22 23  2  0
 17 24  1  0
 24 25  1  0
  2 26  1  0
 26 27  2  0
 27 28  1  0
 28 29  2  0
 29 30  1  0
 30 31  2  0
 31 32  1  0
 32 33  2  0
 33 34  1  0
 34 35  2  0
 11  7  1  0
 25 14  1  0
 35 26  1  0
 23 18  1  0
 34 29  1  0
  3 36  1  0
  4 37  1  0
  4 38  1  0
  8 39  1  0
  8 40  1  0
  9 41  1  0
  9 42  1  0
 10 43  1  0
 10 44  1  0
 11 45  1  6
 15 46  1  0
 15 47  1  0
 16 48  1  0
 16 49  1  0
 17 50  1  0
 19 51  1  0
 20 52  1  0
 21 53  1  0
 22 54  1  0
 23 55  1  0
 24 56  1  0
 24 57  1  0
 25 58  1  0
 25 59  1  0
 27 60  1  0
 28 61  1  0
 30 62  1  0
 31 63  1  0
 32 64  1  0
 33 65  1  0
M  END
>  <smiles>  (8) 
O=C(NCC(=O)N1CCCC1C(=O)N1CCC(c2ccccc2)CC1)c1ccc2ccccc2n1

>  <score_type>  (8) 
oracle

>  <origin>  (8) 
autodockgpu

>  <m_score__min__energy>  (8) 
-9.2699999999999996

>  <m_primary>  (8) 
energy

>  <rmsd>  (8) 
6.194240981158375

>  <m_score__min__rmsd>  (8) 
6.194240981158375

>  <meeko>  (8) 
{"free_energy": -8.7, "intermolecular_energy": -10.49, "internal_energy": -2.09, "cluster_size": 7, "cluster_id": 2, "rank_in_cluster": 5}

>  <energy>  (8) 
-9.15

>  <cluster_rmsd>  (8) 
0.84

>  <cluster>  (8) 
2

$$$$

     RDKit          3D

 65 69  0  0  1  0  0  0  0  0999 V2000
  137.8210   68.7500  222.2200 O   0  0  0  0  0  0  0  0  0  0  0  0
  138.2720   69.7990  222.7610 C   0  0  0  0  0  0  0  0  0  0  0  0
  138.1540   71.0370  222.0680 N   0  0  0  0  0  0  0  0  0  0  0  0
  137.5020   70.9700  220.7570 C   0  0  0  0  0  0  0  0  0  0  0  0
  138.4490   70.6590  219.6900 C   0  0  0  0  0  0  0  0  0  0  0  0
  138.3820   69.6270  218.9620 O   0  0  0  0  0  0  0  0  0  0  0  0
  139.5280   71.5510  219.4200 N   0  0  0  0  0  0  0  0  0  0  0  0
  140.9440   71.2000  219.1900 C   0  0  0  0  0  0  0  0  0  0  0  0
  141.2480   72.0720  217.9690 C   0  0  0  0  0  0  0  0  0  0  0  0
  140.2860   73.2200  218.0170 C   0  0  0  0  0  0  0  0  0  0  0  0
  139.4840   72.9750  219.2880 C   0  0  2  0  0  0  0  0  0  0  0  0
  140.0720   73.6620  220.4380 C   0  0  0  0  0  0  0  0  0  0  0  0
  140.1110   72.9180  221.5130 O   0  0  0  0  0  0  0  0  0  0  0  0
  140.5920   74.9460  220.5840 N   0  0  0  0  0  0  0  0  0  0  0  0
  140.7280   75.9810  219.5980 C   0  0  0  0  0  0  0  0  0  0  0  0
  141.2560   77.2850  220.1560 C   0  0  0  0  0  0  0  0  0  0  0  0
  140.5500   77.6980  221.4210 C   0  0  0  0  0  0  0  0  0  0  0  0
  141.2160   78.8510  222.0670 C   0  0  0  0  0  0  0  0  0  0  0  0
  141.5880   78.8160  223.3850 C   0  0  0  0  0  0  0  0  0  0  0  0
  142.2120   79.8860  223.9990 C   0  0  0  0  0  0  0  0  0  0  0  0
  142.4880   81.0440  223.3030 C   0  0  0  0  0  0  0  0  0  0  0  0
  142.1230   81.1030  221.9770 C   0  0  0  0  0  0  0  0  0  0  0  0
  141.5030   80.0330  221.3750 C   0  0  0  0  0  0  0  0  0  0  0  0
  140.3160   76.5320  222.3450 C   0  0  0  0  0  0  0  0  0  0  0  0
  141.0890   75.3090  221.9370 C   0  0  0  0  0  0  0  0  0  0  0  0
  138.9020   69.7280  224.0800 C   0  0  0  0  0  0  0  0  0  0  0  0
  138.8790   68.5410  224.7810 C   0  0  0  0  0  0  0  0  0  0  0  0
  139.4740   68.4670  226.0310 C   0  0  0  0  0  0  0  0  0  0  0  0
  140.1040   69.5740  226.6050 C   0  0  0  0  0  0  0  0  0  0  0  0
  140.7000   69.5040  227.8530 C   0  0  0  0  0  0  0  0  0  0  0  0
  141.3100   70.6390  228.3690 C   0  0  0  0  0  0  0  0  0  0  0  0
  141.3010   71.8000  227.6220 C   0  0  0  0  0  0  0  0  0  0  0  0
  140.7140   71.8930  226.3800 C   0  0  0  0  0  0  0  0  0  0  0  0
  140.1010   70.7470  225.8620 C   0  0  0  0  0  0  0  0  0  0  0  0
  139.5140   70.7840  224.6530 N   0  0  0  0  0  0  0  0  0  0  0  0
  138.5110   71.9250  222.4730 H   0  0  0  0  0  0  0  0  0  0  0  0
  136.7288   70.1881  220.7845 H   0  0  0  0  0  0  0  0  0  0  0  0
  137.0634   71.9563  220.5450 H   0  0  0  0  0  0  0  0  0  0  0  0
  141.5749   71.4697  220.0498 H   0  0  0  0  0  0  0  0  0  0  0  0
  141.1345   70.1261  219.0474 H   0  0  0  0  0  0  0  0  0  0  0  0
  142.2832   72.4413  218.0138 H   0  0  0  0  0  0  0  0  0  0  0  0
  141.1401   71.5009  217.0351 H   0  0  0  0  0  0  0  0  0  0  0  0
  140.8232   74.1783  218.0721 H   0  0  0  0  0  0  0  0  0  0  0  0
  139.6514   73.2786  217.1204 H   0  0  0  0  0  0  0  0  0  0  0  0
  138.4567   73.3656  219.2413 H   0  0  0  0  0  0  0  0  0  0  0  0
  141.4211   75.6302  218.8192 H   0  0  0  0  0  0  0  0  0  0  0  0
  139.7217   76.1837  219.2027 H   0  0  0  0  0  0  0  0  0  0  0  0
  142.3282   77.1680  220.3723 H   0  0  0  0  0  0  0  0  0  0  0  0
  141.0788   78.0673  219.4032 H   0  0  0  0  0  0  0  0  0  0  0  0
  139.5460   78.0522  221.1444 H   0  0  0  0  0  0  0  0  0  0  0  0
  141.3840   77.9088  223.9727 H   0  0  0  0  0  0  0  0  0  0  0  0
  142.4929   79.8124  225.0600 H   0  0  0  0  0  0  0  0  0  0  0  0
  142.9847   81.8947  223.7925 H   0  0  0  0  0  0  0  0  0  0  0  0
  142.3288   82.0130  221.3943 H   0  0  0  0  0  0  0  0  0  0  0  0
  141.2233   80.1089  220.3139 H   0  0  0  0  0  0  0  0  0  0  0  0
  140.6228   76.8203  223.3612 H   0  0  0  0  0  0  0  0  0  0  0  0
  139.2460   76.2807  222.3011 H   0  0  0  0  0  0  0  0  0  0  0  0
  142.1659   75.5308  221.9023 H   0  0  0  0  0  0  0  0  0  0  0  0
  140.9498   74.4856  222.6529 H   0  0  0  0  0  0  0  0  0  0  0  0
  138.3899   67.6551  224.3497 H   0  0  0  0  0  0  0  0  0  0  0  0
  139.4495   67.5158  226.5830 H   0  0  0  0  0  0  0  0  0  0  0  0
  140.6902   68.5649  228.4257 H   0  0  0  0  0  0  0  0  0  0  0  0
  141.7928   70.6139  229.3571 H   0  0  0  0  0  0  0  0  0  0  0  0
  141.7865   72.6944  228.0394 H   0  0  0  0  0  0  0  0  0  0  0  0
  140.7266   72.8363  225.8142 H   0  0  0  0  0  0  0  0  0  0  0  0
  1  2  2  0
  2  3  1  0
  3  4  1  0
  4  5  1  0
  5  6  2  0
  5  7  1  0
  7  8  1  0
  8  9  1  0
  9 10  1  0
 10 11  1  0
 11 12  1  0
 12 13  2  0
 12 14  1  0
 14 15  1  0
 15 16  1  0
 16 17  1  0
 17 18  1  0
 18 19  2  0
 19 20  1  0
 20 21  2  0
 21 22  1  0
 22 23  2  0
 17 24  1  0
 24 25  1  0
  2 26  1  0
 26 27  2  0
 27 28  1  0
 28 29  2  0
 29 30  1  0
 30 31  2  0
 31 32  1  0
 32 33  2  0
 33 34  1  0
 34 35  2  0
 11  7  1  0
 25 14  1  0
 35 26  1  0
 23 18  1  0
 34 29  1  0
  3 36  1  0
  4 37  1  0
  4 38  1  0
  8 39  1  0
  8 40  1  0
  9 41  1  0
  9 42  1  0
 10 43  1  0
 10 44  1  0
 11 45  1  6
 15 46  1  0
 15 47  1  0
 16 48  1  0
 16 49  1  0
 17 50  1  0
 19 51  1  0
 20 52  1  0
 21 53  1  0
 22 54  1  0
 23 55  1  0
 24 56  1  0
 24 57  1  0
 25 58  1  0
 25 59  1  0
 27 60  1  0
 28 61  1  0
 30 62  1  0
 31 63  1  0
 32 64  1  0
 33 65  1  0
M  END
>  <smiles>  (9) 
O=C(NCC(=O)N1CCCC1C(=O)N1CCC(c2ccccc2)CC1)c1ccc2ccccc2n1

>  <score_type>  (9) 
oracle

>  <origin>  (9) 
autodockgpu

>  <m_score__min__energy>  (9) 
-9.2699999999999996

>  <m_primary>  (9) 
energy

>  <rmsd>  (9) 
3.6090564272098793

>  <m_score__min__rmsd>  (9) 
3.6090564272098793

>  <meeko>  (9) 
{"free_energy": -8.04, "intermolecular_energy": -9.83, "internal_energy": -2.71, "cluster_size": 11, "cluster_id": 4, "rank_in_cluster": 11}

>  <energy>  (9) 
-9.1

>  <cluster_rmsd>  (9) 
0.63

>  <cluster>  (9) 
2

$$$$

     RDKit          3D

 65 69  0  0  1  0  0  0  0  0999 V2000
  137.9170   69.0420  221.9610 O   0  0  0  0  0  0  0  0  0  0  0  0
  138.4070   70.0050  222.6160 C   0  0  0  0  0  0  0  0  0  0  0  0
  138.3630   71.3130  222.0550 N   0  0  0  0  0  0  0  0  0  0  0  0
  137.7330   71.4150  220.7350 C   0  0  0  0  0  0  0  0  0  0  0  0
  138.7200   71.5260  219.6660 C   0  0  0  0  0  0  0  0  0  0  0  0
  138.5340   71.1130  218.4840 O   0  0  0  0  0  0  0  0  0  0  0  0
  139.9840   72.1340  219.9270 N   0  0  0  0  0  0  0  0  0  0  0  0
  141.1600   71.5130  220.5680 C   0  0  0  0  0  0  0  0  0  0  0  0
  142.2680   71.9830  219.6210 C   0  0  0  0  0  0  0  0  0  0  0  0
  141.7720   73.2440  218.9810 C   0  0  0  0  0  0  0  0  0  0  0  0
  140.4040   73.4640  219.6120 C   0  0  2  0  0  0  0  0  0  0  0  0
  140.4890   74.3200  220.7970 C   0  0  0  0  0  0  0  0  0  0  0  0
  139.9520   73.7770  221.8580 O   0  0  0  0  0  0  0  0  0  0  0  0
  141.0340   75.5870  220.9870 N   0  0  0  0  0  0  0  0  0  0  0  0
  141.7210   76.4240  220.0440 C   0  0  0  0  0  0  0  0  0  0  0  0
  142.0910   77.7840  220.5960 C   0  0  0  0  0  0  0  0  0  0  0  0
  140.9450   78.4430  221.3190 C   0  0  0  0  0  0  0  0  0  0  0  0
  141.3800   79.6640  222.0330 C   0  0  0  0  0  0  0  0  0  0  0  0
  140.9620   80.9100  221.6430 C   0  0  0  0  0  0  0  0  0  0  0  0
  141.3610   82.0570  222.3030 C   0  0  0  0  0  0  0  0  0  0  0  0
  142.2040   81.9940  223.3930 C   0  0  0  0  0  0  0  0  0  0  0  0
  142.6370   80.7550  223.8040 C   0  0  0  0  0  0  0  0  0  0  0  0
  142.2340   79.6180  223.1410 C   0  0  0  0  0  0  0  0  0  0  0  0
  140.1840   77.4700  222.1810 C   0  0  0  0  0  0  0  0  0  0  0  0
  140.9090   76.1640  222.3520 C   0  0  0  0  0  0  0  0  0  0  0  0
  139.0070   69.7650  223.9280 C   0  0  0  0  0  0  0  0  0  0  0  0
  139.0650   68.4800  224.4260 C   0  0  0  0  0  0  0  0  0  0  0  0
  139.6320   68.2470  225.6680 C   0  0  0  0  0  0  0  0  0  0  0  0
  140.1540   69.2890  226.4400 C   0  0  0  0  0  0  0  0  0  0  0  0
  140.7220   69.0590  227.6810 C   0  0  0  0  0  0  0  0  0  0  0  0
  141.2230   70.1370  228.3980 C   0  0  0  0  0  0  0  0  0  0  0  0
  141.1380   71.4020  227.8500 C   0  0  0  0  0  0  0  0  0  0  0  0
  140.5770   71.6530  226.6190 C   0  0  0  0  0  0  0  0  0  0  0  0
  140.0730   70.5650  225.8970 C   0  0  0  0  0  0  0  0  0  0  0  0
  139.5160   70.7560  224.6890 N   0  0  0  0  0  0  0  0  0  0  0  0
  138.7540   72.1350  222.5560 H   0  0  0  0  0  0  0  0  0  0  0  0
  137.1221   70.5167  220.5626 H   0  0  0  0  0  0  0  0  0  0  0  0
  137.1147   72.3247  220.7227 H   0  0  0  0  0  0  0  0  0  0  0  0
  141.3120   71.8889  221.5905 H   0  0  0  0  0  0  0  0  0  0  0  0
  141.0936   70.4222  220.6934 H   0  0  0  0  0  0  0  0  0  0  0  0
  143.1917   72.1805  220.1847 H   0  0  0  0  0  0  0  0  0  0  0  0
  142.4984   71.2169  218.8660 H   0  0  0  0  0  0  0  0  0  0  0  0
  142.4447   74.0857  219.2025 H   0  0  0  0  0  0  0  0  0  0  0  0
  141.7258   73.1723  217.8843 H   0  0  0  0  0  0  0  0  0  0  0  0
  139.6951   73.9881  218.9541 H   0  0  0  0  0  0  0  0  0  0  0  0
  142.6438   75.9124  219.7330 H   0  0  0  0  0  0  0  0  0  0  0  0
  141.0325   76.5942  219.2032 H   0  0  0  0  0  0  0  0  0  0  0  0
  142.9291   77.6639  221.2982 H   0  0  0  0  0  0  0  0  0  0  0  0
  142.3650   78.4269  219.7465 H   0  0  0  0  0  0  0  0  0  0  0  0
  140.2223   78.7828  220.5626 H   0  0  0  0  0  0  0  0  0  0  0  0
  140.2883   80.9997  220.7781 H   0  0  0  0  0  0  0  0  0  0  0  0
  141.0005   83.0357  221.9534 H   0  0  0  0  0  0  0  0  0  0  0  0
  142.5205   82.9075  223.9178 H   0  0  0  0  0  0  0  0  0  0  0  0
  143.3108   80.6720  224.6695 H   0  0  0  0  0  0  0  0  0  0  0  0
  142.5951   78.6407  223.4937 H   0  0  0  0  0  0  0  0  0  0  0  0
  140.0315   77.9214  223.1725 H   0  0  0  0  0  0  0  0  0  0  0  0
  139.2270   77.2584  221.6817 H   0  0  0  0  0  0  0  0  0  0  0  0
  141.9043   76.3330  222.7889 H   0  0  0  0  0  0  0  0  0  0  0  0
  140.3681   75.4868  223.0294 H   0  0  0  0  0  0  0  0  0  0  0  0
  138.6619   67.6422  223.8381 H   0  0  0  0  0  0  0  0  0  0  0  0
  139.6725   67.2184  226.0558 H   0  0  0  0  0  0  0  0  0  0  0  0
  140.7755   68.0400  228.0919 H   0  0  0  0  0  0  0  0  0  0  0  0
  141.6805   69.9861  229.3869 H   0  0  0  0  0  0  0  0  0  0  0  0
  141.5381   72.2497  228.4255 H   0  0  0  0  0  0  0  0  0  0  0  0
  140.5263   72.6751  226.2156 H   0  0  0  0  0  0  0  0  0  0  0  0
  1  2  2  0
  2  3  1  0
  3  4  1  0
  4  5  1  0
  5  6  2  0
  5  7  1  0
  7  8  1  0
  8  9  1  0
  9 10  1  0
 10 11  1  0
 11 12  1  0
 12 13  2  0
 12 14  1  0
 14 15  1  0
 15 16  1  0
 16 17  1  0
 17 18  1  0
 18 19  2  0
 19 20  1  0
 20 21  2  0
 21 22  1  0
 22 23  2  0
 17 24  1  0
 24 25  1  0
  2 26  1  0
 26 27  2  0
 27 28  1  0
 28 29  2  0
 29 30  1  0
 30 31  2  0
 31 32  1  0
 32 33  2  0
 33 34  1  0
 34 35  2  0
 11  7  1  0
 25 14  1  0
 35 26  1  0
 23 18  1  0
 34 29  1  0
  3 36  1  0
  4 37  1  0
  4 38  1  0
  8 39  1  0
  8 40  1  0
  9 41  1  0
  9 42  1  0
 10 43  1  0
 10 44  1  0
 11 45  1  6
 15 46  1  0
 15 47  1  0
 16 48  1  0
 16 49  1  0
 17 50  1  0
 19 51  1  0
 20 52  1  0
 21 53  1  0
 22 54  1  0
 23 55  1  0
 24 56  1  0
 24 57  1  0
 25 58  1  0
 25 59  1  0
 27 60  1  0
 28 61  1  0
 30 62  1  0
 31 63  1  0
 32 64  1  0
 33 65  1  0
M  END
>  <smiles>  (10) 
O=C(NCC(=O)N1CCCC1C(=O)N1CCC(c2ccccc2)CC1)c1ccc2ccccc2n1

>  <score_type>  (10) 
oracle

>  <origin>  (10) 
autodockgpu

>  <m_score__min__energy>  (10) 
-9.2699999999999996

>  <m_primary>  (10) 
energy

>  <rmsd>  (10) 
3.179989812180485

>  <m_score__min__rmsd>  (10) 
3.179989812180485

>  <meeko>  (10) 
{"free_energy": -8.61, "intermolecular_energy": -10.4, "internal_energy": -2.75, "cluster_size": 15, "cluster_id": 3, "rank_in_cluster": 9}

>  <energy>  (10) 
-8.96

>  <cluster_rmsd>  (10) 
0.74

>  <cluster>  (10) 
2

$$$$

     RDKit          3D

 65 69  0  0  1  0  0  0  0  0999 V2000
  138.4740   68.8640  222.4020 O   0  0  0  0  0  0  0  0  0  0  0  0
  138.8380   69.9520  222.9320 C   0  0  0  0  0  0  0  0  0  0  0  0
  138.7310   71.1550  222.1780 N   0  0  0  0  0  0  0  0  0  0  0  0
  138.1930   71.0080  220.8230 C   0  0  0  0  0  0  0  0  0  0  0  0
  139.2340   71.1200  219.8060 C   0  0  0  0  0  0  0  0  0  0  0  0
  139.1810   70.5580  218.6730 O   0  0  0  0  0  0  0  0  0  0  0  0
  140.3970   71.9020  220.0660 N   0  0  0  0  0  0  0  0  0  0  0  0
  141.6280   71.4750  220.7600 C   0  0  0  0  0  0  0  0  0  0  0  0
  142.6890   72.0470  219.8150 C   0  0  0  0  0  0  0  0  0  0  0  0
  142.0470   73.2010  219.1060 C   0  0  0  0  0  0  0  0  0  0  0  0
  140.6450   73.2630  219.6970 C   0  0  2  0  0  0  0  0  0  0  0  0
  140.5820   74.1730  220.8410 C   0  0  0  0  0  0  0  0  0  0  0  0
  139.9560   73.6590  221.8680 O   0  0  0  0  0  0  0  0  0  0  0  0
  141.0670   75.4650  221.0250 N   0  0  0  0  0  0  0  0  0  0  0  0
  141.8210   76.2830  220.1150 C   0  0  0  0  0  0  0  0  0  0  0  0
  142.0910   77.6780  220.6360 C   0  0  0  0  0  0  0  0  0  0  0  0
  140.8590   78.3290  221.2070 C   0  0  0  0  0  0  0  0  0  0  0  0
  141.1810   79.5950  221.9020 C   0  0  0  0  0  0  0  0  0  0  0  0
  141.9130   79.6100  223.0610 C   0  0  0  0  0  0  0  0  0  0  0  0
  142.2210   80.7860  223.7190 C   0  0  0  0  0  0  0  0  0  0  0  0
  141.8000   82.0050  223.2300 C   0  0  0  0  0  0  0  0  0  0  0  0
  141.0640   82.0160  222.0680 C   0  0  0  0  0  0  0  0  0  0  0  0
  140.7620   80.8400  221.4200 C   0  0  0  0  0  0  0  0  0  0  0  0
  140.0430   77.3690  222.0350 C   0  0  0  0  0  0  0  0  0  0  0  0
  140.7850   76.0980  222.3400 C   0  0  0  0  0  0  0  0  0  0  0  0
  139.3590   69.9590  224.2990 C   0  0  0  0  0  0  0  0  0  0  0  0
  139.2420   68.8270  225.0780 C   0  0  0  0  0  0  0  0  0  0  0  0
  139.7330   68.8280  226.3740 C   0  0  0  0  0  0  0  0  0  0  0  0
  140.3510   69.9560  226.9190 C   0  0  0  0  0  0  0  0  0  0  0  0
  140.8440   69.9610  228.2130 C   0  0  0  0  0  0  0  0  0  0  0  0
  141.4470   71.1130  228.6960 C   0  0  0  0  0  0  0  0  0  0  0  0
  141.5360   72.2170  227.8710 C   0  0  0  0  0  0  0  0  0  0  0  0
  141.0530   72.2360  226.5820 C   0  0  0  0  0  0  0  0  0  0  0  0
  140.4450   71.0720  226.0970 C   0  0  0  0  0  0  0  0  0  0  0  0
  139.9580   71.0370  224.8450 N   0  0  0  0  0  0  0  0  0  0  0  0
  139.0190   72.0720  222.5730 H   0  0  0  0  0  0  0  0  0  0  0  0
  137.7159   70.0207  220.7355 H   0  0  0  0  0  0  0  0  0  0  0  0
  137.4668   71.8172  220.6562 H   0  0  0  0  0  0  0  0  0  0  0  0
  141.7006   71.9135  221.7662 H   0  0  0  0  0  0  0  0  0  0  0  0
  141.7047   70.3919  220.9359 H   0  0  0  0  0  0  0  0  0  0  0  0
  143.5628   72.3910  220.3878 H   0  0  0  0  0  0  0  0  0  0  0  0
  143.0394   71.2862  219.1020 H   0  0  0  0  0  0  0  0  0  0  0  0
  142.5954   74.1342  219.3018 H   0  0  0  0  0  0  0  0  0  0  0  0
  142.0405   73.0757  218.0132 H   0  0  0  0  0  0  0  0  0  0  0  0
  139.8913   73.6582  219.0000 H   0  0  0  0  0  0  0  0  0  0  0  0
  142.7858   75.7908  219.9227 H   0  0  0  0  0  0  0  0  0  0  0  0
  141.2171   76.3909  219.2020 H   0  0  0  0  0  0  0  0  0  0  0  0
  142.8559   77.6182  221.4243 H   0  0  0  0  0  0  0  0  0  0  0  0
  142.4307   78.2913  219.7884 H   0  0  0  0  0  0  0  0  0  0  0  0
  140.2085   78.6098  220.3655 H   0  0  0  0  0  0  0  0  0  0  0  0
  142.2663   78.6565  223.4805 H   0  0  0  0  0  0  0  0  0  0  0  0
  142.8108   80.7491  224.6467 H   0  0  0  0  0  0  0  0  0  0  0  0
  142.0455   82.9406  223.7537 H   0  0  0  0  0  0  0  0  0  0  0  0
  140.7139   82.9727  221.6532 H   0  0  0  0  0  0  0  0  0  0  0  0
  140.1718   80.8801  220.4926 H   0  0  0  0  0  0  0  0  0  0  0  0
  139.7773   77.8587  222.9835 H   0  0  0  0  0  0  0  0  0  0  0  0
  139.1483   77.1025  221.4532 H   0  0  0  0  0  0  0  0  0  0  0  0
  141.7247   76.3206  222.8668 H   0  0  0  0  0  0  0  0  0  0  0  0
  140.1972   75.4334  222.9902 H   0  0  0  0  0  0  0  0  0  0  0  0
  138.7601   67.9255  224.6717 H   0  0  0  0  0  0  0  0  0  0  0  0
  139.6338   67.9202  226.9872 H   0  0  0  0  0  0  0  0  0  0  0  0
  140.7588   69.0663  228.8473 H   0  0  0  0  0  0  0  0  0  0  0  0
  141.8479   71.1467  229.7198 H   0  0  0  0  0  0  0  0  0  0  0  0
  142.0163   73.1256  228.2631 H   0  0  0  0  0  0  0  0  0  0  0  0
  141.1418   73.1351  225.9545 H   0  0  0  0  0  0  0  0  0  0  0  0
  1  2  2  0
  2  3  1  0
  3  4  1  0
  4  5  1  0
  5  6  2  0
  5  7  1  0
  7  8  1  0
  8  9  1  0
  9 10  1  0
 10 11  1  0
 11 12  1  0
 12 13  2  0
 12 14  1  0
 14 15  1  0
 15 16  1  0
 16 17  1  0
 17 18  1  0
 18 19  2  0
 19 20  1  0
 20 21  2  0
 21 22  1  0
 22 23  2  0
 17 24  1  0
 24 25  1  0
  2 26  1  0
 26 27  2  0
 27 28  1  0
 28 29  2  0
 29 30  1  0
 30 31  2  0
 31 32  1  0
 32 33  2  0
 33 34  1  0
 34 35  2  0
 11  7  1  0
 25 14  1  0
 35 26  1  0
 23 18  1  0
 34 29  1  0
  3 36  1  0
  4 37  1  0
  4 38  1  0
  8 39  1  0
  8 40  1  0
  9 41  1  0
  9 42  1  0
 10 43  1  0
 10 44  1  0
 11 45  1  6
 15 46  1  0
 15 47  1  0
 16 48  1  0
 16 49  1  0
 17 50  1  0
 19 51  1  0
 20 52  1  0
 21 53  1  0
 22 54  1  0
 23 55  1  0
 24 56  1  0
 24 57  1  0
 25 58  1  0
 25 59  1  0
 27 60  1  0
 28 61  1  0
 30 62  1  0
 31 63  1  0
 32 64  1  0
 33 65  1  0
M  END
>  <smiles>  (11) 
O=C(NCC(=O)N1CCCC1C(=O)N1CCC(c2ccccc2)CC1)c1ccc2ccccc2n1

>  <score_type>  (11) 
oracle

>  <origin>  (11) 
autodockgpu

>  <m_score__min__energy>  (11) 
-9.2699999999999996

>  <m_primary>  (11) 
energy

>  <rmsd>  (11) 
3.5714786811921635

>  <m_score__min__rmsd>  (11) 
3.5714786811921635

>  <meeko>  (11) 
{"free_energy": -8.61, "intermolecular_energy": -10.4, "internal_energy": -2.8, "cluster_size": 15, "cluster_id": 3, "rank_in_cluster": 8}

>  <energy>  (11) 
-8.7

>  <cluster_rmsd>  (11) 
0.89

>  <cluster>  (11) 
2

$$$$

     RDKit          3D

 65 69  0  0  1  0  0  0  0  0999 V2000
  137.5590   69.1510  222.2780 O   0  0  0  0  0  0  0  0  0  0  0  0
  138.1860   70.1150  222.8020 C   0  0  0  0  0  0  0  0  0  0  0  0
  138.2140   71.3680  222.1250 N   0  0  0  0  0  0  0  0  0  0  0  0
  137.4890   71.4170  220.8530 C   0  0  0  0  0  0  0  0  0  0  0  0
  138.3780   71.6890  219.7270 C   0  0  0  0  0  0  0  0  0  0  0  0
  138.0480   71.5470  218.5140 O   0  0  0  0  0  0  0  0  0  0  0  0
  139.7060   72.1480  219.9680 N   0  0  0  0  0  0  0  0  0  0  0  0
  140.8130   71.3990  220.5940 C   0  0  0  0  0  0  0  0  0  0  0  0
  141.9530   71.7360  219.6290 C   0  0  0  0  0  0  0  0  0  0  0  0
  141.5950   73.0450  218.9920 C   0  0  0  0  0  0  0  0  0  0  0  0
  140.2710   73.4220  219.6430 C   0  0  2  0  0  0  0  0  0  0  0  0
  140.4710   74.2640  220.8230 C   0  0  0  0  0  0  0  0  0  0  0  0
  140.0970   73.6830  221.9340 O   0  0  0  0  0  0  0  0  0  0  0  0
  140.9840   75.5500  220.9670 N   0  0  0  0  0  0  0  0  0  0  0  0
  141.5090   76.4290  219.9600 C   0  0  0  0  0  0  0  0  0  0  0  0
  141.8910   77.7960  220.4870 C   0  0  0  0  0  0  0  0  0  0  0  0
  140.8210   78.3960  221.3620 C   0  0  0  0  0  0  0  0  0  0  0  0
  141.2930   79.6240  222.0380 C   0  0  0  0  0  0  0  0  0  0  0  0
  142.0840   79.5670  223.1560 C   0  0  0  0  0  0  0  0  0  0  0  0
  142.5310   80.7080  223.7960 C   0  0  0  0  0  0  0  0  0  0  0  0
  142.1970   81.9620  223.3310 C   0  0  0  0  0  0  0  0  0  0  0  0
  141.4030   82.0450  222.2100 C   0  0  0  0  0  0  0  0  0  0  0  0
  140.9630   80.9040  221.5790 C   0  0  0  0  0  0  0  0  0  0  0  0
  140.2170   77.3780  222.2950 C   0  0  0  0  0  0  0  0  0  0  0  0
  141.0100   76.1030  222.3470 C   0  0  0  0  0  0  0  0  0  0  0  0
  138.8700   69.9320  224.0820 C   0  0  0  0  0  0  0  0  0  0  0  0
  138.9080   68.6800  224.6600 C   0  0  0  0  0  0  0  0  0  0  0  0
  139.5530   68.5010  225.8730 C   0  0  0  0  0  0  0  0  0  0  0  0
  140.1740   69.5640  226.5340 C   0  0  0  0  0  0  0  0  0  0  0  0
  140.8200   69.3880  227.7460 C   0  0  0  0  0  0  0  0  0  0  0  0
  141.4170   70.4850  228.3520 C   0  0  0  0  0  0  0  0  0  0  0  0
  141.3470   71.7140  227.7280 C   0  0  0  0  0  0  0  0  0  0  0  0
  140.7100   71.9120  226.5240 C   0  0  0  0  0  0  0  0  0  0  0  0
  140.1080   70.8050  225.9140 C   0  0  0  0  0  0  0  0  0  0  0  0
  139.4740   70.9440  224.7370 N   0  0  0  0  0  0  0  0  0  0  0  0
  138.7180   72.1880  222.5170 H   0  0  0  0  0  0  0  0  0  0  0  0
  136.9940   70.4485  220.6888 H   0  0  0  0  0  0  0  0  0  0  0  0
  136.7549   72.2341  220.9115 H   0  0  0  0  0  0  0  0  0  0  0  0
  141.0225   71.7582  221.6124 H   0  0  0  0  0  0  0  0  0  0  0  0
  140.6243   70.3233  220.7252 H   0  0  0  0  0  0  0  0  0  0  0  0
  142.9019   71.8269  220.1780 H   0  0  0  0  0  0  0  0  0  0  0  0
  142.0825   70.9470  218.8736 H   0  0  0  0  0  0  0  0  0  0  0  0
  142.3632   73.8042  219.2003 H   0  0  0  0  0  0  0  0  0  0  0  0
  141.5237   72.9771  217.8964 H   0  0  0  0  0  0  0  0  0  0  0  0
  139.6170   74.0237  218.9947 H   0  0  0  0  0  0  0  0  0  0  0  0
  142.4042   75.9621  219.5235 H   0  0  0  0  0  0  0  0  0  0  0  0
  140.7117   76.5811  219.2175 H   0  0  0  0  0  0  0  0  0  0  0  0
  142.8159   77.7017  221.0749 H   0  0  0  0  0  0  0  0  0  0  0  0
  142.0281   78.4617  219.6221 H   0  0  0  0  0  0  0  0  0  0  0  0
  139.9945   78.7161  220.7105 H   0  0  0  0  0  0  0  0  0  0  0  0
  142.3718   78.5836  223.5561 H   0  0  0  0  0  0  0  0  0  0  0  0
  143.1636   80.6137  224.6910 H   0  0  0  0  0  0  0  0  0  0  0  0
  142.5544   82.8690  223.8406 H   0  0  0  0  0  0  0  0  0  0  0  0
  141.1178   83.0313  221.8152 H   0  0  0  0  0  0  0  0  0  0  0  0
  140.3309   81.0014  220.6840 H   0  0  0  0  0  0  0  0  0  0  0  0
  140.1741   77.8082  223.3065 H   0  0  0  0  0  0  0  0  0  0  0  0
  139.2136   77.1322  221.9170 H   0  0  0  0  0  0  0  0  0  0  0  0
  142.0451   76.3086  222.6573 H   0  0  0  0  0  0  0  0  0  0  0  0
  140.5873   75.3940  223.0741 H   0  0  0  0  0  0  0  0  0  0  0  0
  138.4277   67.8264  224.1593 H   0  0  0  0  0  0  0  0  0  0  0  0
  139.5768   67.4990  226.3262 H   0  0  0  0  0  0  0  0  0  0  0  0
  140.8595   68.3963  228.2203 H   0  0  0  0  0  0  0  0  0  0  0  0
  141.9379   70.3764  229.3148 H   0  0  0  0  0  0  0  0  0  0  0  0
  141.8232   72.5769  228.2164 H   0  0  0  0  0  0  0  0  0  0  0  0
  140.6751   72.9071  226.0566 H   0  0  0  0  0  0  0  0  0  0  0  0
  1  2  2  0
  2  3  1  0
  3  4  1  0
  4  5  1  0
  5  6  2  0
  5  7  1  0
  7  8  1  0
  8  9  1  0
  9 10  1  0
 10 11  1  0
 11 12  1  0
 12 13  2  0
 12 14  1  0
 14 15  1  0
 15 16  1  0
 16 17  1  0
 17 18  1  0
 18 19  2  0
 19 20  1  0
 20 21  2  0
 21 22  1  0
 22 23  2  0
 17 24  1  0
 24 25  1  0
  2 26  1  0
 26 27  2  0
 27 28  1  0
 28 29  2  0
 29 30  1  0
 30 31  2  0
 31 32  1  0
 32 33  2  0
 33 34  1  0
 34 35  2  0
 11  7  1  0
 25 14  1  0
 35 26  1  0
 23 18  1  0
 34 29  1  0
  3 36  1  0
  4 37  1  0
  4 38  1  0
  8 39  1  0
  8 40  1  0
  9 41  1  0
  9 42  1  0
 10 43  1  0
 10 44  1  0
 11 45  1  6
 15 46  1  0
 15 47  1  0
 16 48  1  0
 16 49  1  0
 17 50  1  0
 19 51  1  0
 20 52  1  0
 21 53  1  0
 22 54  1  0
 23 55  1  0
 24 56  1  0
 24 57  1  0
 25 58  1  0
 25 59  1  0
 27 60  1  0
 28 61  1  0
 30 62  1  0
 31 63  1  0
 32 64  1  0
 33 65  1  0
M  END
>  <smiles>  (12) 
O=C(NCC(=O)N1CCCC1C(=O)N1CCC(c2ccccc2)CC1)c1ccc2ccccc2n1

>  <score_type>  (12) 
oracle

>  <origin>  (12) 
autodockgpu

>  <m_score__min__energy>  (12) 
-9.2699999999999996

>  <m_primary>  (12) 
energy

>  <rmsd>  (12) 
3.441352851061215

>  <m_score__min__rmsd>  (12) 
3.441352851061215

>  <meeko>  (12) 
{"free_energy": -8.67, "intermolecular_energy": -10.46, "internal_energy": -2.69, "cluster_size": 15, "cluster_id": 3, "rank_in_cluster": 7}

>  <energy>  (12) 
-8.58

>  <cluster_rmsd>  (12) 
1.09

>  <cluster>  (12) 
2

$$$$

     RDKit          3D

 65 69  0  0  1  0  0  0  0  0999 V2000
  141.0890   73.1730  222.3430 O   0  0  0  0  0  0  0  0  0  0  0  0
  140.2130   72.2640  222.4040 C   0  0  0  0  0  0  0  0  0  0  0  0
  139.4000   72.0130  221.2630 N   0  0  0  0  0  0  0  0  0  0  0  0
  139.6680   72.8580  220.0950 C   0  0  0  0  0  0  0  0  0  0  0  0
  138.4460   73.1940  219.3710 C   0  0  0  0  0  0  0  0  0  0  0  0
  138.3150   73.0910  218.1160 O   0  0  0  0  0  0  0  0  0  0  0  0
  137.3060   73.6670  220.0850 N   0  0  0  0  0  0  0  0  0  0  0  0
  136.1100   74.3270  219.5270 C   0  0  0  0  0  0  0  0  0  0  0  0
  135.0070   73.5750  220.2770 C   0  0  0  0  0  0  0  0  0  0  0  0
  135.6220   73.0780  221.5500 C   0  0  0  0  0  0  0  0  0  0  0  0
  137.0540   73.5930  221.4920 C   0  0  2  0  0  0  0  0  0  0  0  0
  137.1870   74.8910  222.1540 C   0  0  0  0  0  0  0  0  0  0  0  0
  136.0540   75.3420  222.6260 O   0  0  0  0  0  0  0  0  0  0  0  0
  138.2910   75.7130  222.3670 N   0  0  0  0  0  0  0  0  0  0  0  0
  139.6630   75.4900  222.0100 C   0  0  0  0  0  0  0  0  0  0  0  0
  140.5700   76.6610  222.3250 C   0  0  0  0  0  0  0  0  0  0  0  0
  139.9960   77.9750  221.8620 C   0  0  0  0  0  0  0  0  0  0  0  0
  140.7840   79.1220  222.3640 C   0  0  0  0  0  0  0  0  0  0  0  0
  140.6100   80.3850  221.8610 C   0  0  0  0  0  0  0  0  0  0  0  0
  141.3400   81.4650  222.3220 C   0  0  0  0  0  0  0  0  0  0  0  0
  142.2810   81.3140  223.3190 C   0  0  0  0  0  0  0  0  0  0  0  0
  142.4740   80.0550  223.8400 C   0  0  0  0  0  0  0  0  0  0  0  0
  141.7430   78.9860  223.3740 C   0  0  0  0  0  0  0  0  0  0  0  0
  138.5200   78.0780  222.1440 C   0  0  0  0  0  0  0  0  0  0  0  0
  138.0330   76.9980  223.0700 C   0  0  0  0  0  0  0  0  0  0  0  0
  140.0480   71.4910  223.6350 C   0  0  0  0  0  0  0  0  0  0  0  0
  139.2980   70.3330  223.6160 C   0  0  0  0  0  0  0  0  0  0  0  0
  139.1380   69.5970  224.7790 C   0  0  0  0  0  0  0  0  0  0  0  0
  139.7220   69.9980  225.9830 C   0  0  0  0  0  0  0  0  0  0  0  0
  139.5650   69.2640  227.1460 C   0  0  0  0  0  0  0  0  0  0  0  0
  140.1710   69.7160  228.3100 C   0  0  0  0  0  0  0  0  0  0  0  0
  140.9110   70.8820  228.2700 C   0  0  0  0  0  0  0  0  0  0  0  0
  141.0790   71.6270  227.1250 C   0  0  0  0  0  0  0  0  0  0  0  0
  140.4680   71.1690  225.9530 C   0  0  0  0  0  0  0  0  0  0  0  0
  140.6030   71.8600  224.8070 N   0  0  0  0  0  0  0  0  0  0  0  0
  138.6660   71.2770  221.2670 H   0  0  0  0  0  0  0  0  0  0  0  0
  140.1480   73.7884  220.4325 H   0  0  0  0  0  0  0  0  0  0  0  0
  140.3235   72.2967  219.4129 H   0  0  0  0  0  0  0  0  0  0  0  0
  136.0958   75.4032  219.7543 H   0  0  0  0  0  0  0  0  0  0  0  0
  136.0312   74.2863  218.4306 H   0  0  0  0  0  0  0  0  0  0  0  0
  134.1686   74.2517  220.4987 H   0  0  0  0  0  0  0  0  0  0  0  0
  134.6115   72.7437  219.6748 H   0  0  0  0  0  0  0  0  0  0  0  0
  135.0946   73.4864  222.4247 H   0  0  0  0  0  0  0  0  0  0  0  0
  135.5689   71.9836  221.6471 H   0  0  0  0  0  0  0  0  0  0  0  0
  137.7745   72.9502  222.0190 H   0  0  0  0  0  0  0  0  0  0  0  0
  140.0270   74.6103  222.5610 H   0  0  0  0  0  0  0  0  0  0  0  0
  139.6927   75.3433  220.9202 H   0  0  0  0  0  0  0  0  0  0  0  0
  140.7226   76.7064  223.4134 H   0  0  0  0  0  0  0  0  0  0  0  0
  141.5183   76.5031  221.7904 H   0  0  0  0  0  0  0  0  0  0  0  0
  140.0832   78.0122  220.7661 H   0  0  0  0  0  0  0  0  0  0  0  0
  139.8667   80.5444  221.0660 H   0  0  0  0  0  0  0  0  0  0  0  0
  141.1675   82.4604  221.8867 H   0  0  0  0  0  0  0  0  0  0  0  0
  142.8598   82.1741  223.6867 H   0  0  0  0  0  0  0  0  0  0  0  0
  143.2184   79.9018  224.6352 H   0  0  0  0  0  0  0  0  0  0  0  0
  141.9185   77.9915  223.8100 H   0  0  0  0  0  0  0  0  0  0  0  0
  138.3165   79.0558  222.6049 H   0  0  0  0  0  0  0  0  0  0  0  0
  137.9886   77.9626  221.1878 H   0  0  0  0  0  0  0  0  0  0  0  0
  138.5848   77.0316  224.0210 H   0  0  0  0  0  0  0  0  0  0  0  0
  136.9664   77.1210  223.3091 H   0  0  0  0  0  0  0  0  0  0  0  0
  138.8285   69.9951  222.6804 H   0  0  0  0  0  0  0  0  0  0  0  0
  138.5373   68.6758  224.7537 H   0  0  0  0  0  0  0  0  0  0  0  0
  138.9703   68.3386  227.1477 H   0  0  0  0  0  0  0  0  0  0  0  0
  140.0638   69.1545  229.2498 H   0  0  0  0  0  0  0  0  0  0  0  0
  141.3885   71.2315  229.1973 H   0  0  0  0  0  0  0  0  0  0  0  0
  141.6741   72.5521  227.1313 H   0  0  0  0  0  0  0  0  0  0  0  0
  1  2  2  0
  2  3  1  0
  3  4  1  0
  4  5  1  0
  5  6  2  0
  5  7  1  0
  7  8  1  0
  8  9  1  0
  9 10  1  0
 10 11  1  0
 11 12  1  0
 12 13  2  0
 12 14  1  0
 14 15  1  0
 15 16  1  0
 16 17  1  0
 17 18  1  0
 18 19  2  0
 19 20  1  0
 20 21  2  0
 21 22  1  0
 22 23  2  0
 17 24  1  0
 24 25  1  0
  2 26  1  0
 26 27  2  0
 27 28  1  0
 28 29  2  0
 29 30  1  0
 30 31  2  0
 31 32  1  0
 32 33  2  0
 33 34  1  0
 34 35  2  0
 11  7  1  0
 25 14  1  0
 35 26  1  0
 23 18  1  0
 34 29  1  0
  3 36  1  0
  4 37  1  0
  4 38  1  0
  8 39  1  0
  8 40  1  0
  9 41  1  0
  9 42  1  0
 10 43  1  0
 10 44  1  0
 11 45  1  1
 15 46  1  0
 15 47  1  0
 16 48  1  0
 16 49  1  0
 17 50  1  0
 19 51  1  0
 20 52  1  0
 21 53  1  0
 22 54  1  0
 23 55  1  0
 24 56  1  0
 24 57  1  0
 25 58  1  0
 25 59  1  0
 27 60  1  0
 28 61  1  0
 30 62  1  0
 31 63  1  0
 32 64  1  0
 33 65  1  0
M  END
>  <smiles>  (13) 
O=C(NCC(=O)N1CCCC1C(=O)N1CCC(c2ccccc2)CC1)c1ccc2ccccc2n1

>  <score_type>  (13) 
oracle

>  <origin>  (13) 
autodockgpu

>  <m_score__min__energy>  (13) 
-9.2699999999999996

>  <m_primary>  (13) 
energy

>  <rmsd>  (13) 
3.7034567986755773

>  <m_score__min__rmsd>  (13) 
3.7034567986755773

>  <meeko>  (13) 
{"free_energy": -8.71, "intermolecular_energy": -10.5, "internal_energy": -2.13, "cluster_size": 11, "cluster_id": 4, "rank_in_cluster": 3}

>  <energy>  (13) 
-8.33

>  <cluster_rmsd>  (13) 
1.31

>  <cluster>  (13) 
2

$$$$

     RDKit          3D

 65 69  0  0  1  0  0  0  0  0999 V2000
  141.0280   72.9370  222.2000 O   0  0  0  0  0  0  0  0  0  0  0  0
  139.9270   72.6260  222.7390 C   0  0  0  0  0  0  0  0  0  0  0  0
  138.7470   73.3150  222.3400 N   0  0  0  0  0  0  0  0  0  0  0  0
  138.9290   74.3450  221.3130 C   0  0  0  0  0  0  0  0  0  0  0  0
  139.5670   75.5440  221.8490 C   0  0  0  0  0  0  0  0  0  0  0  0
  140.7340   75.5670  222.3380 O   0  0  0  0  0  0  0  0  0  0  0  0
  138.8660   76.7850  221.8360 N   0  0  0  0  0  0  0  0  0  0  0  0
  139.0850   77.9470  222.7210 C   0  0  0  0  0  0  0  0  0  0  0  0
  139.0650   79.0810  221.6930 C   0  0  0  0  0  0  0  0  0  0  0  0
  138.2530   78.5890  220.5340 C   0  0  0  0  0  0  0  0  0  0  0  0
  137.8140   77.1950  220.9570 C   0  0  2  0  0  0  0  0  0  0  0  0
  136.5090   77.2190  221.6200 C   0  0  0  0  0  0  0  0  0  0  0  0
  135.7930   78.2650  221.3000 O   0  0  0  0  0  0  0  0  0  0  0  0
  135.9070   76.3350  222.5120 N   0  0  0  0  0  0  0  0  0  0  0  0
  136.4080   75.0910  223.0250 C   0  0  0  0  0  0  0  0  0  0  0  0
  135.5020   74.4500  224.0560 C   0  0  0  0  0  0  0  0  0  0  0  0
  135.0360   75.4300  225.1010 C   0  0  0  0  0  0  0  0  0  0  0  0
  133.9890   74.8470  225.9690 C   0  0  0  0  0  0  0  0  0  0  0  0
  133.1720   75.6370  226.7350 C   0  0  0  0  0  0  0  0  0  0  0  0
  132.1900   75.1040  227.5490 C   0  0  0  0  0  0  0  0  0  0  0  0
  131.9900   73.7410  227.6230 C   0  0  0  0  0  0  0  0  0  0  0  0
  132.7980   72.9270  226.8630 C   0  0  0  0  0  0  0  0  0  0  0  0
  133.7730   73.4670  226.0550 C   0  0  0  0  0  0  0  0  0  0  0  0
  134.6620   76.7610  224.5030 C   0  0  0  0  0  0  0  0  0  0  0  0
  134.5550   76.7100  223.0050 C   0  0  0  0  0  0  0  0  0  0  0  0
  139.8830   71.5750  223.7550 C   0  0  0  0  0  0  0  0  0  0  0  0
  139.2480   70.3830  223.4740 C   0  0  0  0  0  0  0  0  0  0  0  0
  139.2030   69.3840  224.4320 C   0  0  0  0  0  0  0  0  0  0  0  0
  139.7890   69.5510  225.6900 C   0  0  0  0  0  0  0  0  0  0  0  0
  139.7470   68.5540  226.6490 C   0  0  0  0  0  0  0  0  0  0  0  0
  140.3490   68.7810  227.8790 C   0  0  0  0  0  0  0  0  0  0  0  0
  140.9700   69.9940  228.1050 C   0  0  0  0  0  0  0  0  0  0  0  0
  141.0240   70.9990  227.1660 C   0  0  0  0  0  0  0  0  0  0  0  0
  140.4160   70.7670  225.9260 C   0  0  0  0  0  0  0  0  0  0  0  0
  140.4420   71.7150  224.9740 N   0  0  0  0  0  0  0  0  0  0  0  0
  137.8200   73.0940  222.7570 H   0  0  0  0  0  0  0  0  0  0  0  0
  139.5584   73.9371  220.5084 H   0  0  0  0  0  0  0  0  0  0  0  0
  137.9354   74.6283  220.9355 H   0  0  0  0  0  0  0  0  0  0  0  0
  138.2775   78.0535  223.4603 H   0  0  0  0  0  0  0  0  0  0  0  0
  139.9984   77.8951  223.3317 H   0  0  0  0  0  0  0  0  0  0  0  0
  138.6023   79.9796  222.1271 H   0  0  0  0  0  0  0  0  0  0  0  0
  140.0839   79.3518  221.3789 H   0  0  0  0  0  0  0  0  0  0  0  0
  137.3816   79.2383  220.3635 H   0  0  0  0  0  0  0  0  0  0  0  0
  138.8195   78.5864  219.5911 H   0  0  0  0  0  0  0  0  0  0  0  0
  137.6725   76.5040  220.1129 H   0  0  0  0  0  0  0  0  0  0  0  0
  136.5276   74.3915  222.1846 H   0  0  0  0  0  0  0  0  0  0  0  0
  137.3621   75.3104  223.5266 H   0  0  0  0  0  0  0  0  0  0  0  0
  134.6216   74.0353  223.5433 H   0  0  0  0  0  0  0  0  0  0  0  0
  136.0787   73.6647  224.5667 H   0  0  0  0  0  0  0  0  0  0  0  0
  135.8873   75.6419  225.7647 H   0  0  0  0  0  0  0  0  0  0  0  0
  133.3017   76.7288  226.7010 H   0  0  0  0  0  0  0  0  0  0  0  0
  131.5582   75.7772  228.1470 H   0  0  0  0  0  0  0  0  0  0  0  0
  131.2079   73.3176  228.2703 H   0  0  0  0  0  0  0  0  0  0  0  0
  132.6638   71.8359  226.9014 H   0  0  0  0  0  0  0  0  0  0  0  0
  134.4029   72.7917  225.4574 H   0  0  0  0  0  0  0  0  0  0  0  0
  133.6910   77.0726  224.9155 H   0  0  0  0  0  0  0  0  0  0  0  0
  135.4580   77.4765  224.7567 H   0  0  0  0  0  0  0  0  0  0  0  0
  133.8139   75.9565  222.6998 H   0  0  0  0  0  0  0  0  0  0  0  0
  134.2274   77.6748  222.5906 H   0  0  0  0  0  0  0  0  0  0  0  0
  138.7786   70.2265  222.4916 H   0  0  0  0  0  0  0  0  0  0  0  0
  138.6944   68.4372  224.1976 H   0  0  0  0  0  0  0  0  0  0  0  0
  139.2450   67.5978  226.4400 H   0  0  0  0  0  0  0  0  0  0  0  0
  140.3318   68.0076  228.6610 H   0  0  0  0  0  0  0  0  0  0  0  0
  141.4443   70.1651  229.0826 H   0  0  0  0  0  0  0  0  0  0  0  0
  141.5279   71.9525  227.3824 H   0  0  0  0  0  0  0  0  0  0  0  0
  1  2  2  0
  2  3  1  0
  3  4  1  0
  4  5  1  0
  5  6  2  0
  5  7  1  0
  7  8  1  0
  8  9  1  0
  9 10  1  0
 10 11  1  0
 11 12  1  0
 12 13  2  0
 12 14  1  0
 14 15  1  0
 15 16  1  0
 16 17  1  0
 17 18  1  0
 18 19  2  0
 19 20  1  0
 20 21  2  0
 21 22  1  0
 22 23  2  0
 17 24  1  0
 24 25  1  0
  2 26  1  0
 26 27  2  0
 27 28  1  0
 28 29  2  0
 29 30  1  0
 30 31  2  0
 31 32  1  0
 32 33  2  0
 33 34  1  0
 34 35  2  0
 11  7  1  0
 25 14  1  0
 35 26  1  0
 23 18  1  0
 34 29  1  0
  3 36  1  0
  4 37  1  0
  4 38  1  0
  8 39  1  0
  8 40  1  0
  9 41  1  0
  9 42  1  0
 10 43  1  0
 10 44  1  0
 11 45  1  6
 15 46  1  0
 15 47  1  0
 16 48  1  0
 16 49  1  0
 17 50  1  0
 19 51  1  0
 20 52  1  0
 21 53  1  0
 22 54  1  0
 23 55  1  0
 24 56  1  0
 24 57  1  0
 25 58  1  0
 25 59  1  0
 27 60  1  0
 28 61  1  0
 30 62  1  0
 31 63  1  0
 32 64  1  0
 33 65  1  0
M  END
>  <smiles>  (14) 
O=C(NCC(=O)N1CCCC1C(=O)N1CCC(c2ccccc2)CC1)c1ccc2ccccc2n1

>  <score_type>  (14) 
oracle

>  <origin>  (14) 
autodockgpu

>  <m_score__min__energy>  (14) 
-9.2699999999999996

>  <m_primary>  (14) 
energy

>  <rmsd>  (14) 
5.729947370202886

>  <m_score__min__rmsd>  (14) 
5.729947370202886

>  <meeko>  (14) 
{"free_energy": -9.1, "intermolecular_energy": -10.89, "internal_energy": -1.86, "cluster_size": 7, "cluster_id": 2, "rank_in_cluster": 3}

>  <energy>  (14) 
-8.98

>  <cluster_rmsd>  (14) 
0.0

>  <cluster>  (14) 
3

$$$$

     RDKit          3D

 65 69  0  0  1  0  0  0  0  0999 V2000
  137.7190   69.6970  222.2540 O   0  0  0  0  0  0  0  0  0  0  0  0
  137.8630   70.3820  223.3060 C   0  0  0  0  0  0  0  0  0  0  0  0
  137.2700   71.6750  223.3730 N   0  0  0  0  0  0  0  0  0  0  0  0
  136.5290   72.0950  222.1810 C   0  0  0  0  0  0  0  0  0  0  0  0
  137.1500   73.2450  221.5290 C   0  0  0  0  0  0  0  0  0  0  0  0
  136.5340   74.3120  221.2390 O   0  0  0  0  0  0  0  0  0  0  0  0
  138.5330   73.2030  221.1840 N   0  0  0  0  0  0  0  0  0  0  0  0
  139.6800   73.0380  222.0980 C   0  0  0  0  0  0  0  0  0  0  0  0
  140.4950   71.9940  221.3300 C   0  0  0  0  0  0  0  0  0  0  0  0
  140.1190   72.1410  219.8870 C   0  0  0  0  0  0  0  0  0  0  0  0
  139.1190   73.2890  219.8810 C   0  0  2  0  0  0  0  0  0  0  0  0
  139.7770   74.5760  219.6480 C   0  0  0  0  0  0  0  0  0  0  0  0
  140.4220   74.6210  218.5110 O   0  0  0  0  0  0  0  0  0  0  0  0
  139.8300   75.7400  220.4100 N   0  0  0  0  0  0  0  0  0  0  0  0
  139.2040   76.0220  221.6710 C   0  0  0  0  0  0  0  0  0  0  0  0
  139.5720   77.3750  222.2420 C   0  0  0  0  0  0  0  0  0  0  0  0
  141.0540   77.6370  222.1930 C   0  0  0  0  0  0  0  0  0  0  0  0
  141.3740   79.0370  222.5520 C   0  0  0  0  0  0  0  0  0  0  0  0
  142.2600   79.3350  223.5540 C   0  0  0  0  0  0  0  0  0  0  0  0
  142.5670   80.6390  223.8970 C   0  0  0  0  0  0  0  0  0  0  0  0
  141.9880   81.7030  223.2370 C   0  0  0  0  0  0  0  0  0  0  0  0
  141.0950   81.4290  222.2270 C   0  0  0  0  0  0  0  0  0  0  0  0
  140.7960   80.1280  221.8930 C   0  0  0  0  0  0  0  0  0  0  0  0
  141.6670   77.1850  220.8930 C   0  0  0  0  0  0  0  0  0  0  0  0
  140.6330   76.8600  219.8520 C   0  0  0  0  0  0  0  0  0  0  0  0
  138.6290   69.8420  224.4300 C   0  0  0  0  0  0  0  0  0  0  0  0
  138.7630   68.4760  224.5680 C   0  0  0  0  0  0  0  0  0  0  0  0
  139.4870   67.9590  225.6300 C   0  0  0  0  0  0  0  0  0  0  0  0
  140.0920   68.7910  226.5750 C   0  0  0  0  0  0  0  0  0  0  0  0
  140.8170   68.2780  227.6370 C   0  0  0  0  0  0  0  0  0  0  0  0
  141.3940   69.1580  228.5420 C   0  0  0  0  0  0  0  0  0  0  0  0
  141.2270   70.5150  228.3540 C   0  0  0  0  0  0  0  0  0  0  0  0
  140.5100   71.0480  227.3060 C   0  0  0  0  0  0  0  0  0  0  0  0
  139.9290   70.1580  226.3940 C   0  0  0  0  0  0  0  0  0  0  0  0
  139.2200   70.6270  225.3530 N   0  0  0  0  0  0  0  0  0  0  0  0
  137.3640   72.2740  224.2170 H   0  0  0  0  0  0  0  0  0  0  0  0
  136.4971   71.2572  221.4689 H   0  0  0  0  0  0  0  0  0  0  0  0
  135.5164   72.3879  222.4955 H   0  0  0  0  0  0  0  0  0  0  0  0
  140.2381   73.9775  222.2242 H   0  0  0  0  0  0  0  0  0  0  0  0
  139.4121   72.7482  223.1248 H   0  0  0  0  0  0  0  0  0  0  0  0
  141.5712   72.1783  221.4633 H   0  0  0  0  0  0  0  0  0  0  0  0
  140.2857   70.9776  221.6949 H   0  0  0  0  0  0  0  0  0  0  0  0
  141.0004   72.3872  219.2766 H   0  0  0  0  0  0  0  0  0  0  0  0
  139.7032   71.2156  219.4619 H   0  0  0  0  0  0  0  0  0  0  0  0
  138.3745   73.2196  219.0742 H   0  0  0  0  0  0  0  0  0  0  0  0
  138.1132   75.9880  221.5329 H   0  0  0  0  0  0  0  0  0  0  0  0
  139.5597   75.2637  222.3841 H   0  0  0  0  0  0  0  0  0  0  0  0
  139.0564   78.1548  221.6623 H   0  0  0  0  0  0  0  0  0  0  0  0
  139.2649   77.3872  223.2982 H   0  0  0  0  0  0  0  0  0  0  0  0
  141.5294   77.0161  222.9666 H   0  0  0  0  0  0  0  0  0  0  0  0
  142.7417   78.5119  224.1022 H   0  0  0  0  0  0  0  0  0  0  0  0
  143.2841   80.8308  224.7088 H   0  0  0  0  0  0  0  0  0  0  0  0
  142.2331   82.7400  223.5102 H   0  0  0  0  0  0  0  0  0  0  0  0
  140.6164   82.2562  221.6823 H   0  0  0  0  0  0  0  0  0  0  0  0
  140.0786   79.9392  221.0808 H   0  0  0  0  0  0  0  0  0  0  0  0
  142.3134   77.9882  220.5096 H   0  0  0  0  0  0  0  0  0  0  0  0
  142.2390   76.2672  221.0942 H   0  0  0  0  0  0  0  0  0  0  0  0
  139.9918   77.7338  219.6639 H   0  0  0  0  0  0  0  0  0  0  0  0
  141.0977   76.5851  218.8936 H   0  0  0  0  0  0  0  0  0  0  0  0
  138.2964   67.7993  223.8370 H   0  0  0  0  0  0  0  0  0  0  0  0
  139.5877   66.8683  225.7314 H   0  0  0  0  0  0  0  0  0  0  0  0
  140.9338   67.1913  227.7614 H   0  0  0  0  0  0  0  0  0  0  0  0
  141.9753   68.7797  229.3958 H   0  0  0  0  0  0  0  0  0  0  0  0
  141.6890   71.2042  229.0762 H   0  0  0  0  0  0  0  0  0  0  0  0
  140.3974   72.1360  227.1892 H   0  0  0  0  0  0  0  0  0  0  0  0
  1  2  2  0
  2  3  1  0
  3  4  1  0
  4  5  1  0
  5  6  2  0
  5  7  1  0
  7  8  1  0
  8  9  1  0
  9 10  1  0
 10 11  1  0
 11 12  1  0
 12 13  2  0
 12 14  1  0
 14 15  1  0
 15 16  1  0
 16 17  1  0
 17 18  1  0
 18 19  2  0
 19 20  1  0
 20 21  2  0
 21 22  1  0
 22 23  2  0
 17 24  1  0
 24 25  1  0
  2 26  1  0
 26 27  2  0
 27 28  1  0
 28 29  2  0
 29 30  1  0
 30 31  2  0
 31 32  1  0
 32 33  2  0
 33 34  1  0
 34 35  2  0
 11  7  1  0
 25 14  1  0
 35 26  1  0
 23 18  1  0
 34 29  1  0
  3 36  1  0
  4 37  1  0
  4 38  1  0
  8 39  1  0
  8 40  1  0
  9 41  1  0
  9 42  1  0
 10 43  1  0
 10 44  1  0
 11 45  1  6
 15 46  1  0
 15 47  1  0
 16 48  1  0
 16 49  1  0
 17 50  1  0
 19 51  1  0
 20 52  1  0
 21 53  1  0
 22 54  1  0
 23 55  1  0
 24 56  1  0
 24 57  1  0
 25 58  1  0
 25 59  1  0
 27 60  1  0
 28 61  1  0
 30 62  1  0
 31 63  1  0
 32 64  1  0
 33 65  1  0
M  END
>  <smiles>  (15) 
O=C(NCC(=O)N1CCCC1C(=O)N1CCC(c2ccccc2)CC1)c1ccc2ccccc2n1

>  <score_type>  (15) 
oracle

>  <origin>  (15) 
autodockgpu

>  <m_score__min__energy>  (15) 
-9.2699999999999996

>  <m_primary>  (15) 
energy

>  <rmsd>  (15) 
3.5599293882187464

>  <m_score__min__rmsd>  (15) 
3.5599293882187464

>  <meeko>  (15) 
{"free_energy": -8.81, "intermolecular_energy": -10.6, "internal_energy": -2.2, "cluster_size": 11, "cluster_id": 4, "rank_in_cluster": 2}

>  <energy>  (15) 
-8.75

>  <cluster_rmsd>  (15) 
1.13

>  <cluster>  (15) 
3

$$$$

     RDKit          3D

 65 69  0  0  1  0  0  0  0  0999 V2000
  140.1470   73.1150  222.7390 O   0  0  0  0  0  0  0  0  0  0  0  0
  140.3740   71.8750  222.8240 C   0  0  0  0  0  0  0  0  0  0  0  0
  140.6300   71.1380  221.6320 N   0  0  0  0  0  0  0  0  0  0  0  0
  140.6060   71.9150  220.3890 C   0  0  0  0  0  0  0  0  0  0  0  0
  141.8580   71.7970  219.6470 C   0  0  0  0  0  0  0  0  0  0  0  0
  142.1750   70.7880  218.9510 O   0  0  0  0  0  0  0  0  0  0  0  0
  142.8060   72.8610  219.6800 N   0  0  0  0  0  0  0  0  0  0  0  0
  143.6110   73.3080  220.8340 C   0  0  0  0  0  0  0  0  0  0  0  0
  144.9820   73.4570  220.1700 C   0  0  0  0  0  0  0  0  0  0  0  0
  144.7250   73.7060  218.7150 C   0  0  0  0  0  0  0  0  0  0  0  0
  143.2060   73.7190  218.6070 C   0  0  2  0  0  0  0  0  0  0  0  0
  142.6680   75.0730  218.7420 C   0  0  0  0  0  0  0  0  0  0  0  0
  143.1050   75.8910  217.8200 O   0  0  0  0  0  0  0  0  0  0  0  0
  141.7850   75.6310  219.6630 N   0  0  0  0  0  0  0  0  0  0  0  0
  141.1070   74.9980  220.7600 C   0  0  0  0  0  0  0  0  0  0  0  0
  140.2930   75.9560  221.6040 C   0  0  0  0  0  0  0  0  0  0  0  0
  141.0600   77.2020  221.9620 C   0  0  0  0  0  0  0  0  0  0  0  0
  140.1890   78.2160  222.5970 C   0  0  0  0  0  0  0  0  0  0  0  0
  140.7130   79.2990  223.2540 C   0  0  0  0  0  0  0  0  0  0  0  0
  139.9100   80.2530  223.8510 C   0  0  0  0  0  0  0  0  0  0  0  0
  138.5350   80.1520  223.8090 C   0  0  0  0  0  0  0  0  0  0  0  0
  137.9850   79.0730  223.1560 C   0  0  0  0  0  0  0  0  0  0  0  0
  138.7930   78.1290  222.5640 C   0  0  0  0  0  0  0  0  0  0  0  0
  141.8600   77.7280  220.7980 C   0  0  0  0  0  0  0  0  0  0  0  0
  141.4810   77.0770  219.4980 C   0  0  0  0  0  0  0  0  0  0  0  0
  140.3690   71.2190  224.1310 C   0  0  0  0  0  0  0  0  0  0  0  0
  140.7890   71.9170  225.2440 C   0  0  0  0  0  0  0  0  0  0  0  0
  140.7870   71.3010  226.4850 C   0  0  0  0  0  0  0  0  0  0  0  0
  140.3660   69.9780  226.6430 C   0  0  0  0  0  0  0  0  0  0  0  0
  140.3610   69.3600  227.8820 C   0  0  0  0  0  0  0  0  0  0  0  0
  139.9320   68.0430  227.9720 C   0  0  0  0  0  0  0  0  0  0  0  0
  139.5230   67.3940  226.8240 C   0  0  0  0  0  0  0  0  0  0  0  0
  139.5200   67.9880  225.5830 C   0  0  0  0  0  0  0  0  0  0  0  0
  139.9530   69.3160  225.4940 C   0  0  0  0  0  0  0  0  0  0  0  0
  139.9680   69.9430  224.3060 N   0  0  0  0  0  0  0  0  0  0  0  0
  140.8200   70.1170  221.6520 H   0  0  0  0  0  0  0  0  0  0  0  0
  139.7829   71.5496  219.7574 H   0  0  0  0  0  0  0  0  0  0  0  0
  140.4651   72.9737  220.6523 H   0  0  0  0  0  0  0  0  0  0  0  0
  143.2480   74.2649  221.2372 H   0  0  0  0  0  0  0  0  0  0  0  0
  143.5902   72.6301  221.7001 H   0  0  0  0  0  0  0  0  0  0  0  0
  145.5273   74.3049  220.6102 H   0  0  0  0  0  0  0  0  0  0  0  0
  145.5954   72.5558  220.3172 H   0  0  0  0  0  0  0  0  0  0  0  0
  145.1476   74.6725  218.4029 H   0  0  0  0  0  0  0  0  0  0  0  0
  145.1894   72.9481  218.0669 H   0  0  0  0  0  0  0  0  0  0  0  0
  142.8313   73.3796  217.6301 H   0  0  0  0  0  0  0  0  0  0  0  0
  140.4307   74.2309  220.3547 H   0  0  0  0  0  0  0  0  0  0  0  0
  141.8812   74.5702  221.4139 H   0  0  0  0  0  0  0  0  0  0  0  0
  139.3930   76.2449  221.0414 H   0  0  0  0  0  0  0  0  0  0  0  0
  140.0353   75.4407  222.5410 H   0  0  0  0  0  0  0  0  0  0  0  0
  141.8045   76.9302  222.7248 H   0  0  0  0  0  0  0  0  0  0  0  0
  141.8058   79.4125  223.3078 H   0  0  0  0  0  0  0  0  0  0  0  0
  140.3748   81.1058  224.3675 H   0  0  0  0  0  0  0  0  0  0  0  0
  137.8968   80.9119  224.2837 H   0  0  0  0  0  0  0  0  0  0  0  0
  136.8915   78.9640  223.1067 H   0  0  0  0  0  0  0  0  0  0  0  0
  138.3255   77.2776  222.0476 H   0  0  0  0  0  0  0  0  0  0  0  0
  141.6887   78.8113  220.7131 H   0  0  0  0  0  0  0  0  0  0  0  0
  142.9188   77.4996  220.9899 H   0  0  0  0  0  0  0  0  0  0  0  0
  140.4096   77.2221  219.2954 H   0  0  0  0  0  0  0  0  0  0  0  0
  142.0335   77.5121  218.6521 H   0  0  0  0  0  0  0  0  0  0  0  0
  141.1247   72.9600  225.1466 H   0  0  0  0  0  0  0  0  0  0  0  0
  141.1246   71.8664  227.3661 H   0  0  0  0  0  0  0  0  0  0  0  0
  140.6913   69.9034  228.7796 H   0  0  0  0  0  0  0  0  0  0  0  0
  139.9181   67.5247  228.9422 H   0  0  0  0  0  0  0  0  0  0  0  0
  139.1829   66.3511  226.9056 H   0  0  0  0  0  0  0  0  0  0  0  0
  139.1883   67.4375  224.6903 H   0  0  0  0  0  0  0  0  0  0  0  0
  1  2  2  0
  2  3  1  0
  3  4  1  0
  4  5  1  0
  5  6  2  0
  5  7  1  0
  7  8  1  0
  8  9  1  0
  9 10  1  0
 10 11  1  0
 11 12  1  0
 12 13  2  0
 12 14  1  0
 14 15  1  0
 15 16  1  0
 16 17  1  0
 17 18  1  0
 18 19  2  0
 19 20  1  0
 20 21  2  0
 21 22  1  0
 22 23  2  0
 17 24  1  0
 24 25  1  0
  2 26  1  0
 26 27  2  0
 27 28  1  0
 28 29  2  0
 29 30  1  0
 30 31  2  0
 31 32  1  0
 32 33  2  0
 33 34  1  0
 34 35  2  0
 11  7  1  0
 25 14  1  0
 35 26  1  0
 23 18  1  0
 34 29  1  0
  3 36  1  0
  4 37  1  0
  4 38  1  0
  8 39  1  0
  8 40  1  0
  9 41  1  0
  9 42  1  0
 10 43  1  0
 10 44  1  0
 11 45  1  6
 15 46  1  0
 15 47  1  0
 16 48  1  0
 16 49  1  0
 17 50  1  0
 19 51  1  0
 20 52  1  0
 21 53  1  0
 22 54  1  0
 23 55  1  0
 24 56  1  0
 24 57  1  0
 25 58  1  0
 25 59  1  0
 27 60  1  0
 28 61  1  0
 30 62  1  0
 31 63  1  0
 32 64  1  0
 33 65  1  0
M  END
>  <smiles>  (16) 
O=C(NCC(=O)N1CCCC1C(=O)N1CCC(c2ccccc2)CC1)c1ccc2ccccc2n1

>  <score_type>  (16) 
oracle

>  <origin>  (16) 
autodockgpu

>  <m_score__min__energy>  (16) 
-9.2699999999999996

>  <m_primary>  (16) 
energy

>  <rmsd>  (16) 
4.363719946359558

>  <m_score__min__rmsd>  (16) 
4.363719946359558

>  <meeko>  (16) 
{"free_energy": -8.98, "intermolecular_energy": -10.77, "internal_energy": -2.08, "cluster_size": 15, "cluster_id": 3, "rank_in_cluster": 1}

>  <energy>  (16) 
-8.71

>  <cluster_rmsd>  (16) 
1.91

>  <cluster>  (16) 
3

$$$$

     RDKit          3D

 65 69  0  0  1  0  0  0  0  0999 V2000
  138.5680   70.8070  221.7360 O   0  0  0  0  0  0  0  0  0  0  0  0
  139.1460   71.2800  222.7560 C   0  0  0  0  0  0  0  0  0  0  0  0
  139.5510   72.6450  222.7460 N   0  0  0  0  0  0  0  0  0  0  0  0
  139.2480   73.3880  221.5200 C   0  0  0  0  0  0  0  0  0  0  0  0
  139.7020   74.7730  221.5940 C   0  0  0  0  0  0  0  0  0  0  0  0
  140.7910   75.1340  222.1280 O   0  0  0  0  0  0  0  0  0  0  0  0
  138.9000   75.8130  221.0390 N   0  0  0  0  0  0  0  0  0  0  0  0
  139.1750   77.2630  221.0570 C   0  0  0  0  0  0  0  0  0  0  0  0
  138.8540   77.6210  219.6030 C   0  0  0  0  0  0  0  0  0  0  0  0
  137.8860   76.5870  219.1150 C   0  0  0  0  0  0  0  0  0  0  0  0
  137.6660   75.6880  220.3240 C   0  0  2  0  0  0  0  0  0  0  0  0
  136.5150   76.1230  221.1170 C   0  0  0  0  0  0  0  0  0  0  0  0
  136.0740   77.3050  220.7720 O   0  0  0  0  0  0  0  0  0  0  0  0
  135.8170   75.5060  222.1520 N   0  0  0  0  0  0  0  0  0  0  0  0
  136.0240   74.2090  222.7310 C   0  0  0  0  0  0  0  0  0  0  0  0
  135.1210   73.9200  223.9120 C   0  0  0  0  0  0  0  0  0  0  0  0
  135.0800   75.0580  224.8970 C   0  0  0  0  0  0  0  0  0  0  0  0
  134.0360   74.8530  225.9260 C   0  0  0  0  0  0  0  0  0  0  0  0
  133.4710   75.9080  226.5940 C   0  0  0  0  0  0  0  0  0  0  0  0
  132.4950   75.7280  227.5560 C   0  0  0  0  0  0  0  0  0  0  0  0
  132.0450   74.4670  227.8860 C   0  0  0  0  0  0  0  0  0  0  0  0
  132.5960   73.3920  227.2280 C   0  0  0  0  0  0  0  0  0  0  0  0
  133.5680   73.5810  226.2720 C   0  0  0  0  0  0  0  0  0  0  0  0
  135.0050   76.3980  224.2110 C   0  0  0  0  0  0  0  0  0  0  0  0
  134.6940   76.2780  222.7460 C   0  0  0  0  0  0  0  0  0  0  0  0
  139.3880   70.4270  223.9190 C   0  0  0  0  0  0  0  0  0  0  0  0
  138.9960   69.1050  223.8870 C   0  0  0  0  0  0  0  0  0  0  0  0
  139.2230   68.2920  224.9870 C   0  0  0  0  0  0  0  0  0  0  0  0
  139.8440   68.7800  226.1390 C   0  0  0  0  0  0  0  0  0  0  0  0
  140.0730   67.9710  227.2390 C   0  0  0  0  0  0  0  0  0  0  0  0
  140.6950   68.5150  228.3540 C   0  0  0  0  0  0  0  0  0  0  0  0
  141.0650   69.8460  228.3300 C   0  0  0  0  0  0  0  0  0  0  0  0
  140.8470   70.6690  227.2480 C   0  0  0  0  0  0  0  0  0  0  0  0
  140.2200   70.1170  226.1250 C   0  0  0  0  0  0  0  0  0  0  0  0
  139.9850   70.8770  225.0410 N   0  0  0  0  0  0  0  0  0  0  0  0
  140.0310   73.0770  223.5610 H   0  0  0  0  0  0  0  0  0  0  0  0
  139.7480   72.8951  220.6732 H   0  0  0  0  0  0  0  0  0  0  0  0
  138.1560   73.3949  221.3879 H   0  0  0  0  0  0  0  0  0  0  0  0
  138.5171   77.7932  221.7614 H   0  0  0  0  0  0  0  0  0  0  0  0
  140.1892   77.5351  221.3848 H   0  0  0  0  0  0  0  0  0  0  0  0
  138.4006   78.6217  219.5491 H   0  0  0  0  0  0  0  0  0  0  0  0
  139.7648   77.6362  218.9863 H   0  0  0  0  0  0  0  0  0  0  0  0
  136.9418   77.0541  218.7982 H   0  0  0  0  0  0  0  0  0  0  0  0
  138.2611   76.0355  218.2403 H   0  0  0  0  0  0  0  0  0  0  0  0
  137.4308   74.6464  220.0600 H   0  0  0  0  0  0  0  0  0  0  0  0
  135.8383   73.4494  221.9574 H   0  0  0  0  0  0  0  0  0  0  0  0
  137.0589   74.1837  223.1030 H   0  0  0  0  0  0  0  0  0  0  0  0
  134.1017   73.7376  223.5407 H   0  0  0  0  0  0  0  0  0  0  0  0
  135.5241   73.0397  224.4341 H   0  0  0  0  0  0  0  0  0  0  0  0
  136.0361   75.0650  225.4410 H   0  0  0  0  0  0  0  0  0  0  0  0
  133.8045   76.9292  226.3573 H   0  0  0  0  0  0  0  0  0  0  0  0
  132.0703   76.6049  228.0666 H   0  0  0  0  0  0  0  0  0  0  0  0
  131.2688   74.3250  228.6524 H   0  0  0  0  0  0  0  0  0  0  0  0
  132.2571   72.3733  227.4677 H   0  0  0  0  0  0  0  0  0  0  0  0
  133.9910   72.7023  225.7630 H   0  0  0  0  0  0  0  0  0  0  0  0
  134.2167   76.9964  224.6911 H   0  0  0  0  0  0  0  0  0  0  0  0
  135.9906   76.8772  224.3052 H   0  0  0  0  0  0  0  0  0  0  0  0
  133.7433   75.7444  222.5993 H   0  0  0  0  0  0  0  0  0  0  0  0
  134.5891   77.2658  222.2736 H   0  0  0  0  0  0  0  0  0  0  0  0
  138.5047   68.6969  222.9914 H   0  0  0  0  0  0  0  0  0  0  0  0
  138.9069   67.2390  224.9516 H   0  0  0  0  0  0  0  0  0  0  0  0
  139.7670   66.9145  227.2293 H   0  0  0  0  0  0  0  0  0  0  0  0
  140.8903   67.8965  229.2425 H   0  0  0  0  0  0  0  0  0  0  0  0
  141.5575   70.2685  229.2182 H   0  0  0  0  0  0  0  0  0  0  0  0
  141.1552   71.7248  227.2655 H   0  0  0  0  0  0  0  0  0  0  0  0
  1  2  2  0
  2  3  1  0
  3  4  1  0
  4  5  1  0
  5  6  2  0
  5  7  1  0
  7  8  1  0
  8  9  1  0
  9 10  1  0
 10 11  1  0
 11 12  1  0
 12 13  2  0
 12 14  1  0
 14 15  1  0
 15 16  1  0
 16 17  1  0
 17 18  1  0
 18 19  2  0
 19 20  1  0
 20 21  2  0
 21 22  1  0
 22 23  2  0
 17 24  1  0
 24 25  1  0
  2 26  1  0
 26 27  2  0
 27 28  1  0
 28 29  2  0
 29 30  1  0
 30 31  2  0
 31 32  1  0
 32 33  2  0
 33 34  1  0
 34 35  2  0
 11  7  1  0
 25 14  1  0
 35 26  1  0
 23 18  1  0
 34 29  1  0
  3 36  1  0
  4 37  1  0
  4 38  1  0
  8 39  1  0
  8 40  1  0
  9 41  1  0
  9 42  1  0
 10 43  1  0
 10 44  1  0
 11 45  1  6
 15 46  1  0
 15 47  1  0
 16 48  1  0
 16 49  1  0
 17 50  1  0
 19 51  1  0
 20 52  1  0
 21 53  1  0
 22 54  1  0
 23 55  1  0
 24 56  1  0
 24 57  1  0
 25 58  1  0
 25 59  1  0
 27 60  1  0
 28 61  1  0
 30 62  1  0
 31 63  1  0
 32 64  1  0
 33 65  1  0
M  END
>  <smiles>  (17) 
O=C(NCC(=O)N1CCCC1C(=O)N1CCC(c2ccccc2)CC1)c1ccc2ccccc2n1

>  <score_type>  (17) 
oracle

>  <origin>  (17) 
autodockgpu

>  <m_score__min__energy>  (17) 
-9.2699999999999996

>  <m_primary>  (17) 
energy

>  <rmsd>  (17) 
5.4891226346953115

>  <m_score__min__rmsd>  (17) 
5.4891226346953115

>  <meeko>  (17) 
{"free_energy": -8.33, "intermolecular_energy": -10.12, "internal_energy": -2.21, "cluster_size": 7, "cluster_id": 2, "rank_in_cluster": 7}

>  <energy>  (17) 
-8.71

>  <cluster_rmsd>  (17) 
1.2

>  <cluster>  (17) 
3

$$$$

     RDKit          3D

 65 69  0  0  1  0  0  0  0  0999 V2000
  138.6090   69.3910  222.1710 O   0  0  0  0  0  0  0  0  0  0  0  0
  139.5120   70.2010  222.5270 C   0  0  0  0  0  0  0  0  0  0  0  0
  140.1140   71.0370  221.5440 N   0  0  0  0  0  0  0  0  0  0  0  0
  139.6120   70.8710  220.1770 C   0  0  0  0  0  0  0  0  0  0  0  0
  138.3340   71.5480  219.9790 C   0  0  0  0  0  0  0  0  0  0  0  0
  137.3680   71.0600  219.3220 O   0  0  0  0  0  0  0  0  0  0  0  0
  138.1190   72.8380  220.5470 N   0  0  0  0  0  0  0  0  0  0  0  0
  137.4650   73.9990  219.9120 C   0  0  0  0  0  0  0  0  0  0  0  0
  136.5530   74.4580  221.0530 C   0  0  0  0  0  0  0  0  0  0  0  0
  137.1910   73.9840  222.3230 C   0  0  0  0  0  0  0  0  0  0  0  0
  138.4660   73.2930  221.8590 C   0  0  2  0  0  0  0  0  0  0  0  0
  139.6050   74.2120  221.8500 C   0  0  0  0  0  0  0  0  0  0  0  0
  140.7550   73.6010  221.9680 O   0  0  0  0  0  0  0  0  0  0  0  0
  139.6760   75.5980  221.7350 N   0  0  0  0  0  0  0  0  0  0  0  0
  138.6100   76.5430  221.5560 C   0  0  0  0  0  0  0  0  0  0  0  0
  139.0690   77.9860  221.5680 C   0  0  0  0  0  0  0  0  0  0  0  0
  140.0000   78.2840  222.7150 C   0  0  0  0  0  0  0  0  0  0  0  0
  140.6070   79.6280  222.5910 C   0  0  0  0  0  0  0  0  0  0  0  0
  140.1930   80.5150  221.6320 C   0  0  0  0  0  0  0  0  0  0  0  0
  140.7510   81.7730  221.5070 C   0  0  0  0  0  0  0  0  0  0  0  0
  141.7580   82.1910  222.3510 C   0  0  0  0  0  0  0  0  0  0  0  0
  142.1900   81.3190  223.3230 C   0  0  0  0  0  0  0  0  0  0  0  0
  141.6280   80.0680  223.4400 C   0  0  0  0  0  0  0  0  0  0  0  0
  141.0020   77.1790  222.9320 C   0  0  0  0  0  0  0  0  0  0  0  0
  141.0340   76.1990  221.7940 C   0  0  0  0  0  0  0  0  0  0  0  0
  139.9210   70.2670  223.9300 C   0  0  0  0  0  0  0  0  0  0  0  0
  140.3250   71.4720  224.4650 C   0  0  0  0  0  0  0  0  0  0  0  0
  140.7150   71.5410  225.7930 C   0  0  0  0  0  0  0  0  0  0  0  0
  140.7090   70.4100  226.6140 C   0  0  0  0  0  0  0  0  0  0  0  0
  141.0960   70.4750  227.9420 C   0  0  0  0  0  0  0  0  0  0  0  0
  141.0680   69.3160  228.7050 C   0  0  0  0  0  0  0  0  0  0  0  0
  140.6550   68.1380  228.1160 C   0  0  0  0  0  0  0  0  0  0  0  0
  140.2670   68.0500  226.7990 C   0  0  0  0  0  0  0  0  0  0  0  0
  140.2950   69.2200  226.0310 C   0  0  0  0  0  0  0  0  0  0  0  0
  139.9240   69.1880  224.7390 N   0  0  0  0  0  0  0  0  0  0  0  0
  140.8610   71.7160  221.7900 H   0  0  0  0  0  0  0  0  0  0  0  0
  140.3482   71.2893  219.4748 H   0  0  0  0  0  0  0  0  0  0  0  0
  139.4590   69.7964  219.9988 H   0  0  0  0  0  0  0  0  0  0  0  0
  138.1934   74.7756  219.6359 H   0  0  0  0  0  0  0  0  0  0  0  0
  136.9450   73.7753  218.9688 H   0  0  0  0  0  0  0  0  0  0  0  0
  136.4699   75.5549  221.0556 H   0  0  0  0  0  0  0  0  0  0  0  0
  135.5380   74.0492  220.9405 H   0  0  0  0  0  0  0  0  0  0  0  0
  137.4241   74.8320  222.9837 H   0  0  0  0  0  0  0  0  0  0  0  0
  136.5355   73.3179  222.9032 H   0  0  0  0  0  0  0  0  0  0  0  0
  138.7887   72.4755  222.5204 H   0  0  0  0  0  0  0  0  0  0  0  0
  138.1248   76.3407  220.5897 H   0  0  0  0  0  0  0  0  0  0  0  0
  137.9219   76.4169  222.4049 H   0  0  0  0  0  0  0  0  0  0  0  0
  139.5925   78.1979  220.6241 H   0  0  0  0  0  0  0  0  0  0  0  0
  138.1779   78.6201  221.6863 H   0  0  0  0  0  0  0  0  0  0  0  0
  139.3993   78.3138  223.6360 H   0  0  0  0  0  0  0  0  0  0  0  0
  139.3916   80.2163  220.9402 H   0  0  0  0  0  0  0  0  0  0  0  0
  140.3861   82.4515  220.7219 H   0  0  0  0  0  0  0  0  0  0  0  0
  142.2026   83.1921  222.2500 H   0  0  0  0  0  0  0  0  0  0  0  0
  142.9911   81.6238  224.0124 H   0  0  0  0  0  0  0  0  0  0  0  0
  141.9937   79.3920  224.2270 H   0  0  0  0  0  0  0  0  0  0  0  0
  142.0013   77.6256  223.0410 H   0  0  0  0  0  0  0  0  0  0  0  0
  140.7030   76.6301  223.8371 H   0  0  0  0  0  0  0  0  0  0  0  0
  141.2650   76.7156  220.8507 H   0  0  0  0  0  0  0  0  0  0  0  0
  141.8086   75.4323  221.9432 H   0  0  0  0  0  0  0  0  0  0  0  0
  140.3377   72.3765  223.8391 H   0  0  0  0  0  0  0  0  0  0  0  0
  141.0362   72.5069  226.2100 H   0  0  0  0  0  0  0  0  0  0  0  0
  141.4199   71.4286  228.3845 H   0  0  0  0  0  0  0  0  0  0  0  0
  141.3702   69.3359  229.7625 H   0  0  0  0  0  0  0  0  0  0  0  0
  140.6351   67.2252  228.7294 H   0  0  0  0  0  0  0  0  0  0  0  0
  139.9455   67.0922  226.3640 H   0  0  0  0  0  0  0  0  0  0  0  0
  1  2  2  0
  2  3  1  0
  3  4  1  0
  4  5  1  0
  5  6  2  0
  5  7  1  0
  7  8  1  0
  8  9  1  0
  9 10  1  0
 10 11  1  0
 11 12  1  0
 12 13  2  0
 12 14  1  0
 14 15  1  0
 15 16  1  0
 16 17  1  0
 17 18  1  0
 18 19  2  0
 19 20  1  0
 20 21  2  0
 21 22  1  0
 22 23  2  0
 17 24  1  0
 24 25  1  0
  2 26  1  0
 26 27  2  0
 27 28  1  0
 28 29  2  0
 29 30  1  0
 30 31  2  0
 31 32  1  0
 32 33  2  0
 33 34  1  0
 34 35  2  0
 11  7  1  0
 25 14  1  0
 35 26  1  0
 23 18  1  0
 34 29  1  0
  3 36  1  0
  4 37  1  0
  4 38  1  0
  8 39  1  0
  8 40  1  0
  9 41  1  0
  9 42  1  0
 10 43  1  0
 10 44  1  0
 11 45  1  1
 15 46  1  0
 15 47  1  0
 16 48  1  0
 16 49  1  0
 17 50  1  0
 19 51  1  0
 20 52  1  0
 21 53  1  0
 22 54  1  0
 23 55  1  0
 24 56  1  0
 24 57  1  0
 25 58  1  0
 25 59  1  0
 27 60  1  0
 28 61  1  0
 30 62  1  0
 31 63  1  0
 32 64  1  0
 33 65  1  0
M  END
>  <smiles>  (18) 
O=C(NCC(=O)N1CCCC1C(=O)N1CCC(c2ccccc2)CC1)c1ccc2ccccc2n1

>  <score_type>  (18) 
oracle

>  <origin>  (18) 
autodockgpu

>  <m_score__min__energy>  (18) 
-9.2699999999999996

>  <m_primary>  (18) 
energy

>  <rmsd>  (18) 
3.79264679263804

>  <m_score__min__rmsd>  (18) 
3.79264679263804

>  <meeko>  (18) 
{"free_energy": -8.45, "intermolecular_energy": -10.24, "internal_energy": -2.48, "cluster_size": 11, "cluster_id": 4, "rank_in_cluster": 4}

>  <energy>  (18) 
-8.71

>  <cluster_rmsd>  (18) 
1.77

>  <cluster>  (18) 
3

$$$$

     RDKit          3D

 65 69  0  0  1  0  0  0  0  0999 V2000
  137.5750   71.4810  222.8020 O   0  0  0  0  0  0  0  0  0  0  0  0
  138.7290   71.5330  223.3150 C   0  0  0  0  0  0  0  0  0  0  0  0
  139.6300   72.5470  222.8820 N   0  0  0  0  0  0  0  0  0  0  0  0
  139.1150   73.4570  221.8550 C   0  0  0  0  0  0  0  0  0  0  0  0
  139.8590   74.7120  221.8140 C   0  0  0  0  0  0  0  0  0  0  0  0
  141.1220   74.7860  221.7780 O   0  0  0  0  0  0  0  0  0  0  0  0
  139.1570   75.9530  221.8110 N   0  0  0  0  0  0  0  0  0  0  0  0
  139.6140   77.2420  222.3660 C   0  0  0  0  0  0  0  0  0  0  0  0
  139.2370   78.1830  221.2180 C   0  0  0  0  0  0  0  0  0  0  0  0
  138.1130   77.5230  220.4790 C   0  0  0  0  0  0  0  0  0  0  0  0
  137.8690   76.2360  221.2540 C   0  0  2  0  0  0  0  0  0  0  0  0
  136.8420   76.4120  222.2810 C   0  0  0  0  0  0  0  0  0  0  0  0
  136.7270   77.6510  222.6820 O   0  0  0  0  0  0  0  0  0  0  0  0
  135.9780   75.5060  222.8930 N   0  0  0  0  0  0  0  0  0  0  0  0
  135.8300   74.0980  222.6510 C   0  0  0  0  0  0  0  0  0  0  0  0
  134.8470   73.4220  223.5830 C   0  0  0  0  0  0  0  0  0  0  0  0
  135.0650   73.8030  225.0240 C   0  0  0  0  0  0  0  0  0  0  0  0
  133.9720   73.3100  225.8910 C   0  0  0  0  0  0  0  0  0  0  0  0
  133.8660   71.9860  226.2270 C   0  0  0  0  0  0  0  0  0  0  0  0
  132.8490   71.5140  227.0360 C   0  0  0  0  0  0  0  0  0  0  0  0
  131.8910   72.3650  227.5440 C   0  0  0  0  0  0  0  0  0  0  0  0
  131.9760   73.7000  227.2210 C   0  0  0  0  0  0  0  0  0  0  0  0
  132.9920   74.1600  226.4140 C   0  0  0  0  0  0  0  0  0  0  0  0
  135.3560   75.2730  225.1840 C   0  0  0  0  0  0  0  0  0  0  0  0
  135.0700   76.0550  223.9330 C   0  0  0  0  0  0  0  0  0  0  0  0
  139.1190   70.5610  224.3360 C   0  0  0  0  0  0  0  0  0  0  0  0
  138.7510   69.2390  224.1920 C   0  0  0  0  0  0  0  0  0  0  0  0
  139.1170   68.3130  225.1560 C   0  0  0  0  0  0  0  0  0  0  0  0
  139.8570   68.6850  226.2820 C   0  0  0  0  0  0  0  0  0  0  0  0
  140.2250   67.7620  227.2460 C   0  0  0  0  0  0  0  0  0  0  0  0
  140.9590   68.1950  228.3410 C   0  0  0  0  0  0  0  0  0  0  0  0
  141.2990   69.5300  228.4330 C   0  0  0  0  0  0  0  0  0  0  0  0
  140.9430   70.4650  227.4870 C   0  0  0  0  0  0  0  0  0  0  0  0
  140.2030   70.0260  226.3830 C   0  0  0  0  0  0  0  0  0  0  0  0
  139.8310   70.8980  225.4300 N   0  0  0  0  0  0  0  0  0  0  0  0
  140.5900   72.6270  223.2740 H   0  0  0  0  0  0  0  0  0  0  0  0
  139.1928   72.9658  220.8739 H   0  0  0  0  0  0  0  0  0  0  0  0
  138.0686   73.6901  222.1013 H   0  0  0  0  0  0  0  0  0  0  0  0
  139.0809   77.4976  223.2936 H   0  0  0  0  0  0  0  0  0  0  0  0
  140.6753   77.2690  222.6540 H   0  0  0  0  0  0  0  0  0  0  0  0
  138.9113   79.1557  221.6152 H   0  0  0  0  0  0  0  0  0  0  0  0
  140.0956   78.3661  220.5553 H   0  0  0  0  0  0  0  0  0  0  0  0
  137.2153   78.1586  220.4838 H   0  0  0  0  0  0  0  0  0  0  0  0
  138.3509   77.3414  219.4205 H   0  0  0  0  0  0  0  0  0  0  0  0
  137.4859   75.4141  220.6314 H   0  0  0  0  0  0  0  0  0  0  0  0
  135.4815   73.9578  221.6171 H   0  0  0  0  0  0  0  0  0  0  0  0
  136.8122   73.6356  222.8283 H   0  0  0  0  0  0  0  0  0  0  0  0
  133.8270   73.7127  223.2914 H   0  0  0  0  0  0  0  0  0  0  0  0
  134.9972   72.3357  223.4974 H   0  0  0  0  0  0  0  0  0  0  0  0
  135.9739   73.2904  225.3722 H   0  0  0  0  0  0  0  0  0  0  0  0
  134.6130   71.2767  225.8412 H   0  0  0  0  0  0  0  0  0  0  0  0
  132.8036   70.4419  227.2782 H   0  0  0  0  0  0  0  0  0  0  0  0
  131.0829   71.9883  228.1882 H   0  0  0  0  0  0  0  0  0  0  0  0
  131.2266   74.4047  227.6105 H   0  0  0  0  0  0  0  0  0  0  0  0
  133.0346   75.2323  226.1723 H   0  0  0  0  0  0  0  0  0  0  0  0
  134.7321   75.6697  225.9985 H   0  0  0  0  0  0  0  0  0  0  0  0
  136.4278   75.3795  225.4075 H   0  0  0  0  0  0  0  0  0  0  0  0
  134.0201   75.9245  223.6318 H   0  0  0  0  0  0  0  0  0  0  0  0
  135.2334   77.1323  224.0839 H   0  0  0  0  0  0  0  0  0  0  0  0
  138.1688   68.9210  223.3146 H   0  0  0  0  0  0  0  0  0  0  0  0
  138.8184   67.2616  225.0322 H   0  0  0  0  0  0  0  0  0  0  0  0
  139.9406   66.7042  227.1456 H   0  0  0  0  0  0  0  0  0  0  0  0
  141.2653   67.4855  229.1238 H   0  0  0  0  0  0  0  0  0  0  0  0
  141.8825   69.8627  229.3041 H   0  0  0  0  0  0  0  0  0  0  0  0
  141.2304   71.5213  227.5952 H   0  0  0  0  0  0  0  0  0  0  0  0
  1  2  2  0
  2  3  1  0
  3  4  1  0
  4  5  1  0
  5  6  2  0
  5  7  1  0
  7  8  1  0
  8  9  1  0
  9 10  1  0
 10 11  1  0
 11 12  1  0
 12 13  2  0
 12 14  1  0
 14 15  1  0
 15 16  1  0
 16 17  1  0
 17 18  1  0
 18 19  2  0
 19 20  1  0
 20 21  2  0
 21 22  1  0
 22 23  2  0
 17 24  1  0
 24 25  1  0
  2 26  1  0
 26 27  2  0
 27 28  1  0
 28 29  2  0
 29 30  1  0
 30 31  2  0
 31 32  1  0
 32 33  2  0
 33 34  1  0
 34 35  2  0
 11  7  1  0
 25 14  1  0
 35 26  1  0
 23 18  1  0
 34 29  1  0
  3 36  1  0
  4 37  1  0
  4 38  1  0
  8 39  1  0
  8 40  1  0
  9 41  1  0
  9 42  1  0
 10 43  1  0
 10 44  1  0
 11 45  1  6
 15 46  1  0
 15 47  1  0
 16 48  1  0
 16 49  1  0
 17 50  1  0
 19 51  1  0
 20 52  1  0
 21 53  1  0
 22 54  1  0
 23 55  1  0
 24 56  1  0
 24 57  1  0
 25 58  1  0
 25 59  1  0
 27 60  1  0
 28 61  1  0
 30 62  1  0
 31 63  1  0
 32 64  1  0
 33 65  1  0
M  END
>  <smiles>  (19) 
O=C(NCC(=O)N1CCCC1C(=O)N1CCC(c2ccccc2)CC1)c1ccc2ccccc2n1

>  <score_type>  (19) 
oracle

>  <origin>  (19) 
autodockgpu

>  <m_score__min__energy>  (19) 
-9.2699999999999996

>  <m_primary>  (19) 
energy

>  <rmsd>  (19) 
6.204787998436562

>  <m_score__min__rmsd>  (19) 
6.204787998436562

>  <meeko>  (19) 
{"free_energy": -8.58, "intermolecular_energy": -10.37, "internal_energy": -2.29, "cluster_size": 7, "cluster_id": 2, "rank_in_cluster": 6}

>  <energy>  (19) 
-8.69

>  <cluster_rmsd>  (19) 
1.9

>  <cluster>  (19) 
3

$$$$

     RDKit          3D

 65 69  0  0  1  0  0  0  0  0999 V2000
  140.5620   71.9440  222.0210 O   0  0  0  0  0  0  0  0  0  0  0  0
  139.6040   71.8310  222.8380 C   0  0  0  0  0  0  0  0  0  0  0  0
  138.4530   72.6520  222.6690 N   0  0  0  0  0  0  0  0  0  0  0  0
  138.4930   73.5720  221.5290 C   0  0  0  0  0  0  0  0  0  0  0  0
  139.3440   74.7290  221.7900 C   0  0  0  0  0  0  0  0  0  0  0  0
  140.5790   74.6540  222.0580 O   0  0  0  0  0  0  0  0  0  0  0  0
  138.7890   76.0420  221.7480 N   0  0  0  0  0  0  0  0  0  0  0  0
  139.1570   77.1980  222.5880 C   0  0  0  0  0  0  0  0  0  0  0  0
  139.2440   78.2950  221.5220 C   0  0  0  0  0  0  0  0  0  0  0  0
  138.3570   77.8620  220.3950 C   0  0  0  0  0  0  0  0  0  0  0  0
  137.7710   76.5410  220.8740 C   0  0  2  0  0  0  0  0  0  0  0  0
  136.4920   76.7350  221.5580 C   0  0  0  0  0  0  0  0  0  0  0  0
  135.8780   77.8300  221.1920 O   0  0  0  0  0  0  0  0  0  0  0  0
  135.8260   75.9680  222.5110 N   0  0  0  0  0  0  0  0  0  0  0  0
  136.2110   74.7100  223.0850 C   0  0  0  0  0  0  0  0  0  0  0  0
  135.2700   74.2240  224.1680 C   0  0  0  0  0  0  0  0  0  0  0  0
  134.9320   75.3030  225.1640 C   0  0  0  0  0  0  0  0  0  0  0  0
  133.8530   74.8790  226.0830 C   0  0  0  0  0  0  0  0  0  0  0  0
  133.1080   75.7920  226.7830 C   0  0  0  0  0  0  0  0  0  0  0  0
  132.0970   75.4080  227.6440 C   0  0  0  0  0  0  0  0  0  0  0  0
  131.7930   74.0760  227.8350 C   0  0  0  0  0  0  0  0  0  0  0  0
  132.5260   73.1400  227.1430 C   0  0  0  0  0  0  0  0  0  0  0  0
  133.5310   73.5330  226.2880 C   0  0  0  0  0  0  0  0  0  0  0  0
  134.6790   76.6300  224.4960 C   0  0  0  0  0  0  0  0  0  0  0  0
  134.5310   76.5060  223.0060 C   0  0  0  0  0  0  0  0  0  0  0  0
  139.6920   70.8680  223.9360 C   0  0  0  0  0  0  0  0  0  0  0  0
  139.1530   69.6080  223.7810 C   0  0  0  0  0  0  0  0  0  0  0  0
  139.2330   68.6920  224.8170 C   0  0  0  0  0  0  0  0  0  0  0  0
  139.8510   69.0130  226.0290 C   0  0  0  0  0  0  0  0  0  0  0  0
  139.9330   68.1000  227.0670 C   0  0  0  0  0  0  0  0  0  0  0  0
  140.5590   68.4800  228.2450 C   0  0  0  0  0  0  0  0  0  0  0  0
  141.0800   69.7550  228.3440 C   0  0  0  0  0  0  0  0  0  0  0  0
  141.0100   70.6790  227.3260 C   0  0  0  0  0  0  0  0  0  0  0  0
  140.3770   70.2930  226.1390 C   0  0  0  0  0  0  0  0  0  0  0  0
  140.2830   71.1570  225.1130 N   0  0  0  0  0  0  0  0  0  0  0  0
  137.6430   72.5950  223.3170 H   0  0  0  0  0  0  0  0  0  0  0  0
  138.8834   73.0345  220.6523 H   0  0  0  0  0  0  0  0  0  0  0  0
  137.4705   73.9357  221.3497 H   0  0  0  0  0  0  0  0  0  0  0  0
  138.3828   77.4193  223.3374 H   0  0  0  0  0  0  0  0  0  0  0  0
  140.0716   77.0615  223.1836 H   0  0  0  0  0  0  0  0  0  0  0  0
  138.8954   79.2537  221.9336 H   0  0  0  0  0  0  0  0  0  0  0  0
  140.2800   78.4382  221.1812 H   0  0  0  0  0  0  0  0  0  0  0  0
  137.5618   78.6009  220.2173 H   0  0  0  0  0  0  0  0  0  0  0  0
  138.8994   77.7641  219.4430 H   0  0  0  0  0  0  0  0  0  0  0  0
  137.5334   75.8437  220.0571 H   0  0  0  0  0  0  0  0  0  0  0  0
  136.2384   73.9563  222.2843 H   0  0  0  0  0  0  0  0  0  0  0  0
  137.1946   74.8574  223.5548 H   0  0  0  0  0  0  0  0  0  0  0  0
  134.3395   73.8748  223.6965 H   0  0  0  0  0  0  0  0  0  0  0  0
  135.7762   73.4129  224.7120 H   0  0  0  0  0  0  0  0  0  0  0  0
  135.8161   75.4635  225.7986 H   0  0  0  0  0  0  0  0  0  0  0  0
  133.3212   76.8636  226.6557 H   0  0  0  0  0  0  0  0  0  0  0  0
  131.5259   76.1766  228.1853 H   0  0  0  0  0  0  0  0  0  0  0  0
  130.9883   73.7714  228.5204 H   0  0  0  0  0  0  0  0  0  0  0  0
  132.3076   72.0698  227.2737 H   0  0  0  0  0  0  0  0  0  0  0  0
  134.1003   72.7624  225.7476 H   0  0  0  0  0  0  0  0  0  0  0  0
  133.7545   77.0613  224.9075 H   0  0  0  0  0  0  0  0  0  0  0  0
  135.5488   77.2740  224.6927 H   0  0  0  0  0  0  0  0  0  0  0  0
  133.7106   75.8160  222.7591 H   0  0  0  0  0  0  0  0  0  0  0  0
  134.2922   77.4743  222.5420 H   0  0  0  0  0  0  0  0  0  0  0  0
  138.6608   69.3312  222.8370 H   0  0  0  0  0  0  0  0  0  0  0  0
  138.8005   67.6895  224.6829 H   0  0  0  0  0  0  0  0  0  0  0  0
  139.5090   67.0908  226.9592 H   0  0  0  0  0  0  0  0  0  0  0  0
  140.6392   67.7768  229.0871 H   0  0  0  0  0  0  0  0  0  0  0  0
  141.5751   70.0465  229.2820 H   0  0  0  0  0  0  0  0  0  0  0  0
  141.4369   71.6862  227.4415 H   0  0  0  0  0  0  0  0  0  0  0  0
  1  2  2  0
  2  3  1  0
  3  4  1  0
  4  5  1  0
  5  6  2  0
  5  7  1  0
  7  8  1  0
  8  9  1  0
  9 10  1  0
 10 11  1  0
 11 12  1  0
 12 13  2  0
 12 14  1  0
 14 15  1  0
 15 16  1  0
 16 17  1  0
 17 18  1  0
 18 19  2  0
 19 20  1  0
 20 21  2  0
 21 22  1  0
 22 23  2  0
 17 24  1  0
 24 25  1  0
  2 26  1  0
 26 27  2  0
 27 28  1  0
 28 29  2  0
 29 30  1  0
 30 31  2  0
 31 32  1  0
 32 33  2  0
 33 34  1  0
 34 35  2  0
 11  7  1  0
 25 14  1  0
 35 26  1  0
 23 18  1  0
 34 29  1  0
  3 36  1  0
  4 37  1  0
  4 38  1  0
  8 39  1  0
  8 40  1  0
  9 41  1  0
  9 42  1  0
 10 43  1  0
 10 44  1  0
 11 45  1  6
 15 46  1  0
 15 47  1  0
 16 48  1  0
 16 49  1  0
 17 50  1  0
 19 51  1  0
 20 52  1  0
 21 53  1  0
 22 54  1  0
 23 55  1  0
 24 56  1  0
 24 57  1  0
 25 58  1  0
 25 59  1  0
 27 60  1  0
 28 61  1  0
 30 62  1  0
 31 63  1  0
 32 64  1  0
 33 65  1  0
M  END
>  <smiles>  (20) 
O=C(NCC(=O)N1CCCC1C(=O)N1CCC(c2ccccc2)CC1)c1ccc2ccccc2n1

>  <score_type>  (20) 
oracle

>  <origin>  (20) 
autodockgpu

>  <m_score__min__energy>  (20) 
-9.2699999999999996

>  <m_primary>  (20) 
energy

>  <rmsd>  (20) 
5.675575258529689

>  <m_score__min__rmsd>  (20) 
5.675575258529689

>  <meeko>  (20) 
{"free_energy": -9.15, "intermolecular_energy": -10.94, "internal_energy": -1.75, "cluster_size": 7, "cluster_id": 2, "rank_in_cluster": 2}

>  <energy>  (20) 
-8.67

>  <cluster_rmsd>  (20) 
2.0

>  <cluster>  (20) 
3

$$$$

     RDKit          3D

 65 69  0  0  1  0  0  0  0  0999 V2000
  140.1880   70.7430  221.0700 O   0  0  0  0  0  0  0  0  0  0  0  0
  140.0480   71.5300  222.0480 C   0  0  0  0  0  0  0  0  0  0  0  0
  139.9280   72.9270  221.7970 N   0  0  0  0  0  0  0  0  0  0  0  0
  139.9770   73.3240  220.3870 C   0  0  0  0  0  0  0  0  0  0  0  0
  140.4330   74.7010  220.2230 C   0  0  0  0  0  0  0  0  0  0  0  0
  139.7840   75.7130  220.6180 O   0  0  0  0  0  0  0  0  0  0  0  0
  141.6820   74.9630  219.5870 N   0  0  0  0  0  0  0  0  0  0  0  0
  142.0080   74.8080  218.1550 C   0  0  0  0  0  0  0  0  0  0  0  0
  142.7510   76.1220  217.8990 C   0  0  0  0  0  0  0  0  0  0  0  0
  143.3110   76.5570  219.2200 C   0  0  0  0  0  0  0  0  0  0  0  0
  142.8880   75.4540  220.1800 C   0  0  2  0  0  0  0  0  0  0  0  0
  143.9150   74.4180  220.2970 C   0  0  0  0  0  0  0  0  0  0  0  0
  145.1140   74.9060  220.4800 O   0  0  0  0  0  0  0  0  0  0  0  0
  143.8380   73.0280  220.2520 N   0  0  0  0  0  0  0  0  0  0  0  0
  142.6790   72.1940  220.1040 C   0  0  0  0  0  0  0  0  0  0  0  0
  143.0020   70.7180  220.0050 C   0  0  0  0  0  0  0  0  0  0  0  0
  144.1190   70.4370  219.0330 C   0  0  0  0  0  0  0  0  0  0  0  0
  144.5660   69.0290  219.1060 C   0  0  0  0  0  0  0  0  0  0  0  0
  145.8910   68.7030  219.2340 C   0  0  0  0  0  0  0  0  0  0  0  0
  146.3210   67.3920  219.3040 C   0  0  0  0  0  0  0  0  0  0  0  0
  145.4240   66.3450  219.2490 C   0  0  0  0  0  0  0  0  0  0  0  0
  144.0870   66.6460  219.1210 C   0  0  0  0  0  0  0  0  0  0  0  0
  143.6690   67.9560  219.0520 C   0  0  0  0  0  0  0  0  0  0  0  0
  145.2370   71.4400  219.1510 C   0  0  0  0  0  0  0  0  0  0  0  0
  145.1210   72.2890  220.3850 C   0  0  0  0  0  0  0  0  0  0  0  0
  140.0130   71.0010  223.4120 C   0  0  0  0  0  0  0  0  0  0  0  0
  139.3960   69.7920  223.6560 C   0  0  0  0  0  0  0  0  0  0  0  0
  139.3600   69.2860  224.9460 C   0  0  0  0  0  0  0  0  0  0  0  0
  139.9360   69.9740  226.0170 C   0  0  0  0  0  0  0  0  0  0  0  0
  139.9030   69.4710  227.3060 C   0  0  0  0  0  0  0  0  0  0  0  0
  140.4940   70.2030  228.3270 C   0  0  0  0  0  0  0  0  0  0  0  0
  141.0960   71.4070  228.0230 C   0  0  0  0  0  0  0  0  0  0  0  0
  141.1410   71.9270  226.7490 C   0  0  0  0  0  0  0  0  0  0  0  0
  140.5450   71.1870  225.7210 C   0  0  0  0  0  0  0  0  0  0  0  0
  140.5620   71.6490  224.4590 N   0  0  0  0  0  0  0  0  0  0  0  0
  139.8120   73.6120  222.5700 H   0  0  0  0  0  0  0  0  0  0  0  0
  140.6681   72.6549  219.8533 H   0  0  0  0  0  0  0  0  0  0  0  0
  138.9585   73.2519  219.9777 H   0  0  0  0  0  0  0  0  0  0  0  0
  142.6526   73.9347  217.9767 H   0  0  0  0  0  0  0  0  0  0  0  0
  141.1401   74.6353  217.5016 H   0  0  0  0  0  0  0  0  0  0  0  0
  143.5638   75.9644  217.1747 H   0  0  0  0  0  0  0  0  0  0  0  0
  142.0782   76.8852  217.4807 H   0  0  0  0  0  0  0  0  0  0  0  0
  144.4072   76.6356  219.1733 H   0  0  0  0  0  0  0  0  0  0  0  0
  142.9481   77.5487  219.5280 H   0  0  0  0  0  0  0  0  0  0  0  0
  142.7417   75.8033  221.2127 H   0  0  0  0  0  0  0  0  0  0  0  0
  142.0256   72.3492  220.9752 H   0  0  0  0  0  0  0  0  0  0  0  0
  142.1935   72.4816  219.1598 H   0  0  0  0  0  0  0  0  0  0  0  0
  143.2996   70.3543  220.9996 H   0  0  0  0  0  0  0  0  0  0  0  0
  142.1020   70.2021  219.6391 H   0  0  0  0  0  0  0  0  0  0  0  0
  143.7201   70.5683  218.0163 H   0  0  0  0  0  0  0  0  0  0  0  0
  146.6359   69.5110  219.2825 H   0  0  0  0  0  0  0  0  0  0  0  0
  147.3955   67.1794  219.4052 H   0  0  0  0  0  0  0  0  0  0  0  0
  145.7670   65.3014  219.3057 H   0  0  0  0  0  0  0  0  0  0  0  0
  143.3468   65.8337  219.0735 H   0  0  0  0  0  0  0  0  0  0  0  0
  142.5940   68.1664  218.9510 H   0  0  0  0  0  0  0  0  0  0  0  0
  146.1942   70.8990  219.1839 H   0  0  0  0  0  0  0  0  0  0  0  0
  145.1796   72.1083  218.2792 H   0  0  0  0  0  0  0  0  0  0  0  0
  145.1067   71.6563  221.2847 H   0  0  0  0  0  0  0  0  0  0  0  0
  145.9743   72.9760  220.4842 H   0  0  0  0  0  0  0  0  0  0  0  0
  138.9341   69.2313  222.8300 H   0  0  0  0  0  0  0  0  0  0  0  0
  138.8665   68.3204  225.1308 H   0  0  0  0  0  0  0  0  0  0  0  0
  139.4167   68.5074  227.5180 H   0  0  0  0  0  0  0  0  0  0  0  0
  140.4826   69.8293  229.3615 H   0  0  0  0  0  0  0  0  0  0  0  0
  141.5627   71.9792  228.8384 H   0  0  0  0  0  0  0  0  0  0  0  0
  141.6290   72.8917  226.5457 H   0  0  0  0  0  0  0  0  0  0  0  0
  1  2  2  0
  2  3  1  0
  3  4  1  0
  4  5  1  0
  5  6  2  0
  5  7  1  0
  7  8  1  0
  8  9  1  0
  9 10  1  0
 10 11  1  0
 11 12  1  0
 12 13  2  0
 12 14  1  0
 14 15  1  0
 15 16  1  0
 16 17  1  0
 17 18  1  0
 18 19  2  0
 19 20  1  0
 20 21  2  0
 21 22  1  0
 22 23  2  0
 17 24  1  0
 24 25  1  0
  2 26  1  0
 26 27  2  0
 27 28  1  0
 28 29  2  0
 29 30  1  0
 30 31  2  0
 31 32  1  0
 32 33  2  0
 33 34  1  0
 34 35  2  0
 11  7  1  0
 25 14  1  0
 35 26  1  0
 23 18  1  0
 34 29  1  0
  3 36  1  0
  4 37  1  0
  4 38  1  0
  8 39  1  0
  8 40  1  0
  9 41  1  0
  9 42  1  0
 10 43  1  0
 10 44  1  0
 11 45  1  1
 15 46  1  0
 15 47  1  0
 16 48  1  0
 16 49  1  0
 17 50  1  0
 19 51  1  0
 20 52  1  0
 21 53  1  0
 22 54  1  0
 23 55  1  0
 24 56  1  0
 24 57  1  0
 25 58  1  0
 25 59  1  0
 27 60  1  0
 28 61  1  0
 30 62  1  0
 31 63  1  0
 32 64  1  0
 33 65  1  0
M  END
>  <smiles>  (21) 
O=C(NCC(=O)N1CCCC1C(=O)N1CCC(c2ccccc2)CC1)c1ccc2ccccc2n1

>  <score_type>  (21) 
oracle

>  <origin>  (21) 
autodockgpu

>  <m_score__min__energy>  (21) 
-9.2699999999999996

>  <m_primary>  (21) 
energy

>  <rmsd>  (21) 
6.647643719938182

>  <m_score__min__rmsd>  (21) 
6.647643719938182

>  <meeko>  (21) 
{"free_energy": -9.07, "intermolecular_energy": -10.86, "internal_energy": -2.14, "cluster_size": 6, "cluster_id": 1, "rank_in_cluster": 2}

>  <energy>  (21) 
-8.61

>  <cluster_rmsd>  (21) 
1.83

>  <cluster>  (21) 
3

$$$$

     RDKit          3D

 65 69  0  0  1  0  0  0  0  0999 V2000
  138.9880   75.2160  221.7970 O   0  0  0  0  0  0  0  0  0  0  0  0
  140.1320   75.7220  221.9820 C   0  0  0  0  0  0  0  0  0  0  0  0
  141.2850   74.9180  221.7550 N   0  0  0  0  0  0  0  0  0  0  0  0
  141.0240   73.5450  221.3150 C   0  0  0  0  0  0  0  0  0  0  0  0
  141.3900   73.3400  219.9160 C   0  0  0  0  0  0  0  0  0  0  0  0
  140.6910   72.6850  219.0900 O   0  0  0  0  0  0  0  0  0  0  0  0
  142.6010   73.8990  219.4110 N   0  0  0  0  0  0  0  0  0  0  0  0
  143.7900   74.3090  220.1850 C   0  0  0  0  0  0  0  0  0  0  0  0
  144.9000   73.6980  219.3260 C   0  0  0  0  0  0  0  0  0  0  0  0
  144.3490   73.5870  217.9370 C   0  0  0  0  0  0  0  0  0  0  0  0
  142.9460   74.1690  218.0490 C   0  0  2  0  0  0  0  0  0  0  0  0
  142.9300   75.6000  217.7410 C   0  0  0  0  0  0  0  0  0  0  0  0
  143.8980   75.9600  216.9390 O   0  0  0  0  0  0  0  0  0  0  0  0
  142.0770   76.6250  218.1430 N   0  0  0  0  0  0  0  0  0  0  0  0
  140.9130   76.5510  218.9800 C   0  0  0  0  0  0  0  0  0  0  0  0
  140.2910   77.9000  219.2740 C   0  0  0  0  0  0  0  0  0  0  0  0
  141.3120   78.9270  219.6900 C   0  0  0  0  0  0  0  0  0  0  0  0
  140.7250   80.2830  219.7630 C   0  0  0  0  0  0  0  0  0  0  0  0
  139.3800   80.4910  219.5980 C   0  0  0  0  0  0  0  0  0  0  0  0
  138.8200   81.7530  219.6650 C   0  0  0  0  0  0  0  0  0  0  0  0
  139.6000   82.8660  219.9040 C   0  0  0  0  0  0  0  0  0  0  0  0
  140.9530   82.6820  220.0730 C   0  0  0  0  0  0  0  0  0  0  0  0
  141.5010   81.4210  220.0050 C   0  0  0  0  0  0  0  0  0  0  0  0
  142.5650   78.8480  218.8570 C   0  0  0  0  0  0  0  0  0  0  0  0
  142.3930   77.9860  217.6380 C   0  0  0  0  0  0  0  0  0  0  0  0
  140.2530   77.1110  222.4230 C   0  0  0  0  0  0  0  0  0  0  0  0
  139.1150   77.8380  222.7030 C   0  0  0  0  0  0  0  0  0  0  0  0
  139.2230   79.1550  223.1210 C   0  0  0  0  0  0  0  0  0  0  0  0
  140.4670   79.7740  223.2680 C   0  0  0  0  0  0  0  0  0  0  0  0
  140.5790   81.0890  223.6860 C   0  0  0  0  0  0  0  0  0  0  0  0
  141.8440   81.6460  223.8130 C   0  0  0  0  0  0  0  0  0  0  0  0
  142.9490   80.8710  223.5190 C   0  0  0  0  0  0  0  0  0  0  0  0
  142.8610   79.5620  223.1010 C   0  0  0  0  0  0  0  0  0  0  0  0
  141.5840   79.0020  222.9740 C   0  0  0  0  0  0  0  0  0  0  0  0
  141.4430   77.7280  222.5710 N   0  0  0  0  0  0  0  0  0  0  0  0
  142.2450   75.2910  221.8950 H   0  0  0  0  0  0  0  0  0  0  0  0
  141.6092   72.8544  221.9401 H   0  0  0  0  0  0  0  0  0  0  0  0
  139.9451   73.3553  221.4153 H   0  0  0  0  0  0  0  0  0  0  0  0
  143.8784   75.4038  220.2457 H   0  0  0  0  0  0  0  0  0  0  0  0
  143.7896   73.9841  221.2359 H   0  0  0  0  0  0  0  0  0  0  0  0
  145.7872   74.3483  219.3323 H   0  0  0  0  0  0  0  0  0  0  0  0
  145.2072   72.7150  219.7124 H   0  0  0  0  0  0  0  0  0  0  0  0
  144.9574   74.1672  217.2276 H   0  0  0  0  0  0  0  0  0  0  0  0
  144.3494   72.5525  217.5630 H   0  0  0  0  0  0  0  0  0  0  0  0
  142.2309   73.7343  217.3351 H   0  0  0  0  0  0  0  0  0  0  0  0
  140.1621   75.9241  218.4768 H   0  0  0  0  0  0  0  0  0  0  0  0
  141.2344   76.1272  219.9429 H   0  0  0  0  0  0  0  0  0  0  0  0
  139.7795   78.2577  218.3682 H   0  0  0  0  0  0  0  0  0  0  0  0
  139.5882   77.7693  220.1100 H   0  0  0  0  0  0  0  0  0  0  0  0
  141.6312   78.6870  220.7150 H   0  0  0  0  0  0  0  0  0  0  0  0
  138.7265   79.6272  219.4065 H   0  0  0  0  0  0  0  0  0  0  0  0
  137.7354   81.8720  219.5256 H   0  0  0  0  0  0  0  0  0  0  0  0
  139.1536   83.8699  219.9578 H   0  0  0  0  0  0  0  0  0  0  0  0
  141.6020   83.5494  220.2640 H   0  0  0  0  0  0  0  0  0  0  0  0
  142.5857   81.3046  220.1458 H   0  0  0  0  0  0  0  0  0  0  0  0
  142.8390   79.8635  218.5350 H   0  0  0  0  0  0  0  0  0  0  0  0
  143.3512   78.3945  219.4785 H   0  0  0  0  0  0  0  0  0  0  0  0
  141.5688   78.3640  217.0153 H   0  0  0  0  0  0  0  0  0  0  0  0
  143.2983   77.9848  217.0132 H   0  0  0  0  0  0  0  0  0  0  0  0
  138.1237   77.3736  222.5948 H   0  0  0  0  0  0  0  0  0  0  0  0
  138.3090   79.7257  223.3420 H   0  0  0  0  0  0  0  0  0  0  0  0
  139.6810   81.6822  223.9136 H   0  0  0  0  0  0  0  0  0  0  0  0
  141.9647   82.6885  224.1427 H   0  0  0  0  0  0  0  0  0  0  0  0
  143.9472   81.3212  223.6238 H   0  0  0  0  0  0  0  0  0  0  0  0
  143.7638   78.9758  222.8744 H   0  0  0  0  0  0  0  0  0  0  0  0
  1  2  2  0
  2  3  1  0
  3  4  1  0
  4  5  1  0
  5  6  2  0
  5  7  1  0
  7  8  1  0
  8  9  1  0
  9 10  1  0
 10 11  1  0
 11 12  1  0
 12 13  2  0
 12 14  1  0
 14 15  1  0
 15 16  1  0
 16 17  1  0
 17 18  1  0
 18 19  2  0
 19 20  1  0
 20 21  2  0
 21 22  1  0
 22 23  2  0
 17 24  1  0
 24 25  1  0
  2 26  1  0
 26 27  2  0
 27 28  1  0
 28 29  2  0
 29 30  1  0
 30 31  2  0
 31 32  1  0
 32 33  2  0
 33 34  1  0
 34 35  2  0
 11  7  1  0
 25 14  1  0
 35 26  1  0
 23 18  1  0
 34 29  1  0
  3 36  1  0
  4 37  1  0
  4 38  1  0
  8 39  1  0
  8 40  1  0
  9 41  1  0
  9 42  1  0
 10 43  1  0
 10 44  1  0
 11 45  1  6
 15 46  1  0
 15 47  1  0
 16 48  1  0
 16 49  1  0
 17 50  1  0
 19 51  1  0
 20 52  1  0
 21 53  1  0
 22 54  1  0
 23 55  1  0
 24 56  1  0
 24 57  1  0
 25 58  1  0
 25 59  1  0
 27 60  1  0
 28 61  1  0
 30 62  1  0
 31 63  1  0
 32 64  1  0
 33 65  1  0
M  END
>  <smiles>  (22) 
O=C(NCC(=O)N1CCCC1C(=O)N1CCC(c2ccccc2)CC1)c1ccc2ccccc2n1

>  <score_type>  (22) 
oracle

>  <origin>  (22) 
autodockgpu

>  <m_score__min__energy>  (22) 
-9.2699999999999996

>  <m_primary>  (22) 
energy

>  <rmsd>  (22) 
6.919867064672115

>  <m_score__min__rmsd>  (22) 
6.919867064672115

>  <meeko>  (22) 
{"free_energy": -6.81, "intermolecular_energy": -8.6, "internal_energy": -4.25, "cluster_size": 6, "cluster_id": 7, "rank_in_cluster": 5}

>  <energy>  (22) 
-8.61

>  <cluster_rmsd>  (22) 
1.93

>  <cluster>  (22) 
3

$$$$

     RDKit          3D

 65 69  0  0  1  0  0  0  0  0999 V2000
  141.0650   72.8800  222.2150 O   0  0  0  0  0  0  0  0  0  0  0  0
  139.9640   72.5620  222.7480 C   0  0  0  0  0  0  0  0  0  0  0  0
  138.7800   73.2410  222.3420 N   0  0  0  0  0  0  0  0  0  0  0  0
  138.9610   74.2690  221.3130 C   0  0  0  0  0  0  0  0  0  0  0  0
  139.5990   75.4690  221.8450 C   0  0  0  0  0  0  0  0  0  0  0  0
  140.8040   75.5210  222.2280 O   0  0  0  0  0  0  0  0  0  0  0  0
  138.8520   76.6790  221.9550 N   0  0  0  0  0  0  0  0  0  0  0  0
  139.2270   77.8980  222.7000 C   0  0  0  0  0  0  0  0  0  0  0  0
  138.8860   78.9690  221.6600 C   0  0  0  0  0  0  0  0  0  0  0  0
  137.8340   78.3790  220.7710 C   0  0  0  0  0  0  0  0  0  0  0  0
  137.5910   76.9950  221.3570 C   0  0  2  0  0  0  0  0  0  0  0  0
  136.4980   77.0060  222.3300 C   0  0  0  0  0  0  0  0  0  0  0  0
  136.1530   78.2130  222.6980 O   0  0  0  0  0  0  0  0  0  0  0  0
  135.7720   75.9740  222.9190 N   0  0  0  0  0  0  0  0  0  0  0  0
  135.8790   74.5580  222.7020 C   0  0  0  0  0  0  0  0  0  0  0  0
  134.9780   73.7370  223.6000 C   0  0  0  0  0  0  0  0  0  0  0  0
  135.0550   74.1680  225.0410 C   0  0  0  0  0  0  0  0  0  0  0  0
  134.0180   73.5070  225.8650 C   0  0  0  0  0  0  0  0  0  0  0  0
  133.0070   74.2210  226.4520 C   0  0  0  0  0  0  0  0  0  0  0  0
  132.0330   73.6150  227.2230 C   0  0  0  0  0  0  0  0  0  0  0  0
  132.0400   72.2520  227.4350 C   0  0  0  0  0  0  0  0  0  0  0  0
  133.0450   71.5130  226.8560 C   0  0  0  0  0  0  0  0  0  0  0  0
  134.0110   72.1260  226.0900 C   0  0  0  0  0  0  0  0  0  0  0  0
  135.0810   75.6690  225.1820 C   0  0  0  0  0  0  0  0  0  0  0  0
  134.7310   76.3730  223.9020 C   0  0  0  0  0  0  0  0  0  0  0  0
  139.9220   71.5130  223.7670 C   0  0  0  0  0  0  0  0  0  0  0  0
  139.2910   70.3190  223.4880 C   0  0  0  0  0  0  0  0  0  0  0  0
  139.2490   69.3210  224.4490 C   0  0  0  0  0  0  0  0  0  0  0  0
  139.8330   69.4940  225.7070 C   0  0  0  0  0  0  0  0  0  0  0  0
  139.7930   68.4990  226.6690 C   0  0  0  0  0  0  0  0  0  0  0  0
  140.3920   68.7330  227.8990 C   0  0  0  0  0  0  0  0  0  0  0  0
  141.0090   69.9480  228.1220 C   0  0  0  0  0  0  0  0  0  0  0  0
  141.0610   70.9500  227.1810 C   0  0  0  0  0  0  0  0  0  0  0  0
  140.4560   70.7130  225.9410 C   0  0  0  0  0  0  0  0  0  0  0  0
  140.4790   71.6590  224.9860 N   0  0  0  0  0  0  0  0  0  0  0  0
  137.8530   73.0150  222.7540 H   0  0  0  0  0  0  0  0  0  0  0  0
  139.5897   73.8595  220.5086 H   0  0  0  0  0  0  0  0  0  0  0  0
  137.9668   74.5514  220.9364 H   0  0  0  0  0  0  0  0  0  0  0  0
  138.6295   78.0152  223.6161 H   0  0  0  0  0  0  0  0  0  0  0  0
  140.2670   77.9177  223.0577 H   0  0  0  0  0  0  0  0  0  0  0  0
  138.5012   79.8720  222.1565 H   0  0  0  0  0  0  0  0  0  0  0  0
  139.7760   79.2612  221.0834 H   0  0  0  0  0  0  0  0  0  0  0  0
  136.9148   78.9825  220.7991 H   0  0  0  0  0  0  0  0  0  0  0  0
  138.1422   78.3439  219.7157 H   0  0  0  0  0  0  0  0  0  0  0  0
  137.2766   76.2508  220.6105 H   0  0  0  0  0  0  0  0  0  0  0  0
  135.6140   74.3456  221.6557 H   0  0  0  0  0  0  0  0  0  0  0  0
  136.9150   74.2731  222.9375 H   0  0  0  0  0  0  0  0  0  0  0  0
  133.9397   73.8466  223.2537 H   0  0  0  0  0  0  0  0  0  0  0  0
  135.3135   72.6909  223.5449 H   0  0  0  0  0  0  0  0  0  0  0  0
  136.0189   73.8231  225.4435 H   0  0  0  0  0  0  0  0  0  0  0  0
  132.9691   75.3105  226.3052 H   0  0  0  0  0  0  0  0  0  0  0  0
  131.2400   74.2292  227.6746 H   0  0  0  0  0  0  0  0  0  0  0  0
  131.2647   71.7704  228.0490 H   0  0  0  0  0  0  0  0  0  0  0  0
  133.0773   70.4238  227.0060 H   0  0  0  0  0  0  0  0  0  0  0  0
  134.8034   71.5098  225.6401 H   0  0  0  0  0  0  0  0  0  0  0  0
  134.3568   75.9632  225.9559 H   0  0  0  0  0  0  0  0  0  0  0  0
  136.1057   75.9614  225.4550 H   0  0  0  0  0  0  0  0  0  0  0  0
  133.7357   76.0603  223.5533 H   0  0  0  0  0  0  0  0  0  0  0  0
  134.7005   77.4643  224.0369 H   0  0  0  0  0  0  0  0  0  0  0  0
  138.8224   70.1590  222.5057 H   0  0  0  0  0  0  0  0  0  0  0  0
  138.7447   68.3715  224.2164 H   0  0  0  0  0  0  0  0  0  0  0  0
  139.2953   67.5401  226.4621 H   0  0  0  0  0  0  0  0  0  0  0  0
  140.3755   67.9625  228.6839 H   0  0  0  0  0  0  0  0  0  0  0  0
  141.4819   70.1231  229.0996 H   0  0  0  0  0  0  0  0  0  0  0  0
  141.5614   71.9058  227.3957 H   0  0  0  0  0  0  0  0  0  0  0  0
  1  2  2  0
  2  3  1  0
  3  4  1  0
  4  5  1  0
  5  6  2  0
  5  7  1  0
  7  8  1  0
  8  9  1  0
  9 10  1  0
 10 11  1  0
 11 12  1  0
 12 13  2  0
 12 14  1  0
 14 15  1  0
 15 16  1  0
 16 17  1  0
 17 18  1  0
 18 19  2  0
 19 20  1  0
 20 21  2  0
 21 22  1  0
 22 23  2  0
 17 24  1  0
 24 25  1  0
  2 26  1  0
 26 27  2  0
 27 28  1  0
 28 29  2  0
 29 30  1  0
 30 31  2  0
 31 32  1  0
 32 33  2  0
 33 34  1  0
 34 35  2  0
 11  7  1  0
 25 14  1  0
 35 26  1  0
 23 18  1  0
 34 29  1  0
  3 36  1  0
  4 37  1  0
  4 38  1  0
  8 39  1  0
  8 40  1  0
  9 41  1  0
  9 42  1  0
 10 43  1  0
 10 44  1  0
 11 45  1  6
 15 46  1  0
 15 47  1  0
 16 48  1  0
 16 49  1  0
 17 50  1  0
 19 51  1  0
 20 52  1  0
 21 53  1  0
 22 54  1  0
 23 55  1  0
 24 56  1  0
 24 57  1  0
 25 58  1  0
 25 59  1  0
 27 60  1  0
 28 61  1  0
 30 62  1  0
 31 63  1  0
 32 64  1  0
 33 65  1  0
M  END
>  <smiles>  (23) 
O=C(NCC(=O)N1CCCC1C(=O)N1CCC(c2ccccc2)CC1)c1ccc2ccccc2n1

>  <score_type>  (23) 
oracle

>  <origin>  (23) 
autodockgpu

>  <m_score__min__energy>  (23) 
-9.2699999999999996

>  <m_primary>  (23) 
energy

>  <rmsd>  (23) 
6.073638507468784

>  <m_score__min__rmsd>  (23) 
6.073638507468784

>  <meeko>  (23) 
{"free_energy": -9.24, "intermolecular_energy": -11.03, "internal_energy": -1.94, "cluster_size": 7, "cluster_id": 2, "rank_in_cluster": 1}

>  <energy>  (23) 
-8.57

>  <cluster_rmsd>  (23) 
1.73

>  <cluster>  (23) 
3

$$$$

     RDKit          3D

 65 69  0  0  1  0  0  0  0  0999 V2000
  138.1610   69.1890  222.1720 O   0  0  0  0  0  0  0  0  0  0  0  0
  138.5850   70.1810  222.8310 C   0  0  0  0  0  0  0  0  0  0  0  0
  138.4580   71.4840  222.2710 N   0  0  0  0  0  0  0  0  0  0  0  0
  137.8290   71.5480  220.9490 C   0  0  0  0  0  0  0  0  0  0  0  0
  138.8030   71.3990  219.8720 C   0  0  0  0  0  0  0  0  0  0  0  0
  138.6510   70.6250  218.8820 O   0  0  0  0  0  0  0  0  0  0  0  0
  140.0110   72.1550  219.8990 N   0  0  0  0  0  0  0  0  0  0  0  0
  141.3650   71.6690  220.2300 C   0  0  0  0  0  0  0  0  0  0  0  0
  142.1720   72.3190  219.1030 C   0  0  0  0  0  0  0  0  0  0  0  0
  141.4010   73.5290  218.6720 C   0  0  0  0  0  0  0  0  0  0  0  0
  140.1900   73.5420  219.5940 C   0  0  2  0  0  0  0  0  0  0  0  0
  140.4310   74.3510  220.7890 C   0  0  0  0  0  0  0  0  0  0  0  0
  140.1060   73.7360  221.8970 O   0  0  0  0  0  0  0  0  0  0  0  0
  140.9410   75.6370  220.9500 N   0  0  0  0  0  0  0  0  0  0  0  0
  141.4190   76.5490  219.9490 C   0  0  0  0  0  0  0  0  0  0  0  0
  141.8120   77.9030  220.4990 C   0  0  0  0  0  0  0  0  0  0  0  0
  140.7740   78.4690  221.4330 C   0  0  0  0  0  0  0  0  0  0  0  0
  141.2640   79.6810  222.1250 C   0  0  0  0  0  0  0  0  0  0  0  0
  142.0870   79.5980  223.2180 C   0  0  0  0  0  0  0  0  0  0  0  0
  142.5520   80.7230  223.8730 C   0  0  0  0  0  0  0  0  0  0  0  0
  142.2030   81.9880  223.4480 C   0  0  0  0  0  0  0  0  0  0  0  0
  141.3770   82.0980  222.3530 C   0  0  0  0  0  0  0  0  0  0  0  0
  140.9200   80.9710  221.7080 C   0  0  0  0  0  0  0  0  0  0  0  0
  140.2150   77.4200  222.3600 C   0  0  0  0  0  0  0  0  0  0  0  0
  141.0180   76.1500  222.3430 C   0  0  0  0  0  0  0  0  0  0  0  0
  139.1950   69.9780  224.1450 C   0  0  0  0  0  0  0  0  0  0  0  0
  139.2450   68.7090  224.6830 C   0  0  0  0  0  0  0  0  0  0  0  0
  139.8210   68.5110  225.9280 C   0  0  0  0  0  0  0  0  0  0  0  0
  140.3590   69.5720  226.6610 C   0  0  0  0  0  0  0  0  0  0  0  0
  140.9360   69.3780  227.9040 C   0  0  0  0  0  0  0  0  0  0  0  0
  141.4520   70.4730  228.5820 C   0  0  0  0  0  0  0  0  0  0  0  0
  141.3740   71.7200  227.9940 C   0  0  0  0  0  0  0  0  0  0  0  0
  140.8040   71.9370  226.7600 C   0  0  0  0  0  0  0  0  0  0  0  0
  140.2850   70.8310  226.0780 C   0  0  0  0  0  0  0  0  0  0  0  0
  139.7190   70.9880  224.8690 N   0  0  0  0  0  0  0  0  0  0  0  0
  138.7940   72.3290  222.7750 H   0  0  0  0  0  0  0  0  0  0  0  0
  137.0859   70.7408  220.8699 H   0  0  0  0  0  0  0  0  0  0  0  0
  137.3563   72.5358  220.8452 H   0  0  0  0  0  0  0  0  0  0  0  0
  141.6927   72.0197  221.2198 H   0  0  0  0  0  0  0  0  0  0  0  0
  141.4591   70.5748  220.2918 H   0  0  0  0  0  0  0  0  0  0  0  0
  143.1671   72.6126  219.4685 H   0  0  0  0  0  0  0  0  0  0  0  0
  142.3191   71.6215  218.2653 H   0  0  0  0  0  0  0  0  0  0  0  0
  142.0011   74.4417  218.8019 H   0  0  0  0  0  0  0  0  0  0  0  0
  141.1228   73.4969  217.6083 H   0  0  0  0  0  0  0  0  0  0  0  0
  139.2967   73.9961  219.1404 H   0  0  0  0  0  0  0  0  0  0  0  0
  142.2993   76.1022  219.4638 H   0  0  0  0  0  0  0  0  0  0  0  0
  140.5913   76.7158  219.2439 H   0  0  0  0  0  0  0  0  0  0  0  0
  142.7605   77.7998  221.0464 H   0  0  0  0  0  0  0  0  0  0  0  0
  141.9093   78.5940  219.6487 H   0  0  0  0  0  0  0  0  0  0  0  0
  139.9200   78.8007  220.8242 H   0  0  0  0  0  0  0  0  0  0  0  0
  142.3867   78.6054  223.5853 H   0  0  0  0  0  0  0  0  0  0  0  0
  143.2105   80.6076  224.7466 H   0  0  0  0  0  0  0  0  0  0  0  0
  142.5742   82.8827  223.9692 H   0  0  0  0  0  0  0  0  0  0  0  0
  141.0799   83.0932  221.9906 H   0  0  0  0  0  0  0  0  0  0  0  0
  140.2617   81.0890  220.8347 H   0  0  0  0  0  0  0  0  0  0  0  0
  140.2105   77.8208  223.3844 H   0  0  0  0  0  0  0  0  0  0  0  0
  139.1987   77.1774  222.0160 H   0  0  0  0  0  0  0  0  0  0  0  0
  142.0632   76.3547  222.6180 H   0  0  0  0  0  0  0  0  0  0  0  0
  140.6291   75.4170  223.0651 H   0  0  0  0  0  0  0  0  0  0  0  0
  138.8290   67.8567  224.1257 H   0  0  0  0  0  0  0  0  0  0  0  0
  139.8554   67.4952  226.3487 H   0  0  0  0  0  0  0  0  0  0  0  0
  140.9847   68.3723  228.3470 H   0  0  0  0  0  0  0  0  0  0  0  0
  141.9157   70.3498  229.5719 H   0  0  0  0  0  0  0  0  0  0  0  0
  141.7875   72.5819  228.5382 H   0  0  0  0  0  0  0  0  0  0  0  0
  140.7581   72.9461  226.3246 H   0  0  0  0  0  0  0  0  0  0  0  0
  1  2  2  0
  2  3  1  0
  3  4  1  0
  4  5  1  0
  5  6  2  0
  5  7  1  0
  7  8  1  0
  8  9  1  0
  9 10  1  0
 10 11  1  0
 11 12  1  0
 12 13  2  0
 12 14  1  0
 14 15  1  0
 15 16  1  0
 16 17  1  0
 17 18  1  0
 18 19  2  0
 19 20  1  0
 20 21  2  0
 21 22  1  0
 22 23  2  0
 17 24  1  0
 24 25  1  0
  2 26  1  0
 26 27  2  0
 27 28  1  0
 28 29  2  0
 29 30  1  0
 30 31  2  0
 31 32  1  0
 32 33  2  0
 33 34  1  0
 34 35  2  0
 11  7  1  0
 25 14  1  0
 35 26  1  0
 23 18  1  0
 34 29  1  0
  3 36  1  0
  4 37  1  0
  4 38  1  0
  8 39  1  0
  8 40  1  0
  9 41  1  0
  9 42  1  0
 10 43  1  0
 10 44  1  0
 11 45  1  6
 15 46  1  0
 15 47  1  0
 16 48  1  0
 16 49  1  0
 17 50  1  0
 19 51  1  0
 20 52  1  0
 21 53  1  0
 22 54  1  0
 23 55  1  0
 24 56  1  0
 24 57  1  0
 25 58  1  0
 25 59  1  0
 27 60  1  0
 28 61  1  0
 30 62  1  0
 31 63  1  0
 32 64  1  0
 33 65  1  0
M  END
>  <smiles>  (24) 
O=C(NCC(=O)N1CCCC1C(=O)N1CCC(c2ccccc2)CC1)c1ccc2ccccc2n1

>  <score_type>  (24) 
oracle

>  <origin>  (24) 
autodockgpu

>  <m_score__min__energy>  (24) 
-9.2699999999999996

>  <m_primary>  (24) 
energy

>  <rmsd>  (24) 
3.338458272949656

>  <m_score__min__rmsd>  (24) 
3.338458272949656

>  <meeko>  (24) 
{"free_energy": -8.71, "intermolecular_energy": -10.5, "internal_energy": -2.74, "cluster_size": 15, "cluster_id": 3, "rank_in_cluster": 3}

>  <energy>  (24) 
-8.56

>  <cluster_rmsd>  (24) 
1.79

>  <cluster>  (24) 
3

$$$$

     RDKit          3D

 65 69  0  0  1  0  0  0  0  0999 V2000
  141.0280   71.8520  221.5070 O   0  0  0  0  0  0  0  0  0  0  0  0
  140.2360   72.2150  222.4220 C   0  0  0  0  0  0  0  0  0  0  0  0
  139.4580   73.3930  222.2330 N   0  0  0  0  0  0  0  0  0  0  0  0
  139.6590   74.0870  220.9580 C   0  0  0  0  0  0  0  0  0  0  0  0
  140.8970   74.8590  220.9450 C   0  0  0  0  0  0  0  0  0  0  0  0
  141.4920   75.2620  221.9870 O   0  0  0  0  0  0  0  0  0  0  0  0
  141.5090   75.1980  219.7020 N   0  0  0  0  0  0  0  0  0  0  0  0
  140.8590   75.2840  218.3790 C   0  0  0  0  0  0  0  0  0  0  0  0
  141.4460   76.6040  217.8720 C   0  0  0  0  0  0  0  0  0  0  0  0
  142.7500   76.7920  218.5860 C   0  0  0  0  0  0  0  0  0  0  0  0
  142.8740   75.5500  219.4580 C   0  0  2  0  0  0  0  0  0  0  0  0
  143.6130   74.4850  218.7780 C   0  0  0  0  0  0  0  0  0  0  0  0
  144.0640   74.8460  217.6050 O   0  0  0  0  0  0  0  0  0  0  0  0
  143.9170   73.1800  219.1570 N   0  0  0  0  0  0  0  0  0  0  0  0
  143.6030   72.5020  220.3840 C   0  0  0  0  0  0  0  0  0  0  0  0
  144.0200   71.0460  220.3960 C   0  0  0  0  0  0  0  0  0  0  0  0
  143.6100   70.3200  219.1420 C   0  0  0  0  0  0  0  0  0  0  0  0
  144.2070   68.9680  219.0740 C   0  0  0  0  0  0  0  0  0  0  0  0
  145.3880   68.6740  219.7040 C   0  0  0  0  0  0  0  0  0  0  0  0
  145.9550   67.4150  219.6490 C   0  0  0  0  0  0  0  0  0  0  0  0
  145.3500   66.3920  218.9490 C   0  0  0  0  0  0  0  0  0  0  0  0
  144.1630   66.6620  218.3070 C   0  0  0  0  0  0  0  0  0  0  0  0
  143.6060   67.9190  218.3690 C   0  0  0  0  0  0  0  0  0  0  0  0
  143.8380   71.1510  217.9060 C   0  0  0  0  0  0  0  0  0  0  0  0
  144.6800   72.3650  218.1760 C   0  0  0  0  0  0  0  0  0  0  0  0
  140.1300   71.4280  223.6510 C   0  0  0  0  0  0  0  0  0  0  0  0
  139.5130   70.1950  223.6180 C   0  0  0  0  0  0  0  0  0  0  0  0
  139.4090   69.4450  224.7790 C   0  0  0  0  0  0  0  0  0  0  0  0
  139.9190   69.9080  225.9950 C   0  0  0  0  0  0  0  0  0  0  0  0
  139.8180   69.1610  227.1560 C   0  0  0  0  0  0  0  0  0  0  0  0
  140.3450   69.6770  228.3320 C   0  0  0  0  0  0  0  0  0  0  0  0
  140.9520   70.9170  228.3050 C   0  0  0  0  0  0  0  0  0  0  0  0
  141.0620   71.6770  227.1630 C   0  0  0  0  0  0  0  0  0  0  0  0
  140.5310   71.1540  225.9780 C   0  0  0  0  0  0  0  0  0  0  0  0
  140.6140   71.8560  224.8340 N   0  0  0  0  0  0  0  0  0  0  0  0
  138.7950   73.7300  222.9590 H   0  0  0  0  0  0  0  0  0  0  0  0
  139.6969   73.3415  220.1500 H   0  0  0  0  0  0  0  0  0  0  0  0
  138.8214   74.7857  220.8158 H   0  0  0  0  0  0  0  0  0  0  0  0
  141.1385   74.4391  217.7324 H   0  0  0  0  0  0  0  0  0  0  0  0
  139.7599   75.2474  218.4024 H   0  0  0  0  0  0  0  0  0  0  0  0
  141.6114   76.5539  216.7856 H   0  0  0  0  0  0  0  0  0  0  0  0
  140.7621   77.4436  218.0652 H   0  0  0  0  0  0  0  0  0  0  0  0
  143.5829   76.8519  217.8700 H   0  0  0  0  0  0  0  0  0  0  0  0
  142.7832   77.7241  219.1691 H   0  0  0  0  0  0  0  0  0  0  0  0
  143.4416   75.7189  220.3850 H   0  0  0  0  0  0  0  0  0  0  0  0
  144.1176   73.0179  221.2080 H   0  0  0  0  0  0  0  0  0  0  0  0
  142.5088   72.5251  220.4945 H   0  0  0  0  0  0  0  0  0  0  0  0
  145.1145   70.9930  220.4928 H   0  0  0  0  0  0  0  0  0  0  0  0
  143.5158   70.5602  221.2443 H   0  0  0  0  0  0  0  0  0  0  0  0
  142.5222   70.1624  219.1861 H   0  0  0  0  0  0  0  0  0  0  0  0
  145.9006   69.4649  220.2712 H   0  0  0  0  0  0  0  0  0  0  0  0
  146.9041   67.2256  220.1719 H   0  0  0  0  0  0  0  0  0  0  0  0
  145.8027   65.3904  218.9052 H   0  0  0  0  0  0  0  0  0  0  0  0
  143.6557   65.8674  217.7402 H   0  0  0  0  0  0  0  0  0  0  0  0
  142.6561   68.1055  217.8466 H   0  0  0  0  0  0  0  0  0  0  0  0
  144.3451   70.5305  217.1524 H   0  0  0  0  0  0  0  0  0  0  0  0
  142.8563   71.4976  217.5507 H   0  0  0  0  0  0  0  0  0  0  0  0
  145.6523   72.0702  218.5975 H   0  0  0  0  0  0  0  0  0  0  0  0
  144.8830   72.9289  217.2536 H   0  0  0  0  0  0  0  0  0  0  0  0
  139.1045   69.8078  222.6729 H   0  0  0  0  0  0  0  0  0  0  0  0
  138.9139   68.4634  224.7425 H   0  0  0  0  0  0  0  0  0  0  0  0
  139.3287   68.1758  227.1469 H   0  0  0  0  0  0  0  0  0  0  0  0
  140.2801   69.1071  229.2706 H   0  0  0  0  0  0  0  0  0  0  0  0
  141.3678   71.3167  229.2417 H   0  0  0  0  0  0  0  0  0  0  0  0
  141.5507   72.6623  227.1807 H   0  0  0  0  0  0  0  0  0  0  0  0
  1  2  2  0
  2  3  1  0
  3  4  1  0
  4  5  1  0
  5  6  2  0
  5  7  1  0
  7  8  1  0
  8  9  1  0
  9 10  1  0
 10 11  1  0
 11 12  1  0
 12 13  2  0
 12 14  1  0
 14 15  1  0
 15 16  1  0
 16 17  1  0
 17 18  1  0
 18 19  2  0
 19 20  1  0
 20 21  2  0
 21 22  1  0
 22 23  2  0
 17 24  1  0
 24 25  1  0
  2 26  1  0
 26 27  2  0
 27 28  1  0
 28 29  2  0
 29 30  1  0
 30 31  2  0
 31 32  1  0
 32 33  2  0
 33 34  1  0
 34 35  2  0
 11  7  1  0
 25 14  1  0
 35 26  1  0
 23 18  1  0
 34 29  1  0
  3 36  1  0
  4 37  1  0
  4 38  1  0
  8 39  1  0
  8 40  1  0
  9 41  1  0
  9 42  1  0
 10 43  1  0
 10 44  1  0
 11 45  1  1
 15 46  1  0
 15 47  1  0
 16 48  1  0
 16 49  1  0
 17 50  1  0
 19 51  1  0
 20 52  1  0
 21 53  1  0
 22 54  1  0
 23 55  1  0
 24 56  1  0
 24 57  1  0
 25 58  1  0
 25 59  1  0
 27 60  1  0
 28 61  1  0
 30 62  1  0
 31 63  1  0
 32 64  1  0
 33 65  1  0
M  END
>  <smiles>  (25) 
O=C(NCC(=O)N1CCCC1C(=O)N1CCC(c2ccccc2)CC1)c1ccc2ccccc2n1

>  <score_type>  (25) 
oracle

>  <origin>  (25) 
autodockgpu

>  <m_score__min__energy>  (25) 
-9.2699999999999996

>  <m_primary>  (25) 
energy

>  <rmsd>  (25) 
6.526628651863626

>  <m_score__min__rmsd>  (25) 
6.526628651863626

>  <meeko>  (25) 
{"free_energy": -8.93, "intermolecular_energy": -10.72, "internal_energy": -2.22, "cluster_size": 6, "cluster_id": 1, "rank_in_cluster": 5}

>  <energy>  (25) 
-8.55

>  <cluster_rmsd>  (25) 
1.85

>  <cluster>  (25) 
3

$$$$

     RDKit          3D

 65 69  0  0  1  0  0  0  0  0999 V2000
  138.2880   69.1590  222.2410 O   0  0  0  0  0  0  0  0  0  0  0  0
  138.6290   70.2690  222.7390 C   0  0  0  0  0  0  0  0  0  0  0  0
  138.3570   71.4630  222.0110 N   0  0  0  0  0  0  0  0  0  0  0  0
  137.6870   71.2800  220.7210 C   0  0  0  0  0  0  0  0  0  0  0  0
  138.5610   71.6130  219.5990 C   0  0  0  0  0  0  0  0  0  0  0  0
  138.2420   71.4600  218.3840 O   0  0  0  0  0  0  0  0  0  0  0  0
  139.8590   72.1480  219.8470 N   0  0  0  0  0  0  0  0  0  0  0  0
  141.0160   71.4520  220.4440 C   0  0  0  0  0  0  0  0  0  0  0  0
  142.1250   71.8900  219.4840 C   0  0  0  0  0  0  0  0  0  0  0  0
  141.6810   73.1910  218.8880 C   0  0  0  0  0  0  0  0  0  0  0  0
  140.3400   73.4640  219.5560 C   0  0  2  0  0  0  0  0  0  0  0  0
  140.4940   74.2820  220.7590 C   0  0  0  0  0  0  0  0  0  0  0  0
  140.0610   73.6880  221.8400 O   0  0  0  0  0  0  0  0  0  0  0  0
  141.0160   75.5590  220.9500 N   0  0  0  0  0  0  0  0  0  0  0  0
  141.5990   76.4480  219.9850 C   0  0  0  0  0  0  0  0  0  0  0  0
  141.9730   77.8010  220.5540 C   0  0  0  0  0  0  0  0  0  0  0  0
  140.8700   78.3990  221.3880 C   0  0  0  0  0  0  0  0  0  0  0  0
  141.3250   79.6090  222.1090 C   0  0  0  0  0  0  0  0  0  0  0  0
  140.8770   80.8580  221.7650 C   0  0  0  0  0  0  0  0  0  0  0  0
  141.2940   81.9950  222.4310 C   0  0  0  0  0  0  0  0  0  0  0  0
  142.1870   81.9190  223.4790 C   0  0  0  0  0  0  0  0  0  0  0  0
  142.6510   80.6750  223.8430 C   0  0  0  0  0  0  0  0  0  0  0  0
  142.2300   79.5490  223.1740 C   0  0  0  0  0  0  0  0  0  0  0  0
  140.2100   77.3730  222.2740 C   0  0  0  0  0  0  0  0  0  0  0  0
  140.9840   76.0870  222.3400 C   0  0  0  0  0  0  0  0  0  0  0  0
  139.2930   70.3130  224.0420 C   0  0  0  0  0  0  0  0  0  0  0  0
  139.9300   71.4680  224.4430 C   0  0  0  0  0  0  0  0  0  0  0  0
  140.5600   71.5150  225.6760 C   0  0  0  0  0  0  0  0  0  0  0  0
  140.5690   70.4120  226.5340 C   0  0  0  0  0  0  0  0  0  0  0  0
  141.1970   70.4550  227.7670 C   0  0  0  0  0  0  0  0  0  0  0  0
  141.1700   69.3260  228.5730 C   0  0  0  0  0  0  0  0  0  0  0  0
  140.5170   68.1970  228.1190 C   0  0  0  0  0  0  0  0  0  0  0  0
  139.8860   68.1310  226.8970 C   0  0  0  0  0  0  0  0  0  0  0  0
  139.9150   69.2710  226.0860 C   0  0  0  0  0  0  0  0  0  0  0  0
  139.3130   69.2600  224.8840 N   0  0  0  0  0  0  0  0  0  0  0  0
  138.6210   72.3980  222.3800 H   0  0  0  0  0  0  0  0  0  0  0  0
  137.3750   70.2292  220.6286 H   0  0  0  0  0  0  0  0  0  0  0  0
  136.8201   71.9564  220.6891 H   0  0  0  0  0  0  0  0  0  0  0  0
  141.2097   71.7926  221.4718 H   0  0  0  0  0  0  0  0  0  0  0  0
  140.8968   70.3630  220.5431 H   0  0  0  0  0  0  0  0  0  0  0  0
  143.0698   72.0251  220.0308 H   0  0  0  0  0  0  0  0  0  0  0  0
  142.2987   71.1336  218.7045 H   0  0  0  0  0  0  0  0  0  0  0  0
  142.4010   73.9910  219.1152 H   0  0  0  0  0  0  0  0  0  0  0  0
  141.6071   73.1508  217.7912 H   0  0  0  0  0  0  0  0  0  0  0  0
  139.6452   74.0412  218.9282 H   0  0  0  0  0  0  0  0  0  0  0  0
  142.5079   75.9767  219.5828 H   0  0  0  0  0  0  0  0  0  0  0  0
  140.8397   76.6236  219.2087 H   0  0  0  0  0  0  0  0  0  0  0  0
  142.8678   77.6844  221.1831 H   0  0  0  0  0  0  0  0  0  0  0  0
  142.1597   78.4799  219.7089 H   0  0  0  0  0  0  0  0  0  0  0  0
  140.0795   78.7405  220.7035 H   0  0  0  0  0  0  0  0  0  0  0  0
  140.1639   80.9584  220.9335 H   0  0  0  0  0  0  0  0  0  0  0  0
  140.9072   82.9767  222.1200 H   0  0  0  0  0  0  0  0  0  0  0  0
  142.5185   82.8247  224.0080 H   0  0  0  0  0  0  0  0  0  0  0  0
  143.3640   80.5806  224.6753 H   0  0  0  0  0  0  0  0  0  0  0  0
  142.6181   78.5685  223.4871 H   0  0  0  0  0  0  0  0  0  0  0  0
  140.1253   77.7863  223.2899 H   0  0  0  0  0  0  0  0  0  0  0  0
  139.2223   77.1472  221.8457 H   0  0  0  0  0  0  0  0  0  0  0  0
  142.0058   76.2735  222.7021 H   0  0  0  0  0  0  0  0  0  0  0  0
  140.5191   75.3709  223.0335 H   0  0  0  0  0  0  0  0  0  0  0  0
  139.9380   72.3500  223.7857 H   0  0  0  0  0  0  0  0  0  0  0  0
  141.0647   72.4417  225.9867 H   0  0  0  0  0  0  0  0  0  0  0  0
  141.7089   71.3691  228.1021 H   0  0  0  0  0  0  0  0  0  0  0  0
  141.6607   69.3301  229.5575 H   0  0  0  0  0  0  0  0  0  0  0  0
  140.5002   67.3070  228.7652 H   0  0  0  0  0  0  0  0  0  0  0  0
  139.3762   67.2130  226.5693 H   0  0  0  0  0  0  0  0  0  0  0  0
  1  2  2  0
  2  3  1  0
  3  4  1  0
  4  5  1  0
  5  6  2  0
  5  7  1  0
  7  8  1  0
  8  9  1  0
  9 10  1  0
 10 11  1  0
 11 12  1  0
 12 13  2  0
 12 14  1  0
 14 15  1  0
 15 16  1  0
 16 17  1  0
 17 18  1  0
 18 19  2  0
 19 20  1  0
 20 21  2  0
 21 22  1  0
 22 23  2  0
 17 24  1  0
 24 25  1  0
  2 26  1  0
 26 27  2  0
 27 28  1  0
 28 29  2  0
 29 30  1  0
 30 31  2  0
 31 32  1  0
 32 33  2  0
 33 34  1  0
 34 35  2  0
 11  7  1  0
 25 14  1  0
 35 26  1  0
 23 18  1  0
 34 29  1  0
  3 36  1  0
  4 37  1  0
  4 38  1  0
  8 39  1  0
  8 40  1  0
  9 41  1  0
  9 42  1  0
 10 43  1  0
 10 44  1  0
 11 45  1  6
 15 46  1  0
 15 47  1  0
 16 48  1  0
 16 49  1  0
 17 50  1  0
 19 51  1  0
 20 52  1  0
 21 53  1  0
 22 54  1  0
 23 55  1  0
 24 56  1  0
 24 57  1  0
 25 58  1  0
 25 59  1  0
 27 60  1  0
 28 61  1  0
 30 62  1  0
 31 63  1  0
 32 64  1  0
 33 65  1  0
M  END
>  <smiles>  (26) 
O=C(NCC(=O)N1CCCC1C(=O)N1CCC(c2ccccc2)CC1)c1ccc2ccccc2n1

>  <score_type>  (26) 
oracle

>  <origin>  (26) 
autodockgpu

>  <m_score__min__energy>  (26) 
-9.2699999999999996

>  <m_primary>  (26) 
energy

>  <rmsd>  (26) 
3.621708422455194

>  <m_score__min__rmsd>  (26) 
3.621708422455194

>  <meeko>  (26) 
{"free_energy": -8.69, "intermolecular_energy": -10.48, "internal_energy": -2.65, "cluster_size": 15, "cluster_id": 3, "rank_in_cluster": 6}

>  <energy>  (26) 
-8.45

>  <cluster_rmsd>  (26) 
1.83

>  <cluster>  (26) 
3

$$$$

     RDKit          3D

 65 69  0  0  1  0  0  0  0  0999 V2000
  138.9960   69.0150  221.7060 O   0  0  0  0  0  0  0  0  0  0  0  0
  139.0330   70.0440  222.4390 C   0  0  0  0  0  0  0  0  0  0  0  0
  138.6800   71.3030  221.8750 N   0  0  0  0  0  0  0  0  0  0  0  0
  138.2950   71.2800  220.4610 C   0  0  0  0  0  0  0  0  0  0  0  0
  139.4540   71.1700  219.5810 C   0  0  0  0  0  0  0  0  0  0  0  0
  139.6730   70.1840  218.8180 O   0  0  0  0  0  0  0  0  0  0  0  0
  140.4200   72.2180  219.5470 N   0  0  0  0  0  0  0  0  0  0  0  0
  141.8890   72.0850  219.6220 C   0  0  0  0  0  0  0  0  0  0  0  0
  142.3070   73.0330  218.4950 C   0  0  0  0  0  0  0  0  0  0  0  0
  141.1960   74.0270  218.3420 C   0  0  0  0  0  0  0  0  0  0  0  0
  140.1920   73.6240  219.4130 C   0  0  2  0  0  0  0  0  0  0  0  0
  140.4170   74.3490  220.6640 C   0  0  0  0  0  0  0  0  0  0  0  0
  140.0510   73.6720  221.7210 O   0  0  0  0  0  0  0  0  0  0  0  0
  140.9480   75.6110  220.9200 N   0  0  0  0  0  0  0  0  0  0  0  0
  141.4700   76.5750  219.9930 C   0  0  0  0  0  0  0  0  0  0  0  0
  141.8750   77.8830  220.6400 C   0  0  0  0  0  0  0  0  0  0  0  0
  140.8240   78.4090  221.5820 C   0  0  0  0  0  0  0  0  0  0  0  0
  141.3190   79.5630  222.3640 C   0  0  0  0  0  0  0  0  0  0  0  0
  142.1290   79.3940  223.4570 C   0  0  0  0  0  0  0  0  0  0  0  0
  142.5990   80.4640  224.1940 C   0  0  0  0  0  0  0  0  0  0  0  0
  142.2690   81.7600  223.8570 C   0  0  0  0  0  0  0  0  0  0  0  0
  141.4570   81.9560  222.7630 C   0  0  0  0  0  0  0  0  0  0  0  0
  140.9940   80.8830  222.0350 C   0  0  0  0  0  0  0  0  0  0  0  0
  140.2200   77.3140  222.4250 C   0  0  0  0  0  0  0  0  0  0  0  0
  140.9990   76.0310  222.3460 C   0  0  0  0  0  0  0  0  0  0  0  0
  139.4360   69.9290  223.8400 C   0  0  0  0  0  0  0  0  0  0  0  0
  139.1920   68.7570  224.5240 C   0  0  0  0  0  0  0  0  0  0  0  0
  139.5710   68.6410  225.8520 C   0  0  0  0  0  0  0  0  0  0  0  0
  140.2010   69.6920  226.5250 C   0  0  0  0  0  0  0  0  0  0  0  0
  140.5820   69.5800  227.8510 C   0  0  0  0  0  0  0  0  0  0  0  0
  141.2030   70.6600  228.4630 C   0  0  0  0  0  0  0  0  0  0  0  0
  141.4210   71.8090  227.7290 C   0  0  0  0  0  0  0  0  0  0  0  0
  141.0510   71.9430  226.4100 C   0  0  0  0  0  0  0  0  0  0  0  0
  140.4250   70.8520  225.7950 C   0  0  0  0  0  0  0  0  0  0  0  0
  140.0440   70.9300  224.5080 N   0  0  0  0  0  0  0  0  0  0  0  0
  138.6980   72.1770  222.4380 H   0  0  0  0  0  0  0  0  0  0  0  0
  137.6337   70.4184  220.2869 H   0  0  0  0  0  0  0  0  0  0  0  0
  137.7833   72.2266  220.2325 H   0  0  0  0  0  0  0  0  0  0  0  0
  142.2783   72.4146  220.5966 H   0  0  0  0  0  0  0  0  0  0  0  0
  142.2640   71.0558  219.5210 H   0  0  0  0  0  0  0  0  0  0  0  0
  143.2433   73.5469  218.7582 H   0  0  0  0  0  0  0  0  0  0  0  0
  142.4822   72.4844  217.5578 H   0  0  0  0  0  0  0  0  0  0  0  0
  141.5607   75.0506  218.5131 H   0  0  0  0  0  0  0  0  0  0  0  0
  140.7614   74.0244  217.3315 H   0  0  0  0  0  0  0  0  0  0  0  0
  139.1507   73.8623  219.1506 H   0  0  0  0  0  0  0  0  0  0  0  0
  142.3540   76.1418  219.5021 H   0  0  0  0  0  0  0  0  0  0  0  0
  140.6647   76.8045  219.2796 H   0  0  0  0  0  0  0  0  0  0  0  0
  142.8065   77.7246  221.2033 H   0  0  0  0  0  0  0  0  0  0  0  0
  142.0085   78.6253  219.8393 H   0  0  0  0  0  0  0  0  0  0  0  0
  139.9932   78.7971  220.9744 H   0  0  0  0  0  0  0  0  0  0  0  0
  142.4137   78.3746  223.7567 H   0  0  0  0  0  0  0  0  0  0  0  0
  143.2468   80.2792  225.0636 H   0  0  0  0  0  0  0  0  0  0  0  0
  142.6433   82.6112  224.4446 H   0  0  0  0  0  0  0  0  0  0  0  0
  141.1758   82.9777  222.4681 H   0  0  0  0  0  0  0  0  0  0  0  0
  140.3468   81.0702  221.1655 H   0  0  0  0  0  0  0  0  0  0  0  0
  140.1958   77.6481  223.4728 H   0  0  0  0  0  0  0  0  0  0  0  0
  139.2087   77.1153  222.0405 H   0  0  0  0  0  0  0  0  0  0  0  0
  142.0404   76.1957  222.6595 H   0  0  0  0  0  0  0  0  0  0  0  0
  140.5780   75.2611  223.0093 H   0  0  0  0  0  0  0  0  0  0  0  0
  138.6974   67.9156  224.0166 H   0  0  0  0  0  0  0  0  0  0  0  0
  139.3718   67.7014  226.3882 H   0  0  0  0  0  0  0  0  0  0  0  0
  140.3958   68.6511  228.4101 H   0  0  0  0  0  0  0  0  0  0  0  0
  141.5164   70.6015  229.5158 H   0  0  0  0  0  0  0  0  0  0  0  0
  141.9147   72.6591  228.2226 H   0  0  0  0  0  0  0  0  0  0  0  0
  141.2406   72.8754  225.8580 H   0  0  0  0  0  0  0  0  0  0  0  0
  1  2  2  0
  2  3  1  0
  3  4  1  0
  4  5  1  0
  5  6  2  0
  5  7  1  0
  7  8  1  0
  8  9  1  0
  9 10  1  0
 10 11  1  0
 11 12  1  0
 12 13  2  0
 12 14  1  0
 14 15  1  0
 15 16  1  0
 16 17  1  0
 17 18  1  0
 18 19  2  0
 19 20  1  0
 20 21  2  0
 21 22  1  0
 22 23  2  0
 17 24  1  0
 24 25  1  0
  2 26  1  0
 26 27  2  0
 27 28  1  0
 28 29  2  0
 29 30  1  0
 30 31  2  0
 31 32  1  0
 32 33  2  0
 33 34  1  0
 34 35  2  0
 11  7  1  0
 25 14  1  0
 35 26  1  0
 23 18  1  0
 34 29  1  0
  3 36  1  0
  4 37  1  0
  4 38  1  0
  8 39  1  0
  8 40  1  0
  9 41  1  0
  9 42  1  0
 10 43  1  0
 10 44  1  0
 11 45  1  6
 15 46  1  0
 15 47  1  0
 16 48  1  0
 16 49  1  0
 17 50  1  0
 19 51  1  0
 20 52  1  0
 21 53  1  0
 22 54  1  0
 23 55  1  0
 24 56  1  0
 24 57  1  0
 25 58  1  0
 25 59  1  0
 27 60  1  0
 28 61  1  0
 30 62  1  0
 31 63  1  0
 32 64  1  0
 33 65  1  0
M  END
>  <smiles>  (27) 
O=C(NCC(=O)N1CCCC1C(=O)N1CCC(c2ccccc2)CC1)c1ccc2ccccc2n1

>  <score_type>  (27) 
oracle

>  <origin>  (27) 
autodockgpu

>  <m_score__min__energy>  (27) 
-9.2699999999999996

>  <m_primary>  (27) 
energy

>  <rmsd>  (27) 
3.3165681570081933

>  <m_score__min__rmsd>  (27) 
3.3165681570081933

>  <meeko>  (27) 
{"free_energy": -8.56, "intermolecular_energy": -10.35, "internal_energy": -2.6, "cluster_size": 15, "cluster_id": 3, "rank_in_cluster": 11}

>  <energy>  (27) 
-8.38

>  <cluster_rmsd>  (27) 
1.81

>  <cluster>  (27) 
3

$$$$

     RDKit          3D

 65 69  0  0  1  0  0  0  0  0999 V2000
  140.9290   73.2430  222.4650 O   0  0  0  0  0  0  0  0  0  0  0  0
  139.9850   72.4180  222.6290 C   0  0  0  0  0  0  0  0  0  0  0  0
  138.9340   72.3740  221.6690 N   0  0  0  0  0  0  0  0  0  0  0  0
  139.0550   73.3160  220.5530 C   0  0  0  0  0  0  0  0  0  0  0  0
  140.1320   72.9450  219.6390 C   0  0  0  0  0  0  0  0  0  0  0  0
  140.6380   71.7870  219.5750 O   0  0  0  0  0  0  0  0  0  0  0  0
  140.6710   73.9170  218.7460 N   0  0  0  0  0  0  0  0  0  0  0  0
  142.0910   74.2750  218.5630 C   0  0  0  0  0  0  0  0  0  0  0  0
  142.1720   74.3040  217.0340 C   0  0  0  0  0  0  0  0  0  0  0  0
  140.7860   74.5920  216.5420 C   0  0  0  0  0  0  0  0  0  0  0  0
  139.9670   74.7460  217.8160 C   0  0  2  0  0  0  0  0  0  0  0  0
  139.9020   76.1430  218.2490 C   0  0  0  0  0  0  0  0  0  0  0  0
  139.4700   76.9480  217.3140 O   0  0  0  0  0  0  0  0  0  0  0  0
  140.2110   76.7510  219.4630 N   0  0  0  0  0  0  0  0  0  0  0  0
  140.6680   76.1480  220.6840 C   0  0  0  0  0  0  0  0  0  0  0  0
  140.9910   77.1500  221.7720 C   0  0  0  0  0  0  0  0  0  0  0  0
  141.8350   78.2920  221.2710 C   0  0  0  0  0  0  0  0  0  0  0  0
  141.9610   79.3640  222.2830 C   0  0  0  0  0  0  0  0  0  0  0  0
  140.8650   80.0470  222.7430 C   0  0  0  0  0  0  0  0  0  0  0  0
  140.9700   81.0490  223.6890 C   0  0  0  0  0  0  0  0  0  0  0  0
  142.1940   81.4070  224.2140 C   0  0  0  0  0  0  0  0  0  0  0  0
  143.3090   80.7360  223.7680 C   0  0  0  0  0  0  0  0  0  0  0  0
  143.1950   79.7390  222.8260 C   0  0  0  0  0  0  0  0  0  0  0  0
  141.3830   78.7800  219.9180 C   0  0  0  0  0  0  0  0  0  0  0  0
  140.0410   78.2270  219.5270 C   0  0  0  0  0  0  0  0  0  0  0  0
  139.9860   71.5300  223.7910 C   0  0  0  0  0  0  0  0  0  0  0  0
  139.4280   70.2730  223.6870 C   0  0  0  0  0  0  0  0  0  0  0  0
  139.4260   69.4270  224.7840 C   0  0  0  0  0  0  0  0  0  0  0  0
  139.9780   69.8170  226.0080 C   0  0  0  0  0  0  0  0  0  0  0  0
  139.9780   68.9740  227.1060 C   0  0  0  0  0  0  0  0  0  0  0  0
  140.5430   69.4200  228.2930 C   0  0  0  0  0  0  0  0  0  0  0  0
  141.0860   70.6890  228.3390 C   0  0  0  0  0  0  0  0  0  0  0  0
  141.0960   71.5440  227.2600 C   0  0  0  0  0  0  0  0  0  0  0  0
  140.5270   71.0910  226.0640 C   0  0  0  0  0  0  0  0  0  0  0  0
  140.5130   71.8860  224.9800 N   0  0  0  0  0  0  0  0  0  0  0  0
  138.1370   71.7140  221.7630 H   0  0  0  0  0  0  0  0  0  0  0  0
  138.1063   73.3312  219.9965 H   0  0  0  0  0  0  0  0  0  0  0  0
  139.2881   74.3074  220.9686 H   0  0  0  0  0  0  0  0  0  0  0  0
  142.3228   75.2569  219.0014 H   0  0  0  0  0  0  0  0  0  0  0  0
  142.8039   73.5924  219.0486 H   0  0  0  0  0  0  0  0  0  0  0  0
  142.8642   75.0929  216.7046 H   0  0  0  0  0  0  0  0  0  0  0  0
  142.5458   73.3489  216.6364 H   0  0  0  0  0  0  0  0  0  0  0  0
  140.7660   75.5189  215.9500 H   0  0  0  0  0  0  0  0  0  0  0  0
  140.3982   73.8015  215.8826 H   0  0  0  0  0  0  0  0  0  0  0  0
  138.9131   74.4533  217.6996 H   0  0  0  0  0  0  0  0  0  0  0  0
  139.8815   75.4741  221.0545 H   0  0  0  0  0  0  0  0  0  0  0  0
  141.6010   75.6143  220.4502 H   0  0  0  0  0  0  0  0  0  0  0  0
  140.0488   77.5554  222.1695 H   0  0  0  0  0  0  0  0  0  0  0  0
  141.5653   76.6257  222.5500 H   0  0  0  0  0  0  0  0  0  0  0  0
  142.8548   77.9107  221.1141 H   0  0  0  0  0  0  0  0  0  0  0  0
  139.8716   79.7896  222.3470 H   0  0  0  0  0  0  0  0  0  0  0  0
  140.0625   81.5695  224.0288 H   0  0  0  0  0  0  0  0  0  0  0  0
  142.2762   82.2050  224.9666 H   0  0  0  0  0  0  0  0  0  0  0  0
  144.2998   80.9984  224.1675 H   0  0  0  0  0  0  0  0  0  0  0  0
  144.1042   79.2197  222.4888 H   0  0  0  0  0  0  0  0  0  0  0  0
  141.3190   79.8779  219.9420 H   0  0  0  0  0  0  0  0  0  0  0  0
  142.1169   78.4345  219.1751 H   0  0  0  0  0  0  0  0  0  0  0  0
  139.2838   78.4926  220.2794 H   0  0  0  0  0  0  0  0  0  0  0  0
  139.7005   78.6363  218.5644 H   0  0  0  0  0  0  0  0  0  0  0  0
  138.9857   69.9431  222.7354 H   0  0  0  0  0  0  0  0  0  0  0  0
  138.9801   68.4258  224.6900 H   0  0  0  0  0  0  0  0  0  0  0  0
  139.5379   67.9681  227.0391 H   0  0  0  0  0  0  0  0  0  0  0  0
  140.5580   68.7731  229.1826 H   0  0  0  0  0  0  0  0  0  0  0  0
  141.5322   71.0333  229.2837 H   0  0  0  0  0  0  0  0  0  0  0  0
  141.5363   72.5492  227.3352 H   0  0  0  0  0  0  0  0  0  0  0  0
  1  2  2  0
  2  3  1  0
  3  4  1  0
  4  5  1  0
  5  6  2  0
  5  7  1  0
  7  8  1  0
  8  9  1  0
  9 10  1  0
 10 11  1  0
 11 12  1  0
 12 13  2  0
 12 14  1  0
 14 15  1  0
 15 16  1  0
 16 17  1  0
 17 18  1  0
 18 19  2  0
 19 20  1  0
 20 21  2  0
 21 22  1  0
 22 23  2  0
 17 24  1  0
 24 25  1  0
  2 26  1  0
 26 27  2  0
 27 28  1  0
 28 29  2  0
 29 30  1  0
 30 31  2  0
 31 32  1  0
 32 33  2  0
 33 34  1  0
 34 35  2  0
 11  7  1  0
 25 14  1  0
 35 26  1  0
 23 18  1  0
 34 29  1  0
  3 36  1  0
  4 37  1  0
  4 38  1  0
  8 39  1  0
  8 40  1  0
  9 41  1  0
  9 42  1  0
 10 43  1  0
 10 44  1  0
 11 45  1  6
 15 46  1  0
 15 47  1  0
 16 48  1  0
 16 49  1  0
 17 50  1  0
 19 51  1  0
 20 52  1  0
 21 53  1  0
 22 54  1  0
 23 55  1  0
 24 56  1  0
 24 57  1  0
 25 58  1  0
 25 59  1  0
 27 60  1  0
 28 61  1  0
 30 62  1  0
 31 63  1  0
 32 64  1  0
 33 65  1  0
M  END
>  <smiles>  (28) 
O=C(NCC(=O)N1CCCC1C(=O)N1CCC(c2ccccc2)CC1)c1ccc2ccccc2n1

>  <score_type>  (28) 
oracle

>  <origin>  (28) 
autodockgpu

>  <m_score__min__energy>  (28) 
-9.2699999999999996

>  <m_primary>  (28) 
energy

>  <rmsd>  (28) 
2.8749129599021845

>  <m_score__min__rmsd>  (28) 
2.8749129599021845

>  <meeko>  (28) 
{"free_energy": -8.55, "intermolecular_energy": -10.34, "internal_energy": -1.94, "cluster_size": 15, "cluster_id": 3, "rank_in_cluster": 12}

>  <energy>  (28) 
-8.16

>  <cluster_rmsd>  (28) 
1.63

>  <cluster>  (28) 
3

$$$$

     RDKit          3D

 65 69  0  0  1  0  0  0  0  0999 V2000
  138.4270   68.5230  221.9850 O   0  0  0  0  0  0  0  0  0  0  0  0
  138.8240   69.6120  222.4880 C   0  0  0  0  0  0  0  0  0  0  0  0
  138.8520   70.7790  221.6720 N   0  0  0  0  0  0  0  0  0  0  0  0
  138.4030   70.5960  220.2890 C   0  0  0  0  0  0  0  0  0  0  0  0
  139.4930   70.7620  219.3340 C   0  0  0  0  0  0  0  0  0  0  0  0
  139.5110   70.2390  218.1810 O   0  0  0  0  0  0  0  0  0  0  0  0
  140.6250   71.5580  219.6800 N   0  0  0  0  0  0  0  0  0  0  0  0
  141.8130   71.1380  220.4490 C   0  0  0  0  0  0  0  0  0  0  0  0
  142.9250   71.7390  219.5850 C   0  0  0  0  0  0  0  0  0  0  0  0
  142.3140   72.8930  218.8500 C   0  0  0  0  0  0  0  0  0  0  0  0
  140.8750   72.9270  219.3470 C   0  0  2  0  0  0  0  0  0  0  0  0
  140.7230   73.8200  220.4960 C   0  0  0  0  0  0  0  0  0  0  0  0
  140.0180   73.2910  221.4630 O   0  0  0  0  0  0  0  0  0  0  0  0
  141.1910   75.1090  220.7370 N   0  0  0  0  0  0  0  0  0  0  0  0
  142.0140   75.9390  219.9020 C   0  0  0  0  0  0  0  0  0  0  0  0
  142.2430   77.3260  220.4640 C   0  0  0  0  0  0  0  0  0  0  0  0
  140.9680   77.9690  220.9460 C   0  0  0  0  0  0  0  0  0  0  0  0
  141.2350   79.2250  221.6830 C   0  0  0  0  0  0  0  0  0  0  0  0
  140.9700   80.4500  221.1300 C   0  0  0  0  0  0  0  0  0  0  0  0
  141.2140   81.6290  221.8090 C   0  0  0  0  0  0  0  0  0  0  0  0
  141.7390   81.6200  223.0840 C   0  0  0  0  0  0  0  0  0  0  0  0
  142.0130   80.4020  223.6610 C   0  0  0  0  0  0  0  0  0  0  0  0
  141.7670   79.2330  222.9770 C   0  0  0  0  0  0  0  0  0  0  0  0
  140.0910   76.9980  221.6920 C   0  0  0  0  0  0  0  0  0  0  0  0
  140.8070   75.7220  222.0350 C   0  0  0  0  0  0  0  0  0  0  0  0
  139.2460   69.6580  223.8880 C   0  0  0  0  0  0  0  0  0  0  0  0
  138.9530   68.5990  224.7220 C   0  0  0  0  0  0  0  0  0  0  0  0
  139.3500   68.6370  226.0490 C   0  0  0  0  0  0  0  0  0  0  0  0
  140.0470   69.7300  226.5720 C   0  0  0  0  0  0  0  0  0  0  0  0
  140.4460   69.7710  227.8970 C   0  0  0  0  0  0  0  0  0  0  0  0
  141.1360   70.8850  228.3550 C   0  0  0  0  0  0  0  0  0  0  0  0
  141.4010   71.9150  227.4750 C   0  0  0  0  0  0  0  0  0  0  0  0
  141.0130   71.8960  226.1540 C   0  0  0  0  0  0  0  0  0  0  0  0
  140.3190   70.7710  225.6940 C   0  0  0  0  0  0  0  0  0  0  0  0
  139.9190   70.7020  224.4130 N   0  0  0  0  0  0  0  0  0  0  0  0
  139.1730   71.6950  222.0430 H   0  0  0  0  0  0  0  0  0  0  0  0
  137.9879   69.5830  220.1815 H   0  0  0  0  0  0  0  0  0  0  0  0
  137.6435   71.3622  220.0742 H   0  0  0  0  0  0  0  0  0  0  0  0
  141.8118   71.5624  221.4638 H   0  0  0  0  0  0  0  0  0  0  0  0
  141.8942   70.0536  220.6150 H   0  0  0  0  0  0  0  0  0  0  0  0
  143.7531   72.0878  220.2195 H   0  0  0  0  0  0  0  0  0  0  0  0
  143.3340   70.9937  218.8870 H   0  0  0  0  0  0  0  0  0  0  0  0
  142.8340   73.8312  219.0938 H   0  0  0  0  0  0  0  0  0  0  0  0
  142.3818   72.7825  217.7577 H   0  0  0  0  0  0  0  0  0  0  0  0
  140.1625   73.3212  218.6075 H   0  0  0  0  0  0  0  0  0  0  0  0
  142.9907   75.4482  219.7784 H   0  0  0  0  0  0  0  0  0  0  0  0
  141.4836   76.0617  218.9461 H   0  0  0  0  0  0  0  0  0  0  0  0
  142.9433   77.2534  221.3092 H   0  0  0  0  0  0  0  0  0  0  0  0
  142.6494   77.9521  219.6560 H   0  0  0  0  0  0  0  0  0  0  0  0
  140.3843   78.2621  220.0609 H   0  0  0  0  0  0  0  0  0  0  0  0
  140.5501   80.4968  220.1144 H   0  0  0  0  0  0  0  0  0  0  0  0
  140.9857   82.5898  221.3245 H   0  0  0  0  0  0  0  0  0  0  0  0
  141.9328   82.5588  223.6235 H   0  0  0  0  0  0  0  0  0  0  0  0
  142.4321   80.3616  224.6772 H   0  0  0  0  0  0  0  0  0  0  0  0
  141.9962   78.2736  223.4638 H   0  0  0  0  0  0  0  0  0  0  0  0
  139.7515   77.4735  222.6240 H   0  0  0  0  0  0  0  0  0  0  0  0
  139.2450   76.7410  221.0376 H   0  0  0  0  0  0  0  0  0  0  0  0
  141.7025   75.9357  222.6370 H   0  0  0  0  0  0  0  0  0  0  0  0
  140.1703   75.0483  222.6272 H   0  0  0  0  0  0  0  0  0  0  0  0
  138.4058   67.7269  224.3347 H   0  0  0  0  0  0  0  0  0  0  0  0
  139.1112   67.7876  226.7059 H   0  0  0  0  0  0  0  0  0  0  0  0
  140.2201   68.9350  228.5753 H   0  0  0  0  0  0  0  0  0  0  0  0
  141.4663   70.9460  229.4024 H   0  0  0  0  0  0  0  0  0  0  0  0
  141.9486   72.7934  227.8471 H   0  0  0  0  0  0  0  0  0  0  0  0
  141.2409   72.7370  225.4826 H   0  0  0  0  0  0  0  0  0  0  0  0
  1  2  2  0
  2  3  1  0
  3  4  1  0
  4  5  1  0
  5  6  2  0
  5  7  1  0
  7  8  1  0
  8  9  1  0
  9 10  1  0
 10 11  1  0
 11 12  1  0
 12 13  2  0
 12 14  1  0
 14 15  1  0
 15 16  1  0
 16 17  1  0
 17 18  1  0
 18 19  2  0
 19 20  1  0
 20 21  2  0
 21 22  1  0
 22 23  2  0
 17 24  1  0
 24 25  1  0
  2 26  1  0
 26 27  2  0
 27 28  1  0
 28 29  2  0
 29 30  1  0
 30 31  2  0
 31 32  1  0
 32 33  2  0
 33 34  1  0
 34 35  2  0
 11  7  1  0
 25 14  1  0
 35 26  1  0
 23 18  1  0
 34 29  1  0
  3 36  1  0
  4 37  1  0
  4 38  1  0
  8 39  1  0
  8 40  1  0
  9 41  1  0
  9 42  1  0
 10 43  1  0
 10 44  1  0
 11 45  1  6
 15 46  1  0
 15 47  1  0
 16 48  1  0
 16 49  1  0
 17 50  1  0
 19 51  1  0
 20 52  1  0
 21 53  1  0
 22 54  1  0
 23 55  1  0
 24 56  1  0
 24 57  1  0
 25 58  1  0
 25 59  1  0
 27 60  1  0
 28 61  1  0
 30 62  1  0
 31 63  1  0
 32 64  1  0
 33 65  1  0
M  END
>  <smiles>  (29) 
O=C(NCC(=O)N1CCCC1C(=O)N1CCC(c2ccccc2)CC1)c1ccc2ccccc2n1

>  <score_type>  (29) 
oracle

>  <origin>  (29) 
autodockgpu

>  <m_score__min__energy>  (29) 
-9.2699999999999996

>  <m_primary>  (29) 
energy

>  <rmsd>  (29) 
3.5369651490295984

>  <m_score__min__rmsd>  (29) 
3.5369651490295984

>  <meeko>  (29) 
{"free_energy": -8.38, "intermolecular_energy": -10.17, "internal_energy": -2.79, "cluster_size": 15, "cluster_id": 3, "rank_in_cluster": 14}

>  <energy>  (29) 
-8.93

>  <cluster_rmsd>  (29) 
0.0

>  <cluster>  (29) 
4

$$$$

     RDKit          3D

 65 69  0  0  1  0  0  0  0  0999 V2000
  140.3590   74.5650  222.1170 O   0  0  0  0  0  0  0  0  0  0  0  0
  139.4580   75.4430  221.9910 C   0  0  0  0  0  0  0  0  0  0  0  0
  138.1930   75.0600  221.4630 N   0  0  0  0  0  0  0  0  0  0  0  0
  138.0560   73.6440  221.1090 C   0  0  0  0  0  0  0  0  0  0  0  0
  136.6600   73.2150  221.1020 C   0  0  0  0  0  0  0  0  0  0  0  0
  135.6750   74.0090  221.1350 O   0  0  0  0  0  0  0  0  0  0  0  0
  136.3460   71.8250  221.0520 N   0  0  0  0  0  0  0  0  0  0  0  0
  135.2550   71.1280  221.7610 C   0  0  0  0  0  0  0  0  0  0  0  0
  134.7020   70.2600  220.6270 C   0  0  0  0  0  0  0  0  0  0  0  0
  135.8280   70.0600  219.6590 C   0  0  0  0  0  0  0  0  0  0  0  0
  136.9960   70.8010  220.2940 C   0  0  2  0  0  0  0  0  0  0  0  0
  137.8060   69.9140  221.1300 C   0  0  0  0  0  0  0  0  0  0  0  0
  137.9240   68.7100  220.6330 O   0  0  0  0  0  0  0  0  0  0  0  0
  138.4640   70.1270  222.3390 N   0  0  0  0  0  0  0  0  0  0  0  0
  138.5590   71.3320  223.1140 C   0  0  0  0  0  0  0  0  0  0  0  0
  139.2860   71.1520  224.4300 C   0  0  0  0  0  0  0  0  0  0  0  0
  138.8100   69.9410  225.1890 C   0  0  0  0  0  0  0  0  0  0  0  0
  139.6700   69.6570  226.3590 C   0  0  0  0  0  0  0  0  0  0  0  0
  139.9610   68.3730  226.7400 C   0  0  0  0  0  0  0  0  0  0  0  0
  140.7640   68.0960  227.8310 C   0  0  0  0  0  0  0  0  0  0  0  0
  141.3110   69.1100  228.5870 C   0  0  0  0  0  0  0  0  0  0  0  0
  141.0340   70.4090  228.2250 C   0  0  0  0  0  0  0  0  0  0  0  0
  140.2340   70.6750  227.1370 C   0  0  0  0  0  0  0  0  0  0  0  0
  138.5970   68.7540  224.2860 C   0  0  0  0  0  0  0  0  0  0  0  0
  139.1820   68.9600  222.9170 C   0  0  0  0  0  0  0  0  0  0  0  0
  139.7260   76.8260  222.3850 C   0  0  0  0  0  0  0  0  0  0  0  0
  138.6730   77.6610  222.6960 C   0  0  0  0  0  0  0  0  0  0  0  0
  138.9210   78.9720  223.0700 C   0  0  0  0  0  0  0  0  0  0  0  0
  140.2220   79.4770  223.1410 C   0  0  0  0  0  0  0  0  0  0  0  0
  140.4730   80.7860  223.5140 C   0  0  0  0  0  0  0  0  0  0  0  0
  141.7880   81.2280  223.5660 C   0  0  0  0  0  0  0  0  0  0  0  0
  142.8020   80.3480  223.2430 C   0  0  0  0  0  0  0  0  0  0  0  0
  142.5750   79.0430  222.8680 C   0  0  0  0  0  0  0  0  0  0  0  0
  141.2480   78.6000  222.8180 C   0  0  0  0  0  0  0  0  0  0  0  0
  140.9730   77.3340  222.4600 N   0  0  0  0  0  0  0  0  0  0  0  0
  137.4230   75.7470  221.3400 H   0  0  0  0  0  0  0  0  0  0  0  0
  138.4814   73.4856  220.1070 H   0  0  0  0  0  0  0  0  0  0  0  0
  138.5902   73.0510  221.8660 H   0  0  0  0  0  0  0  0  0  0  0  0
  135.6354   70.5169  222.5928 H   0  0  0  0  0  0  0  0  0  0  0  0
  134.5165   71.7913  222.2351 H   0  0  0  0  0  0  0  0  0  0  0  0
  134.3624   69.2907  221.0209 H   0  0  0  0  0  0  0  0  0  0  0  0
  133.8397   70.7404  220.1416 H   0  0  0  0  0  0  0  0  0  0  0  0
  136.0594   68.9908  219.5440 H   0  0  0  0  0  0  0  0  0  0  0  0
  135.5901   70.4298  218.6507 H   0  0  0  0  0  0  0  0  0  0  0  0
  137.7112   71.2044  219.5621 H   0  0  0  0  0  0  0  0  0  0  0  0
  139.0968   72.0857  222.5201 H   0  0  0  0  0  0  0  0  0  0  0  0
  137.5314   71.6427  223.3536 H   0  0  0  0  0  0  0  0  0  0  0  0
  140.3614   71.0413  224.2270 H   0  0  0  0  0  0  0  0  0  0  0  0
  139.0814   72.0375  225.0496 H   0  0  0  0  0  0  0  0  0  0  0  0
  137.8162   70.1723  225.5998 H   0  0  0  0  0  0  0  0  0  0  0  0
  139.5428   67.5371  226.1600 H   0  0  0  0  0  0  0  0  0  0  0  0
  140.9695   67.0493  228.0998 H   0  0  0  0  0  0  0  0  0  0  0  0
  141.9502   68.8880  229.4543 H   0  0  0  0  0  0  0  0  0  0  0  0
  141.4550   71.2403  228.8095 H   0  0  0  0  0  0  0  0  0  0  0  0
  140.0310   71.7226  226.8699 H   0  0  0  0  0  0  0  0  0  0  0  0
  139.0713   67.8732  224.7434 H   0  0  0  0  0  0  0  0  0  0  0  0
  137.5123   68.6139  224.1683 H   0  0  0  0  0  0  0  0  0  0  0  0
  140.2593   69.1707  222.9889 H   0  0  0  0  0  0  0  0  0  0  0  0
  139.0675   68.0638  222.2896 H   0  0  0  0  0  0  0  0  0  0  0  0
  137.6396   77.2873  222.6473 H   0  0  0  0  0  0  0  0  0  0  0  0
  138.0747   79.6300  223.3166 H   0  0  0  0  0  0  0  0  0  0  0  0
  139.6445   81.4647  223.7650 H   0  0  0  0  0  0  0  0  0  0  0  0
  142.0185   82.2627  223.8598 H   0  0  0  0  0  0  0  0  0  0  0  0
  143.8408   80.7069  223.2875 H   0  0  0  0  0  0  0  0  0  0  0  0
  143.4085   78.3708  222.6161 H   0  0  0  0  0  0  0  0  0  0  0  0
  1  2  2  0
  2  3  1  0
  3  4  1  0
  4  5  1  0
  5  6  2  0
  5  7  1  0
  7  8  1  0
  8  9  1  0
  9 10  1  0
 10 11  1  0
 11 12  1  0
 12 13  2  0
 12 14  1  0
 14 15  1  0
 15 16  1  0
 16 17  1  0
 17 18  1  0
 18 19  2  0
 19 20  1  0
 20 21  2  0
 21 22  1  0
 22 23  2  0
 17 24  1  0
 24 25  1  0
  2 26  1  0
 26 27  2  0
 27 28  1  0
 28 29  2  0
 29 30  1  0
 30 31  2  0
 31 32  1  0
 32 33  2  0
 33 34  1  0
 34 35  2  0
 11  7  1  0
 25 14  1  0
 35 26  1  0
 23 18  1  0
 34 29  1  0
  3 36  1  0
  4 37  1  0
  4 38  1  0
  8 39  1  0
  8 40  1  0
  9 41  1  0
  9 42  1  0
 10 43  1  0
 10 44  1  0
 11 45  1  6
 15 46  1  0
 15 47  1  0
 16 48  1  0
 16 49  1  0
 17 50  1  0
 19 51  1  0
 20 52  1  0
 21 53  1  0
 22 54  1  0
 23 55  1  0
 24 56  1  0
 24 57  1  0
 25 58  1  0
 25 59  1  0
 27 60  1  0
 28 61  1  0
 30 62  1  0
 31 63  1  0
 32 64  1  0
 33 65  1  0
M  END
>  <smiles>  (30) 
O=C(NCC(=O)N1CCCC1C(=O)N1CCC(c2ccccc2)CC1)c1ccc2ccccc2n1

>  <score_type>  (30) 
oracle

>  <origin>  (30) 
autodockgpu

>  <m_score__min__energy>  (30) 
-9.2699999999999996

>  <m_primary>  (30) 
energy

>  <rmsd>  (30) 
9.567237217286344

>  <m_score__min__rmsd>  (30) 
9.567237217286344

>  <meeko>  (30) 
{"free_energy": -8.67, "intermolecular_energy": -10.46, "internal_energy": -2.1, "cluster_size": 3, "cluster_id": 5, "rank_in_cluster": 2}

>  <energy>  (30) 
-8.81

>  <cluster_rmsd>  (30) 
1.9

>  <cluster>  (30) 
4

$$$$

     RDKit          3D

 65 69  0  0  1  0  0  0  0  0999 V2000
  140.6930   74.1350  222.3340 O   0  0  0  0  0  0  0  0  0  0  0  0
  140.2200   75.0110  221.5560 C   0  0  0  0  0  0  0  0  0  0  0  0
  139.1800   74.6430  220.6550 N   0  0  0  0  0  0  0  0  0  0  0  0
  138.7470   73.2450  220.7240 C   0  0  0  0  0  0  0  0  0  0  0  0
  137.2930   73.1250  220.7880 C   0  0  0  0  0  0  0  0  0  0  0  0
  136.4960   74.0960  220.6330 O   0  0  0  0  0  0  0  0  0  0  0  0
  136.6970   71.8540  221.0340 N   0  0  0  0  0  0  0  0  0  0  0  0
  135.6000   71.5460  221.9730 C   0  0  0  0  0  0  0  0  0  0  0  0
  134.7230   70.6560  221.0880 C   0  0  0  0  0  0  0  0  0  0  0  0
  135.6320   70.0520  220.0610 C   0  0  0  0  0  0  0  0  0  0  0  0
  137.0070   70.6000  220.4180 C   0  0  2  0  0  0  0  0  0  0  0  0
  137.7300   69.6990  221.3160 C   0  0  0  0  0  0  0  0  0  0  0  0
  137.6640   68.4470  220.9440 O   0  0  0  0  0  0  0  0  0  0  0  0
  138.4650   69.9390  222.4740 N   0  0  0  0  0  0  0  0  0  0  0  0
  138.7540   71.1910  223.1150 C   0  0  0  0  0  0  0  0  0  0  0  0
  139.5100   71.0440  224.4190 C   0  0  0  0  0  0  0  0  0  0  0  0
  138.9140   69.9910  225.3160 C   0  0  0  0  0  0  0  0  0  0  0  0
  139.7820   69.7100  226.4810 C   0  0  0  0  0  0  0  0  0  0  0  0
  140.3280   70.7210  227.2280 C   0  0  0  0  0  0  0  0  0  0  0  0
  141.1390   70.4710  228.3180 C   0  0  0  0  0  0  0  0  0  0  0  0
  141.4350   69.1810  228.7040 C   0  0  0  0  0  0  0  0  0  0  0  0
  140.8990   68.1480  227.9690 C   0  0  0  0  0  0  0  0  0  0  0  0
  140.0920   68.4070  226.8850 C   0  0  0  0  0  0  0  0  0  0  0  0
  138.5040   68.7610  224.5490 C   0  0  0  0  0  0  0  0  0  0  0  0
  139.0470   68.7480  223.1480 C   0  0  0  0  0  0  0  0  0  0  0  0
  140.7430   76.3770  221.5900 C   0  0  0  0  0  0  0  0  0  0  0  0
  141.0060   77.0340  220.4060 C   0  0  0  0  0  0  0  0  0  0  0  0
  141.5020   78.3280  220.4320 C   0  0  0  0  0  0  0  0  0  0  0  0
  141.7460   78.9920  221.6370 C   0  0  0  0  0  0  0  0  0  0  0  0
  142.2400   80.2850  221.6660 C   0  0  0  0  0  0  0  0  0  0  0  0
  142.4610   80.8900  222.8960 C   0  0  0  0  0  0  0  0  0  0  0  0
  142.1800   80.1830  224.0480 C   0  0  0  0  0  0  0  0  0  0  0  0
  141.6880   78.8980  224.0430 C   0  0  0  0  0  0  0  0  0  0  0  0
  141.4660   78.2900  222.8020 C   0  0  0  0  0  0  0  0  0  0  0  0
  140.9860   77.0360  222.7410 N   0  0  0  0  0  0  0  0  0  0  0  0
  138.7620   75.3290  219.9960 H   0  0  0  0  0  0  0  0  0  0  0  0
  139.1078   72.7169  219.8291 H   0  0  0  0  0  0  0  0  0  0  0  0
  139.1649   72.8048  221.6414 H   0  0  0  0  0  0  0  0  0  0  0  0
  135.9632   71.0061  222.8599 H   0  0  0  0  0  0  0  0  0  0  0  0
  135.0894   72.4271  222.3890 H   0  0  0  0  0  0  0  0  0  0  0  0
  134.2524   69.8656  221.6912 H   0  0  0  0  0  0  0  0  0  0  0  0
  133.9167   71.2357  220.6148 H   0  0  0  0  0  0  0  0  0  0  0  0
  135.6199   68.9540  220.1256 H   0  0  0  0  0  0  0  0  0  0  0  0
  135.3318   70.2994  219.0321 H   0  0  0  0  0  0  0  0  0  0  0  0
  137.6764   70.7064  219.5516 H   0  0  0  0  0  0  0  0  0  0  0  0
  139.3595   71.8014  222.4289 H   0  0  0  0  0  0  0  0  0  0  0  0
  137.7888   71.6620  223.3529 H   0  0  0  0  0  0  0  0  0  0  0  0
  140.5508   70.7679  224.1941 H   0  0  0  0  0  0  0  0  0  0  0  0
  139.4522   72.0061  224.9490 H   0  0  0  0  0  0  0  0  0  0  0  0
  137.9800   70.3952  225.7334 H   0  0  0  0  0  0  0  0  0  0  0  0
  140.1138   71.7638  226.9510 H   0  0  0  0  0  0  0  0  0  0  0  0
  141.5555   71.3151  228.8873 H   0  0  0  0  0  0  0  0  0  0  0  0
  142.0799   68.9833  229.5729 H   0  0  0  0  0  0  0  0  0  0  0  0
  141.1175   67.1073  228.2504 H   0  0  0  0  0  0  0  0  0  0  0  0
  139.6768   67.5613  226.3172 H   0  0  0  0  0  0  0  0  0  0  0  0
  138.8777   67.8733  225.0803 H   0  0  0  0  0  0  0  0  0  0  0  0
  137.4061   68.7601  224.4816 H   0  0  0  0  0  0  0  0  0  0  0  0
  140.1449   68.8150  223.1626 H   0  0  0  0  0  0  0  0  0  0  0  0
  138.7849   67.8181  222.6220 H   0  0  0  0  0  0  0  0  0  0  0  0
  140.8227   76.5326  219.4442 H   0  0  0  0  0  0  0  0  0  0  0  0
  141.7082   78.8439  219.4826 H   0  0  0  0  0  0  0  0  0  0  0  0
  142.4537   80.8236  220.7310 H   0  0  0  0  0  0  0  0  0  0  0  0
  142.8536   81.9160  222.9517 H   0  0  0  0  0  0  0  0  0  0  0  0
  142.3582   80.6710  225.0176 H   0  0  0  0  0  0  0  0  0  0  0  0
  141.4763   78.3665  224.9825 H   0  0  0  0  0  0  0  0  0  0  0  0
  1  2  2  0
  2  3  1  0
  3  4  1  0
  4  5  1  0
  5  6  2  0
  5  7  1  0
  7  8  1  0
  8  9  1  0
  9 10  1  0
 10 11  1  0
 11 12  1  0
 12 13  2  0
 12 14  1  0
 14 15  1  0
 15 16  1  0
 16 17  1  0
 17 18  1  0
 18 19  2  0
 19 20  1  0
 20 21  2  0
 21 22  1  0
 22 23  2  0
 17 24  1  0
 24 25  1  0
  2 26  1  0
 26 27  2  0
 27 28  1  0
 28 29  2  0
 29 30  1  0
 30 31  2  0
 31 32  1  0
 32 33  2  0
 33 34  1  0
 34 35  2  0
 11  7  1  0
 25 14  1  0
 35 26  1  0
 23 18  1  0
 34 29  1  0
  3 36  1  0
  4 37  1  0
  4 38  1  0
  8 39  1  0
  8 40  1  0
  9 41  1  0
  9 42  1  0
 10 43  1  0
 10 44  1  0
 11 45  1  6
 15 46  1  0
 15 47  1  0
 16 48  1  0
 16 49  1  0
 17 50  1  0
 19 51  1  0
 20 52  1  0
 21 53  1  0
 22 54  1  0
 23 55  1  0
 24 56  1  0
 24 57  1  0
 25 58  1  0
 25 59  1  0
 27 60  1  0
 28 61  1  0
 30 62  1  0
 31 63  1  0
 32 64  1  0
 33 65  1  0
M  END
>  <smiles>  (31) 
O=C(NCC(=O)N1CCCC1C(=O)N1CCC(c2ccccc2)CC1)c1ccc2ccccc2n1

>  <score_type>  (31) 
oracle

>  <origin>  (31) 
autodockgpu

>  <m_score__min__energy>  (31) 
-9.2699999999999996

>  <m_primary>  (31) 
energy

>  <rmsd>  (31) 
9.329667474199983

>  <m_score__min__rmsd>  (31) 
9.329667474199983

>  <meeko>  (31) 
{"free_energy": -8.63, "intermolecular_energy": -10.42, "internal_energy": -1.98, "cluster_size": 3, "cluster_id": 5, "rank_in_cluster": 3}

>  <energy>  (31) 
-8.71

>  <cluster_rmsd>  (31) 
1.16

>  <cluster>  (31) 
4

$$$$

     RDKit          3D

 65 69  0  0  1  0  0  0  0  0999 V2000
  140.5360   74.6620  222.0070 O   0  0  0  0  0  0  0  0  0  0  0  0
  139.5900   75.5000  221.9830 C   0  0  0  0  0  0  0  0  0  0  0  0
  138.3080   75.0790  221.5280 N   0  0  0  0  0  0  0  0  0  0  0  0
  138.2090   73.6740  221.1220 C   0  0  0  0  0  0  0  0  0  0  0  0
  136.8220   73.2350  221.0050 C   0  0  0  0  0  0  0  0  0  0  0  0
  135.8240   74.0040  221.1220 O   0  0  0  0  0  0  0  0  0  0  0  0
  136.5320   71.8650  220.7400 N   0  0  0  0  0  0  0  0  0  0  0  0
  135.2520   71.1610  220.9580 C   0  0  0  0  0  0  0  0  0  0  0  0
  135.1320   70.3940  219.6380 C   0  0  0  0  0  0  0  0  0  0  0  0
  136.5280   70.2190  219.1210 C   0  0  0  0  0  0  0  0  0  0  0  0
  137.4000   70.8710  220.1860 C   0  0  2  0  0  0  0  0  0  0  0  0
  137.8470   69.9000  221.1850 C   0  0  0  0  0  0  0  0  0  0  0  0
  137.4370   68.6830  220.9350 O   0  0  0  0  0  0  0  0  0  0  0  0
  138.6230   70.0420  222.3330 N   0  0  0  0  0  0  0  0  0  0  0  0
  139.2490   71.2240  222.8560 C   0  0  0  0  0  0  0  0  0  0  0  0
  139.9390   71.0060  224.1860 C   0  0  0  0  0  0  0  0  0  0  0  0
  139.0770   70.2530  225.1660 C   0  0  0  0  0  0  0  0  0  0  0  0
  139.8360   69.8620  226.3740 C   0  0  0  0  0  0  0  0  0  0  0  0
  140.3780   70.8000  227.2140 C   0  0  0  0  0  0  0  0  0  0  0  0
  141.0890   70.4470  228.3460 C   0  0  0  0  0  0  0  0  0  0  0  0
  141.2830   69.1230  228.6790 C   0  0  0  0  0  0  0  0  0  0  0  0
  140.7490   68.1620  227.8520 C   0  0  0  0  0  0  0  0  0  0  0  0
  140.0430   68.5240  226.7270 C   0  0  0  0  0  0  0  0  0  0  0  0
  138.3410   69.1130  224.5120 C   0  0  0  0  0  0  0  0  0  0  0  0
  138.8550   68.8110  223.1330 C   0  0  0  0  0  0  0  0  0  0  0  0
  139.8240   76.8760  222.4180 C   0  0  0  0  0  0  0  0  0  0  0  0
  138.7480   77.6900  222.7070 C   0  0  0  0  0  0  0  0  0  0  0  0
  138.9630   78.9960  223.1190 C   0  0  0  0  0  0  0  0  0  0  0  0
  140.2540   79.5160  223.2520 C   0  0  0  0  0  0  0  0  0  0  0  0
  140.4720   80.8190  223.6650 C   0  0  0  0  0  0  0  0  0  0  0  0
  141.7780   81.2770  223.7770 C   0  0  0  0  0  0  0  0  0  0  0  0
  142.8150   80.4170  223.4740 C   0  0  0  0  0  0  0  0  0  0  0  0
  142.6210   79.1180  223.0620 C   0  0  0  0  0  0  0  0  0  0  0  0
  141.3040   78.6600  222.9490 C   0  0  0  0  0  0  0  0  0  0  0  0
  141.0600   77.3990  222.5520 N   0  0  0  0  0  0  0  0  0  0  0  0
  137.5010   75.7330  221.4890 H   0  0  0  0  0  0  0  0  0  0  0  0
  138.7040   73.5502  220.1475 H   0  0  0  0  0  0  0  0  0  0  0  0
  138.6950   73.0617  221.8959 H   0  0  0  0  0  0  0  0  0  0  0  0
  135.3038   70.4805  221.8207 H   0  0  0  0  0  0  0  0  0  0  0  0
  134.3995   71.8171  221.1879 H   0  0  0  0  0  0  0  0  0  0  0  0
  134.6641   69.4133  219.8092 H   0  0  0  0  0  0  0  0  0  0  0  0
  134.5051   70.9383  218.9164 H   0  0  0  0  0  0  0  0  0  0  0  0
  136.7742   69.1523  219.0133 H   0  0  0  0  0  0  0  0  0  0  0  0
  136.6700   70.6658  218.1259 H   0  0  0  0  0  0  0  0  0  0  0  0
  138.3341   71.2958  219.7897 H   0  0  0  0  0  0  0  0  0  0  0  0
  139.9974   71.5721  222.1288 H   0  0  0  0  0  0  0  0  0  0  0  0
  138.4525   71.9641  223.0231 H   0  0  0  0  0  0  0  0  0  0  0  0
  140.8621   70.4327  224.0149 H   0  0  0  0  0  0  0  0  0  0  0  0
  140.1517   71.9948  224.6185 H   0  0  0  0  0  0  0  0  0  0  0  0
  138.2924   70.9387  225.5184 H   0  0  0  0  0  0  0  0  0  0  0  0
  140.2431   71.8664  226.9802 H   0  0  0  0  0  0  0  0  0  0  0  0
  141.5063   71.2344  228.9909 H   0  0  0  0  0  0  0  0  0  0  0  0
  141.8485   68.8433  229.5801 H   0  0  0  0  0  0  0  0  0  0  0  0
  140.8871   67.0973  228.0913 H   0  0  0  0  0  0  0  0  0  0  0  0
  139.6274   67.7344  226.0837 H   0  0  0  0  0  0  0  0  0  0  0  0
  138.4566   68.2145  225.1360 H   0  0  0  0  0  0  0  0  0  0  0  0
  137.2853   69.4075  224.4178 H   0  0  0  0  0  0  0  0  0  0  0  0
  139.9286   68.5743  223.1682 H   0  0  0  0  0  0  0  0  0  0  0  0
  138.3446   67.9415  222.6933 H   0  0  0  0  0  0  0  0  0  0  0  0
  137.7226   77.3037  222.6107 H   0  0  0  0  0  0  0  0  0  0  0  0
  138.0988   79.6374  223.3463 H   0  0  0  0  0  0  0  0  0  0  0  0
  139.6251   81.4803  223.9004 H   0  0  0  0  0  0  0  0  0  0  0  0
  141.9831   82.3078  224.1017 H   0  0  0  0  0  0  0  0  0  0  0  0
  143.8464   80.7881  223.5664 H   0  0  0  0  0  0  0  0  0  0  0  0
  143.4729   78.4621  222.8294 H   0  0  0  0  0  0  0  0  0  0  0  0
  1  2  2  0
  2  3  1  0
  3  4  1  0
  4  5  1  0
  5  6  2  0
  5  7  1  0
  7  8  1  0
  8  9  1  0
  9 10  1  0
 10 11  1  0
 11 12  1  0
 12 13  2  0
 12 14  1  0
 14 15  1  0
 15 16  1  0
 16 17  1  0
 17 18  1  0
 18 19  2  0
 19 20  1  0
 20 21  2  0
 21 22  1  0
 22 23  2  0
 17 24  1  0
 24 25  1  0
  2 26  1  0
 26 27  2  0
 27 28  1  0
 28 29  2  0
 29 30  1  0
 30 31  2  0
 31 32  1  0
 32 33  2  0
 33 34  1  0
 34 35  2  0
 11  7  1  0
 25 14  1  0
 35 26  1  0
 23 18  1  0
 34 29  1  0
  3 36  1  0
  4 37  1  0
  4 38  1  0
  8 39  1  0
  8 40  1  0
  9 41  1  0
  9 42  1  0
 10 43  1  0
 10 44  1  0
 11 45  1  6
 15 46  1  0
 15 47  1  0
 16 48  1  0
 16 49  1  0
 17 50  1  0
 19 51  1  0
 20 52  1  0
 21 53  1  0
 22 54  1  0
 23 55  1  0
 24 56  1  0
 24 57  1  0
 25 58  1  0
 25 59  1  0
 27 60  1  0
 28 61  1  0
 30 62  1  0
 31 63  1  0
 32 64  1  0
 33 65  1  0
M  END
>  <smiles>  (32) 
O=C(NCC(=O)N1CCCC1C(=O)N1CCC(c2ccccc2)CC1)c1ccc2ccccc2n1

>  <score_type>  (32) 
oracle

>  <origin>  (32) 
autodockgpu

>  <m_score__min__energy>  (32) 
-9.2699999999999996

>  <m_primary>  (32) 
energy

>  <rmsd>  (32) 
9.244056163999897

>  <m_score__min__rmsd>  (32) 
9.244056163999897

>  <meeko>  (32) 
{"free_energy": -8.81, "intermolecular_energy": -10.6, "internal_energy": -2.12, "cluster_size": 3, "cluster_id": 5, "rank_in_cluster": 1}

>  <energy>  (32) 
-8.45

>  <cluster_rmsd>  (32) 
1.56

>  <cluster>  (32) 
4

$$$$

     RDKit          3D

 65 69  0  0  1  0  0  0  0  0999 V2000
  140.3210   71.1950  221.1690 O   0  0  0  0  0  0  0  0  0  0  0  0
  139.9340   71.8620  222.1700 C   0  0  0  0  0  0  0  0  0  0  0  0
  139.5020   73.2050  221.9780 N   0  0  0  0  0  0  0  0  0  0  0  0
  139.5490   73.6940  220.5970 C   0  0  0  0  0  0  0  0  0  0  0  0
  139.4400   75.1480  220.5280 C   0  0  0  0  0  0  0  0  0  0  0  0
  138.4220   75.8010  220.9020 O   0  0  0  0  0  0  0  0  0  0  0  0
  140.5260   75.9170  220.0160 N   0  0  0  0  0  0  0  0  0  0  0  0
  140.6030   76.6010  218.7100 C   0  0  0  0  0  0  0  0  0  0  0  0
  141.1700   77.9560  219.1430 C   0  0  0  0  0  0  0  0  0  0  0  0
  141.9160   77.7150  220.4200 C   0  0  0  0  0  0  0  0  0  0  0  0
  141.7710   76.2180  220.6550 C   0  0  2  0  0  0  0  0  0  0  0  0
  142.8900   75.4710  220.0790 C   0  0  0  0  0  0  0  0  0  0  0  0
  143.6420   76.2000  219.2960 O   0  0  0  0  0  0  0  0  0  0  0  0
  143.2880   74.1440  220.2200 N   0  0  0  0  0  0  0  0  0  0  0  0
  142.7050   73.1090  221.0270 C   0  0  0  0  0  0  0  0  0  0  0  0
  143.3640   71.7570  220.8480 C   0  0  0  0  0  0  0  0  0  0  0  0
  143.5620   71.4010  219.3980 C   0  0  0  0  0  0  0  0  0  0  0  0
  144.3940   70.1870  219.2430 C   0  0  0  0  0  0  0  0  0  0  0  0
  144.0770   69.0150  219.8790 C   0  0  0  0  0  0  0  0  0  0  0  0
  144.8460   67.8750  219.7410 C   0  0  0  0  0  0  0  0  0  0  0  0
  145.9750   67.8700  218.9490 C   0  0  0  0  0  0  0  0  0  0  0  0
  146.3140   69.0340  218.3000 C   0  0  0  0  0  0  0  0  0  0  0  0
  145.5420   70.1650  218.4430 C   0  0  0  0  0  0  0  0  0  0  0  0
  144.0400   72.5760  218.5860 C   0  0  0  0  0  0  0  0  0  0  0  0
  144.4860   73.7260  219.4450 C   0  0  0  0  0  0  0  0  0  0  0  0
  139.9360   71.2520  223.5000 C   0  0  0  0  0  0  0  0  0  0  0  0
  139.3710   70.0060  223.6770 C   0  0  0  0  0  0  0  0  0  0  0  0
  139.3700   69.4230  224.9340 C   0  0  0  0  0  0  0  0  0  0  0  0
  139.9310   70.0690  226.0390 C   0  0  0  0  0  0  0  0  0  0  0  0
  139.9330   69.4890  227.2960 C   0  0  0  0  0  0  0  0  0  0  0  0
  140.5060   70.1820  228.3530 C   0  0  0  0  0  0  0  0  0  0  0  0
  141.0550   71.4260  228.1170 C   0  0  0  0  0  0  0  0  0  0  0  0
  141.0650   72.0220  226.8760 C   0  0  0  0  0  0  0  0  0  0  0  0
  140.4870   71.3210  225.8110 C   0  0  0  0  0  0  0  0  0  0  0  0
  140.4710   71.8580  224.5790 N   0  0  0  0  0  0  0  0  0  0  0  0
  139.1770   73.7930  222.7710 H   0  0  0  0  0  0  0  0  0  0  0  0
  140.5033   73.3875  220.1440 H   0  0  0  0  0  0  0  0  0  0  0  0
  138.6946   73.2630  220.0546 H   0  0  0  0  0  0  0  0  0  0  0  0
  141.2795   76.0796  218.0169 H   0  0  0  0  0  0  0  0  0  0  0  0
  139.6509   76.6546  218.1618 H   0  0  0  0  0  0  0  0  0  0  0  0
  141.8511   78.3469  218.3727 H   0  0  0  0  0  0  0  0  0  0  0  0
  140.3689   78.6966  219.2833 H   0  0  0  0  0  0  0  0  0  0  0  0
  142.9748   77.9931  220.3126 H   0  0  0  0  0  0  0  0  0  0  0  0
  141.5274   78.3142  221.2566 H   0  0  0  0  0  0  0  0  0  0  0  0
  141.7816   75.9370  221.7185 H   0  0  0  0  0  0  0  0  0  0  0  0
  142.7924   73.4013  222.0838 H   0  0  0  0  0  0  0  0  0  0  0  0
  141.6578   73.0023  220.7077 H   0  0  0  0  0  0  0  0  0  0  0  0
  144.3454   71.7741  221.3445 H   0  0  0  0  0  0  0  0  0  0  0  0
  142.7006   70.9998  221.2912 H   0  0  0  0  0  0  0  0  0  0  0  0
  142.5783   71.1431  218.9787 H   0  0  0  0  0  0  0  0  0  0  0  0
  143.1830   68.9807  220.5190 H   0  0  0  0  0  0  0  0  0  0  0  0
  144.5529   66.9570  220.2713 H   0  0  0  0  0  0  0  0  0  0  0  0
  146.5862   66.9620  218.8397 H   0  0  0  0  0  0  0  0  0  0  0  0
  147.2092   69.0617  217.6614 H   0  0  0  0  0  0  0  0  0  0  0  0
  145.8373   71.0814  217.9110 H   0  0  0  0  0  0  0  0  0  0  0  0
  144.8863   72.2527  217.9621 H   0  0  0  0  0  0  0  0  0  0  0  0
  143.1956   72.9244  217.9731 H   0  0  0  0  0  0  0  0  0  0  0  0
  145.2894   73.4066  220.1251 H   0  0  0  0  0  0  0  0  0  0  0  0
  144.8834   74.5530  218.8383 H   0  0  0  0  0  0  0  0  0  0  0  0
  138.9227   69.4770  222.8230 H   0  0  0  0  0  0  0  0  0  0  0  0
  138.9173   68.4291  225.0651 H   0  0  0  0  0  0  0  0  0  0  0  0
  139.4879   68.4956  227.4543 H   0  0  0  0  0  0  0  0  0  0  0  0
  140.5224   69.7466  229.3630 H   0  0  0  0  0  0  0  0  0  0  0  0
  141.5064   71.9676  228.9613 H   0  0  0  0  0  0  0  0  0  0  0  0
  141.5122   73.0158  226.7263 H   0  0  0  0  0  0  0  0  0  0  0  0
  1  2  2  0
  2  3  1  0
  3  4  1  0
  4  5  1  0
  5  6  2  0
  5  7  1  0
  7  8  1  0
  8  9  1  0
  9 10  1  0
 10 11  1  0
 11 12  1  0
 12 13  2  0
 12 14  1  0
 14 15  1  0
 15 16  1  0
 16 17  1  0
 17 18  1  0
 18 19  2  0
 19 20  1  0
 20 21  2  0
 21 22  1  0
 22 23  2  0
 17 24  1  0
 24 25  1  0
  2 26  1  0
 26 27  2  0
 27 28  1  0
 28 29  2  0
 29 30  1  0
 30 31  2  0
 31 32  1  0
 32 33  2  0
 33 34  1  0
 34 35  2  0
 11  7  1  0
 25 14  1  0
 35 26  1  0
 23 18  1  0
 34 29  1  0
  3 36  1  0
  4 37  1  0
  4 38  1  0
  8 39  1  0
  8 40  1  0
  9 41  1  0
  9 42  1  0
 10 43  1  0
 10 44  1  0
 11 45  1  1
 15 46  1  0
 15 47  1  0
 16 48  1  0
 16 49  1  0
 17 50  1  0
 19 51  1  0
 20 52  1  0
 21 53  1  0
 22 54  1  0
 23 55  1  0
 24 56  1  0
 24 57  1  0
 25 58  1  0
 25 59  1  0
 27 60  1  0
 28 61  1  0
 30 62  1  0
 31 63  1  0
 32 64  1  0
 33 65  1  0
M  END
>  <smiles>  (33) 
O=C(NCC(=O)N1CCCC1C(=O)N1CCC(c2ccccc2)CC1)c1ccc2ccccc2n1

>  <score_type>  (33) 
oracle

>  <origin>  (33) 
autodockgpu

>  <m_score__min__energy>  (33) 
-9.2699999999999996

>  <m_primary>  (33) 
energy

>  <rmsd>  (33) 
6.100919508848878

>  <m_score__min__rmsd>  (33) 
6.100919508848878

>  <meeko>  (33) 
{"free_energy": -8.69, "intermolecular_energy": -10.48, "internal_energy": -2.33, "cluster_size": 6, "cluster_id": 1, "rank_in_cluster": 6}

>  <energy>  (33) 
-8.44

>  <cluster_rmsd>  (33) 
1.55

>  <cluster>  (33) 
4

$$$$

     RDKit          3D

 65 69  0  0  1  0  0  0  0  0999 V2000
  136.5380   76.8540  221.7450 O   0  0  0  0  0  0  0  0  0  0  0  0
  137.6680   76.7250  222.2970 C   0  0  0  0  0  0  0  0  0  0  0  0
  138.1230   75.4190  222.6370 N   0  0  0  0  0  0  0  0  0  0  0  0
  137.2110   74.3220  222.3010 C   0  0  0  0  0  0  0  0  0  0  0  0
  137.9160   73.1810  221.7260 C   0  0  0  0  0  0  0  0  0  0  0  0
  137.3630   72.0810  221.4310 O   0  0  0  0  0  0  0  0  0  0  0  0
  139.3150   73.2720  221.4610 N   0  0  0  0  0  0  0  0  0  0  0  0
  140.4180   72.7330  222.2800 C   0  0  0  0  0  0  0  0  0  0  0  0
  141.2810   72.0920  221.1890 C   0  0  0  0  0  0  0  0  0  0  0  0
  140.9730   72.8260  219.9200 C   0  0  0  0  0  0  0  0  0  0  0  0
  139.9620   73.8830  220.3410 C   0  0  2  0  0  0  0  0  0  0  0  0
  140.6150   75.1450  220.6920 C   0  0  0  0  0  0  0  0  0  0  0  0
  140.8390   75.2640  221.9740 O   0  0  0  0  0  0  0  0  0  0  0  0
  141.0360   76.2180  219.9110 N   0  0  0  0  0  0  0  0  0  0  0  0
  140.9700   76.3770  218.4850 C   0  0  0  0  0  0  0  0  0  0  0  0
  141.4440   77.7310  218.0020 C   0  0  0  0  0  0  0  0  0  0  0  0
  140.8520   78.8650  218.7980 C   0  0  0  0  0  0  0  0  0  0  0  0
  141.4850   80.1590  218.4590 C   0  0  0  0  0  0  0  0  0  0  0  0
  141.2480   81.2880  219.1980 C   0  0  0  0  0  0  0  0  0  0  0  0
  141.8340   82.5020  218.8920 C   0  0  0  0  0  0  0  0  0  0  0  0
  142.6910   82.6270  217.8190 C   0  0  0  0  0  0  0  0  0  0  0  0
  142.9450   81.5080  217.0610 C   0  0  0  0  0  0  0  0  0  0  0  0
  142.3570   80.3030  217.3740 C   0  0  0  0  0  0  0  0  0  0  0  0
  140.8250   78.5670  220.2750 C   0  0  0  0  0  0  0  0  0  0  0  0
  141.6500   77.3630  220.6340 C   0  0  0  0  0  0  0  0  0  0  0  0
  138.4830   77.9070  222.5770 C   0  0  0  0  0  0  0  0  0  0  0  0
  137.9480   79.1630  222.3820 C   0  0  0  0  0  0  0  0  0  0  0  0
  138.7150   80.2870  222.6450 C   0  0  0  0  0  0  0  0  0  0  0  0
  140.0300   80.1810  223.1080 C   0  0  0  0  0  0  0  0  0  0  0  0
  140.7990   81.3010  223.3720 C   0  0  0  0  0  0  0  0  0  0  0  0
  142.0980   81.1290  223.8300 C   0  0  0  0  0  0  0  0  0  0  0  0
  142.5800   79.8470  224.0060 C   0  0  0  0  0  0  0  0  0  0  0  0
  141.8340   78.7200  223.7490 C   0  0  0  0  0  0  0  0  0  0  0  0
  140.5240   78.8960  223.2880 C   0  0  0  0  0  0  0  0  0  0  0  0
  139.7520   77.8270  223.0230 N   0  0  0  0  0  0  0  0  0  0  0  0
  139.0440   75.2650  223.0930 H   0  0  0  0  0  0  0  0  0  0  0  0
  136.6952   73.9961  223.2163 H   0  0  0  0  0  0  0  0  0  0  0  0
  136.4961   74.6923  221.5514 H   0  0  0  0  0  0  0  0  0  0  0  0
  140.9586   73.5308  222.8103 H   0  0  0  0  0  0  0  0  0  0  0  0
  140.1043   72.0475  223.0810 H   0  0  0  0  0  0  0  0  0  0  0  0
  142.3475   72.1944  221.4384 H   0  0  0  0  0  0  0  0  0  0  0  0
  141.0660   71.0177  221.0904 H   0  0  0  0  0  0  0  0  0  0  0  0
  141.8798   73.2941  219.5093 H   0  0  0  0  0  0  0  0  0  0  0  0
  140.5884   72.1633  219.1307 H   0  0  0  0  0  0  0  0  0  0  0  0
  139.2579   74.1605  219.5427 H   0  0  0  0  0  0  0  0  0  0  0  0
  141.5978   75.6028  218.0197 H   0  0  0  0  0  0  0  0  0  0  0  0
  139.9116   76.2859  218.1996 H   0  0  0  0  0  0  0  0  0  0  0  0
  142.5398   77.7731  218.0886 H   0  0  0  0  0  0  0  0  0  0  0  0
  141.1170   77.8478  216.9582 H   0  0  0  0  0  0  0  0  0  0  0  0
  139.7964   78.9649  218.5052 H   0  0  0  0  0  0  0  0  0  0  0  0
  140.5700   81.2265  220.0621 H   0  0  0  0  0  0  0  0  0  0  0  0
  141.6133   83.3819  219.5141 H   0  0  0  0  0  0  0  0  0  0  0  0
  143.1576   83.5931  217.5765 H   0  0  0  0  0  0  0  0  0  0  0  0
  143.6234   81.5762  216.1978 H   0  0  0  0  0  0  0  0  0  0  0  0
  142.5800   79.4245  216.7506 H   0  0  0  0  0  0  0  0  0  0  0  0
  141.2183   79.4390  220.8181 H   0  0  0  0  0  0  0  0  0  0  0  0
  139.7826   78.3535  220.5541 H   0  0  0  0  0  0  0  0  0  0  0  0
  142.6925   77.5038  220.3125 H   0  0  0  0  0  0  0  0  0  0  0  0
  141.6651   77.1932  221.7207 H   0  0  0  0  0  0  0  0  0  0  0  0
  136.9155   79.2724  222.0188 H   0  0  0  0  0  0  0  0  0  0  0  0
  138.2795   81.2845  222.4860 H   0  0  0  0  0  0  0  0  0  0  0  0
  140.3879   82.3101  223.2215 H   0  0  0  0  0  0  0  0  0  0  0  0
  142.7332   81.9999  224.0492 H   0  0  0  0  0  0  0  0  0  0  0  0
  143.6105   79.7207  224.3694 H   0  0  0  0  0  0  0  0  0  0  0  0
  142.2529   77.7143  223.9007 H   0  0  0  0  0  0  0  0  0  0  0  0
  1  2  2  0
  2  3  1  0
  3  4  1  0
  4  5  1  0
  5  6  2  0
  5  7  1  0
  7  8  1  0
  8  9  1  0
  9 10  1  0
 10 11  1  0
 11 12  1  0
 12 13  2  0
 12 14  1  0
 14 15  1  0
 15 16  1  0
 16 17  1  0
 17 18  1  0
 18 19  2  0
 19 20  1  0
 20 21  2  0
 21 22  1  0
 22 23  2  0
 17 24  1  0
 24 25  1  0
  2 26  1  0
 26 27  2  0
 27 28  1  0
 28 29  2  0
 29 30  1  0
 30 31  2  0
 31 32  1  0
 32 33  2  0
 33 34  1  0
 34 35  2  0
 11  7  1  0
 25 14  1  0
 35 26  1  0
 23 18  1  0
 34 29  1  0
  3 36  1  0
  4 37  1  0
  4 38  1  0
  8 39  1  0
  8 40  1  0
  9 41  1  0
  9 42  1  0
 10 43  1  0
 10 44  1  0
 11 45  1  6
 15 46  1  0
 15 47  1  0
 16 48  1  0
 16 49  1  0
 17 50  1  0
 19 51  1  0
 20 52  1  0
 21 53  1  0
 22 54  1  0
 23 55  1  0
 24 56  1  0
 24 57  1  0
 25 58  1  0
 25 59  1  0
 27 60  1  0
 28 61  1  0
 30 62  1  0
 31 63  1  0
 32 64  1  0
 33 65  1  0
M  END
>  <smiles>  (34) 
O=C(NCC(=O)N1CCCC1C(=O)N1CCC(c2ccccc2)CC1)c1ccc2ccccc2n1

>  <score_type>  (34) 
oracle

>  <origin>  (34) 
autodockgpu

>  <m_score__min__energy>  (34) 
-9.2699999999999996

>  <m_primary>  (34) 
energy

>  <rmsd>  (34) 
6.925694307576901

>  <m_score__min__rmsd>  (34) 
6.925694307576901

>  <meeko>  (34) 
{"free_energy": -6.77, "intermolecular_energy": -8.56, "internal_energy": -3.88, "cluster_size": 6, "cluster_id": 7, "rank_in_cluster": 6}

>  <energy>  (34) 
-8.33

>  <cluster_rmsd>  (34) 
2.0

>  <cluster>  (34) 
4

$$$$

     RDKit          3D

 65 69  0  0  1  0  0  0  0  0999 V2000
  139.3560   70.8840  221.5000 O   0  0  0  0  0  0  0  0  0  0  0  0
  139.5020   71.4190  222.6350 C   0  0  0  0  0  0  0  0  0  0  0  0
  139.5410   72.8390  222.7270 N   0  0  0  0  0  0  0  0  0  0  0  0
  139.4030   73.5610  221.4580 C   0  0  0  0  0  0  0  0  0  0  0  0
  140.0230   74.8810  221.5100 C   0  0  0  0  0  0  0  0  0  0  0  0
  139.9500   75.6590  222.5060 O   0  0  0  0  0  0  0  0  0  0  0  0
  140.7670   75.3600  220.3920 N   0  0  0  0  0  0  0  0  0  0  0  0
  140.4470   75.1840  218.9620 C   0  0  0  0  0  0  0  0  0  0  0  0
  140.6930   76.6060  218.4490 C   0  0  0  0  0  0  0  0  0  0  0  0
  141.6720   77.2340  219.3940 C   0  0  0  0  0  0  0  0  0  0  0  0
  141.9720   76.1320  220.4000 C   0  0  2  0  0  0  0  0  0  0  0  0
  143.1420   75.3460  220.0060 C   0  0  0  0  0  0  0  0  0  0  0  0
  144.0630   76.0630  219.4150 O   0  0  0  0  0  0  0  0  0  0  0  0
  143.4410   73.9940  220.1510 N   0  0  0  0  0  0  0  0  0  0  0  0
  142.6670   72.9610  220.7800 C   0  0  0  0  0  0  0  0  0  0  0  0
  143.2800   71.5820  220.6590 C   0  0  0  0  0  0  0  0  0  0  0  0
  143.7320   71.2750  219.2550 C   0  0  0  0  0  0  0  0  0  0  0  0
  144.5180   70.0230  219.1960 C   0  0  0  0  0  0  0  0  0  0  0  0
  145.5940   69.8920  218.3570 C   0  0  0  0  0  0  0  0  0  0  0  0
  146.3370   68.7280  218.2930 C   0  0  0  0  0  0  0  0  0  0  0  0
  146.0220   67.6400  219.0800 C   0  0  0  0  0  0  0  0  0  0  0  0
  144.9460   67.7470  219.9300 C   0  0  0  0  0  0  0  0  0  0  0  0
  144.2130   68.9100  219.9860 C   0  0  0  0  0  0  0  0  0  0  0  0
  144.4120   72.4540  218.6080 C   0  0  0  0  0  0  0  0  0  0  0  0
  144.7420   73.5400  219.5930 C   0  0  0  0  0  0  0  0  0  0  0  0
  139.6270   70.5800  223.8270 C   0  0  0  0  0  0  0  0  0  0  0  0
  139.1740   69.2780  223.7930 C   0  0  0  0  0  0  0  0  0  0  0  0
  139.2900   68.4790  224.9190 C   0  0  0  0  0  0  0  0  0  0  0  0
  139.8600   68.9610  226.1010 C   0  0  0  0  0  0  0  0  0  0  0  0
  139.9790   68.1650  227.2270 C   0  0  0  0  0  0  0  0  0  0  0  0
  140.5540   68.7030  228.3700 C   0  0  0  0  0  0  0  0  0  0  0  0
  140.9890   70.0130  228.3460 C   0  0  0  0  0  0  0  0  0  0  0  0
  140.8810   70.8220  227.2380 C   0  0  0  0  0  0  0  0  0  0  0  0
  140.3010   70.2770  226.0870 C   0  0  0  0  0  0  0  0  0  0  0  0
  140.1730   71.0250  224.9770 N   0  0  0  0  0  0  0  0  0  0  0  0
  139.6610   73.3240  223.6390 H   0  0  0  0  0  0  0  0  0  0  0  0
  139.8835   72.9741  220.6614 H   0  0  0  0  0  0  0  0  0  0  0  0
  138.3297   73.6973  221.2595 H   0  0  0  0  0  0  0  0  0  0  0  0
  141.1176   74.4564  218.4815 H   0  0  0  0  0  0  0  0  0  0  0  0
  139.4399   74.7899  218.7608 H   0  0  0  0  0  0  0  0  0  0  0  0
  141.1114   76.5764  217.4321 H   0  0  0  0  0  0  0  0  0  0  0  0
  139.7565   77.1813  218.4049 H   0  0  0  0  0  0  0  0  0  0  0  0
  142.5864   77.5390  218.8640 H   0  0  0  0  0  0  0  0  0  0  0  0
  141.2776   78.1445  219.8687 H   0  0  0  0  0  0  0  0  0  0  0  0
  142.2284   76.5090  221.4010 H   0  0  0  0  0  0  0  0  0  0  0  0
  142.5666   73.2039  221.8481 H   0  0  0  0  0  0  0  0  0  0  0  0
  141.6961   72.9276  220.2641 H   0  0  0  0  0  0  0  0  0  0  0  0
  144.1489   71.5216  221.3309 H   0  0  0  0  0  0  0  0  0  0  0  0
  142.5080   70.8470  220.9308 H   0  0  0  0  0  0  0  0  0  0  0  0
  142.8343   71.0910  218.6464 H   0  0  0  0  0  0  0  0  0  0  0  0
  145.8750   70.7395  217.7146 H   0  0  0  0  0  0  0  0  0  0  0  0
  147.1924   68.6686  217.6040 H   0  0  0  0  0  0  0  0  0  0  0  0
  146.6138   66.7141  219.0294 H   0  0  0  0  0  0  0  0  0  0  0  0
  144.6693   66.8962  220.5700 H   0  0  0  0  0  0  0  0  0  0  0  0
  143.3579   68.9663  220.6757 H   0  0  0  0  0  0  0  0  0  0  0  0
  145.3447   72.1089  218.1378 H   0  0  0  0  0  0  0  0  0  0  0  0
  143.7170   72.8752  217.8667 H   0  0  0  0  0  0  0  0  0  0  0  0
  145.3856   73.1473  220.3940 H   0  0  0  0  0  0  0  0  0  0  0  0
  145.2865   74.3672  219.1143 H   0  0  0  0  0  0  0  0  0  0  0  0
  138.7219   68.8750  222.8747 H   0  0  0  0  0  0  0  0  0  0  0  0
  138.9253   67.4419  224.8821 H   0  0  0  0  0  0  0  0  0  0  0  0
  139.6240   67.1239  227.2162 H   0  0  0  0  0  0  0  0  0  0  0  0
  140.6614   68.0952  229.2805 H   0  0  0  0  0  0  0  0  0  0  0  0
  141.4439   70.4303  229.2565 H   0  0  0  0  0  0  0  0  0  0  0  0
  141.2386   71.8621  227.2565 H   0  0  0  0  0  0  0  0  0  0  0  0
  1  2  2  0
  2  3  1  0
  3  4  1  0
  4  5  1  0
  5  6  2  0
  5  7  1  0
  7  8  1  0
  8  9  1  0
  9 10  1  0
 10 11  1  0
 11 12  1  0
 12 13  2  0
 12 14  1  0
 14 15  1  0
 15 16  1  0
 16 17  1  0
 17 18  1  0
 18 19  2  0
 19 20  1  0
 20 21  2  0
 21 22  1  0
 22 23  2  0
 17 24  1  0
 24 25  1  0
  2 26  1  0
 26 27  2  0
 27 28  1  0
 28 29  2  0
 29 30  1  0
 30 31  2  0
 31 32  1  0
 32 33  2  0
 33 34  1  0
 34 35  2  0
 11  7  1  0
 25 14  1  0
 35 26  1  0
 23 18  1  0
 34 29  1  0
  3 36  1  0
  4 37  1  0
  4 38  1  0
  8 39  1  0
  8 40  1  0
  9 41  1  0
  9 42  1  0
 10 43  1  0
 10 44  1  0
 11 45  1  1
 15 46  1  0
 15 47  1  0
 16 48  1  0
 16 49  1  0
 17 50  1  0
 19 51  1  0
 20 52  1  0
 21 53  1  0
 22 54  1  0
 23 55  1  0
 24 56  1  0
 24 57  1  0
 25 58  1  0
 25 59  1  0
 27 60  1  0
 28 61  1  0
 30 62  1  0
 31 63  1  0
 32 64  1  0
 33 65  1  0
M  END
>  <smiles>  (35) 
O=C(NCC(=O)N1CCCC1C(=O)N1CCC(c2ccccc2)CC1)c1ccc2ccccc2n1

>  <score_type>  (35) 
oracle

>  <origin>  (35) 
autodockgpu

>  <m_score__min__energy>  (35) 
-9.2699999999999996

>  <m_primary>  (35) 
energy

>  <rmsd>  (35) 
6.009048010575125

>  <m_score__min__rmsd>  (35) 
6.009048010575125

>  <meeko>  (35) 
{"free_energy": -9.01, "intermolecular_energy": -10.8, "internal_energy": -2.39, "cluster_size": 6, "cluster_id": 1, "rank_in_cluster": 3}

>  <energy>  (35) 
-8.31

>  <cluster_rmsd>  (35) 
1.1

>  <cluster>  (35) 
4

$$$$

     RDKit          3D

 65 69  0  0  1  0  0  0  0  0999 V2000
  138.2220   75.6030  222.0640 O   0  0  0  0  0  0  0  0  0  0  0  0
  139.4400   75.9200  222.1760 C   0  0  0  0  0  0  0  0  0  0  0  0
  140.4350   74.9320  221.9280 N   0  0  0  0  0  0  0  0  0  0  0  0
  139.9330   73.6070  221.5540 C   0  0  0  0  0  0  0  0  0  0  0  0
  140.9550   72.5750  221.6980 C   0  0  0  0  0  0  0  0  0  0  0  0
  141.0340   71.7890  222.6880 O   0  0  0  0  0  0  0  0  0  0  0  0
  141.9420   72.4070  220.6830 N   0  0  0  0  0  0  0  0  0  0  0  0
  143.3500   72.0010  220.8600 C   0  0  0  0  0  0  0  0  0  0  0  0
  143.4780   70.9630  219.7420 C   0  0  0  0  0  0  0  0  0  0  0  0
  142.4500   71.3200  218.7120 C   0  0  0  0  0  0  0  0  0  0  0  0
  141.7890   72.5720  219.2700 C   0  0  2  0  0  0  0  0  0  0  0  0
  142.4360   73.7890  218.7750 C   0  0  0  0  0  0  0  0  0  0  0  0
  143.6420   73.5760  218.3180 O   0  0  0  0  0  0  0  0  0  0  0  0
  141.9960   75.1080  218.7050 N   0  0  0  0  0  0  0  0  0  0  0  0
  140.7240   75.6560  219.0850 C   0  0  0  0  0  0  0  0  0  0  0  0
  140.6470   77.1620  218.9490 C   0  0  0  0  0  0  0  0  0  0  0  0
  141.8440   77.8560  219.5450 C   0  0  0  0  0  0  0  0  0  0  0  0
  141.8590   79.2990  219.2160 C   0  0  0  0  0  0  0  0  0  0  0  0
  142.6000   79.7880  218.1720 C   0  0  0  0  0  0  0  0  0  0  0  0
  142.6210   81.1330  217.8550 C   0  0  0  0  0  0  0  0  0  0  0  0
  141.8900   82.0470  218.5840 C   0  0  0  0  0  0  0  0  0  0  0  0
  141.1380   81.5810  219.6370 C   0  0  0  0  0  0  0  0  0  0  0  0
  141.1240   80.2390  219.9460 C   0  0  0  0  0  0  0  0  0  0  0  0
  143.1310   77.1430  219.2210 C   0  0  0  0  0  0  0  0  0  0  0  0
  142.9580   76.0990  218.1540 C   0  0  0  0  0  0  0  0  0  0  0  0
  139.8070   77.2840  222.5560 C   0  0  0  0  0  0  0  0  0  0  0  0
  138.8170   78.2090  222.8110 C   0  0  0  0  0  0  0  0  0  0  0  0
  139.1580   79.5030  223.1710 C   0  0  0  0  0  0  0  0  0  0  0  0
  140.4930   79.9010  223.2840 C   0  0  0  0  0  0  0  0  0  0  0  0
  140.8380   81.1930  223.6450 C   0  0  0  0  0  0  0  0  0  0  0  0
  142.1820   81.5260  223.7390 C   0  0  0  0  0  0  0  0  0  0  0  0
  143.1310   80.5590  223.4710 C   0  0  0  0  0  0  0  0  0  0  0  0
  142.8110   79.2690  223.1110 C   0  0  0  0  0  0  0  0  0  0  0  0
  141.4540   78.9360  223.0160 C   0  0  0  0  0  0  0  0  0  0  0  0
  141.0890   77.6900  222.6700 N   0  0  0  0  0  0  0  0  0  0  0  0
  141.4490   75.1470  222.0090 H   0  0  0  0  0  0  0  0  0  0  0  0
  139.0798   73.3548  222.2009 H   0  0  0  0  0  0  0  0  0  0  0  0
  139.6330   73.6432  220.4963 H   0  0  0  0  0  0  0  0  0  0  0  0
  144.0388   72.8457  220.7119 H   0  0  0  0  0  0  0  0  0  0  0  0
  143.5990   71.6287  221.8647 H   0  0  0  0  0  0  0  0  0  0  0  0
  144.4856   71.0000  219.3023 H   0  0  0  0  0  0  0  0  0  0  0  0
  143.3210   69.9438  220.1249 H   0  0  0  0  0  0  0  0  0  0  0  0
  142.9245   71.5278  217.7416 H   0  0  0  0  0  0  0  0  0  0  0  0
  141.7317   70.5068  218.5312 H   0  0  0  0  0  0  0  0  0  0  0  0
  140.7376   72.6865  218.9675 H   0  0  0  0  0  0  0  0  0  0  0  0
  139.9481   75.2091  218.4460 H   0  0  0  0  0  0  0  0  0  0  0  0
  140.5767   75.4206  220.1494 H   0  0  0  0  0  0  0  0  0  0  0  0
  140.5867   77.4173  217.8807 H   0  0  0  0  0  0  0  0  0  0  0  0
  139.7558   77.5024  219.4966 H   0  0  0  0  0  0  0  0  0  0  0  0
  141.7522   77.8021  220.6398 H   0  0  0  0  0  0  0  0  0  0  0  0
  143.1964   79.0885  217.5678 H   0  0  0  0  0  0  0  0  0  0  0  0
  143.2306   81.4799  217.0076 H   0  0  0  0  0  0  0  0  0  0  0  0
  141.9078   83.1173  218.3308 H   0  0  0  0  0  0  0  0  0  0  0  0
  140.5432   82.2855  220.2369 H   0  0  0  0  0  0  0  0  0  0  0  0
  140.5148   79.8950  220.7948 H   0  0  0  0  0  0  0  0  0  0  0  0
  143.8667   77.8835  218.8740 H   0  0  0  0  0  0  0  0  0  0  0  0
  143.4700   76.6335  220.1351 H   0  0  0  0  0  0  0  0  0  0  0  0
  142.5560   76.5530  217.2362 H   0  0  0  0  0  0  0  0  0  0  0  0
  143.9166   75.6279  217.8910 H   0  0  0  0  0  0  0  0  0  0  0  0
  137.7587   77.9205  222.7289 H   0  0  0  0  0  0  0  0  0  0  0  0
  138.3603   80.2331  223.3723 H   0  0  0  0  0  0  0  0  0  0  0  0
  140.0601   81.9422  223.8536 H   0  0  0  0  0  0  0  0  0  0  0  0
  142.4867   82.5442  224.0225 H   0  0  0  0  0  0  0  0  0  0  0  0
  144.1936   80.8325  223.5489 H   0  0  0  0  0  0  0  0  0  0  0  0
  143.5948   78.5252  222.9050 H   0  0  0  0  0  0  0  0  0  0  0  0
  1  2  2  0
  2  3  1  0
  3  4  1  0
  4  5  1  0
  5  6  2  0
  5  7  1  0
  7  8  1  0
  8  9  1  0
  9 10  1  0
 10 11  1  0
 11 12  1  0
 12 13  2  0
 12 14  1  0
 14 15  1  0
 15 16  1  0
 16 17  1  0
 17 18  1  0
 18 19  2  0
 19 20  1  0
 20 21  2  0
 21 22  1  0
 22 23  2  0
 17 24  1  0
 24 25  1  0
  2 26  1  0
 26 27  2  0
 27 28  1  0
 28 29  2  0
 29 30  1  0
 30 31  2  0
 31 32  1  0
 32 33  2  0
 33 34  1  0
 34 35  2  0
 11  7  1  0
 25 14  1  0
 35 26  1  0
 23 18  1  0
 34 29  1  0
  3 36  1  0
  4 37  1  0
  4 38  1  0
  8 39  1  0
  8 40  1  0
  9 41  1  0
  9 42  1  0
 10 43  1  0
 10 44  1  0
 11 45  1  1
 15 46  1  0
 15 47  1  0
 16 48  1  0
 16 49  1  0
 17 50  1  0
 19 51  1  0
 20 52  1  0
 21 53  1  0
 22 54  1  0
 23 55  1  0
 24 56  1  0
 24 57  1  0
 25 58  1  0
 25 59  1  0
 27 60  1  0
 28 61  1  0
 30 62  1  0
 31 63  1  0
 32 64  1  0
 33 65  1  0
M  END
>  <smiles>  (36) 
O=C(NCC(=O)N1CCCC1C(=O)N1CCC(c2ccccc2)CC1)c1ccc2ccccc2n1

>  <score_type>  (36) 
oracle

>  <origin>  (36) 
autodockgpu

>  <m_score__min__energy>  (36) 
-9.2699999999999996

>  <m_primary>  (36) 
energy

>  <rmsd>  (36) 
7.161389831254488

>  <m_score__min__rmsd>  (36) 
7.161389831254488

>  <meeko>  (36) 
{"free_energy": -7.08, "intermolecular_energy": -8.87, "internal_energy": -3.68, "cluster_size": 6, "cluster_id": 7, "rank_in_cluster": 1}

>  <energy>  (36) 
-8.2

>  <cluster_rmsd>  (36) 
1.61

>  <cluster>  (36) 
4

$$$$

     RDKit          3D

 65 69  0  0  1  0  0  0  0  0999 V2000
  137.3740   70.7400  222.0460 O   0  0  0  0  0  0  0  0  0  0  0  0
  137.5180   71.0360  223.2660 C   0  0  0  0  0  0  0  0  0  0  0  0
  136.8990   72.2160  223.7660 N   0  0  0  0  0  0  0  0  0  0  0  0
  136.1320   72.9930  222.7880 C   0  0  0  0  0  0  0  0  0  0  0  0
  136.2300   74.4290  223.0330 C   0  0  0  0  0  0  0  0  0  0  0  0
  135.9110   74.9840  224.1240 O   0  0  0  0  0  0  0  0  0  0  0  0
  136.7120   75.2920  222.0050 N   0  0  0  0  0  0  0  0  0  0  0  0
  136.8620   74.9790  220.5700 C   0  0  0  0  0  0  0  0  0  0  0  0
  136.2590   76.2420  219.9500 C   0  0  0  0  0  0  0  0  0  0  0  0
  136.4180   77.3320  220.9660 C   0  0  0  0  0  0  0  0  0  0  0  0
  137.1360   76.6530  222.1240 C   0  0  2  0  0  0  0  0  0  0  0  0
  138.5890   76.7980  222.0160 C   0  0  0  0  0  0  0  0  0  0  0  0
  138.9790   78.0460  222.0140 O   0  0  0  0  0  0  0  0  0  0  0  0
  139.6090   75.8540  221.9210 N   0  0  0  0  0  0  0  0  0  0  0  0
  139.5160   74.4220  221.9350 C   0  0  0  0  0  0  0  0  0  0  0  0
  140.8420   73.7250  221.7140 C   0  0  0  0  0  0  0  0  0  0  0  0
  141.6100   74.3040  220.5540 C   0  0  0  0  0  0  0  0  0  0  0  0
  142.9850   73.7630  220.4850 C   0  0  0  0  0  0  0  0  0  0  0  0
  144.0800   74.5870  220.4890 C   0  0  0  0  0  0  0  0  0  0  0  0
  145.3700   74.0940  220.4250 C   0  0  0  0  0  0  0  0  0  0  0  0
  145.6100   72.7380  220.3550 C   0  0  0  0  0  0  0  0  0  0  0  0
  144.5270   71.8890  220.3500 C   0  0  0  0  0  0  0  0  0  0  0  0
  143.2460   72.3900  220.4130 C   0  0  0  0  0  0  0  0  0  0  0  0
  141.5430   75.8090  220.5250 C   0  0  0  0  0  0  0  0  0  0  0  0
  140.9920   76.3850  221.7990 C   0  0  0  0  0  0  0  0  0  0  0  0
  138.3120   70.1700  224.1380 C   0  0  0  0  0  0  0  0  0  0  0  0
  138.4620   68.8370  223.8200 C   0  0  0  0  0  0  0  0  0  0  0  0
  139.2130   68.0120  224.6420 C   0  0  0  0  0  0  0  0  0  0  0  0
  139.8290   68.4990  225.7980 C   0  0  0  0  0  0  0  0  0  0  0  0
  140.5810   67.6790  226.6220 C   0  0  0  0  0  0  0  0  0  0  0  0
  141.1670   68.2230  227.7550 C   0  0  0  0  0  0  0  0  0  0  0  0
  140.9830   69.5650  228.0250 C   0  0  0  0  0  0  0  0  0  0  0  0
  140.2390   70.3990  227.2210 C   0  0  0  0  0  0  0  0  0  0  0  0
  139.6490   69.8470  226.0770 C   0  0  0  0  0  0  0  0  0  0  0  0
  138.9150   70.6200  225.2580 N   0  0  0  0  0  0  0  0  0  0  0  0
  136.9920   72.5010  224.7620 H   0  0  0  0  0  0  0  0  0  0  0  0
  136.5186   72.7772  221.7810 H   0  0  0  0  0  0  0  0  0  0  0  0
  135.0745   72.7041  222.8783 H   0  0  0  0  0  0  0  0  0  0  0  0
  137.9180   74.8522  220.2894 H   0  0  0  0  0  0  0  0  0  0  0  0
  136.3882   74.0386  220.2519 H   0  0  0  0  0  0  0  0  0  0  0  0
  136.7936   76.5037  219.0250 H   0  0  0  0  0  0  0  0  0  0  0  0
  135.2008   76.0915  219.6902 H   0  0  0  0  0  0  0  0  0  0  0  0
  137.0215   78.1582  220.5621 H   0  0  0  0  0  0  0  0  0  0  0  0
  135.4570   77.7759  221.2651 H   0  0  0  0  0  0  0  0  0  0  0  0
  136.8961   77.0877  223.1056 H   0  0  0  0  0  0  0  0  0  0  0  0
  139.1174   74.1092  222.9113 H   0  0  0  0  0  0  0  0  0  0  0  0
  138.8580   74.1339  221.1020 H   0  0  0  0  0  0  0  0  0  0  0  0
  141.4499   73.8254  222.6253 H   0  0  0  0  0  0  0  0  0  0  0  0
  140.6317   72.6702  221.4834 H   0  0  0  0  0  0  0  0  0  0  0  0
  141.1158   73.9764  219.6274 H   0  0  0  0  0  0  0  0  0  0  0  0
  143.9277   75.6750  220.5449 H   0  0  0  0  0  0  0  0  0  0  0  0
  146.2182   74.7944  220.4300 H   0  0  0  0  0  0  0  0  0  0  0  0
  146.6367   72.3465  220.3046 H   0  0  0  0  0  0  0  0  0  0  0  0
  144.6859   70.8019  220.2953 H   0  0  0  0  0  0  0  0  0  0  0  0
  142.3995   71.6876  220.4065 H   0  0  0  0  0  0  0  0  0  0  0  0
  142.5575   76.2044  220.3689 H   0  0  0  0  0  0  0  0  0  0  0  0
  140.8662   76.0978  219.7073 H   0  0  0  0  0  0  0  0  0  0  0  0
  141.6013   76.0668  222.6578 H   0  0  0  0  0  0  0  0  0  0  0  0
  141.0026   77.4848  221.7829 H   0  0  0  0  0  0  0  0  0  0  0  0
  137.9866   68.4292  222.9158 H   0  0  0  0  0  0  0  0  0  0  0  0
  139.3268   66.9501  224.3787 H   0  0  0  0  0  0  0  0  0  0  0  0
  140.7115   66.6135  226.3819 H   0  0  0  0  0  0  0  0  0  0  0  0
  141.7692   67.5953  228.4284 H   0  0  0  0  0  0  0  0  0  0  0  0
  141.4532   69.9875  228.9252 H   0  0  0  0  0  0  0  0  0  0  0  0
  140.1122   71.4632  227.4688 H   0  0  0  0  0  0  0  0  0  0  0  0
  1  2  2  0
  2  3  1  0
  3  4  1  0
  4  5  1  0
  5  6  2  0
  5  7  1  0
  7  8  1  0
  8  9  1  0
  9 10  1  0
 10 11  1  0
 11 12  1  0
 12 13  2  0
 12 14  1  0
 14 15  1  0
 15 16  1  0
 16 17  1  0
 17 18  1  0
 18 19  2  0
 19 20  1  0
 20 21  2  0
 21 22  1  0
 22 23  2  0
 17 24  1  0
 24 25  1  0
  2 26  1  0
 26 27  2  0
 27 28  1  0
 28 29  2  0
 29 30  1  0
 30 31  2  0
 31 32  1  0
 32 33  2  0
 33 34  1  0
 34 35  2  0
 11  7  1  0
 25 14  1  0
 35 26  1  0
 23 18  1  0
 34 29  1  0
  3 36  1  0
  4 37  1  0
  4 38  1  0
  8 39  1  0
  8 40  1  0
  9 41  1  0
  9 42  1  0
 10 43  1  0
 10 44  1  0
 11 45  1  1
 15 46  1  0
 15 47  1  0
 16 48  1  0
 16 49  1  0
 17 50  1  0
 19 51  1  0
 20 52  1  0
 21 53  1  0
 22 54  1  0
 23 55  1  0
 24 56  1  0
 24 57  1  0
 25 58  1  0
 25 59  1  0
 27 60  1  0
 28 61  1  0
 30 62  1  0
 31 63  1  0
 32 64  1  0
 33 65  1  0
M  END
>  <smiles>  (37) 
O=C(NCC(=O)N1CCCC1C(=O)N1CCC(c2ccccc2)CC1)c1ccc2ccccc2n1

>  <score_type>  (37) 
oracle

>  <origin>  (37) 
autodockgpu

>  <m_score__min__energy>  (37) 
-9.2699999999999996

>  <m_primary>  (37) 
energy

>  <rmsd>  (37) 
4.709093333626274

>  <m_score__min__rmsd>  (37) 
4.709093333626274

>  <meeko>  (37) 
{"free_energy": -8.22, "intermolecular_energy": -10.01, "internal_energy": -2.16, "cluster_size": 1, "cluster_id": 6, "rank_in_cluster": 1}

>  <energy>  (37) 
-8.2

>  <cluster_rmsd>  (37) 
1.42

>  <cluster>  (37) 
4

$$$$

     RDKit          3D

 65 69  0  0  1  0  0  0  0  0999 V2000
  141.2780   72.3570  222.3680 O   0  0  0  0  0  0  0  0  0  0  0  0
  140.2570   72.1900  223.0940 C   0  0  0  0  0  0  0  0  0  0  0  0
  139.0300   72.7980  222.7070 N   0  0  0  0  0  0  0  0  0  0  0  0
  139.0720   73.5790  221.4680 C   0  0  0  0  0  0  0  0  0  0  0  0
  139.7940   74.8360  221.6380 C   0  0  0  0  0  0  0  0  0  0  0  0
  141.0510   74.9200  221.7610 O   0  0  0  0  0  0  0  0  0  0  0  0
  139.0760   76.0670  221.6710 N   0  0  0  0  0  0  0  0  0  0  0  0
  139.5420   77.3620  222.2070 C   0  0  0  0  0  0  0  0  0  0  0  0
  139.0990   78.3000  221.0810 C   0  0  0  0  0  0  0  0  0  0  0  0
  137.9510   77.6260  220.3940 C   0  0  0  0  0  0  0  0  0  0  0  0
  137.7600   76.3340  221.1760 C   0  0  2  0  0  0  0  0  0  0  0  0
  136.7800   76.4940  222.2510 C   0  0  0  0  0  0  0  0  0  0  0  0
  136.7060   77.7220  222.6960 O   0  0  0  0  0  0  0  0  0  0  0  0
  135.9270   75.5840  222.8700 N   0  0  0  0  0  0  0  0  0  0  0  0
  135.7430   74.1870  222.5900 C   0  0  0  0  0  0  0  0  0  0  0  0
  134.7870   73.4990  223.5420 C   0  0  0  0  0  0  0  0  0  0  0  0
  135.0720   73.8290  224.9840 C   0  0  0  0  0  0  0  0  0  0  0  0
  134.0070   73.3270  225.8800 C   0  0  0  0  0  0  0  0  0  0  0  0
  133.0520   74.1640  226.3950 C   0  0  0  0  0  0  0  0  0  0  0  0
  132.0520   73.7070  227.2330 C   0  0  0  0  0  0  0  0  0  0  0  0
  131.9730   72.3760  227.5870 C   0  0  0  0  0  0  0  0  0  0  0  0
  132.9210   71.5160  227.0830 C   0  0  0  0  0  0  0  0  0  0  0  0
  133.9130   71.9810  226.2490 C   0  0  0  0  0  0  0  0  0  0  0  0
  135.3960   75.2880  225.1770 C   0  0  0  0  0  0  0  0  0  0  0  0
  135.0730   76.1150  223.9650 C   0  0  0  0  0  0  0  0  0  0  0  0
  140.3510   71.3820  224.3110 C   0  0  0  0  0  0  0  0  0  0  0  0
  141.0220   71.8800  225.4080 C   0  0  0  0  0  0  0  0  0  0  0  0
  141.1140   71.1200  226.5630 C   0  0  0  0  0  0  0  0  0  0  0  0
  140.5390   69.8490  226.6480 C   0  0  0  0  0  0  0  0  0  0  0  0
  140.6290   69.0870  227.8000 C   0  0  0  0  0  0  0  0  0  0  0  0
  140.0360   67.8320  227.8210 C   0  0  0  0  0  0  0  0  0  0  0  0
  139.3780   67.3850  226.6930 C   0  0  0  0  0  0  0  0  0  0  0  0
  139.2770   68.1250  225.5370 C   0  0  0  0  0  0  0  0  0  0  0  0
  139.8750   69.3900  225.5180 C   0  0  0  0  0  0  0  0  0  0  0  0
  139.8040   70.1540  224.4140 N   0  0  0  0  0  0  0  0  0  0  0  0
  138.1650   72.6890  223.2730 H   0  0  0  0  0  0  0  0  0  0  0  0
  139.5730   72.9841  220.6901 H   0  0  0  0  0  0  0  0  0  0  0  0
  138.0371   73.8178  221.1817 H   0  0  0  0  0  0  0  0  0  0  0  0
  139.0501   77.6089  223.1594 H   0  0  0  0  0  0  0  0  0  0  0  0
  140.6154   77.4025  222.4442 H   0  0  0  0  0  0  0  0  0  0  0  0
  138.7790   79.2673  221.4958 H   0  0  0  0  0  0  0  0  0  0  0  0
  139.9230   78.4967  220.3793 H   0  0  0  0  0  0  0  0  0  0  0  0
  137.0461   78.2495  220.4422 H   0  0  0  0  0  0  0  0  0  0  0  0
  138.1423   77.4493  219.3253 H   0  0  0  0  0  0  0  0  0  0  0  0
  137.3584   75.5087  220.5697 H   0  0  0  0  0  0  0  0  0  0  0  0
  135.3489   74.0861  221.5680 H   0  0  0  0  0  0  0  0  0  0  0  0
  136.7229   73.7020  222.7101 H   0  0  0  0  0  0  0  0  0  0  0  0
  133.7614   73.8171  223.3033 H   0  0  0  0  0  0  0  0  0  0  0  0
  134.9132   72.4135  223.4162 H   0  0  0  0  0  0  0  0  0  0  0  0
  135.9847   73.2900  225.2780 H   0  0  0  0  0  0  0  0  0  0  0  0
  133.0820   75.2321  226.1336 H   0  0  0  0  0  0  0  0  0  0  0  0
  131.3073   74.4160  227.6238 H   0  0  0  0  0  0  0  0  0  0  0  0
  131.1758   72.0132  228.2524 H   0  0  0  0  0  0  0  0  0  0  0  0
  132.8863   70.4490  227.3482 H   0  0  0  0  0  0  0  0  0  0  0  0
  134.6567   71.2701  225.8597 H   0  0  0  0  0  0  0  0  0  0  0  0
  134.8138   75.6688  226.0291 H   0  0  0  0  0  0  0  0  0  0  0  0
  136.4781   75.3687  225.3577 H   0  0  0  0  0  0  0  0  0  0  0  0
  134.0092   76.0127  223.7044 H   0  0  0  0  0  0  0  0  0  0  0  0
  135.2628   77.1838  224.1431 H   0  0  0  0  0  0  0  0  0  0  0  0
  141.4830   72.8779  225.3663 H   0  0  0  0  0  0  0  0  0  0  0  0
  141.6516   71.5261  227.4325 H   0  0  0  0  0  0  0  0  0  0  0  0
  141.1612   69.4692  228.6836 H   0  0  0  0  0  0  0  0  0  0  0  0
  140.0896   67.2037  228.7223 H   0  0  0  0  0  0  0  0  0  0  0  0
  138.9118   66.3890  226.7192 H   0  0  0  0  0  0  0  0  0  0  0  0
  138.7440   67.7351  224.6573 H   0  0  0  0  0  0  0  0  0  0  0  0
  1  2  2  0
  2  3  1  0
  3  4  1  0
  4  5  1  0
  5  6  2  0
  5  7  1  0
  7  8  1  0
  8  9  1  0
  9 10  1  0
 10 11  1  0
 11 12  1  0
 12 13  2  0
 12 14  1  0
 14 15  1  0
 15 16  1  0
 16 17  1  0
 17 18  1  0
 18 19  2  0
 19 20  1  0
 20 21  2  0
 21 22  1  0
 22 23  2  0
 17 24  1  0
 24 25  1  0
  2 26  1  0
 26 27  2  0
 27 28  1  0
 28 29  2  0
 29 30  1  0
 30 31  2  0
 31 32  1  0
 32 33  2  0
 33 34  1  0
 34 35  2  0
 11  7  1  0
 25 14  1  0
 35 26  1  0
 23 18  1  0
 34 29  1  0
  3 36  1  0
  4 37  1  0
  4 38  1  0
  8 39  1  0
  8 40  1  0
  9 41  1  0
  9 42  1  0
 10 43  1  0
 10 44  1  0
 11 45  1  6
 15 46  1  0
 15 47  1  0
 16 48  1  0
 16 49  1  0
 17 50  1  0
 19 51  1  0
 20 52  1  0
 21 53  1  0
 22 54  1  0
 23 55  1  0
 24 56  1  0
 24 57  1  0
 25 58  1  0
 25 59  1  0
 27 60  1  0
 28 61  1  0
 30 62  1  0
 31 63  1  0
 32 64  1  0
 33 65  1  0
M  END
>  <smiles>  (38) 
O=C(NCC(=O)N1CCCC1C(=O)N1CCC(c2ccccc2)CC1)c1ccc2ccccc2n1

>  <score_type>  (38) 
oracle

>  <origin>  (38) 
autodockgpu

>  <m_score__min__energy>  (38) 
-9.2699999999999996

>  <m_primary>  (38) 
energy

>  <rmsd>  (38) 
6.32361668201768

>  <m_score__min__rmsd>  (38) 
6.32361668201768

>  <meeko>  (38) 
{"free_energy": -8.96, "intermolecular_energy": -10.75, "internal_energy": -1.87, "cluster_size": 7, "cluster_id": 2, "rank_in_cluster": 4}

>  <energy>  (38) 
-8.1

>  <cluster_rmsd>  (38) 
1.62

>  <cluster>  (38) 
4

$$$$

     RDKit          3D

 65 69  0  0  1  0  0  0  0  0999 V2000
  138.9750   75.1350  221.8800 O   0  0  0  0  0  0  0  0  0  0  0  0
  140.1180   75.6560  222.0140 C   0  0  0  0  0  0  0  0  0  0  0  0
  141.2720   74.8560  221.7800 N   0  0  0  0  0  0  0  0  0  0  0  0
  141.0110   73.4660  221.3930 C   0  0  0  0  0  0  0  0  0  0  0  0
  141.3420   73.2180  219.9930 C   0  0  0  0  0  0  0  0  0  0  0  0
  140.5960   72.5830  219.1910 O   0  0  0  0  0  0  0  0  0  0  0  0
  142.5690   73.7070  219.4570 N   0  0  0  0  0  0  0  0  0  0  0  0
  143.7510   74.1750  220.2070 C   0  0  0  0  0  0  0  0  0  0  0  0
  144.8660   73.4650  219.4340 C   0  0  0  0  0  0  0  0  0  0  0  0
  144.3370   73.2240  218.0530 C   0  0  0  0  0  0  0  0  0  0  0  0
  142.9420   73.8340  218.0810 C   0  0  2  0  0  0  0  0  0  0  0  0
  142.9540   75.2260  217.6310 C   0  0  0  0  0  0  0  0  0  0  0  0
  143.8230   75.4480  216.6790 O   0  0  0  0  0  0  0  0  0  0  0  0
  142.2110   76.3350  218.0300 N   0  0  0  0  0  0  0  0  0  0  0  0
  141.1650   76.4140  219.0100 C   0  0  0  0  0  0  0  0  0  0  0  0
  140.6530   77.8200  219.2390 C   0  0  0  0  0  0  0  0  0  0  0  0
  141.7680   78.8180  219.4140 C   0  0  0  0  0  0  0  0  0  0  0  0
  141.2610   80.2080  219.4200 C   0  0  0  0  0  0  0  0  0  0  0  0
  141.9810   81.2350  218.8670 C   0  0  0  0  0  0  0  0  0  0  0  0
  141.5180   82.5370  218.8660 C   0  0  0  0  0  0  0  0  0  0  0  0
  140.3000   82.8590  219.4280 C   0  0  0  0  0  0  0  0  0  0  0  0
  139.5590   81.8450  219.9900 C   0  0  0  0  0  0  0  0  0  0  0  0
  140.0290   80.5520  219.9860 C   0  0  0  0  0  0  0  0  0  0  0  0
  142.8950   78.5830  218.4420 C   0  0  0  0  0  0  0  0  0  0  0  0
  142.5230   77.6200  217.3500 C   0  0  0  0  0  0  0  0  0  0  0  0
  140.2390   77.0610  222.4060 C   0  0  0  0  0  0  0  0  0  0  0  0
  139.1000   77.7990  222.6530 C   0  0  0  0  0  0  0  0  0  0  0  0
  139.2090   79.1290  223.0240 C   0  0  0  0  0  0  0  0  0  0  0  0
  140.4530   79.7510  223.1570 C   0  0  0  0  0  0  0  0  0  0  0  0
  140.5650   81.0800  223.5280 C   0  0  0  0  0  0  0  0  0  0  0  0
  141.8300   81.6400  223.6420 C   0  0  0  0  0  0  0  0  0  0  0  0
  142.9350   80.8530  223.3820 C   0  0  0  0  0  0  0  0  0  0  0  0
  142.8470   79.5310  223.0110 C   0  0  0  0  0  0  0  0  0  0  0  0
  141.5700   78.9690  222.8970 C   0  0  0  0  0  0  0  0  0  0  0  0
  141.4290   77.6800  222.5390 N   0  0  0  0  0  0  0  0  0  0  0  0
  142.2320   75.2410  221.8800 H   0  0  0  0  0  0  0  0  0  0  0  0
  141.6182   72.8012  222.0249 H   0  0  0  0  0  0  0  0  0  0  0  0
  139.9369   73.2710  221.5285 H   0  0  0  0  0  0  0  0  0  0  0  0
  143.8560   75.2689  220.1594 H   0  0  0  0  0  0  0  0  0  0  0  0
  143.7278   73.9568  221.2849 H   0  0  0  0  0  0  0  0  0  0  0  0
  145.7634   74.0997  219.3921 H   0  0  0  0  0  0  0  0  0  0  0  0
  145.1506   72.5212  219.9221 H   0  0  0  0  0  0  0  0  0  0  0  0
  144.9665   73.7220  217.3008 H   0  0  0  0  0  0  0  0  0  0  0  0
  144.3273   72.1576  217.7835 H   0  0  0  0  0  0  0  0  0  0  0  0
  142.2322   73.3397  217.4014 H   0  0  0  0  0  0  0  0  0  0  0  0
  140.3250   75.7888  218.6730 H   0  0  0  0  0  0  0  0  0  0  0  0
  141.5897   76.0665  219.9633 H   0  0  0  0  0  0  0  0  0  0  0  0
  140.0442   78.1193  218.3731 H   0  0  0  0  0  0  0  0  0  0  0  0
  140.0612   77.8136  220.1662 H   0  0  0  0  0  0  0  0  0  0  0  0
  142.2081   78.6588  220.4095 H   0  0  0  0  0  0  0  0  0  0  0  0
  142.9573   81.0160  218.4100 H   0  0  0  0  0  0  0  0  0  0  0  0
  142.1302   83.3290  218.4100 H   0  0  0  0  0  0  0  0  0  0  0  0
  139.9321   83.8957  219.4268 H   0  0  0  0  0  0  0  0  0  0  0  0
  138.5835   82.0698  220.4459 H   0  0  0  0  0  0  0  0  0  0  0  0
  139.4152   79.7620  220.4433 H   0  0  0  0  0  0  0  0  0  0  0  0
  143.1726   79.5443  217.9849 H   0  0  0  0  0  0  0  0  0  0  0  0
  143.7334   78.1441  219.0028 H   0  0  0  0  0  0  0  0  0  0  0  0
  141.6431   77.9858  216.8004 H   0  0  0  0  0  0  0  0  0  0  0  0
  143.3369   77.5035  216.6192 H   0  0  0  0  0  0  0  0  0  0  0  0
  138.1085   77.3328  222.5556 H   0  0  0  0  0  0  0  0  0  0  0  0
  138.2948   79.7091  223.2185 H   0  0  0  0  0  0  0  0  0  0  0  0
  139.6667   81.6821  223.7291 H   0  0  0  0  0  0  0  0  0  0  0  0
  141.9505   82.6935  223.9347 H   0  0  0  0  0  0  0  0  0  0  0  0
  143.9334   81.3050  223.4761 H   0  0  0  0  0  0  0  0  0  0  0  0
  143.7500   78.9356  222.8107 H   0  0  0  0  0  0  0  0  0  0  0  0
  1  2  2  0
  2  3  1  0
  3  4  1  0
  4  5  1  0
  5  6  2  0
  5  7  1  0
  7  8  1  0
  8  9  1  0
  9 10  1  0
 10 11  1  0
 11 12  1  0
 12 13  2  0
 12 14  1  0
 14 15  1  0
 15 16  1  0
 16 17  1  0
 17 18  1  0
 18 19  2  0
 19 20  1  0
 20 21  2  0
 21 22  1  0
 22 23  2  0
 17 24  1  0
 24 25  1  0
  2 26  1  0
 26 27  2  0
 27 28  1  0
 28 29  2  0
 29 30  1  0
 30 31  2  0
 31 32  1  0
 32 33  2  0
 33 34  1  0
 34 35  2  0
 11  7  1  0
 25 14  1  0
 35 26  1  0
 23 18  1  0
 34 29  1  0
  3 36  1  0
  4 37  1  0
  4 38  1  0
  8 39  1  0
  8 40  1  0
  9 41  1  0
  9 42  1  0
 10 43  1  0
 10 44  1  0
 11 45  1  6
 15 46  1  0
 15 47  1  0
 16 48  1  0
 16 49  1  0
 17 50  1  0
 19 51  1  0
 20 52  1  0
 21 53  1  0
 22 54  1  0
 23 55  1  0
 24 56  1  0
 24 57  1  0
 25 58  1  0
 25 59  1  0
 27 60  1  0
 28 61  1  0
 30 62  1  0
 31 63  1  0
 32 64  1  0
 33 65  1  0
M  END
>  <smiles>  (39) 
O=C(NCC(=O)N1CCCC1C(=O)N1CCC(c2ccccc2)CC1)c1ccc2ccccc2n1

>  <score_type>  (39) 
oracle

>  <origin>  (39) 
autodockgpu

>  <m_score__min__energy>  (39) 
-9.2699999999999996

>  <m_primary>  (39) 
energy

>  <rmsd>  (39) 
6.964582807952128

>  <m_score__min__rmsd>  (39) 
6.964582807952128

>  <meeko>  (39) 
{"free_energy": -6.94, "intermolecular_energy": -8.73, "internal_energy": -4.08, "cluster_size": 6, "cluster_id": 7, "rank_in_cluster": 3}

>  <energy>  (39) 
-8.04

>  <cluster_rmsd>  (39) 
1.88

>  <cluster>  (39) 
4

$$$$

     RDKit          3D

 65 69  0  0  1  0  0  0  0  0999 V2000
  140.3040   74.3100  222.3250 O   0  0  0  0  0  0  0  0  0  0  0  0
  140.0010   75.2240  221.5070 C   0  0  0  0  0  0  0  0  0  0  0  0
  139.0090   74.9640  220.5200 N   0  0  0  0  0  0  0  0  0  0  0  0
  138.4180   73.6230  220.5530 C   0  0  0  0  0  0  0  0  0  0  0  0
  137.4100   73.4950  221.6010 C   0  0  0  0  0  0  0  0  0  0  0  0
  137.1540   72.4150  222.2090 O   0  0  0  0  0  0  0  0  0  0  0  0
  136.6490   74.6350  221.9950 N   0  0  0  0  0  0  0  0  0  0  0  0
  135.1980   74.8450  221.8230 C   0  0  0  0  0  0  0  0  0  0  0  0
  134.8330   75.3820  223.2100 C   0  0  0  0  0  0  0  0  0  0  0  0
  136.0800   75.9990  223.7670 C   0  0  0  0  0  0  0  0  0  0  0  0
  137.1080   75.8150  222.6590 C   0  0  2  0  0  0  0  0  0  0  0  0
  137.1560   76.9760  221.7690 C   0  0  0  0  0  0  0  0  0  0  0  0
  136.8820   76.6780  220.5260 O   0  0  0  0  0  0  0  0  0  0  0  0
  137.4330   78.3190  222.0120 N   0  0  0  0  0  0  0  0  0  0  0  0
  137.7300   78.9670  223.2590 C   0  0  0  0  0  0  0  0  0  0  0  0
  138.0720   80.4350  223.1140 C   0  0  0  0  0  0  0  0  0  0  0  0
  139.0650   80.6880  222.0100 C   0  0  0  0  0  0  0  0  0  0  0  0
  139.2240   82.1340  221.7390 C   0  0  0  0  0  0  0  0  0  0  0  0
  138.2070   83.0230  221.9730 C   0  0  0  0  0  0  0  0  0  0  0  0
  138.3430   84.3750  221.7250 C   0  0  0  0  0  0  0  0  0  0  0  0
  139.5210   84.8920  221.2260 C   0  0  0  0  0  0  0  0  0  0  0  0
  140.5570   84.0200  220.9830 C   0  0  0  0  0  0  0  0  0  0  0  0
  140.4110   82.6740  221.2330 C   0  0  0  0  0  0  0  0  0  0  0  0
  138.7700   79.8660  220.7820 C   0  0  0  0  0  0  0  0  0  0  0  0
  137.4120   79.2240  220.8320 C   0  0  0  0  0  0  0  0  0  0  0  0
  140.6690   76.5240  221.5840 C   0  0  0  0  0  0  0  0  0  0  0  0
  141.1640   77.1030  220.4350 C   0  0  0  0  0  0  0  0  0  0  0  0
  141.7980   78.3340  220.5020 C   0  0  0  0  0  0  0  0  0  0  0  0
  141.9500   79.0120  221.7150 C   0  0  0  0  0  0  0  0  0  0  0  0
  142.5810   80.2420  221.7860 C   0  0  0  0  0  0  0  0  0  0  0  0
  142.7000   80.8640  223.0210 C   0  0  0  0  0  0  0  0  0  0  0  0
  142.1850   80.2360  224.1380 C   0  0  0  0  0  0  0  0  0  0  0  0
  141.5540   79.0130  224.0910 C   0  0  0  0  0  0  0  0  0  0  0  0
  141.4350   78.3880  222.8440 C   0  0  0  0  0  0  0  0  0  0  0  0
  140.8260   77.1940  222.7440 N   0  0  0  0  0  0  0  0  0  0  0  0
  138.7280   75.6850  219.8250 H   0  0  0  0  0  0  0  0  0  0  0  0
  137.9468   73.4186  219.5803 H   0  0  0  0  0  0  0  0  0  0  0  0
  139.2218   72.9027  220.7651 H   0  0  0  0  0  0  0  0  0  0  0  0
  134.9839   75.5797  221.0328 H   0  0  0  0  0  0  0  0  0  0  0  0
  134.6369   73.9511  221.5130 H   0  0  0  0  0  0  0  0  0  0  0  0
  134.0383   76.1382  223.1281 H   0  0  0  0  0  0  0  0  0  0  0  0
  134.4597   74.5791  223.8627 H   0  0  0  0  0  0  0  0  0  0  0  0
  135.9252   77.0663  223.9836 H   0  0  0  0  0  0  0  0  0  0  0  0
  136.3929   75.5388  224.7158 H   0  0  0  0  0  0  0  0  0  0  0  0
  138.1398   75.7200  223.0283 H   0  0  0  0  0  0  0  0  0  0  0  0
  136.8514   78.8779  223.9149 H   0  0  0  0  0  0  0  0  0  0  0  0
  138.6172   78.4693  223.6774 H   0  0  0  0  0  0  0  0  0  0  0  0
  137.1496   80.9923  222.8937 H   0  0  0  0  0  0  0  0  0  0  0  0
  138.5287   80.7673  224.0579 H   0  0  0  0  0  0  0  0  0  0  0  0
  140.0488   80.3409  222.3589 H   0  0  0  0  0  0  0  0  0  0  0  0
  137.2526   82.6478  222.3708 H   0  0  0  0  0  0  0  0  0  0  0  0
  137.4988   85.0502  221.9285 H   0  0  0  0  0  0  0  0  0  0  0  0
  139.6285   85.9688  221.0285 H   0  0  0  0  0  0  0  0  0  0  0  0
  141.5094   84.4011  220.5859 H   0  0  0  0  0  0  0  0  0  0  0  0
  141.2562   82.0006  221.0279 H   0  0  0  0  0  0  0  0  0  0  0  0
  138.8185   80.5205  219.8993 H   0  0  0  0  0  0  0  0  0  0  0  0
  139.5184   79.0615  220.7304 H   0  0  0  0  0  0  0  0  0  0  0  0
  136.6309   79.9894  220.9505 H   0  0  0  0  0  0  0  0  0  0  0  0
  137.1903   78.6746  219.9052 H   0  0  0  0  0  0  0  0  0  0  0  0
  141.0562   76.5898  219.4680 H   0  0  0  0  0  0  0  0  0  0  0  0
  142.1903   78.7875  219.5798 H   0  0  0  0  0  0  0  0  0  0  0  0
  142.9813   80.7184  220.8789 H   0  0  0  0  0  0  0  0  0  0  0  0
  143.1966   81.8416  223.1087 H   0  0  0  0  0  0  0  0  0  0  0  0
  142.2836   80.7370  225.1123 H   0  0  0  0  0  0  0  0  0  0  0  0
  141.1568   78.5429  225.0027 H   0  0  0  0  0  0  0  0  0  0  0  0
  1  2  2  0
  2  3  1  0
  3  4  1  0
  4  5  1  0
  5  6  2  0
  5  7  1  0
  7  8  1  0
  8  9  1  0
  9 10  1  0
 10 11  1  0
 11 12  1  0
 12 13  2  0
 12 14  1  0
 14 15  1  0
 15 16  1  0
 16 17  1  0
 17 18  1  0
 18 19  2  0
 19 20  1  0
 20 21  2  0
 21 22  1  0
 22 23  2  0
 17 24  1  0
 24 25  1  0
  2 26  1  0
 26 27  2  0
 27 28  1  0
 28 29  2  0
 29 30  1  0
 30 31  2  0
 31 32  1  0
 32 33  2  0
 33 34  1  0
 34 35  2  0
 11  7  1  0
 25 14  1  0
 35 26  1  0
 23 18  1  0
 34 29  1  0
  3 36  1  0
  4 37  1  0
  4 38  1  0
  8 39  1  0
  8 40  1  0
  9 41  1  0
  9 42  1  0
 10 43  1  0
 10 44  1  0
 11 45  1  1
 15 46  1  0
 15 47  1  0
 16 48  1  0
 16 49  1  0
 17 50  1  0
 19 51  1  0
 20 52  1  0
 21 53  1  0
 22 54  1  0
 23 55  1  0
 24 56  1  0
 24 57  1  0
 25 58  1  0
 25 59  1  0
 27 60  1  0
 28 61  1  0
 30 62  1  0
 31 63  1  0
 32 64  1  0
 33 65  1  0
M  END
>  <smiles>  (40) 
O=C(NCC(=O)N1CCCC1C(=O)N1CCC(c2ccccc2)CC1)c1ccc2ccccc2n1

>  <score_type>  (40) 
oracle

>  <origin>  (40) 
autodockgpu

>  <m_score__min__energy>  (40) 
-9.2699999999999996

>  <m_primary>  (40) 
energy

>  <rmsd>  (40) 
6.880098651321368

>  <m_score__min__rmsd>  (40) 
6.880098651321368

>  <meeko>  (40) 
{"free_energy": -6.44, "intermolecular_energy": -8.23, "internal_energy": -4.51, "cluster_size": 1, "cluster_id": 8, "rank_in_cluster": 1}

>  <energy>  (40) 
-8.81

>  <cluster_rmsd>  (40) 
0.0

>  <cluster>  (40) 
5

$$$$

     RDKit          3D

 65 69  0  0  1  0  0  0  0  0999 V2000
  137.8820   68.9760  222.4310 O   0  0  0  0  0  0  0  0  0  0  0  0
  138.6120   69.9120  222.8650 C   0  0  0  0  0  0  0  0  0  0  0  0
  138.8440   71.0460  222.0360 N   0  0  0  0  0  0  0  0  0  0  0  0
  138.1920   71.0150  220.7230 C   0  0  0  0  0  0  0  0  0  0  0  0
  139.1520   71.1500  219.6330 C   0  0  0  0  0  0  0  0  0  0  0  0
  139.0580   70.5420  218.5270 O   0  0  0  0  0  0  0  0  0  0  0  0
  140.2790   72.0120  219.7820 N   0  0  0  0  0  0  0  0  0  0  0  0
  141.6260   71.6490  220.2640 C   0  0  0  0  0  0  0  0  0  0  0  0
  142.4910   72.3650  219.2240 C   0  0  0  0  0  0  0  0  0  0  0  0
  141.6680   73.5010  218.6970 C   0  0  0  0  0  0  0  0  0  0  0  0
  140.3670   73.4080  219.4810 C   0  0  2  0  0  0  0  0  0  0  0  0
  140.4020   74.2390  220.6850 C   0  0  0  0  0  0  0  0  0  0  0  0
  139.7780   73.6970  221.6980 O   0  0  0  0  0  0  0  0  0  0  0  0
  140.9790   75.4810  220.9360 N   0  0  0  0  0  0  0  0  0  0  0  0
  141.7550   76.3090  220.0560 C   0  0  0  0  0  0  0  0  0  0  0  0
  142.1350   77.6450  220.6590 C   0  0  0  0  0  0  0  0  0  0  0  0
  140.9680   78.3330  221.3180 C   0  0  0  0  0  0  0  0  0  0  0  0
  141.3970   79.5240  222.0830 C   0  0  0  0  0  0  0  0  0  0  0  0
  140.9250   80.7760  221.7850 C   0  0  0  0  0  0  0  0  0  0  0  0
  141.3180   81.8960  222.4930 C   0  0  0  0  0  0  0  0  0  0  0  0
  142.2100   81.7990  223.5400 C   0  0  0  0  0  0  0  0  0  0  0  0
  142.6990   80.5520  223.8590 C   0  0  0  0  0  0  0  0  0  0  0  0
  142.3010   79.4430  223.1480 C   0  0  0  0  0  0  0  0  0  0  0  0
  140.1180   77.3720  222.1090 C   0  0  0  0  0  0  0  0  0  0  0  0
  140.7830   76.0380  222.3010 C   0  0  0  0  0  0  0  0  0  0  0  0
  139.2040   69.8170  224.1990 C   0  0  0  0  0  0  0  0  0  0  0  0
  139.2030   68.6070  224.8600 C   0  0  0  0  0  0  0  0  0  0  0  0
  139.7620   68.5110  226.1240 C   0  0  0  0  0  0  0  0  0  0  0  0
  140.3330   69.6190  226.7560 C   0  0  0  0  0  0  0  0  0  0  0  0
  140.8930   69.5270  228.0180 C   0  0  0  0  0  0  0  0  0  0  0  0
  141.4450   70.6650  228.5910 C   0  0  0  0  0  0  0  0  0  0  0  0
  141.4170   71.8500  227.8840 C   0  0  0  0  0  0  0  0  0  0  0  0
  140.8650   71.9650  226.6280 C   0  0  0  0  0  0  0  0  0  0  0  0
  140.3100   70.8160  226.0520 C   0  0  0  0  0  0  0  0  0  0  0  0
  139.7600   70.8740  224.8270 N   0  0  0  0  0  0  0  0  0  0  0  0
  139.4380   71.8390  222.3500 H   0  0  0  0  0  0  0  0  0  0  0  0
  137.6614   70.0578  220.6125 H   0  0  0  0  0  0  0  0  0  0  0  0
  137.4953   71.8645  220.6694 H   0  0  0  0  0  0  0  0  0  0  0  0
  141.8113   72.0299  221.2792 H   0  0  0  0  0  0  0  0  0  0  0  0
  141.8086   70.5676  220.3489 H   0  0  0  0  0  0  0  0  0  0  0  0
  143.4104   72.7467  219.6919 H   0  0  0  0  0  0  0  0  0  0  0  0
  142.7898   71.6813  218.4158 H   0  0  0  0  0  0  0  0  0  0  0  0
  142.1673   74.4638  218.8809 H   0  0  0  0  0  0  0  0  0  0  0  0
  141.5121   73.4421  217.6097 H   0  0  0  0  0  0  0  0  0  0  0  0
  139.4923   73.7790  218.9267 H   0  0  0  0  0  0  0  0  0  0  0  0
  142.6778   75.7701  219.7952 H   0  0  0  0  0  0  0  0  0  0  0  0
  141.1299   76.5186  219.1755 H   0  0  0  0  0  0  0  0  0  0  0  0
  142.9196   77.4817  221.4124 H   0  0  0  0  0  0  0  0  0  0  0  0
  142.4872   78.2924  219.8424 H   0  0  0  0  0  0  0  0  0  0  0  0
  140.3096   78.7131  220.5230 H   0  0  0  0  0  0  0  0  0  0  0  0
  140.2111   80.8929  220.9564 H   0  0  0  0  0  0  0  0  0  0  0  0
  140.9127   82.8806  222.2168 H   0  0  0  0  0  0  0  0  0  0  0  0
  142.5216   82.6909  224.1034 H   0  0  0  0  0  0  0  0  0  0  0  0
  143.4131   80.4414  224.6883 H   0  0  0  0  0  0  0  0  0  0  0  0
  142.7073   78.4594  223.4264 H   0  0  0  0  0  0  0  0  0  0  0  0
  139.9162   77.8109  223.0972 H   0  0  0  0  0  0  0  0  0  0  0  0
  139.1896   77.2040  221.5434 H   0  0  0  0  0  0  0  0  0  0  0  0
  141.7521   76.1626  222.8064 H   0  0  0  0  0  0  0  0  0  0  0  0
  140.1740   75.3691  222.9269 H   0  0  0  0  0  0  0  0  0  0  0  0
  138.7593   67.7197  224.3847 H   0  0  0  0  0  0  0  0  0  0  0  0
  139.7563   67.5406  226.6419 H   0  0  0  0  0  0  0  0  0  0  0  0
  140.9008   68.5687  228.5581 H   0  0  0  0  0  0  0  0  0  0  0  0
  141.8975   70.6227  229.5927 H   0  0  0  0  0  0  0  0  0  0  0  0
  141.8570   72.7459  228.3464 H   0  0  0  0  0  0  0  0  0  0  0  0
  140.8602   72.9272  226.0950 H   0  0  0  0  0  0  0  0  0  0  0  0
  1  2  2  0
  2  3  1  0
  3  4  1  0
  4  5  1  0
  5  6  2  0
  5  7  1  0
  7  8  1  0
  8  9  1  0
  9 10  1  0
 10 11  1  0
 11 12  1  0
 12 13  2  0
 12 14  1  0
 14 15  1  0
 15 16  1  0
 16 17  1  0
 17 18  1  0
 18 19  2  0
 19 20  1  0
 20 21  2  0
 21 22  1  0
 22 23  2  0
 17 24  1  0
 24 25  1  0
  2 26  1  0
 26 27  2  0
 27 28  1  0
 28 29  2  0
 29 30  1  0
 30 31  2  0
 31 32  1  0
 32 33  2  0
 33 34  1  0
 34 35  2  0
 11  7  1  0
 25 14  1  0
 35 26  1  0
 23 18  1  0
 34 29  1  0
  3 36  1  0
  4 37  1  0
  4 38  1  0
  8 39  1  0
  8 40  1  0
  9 41  1  0
  9 42  1  0
 10 43  1  0
 10 44  1  0
 11 45  1  6
 15 46  1  0
 15 47  1  0
 16 48  1  0
 16 49  1  0
 17 50  1  0
 19 51  1  0
 20 52  1  0
 21 53  1  0
 22 54  1  0
 23 55  1  0
 24 56  1  0
 24 57  1  0
 25 58  1  0
 25 59  1  0
 27 60  1  0
 28 61  1  0
 30 62  1  0
 31 63  1  0
 32 64  1  0
 33 65  1  0
M  END
>  <smiles>  (41) 
O=C(NCC(=O)N1CCCC1C(=O)N1CCC(c2ccccc2)CC1)c1ccc2ccccc2n1

>  <score_type>  (41) 
oracle

>  <origin>  (41) 
autodockgpu

>  <m_score__min__energy>  (41) 
-9.2699999999999996

>  <m_primary>  (41) 
energy

>  <rmsd>  (41) 
3.2727736933225327

>  <m_score__min__rmsd>  (41) 
3.2727736933225327

>  <meeko>  (41) 
{"free_energy": -8.45, "intermolecular_energy": -10.24, "internal_energy": -2.65, "cluster_size": 15, "cluster_id": 3, "rank_in_cluster": 13}

>  <energy>  (41) 
-8.67

>  <cluster_rmsd>  (41) 
0.39

>  <cluster>  (41) 
5

$$$$

     RDKit          3D

 65 69  0  0  1  0  0  0  0  0999 V2000
  140.2850   72.9690  222.7330 O   0  0  0  0  0  0  0  0  0  0  0  0
  139.9800   71.7580  222.9260 C   0  0  0  0  0  0  0  0  0  0  0  0
  139.4430   71.0020  221.8460 N   0  0  0  0  0  0  0  0  0  0  0  0
  139.2950   71.7230  220.5790 C   0  0  0  0  0  0  0  0  0  0  0  0
  138.1940   72.6810  220.6220 C   0  0  0  0  0  0  0  0  0  0  0  0
  137.3600   72.7600  221.5700 O   0  0  0  0  0  0  0  0  0  0  0  0
  138.0150   73.6040  219.5490 N   0  0  0  0  0  0  0  0  0  0  0  0
  138.9200   73.8330  218.4050 C   0  0  0  0  0  0  0  0  0  0  0  0
  137.9070   73.8590  217.2570 C   0  0  0  0  0  0  0  0  0  0  0  0
  136.5970   74.2720  217.8560 C   0  0  0  0  0  0  0  0  0  0  0  0
  136.9190   74.4960  219.3270 C   0  0  2  0  0  0  0  0  0  0  0  0
  137.2690   75.8910  219.5960 C   0  0  0  0  0  0  0  0  0  0  0  0
  136.6480   76.7340  218.8120 O   0  0  0  0  0  0  0  0  0  0  0  0
  138.1290   76.4670  220.5280 N   0  0  0  0  0  0  0  0  0  0  0  0
  138.9170   75.8270  221.5430 C   0  0  0  0  0  0  0  0  0  0  0  0
  139.8080   76.7810  222.3110 C   0  0  0  0  0  0  0  0  0  0  0  0
  140.5690   77.7130  221.4050 C   0  0  0  0  0  0  0  0  0  0  0  0
  141.2630   78.7720  222.1700 C   0  0  0  0  0  0  0  0  0  0  0  0
  141.5770   78.6110  223.4940 C   0  0  0  0  0  0  0  0  0  0  0  0
  142.2260   79.5930  224.2190 C   0  0  0  0  0  0  0  0  0  0  0  0
  142.5880   80.7870  223.6330 C   0  0  0  0  0  0  0  0  0  0  0  0
  142.2840   80.9740  222.3040 C   0  0  0  0  0  0  0  0  0  0  0  0
  141.6370   79.9900  221.5910 C   0  0  0  0  0  0  0  0  0  0  0  0
  139.7120   78.2340  220.2800 C   0  0  0  0  0  0  0  0  0  0  0  0
  138.2520   77.9480  220.4890 C   0  0  0  0  0  0  0  0  0  0  0  0
  140.1800   71.1570  224.2450 C   0  0  0  0  0  0  0  0  0  0  0  0
  140.7960   71.8870  225.2390 C   0  0  0  0  0  0  0  0  0  0  0  0
  140.9890   71.3230  226.4900 C   0  0  0  0  0  0  0  0  0  0  0  0
  140.5720   70.0200  226.7750 C   0  0  0  0  0  0  0  0  0  0  0  0
  140.7620   69.4530  228.0240 C   0  0  0  0  0  0  0  0  0  0  0  0
  140.3250   68.1540  228.2440 C   0  0  0  0  0  0  0  0  0  0  0  0
  139.7160   67.4700  227.2110 C   0  0  0  0  0  0  0  0  0  0  0  0
  139.5170   68.0130  225.9610 C   0  0  0  0  0  0  0  0  0  0  0  0
  139.9580   69.3240  225.7420 C   0  0  0  0  0  0  0  0  0  0  0  0
  139.7860   69.9010  224.5410 N   0  0  0  0  0  0  0  0  0  0  0  0
  139.1770   70.0030  221.9590 H   0  0  0  0  0  0  0  0  0  0  0  0
  140.2289   72.2641  220.3668 H   0  0  0  0  0  0  0  0  0  0  0  0
  139.0751   70.9867  219.7919 H   0  0  0  0  0  0  0  0  0  0  0  0
  139.4571   74.7886  218.4957 H   0  0  0  0  0  0  0  0  0  0  0  0
  139.7217   73.0879  218.2953 H   0  0  0  0  0  0  0  0  0  0  0  0
  138.2197   74.5833  216.4904 H   0  0  0  0  0  0  0  0  0  0  0  0
  137.8302   72.8750  216.7714 H   0  0  0  0  0  0  0  0  0  0  0  0
  136.2291   75.1984  217.3908 H   0  0  0  0  0  0  0  0  0  0  0  0
  135.8071   73.5215  217.7050 H   0  0  0  0  0  0  0  0  0  0  0  0
  136.0696   74.3005  219.9981 H   0  0  0  0  0  0  0  0  0  0  0  0
  138.2360   75.3379  222.2550 H   0  0  0  0  0  0  0  0  0  0  0  0
  139.5767   75.1089  221.0340 H   0  0  0  0  0  0  0  0  0  0  0  0
  139.1823   77.3802  222.9888 H   0  0  0  0  0  0  0  0  0  0  0  0
  140.5428   76.1794  222.8661 H   0  0  0  0  0  0  0  0  0  0  0  0
  141.3639   77.1310  220.9157 H   0  0  0  0  0  0  0  0  0  0  0  0
  141.3041   77.6709  223.9958 H   0  0  0  0  0  0  0  0  0  0  0  0
  142.4572   79.4188  225.2802 H   0  0  0  0  0  0  0  0  0  0  0  0
  143.1047   81.5675  224.2108 H   0  0  0  0  0  0  0  0  0  0  0  0
  142.5599   81.9162  221.8079 H   0  0  0  0  0  0  0  0  0  0  0  0
  141.4061   80.1671  220.5302 H   0  0  0  0  0  0  0  0  0  0  0  0
  139.8511   79.3226  220.2056 H   0  0  0  0  0  0  0  0  0  0  0  0
  140.0241   77.7224  219.3576 H   0  0  0  0  0  0  0  0  0  0  0  0
  137.9083   78.3857  221.4378 H   0  0  0  0  0  0  0  0  0  0  0  0
  137.6362   78.3837  219.6884 H   0  0  0  0  0  0  0  0  0  0  0  0
  141.1336   72.9148  225.0396 H   0  0  0  0  0  0  0  0  0  0  0  0
  141.4814   71.9141  227.2762 H   0  0  0  0  0  0  0  0  0  0  0  0
  141.2509   70.0224  228.8282 H   0  0  0  0  0  0  0  0  0  0  0  0
  140.4618   67.6772  229.2258 H   0  0  0  0  0  0  0  0  0  0  0  0
  139.3730   66.4412  227.3952 H   0  0  0  0  0  0  0  0  0  0  0  0
  139.0282   67.4365  225.1618 H   0  0  0  0  0  0  0  0  0  0  0  0
  1  2  2  0
  2  3  1  0
  3  4  1  0
  4  5  1  0
  5  6  2  0
  5  7  1  0
  7  8  1  0
  8  9  1  0
  9 10  1  0
 10 11  1  0
 11 12  1  0
 12 13  2  0
 12 14  1  0
 14 15  1  0
 15 16  1  0
 16 17  1  0
 17 18  1  0
 18 19  2  0
 19 20  1  0
 20 21  2  0
 21 22  1  0
 22 23  2  0
 17 24  1  0
 24 25  1  0
  2 26  1  0
 26 27  2  0
 27 28  1  0
 28 29  2  0
 29 30  1  0
 30 31  2  0
 31 32  1  0
 32 33  2  0
 33 34  1  0
 34 35  2  0
 11  7  1  0
 25 14  1  0
 35 26  1  0
 23 18  1  0
 34 29  1  0
  3 36  1  0
  4 37  1  0
  4 38  1  0
  8 39  1  0
  8 40  1  0
  9 41  1  0
  9 42  1  0
 10 43  1  0
 10 44  1  0
 11 45  1  1
 15 46  1  0
 15 47  1  0
 16 48  1  0
 16 49  1  0
 17 50  1  0
 19 51  1  0
 20 52  1  0
 21 53  1  0
 22 54  1  0
 23 55  1  0
 24 56  1  0
 24 57  1  0
 25 58  1  0
 25 59  1  0
 27 60  1  0
 28 61  1  0
 30 62  1  0
 31 63  1  0
 32 64  1  0
 33 65  1  0
M  END
>  <smiles>  (42) 
O=C(NCC(=O)N1CCCC1C(=O)N1CCC(c2ccccc2)CC1)c1ccc2ccccc2n1

>  <score_type>  (42) 
oracle

>  <origin>  (42) 
autodockgpu

>  <m_score__min__energy>  (42) 
-9.2699999999999996

>  <m_primary>  (42) 
energy

>  <rmsd>  (42) 
3.899243596165816

>  <m_score__min__rmsd>  (42) 
3.899243596165816

>  <meeko>  (42) 
{"free_energy": -8.2, "intermolecular_energy": -9.99, "internal_energy": -2.23, "cluster_size": 11, "cluster_id": 4, "rank_in_cluster": 9}

>  <energy>  (42) 
-8.63

>  <cluster_rmsd>  (42) 
0.99

>  <cluster>  (42) 
5

$$$$

     RDKit          3D

 65 69  0  0  1  0  0  0  0  0999 V2000
  137.8960   68.3080  222.5970 O   0  0  0  0  0  0  0  0  0  0  0  0
  138.6810   69.2630  222.8610 C   0  0  0  0  0  0  0  0  0  0  0  0
  139.0090   70.1890  221.8300 N   0  0  0  0  0  0  0  0  0  0  0  0
  138.3830   69.9370  220.5290 C   0  0  0  0  0  0  0  0  0  0  0  0
  137.1280   70.6670  220.3750 C   0  0  0  0  0  0  0  0  0  0  0  0
  136.0460   70.1400  219.9860 O   0  0  0  0  0  0  0  0  0  0  0  0
  137.0770   72.0600  220.6750 N   0  0  0  0  0  0  0  0  0  0  0  0
  136.3930   73.1170  219.9050 C   0  0  0  0  0  0  0  0  0  0  0  0
  135.7020   73.8790  221.0400 C   0  0  0  0  0  0  0  0  0  0  0  0
  136.5100   73.6230  222.2750 C   0  0  0  0  0  0  0  0  0  0  0  0
  137.6550   72.7430  221.7920 C   0  0  2  0  0  0  0  0  0  0  0  0
  138.8250   73.5390  221.4170 C   0  0  0  0  0  0  0  0  0  0  0  0
  139.7730   72.8250  220.8690 O   0  0  0  0  0  0  0  0  0  0  0  0
  139.0970   74.8990  221.5380 N   0  0  0  0  0  0  0  0  0  0  0  0
  138.2580   75.9440  222.0550 C   0  0  0  0  0  0  0  0  0  0  0  0
  138.9390   77.2950  222.1120 C   0  0  0  0  0  0  0  0  0  0  0  0
  140.3150   77.2220  222.7210 C   0  0  0  0  0  0  0  0  0  0  0  0
  141.0460   78.5000  222.5750 C   0  0  0  0  0  0  0  0  0  0  0  0
  141.1380   79.1380  221.3650 C   0  0  0  0  0  0  0  0  0  0  0  0
  141.8180   80.3320  221.2160 C   0  0  0  0  0  0  0  0  0  0  0  0
  142.4370   80.9370  222.2900 C   0  0  0  0  0  0  0  0  0  0  0  0
  142.3590   80.3150  223.5150 C   0  0  0  0  0  0  0  0  0  0  0  0
  141.6800   79.1260  223.6530 C   0  0  0  0  0  0  0  0  0  0  0  0
  141.0840   76.0190  222.2380 C   0  0  0  0  0  0  0  0  0  0  0  0
  140.4300   75.3530  221.0610 C   0  0  0  0  0  0  0  0  0  0  0  0
  139.2370   69.4010  224.2070 C   0  0  0  0  0  0  0  0  0  0  0  0
  139.1670   68.3380  225.0840 C   0  0  0  0  0  0  0  0  0  0  0  0
  139.6920   68.4630  226.3600 C   0  0  0  0  0  0  0  0  0  0  0  0
  140.2960   69.6480  226.7880 C   0  0  0  0  0  0  0  0  0  0  0  0
  140.8220   69.7760  228.0620 C   0  0  0  0  0  0  0  0  0  0  0  0
  141.4090   70.9800  228.4270 C   0  0  0  0  0  0  0  0  0  0  0  0
  141.4500   72.0090  227.5080 C   0  0  0  0  0  0  0  0  0  0  0  0
  140.9330   71.9050  226.2360 C   0  0  0  0  0  0  0  0  0  0  0  0
  140.3420   70.6900  225.8710 C   0  0  0  0  0  0  0  0  0  0  0  0
  139.8230   70.5350  224.6400 N   0  0  0  0  0  0  0  0  0  0  0  0
  139.6510   70.9880  222.0000 H   0  0  0  0  0  0  0  0  0  0  0  0
  139.0762   70.2509  219.7347 H   0  0  0  0  0  0  0  0  0  0  0  0
  138.1609   68.8618  220.4615 H   0  0  0  0  0  0  0  0  0  0  0  0
  137.1083   73.7537  219.3637 H   0  0  0  0  0  0  0  0  0  0  0  0
  135.7171   72.7496  219.1188 H   0  0  0  0  0  0  0  0  0  0  0  0
  135.6794   74.9558  220.8166 H   0  0  0  0  0  0  0  0  0  0  0  0
  134.6615   73.5459  221.1682 H   0  0  0  0  0  0  0  0  0  0  0  0
  136.8917   74.5655  222.6946 H   0  0  0  0  0  0  0  0  0  0  0  0
  135.9214   73.1498  223.0748 H   0  0  0  0  0  0  0  0  0  0  0  0
  138.0360   72.0545  222.5607 H   0  0  0  0  0  0  0  0  0  0  0  0
  137.3707   76.0286  221.4104 H   0  0  0  0  0  0  0  0  0  0  0  0
  137.9995   75.6690  223.0882 H   0  0  0  0  0  0  0  0  0  0  0  0
  139.0265   77.6894  221.0889 H   0  0  0  0  0  0  0  0  0  0  0  0
  138.3265   77.9516  222.7475 H   0  0  0  0  0  0  0  0  0  0  0  0
  140.1954   77.0719  223.8041 H   0  0  0  0  0  0  0  0  0  0  0  0
  140.6558   78.6857  220.4858 H   0  0  0  0  0  0  0  0  0  0  0  0
  141.8663   80.8074  220.2252 H   0  0  0  0  0  0  0  0  0  0  0  0
  142.9767   81.8880  222.1708 H   0  0  0  0  0  0  0  0  0  0  0  0
  142.8432   80.7718  224.3908 H   0  0  0  0  0  0  0  0  0  0  0  0
  141.6344   78.6520  224.6446 H   0  0  0  0  0  0  0  0  0  0  0  0
  142.0943   76.3405  221.9450 H   0  0  0  0  0  0  0  0  0  0  0  0
  141.1145   75.2894  223.0606 H   0  0  0  0  0  0  0  0  0  0  0  0
  140.3168   76.0668  220.2317 H   0  0  0  0  0  0  0  0  0  0  0  0
  141.0326   74.5123  220.6866 H   0  0  0  0  0  0  0  0  0  0  0  0
  138.6960   67.3945  224.7711 H   0  0  0  0  0  0  0  0  0  0  0  0
  139.6320   67.6099  227.0519 H   0  0  0  0  0  0  0  0  0  0  0  0
  140.7757   68.9380  228.7731 H   0  0  0  0  0  0  0  0  0  0  0  0
  141.8347   71.1118  229.4327 H   0  0  0  0  0  0  0  0  0  0  0  0
  141.9185   72.9585  227.8063 H   0  0  0  0  0  0  0  0  0  0  0  0
  140.9828   72.7479  225.5310 H   0  0  0  0  0  0  0  0  0  0  0  0
  1  2  2  0
  2  3  1  0
  3  4  1  0
  4  5  1  0
  5  6  2  0
  5  7  1  0
  7  8  1  0
  8  9  1  0
  9 10  1  0
 10 11  1  0
 11 12  1  0
 12 13  2  0
 12 14  1  0
 14 15  1  0
 15 16  1  0
 16 17  1  0
 17 18  1  0
 18 19  2  0
 19 20  1  0
 20 21  2  0
 21 22  1  0
 22 23  2  0
 17 24  1  0
 24 25  1  0
  2 26  1  0
 26 27  2  0
 27 28  1  0
 28 29  2  0
 29 30  1  0
 30 31  2  0
 31 32  1  0
 32 33  2  0
 33 34  1  0
 34 35  2  0
 11  7  1  0
 25 14  1  0
 35 26  1  0
 23 18  1  0
 34 29  1  0
  3 36  1  0
  4 37  1  0
  4 38  1  0
  8 39  1  0
  8 40  1  0
  9 41  1  0
  9 42  1  0
 10 43  1  0
 10 44  1  0
 11 45  1  1
 15 46  1  0
 15 47  1  0
 16 48  1  0
 16 49  1  0
 17 50  1  0
 19 51  1  0
 20 52  1  0
 21 53  1  0
 22 54  1  0
 23 55  1  0
 24 56  1  0
 24 57  1  0
 25 58  1  0
 25 59  1  0
 27 60  1  0
 28 61  1  0
 30 62  1  0
 31 63  1  0
 32 64  1  0
 33 65  1  0
M  END
>  <smiles>  (43) 
O=C(NCC(=O)N1CCCC1C(=O)N1CCC(c2ccccc2)CC1)c1ccc2ccccc2n1

>  <score_type>  (43) 
oracle

>  <origin>  (43) 
autodockgpu

>  <m_score__min__energy>  (43) 
-9.2699999999999996

>  <m_primary>  (43) 
energy

>  <rmsd>  (43) 
3.9751953419387984

>  <m_score__min__rmsd>  (43) 
3.9751953419387984

>  <meeko>  (43) 
{"free_energy": -8.33, "intermolecular_energy": -10.12, "internal_energy": -2.64, "cluster_size": 11, "cluster_id": 4, "rank_in_cluster": 6}

>  <energy>  (43) 
-8.22

>  <cluster_rmsd>  (43) 
0.0

>  <cluster>  (43) 
6

$$$$

     RDKit          3D

 65 69  0  0  1  0  0  0  0  0999 V2000
  140.0140   73.4570  222.7200 O   0  0  0  0  0  0  0  0  0  0  0  0
  140.3630   72.2490  222.5960 C   0  0  0  0  0  0  0  0  0  0  0  0
  140.9210   71.8170  221.3590 N   0  0  0  0  0  0  0  0  0  0  0  0
  141.0410   72.8470  220.3230 C   0  0  0  0  0  0  0  0  0  0  0  0
  139.9550   72.7730  219.3510 C   0  0  0  0  0  0  0  0  0  0  0  0
  139.8800   71.9000  218.4380 O   0  0  0  0  0  0  0  0  0  0  0  0
  138.8930   73.7230  219.4010 N   0  0  0  0  0  0  0  0  0  0  0  0
  138.6960   74.8940  218.5240 C   0  0  0  0  0  0  0  0  0  0  0  0
  137.2050   74.7540  218.2090 C   0  0  0  0  0  0  0  0  0  0  0  0
  136.6010   73.9900  219.3480 C   0  0  0  0  0  0  0  0  0  0  0  0
  137.7720   73.7460  220.2900 C   0  0  2  0  0  0  0  0  0  0  0  0
  137.8800   74.8000  221.2990 C   0  0  0  0  0  0  0  0  0  0  0  0
  136.7910   74.9400  222.0100 O   0  0  0  0  0  0  0  0  0  0  0  0
  138.9230   75.6600  221.6320 N   0  0  0  0  0  0  0  0  0  0  0  0
  140.2440   75.7330  221.0740 C   0  0  0  0  0  0  0  0  0  0  0  0
  141.0770   76.8680  221.6310 C   0  0  0  0  0  0  0  0  0  0  0  0
  140.3240   78.1730  221.6610 C   0  0  0  0  0  0  0  0  0  0  0  0
  141.0680   79.2160  222.4010 C   0  0  0  0  0  0  0  0  0  0  0  0
  142.4390   79.2370  222.4260 C   0  0  0  0  0  0  0  0  0  0  0  0
  143.1450   80.2070  223.1130 C   0  0  0  0  0  0  0  0  0  0  0  0
  142.4920   81.2030  223.8080 C   0  0  0  0  0  0  0  0  0  0  0  0
  141.1160   81.2040  223.7980 C   0  0  0  0  0  0  0  0  0  0  0  0
  140.4220   80.2340  223.1110 C   0  0  0  0  0  0  0  0  0  0  0  0
  138.9010   77.9950  222.1220 C   0  0  0  0  0  0  0  0  0  0  0  0
  138.6540   76.6380  222.7190 C   0  0  0  0  0  0  0  0  0  0  0  0
  140.1900   71.3200  223.7120 C   0  0  0  0  0  0  0  0  0  0  0  0
  139.5040   70.1390  223.5150 C   0  0  0  0  0  0  0  0  0  0  0  0
  139.3360   69.2560  224.5690 C   0  0  0  0  0  0  0  0  0  0  0  0
  139.8480   69.5300  225.8400 C   0  0  0  0  0  0  0  0  0  0  0  0
  139.6830   68.6490  226.8950 C   0  0  0  0  0  0  0  0  0  0  0  0
  140.2160   68.9800  228.1340 C   0  0  0  0  0  0  0  0  0  0  0  0
  140.8920   70.1750  228.2730 C   0  0  0  0  0  0  0  0  0  0  0  0
  141.0680   71.0660  227.2380 C   0  0  0  0  0  0  0  0  0  0  0  0
  140.5300   70.7300  225.9900 C   0  0  0  0  0  0  0  0  0  0  0  0
  140.6750   71.5650  224.9460 N   0  0  0  0  0  0  0  0  0  0  0  0
  141.2210   70.8330  221.2100 H   0  0  0  0  0  0  0  0  0  0  0  0
  141.0219   73.8369  220.8023 H   0  0  0  0  0  0  0  0  0  0  0  0
  141.9880   72.6825  219.7880 H   0  0  0  0  0  0  0  0  0  0  0  0
  138.9142   75.8361  219.0483 H   0  0  0  0  0  0  0  0  0  0  0  0
  139.3517   74.9229  217.6413 H   0  0  0  0  0  0  0  0  0  0  0  0
  136.7387   75.7469  218.1274 H   0  0  0  0  0  0  0  0  0  0  0  0
  137.0469   74.2344  217.2524 H   0  0  0  0  0  0  0  0  0  0  0  0
  135.8172   74.5816  219.8436 H   0  0  0  0  0  0  0  0  0  0  0  0
  136.1177   73.0569  219.0228 H   0  0  0  0  0  0  0  0  0  0  0  0
  137.6778   72.8215  220.8785 H   0  0  0  0  0  0  0  0  0  0  0  0
  140.7626   74.7859  221.2838 H   0  0  0  0  0  0  0  0  0  0  0  0
  140.1283   75.9176  219.9958 H   0  0  0  0  0  0  0  0  0  0  0  0
  141.3815   76.6123  222.6566 H   0  0  0  0  0  0  0  0  0  0  0  0
  141.9482   76.9989  220.9724 H   0  0  0  0  0  0  0  0  0  0  0  0
  140.2479   78.5402  220.6269 H   0  0  0  0  0  0  0  0  0  0  0  0
  142.9940   78.4581  221.8827 H   0  0  0  0  0  0  0  0  0  0  0  0
  144.2447   80.1839  223.1051 H   0  0  0  0  0  0  0  0  0  0  0  0
  143.0547   81.9742  224.3545 H   0  0  0  0  0  0  0  0  0  0  0  0
  140.5666   81.9857  224.3431 H   0  0  0  0  0  0  0  0  0  0  0  0
  139.3223   80.2600  223.1204 H   0  0  0  0  0  0  0  0  0  0  0  0
  138.6778   78.7598  222.8804 H   0  0  0  0  0  0  0  0  0  0  0  0
  138.2497   78.0959  221.2413 H   0  0  0  0  0  0  0  0  0  0  0  0
  139.3325   76.4638  223.5671 H   0  0  0  0  0  0  0  0  0  0  0  0
  137.6265   76.5454  223.1006 H   0  0  0  0  0  0  0  0  0  0  0  0
  139.0917   69.8994  222.5237 H   0  0  0  0  0  0  0  0  0  0  0  0
  138.7870   68.3176  224.4016 H   0  0  0  0  0  0  0  0  0  0  0  0
  139.1392   67.7032  226.7544 H   0  0  0  0  0  0  0  0  0  0  0  0
  140.1011   68.3002  228.9912 H   0  0  0  0  0  0  0  0  0  0  0  0
  141.3105   70.4280  229.2583 H   0  0  0  0  0  0  0  0  0  0  0  0
  141.6129   72.0099  227.3868 H   0  0  0  0  0  0  0  0  0  0  0  0
  1  2  2  0
  2  3  1  0
  3  4  1  0
  4  5  1  0
  5  6  2  0
  5  7  1  0
  7  8  1  0
  8  9  1  0
  9 10  1  0
 10 11  1  0
 11 12  1  0
 12 13  2  0
 12 14  1  0
 14 15  1  0
 15 16  1  0
 16 17  1  0
 17 18  1  0
 18 19  2  0
 19 20  1  0
 20 21  2  0
 21 22  1  0
 22 23  2  0
 17 24  1  0
 24 25  1  0
  2 26  1  0
 26 27  2  0
 27 28  1  0
 28 29  2  0
 29 30  1  0
 30 31  2  0
 31 32  1  0
 32 33  2  0
 33 34  1  0
 34 35  2  0
 11  7  1  0
 25 14  1  0
 35 26  1  0
 23 18  1  0
 34 29  1  0
  3 36  1  0
  4 37  1  0
  4 38  1  0
  8 39  1  0
  8 40  1  0
  9 41  1  0
  9 42  1  0
 10 43  1  0
 10 44  1  0
 11 45  1  1
 15 46  1  0
 15 47  1  0
 16 48  1  0
 16 49  1  0
 17 50  1  0
 19 51  1  0
 20 52  1  0
 21 53  1  0
 22 54  1  0
 23 55  1  0
 24 56  1  0
 24 57  1  0
 25 58  1  0
 25 59  1  0
 27 60  1  0
 28 61  1  0
 30 62  1  0
 31 63  1  0
 32 64  1  0
 33 65  1  0
M  END
>  <smiles>  (44) 
O=C(NCC(=O)N1CCCC1C(=O)N1CCC(c2ccccc2)CC1)c1ccc2ccccc2n1

>  <score_type>  (44) 
oracle

>  <origin>  (44) 
autodockgpu

>  <m_score__min__energy>  (44) 
-9.2699999999999996

>  <m_primary>  (44) 
energy

>  <rmsd>  (44) 
3.3843445477151337

>  <m_score__min__rmsd>  (44) 
3.3843445477151337

>  <meeko>  (44) 
{"free_energy": -8.93, "intermolecular_energy": -10.72, "internal_energy": -2.04, "cluster_size": 11, "cluster_id": 4, "rank_in_cluster": 1}

>  <energy>  (44) 
-7.08

>  <cluster_rmsd>  (44) 
0.0

>  <cluster>  (44) 
7

$$$$

     RDKit          3D

 65 69  0  0  1  0  0  0  0  0999 V2000
  137.4350   70.1250  222.4150 O   0  0  0  0  0  0  0  0  0  0  0  0
  138.6410   70.4770  222.5460 C   0  0  0  0  0  0  0  0  0  0  0  0
  139.3630   70.9080  221.3970 N   0  0  0  0  0  0  0  0  0  0  0  0
  138.6110   70.9020  220.1380 C   0  0  0  0  0  0  0  0  0  0  0  0
  139.4880   71.0290  218.9780 C   0  0  0  0  0  0  0  0  0  0  0  0
  139.4010   70.3070  217.9420 O   0  0  0  0  0  0  0  0  0  0  0  0
  140.5160   72.0170  218.9710 N   0  0  0  0  0  0  0  0  0  0  0  0
  141.9750   71.7910  218.9740 C   0  0  0  0  0  0  0  0  0  0  0  0
  142.4090   72.7860  217.8940 C   0  0  0  0  0  0  0  0  0  0  0  0
  141.3570   73.8530  217.8530 C   0  0  0  0  0  0  0  0  0  0  0  0
  140.3710   73.4400  218.9370 C   0  0  2  0  0  0  0  0  0  0  0  0
  140.6900   74.0660  220.2210 C   0  0  0  0  0  0  0  0  0  0  0  0
  140.5530   73.2500  221.2350 O   0  0  0  0  0  0  0  0  0  0  0  0
  141.1090   75.3530  220.5460 N   0  0  0  0  0  0  0  0  0  0  0  0
  141.3860   76.4580  219.6710 C   0  0  0  0  0  0  0  0  0  0  0  0
  141.7320   77.7380  220.4020 C   0  0  0  0  0  0  0  0  0  0  0  0
  140.7730   78.0380  221.5240 C   0  0  0  0  0  0  0  0  0  0  0  0
  141.2440   79.1650  222.3590 C   0  0  0  0  0  0  0  0  0  0  0  0
  140.3690   80.0750  222.8940 C   0  0  0  0  0  0  0  0  0  0  0  0
  140.7970   81.1320  223.6750 C   0  0  0  0  0  0  0  0  0  0  0  0
  142.1350   81.3150  223.9530 C   0  0  0  0  0  0  0  0  0  0  0  0
  143.0330   80.4140  223.4280 C   0  0  0  0  0  0  0  0  0  0  0  0
  142.5970   79.3650  222.6500 C   0  0  0  0  0  0  0  0  0  0  0  0
  140.4180   76.8020  222.3110 C   0  0  0  0  0  0  0  0  0  0  0  0
  141.3140   75.6390  221.9900 C   0  0  0  0  0  0  0  0  0  0  0  0
  139.2740   70.4370  223.8650 C   0  0  0  0  0  0  0  0  0  0  0  0
  140.0050   71.5220  224.3020 C   0  0  0  0  0  0  0  0  0  0  0  0
  140.6070   71.4890  225.5500 C   0  0  0  0  0  0  0  0  0  0  0  0
  140.4920   70.3760  226.3870 C   0  0  0  0  0  0  0  0  0  0  0  0
  141.0910   70.3400  227.6350 C   0  0  0  0  0  0  0  0  0  0  0  0
  140.9390   69.2050  228.4180 C   0  0  0  0  0  0  0  0  0  0  0  0
  140.1960   68.1490  227.9290 C   0  0  0  0  0  0  0  0  0  0  0  0
  139.5930   68.1620  226.6920 C   0  0  0  0  0  0  0  0  0  0  0  0
  139.7470   69.3090  225.9030 C   0  0  0  0  0  0  0  0  0  0  0  0
  139.1760   69.3730  224.6880 N   0  0  0  0  0  0  0  0  0  0  0  0
  140.3570   71.2060  221.4570 H   0  0  0  0  0  0  0  0  0  0  0  0
  138.0545   69.9563  220.0609 H   0  0  0  0  0  0  0  0  0  0  0  0
  137.9288   71.7649  220.1450 H   0  0  0  0  0  0  0  0  0  0  0  0
  142.4217   72.0299  219.9504 H   0  0  0  0  0  0  0  0  0  0  0  0
  142.2798   70.7502  218.7900 H   0  0  0  0  0  0  0  0  0  0  0  0
  143.3850   73.2239  218.1504 H   0  0  0  0  0  0  0  0  0  0  0  0
  142.5141   72.2924  216.9166 H   0  0  0  0  0  0  0  0  0  0  0  0
  141.7913   74.8390  218.0746 H   0  0  0  0  0  0  0  0  0  0  0  0
  140.8848   73.9442  216.8637 H   0  0  0  0  0  0  0  0  0  0  0  0
  139.3370   73.7561  218.7349 H   0  0  0  0  0  0  0  0  0  0  0  0
  142.2340   76.1862  219.0253 H   0  0  0  0  0  0  0  0  0  0  0  0
  140.4683   76.6525  219.0966 H   0  0  0  0  0  0  0  0  0  0  0  0
  142.7452   77.6430  220.8197 H   0  0  0  0  0  0  0  0  0  0  0  0
  141.6690   78.5640  219.6783 H   0  0  0  0  0  0  0  0  0  0  0  0
  139.8273   78.3761  221.0753 H   0  0  0  0  0  0  0  0  0  0  0  0
  139.2932   79.9603  222.6955 H   0  0  0  0  0  0  0  0  0  0  0  0
  140.0583   81.8386  224.0813 H   0  0  0  0  0  0  0  0  0  0  0  0
  142.4744   82.1559  224.5757 H   0  0  0  0  0  0  0  0  0  0  0  0
  144.1075   80.5328  223.6315 H   0  0  0  0  0  0  0  0  0  0  0  0
  143.3379   78.6607  222.2437 H   0  0  0  0  0  0  0  0  0  0  0  0
  140.5056   77.0294  223.3837 H   0  0  0  0  0  0  0  0  0  0  0  0
  139.3904   76.5171  222.0409 H   0  0  0  0  0  0  0  0  0  0  0  0
  142.3648   75.9010  222.1827 H   0  0  0  0  0  0  0  0  0  0  0  0
  141.0778   74.7634  222.6126 H   0  0  0  0  0  0  0  0  0  0  0  0
  140.1099   72.4106  223.6621 H   0  0  0  0  0  0  0  0  0  0  0  0
  141.1886   72.3588  225.8893 H   0  0  0  0  0  0  0  0  0  0  0  0
  141.6772   71.1966  227.9992 H   0  0  0  0  0  0  0  0  0  0  0  0
  141.4034   69.1472  229.4135 H   0  0  0  0  0  0  0  0  0  0  0  0
  140.0805   67.2543  228.5584 H   0  0  0  0  0  0  0  0  0  0  0  0
  139.0097   67.3005  226.3349 H   0  0  0  0  0  0  0  0  0  0  0  0
  1  2  2  0
  2  3  1  0
  3  4  1  0
  4  5  1  0
  5  6  2  0
  5  7  1  0
  7  8  1  0
  8  9  1  0
  9 10  1  0
 10 11  1  0
 11 12  1  0
 12 13  2  0
 12 14  1  0
 14 15  1  0
 15 16  1  0
 16 17  1  0
 17 18  1  0
 18 19  2  0
 19 20  1  0
 20 21  2  0
 21 22  1  0
 22 23  2  0
 17 24  1  0
 24 25  1  0
  2 26  1  0
 26 27  2  0
 27 28  1  0
 28 29  2  0
 29 30  1  0
 30 31  2  0
 31 32  1  0
 32 33  2  0
 33 34  1  0
 34 35  2  0
 11  7  1  0
 25 14  1  0
 35 26  1  0
 23 18  1  0
 34 29  1  0
  3 36  1  0
  4 37  1  0
  4 38  1  0
  8 39  1  0
  8 40  1  0
  9 41  1  0
  9 42  1  0
 10 43  1  0
 10 44  1  0
 11 45  1  6
 15 46  1  0
 15 47  1  0
 16 48  1  0
 16 49  1  0
 17 50  1  0
 19 51  1  0
 20 52  1  0
 21 53  1  0
 22 54  1  0
 23 55  1  0
 24 56  1  0
 24 57  1  0
 25 58  1  0
 25 59  1  0
 27 60  1  0
 28 61  1  0
 30 62  1  0
 31 63  1  0
 32 64  1  0
 33 65  1  0
M  END
>  <smiles>  (45) 
O=C(NCC(=O)N1CCCC1C(=O)N1CCC(c2ccccc2)CC1)c1ccc2ccccc2n1

>  <score_type>  (45) 
oracle

>  <origin>  (45) 
autodockgpu

>  <m_score__min__energy>  (45) 
-9.2699999999999996

>  <m_primary>  (45) 
energy

>  <rmsd>  (45) 
3.732452296658044

>  <m_score__min__rmsd>  (45) 
3.732452296658044

>  <meeko>  (45) 
{"free_energy": -8.16, "intermolecular_energy": -9.95, "internal_energy": -2.46, "cluster_size": 15, "cluster_id": 3, "rank_in_cluster": 15}

>  <energy>  (45) 
-6.98

>  <cluster_rmsd>  (45) 
1.34

>  <cluster>  (45) 
7

$$$$

     RDKit          3D

 65 69  0  0  1  0  0  0  0  0999 V2000
  139.6620   73.6030  222.3740 O   0  0  0  0  0  0  0  0  0  0  0  0
  139.7980   72.3530  222.2430 C   0  0  0  0  0  0  0  0  0  0  0  0
  139.8510   71.8000  220.9320 N   0  0  0  0  0  0  0  0  0  0  0  0
  139.7420   72.7630  219.8320 C   0  0  0  0  0  0  0  0  0  0  0  0
  140.9880   72.8770  219.0810 C   0  0  0  0  0  0  0  0  0  0  0  0
  141.1610   72.4020  217.9200 O   0  0  0  0  0  0  0  0  0  0  0  0
  142.1010   73.5600  219.6530 N   0  0  0  0  0  0  0  0  0  0  0  0
  142.6460   73.4000  221.0150 C   0  0  0  0  0  0  0  0  0  0  0  0
  144.1440   73.3230  220.7040 C   0  0  0  0  0  0  0  0  0  0  0  0
  144.3450   74.0430  219.4060 C   0  0  0  0  0  0  0  0  0  0  0  0
  142.9510   74.5320  219.0360 C   0  0  2  0  0  0  0  0  0  0  0  0
  142.7050   75.8860  219.5340 C   0  0  0  0  0  0  0  0  0  0  0  0
  143.7300   76.6830  219.3760 O   0  0  0  0  0  0  0  0  0  0  0  0
  141.5890   76.4640  220.1340 N   0  0  0  0  0  0  0  0  0  0  0  0
  140.3090   75.8760  220.4110 C   0  0  0  0  0  0  0  0  0  0  0  0
  139.3690   76.7940  221.1630 C   0  0  0  0  0  0  0  0  0  0  0  0
  140.0340   77.4590  222.3400 C   0  0  0  0  0  0  0  0  0  0  0  0
  139.1750   78.5090  222.9320 C   0  0  0  0  0  0  0  0  0  0  0  0
  137.8110   78.4780  222.7980 C   0  0  0  0  0  0  0  0  0  0  0  0
  136.9980   79.4530  223.3460 C   0  0  0  0  0  0  0  0  0  0  0  0
  137.5320   80.5060  224.0580 C   0  0  0  0  0  0  0  0  0  0  0  0
  138.8990   80.5590  224.2070 C   0  0  0  0  0  0  0  0  0  0  0  0
  139.7000   79.5840  223.6570 C   0  0  0  0  0  0  0  0  0  0  0  0
  141.4290   77.9240  222.0140 C   0  0  0  0  0  0  0  0  0  0  0  0
  141.7180   77.8890  220.5390 C   0  0  0  0  0  0  0  0  0  0  0  0
  139.8960   71.5020  223.4280 C   0  0  0  0  0  0  0  0  0  0  0  0
  139.4780   70.1890  223.3600 C   0  0  0  0  0  0  0  0  0  0  0  0
  139.5680   69.3780  224.4790 C   0  0  0  0  0  0  0  0  0  0  0  0
  140.0780   69.8570  225.6890 C   0  0  0  0  0  0  0  0  0  0  0  0
  140.1700   69.0490  226.8090 C   0  0  0  0  0  0  0  0  0  0  0  0
  140.6850   69.5850  227.9810 C   0  0  0  0  0  0  0  0  0  0  0  0
  141.0880   70.9060  227.9920 C   0  0  0  0  0  0  0  0  0  0  0  0
  141.0050   71.7280  226.8900 C   0  0  0  0  0  0  0  0  0  0  0  0
  140.4850   71.1840  225.7090 C   0  0  0  0  0  0  0  0  0  0  0  0
  140.3840   71.9440  224.6050 N   0  0  0  0  0  0  0  0  0  0  0  0
  139.9610   70.7780  220.7760 H   0  0  0  0  0  0  0  0  0  0  0  0
  138.9446   72.4340  219.1495 H   0  0  0  0  0  0  0  0  0  0  0  0
  139.5138   73.7485  220.2640 H   0  0  0  0  0  0  0  0  0  0  0  0
  142.4068   74.2636  221.6530 H   0  0  0  0  0  0  0  0  0  0  0  0
  142.2469   72.5396  221.5721 H   0  0  0  0  0  0  0  0  0  0  0  0
  144.7236   73.8094  221.5024 H   0  0  0  0  0  0  0  0  0  0  0  0
  144.4838   72.2789  220.6372 H   0  0  0  0  0  0  0  0  0  0  0  0
  145.0358   74.8898  219.5315 H   0  0  0  0  0  0  0  0  0  0  0  0
  144.7883   73.4013  218.6302 H   0  0  0  0  0  0  0  0  0  0  0  0
  142.7871   74.6123  217.9512 H   0  0  0  0  0  0  0  0  0  0  0  0
  139.8377   75.6032  219.4552 H   0  0  0  0  0  0  0  0  0  0  0  0
  140.4885   75.0019  221.0542 H   0  0  0  0  0  0  0  0  0  0  0  0
  139.0096   77.5726  220.4741 H   0  0  0  0  0  0  0  0  0  0  0  0
  138.5400   76.1822  221.5482 H   0  0  0  0  0  0  0  0  0  0  0  0
  140.1597   76.7002  223.1264 H   0  0  0  0  0  0  0  0  0  0  0  0
  137.3491   77.6520  222.2373 H   0  0  0  0  0  0  0  0  0  0  0  0
  135.9082   79.3875  223.2118 H   0  0  0  0  0  0  0  0  0  0  0  0
  136.8844   81.2809  224.4941 H   0  0  0  0  0  0  0  0  0  0  0  0
  139.3550   81.3868  224.7699 H   0  0  0  0  0  0  0  0  0  0  0  0
  140.7895   79.6525  223.7921 H   0  0  0  0  0  0  0  0  0  0  0  0
  141.5493   78.9570  222.3726 H   0  0  0  0  0  0  0  0  0  0  0  0
  142.1335   77.2393  222.5088 H   0  0  0  0  0  0  0  0  0  0  0  0
  140.9932   78.5097  219.9919 H   0  0  0  0  0  0  0  0  0  0  0  0
  142.7192   78.2847  220.3134 H   0  0  0  0  0  0  0  0  0  0  0  0
  139.0741   69.7871  222.4190 H   0  0  0  0  0  0  0  0  0  0  0  0
  139.2304   68.3331  224.4141 H   0  0  0  0  0  0  0  0  0  0  0  0
  139.8406   68.0002  226.7709 H   0  0  0  0  0  0  0  0  0  0  0  0
  140.7709   68.9673  228.8871 H   0  0  0  0  0  0  0  0  0  0  0  0
  141.4948   71.3216  228.9257 H   0  0  0  0  0  0  0  0  0  0  0  0
  141.3359   72.7760  226.9360 H   0  0  0  0  0  0  0  0  0  0  0  0
  1  2  2  0
  2  3  1  0
  3  4  1  0
  4  5  1  0
  5  6  2  0
  5  7  1  0
  7  8  1  0
  8  9  1  0
  9 10  1  0
 10 11  1  0
 11 12  1  0
 12 13  2  0
 12 14  1  0
 14 15  1  0
 15 16  1  0
 16 17  1  0
 17 18  1  0
 18 19  2  0
 19 20  1  0
 20 21  2  0
 21 22  1  0
 22 23  2  0
 17 24  1  0
 24 25  1  0
  2 26  1  0
 26 27  2  0
 27 28  1  0
 28 29  2  0
 29 30  1  0
 30 31  2  0
 31 32  1  0
 32 33  2  0
 33 34  1  0
 34 35  2  0
 11  7  1  0
 25 14  1  0
 35 26  1  0
 23 18  1  0
 34 29  1  0
  3 36  1  0
  4 37  1  0
  4 38  1  0
  8 39  1  0
  8 40  1  0
  9 41  1  0
  9 42  1  0
 10 43  1  0
 10 44  1  0
 11 45  1  6
 15 46  1  0
 15 47  1  0
 16 48  1  0
 16 49  1  0
 17 50  1  0
 19 51  1  0
 20 52  1  0
 21 53  1  0
 22 54  1  0
 23 55  1  0
 24 56  1  0
 24 57  1  0
 25 58  1  0
 25 59  1  0
 27 60  1  0
 28 61  1  0
 30 62  1  0
 31 63  1  0
 32 64  1  0
 33 65  1  0
M  END
>  <smiles>  (46) 
O=C(NCC(=O)N1CCCC1C(=O)N1CCC(c2ccccc2)CC1)c1ccc2ccccc2n1

>  <score_type>  (46) 
oracle

>  <origin>  (46) 
autodockgpu

>  <m_score__min__energy>  (46) 
-9.2699999999999996

>  <m_primary>  (46) 
energy

>  <rmsd>  (46) 
3.6726403483876697

>  <m_score__min__rmsd>  (46) 
3.6726403483876697

>  <meeko>  (46) 
{"free_energy": -8.75, "intermolecular_energy": -10.54, "internal_energy": -2.24, "cluster_size": 15, "cluster_id": 3, "rank_in_cluster": 2}

>  <energy>  (46) 
-6.94

>  <cluster_rmsd>  (46) 
1.3

>  <cluster>  (46) 
7

$$$$

     RDKit          3D

 65 69  0  0  1  0  0  0  0  0999 V2000
  138.5210   69.5710  222.1860 O   0  0  0  0  0  0  0  0  0  0  0  0
  139.4610   70.3310  222.5550 C   0  0  0  0  0  0  0  0  0  0  0  0
  140.1040   71.1520  221.5850 N   0  0  0  0  0  0  0  0  0  0  0  0
  139.5960   71.0310  220.2150 C   0  0  0  0  0  0  0  0  0  0  0  0
  138.2670   71.6170  220.0720 C   0  0  0  0  0  0  0  0  0  0  0  0
  137.2660   70.9970  219.6070 O   0  0  0  0  0  0  0  0  0  0  0  0
  138.0390   72.9660  220.4730 N   0  0  0  0  0  0  0  0  0  0  0  0
  137.5130   74.0700  219.6460 C   0  0  0  0  0  0  0  0  0  0  0  0
  136.4920   74.6750  220.6130 C   0  0  0  0  0  0  0  0  0  0  0  0
  136.9550   74.3220  221.9940 C   0  0  0  0  0  0  0  0  0  0  0  0
  138.2470   73.5500  221.7630 C   0  0  2  0  0  0  0  0  0  0  0  0
  139.4150   74.4300  221.7980 C   0  0  0  0  0  0  0  0  0  0  0  0
  140.5380   73.7820  221.9710 O   0  0  0  0  0  0  0  0  0  0  0  0
  139.5380   75.8120  221.6770 N   0  0  0  0  0  0  0  0  0  0  0  0
  138.5130   76.7910  221.4440 C   0  0  0  0  0  0  0  0  0  0  0  0
  139.0210   78.2170  221.4660 C   0  0  0  0  0  0  0  0  0  0  0  0
  139.9100   78.4930  222.6510 C   0  0  0  0  0  0  0  0  0  0  0  0
  140.5660   79.8150  222.5440 C   0  0  0  0  0  0  0  0  0  0  0  0
  141.4570   80.2510  223.4900 C   0  0  0  0  0  0  0  0  0  0  0  0
  142.0770   81.4830  223.4010 C   0  0  0  0  0  0  0  0  0  0  0  0
  141.8220   82.3330  222.3460 C   0  0  0  0  0  0  0  0  0  0  0  0
  140.9310   81.9180  221.3830 C   0  0  0  0  0  0  0  0  0  0  0  0
  140.3190   80.6890  221.4800 C   0  0  0  0  0  0  0  0  0  0  0  0
  140.8630   77.3580  222.9200 C   0  0  0  0  0  0  0  0  0  0  0  0
  140.9120   76.3670  221.7910 C   0  0  0  0  0  0  0  0  0  0  0  0
  139.8720   70.3560  223.9580 C   0  0  0  0  0  0  0  0  0  0  0  0
  140.2970   71.5410  224.5220 C   0  0  0  0  0  0  0  0  0  0  0  0
  140.6870   71.5710  225.8510 C   0  0  0  0  0  0  0  0  0  0  0  0
  140.6610   70.4210  226.6460 C   0  0  0  0  0  0  0  0  0  0  0  0
  141.0500   70.4480  227.9740 C   0  0  0  0  0  0  0  0  0  0  0  0
  141.0010   69.2720  228.7100 C   0  0  0  0  0  0  0  0  0  0  0  0
  140.5670   68.1150  228.0930 C   0  0  0  0  0  0  0  0  0  0  0  0
  140.1770   68.0660  226.7740 C   0  0  0  0  0  0  0  0  0  0  0  0
  140.2270   69.2530  226.0340 C   0  0  0  0  0  0  0  0  0  0  0  0
  139.8550   69.2590  224.7420 N   0  0  0  0  0  0  0  0  0  0  0  0
  140.8830   71.7910  221.8420 H   0  0  0  0  0  0  0  0  0  0  0  0
  140.2873   71.5474  219.5328 H   0  0  0  0  0  0  0  0  0  0  0  0
  139.5237   69.9606  219.9722 H   0  0  0  0  0  0  0  0  0  0  0  0
  138.3004   74.7914  219.3820 H   0  0  0  0  0  0  0  0  0  0  0  0
  137.0996   73.7606  218.6747 H   0  0  0  0  0  0  0  0  0  0  0  0
  136.4548   75.7677  220.4921 H   0  0  0  0  0  0  0  0  0  0  0  0
  135.4814   74.2860  220.4200 H   0  0  0  0  0  0  0  0  0  0  0  0
  137.1422   75.2291  222.5875 H   0  0  0  0  0  0  0  0  0  0  0  0
  136.2087   73.7404  222.5551 H   0  0  0  0  0  0  0  0  0  0  0  0
  138.4562   72.8000  222.5400 H   0  0  0  0  0  0  0  0  0  0  0  0
  138.0641   76.5969  220.4587 H   0  0  0  0  0  0  0  0  0  0  0  0
  137.7837   76.6956  222.2620 H   0  0  0  0  0  0  0  0  0  0  0  0
  139.5929   78.4023  220.5448 H   0  0  0  0  0  0  0  0  0  0  0  0
  138.1482   78.8824  221.5399 H   0  0  0  0  0  0  0  0  0  0  0  0
  139.2713   78.5498  223.5447 H   0  0  0  0  0  0  0  0  0  0  0  0
  141.6857   79.6000  224.3467 H   0  0  0  0  0  0  0  0  0  0  0  0
  142.7853   81.7903  224.1845 H   0  0  0  0  0  0  0  0  0  0  0  0
  142.3159   83.3134  222.2761 H   0  0  0  0  0  0  0  0  0  0  0  0
  140.7061   82.5737  220.5289 H   0  0  0  0  0  0  0  0  0  0  0  0
  139.6120   80.3838  220.6945 H   0  0  0  0  0  0  0  0  0  0  0  0
  141.8711   77.7719  223.0699 H   0  0  0  0  0  0  0  0  0  0  0  0
  140.5062   76.8273  223.8150 H   0  0  0  0  0  0  0  0  0  0  0  0
  141.2016   76.8671  220.8551 H   0  0  0  0  0  0  0  0  0  0  0  0
  141.6529   75.5761  221.9794 H   0  0  0  0  0  0  0  0  0  0  0  0
  140.3262   72.4599  223.9180 H   0  0  0  0  0  0  0  0  0  0  0  0
  141.0248   72.5210  226.2908 H   0  0  0  0  0  0  0  0  0  0  0  0
  141.3920   71.3848  228.4381 H   0  0  0  0  0  0  0  0  0  0  0  0
  141.3030   69.2618  229.7677 H   0  0  0  0  0  0  0  0  0  0  0  0
  140.5313   67.1881  228.6843 H   0  0  0  0  0  0  0  0  0  0  0  0
  139.8372   67.1251  226.3165 H   0  0  0  0  0  0  0  0  0  0  0  0
  1  2  2  0
  2  3  1  0
  3  4  1  0
  4  5  1  0
  5  6  2  0
  5  7  1  0
  7  8  1  0
  8  9  1  0
  9 10  1  0
 10 11  1  0
 11 12  1  0
 12 13  2  0
 12 14  1  0
 14 15  1  0
 15 16  1  0
 16 17  1  0
 17 18  1  0
 18 19  2  0
 19 20  1  0
 20 21  2  0
 21 22  1  0
 22 23  2  0
 17 24  1  0
 24 25  1  0
  2 26  1  0
 26 27  2  0
 27 28  1  0
 28 29  2  0
 29 30  1  0
 30 31  2  0
 31 32  1  0
 32 33  2  0
 33 34  1  0
 34 35  2  0
 11  7  1  0
 25 14  1  0
 35 26  1  0
 23 18  1  0
 34 29  1  0
  3 36  1  0
  4 37  1  0
  4 38  1  0
  8 39  1  0
  8 40  1  0
  9 41  1  0
  9 42  1  0
 10 43  1  0
 10 44  1  0
 11 45  1  1
 15 46  1  0
 15 47  1  0
 16 48  1  0
 16 49  1  0
 17 50  1  0
 19 51  1  0
 20 52  1  0
 21 53  1  0
 22 54  1  0
 23 55  1  0
 24 56  1  0
 24 57  1  0
 25 58  1  0
 25 59  1  0
 27 60  1  0
 28 61  1  0
 30 62  1  0
 31 63  1  0
 32 64  1  0
 33 65  1  0
M  END
>  <smiles>  (47) 
O=C(NCC(=O)N1CCCC1C(=O)N1CCC(c2ccccc2)CC1)c1ccc2ccccc2n1

>  <score_type>  (47) 
oracle

>  <origin>  (47) 
autodockgpu

>  <m_score__min__energy>  (47) 
-9.2699999999999996

>  <m_primary>  (47) 
energy

>  <rmsd>  (47) 
3.853496600180119

>  <m_score__min__rmsd>  (47) 
3.853496600180119

>  <meeko>  (47) 
{"free_energy": -8.44, "intermolecular_energy": -10.23, "internal_energy": -2.52, "cluster_size": 11, "cluster_id": 4, "rank_in_cluster": 5}

>  <energy>  (47) 
-6.9

>  <cluster_rmsd>  (47) 
1.38

>  <cluster>  (47) 
7

$$$$

     RDKit          3D

 65 69  0  0  1  0  0  0  0  0999 V2000
  138.5490   69.0310  222.3420 O   0  0  0  0  0  0  0  0  0  0  0  0
  139.0500   70.0900  222.8160 C   0  0  0  0  0  0  0  0  0  0  0  0
  139.0890   71.2580  222.0020 N   0  0  0  0  0  0  0  0  0  0  0  0
  138.5250   71.1130  220.6570 C   0  0  0  0  0  0  0  0  0  0  0  0
  139.5600   71.1200  219.6280 C   0  0  0  0  0  0  0  0  0  0  0  0
  139.7020   70.2100  218.7600 O   0  0  0  0  0  0  0  0  0  0  0  0
  140.4840   72.2040  219.5600 N   0  0  0  0  0  0  0  0  0  0  0  0
  141.9580   72.1250  219.5780 C   0  0  0  0  0  0  0  0  0  0  0  0
  142.2980   73.0900  218.4390 C   0  0  0  0  0  0  0  0  0  0  0  0
  141.1460   74.0410  218.3300 C   0  0  0  0  0  0  0  0  0  0  0  0
  140.1980   73.6000  219.4370 C   0  0  2  0  0  0  0  0  0  0  0  0
  140.4440   74.3330  220.6800 C   0  0  0  0  0  0  0  0  0  0  0  0
  140.1230   73.6490  221.7480 O   0  0  0  0  0  0  0  0  0  0  0  0
  140.9540   75.6060  220.9190 N   0  0  0  0  0  0  0  0  0  0  0  0
  141.4280   76.5790  219.9760 C   0  0  0  0  0  0  0  0  0  0  0  0
  141.8230   77.8970  220.6090 C   0  0  0  0  0  0  0  0  0  0  0  0
  140.7880   78.4020  221.5810 C   0  0  0  0  0  0  0  0  0  0  0  0
  141.2810   79.5680  222.3470 C   0  0  0  0  0  0  0  0  0  0  0  0
  142.1270   79.4190  223.4140 C   0  0  0  0  0  0  0  0  0  0  0  0
  142.5940   80.5000  224.1360 C   0  0  0  0  0  0  0  0  0  0  0  0
  142.2240   81.7880  223.8080 C   0  0  0  0  0  0  0  0  0  0  0  0
  141.3750   81.9640  222.7410 C   0  0  0  0  0  0  0  0  0  0  0  0
  140.9150   80.8800  222.0270 C   0  0  0  0  0  0  0  0  0  0  0  0
  140.2330   77.2960  222.4420 C   0  0  0  0  0  0  0  0  0  0  0  0
  141.0370   76.0300  222.3420 C   0  0  0  0  0  0  0  0  0  0  0  0
  139.5790   70.1000  224.1800 C   0  0  0  0  0  0  0  0  0  0  0  0
  139.8250   71.3050  224.8050 C   0  0  0  0  0  0  0  0  0  0  0  0
  140.3260   71.3210  226.0970 C   0  0  0  0  0  0  0  0  0  0  0  0
  140.5930   70.1380  226.7910 C   0  0  0  0  0  0  0  0  0  0  0  0
  141.0920   70.1500  228.0820 C   0  0  0  0  0  0  0  0  0  0  0  0
  141.3360   68.9410  228.7180 C   0  0  0  0  0  0  0  0  0  0  0  0
  141.0720   67.7660  228.0430 C   0  0  0  0  0  0  0  0  0  0  0  0
  140.5750   67.7300  226.7590 C   0  0  0  0  0  0  0  0  0  0  0  0
  140.3300   68.9510  226.1200 C   0  0  0  0  0  0  0  0  0  0  0  0
  139.8440   68.9710  224.8670 N   0  0  0  0  0  0  0  0  0  0  0  0
  139.4920   72.1510  222.3490 H   0  0  0  0  0  0  0  0  0  0  0  0
  137.9761   70.1613  220.6025 H   0  0  0  0  0  0  0  0  0  0  0  0
  137.8572   71.9677  220.4739 H   0  0  0  0  0  0  0  0  0  0  0  0
  142.3721   72.4667  220.5381 H   0  0  0  0  0  0  0  0  0  0  0  0
  142.3660   71.1104  219.4590 H   0  0  0  0  0  0  0  0  0  0  0  0
  143.2233   73.6386  218.6690 H   0  0  0  0  0  0  0  0  0  0  0  0
  142.4590   72.5498  217.4944 H   0  0  0  0  0  0  0  0  0  0  0  0
  141.4782   75.0774  218.4896 H   0  0  0  0  0  0  0  0  0  0  0  0
  140.6743   74.0224  217.3364 H   0  0  0  0  0  0  0  0  0  0  0  0
  139.1392   73.7985  219.2145 H   0  0  0  0  0  0  0  0  0  0  0  0
  142.3067   76.1640  219.4605 H   0  0  0  0  0  0  0  0  0  0  0  0
  140.5977   76.7895  219.2859 H   0  0  0  0  0  0  0  0  0  0  0  0
  142.7737   77.7603  221.1451 H   0  0  0  0  0  0  0  0  0  0  0  0
  141.9169   78.6404  219.8037 H   0  0  0  0  0  0  0  0  0  0  0  0
  139.9314   78.7709  220.9977 H   0  0  0  0  0  0  0  0  0  0  0  0
  142.4444   78.4068  223.7050 H   0  0  0  0  0  0  0  0  0  0  0  0
  143.2716   80.3313  224.9859 H   0  0  0  0  0  0  0  0  0  0  0  0
  142.5971   82.6484  224.3830 H   0  0  0  0  0  0  0  0  0  0  0  0
  141.0607   82.9787  222.4554 H   0  0  0  0  0  0  0  0  0  0  0  0
  140.2377   81.0512  221.1773 H   0  0  0  0  0  0  0  0  0  0  0  0
  140.2319   77.6313  223.4896 H   0  0  0  0  0  0  0  0  0  0  0  0
  139.2156   77.0747  222.0871 H   0  0  0  0  0  0  0  0  0  0  0  0
  142.0833   76.2178  222.6249 H   0  0  0  0  0  0  0  0  0  0  0  0
  140.6520   75.2525  223.0183 H   0  0  0  0  0  0  0  0  0  0  0  0
  139.6241   72.2502  224.2794 H   0  0  0  0  0  0  0  0  0  0  0  0
  140.5178   72.2868  226.5873 H   0  0  0  0  0  0  0  0  0  0  0  0
  141.2918   71.1021  228.5953 H   0  0  0  0  0  0  0  0  0  0  0  0
  141.7334   68.9192  229.7435 H   0  0  0  0  0  0  0  0  0  0  0  0
  141.2681   66.8126  228.5554 H   0  0  0  0  0  0  0  0  0  0  0  0
  140.3772   66.7737  226.2527 H   0  0  0  0  0  0  0  0  0  0  0  0
  1  2  2  0
  2  3  1  0
  3  4  1  0
  4  5  1  0
  5  6  2  0
  5  7  1  0
  7  8  1  0
  8  9  1  0
  9 10  1  0
 10 11  1  0
 11 12  1  0
 12 13  2  0
 12 14  1  0
 14 15  1  0
 15 16  1  0
 16 17  1  0
 17 18  1  0
 18 19  2  0
 19 20  1  0
 20 21  2  0
 21 22  1  0
 22 23  2  0
 17 24  1  0
 24 25  1  0
  2 26  1  0
 26 27  2  0
 27 28  1  0
 28 29  2  0
 29 30  1  0
 30 31  2  0
 31 32  1  0
 32 33  2  0
 33 34  1  0
 34 35  2  0
 11  7  1  0
 25 14  1  0
 35 26  1  0
 23 18  1  0
 34 29  1  0
  3 36  1  0
  4 37  1  0
  4 38  1  0
  8 39  1  0
  8 40  1  0
  9 41  1  0
  9 42  1  0
 10 43  1  0
 10 44  1  0
 11 45  1  6
 15 46  1  0
 15 47  1  0
 16 48  1  0
 16 49  1  0
 17 50  1  0
 19 51  1  0
 20 52  1  0
 21 53  1  0
 22 54  1  0
 23 55  1  0
 24 56  1  0
 24 57  1  0
 25 58  1  0
 25 59  1  0
 27 60  1  0
 28 61  1  0
 30 62  1  0
 31 63  1  0
 32 64  1  0
 33 65  1  0
M  END
>  <smiles>  (48) 
O=C(NCC(=O)N1CCCC1C(=O)N1CCC(c2ccccc2)CC1)c1ccc2ccccc2n1

>  <score_type>  (48) 
oracle

>  <origin>  (48) 
autodockgpu

>  <m_score__min__energy>  (48) 
-9.2699999999999996

>  <m_primary>  (48) 
energy

>  <rmsd>  (48) 
3.744195284648743

>  <m_score__min__rmsd>  (48) 
3.744195284648743

>  <meeko>  (48) 
{"free_energy": -8.57, "intermolecular_energy": -10.36, "internal_energy": -2.42, "cluster_size": 15, "cluster_id": 3, "rank_in_cluster": 10}

>  <energy>  (48) 
-6.81

>  <cluster_rmsd>  (48) 
1.38

>  <cluster>  (48) 
7

$$$$

     RDKit          3D

 65 69  0  0  1  0  0  0  0  0999 V2000
  139.9420   73.6780  222.5670 O   0  0  0  0  0  0  0  0  0  0  0  0
  139.7700   72.4360  222.4090 C   0  0  0  0  0  0  0  0  0  0  0  0
  139.5530   71.9320  221.0950 N   0  0  0  0  0  0  0  0  0  0  0  0
  139.5510   72.9340  220.0250 C   0  0  0  0  0  0  0  0  0  0  0  0
  140.7470   72.8440  219.1910 C   0  0  0  0  0  0  0  0  0  0  0  0
  140.7890   72.2480  218.0760 O   0  0  0  0  0  0  0  0  0  0  0  0
  141.9600   73.4550  219.6250 N   0  0  0  0  0  0  0  0  0  0  0  0
  142.7310   73.1480  220.8450 C   0  0  0  0  0  0  0  0  0  0  0  0
  144.1480   73.0940  220.2680 C   0  0  0  0  0  0  0  0  0  0  0  0
  144.1370   73.9460  219.0350 C   0  0  0  0  0  0  0  0  0  0  0  0
  142.7130   74.4810  218.9700 C   0  0  2  0  0  0  0  0  0  0  0  0
  142.5930   75.7770  219.6400 C   0  0  0  0  0  0  0  0  0  0  0  0
  143.7380   76.3980  219.7590 O   0  0  0  0  0  0  0  0  0  0  0  0
  141.4920   76.4520  220.1600 N   0  0  0  0  0  0  0  0  0  0  0  0
  140.1100   76.0620  220.1540 C   0  0  0  0  0  0  0  0  0  0  0  0
  139.2060   77.0180  220.9040 C   0  0  0  0  0  0  0  0  0  0  0  0
  139.7580   77.3920  222.2550 C   0  0  0  0  0  0  0  0  0  0  0  0
  138.9790   78.4840  222.8800 C   0  0  0  0  0  0  0  0  0  0  0  0
  139.5930   79.5000  223.5650 C   0  0  0  0  0  0  0  0  0  0  0  0
  138.8760   80.5260  224.1530 C   0  0  0  0  0  0  0  0  0  0  0  0
  137.5000   80.5700  224.0710 C   0  0  0  0  0  0  0  0  0  0  0  0
  136.8610   79.5610  223.3870 C   0  0  0  0  0  0  0  0  0  0  0  0
  137.5830   78.5440  222.8060 C   0  0  0  0  0  0  0  0  0  0  0  0
  141.2420   77.6490  222.2090 C   0  0  0  0  0  0  0  0  0  0  0  0
  141.7630   77.7640  220.8040 C   0  0  0  0  0  0  0  0  0  0  0  0
  139.7960   71.5420  223.5670 C   0  0  0  0  0  0  0  0  0  0  0  0
  139.1730   70.3140  223.4930 C   0  0  0  0  0  0  0  0  0  0  0  0
  139.1940   69.4630  224.5860 C   0  0  0  0  0  0  0  0  0  0  0  0
  139.8360   69.8180  225.7750 C   0  0  0  0  0  0  0  0  0  0  0  0
  139.8600   68.9700  226.8690 C   0  0  0  0  0  0  0  0  0  0  0  0
  140.5160   69.3820  228.0210 C   0  0  0  0  0  0  0  0  0  0  0  0
  141.1220   70.6220  228.0390 C   0  0  0  0  0  0  0  0  0  0  0  0
  141.1100   71.4810  226.9630 C   0  0  0  0  0  0  0  0  0  0  0  0
  140.4490   71.0640  225.8020 C   0  0  0  0  0  0  0  0  0  0  0  0
  140.4100   71.8650  224.7230 N   0  0  0  0  0  0  0  0  0  0  0  0
  139.4050   70.9190  220.9170 H   0  0  0  0  0  0  0  0  0  0  0  0
  138.6644   72.7774  219.3930 H   0  0  0  0  0  0  0  0  0  0  0  0
  139.5352   73.9301  220.4913 H   0  0  0  0  0  0  0  0  0  0  0  0
  142.6294   73.9408  221.6007 H   0  0  0  0  0  0  0  0  0  0  0  0
  142.4139   72.2362  221.3723 H   0  0  0  0  0  0  0  0  0  0  0  0
  144.8707   73.4894  220.9970 H   0  0  0  0  0  0  0  0  0  0  0  0
  144.4441   72.0605  220.0353 H   0  0  0  0  0  0  0  0  0  0  0  0
  144.8606   74.7698  219.1225 H   0  0  0  0  0  0  0  0  0  0  0  0
  144.4209   73.3868  218.1313 H   0  0  0  0  0  0  0  0  0  0  0  0
  142.3631   74.6765  217.9456 H   0  0  0  0  0  0  0  0  0  0  0  0
  139.7687   76.0079  219.1097 H   0  0  0  0  0  0  0  0  0  0  0  0
  140.0472   75.0905  220.6661 H   0  0  0  0  0  0  0  0  0  0  0  0
  139.0863   77.9334  220.3058 H   0  0  0  0  0  0  0  0  0  0  0  0
  138.2427   76.5117  221.0644 H   0  0  0  0  0  0  0  0  0  0  0  0
  139.6369   76.5235  222.9192 H   0  0  0  0  0  0  0  0  0  0  0  0
  140.6897   79.4993  223.6497 H   0  0  0  0  0  0  0  0  0  0  0  0
  139.4117   81.3195  224.6947 H   0  0  0  0  0  0  0  0  0  0  0  0
  136.9304   81.3869  224.5382 H   0  0  0  0  0  0  0  0  0  0  0  0
  135.7641   79.5677  223.3041 H   0  0  0  0  0  0  0  0  0  0  0  0
  137.0448   77.7516  222.2652 H   0  0  0  0  0  0  0  0  0  0  0  0
  141.4541   78.5877  222.7418 H   0  0  0  0  0  0  0  0  0  0  0  0
  141.7443   76.7926  222.6826 H   0  0  0  0  0  0  0  0  0  0  0  0
  141.2402   78.5691  220.2668 H   0  0  0  0  0  0  0  0  0  0  0  0
  142.8358   78.0068  220.7898 H   0  0  0  0  0  0  0  0  0  0  0  0
  138.6605   70.0108  222.5681 H   0  0  0  0  0  0  0  0  0  0  0  0
  138.6939   68.4857  224.5161 H   0  0  0  0  0  0  0  0  0  0  0  0
  139.3680   67.9871  226.8262 H   0  0  0  0  0  0  0  0  0  0  0  0
  140.5523   68.7300  228.9062 H   0  0  0  0  0  0  0  0  0  0  0  0
  141.6391   70.9390  228.9566 H   0  0  0  0  0  0  0  0  0  0  0  0
  141.6037   72.4627  227.0142 H   0  0  0  0  0  0  0  0  0  0  0  0
  1  2  2  0
  2  3  1  0
  3  4  1  0
  4  5  1  0
  5  6  2  0
  5  7  1  0
  7  8  1  0
  8  9  1  0
  9 10  1  0
 10 11  1  0
 11 12  1  0
 12 13  2  0
 12 14  1  0
 14 15  1  0
 15 16  1  0
 16 17  1  0
 17 18  1  0
 18 19  2  0
 19 20  1  0
 20 21  2  0
 21 22  1  0
 22 23  2  0
 17 24  1  0
 24 25  1  0
  2 26  1  0
 26 27  2  0
 27 28  1  0
 28 29  2  0
 29 30  1  0
 30 31  2  0
 31 32  1  0
 32 33  2  0
 33 34  1  0
 34 35  2  0
 11  7  1  0
 25 14  1  0
 35 26  1  0
 23 18  1  0
 34 29  1  0
  3 36  1  0
  4 37  1  0
  4 38  1  0
  8 39  1  0
  8 40  1  0
  9 41  1  0
  9 42  1  0
 10 43  1  0
 10 44  1  0
 11 45  1  6
 15 46  1  0
 15 47  1  0
 16 48  1  0
 16 49  1  0
 17 50  1  0
 19 51  1  0
 20 52  1  0
 21 53  1  0
 22 54  1  0
 23 55  1  0
 24 56  1  0
 24 57  1  0
 25 58  1  0
 25 59  1  0
 27 60  1  0
 28 61  1  0
 30 62  1  0
 31 63  1  0
 32 64  1  0
 33 65  1  0
M  END
>  <smiles>  (49) 
O=C(NCC(=O)N1CCCC1C(=O)N1CCC(c2ccccc2)CC1)c1ccc2ccccc2n1

>  <score_type>  (49) 
oracle

>  <origin>  (49) 
autodockgpu

>  <m_score__min__energy>  (49) 
-9.2699999999999996

>  <m_primary>  (49) 
energy

>  <rmsd>  (49) 
3.55018406610241

>  <m_score__min__rmsd>  (49) 
3.55018406610241

>  <meeko>  (49) 
{"free_energy": -8.71, "intermolecular_energy": -10.5, "internal_energy": -2.26, "cluster_size": 15, "cluster_id": 3, "rank_in_cluster": 4}

>  <energy>  (49) 
-6.77

>  <cluster_rmsd>  (49) 
1.59

>  <cluster>  (49) 
7

$$$$

     RDKit          3D

 65 69  0  0  1  0  0  0  0  0999 V2000
  138.4990   68.7810  221.9960 O   0  0  0  0  0  0  0  0  0  0  0  0
  139.2290   69.7120  222.4400 C   0  0  0  0  0  0  0  0  0  0  0  0
  139.7690   70.6600  221.5250 N   0  0  0  0  0  0  0  0  0  0  0  0
  139.4130   70.4560  220.1180 C   0  0  0  0  0  0  0  0  0  0  0  0
  138.1630   71.1240  219.7680 C   0  0  0  0  0  0  0  0  0  0  0  0
  137.1930   70.5530  219.1900 O   0  0  0  0  0  0  0  0  0  0  0  0
  137.9840   72.5030  220.0820 N   0  0  0  0  0  0  0  0  0  0  0  0
  137.5490   73.5800  219.1710 C   0  0  0  0  0  0  0  0  0  0  0  0
  136.5170   74.2870  220.0550 C   0  0  0  0  0  0  0  0  0  0  0  0
  136.9020   73.9940  221.4730 C   0  0  0  0  0  0  0  0  0  0  0  0
  138.1630   73.1500  221.3460 C   0  0  2  0  0  0  0  0  0  0  0  0
  139.3710   73.9760  221.3850 C   0  0  0  0  0  0  0  0  0  0  0  0
  140.4720   73.2720  221.3810 O   0  0  0  0  0  0  0  0  0  0  0  0
  139.5470   75.3570  221.4220 N   0  0  0  0  0  0  0  0  0  0  0  0
  138.5540   76.3940  221.3990 C   0  0  0  0  0  0  0  0  0  0  0  0
  139.1270   77.7870  221.5500 C   0  0  0  0  0  0  0  0  0  0  0  0
  140.1220   77.8810  222.6780 C   0  0  0  0  0  0  0  0  0  0  0  0
  140.8280   79.1820  222.6760 C   0  0  0  0  0  0  0  0  0  0  0  0
  140.7810   80.0210  221.5930 C   0  0  0  0  0  0  0  0  0  0  0  0
  141.4360   81.2380  221.5800 C   0  0  0  0  0  0  0  0  0  0  0  0
  142.1710   81.6620  222.6670 C   0  0  0  0  0  0  0  0  0  0  0  0
  142.2340   80.8370  223.7660 C   0  0  0  0  0  0  0  0  0  0  0  0
  141.5780   79.6270  223.7700 C   0  0  0  0  0  0  0  0  0  0  0  0
  141.0400   76.6880  222.7240 C   0  0  0  0  0  0  0  0  0  0  0  0
  140.9510   75.8440  221.4830 C   0  0  0  0  0  0  0  0  0  0  0  0
  139.5060   69.8030  223.8730 C   0  0  0  0  0  0  0  0  0  0  0  0
  139.0470   68.8140  224.7190 C   0  0  0  0  0  0  0  0  0  0  0  0
  139.3060   68.8940  226.0780 C   0  0  0  0  0  0  0  0  0  0  0  0
  140.0280   69.9600  226.6210 C   0  0  0  0  0  0  0  0  0  0  0  0
  140.2890   70.0430  227.9780 C   0  0  0  0  0  0  0  0  0  0  0  0
  141.0110   71.1270  228.4570 C   0  0  0  0  0  0  0  0  0  0  0  0
  141.4450   72.0880  227.5640 C   0  0  0  0  0  0  0  0  0  0  0  0
  141.1960   72.0260  226.2120 C   0  0  0  0  0  0  0  0  0  0  0  0
  140.4680   70.9310  225.7320 C   0  0  0  0  0  0  0  0  0  0  0  0
  140.1990   70.8220  224.4190 N   0  0  0  0  0  0  0  0  0  0  0  0
  140.3750   71.4420  221.8440 H   0  0  0  0  0  0  0  0  0  0  0  0
  140.2191   70.8570  219.4859 H   0  0  0  0  0  0  0  0  0  0  0  0
  139.2789   69.3765  219.9544 H   0  0  0  0  0  0  0  0  0  0  0  0
  138.3813   74.2477  218.9036 H   0  0  0  0  0  0  0  0  0  0  0  0
  137.1637   73.2342  218.2005 H   0  0  0  0  0  0  0  0  0  0  0  0
  136.5382   75.3714  219.8715 H   0  0  0  0  0  0  0  0  0  0  0  0
  135.4979   73.9344  219.8378 H   0  0  0  0  0  0  0  0  0  0  0  0
  137.1081   74.9245  222.0224 H   0  0  0  0  0  0  0  0  0  0  0  0
  136.1043   73.4817  222.0309 H   0  0  0  0  0  0  0  0  0  0  0  0
  138.2999   72.4374  222.1727 H   0  0  0  0  0  0  0  0  0  0  0  0
  138.0181   76.3408  220.4398 H   0  0  0  0  0  0  0  0  0  0  0  0
  137.8906   76.2237  222.2597 H   0  0  0  0  0  0  0  0  0  0  0  0
  139.6294   78.0657  220.6119 H   0  0  0  0  0  0  0  0  0  0  0  0
  138.2946   78.4684  221.7800 H   0  0  0  0  0  0  0  0  0  0  0  0
  139.5614   77.8489  223.6239 H   0  0  0  0  0  0  0  0  0  0  0  0
  140.2044   79.7164  220.7072 H   0  0  0  0  0  0  0  0  0  0  0  0
  141.3699   81.8786  220.6882 H   0  0  0  0  0  0  0  0  0  0  0  0
  142.6914   82.6310  222.6557 H   0  0  0  0  0  0  0  0  0  0  0  0
  142.8131   81.1467  224.6484 H   0  0  0  0  0  0  0  0  0  0  0  0
  141.6457   78.9885  224.6632 H   0  0  0  0  0  0  0  0  0  0  0  0
  142.0750   77.0436  222.8352 H   0  0  0  0  0  0  0  0  0  0  0  0
  140.7330   76.0631  223.5756 H   0  0  0  0  0  0  0  0  0  0  0  0
  141.1863   76.4461  220.5930 H   0  0  0  0  0  0  0  0  0  0  0  0
  141.6674   75.0097  221.5094 H   0  0  0  0  0  0  0  0  0  0  0  0
  138.4769   67.9642  224.3155 H   0  0  0  0  0  0  0  0  0  0  0  0
  138.9351   68.1009  226.7439 H   0  0  0  0  0  0  0  0  0  0  0  0
  139.9300   69.2626  228.6652 H   0  0  0  0  0  0  0  0  0  0  0  0
  141.2342   71.2197  229.5301 H   0  0  0  0  0  0  0  0  0  0  0  0
  142.0170   72.9436  227.9524 H   0  0  0  0  0  0  0  0  0  0  0  0
  141.5571   72.8109  225.5311 H   0  0  0  0  0  0  0  0  0  0  0  0
  1  2  2  0
  2  3  1  0
  3  4  1  0
  4  5  1  0
  5  6  2  0
  5  7  1  0
  7  8  1  0
  8  9  1  0
  9 10  1  0
 10 11  1  0
 11 12  1  0
 12 13  2  0
 12 14  1  0
 14 15  1  0
 15 16  1  0
 16 17  1  0
 17 18  1  0
 18 19  2  0
 19 20  1  0
 20 21  2  0
 21 22  1  0
 22 23  2  0
 17 24  1  0
 24 25  1  0
  2 26  1  0
 26 27  2  0
 27 28  1  0
 28 29  2  0
 29 30  1  0
 30 31  2  0
 31 32  1  0
 32 33  2  0
 33 34  1  0
 34 35  2  0
 11  7  1  0
 25 14  1  0
 35 26  1  0
 23 18  1  0
 34 29  1  0
  3 36  1  0
  4 37  1  0
  4 38  1  0
  8 39  1  0
  8 40  1  0
  9 41  1  0
  9 42  1  0
 10 43  1  0
 10 44  1  0
 11 45  1  1
 15 46  1  0
 15 47  1  0
 16 48  1  0
 16 49  1  0
 17 50  1  0
 19 51  1  0
 20 52  1  0
 21 53  1  0
 22 54  1  0
 23 55  1  0
 24 56  1  0
 24 57  1  0
 25 58  1  0
 25 59  1  0
 27 60  1  0
 28 61  1  0
 30 62  1  0
 31 63  1  0
 32 64  1  0
 33 65  1  0
M  END
>  <smiles>  (50) 
O=C(NCC(=O)N1CCCC1C(=O)N1CCC(c2ccccc2)CC1)c1ccc2ccccc2n1

>  <score_type>  (50) 
oracle

>  <origin>  (50) 
autodockgpu

>  <m_score__min__energy>  (50) 
-9.2699999999999996

>  <m_primary>  (50) 
energy

>  <rmsd>  (50) 
3.4728166583306854

>  <m_score__min__rmsd>  (50) 
3.4728166583306854

>  <meeko>  (50) 
{"free_energy": -8.1, "intermolecular_energy": -9.89, "internal_energy": -2.69, "cluster_size": 11, "cluster_id": 4, "rank_in_cluster": 10}

>  <energy>  (50) 
-6.44

>  <cluster_rmsd>  (50) 
0.0

>  <cluster>  (50) 
8

$$$$

     RDKit          3D

 65 69  0  0  1  0  0  0  0  0999 V2000
  139.7200   71.0220  221.2330 O   0  0  0  0  0  0  0  0  0  0  0  0
  139.6200   71.7100  222.3050 C   0  0  0  0  0  0  0  0  0  0  0  0
  139.2520   73.1080  222.1640 N   0  0  0  0  0  0  0  0  0  0  0  0
  139.0450   73.5540  220.8360 C   0  0  0  0  0  0  0  0  0  0  0  0
  139.6680   74.7570  220.3430 C   0  0  0  0  0  0  0  0  0  0  0  0
  139.4690   74.9450  219.0510 O   0  0  0  0  0  0  0  0  0  0  0  0
  140.4390   75.7650  220.9450 N   0  0  0  0  0  0  0  0  0  0  0  0
  140.7480   76.1290  222.3000 C   0  0  0  0  0  0  0  0  0  0  0  0
  140.7090   77.6820  222.1870 C   0  0  0  0  0  0  0  0  0  0  0  0
  141.7010   77.8040  221.0520 C   0  0  0  0  0  0  0  0  0  0  0  0
  141.1560   76.7510  220.1160 C   0  0  1  0  0  0  0  0  0  0  0  0
  142.2620   76.2520  219.3160 C   0  0  0  0  0  0  0  0  0  0  0  0
  142.5890   77.0620  218.3400 O   0  0  0  0  0  0  0  0  0  0  0  0
  143.0240   75.0920  219.3930 N   0  0  0  0  0  0  0  0  0  0  0  0
  142.9600   74.0280  220.3550 C   0  0  0  0  0  0  0  0  0  0  0  0
  144.3720   73.5230  220.6200 C   0  0  0  0  0  0  0  0  0  0  0  0
  144.8980   72.8430  219.4070 C   0  0  0  0  0  0  0  0  0  0  0  0
  144.8220   71.3790  219.4360 C   0  0  0  0  0  0  0  0  0  0  0  0
  143.5820   70.7770  219.7020 C   0  0  0  0  0  0  0  0  0  0  0  0
  143.4460   69.4020  219.7420 C   0  0  0  0  0  0  0  0  0  0  0  0
  144.5120   68.5570  219.5260 C   0  0  0  0  0  0  0  0  0  0  0  0
  145.7300   69.1330  219.2650 C   0  0  0  0  0  0  0  0  0  0  0  0
  145.8640   70.5150  219.2240 C   0  0  0  0  0  0  0  0  0  0  0  0
  144.2990   73.4040  218.1330 C   0  0  0  0  0  0  0  0  0  0  0  0
  144.0380   74.9030  218.3190 C   0  0  0  0  0  0  0  0  0  0  0  0
  139.8580   71.1360  223.6220 C   0  0  0  0  0  0  0  0  0  0  0  0
  139.5590   69.7960  223.7840 C   0  0  0  0  0  0  0  0  0  0  0  0
  139.7730   69.2430  225.0420 C   0  0  0  0  0  0  0  0  0  0  0  0
  140.2700   70.0330  226.0670 C   0  0  0  0  0  0  0  0  0  0  0  0
  140.4850   69.4840  227.3240 C   0  0  0  0  0  0  0  0  0  0  0  0
  140.9860   70.3050  228.3430 C   0  0  0  0  0  0  0  0  0  0  0  0
  141.2680   71.6250  228.1350 C   0  0  0  0  0  0  0  0  0  0  0  0
  141.0540   72.1790  226.8750 C   0  0  0  0  0  0  0  0  0  0  0  0
  140.5580   71.3700  225.8660 C   0  0  0  0  0  0  0  0  0  0  0  0
  140.3430   71.8920  224.6370 N   0  0  0  0  0  0  0  0  0  0  0  0
  139.1990   73.6130  223.0500 H   0  0  0  0  0  0  0  0  0  0  0  0
  139.3798   72.7384  220.1782 H   0  0  0  0  0  0  0  0  0  0  0  0
  137.9782   73.8223  220.8386 H   0  0  0  0  0  0  0  0  0  0  0  0
  139.9918   75.7531  223.0049 H   0  0  0  0  0  0  0  0  0  0  0  0
  141.6943   75.7189  222.6825 H   0  0  0  0  0  0  0  0  0  0  0  0
  139.7118   78.0603  221.9179 H   0  0  0  0  0  0  0  0  0  0  0  0
  140.9328   78.2499  223.1021 H   0  0  0  0  0  0  0  0  0  0  0  0
  141.6803   78.8053  220.5971 H   0  0  0  0  0  0  0  0  0  0  0  0
  142.7542   77.6692  221.3395 H   0  0  0  0  0  0  0  0  0  0  0  0
  140.4200   77.1160  219.3845 H   0  0  0  0  0  0  0  0  0  0  0  0
  142.5188   74.4014  221.2909 H   0  0  0  0  0  0  0  0  0  0  0  0
  142.3361   73.2093  219.9670 H   0  0  0  0  0  0  0  0  0  0  0  0
  145.0226   74.3730  220.8735 H   0  0  0  0  0  0  0  0  0  0  0  0
  144.3522   72.8098  221.4572 H   0  0  0  0  0  0  0  0  0  0  0  0
  145.9738   73.0726  219.4137 H   0  0  0  0  0  0  0  0  0  0  0  0
  142.7018   71.4116  219.8820 H   0  0  0  0  0  0  0  0  0  0  0  0
  142.4567   68.9697  219.9527 H   0  0  0  0  0  0  0  0  0  0  0  0
  144.3919   67.4641  219.5613 H   0  0  0  0  0  0  0  0  0  0  0  0
  146.6079   68.4947  219.0867 H   0  0  0  0  0  0  0  0  0  0  0  0
  146.8571   70.9371  219.0105 H   0  0  0  0  0  0  0  0  0  0  0  0
  144.9999   73.2529  217.2988 H   0  0  0  0  0  0  0  0  0  0  0  0
  143.3535   72.8882  217.9097 H   0  0  0  0  0  0  0  0  0  0  0  0
  144.9735   75.4072  218.6029 H   0  0  0  0  0  0  0  0  0  0  0  0
  143.6653   75.3336  217.3779 H   0  0  0  0  0  0  0  0  0  0  0  0
  139.1679   69.1920  222.9520 H   0  0  0  0  0  0  0  0  0  0  0  0
  139.5485   68.1815  225.2232 H   0  0  0  0  0  0  0  0  0  0  0  0
  140.2659   68.4234  227.5165 H   0  0  0  0  0  0  0  0  0  0  0  0
  141.1573   69.8735  229.3402 H   0  0  0  0  0  0  0  0  0  0  0  0
  141.6604   72.2448  228.9547 H   0  0  0  0  0  0  0  0  0  0  0  0
  141.2749   73.2397  226.6848 H   0  0  0  0  0  0  0  0  0  0  0  0
  1  2  2  0
  2  3  1  0
  3  4  1  0
  4  5  1  0
  5  6  2  0
  5  7  1  0
  7  8  1  0
  8  9  1  0
  9 10  1  0
 10 11  1  0
 11 12  1  0
 12 13  2  0
 12 14  1  0
 14 15  1  0
 15 16  1  0
 16 17  1  0
 17 18  1  0
 18 19  2  0
 19 20  1  0
 20 21  2  0
 21 22  1  0
 22 23  2  0
 17 24  1  0
 24 25  1  0
  2 26  1  0
 26 27  2  0
 27 28  1  0
 28 29  2  0
 29 30  1  0
 30 31  2  0
 31 32  1  0
 32 33  2  0
 33 34  1  0
 34 35  2  0
 11  7  1  0
 25 14  1  0
 35 26  1  0
 23 18  1  0
 34 29  1  0
  3 36  1  0
  4 37  1  0
  4 38  1  0
  8 39  1  0
  8 40  1  0
  9 41  1  0
  9 42  1  0
 10 43  1  0
 10 44  1  0
 11 45  1  6
 15 46  1  0
 15 47  1  0
 16 48  1  0
 16 49  1  0
 17 50  1  0
 19 51  1  0
 20 52  1  0
 21 53  1  0
 22 54  1  0
 23 55  1  0
 24 56  1  0
 24 57  1  0
 25 58  1  0
 25 59  1  0
 27 60  1  0
 28 61  1  0
 30 62  1  0
 31 63  1  0
 32 64  1  0
 33 65  1  0
M  END
>  <smiles>  (51) 
O=C(NCC(=O)N1CCCC1C(=O)N1CCC(c2ccccc2)CC1)c1ccc2ccccc2n1

>  <score_type>  (51) 
oracle

>  <origin>  (51) 
autodockgpu

>  <m_score__min__energy>  (51) 
-9.4900000000000002

>  <m_primary>  (51) 
energy

>  <rmsd>  (51) 
5.676825231129782

>  <m_score__min__rmsd>  (51) 
5.676825231129782

>  <meeko>  (51) 
{"free_energy": -8.78, "intermolecular_energy": -10.57, "internal_energy": -2.39, "cluster_size": 6, "cluster_id": 2, "rank_in_cluster": 6}

>  <energy>  (51) 
-9.49

>  <cluster_rmsd>  (51) 
0.0

>  <cluster>  (51) 
1

$$$$

     RDKit          3D

 65 69  0  0  1  0  0  0  0  0999 V2000
  135.1980   76.9200  223.8160 O   0  0  0  0  0  0  0  0  0  0  0  0
  135.5830   75.7010  223.7960 C   0  0  0  0  0  0  0  0  0  0  0  0
  136.6590   75.3610  222.8820 N   0  0  0  0  0  0  0  0  0  0  0  0
  137.1650   76.4330  222.1070 C   0  0  0  0  0  0  0  0  0  0  0  0
  138.5830   76.6460  221.9560 C   0  0  0  0  0  0  0  0  0  0  0  0
  138.9300   77.9110  222.1050 O   0  0  0  0  0  0  0  0  0  0  0  0
  139.6660   75.7940  221.6820 N   0  0  0  0  0  0  0  0  0  0  0  0
  141.0620   75.7910  222.0240 C   0  0  0  0  0  0  0  0  0  0  0  0
  141.6730   75.2760  220.6870 C   0  0  0  0  0  0  0  0  0  0  0  0
  140.8460   74.0140  220.5860 C   0  0  0  0  0  0  0  0  0  0  0  0
  139.4730   74.5810  220.8670 C   0  0  1  0  0  0  0  0  0  0  0  0
  138.6670   73.5220  221.4520 C   0  0  0  0  0  0  0  0  0  0  0  0
  137.4430   73.4980  220.9830 O   0  0  0  0  0  0  0  0  0  0  0  0
  138.9480   72.5460  222.4010 N   0  0  0  0  0  0  0  0  0  0  0  0
  140.1850   72.2680  223.0750 C   0  0  0  0  0  0  0  0  0  0  0  0
  140.3110   70.7620  223.2620 C   0  0  0  0  0  0  0  0  0  0  0  0
  139.2890   70.2890  224.2340 C   0  0  0  0  0  0  0  0  0  0  0  0
  139.7850   70.0760  225.5970 C   0  0  0  0  0  0  0  0  0  0  0  0
  139.6680   68.7960  226.1620 C   0  0  0  0  0  0  0  0  0  0  0  0
  140.1170   68.5330  227.4420 C   0  0  0  0  0  0  0  0  0  0  0  0
  140.6980   69.5050  228.2260 C   0  0  0  0  0  0  0  0  0  0  0  0
  140.8180   70.7610  227.6860 C   0  0  0  0  0  0  0  0  0  0  0  0
  140.3670   71.0230  226.3980 C   0  0  0  0  0  0  0  0  0  0  0  0
  138.0480   71.1590  224.2250 C   0  0  0  0  0  0  0  0  0  0  0  0
  137.8090   71.6760  222.8020 C   0  0  0  0  0  0  0  0  0  0  0  0
  134.9830   74.6830  224.6460 C   0  0  0  0  0  0  0  0  0  0  0  0
  134.1400   75.1230  225.6500 C   0  0  0  0  0  0  0  0  0  0  0  0
  133.5720   74.1560  226.4730 C   0  0  0  0  0  0  0  0  0  0  0  0
  133.8590   72.8170  226.2650 C   0  0  0  0  0  0  0  0  0  0  0  0
  133.2930   71.8500  227.0850 C   0  0  0  0  0  0  0  0  0  0  0  0
  133.6020   70.5030  226.8530 C   0  0  0  0  0  0  0  0  0  0  0  0
  134.4410   70.1150  225.8470 C   0  0  0  0  0  0  0  0  0  0  0  0
  135.0100   71.0830  225.0230 C   0  0  0  0  0  0  0  0  0  0  0  0
  134.7080   72.4150  225.2490 C   0  0  0  0  0  0  0  0  0  0  0  0
  135.2520   73.3690  224.4580 N   0  0  0  0  0  0  0  0  0  0  0  0
  136.9170   74.3730  222.8980 H   0  0  0  0  0  0  0  0  0  0  0  0
  136.7605   76.3013  221.0926 H   0  0  0  0  0  0  0  0  0  0  0  0
  136.8525   77.3140  222.6868 H   0  0  0  0  0  0  0  0  0  0  0  0
  141.4221   76.7997  222.2745 H   0  0  0  0  0  0  0  0  0  0  0  0
  141.3185   75.1910  222.9096 H   0  0  0  0  0  0  0  0  0  0  0  0
  141.4943   75.9654  219.8487 H   0  0  0  0  0  0  0  0  0  0  0  0
  142.7658   75.1542  220.6578 H   0  0  0  0  0  0  0  0  0  0  0  0
  140.9056   73.5653  219.5835 H   0  0  0  0  0  0  0  0  0  0  0  0
  141.1581   73.1991  221.2557 H   0  0  0  0  0  0  0  0  0  0  0  0
  138.9128   74.9054  219.9776 H   0  0  0  0  0  0  0  0  0  0  0  0
  141.0268   72.6378  222.4712 H   0  0  0  0  0  0  0  0  0  0  0  0
  140.1997   72.7699  224.0537 H   0  0  0  0  0  0  0  0  0  0  0  0
  140.1564   70.2596  222.2957 H   0  0  0  0  0  0  0  0  0  0  0  0
  141.3146   70.5258  223.6455 H   0  0  0  0  0  0  0  0  0  0  0  0
  139.0121   69.2880  223.8715 H   0  0  0  0  0  0  0  0  0  0  0  0
  139.2100   67.9868  225.5742 H   0  0  0  0  0  0  0  0  0  0  0  0
  140.0071   67.5163  227.8472 H   0  0  0  0  0  0  0  0  0  0  0  0
  141.0515   69.2835  229.2438 H   0  0  0  0  0  0  0  0  0  0  0  0
  141.2752   71.5675  228.2780 H   0  0  0  0  0  0  0  0  0  0  0  0
  140.4832   72.0424  226.0014 H   0  0  0  0  0  0  0  0  0  0  0  0
  137.1806   70.5670  224.5525 H   0  0  0  0  0  0  0  0  0  0  0  0
  138.1857   72.0086  224.9100 H   0  0  0  0  0  0  0  0  0  0  0  0
  137.7339   70.8251  222.1089 H   0  0  0  0  0  0  0  0  0  0  0  0
  136.8732   72.2534  222.7703 H   0  0  0  0  0  0  0  0  0  0  0  0
  133.9275   76.1929  225.7919 H   0  0  0  0  0  0  0  0  0  0  0  0
  132.8959   74.4543  227.2878 H   0  0  0  0  0  0  0  0  0  0  0  0
  132.6143   72.1361  227.9020 H   0  0  0  0  0  0  0  0  0  0  0  0
  133.1553   69.7344  227.5008 H   0  0  0  0  0  0  0  0  0  0  0  0
  134.6647   69.0496  225.6895 H   0  0  0  0  0  0  0  0  0  0  0  0
  135.6879   70.7940  224.2064 H   0  0  0  0  0  0  0  0  0  0  0  0
  1  2  2  0
  2  3  1  0
  3  4  1  0
  4  5  1  0
  5  6  2  0
  5  7  1  0
  7  8  1  0
  8  9  1  0
  9 10  1  0
 10 11  1  0
 11 12  1  0
 12 13  2  0
 12 14  1  0
 14 15  1  0
 15 16  1  0
 16 17  1  0
 17 18  1  0
 18 19  2  0
 19 20  1  0
 20 21  2  0
 21 22  1  0
 22 23  2  0
 17 24  1  0
 24 25  1  0
  2 26  1  0
 26 27  2  0
 27 28  1  0
 28 29  2  0
 29 30  1  0
 30 31  2  0
 31 32  1  0
 32 33  2  0
 33 34  1  0
 34 35  2  0
 11  7  1  0
 25 14  1  0
 35 26  1  0
 23 18  1  0
 34 29  1  0
  3 36  1  0
  4 37  1  0
  4 38  1  0
  8 39  1  0
  8 40  1  0
  9 41  1  0
  9 42  1  0
 10 43  1  0
 10 44  1  0
 11 45  1  6
 15 46  1  0
 15 47  1  0
 16 48  1  0
 16 49  1  0
 17 50  1  0
 19 51  1  0
 20 52  1  0
 21 53  1  0
 22 54  1  0
 23 55  1  0
 24 56  1  0
 24 57  1  0
 25 58  1  0
 25 59  1  0
 27 60  1  0
 28 61  1  0
 30 62  1  0
 31 63  1  0
 32 64  1  0
 33 65  1  0
M  END
>  <smiles>  (52) 
O=C(NCC(=O)N1CCCC1C(=O)N1CCC(c2ccccc2)CC1)c1ccc2ccccc2n1

>  <score_type>  (52) 
oracle

>  <origin>  (52) 
autodockgpu

>  <m_score__min__energy>  (52) 
-9.4900000000000002

>  <m_primary>  (52) 
energy

>  <rmsd>  (52) 
7.779688709895787

>  <m_score__min__rmsd>  (52) 
7.779688709895787

>  <meeko>  (52) 
{"free_energy": -8.16, "intermolecular_energy": -9.95, "internal_energy": -3.42, "cluster_size": 16, "cluster_id": 6, "rank_in_cluster": 6}

>  <energy>  (52) 
-9.46

>  <cluster_rmsd>  (52) 
1.61

>  <cluster>  (52) 
1

$$$$

     RDKit          3D

 65 69  0  0  1  0  0  0  0  0999 V2000
  138.9970   75.1990  221.8360 O   0  0  0  0  0  0  0  0  0  0  0  0
  140.1270   75.7870  221.9400 C   0  0  0  0  0  0  0  0  0  0  0  0
  141.3060   75.0290  221.5580 N   0  0  0  0  0  0  0  0  0  0  0  0
  141.0640   73.7080  221.1090 C   0  0  0  0  0  0  0  0  0  0  0  0
  142.1480   72.7920  220.8520 C   0  0  0  0  0  0  0  0  0  0  0  0
  141.7590   71.5310  220.8280 O   0  0  0  0  0  0  0  0  0  0  0  0
  143.5240   72.9600  220.6240 N   0  0  0  0  0  0  0  0  0  0  0  0
  144.6490   72.0710  220.5270 C   0  0  0  0  0  0  0  0  0  0  0  0
  145.7330   72.9150  221.2600 C   0  0  0  0  0  0  0  0  0  0  0  0
  145.5910   74.1630  220.4160 C   0  0  0  0  0  0  0  0  0  0  0  0
  144.0870   74.3070  220.4190 C   0  0  1  0  0  0  0  0  0  0  0  0
  143.7050   74.9960  219.1970 C   0  0  0  0  0  0  0  0  0  0  0  0
  144.0210   74.3270  218.1160 O   0  0  0  0  0  0  0  0  0  0  0  0
  143.0760   76.2140  218.9670 N   0  0  0  0  0  0  0  0  0  0  0  0
  142.5660   77.1640  219.9160 C   0  0  0  0  0  0  0  0  0  0  0  0
  141.2940   77.7830  219.3520 C   0  0  0  0  0  0  0  0  0  0  0  0
  141.6270   78.6320  218.1770 C   0  0  0  0  0  0  0  0  0  0  0  0
  141.7010   80.0700  218.4560 C   0  0  0  0  0  0  0  0  0  0  0  0
  141.1770   80.5480  219.6670 C   0  0  0  0  0  0  0  0  0  0  0  0
  141.2180   81.8910  219.9870 C   0  0  0  0  0  0  0  0  0  0  0  0
  141.7700   82.8270  219.1400 C   0  0  0  0  0  0  0  0  0  0  0  0
  142.2850   82.3730  217.9510 C   0  0  0  0  0  0  0  0  0  0  0  0
  142.2440   81.0220  217.6330 C   0  0  0  0  0  0  0  0  0  0  0  0
  142.8650   78.1450  217.4530 C   0  0  0  0  0  0  0  0  0  0  0  0
  142.9280   76.6150  217.5420 C   0  0  0  0  0  0  0  0  0  0  0  0
  140.2500   77.1570  222.4170 C   0  0  0  0  0  0  0  0  0  0  0  0
  139.0750   77.8280  222.7010 C   0  0  0  0  0  0  0  0  0  0  0  0
  139.1840   79.1410  223.1470 C   0  0  0  0  0  0  0  0  0  0  0  0
  140.4350   79.7200  223.2910 C   0  0  0  0  0  0  0  0  0  0  0  0
  140.5460   81.0300  223.7360 C   0  0  0  0  0  0  0  0  0  0  0  0
  141.8230   81.5910  223.8710 C   0  0  0  0  0  0  0  0  0  0  0  0
  142.9570   80.8880  223.5780 C   0  0  0  0  0  0  0  0  0  0  0  0
  142.8490   79.5730  223.1330 C   0  0  0  0  0  0  0  0  0  0  0  0
  141.5880   79.0160  222.9970 C   0  0  0  0  0  0  0  0  0  0  0  0
  141.4640   77.7400  222.5640 N   0  0  0  0  0  0  0  0  0  0  0  0
  142.1820   75.5420  221.6730 H   0  0  0  0  0  0  0  0  0  0  0  0
  140.4287   73.2322  221.8706 H   0  0  0  0  0  0  0  0  0  0  0  0
  140.6470   73.8709  220.1042 H   0  0  0  0  0  0  0  0  0  0  0  0
  144.4595   71.1170  221.0407 H   0  0  0  0  0  0  0  0  0  0  0  0
  144.9130   71.7719  219.5019 H   0  0  0  0  0  0  0  0  0  0  0  0
  145.4864   73.0910  222.3174 H   0  0  0  0  0  0  0  0  0  0  0  0
  146.7393   72.4758  221.3266 H   0  0  0  0  0  0  0  0  0  0  0  0
  146.0856   75.0290  220.8801 H   0  0  0  0  0  0  0  0  0  0  0  0
  146.0504   74.1042  219.4182 H   0  0  0  0  0  0  0  0  0  0  0  0
  143.6812   74.9260  221.2327 H   0  0  0  0  0  0  0  0  0  0  0  0
  142.3407   76.6549  220.8647 H   0  0  0  0  0  0  0  0  0  0  0  0
  143.3147   77.9485  220.1002 H   0  0  0  0  0  0  0  0  0  0  0  0
  140.6050   76.9836  219.0418 H   0  0  0  0  0  0  0  0  0  0  0  0
  140.8170   78.4029  220.1254 H   0  0  0  0  0  0  0  0  0  0  0  0
  140.7646   78.5140  217.5045 H   0  0  0  0  0  0  0  0  0  0  0  0
  140.7245   79.8387  220.3757 H   0  0  0  0  0  0  0  0  0  0  0  0
  140.7971   82.2234  220.9474 H   0  0  0  0  0  0  0  0  0  0  0  0
  141.7970   83.8942  219.4054 H   0  0  0  0  0  0  0  0  0  0  0  0
  142.7342   83.0860  217.2439 H   0  0  0  0  0  0  0  0  0  0  0  0
  142.6691   80.6992  216.6712 H   0  0  0  0  0  0  0  0  0  0  0  0
  142.8190   78.4512  216.3975 H   0  0  0  0  0  0  0  0  0  0  0  0
  143.7619   78.5809  217.9173 H   0  0  0  0  0  0  0  0  0  0  0  0
  142.0023   76.1842  217.1327 H   0  0  0  0  0  0  0  0  0  0  0  0
  143.7873   76.2460  216.9629 H   0  0  0  0  0  0  0  0  0  0  0  0
  138.0949   77.3437  222.5793 H   0  0  0  0  0  0  0  0  0  0  0  0
  138.2788   79.7189  223.3850 H   0  0  0  0  0  0  0  0  0  0  0  0
  139.6479   81.6171  223.9783 H   0  0  0  0  0  0  0  0  0  0  0  0
  141.9150   82.6289  224.2236 H   0  0  0  0  0  0  0  0  0  0  0  0
  143.9458   81.3561  223.6925 H   0  0  0  0  0  0  0  0  0  0  0  0
  143.7487   78.9871  222.8938 H   0  0  0  0  0  0  0  0  0  0  0  0
  1  2  2  0
  2  3  1  0
  3  4  1  0
  4  5  1  0
  5  6  2  0
  5  7  1  0
  7  8  1  0
  8  9  1  0
  9 10  1  0
 10 11  1  0
 11 12  1  0
 12 13  2  0
 12 14  1  0
 14 15  1  0
 15 16  1  0
 16 17  1  0
 17 18  1  0
 18 19  2  0
 19 20  1  0
 20 21  2  0
 21 22  1  0
 22 23  2  0
 17 24  1  0
 24 25  1  0
  2 26  1  0
 26 27  2  0
 27 28  1  0
 28 29  2  0
 29 30  1  0
 30 31  2  0
 31 32  1  0
 32 33  2  0
 33 34  1  0
 34 35  2  0
 11  7  1  0
 25 14  1  0
 35 26  1  0
 23 18  1  0
 34 29  1  0
  3 36  1  0
  4 37  1  0
  4 38  1  0
  8 39  1  0
  8 40  1  0
  9 41  1  0
  9 42  1  0
 10 43  1  0
 10 44  1  0
 11 45  1  1
 15 46  1  0
 15 47  1  0
 16 48  1  0
 16 49  1  0
 17 50  1  0
 19 51  1  0
 20 52  1  0
 21 53  1  0
 22 54  1  0
 23 55  1  0
 24 56  1  0
 24 57  1  0
 25 58  1  0
 25 59  1  0
 27 60  1  0
 28 61  1  0
 30 62  1  0
 31 63  1  0
 32 64  1  0
 33 65  1  0
M  END
>  <smiles>  (53) 
O=C(NCC(=O)N1CCCC1C(=O)N1CCC(c2ccccc2)CC1)c1ccc2ccccc2n1

>  <score_type>  (53) 
oracle

>  <origin>  (53) 
autodockgpu

>  <m_score__min__energy>  (53) 
-9.4900000000000002

>  <m_primary>  (53) 
energy

>  <rmsd>  (53) 
7.099243886001692

>  <m_score__min__rmsd>  (53) 
7.099243886001692

>  <meeko>  (53) 
{"free_energy": -8.77, "intermolecular_energy": -10.56, "internal_energy": -3.52, "cluster_size": 13, "cluster_id": 4, "rank_in_cluster": 3}

>  <energy>  (53) 
-9.35

>  <cluster_rmsd>  (53) 
1.45

>  <cluster>  (53) 
1

$$$$

     RDKit          3D

 65 69  0  0  1  0  0  0  0  0999 V2000
  135.0780   76.6710  224.5630 O   0  0  0  0  0  0  0  0  0  0  0  0
  135.4850   75.4920  224.2830 C   0  0  0  0  0  0  0  0  0  0  0  0
  136.5700   75.3760  223.3240 N   0  0  0  0  0  0  0  0  0  0  0  0
  137.0580   76.5990  222.8030 C   0  0  0  0  0  0  0  0  0  0  0  0
  138.1510   76.6310  221.8630 C   0  0  0  0  0  0  0  0  0  0  0  0
  138.0230   77.5860  220.9600 O   0  0  0  0  0  0  0  0  0  0  0  0
  139.3160   75.8630  221.7060 N   0  0  0  0  0  0  0  0  0  0  0  0
  140.6830   76.0000  222.1280 C   0  0  0  0  0  0  0  0  0  0  0  0
  141.4180   75.4650  220.8640 C   0  0  0  0  0  0  0  0  0  0  0  0
  140.7070   74.1320  220.7920 C   0  0  0  0  0  0  0  0  0  0  0  0
  139.2770   74.5930  220.9570 C   0  0  1  0  0  0  0  0  0  0  0  0
  138.5250   73.5030  221.5570 C   0  0  0  0  0  0  0  0  0  0  0  0
  137.2810   73.4600  221.1510 O   0  0  0  0  0  0  0  0  0  0  0  0
  138.8770   72.5140  222.4680 N   0  0  0  0  0  0  0  0  0  0  0  0
  140.1530   72.2510  223.0720 C   0  0  0  0  0  0  0  0  0  0  0  0
  140.3230   70.7440  223.2180 C   0  0  0  0  0  0  0  0  0  0  0  0
  139.3630   70.2260  224.2290 C   0  0  0  0  0  0  0  0  0  0  0  0
  139.9330   69.9950  225.5610 C   0  0  0  0  0  0  0  0  0  0  0  0
  140.4200   71.0960  226.2830 C   0  0  0  0  0  0  0  0  0  0  0  0
  140.9680   70.9420  227.5420 C   0  0  0  0  0  0  0  0  0  0  0  0
  141.0630   69.7100  228.1510 C   0  0  0  0  0  0  0  0  0  0  0  0
  140.5900   68.6260  227.4560 C   0  0  0  0  0  0  0  0  0  0  0  0
  140.0390   68.7830  226.1900 C   0  0  0  0  0  0  0  0  0  0  0  0
  138.1040   71.0660  224.3040 C   0  0  0  0  0  0  0  0  0  0  0  0
  137.7800   71.6080  222.9060 C   0  0  0  0  0  0  0  0  0  0  0  0
  134.9020   74.3030  224.8890 C   0  0  0  0  0  0  0  0  0  0  0  0
  134.0110   74.5030  225.9270 C   0  0  0  0  0  0  0  0  0  0  0  0
  133.4580   73.3720  226.5180 C   0  0  0  0  0  0  0  0  0  0  0  0
  133.8060   72.1120  226.0570 C   0  0  0  0  0  0  0  0  0  0  0  0
  133.2560   70.9810  226.6450 C   0  0  0  0  0  0  0  0  0  0  0  0
  133.6260   69.7200  226.1600 C   0  0  0  0  0  0  0  0  0  0  0  0
  134.5110   69.5720  225.1300 C   0  0  0  0  0  0  0  0  0  0  0  0
  135.0640   70.7040  224.5380 C   0  0  0  0  0  0  0  0  0  0  0  0
  134.7010   71.9530  225.0150 C   0  0  0  0  0  0  0  0  0  0  0  0
  135.2300   73.0630  224.4520 N   0  0  0  0  0  0  0  0  0  0  0  0
  136.8470   74.4130  223.1280 H   0  0  0  0  0  0  0  0  0  0  0  0
  136.2065   77.0875  222.3067 H   0  0  0  0  0  0  0  0  0  0  0  0
  137.4939   77.0792  223.6914 H   0  0  0  0  0  0  0  0  0  0  0  0
  140.9417   77.0487  222.3361 H   0  0  0  0  0  0  0  0  0  0  0  0
  140.9317   75.4754  223.0623 H   0  0  0  0  0  0  0  0  0  0  0  0
  141.2364   76.0879  219.9757 H   0  0  0  0  0  0  0  0  0  0  0  0
  142.5168   75.4366  220.9069 H   0  0  0  0  0  0  0  0  0  0  0  0
  140.8673   73.6348  219.8240 H   0  0  0  0  0  0  0  0  0  0  0  0
  141.0427   73.3857  221.5271 H   0  0  0  0  0  0  0  0  0  0  0  0
  138.7500   74.8172  220.0178 H   0  0  0  0  0  0  0  0  0  0  0  0
  140.9542   72.6539  222.4350 H   0  0  0  0  0  0  0  0  0  0  0  0
  140.2062   72.7316  224.0600 H   0  0  0  0  0  0  0  0  0  0  0  0
  140.1310   70.2590  222.2495 H   0  0  0  0  0  0  0  0  0  0  0  0
  141.3499   70.5236  223.5448 H   0  0  0  0  0  0  0  0  0  0  0  0
  139.0907   69.2273  223.8569 H   0  0  0  0  0  0  0  0  0  0  0  0
  140.3643   72.1004  225.8380 H   0  0  0  0  0  0  0  0  0  0  0  0
  141.3397   71.8301  228.0742 H   0  0  0  0  0  0  0  0  0  0  0  0
  141.5005   69.5999  229.1542 H   0  0  0  0  0  0  0  0  0  0  0  0
  140.6474   67.6234  227.9049 H   0  0  0  0  0  0  0  0  0  0  0  0
  139.6694   67.8888  225.6667 H   0  0  0  0  0  0  0  0  0  0  0  0
  137.2684   70.4466  224.6620 H   0  0  0  0  0  0  0  0  0  0  0  0
  138.2575   71.9035  225.0004 H   0  0  0  0  0  0  0  0  0  0  0  0
  137.6892   70.7707  222.1984 H   0  0  0  0  0  0  0  0  0  0  0  0
  136.8306   72.1628  222.9347 H   0  0  0  0  0  0  0  0  0  0  0  0
  133.7503   75.5147  226.2712 H   0  0  0  0  0  0  0  0  0  0  0  0
  132.7458   73.4772  227.3497 H   0  0  0  0  0  0  0  0  0  0  0  0
  132.5423   71.0735  227.4770 H   0  0  0  0  0  0  0  0  0  0  0  0
  133.1908   68.8219  226.6225 H   0  0  0  0  0  0  0  0  0  0  0  0
  134.7839   68.5683  224.7720 H   0  0  0  0  0  0  0  0  0  0  0  0
  135.7769   70.6085  223.7058 H   0  0  0  0  0  0  0  0  0  0  0  0
  1  2  2  0
  2  3  1  0
  3  4  1  0
  4  5  1  0
  5  6  2  0
  5  7  1  0
  7  8  1  0
  8  9  1  0
  9 10  1  0
 10 11  1  0
 11 12  1  0
 12 13  2  0
 12 14  1  0
 14 15  1  0
 15 16  1  0
 16 17  1  0
 17 18  1  0
 18 19  2  0
 19 20  1  0
 20 21  2  0
 21 22  1  0
 22 23  2  0
 17 24  1  0
 24 25  1  0
  2 26  1  0
 26 27  2  0
 27 28  1  0
 28 29  2  0
 29 30  1  0
 30 31  2  0
 31 32  1  0
 32 33  2  0
 33 34  1  0
 34 35  2  0
 11  7  1  0
 25 14  1  0
 35 26  1  0
 23 18  1  0
 34 29  1  0
  3 36  1  0
  4 37  1  0
  4 38  1  0
  8 39  1  0
  8 40  1  0
  9 41  1  0
  9 42  1  0
 10 43  1  0
 10 44  1  0
 11 45  1  6
 15 46  1  0
 15 47  1  0
 16 48  1  0
 16 49  1  0
 17 50  1  0
 19 51  1  0
 20 52  1  0
 21 53  1  0
 22 54  1  0
 23 55  1  0
 24 56  1  0
 24 57  1  0
 25 58  1  0
 25 59  1  0
 27 60  1  0
 28 61  1  0
 30 62  1  0
 31 63  1  0
 32 64  1  0
 33 65  1  0
M  END
>  <smiles>  (54) 
O=C(NCC(=O)N1CCCC1C(=O)N1CCC(c2ccccc2)CC1)c1ccc2ccccc2n1

>  <score_type>  (54) 
oracle

>  <origin>  (54) 
autodockgpu

>  <m_score__min__energy>  (54) 
-9.4900000000000002

>  <m_primary>  (54) 
energy

>  <rmsd>  (54) 
7.453996618883318

>  <m_score__min__rmsd>  (54) 
7.453996618883318

>  <meeko>  (54) 
{"free_energy": -8.01, "intermolecular_energy": -9.8, "internal_energy": -3.36, "cluster_size": 16, "cluster_id": 6, "rank_in_cluster": 10}

>  <energy>  (54) 
-9.32

>  <cluster_rmsd>  (54) 
1.87

>  <cluster>  (54) 
1

$$$$

     RDKit          3D

 65 69  0  0  1  0  0  0  0  0999 V2000
  140.9060   77.3430  218.2340 O   0  0  0  0  0  0  0  0  0  0  0  0
  141.9280   77.7670  218.8740 C   0  0  0  0  0  0  0  0  0  0  0  0
  143.1930   77.0990  218.6190 N   0  0  0  0  0  0  0  0  0  0  0  0
  143.1470   76.0410  217.6790 C   0  0  0  0  0  0  0  0  0  0  0  0
  143.1740   74.6620  218.0990 C   0  0  0  0  0  0  0  0  0  0  0  0
  142.5730   73.8540  217.2450 O   0  0  0  0  0  0  0  0  0  0  0  0
  143.7010   74.0020  219.2210 N   0  0  0  0  0  0  0  0  0  0  0  0
  144.8300   74.2170  220.0840 C   0  0  0  0  0  0  0  0  0  0  0  0
  145.2900   72.7460  220.3090 C   0  0  0  0  0  0  0  0  0  0  0  0
  143.9630   72.2160  220.8040 C   0  0  0  0  0  0  0  0  0  0  0  0
  143.0450   72.7930  219.7510 C   0  0  1  0  0  0  0  0  0  0  0  0
  141.7340   72.9700  220.3530 C   0  0  0  0  0  0  0  0  0  0  0  0
  141.0460   71.8570  220.4110 O   0  0  0  0  0  0  0  0  0  0  0  0
  141.0850   74.0850  220.8710 N   0  0  0  0  0  0  0  0  0  0  0  0
  141.5630   75.4330  221.0000 C   0  0  0  0  0  0  0  0  0  0  0  0
  141.0150   76.0240  222.2930 C   0  0  0  0  0  0  0  0  0  0  0  0
  139.5430   76.2030  222.1780 C   0  0  0  0  0  0  0  0  0  0  0  0
  139.1090   77.5680  221.8640 C   0  0  0  0  0  0  0  0  0  0  0  0
  139.1060   78.5250  222.8910 C   0  0  0  0  0  0  0  0  0  0  0  0
  138.7090   79.8270  222.6580 C   0  0  0  0  0  0  0  0  0  0  0  0
  138.2960   80.2530  221.4140 C   0  0  0  0  0  0  0  0  0  0  0  0
  138.2930   79.3270  220.4010 C   0  0  0  0  0  0  0  0  0  0  0  0
  138.6950   78.0180  220.6380 C   0  0  0  0  0  0  0  0  0  0  0  0
  138.9160   75.1930  221.2380 C   0  0  0  0  0  0  0  0  0  0  0  0
  139.6880   73.8710  221.3360 C   0  0  0  0  0  0  0  0  0  0  0  0
  141.8500   78.8700  219.8210 C   0  0  0  0  0  0  0  0  0  0  0  0
  141.4130   80.0860  219.3290 C   0  0  0  0  0  0  0  0  0  0  0  0
  141.3460   81.1480  220.2250 C   0  0  0  0  0  0  0  0  0  0  0  0
  141.7090   80.9580  221.5490 C   0  0  0  0  0  0  0  0  0  0  0  0
  141.6430   82.0160  222.4460 C   0  0  0  0  0  0  0  0  0  0  0  0
  142.0180   81.7960  223.7780 C   0  0  0  0  0  0  0  0  0  0  0  0
  142.4440   80.5750  224.2180 C   0  0  0  0  0  0  0  0  0  0  0  0
  142.5100   79.5120  223.3210 C   0  0  0  0  0  0  0  0  0  0  0  0
  142.1420   79.7250  222.0030 C   0  0  0  0  0  0  0  0  0  0  0  0
  142.2010   78.7040  221.1180 N   0  0  0  0  0  0  0  0  0  0  0  0
  143.9720   77.4690  219.1660 H   0  0  0  0  0  0  0  0  0  0  0  0
  142.2169   76.1736  217.1069 H   0  0  0  0  0  0  0  0  0  0  0  0
  144.1072   76.1482  217.1531 H   0  0  0  0  0  0  0  0  0  0  0  0
  145.6100   74.8170  219.5924 H   0  0  0  0  0  0  0  0  0  0  0  0
  144.6069   74.7763  221.0045 H   0  0  0  0  0  0  0  0  0  0  0  0
  145.6173   72.2597  219.3782 H   0  0  0  0  0  0  0  0  0  0  0  0
  146.1584   72.5953  220.9671 H   0  0  0  0  0  0  0  0  0  0  0  0
  143.9384   71.1163  220.8097 H   0  0  0  0  0  0  0  0  0  0  0  0
  143.7111   72.4879  221.8397 H   0  0  0  0  0  0  0  0  0  0  0  0
  142.8707   72.1438  218.8803 H   0  0  0  0  0  0  0  0  0  0  0  0
  142.6626   75.4346  221.0291 H   0  0  0  0  0  0  0  0  0  0  0  0
  141.2273   76.0334  220.1416 H   0  0  0  0  0  0  0  0  0  0  0  0
  141.2364   75.3438  223.1286 H   0  0  0  0  0  0  0  0  0  0  0  0
  141.4875   77.0003  222.4763 H   0  0  0  0  0  0  0  0  0  0  0  0
  139.1673   76.0097  223.1936 H   0  0  0  0  0  0  0  0  0  0  0  0
  139.4263   78.2319  223.9017 H   0  0  0  0  0  0  0  0  0  0  0  0
  138.7228   80.5459  223.4905 H   0  0  0  0  0  0  0  0  0  0  0  0
  137.9816   81.2927  221.2401 H   0  0  0  0  0  0  0  0  0  0  0  0
  137.9695   79.6236  219.3924 H   0  0  0  0  0  0  0  0  0  0  0  0
  138.6801   77.3071  219.7987 H   0  0  0  0  0  0  0  0  0  0  0  0
  137.8659   75.0284  221.5211 H   0  0  0  0  0  0  0  0  0  0  0  0
  138.9573   75.5712  220.2059 H   0  0  0  0  0  0  0  0  0  0  0  0
  139.6966   73.5265  222.3806 H   0  0  0  0  0  0  0  0  0  0  0  0
  139.2013   73.1112  220.7069 H   0  0  0  0  0  0  0  0  0  0  0  0
  141.1301   80.2085  218.2731 H   0  0  0  0  0  0  0  0  0  0  0  0
  141.0056   82.1366  219.8834 H   0  0  0  0  0  0  0  0  0  0  0  0
  141.3025   83.0088  222.1168 H   0  0  0  0  0  0  0  0  0  0  0  0
  141.9678   82.6320  224.4911 H   0  0  0  0  0  0  0  0  0  0  0  0
  142.7319   80.4329  225.2701 H   0  0  0  0  0  0  0  0  0  0  0  0
  142.8487   78.5197  223.6537 H   0  0  0  0  0  0  0  0  0  0  0  0
  1  2  2  0
  2  3  1  0
  3  4  1  0
  4  5  1  0
  5  6  2  0
  5  7  1  0
  7  8  1  0
  8  9  1  0
  9 10  1  0
 10 11  1  0
 11 12  1  0
 12 13  2  0
 12 14  1  0
 14 15  1  0
 15 16  1  0
 16 17  1  0
 17 18  1  0
 18 19  2  0
 19 20  1  0
 20 21  2  0
 21 22  1  0
 22 23  2  0
 17 24  1  0
 24 25  1  0
  2 26  1  0
 26 27  2  0
 27 28  1  0
 28 29  2  0
 29 30  1  0
 30 31  2  0
 31 32  1  0
 32 33  2  0
 33 34  1  0
 34 35  2  0
 11  7  1  0
 25 14  1  0
 35 26  1  0
 23 18  1  0
 34 29  1  0
  3 36  1  0
  4 37  1  0
  4 38  1  0
  8 39  1  0
  8 40  1  0
  9 41  1  0
  9 42  1  0
 10 43  1  0
 10 44  1  0
 11 45  1  6
 15 46  1  0
 15 47  1  0
 16 48  1  0
 16 49  1  0
 17 50  1  0
 19 51  1  0
 20 52  1  0
 21 53  1  0
 22 54  1  0
 23 55  1  0
 24 56  1  0
 24 57  1  0
 25 58  1  0
 25 59  1  0
 27 60  1  0
 28 61  1  0
 30 62  1  0
 31 63  1  0
 32 64  1  0
 33 65  1  0
M  END
>  <smiles>  (55) 
O=C(NCC(=O)N1CCCC1C(=O)N1CCC(c2ccccc2)CC1)c1ccc2ccccc2n1

>  <score_type>  (55) 
oracle

>  <origin>  (55) 
autodockgpu

>  <m_score__min__energy>  (55) 
-9.4900000000000002

>  <m_primary>  (55) 
energy

>  <rmsd>  (55) 
8.224849130390064

>  <m_score__min__rmsd>  (55) 
8.224849130390064

>  <meeko>  (55) 
{"free_energy": -7.07, "intermolecular_energy": -8.85, "internal_energy": -4.25, "cluster_size": 13, "cluster_id": 4, "rank_in_cluster": 11}

>  <energy>  (55) 
-9.22

>  <cluster_rmsd>  (55) 
1.45

>  <cluster>  (55) 
1

$$$$

     RDKit          3D

 65 69  0  0  1  0  0  0  0  0999 V2000
  134.9350   76.8070  223.5680 O   0  0  0  0  0  0  0  0  0  0  0  0
  135.4700   75.6510  223.6770 C   0  0  0  0  0  0  0  0  0  0  0  0
  136.6580   75.3930  222.8830 N   0  0  0  0  0  0  0  0  0  0  0  0
  137.0920   76.4660  222.0670 C   0  0  0  0  0  0  0  0  0  0  0  0
  138.4940   76.7170  221.8420 C   0  0  0  0  0  0  0  0  0  0  0  0
  138.7800   78.0040  221.7720 O   0  0  0  0  0  0  0  0  0  0  0  0
  139.6140   75.8840  221.6820 N   0  0  0  0  0  0  0  0  0  0  0  0
  140.9830   75.9330  222.1180 C   0  0  0  0  0  0  0  0  0  0  0  0
  141.6970   75.3760  220.8500 C   0  0  0  0  0  0  0  0  0  0  0  0
  140.9080   74.0890  220.7500 C   0  0  0  0  0  0  0  0  0  0  0  0
  139.5070   74.6310  220.9120 C   0  0  1  0  0  0  0  0  0  0  0  0
  138.6870   73.5780  221.4870 C   0  0  0  0  0  0  0  0  0  0  0  0
  137.4590   73.5830  221.0310 O   0  0  0  0  0  0  0  0  0  0  0  0
  138.9600   72.5820  222.4170 N   0  0  0  0  0  0  0  0  0  0  0  0
  140.1980   72.2710  223.0740 C   0  0  0  0  0  0  0  0  0  0  0  0
  140.2990   70.7590  223.2360 C   0  0  0  0  0  0  0  0  0  0  0  0
  139.2790   70.2890  224.2100 C   0  0  0  0  0  0  0  0  0  0  0  0
  139.7840   70.0450  225.5650 C   0  0  0  0  0  0  0  0  0  0  0  0
  140.3590   71.1140  226.2710 C   0  0  0  0  0  0  0  0  0  0  0  0
  140.8520   70.9470  227.5500 C   0  0  0  0  0  0  0  0  0  0  0  0
  140.8050   69.7320  228.1980 C   0  0  0  0  0  0  0  0  0  0  0  0
  140.2460   68.6780  227.5190 C   0  0  0  0  0  0  0  0  0  0  0  0
  139.7500   68.8490  226.2330 C   0  0  0  0  0  0  0  0  0  0  0  0
  138.0540   71.1810  224.2280 C   0  0  0  0  0  0  0  0  0  0  0  0
  137.8100   71.7260  222.8160 C   0  0  0  0  0  0  0  0  0  0  0  0
  134.9280   74.6240  224.5560 C   0  0  0  0  0  0  0  0  0  0  0  0
  134.1140   75.0500  225.5890 C   0  0  0  0  0  0  0  0  0  0  0  0
  133.6020   74.0760  226.4390 C   0  0  0  0  0  0  0  0  0  0  0  0
  133.9130   72.7420  226.2270 C   0  0  0  0  0  0  0  0  0  0  0  0
  133.4030   71.7670  227.0740 C   0  0  0  0  0  0  0  0  0  0  0  0
  133.7360   70.4270  226.8380 C   0  0  0  0  0  0  0  0  0  0  0  0
  134.5440   70.0530  225.8020 C   0  0  0  0  0  0  0  0  0  0  0  0
  135.0560   71.0290  224.9510 C   0  0  0  0  0  0  0  0  0  0  0  0
  134.7310   72.3550  225.1820 C   0  0  0  0  0  0  0  0  0  0  0  0
  135.2210   73.3160  224.3650 N   0  0  0  0  0  0  0  0  0  0  0  0
  137.0350   74.4510  222.9990 H   0  0  0  0  0  0  0  0  0  0  0  0
  136.6417   76.3055  221.0763 H   0  0  0  0  0  0  0  0  0  0  0  0
  136.7821   77.3475  222.6475 H   0  0  0  0  0  0  0  0  0  0  0  0
  141.3013   76.9609  222.3462 H   0  0  0  0  0  0  0  0  0  0  0  0
  141.1917   75.3795  223.0454 H   0  0  0  0  0  0  0  0  0  0  0  0
  141.5609   76.0232  219.9711 H   0  0  0  0  0  0  0  0  0  0  0  0
  142.7918   75.2815  220.9010 H   0  0  0  0  0  0  0  0  0  0  0  0
  141.0466   73.5992  219.7749 H   0  0  0  0  0  0  0  0  0  0  0  0
  141.1924   73.3121  221.4750 H   0  0  0  0  0  0  0  0  0  0  0  0
  139.0024   74.9016  219.9728 H   0  0  0  0  0  0  0  0  0  0  0  0
  141.0405   72.6354  222.4678 H   0  0  0  0  0  0  0  0  0  0  0  0
  140.2310   72.7566  224.0605 H   0  0  0  0  0  0  0  0  0  0  0  0
  140.1260   70.2749  222.2635 H   0  0  0  0  0  0  0  0  0  0  0  0
  141.3019   70.4989  223.6055 H   0  0  0  0  0  0  0  0  0  0  0  0
  138.9812   69.2992  223.8338 H   0  0  0  0  0  0  0  0  0  0  0  0
  140.4179   72.1043  225.7957 H   0  0  0  0  0  0  0  0  0  0  0  0
  141.2958   71.8104  228.0673 H   0  0  0  0  0  0  0  0  0  0  0  0
  141.1993   69.6115  229.2178 H   0  0  0  0  0  0  0  0  0  0  0  0
  140.1904   67.6892  227.9977 H   0  0  0  0  0  0  0  0  0  0  0  0
  139.3072   67.9798  225.7247 H   0  0  0  0  0  0  0  0  0  0  0  0
  137.1794   70.5992  224.5546 H   0  0  0  0  0  0  0  0  0  0  0  0
  138.2140   72.0165  224.9254 H   0  0  0  0  0  0  0  0  0  0  0  0
  137.7124   70.8882  222.1099 H   0  0  0  0  0  0  0  0  0  0  0  0
  136.8847   72.3206  222.8039 H   0  0  0  0  0  0  0  0  0  0  0  0
  133.8810   76.1154  225.7326 H   0  0  0  0  0  0  0  0  0  0  0  0
  132.9514   74.3636  227.2781 H   0  0  0  0  0  0  0  0  0  0  0  0
  132.7494   72.0419  227.9150 H   0  0  0  0  0  0  0  0  0  0  0  0
  133.3345   69.6521  227.5075 H   0  0  0  0  0  0  0  0  0  0  0  0
  134.7876   68.9923  225.6418 H   0  0  0  0  0  0  0  0  0  0  0  0
  135.7076   70.7513  224.1094 H   0  0  0  0  0  0  0  0  0  0  0  0
  1  2  2  0
  2  3  1  0
  3  4  1  0
  4  5  1  0
  5  6  2  0
  5  7  1  0
  7  8  1  0
  8  9  1  0
  9 10  1  0
 10 11  1  0
 11 12  1  0
 12 13  2  0
 12 14  1  0
 14 15  1  0
 15 16  1  0
 16 17  1  0
 17 18  1  0
 18 19  2  0
 19 20  1  0
 20 21  2  0
 21 22  1  0
 22 23  2  0
 17 24  1  0
 24 25  1  0
  2 26  1  0
 26 27  2  0
 27 28  1  0
 28 29  2  0
 29 30  1  0
 30 31  2  0
 31 32  1  0
 32 33  2  0
 33 34  1  0
 34 35  2  0
 11  7  1  0
 25 14  1  0
 35 26  1  0
 23 18  1  0
 34 29  1  0
  3 36  1  0
  4 37  1  0
  4 38  1  0
  8 39  1  0
  8 40  1  0
  9 41  1  0
  9 42  1  0
 10 43  1  0
 10 44  1  0
 11 45  1  6
 15 46  1  0
 15 47  1  0
 16 48  1  0
 16 49  1  0
 17 50  1  0
 19 51  1  0
 20 52  1  0
 21 53  1  0
 22 54  1  0
 23 55  1  0
 24 56  1  0
 24 57  1  0
 25 58  1  0
 25 59  1  0
 27 60  1  0
 28 61  1  0
 30 62  1  0
 31 63  1  0
 32 64  1  0
 33 65  1  0
M  END
>  <smiles>  (56) 
O=C(NCC(=O)N1CCCC1C(=O)N1CCC(c2ccccc2)CC1)c1ccc2ccccc2n1

>  <score_type>  (56) 
oracle

>  <origin>  (56) 
autodockgpu

>  <m_score__min__energy>  (56) 
-9.4900000000000002

>  <m_primary>  (56) 
energy

>  <rmsd>  (56) 
7.438326517073338

>  <m_score__min__rmsd>  (56) 
7.438326517073338

>  <meeko>  (56) 
{"free_energy": -8.13, "intermolecular_energy": -9.92, "internal_energy": -3.32, "cluster_size": 16, "cluster_id": 6, "rank_in_cluster": 8}

>  <energy>  (56) 
-9.11

>  <cluster_rmsd>  (56) 
1.46

>  <cluster>  (56) 
1

$$$$

     RDKit          3D

 65 69  0  0  1  0  0  0  0  0999 V2000
  140.9340   77.0530  218.4710 O   0  0  0  0  0  0  0  0  0  0  0  0
  141.9720   77.6070  218.9710 C   0  0  0  0  0  0  0  0  0  0  0  0
  143.2620   77.0470  218.6070 N   0  0  0  0  0  0  0  0  0  0  0  0
  143.2200   75.9370  217.7290 C   0  0  0  0  0  0  0  0  0  0  0  0
  143.0670   74.5920  218.2270 C   0  0  0  0  0  0  0  0  0  0  0  0
  142.2120   73.8770  217.5200 O   0  0  0  0  0  0  0  0  0  0  0  0
  143.6340   73.8870  219.3030 N   0  0  0  0  0  0  0  0  0  0  0  0
  144.8110   74.0500  220.1110 C   0  0  0  0  0  0  0  0  0  0  0  0
  145.2430   72.5620  220.2730 C   0  0  0  0  0  0  0  0  0  0  0  0
  143.9290   72.0520  220.8210 C   0  0  0  0  0  0  0  0  0  0  0  0
  142.9740   72.6800  219.8330 C   0  0  1  0  0  0  0  0  0  0  0  0
  141.7010   72.8730  220.5070 C   0  0  0  0  0  0  0  0  0  0  0  0
  141.0390   71.7540  220.6720 O   0  0  0  0  0  0  0  0  0  0  0  0
  141.0650   74.0060  221.0000 N   0  0  0  0  0  0  0  0  0  0  0  0
  141.5250   75.3660  221.0210 C   0  0  0  0  0  0  0  0  0  0  0  0
  141.0480   76.0230  222.3100 C   0  0  0  0  0  0  0  0  0  0  0  0
  139.5690   76.1720  222.2800 C   0  0  0  0  0  0  0  0  0  0  0  0
  139.0900   77.5100  221.9170 C   0  0  0  0  0  0  0  0  0  0  0  0
  138.9450   78.4700  222.9310 C   0  0  0  0  0  0  0  0  0  0  0  0
  138.4990   79.7470  222.6520 C   0  0  0  0  0  0  0  0  0  0  0  0
  138.1760   80.1440  221.3730 C   0  0  0  0  0  0  0  0  0  0  0  0
  138.3130   79.2160  220.3720 C   0  0  0  0  0  0  0  0  0  0  0  0
  138.7630   77.9320  220.6550 C   0  0  0  0  0  0  0  0  0  0  0  0
  138.9040   75.1000  221.4410 C   0  0  0  0  0  0  0  0  0  0  0  0
  139.7040   73.7980  221.5660 C   0  0  0  0  0  0  0  0  0  0  0  0
  141.8880   78.7520  219.8670 C   0  0  0  0  0  0  0  0  0  0  0  0
  141.4980   79.9550  219.3090 C   0  0  0  0  0  0  0  0  0  0  0  0
  141.4250   81.0560  220.1560 C   0  0  0  0  0  0  0  0  0  0  0  0
  141.7360   80.9150  221.4990 C   0  0  0  0  0  0  0  0  0  0  0  0
  141.6650   82.0120  222.3470 C   0  0  0  0  0  0  0  0  0  0  0  0
  141.9870   81.8410  223.7000 C   0  0  0  0  0  0  0  0  0  0  0  0
  142.3670   80.6310  224.2070 C   0  0  0  0  0  0  0  0  0  0  0  0
  142.4390   79.5290  223.3580 C   0  0  0  0  0  0  0  0  0  0  0  0
  142.1230   79.6940  222.0200 C   0  0  0  0  0  0  0  0  0  0  0  0
  142.1880   78.6340  221.1820 N   0  0  0  0  0  0  0  0  0  0  0  0
  144.0550   77.5190  219.0450 H   0  0  0  0  0  0  0  0  0  0  0  0
  142.3769   76.1132  217.0449 H   0  0  0  0  0  0  0  0  0  0  0  0
  144.2386   75.9229  217.3140 H   0  0  0  0  0  0  0  0  0  0  0  0
  145.5802   74.6436  219.5952 H   0  0  0  0  0  0  0  0  0  0  0  0
  144.6505   74.5892  221.0562 H   0  0  0  0  0  0  0  0  0  0  0  0
  145.5100   72.0938  219.3141 H   0  0  0  0  0  0  0  0  0  0  0  0
  146.1393   72.3713  220.8815 H   0  0  0  0  0  0  0  0  0  0  0  0
  143.8759   70.9535  220.7989 H   0  0  0  0  0  0  0  0  0  0  0  0
  143.7373   72.3019  221.8749 H   0  0  0  0  0  0  0  0  0  0  0  0
  142.7381   72.0599  218.9556 H   0  0  0  0  0  0  0  0  0  0  0  0
  142.6241   75.3857  220.9802 H   0  0  0  0  0  0  0  0  0  0  0  0
  141.1253   75.9103  220.1527 H   0  0  0  0  0  0  0  0  0  0  0  0
  141.3349   75.3965  223.1674 H   0  0  0  0  0  0  0  0  0  0  0  0
  141.5119   77.0158  222.4057 H   0  0  0  0  0  0  0  0  0  0  0  0
  139.2617   76.0320  223.3269 H   0  0  0  0  0  0  0  0  0  0  0  0
  139.1915   78.1998  223.9684 H   0  0  0  0  0  0  0  0  0  0  0  0
  138.3986   80.4689  223.4759 H   0  0  0  0  0  0  0  0  0  0  0  0
  137.8224   81.1642  221.1628 H   0  0  0  0  0  0  0  0  0  0  0  0
  138.0645   79.4907  219.3362 H   0  0  0  0  0  0  0  0  0  0  0  0
  138.8617   77.2183  219.8238 H   0  0  0  0  0  0  0  0  0  0  0  0
  137.8765   74.9369  221.7983 H   0  0  0  0  0  0  0  0  0  0  0  0
  138.8748   75.4178  220.3883 H   0  0  0  0  0  0  0  0  0  0  0  0
  139.7851   73.5159  222.6261 H   0  0  0  0  0  0  0  0  0  0  0  0
  139.1926   72.9947  221.0154 H   0  0  0  0  0  0  0  0  0  0  0  0
  141.2554   80.0382  218.2393 H   0  0  0  0  0  0  0  0  0  0  0  0
  141.1211   82.0364  219.7606 H   0  0  0  0  0  0  0  0  0  0  0  0
  141.3615   82.9974  221.9638 H   0  0  0  0  0  0  0  0  0  0  0  0
  141.9320   82.7081  224.3747 H   0  0  0  0  0  0  0  0  0  0  0  0
  142.6135   80.5279  225.2741 H   0  0  0  0  0  0  0  0  0  0  0  0
  142.7417   78.5444  223.7439 H   0  0  0  0  0  0  0  0  0  0  0  0
  1  2  2  0
  2  3  1  0
  3  4  1  0
  4  5  1  0
  5  6  2  0
  5  7  1  0
  7  8  1  0
  8  9  1  0
  9 10  1  0
 10 11  1  0
 11 12  1  0
 12 13  2  0
 12 14  1  0
 14 15  1  0
 15 16  1  0
 16 17  1  0
 17 18  1  0
 18 19  2  0
 19 20  1  0
 20 21  2  0
 21 22  1  0
 22 23  2  0
 17 24  1  0
 24 25  1  0
  2 26  1  0
 26 27  2  0
 27 28  1  0
 28 29  2  0
 29 30  1  0
 30 31  2  0
 31 32  1  0
 32 33  2  0
 33 34  1  0
 34 35  2  0
 11  7  1  0
 25 14  1  0
 35 26  1  0
 23 18  1  0
 34 29  1  0
  3 36  1  0
  4 37  1  0
  4 38  1  0
  8 39  1  0
  8 40  1  0
  9 41  1  0
  9 42  1  0
 10 43  1  0
 10 44  1  0
 11 45  1  6
 15 46  1  0
 15 47  1  0
 16 48  1  0
 16 49  1  0
 17 50  1  0
 19 51  1  0
 20 52  1  0
 21 53  1  0
 22 54  1  0
 23 55  1  0
 24 56  1  0
 24 57  1  0
 25 58  1  0
 25 59  1  0
 27 60  1  0
 28 61  1  0
 30 62  1  0
 31 63  1  0
 32 64  1  0
 33 65  1  0
M  END
>  <smiles>  (57) 
O=C(NCC(=O)N1CCCC1C(=O)N1CCC(c2ccccc2)CC1)c1ccc2ccccc2n1

>  <score_type>  (57) 
oracle

>  <origin>  (57) 
autodockgpu

>  <m_score__min__energy>  (57) 
-9.4900000000000002

>  <m_primary>  (57) 
energy

>  <rmsd>  (57) 
8.223570286160612

>  <m_score__min__rmsd>  (57) 
8.223570286160612

>  <meeko>  (57) 
{"free_energy": -7.06, "intermolecular_energy": -8.85, "internal_energy": -4.19, "cluster_size": 13, "cluster_id": 4, "rank_in_cluster": 12}

>  <energy>  (57) 
-9.24

>  <cluster_rmsd>  (57) 
0.0

>  <cluster>  (57) 
2

$$$$

     RDKit          3D

 65 69  0  0  1  0  0  0  0  0999 V2000
  140.0840   73.4910  222.4540 O   0  0  0  0  0  0  0  0  0  0  0  0
  140.2440   72.2220  222.4550 C   0  0  0  0  0  0  0  0  0  0  0  0
  140.5190   71.5880  221.1770 N   0  0  0  0  0  0  0  0  0  0  0  0
  140.5800   72.4610  220.0630 C   0  0  0  0  0  0  0  0  0  0  0  0
  139.7380   72.2640  218.9090 C   0  0  0  0  0  0  0  0  0  0  0  0
  140.2380   71.3920  218.0520 O   0  0  0  0  0  0  0  0  0  0  0  0
  138.5040   72.8030  218.5060 N   0  0  0  0  0  0  0  0  0  0  0  0
  137.3050   72.2630  217.9270 C   0  0  0  0  0  0  0  0  0  0  0  0
  136.9390   73.4040  216.9330 C   0  0  0  0  0  0  0  0  0  0  0  0
  136.9330   74.5290  217.9450 C   0  0  0  0  0  0  0  0  0  0  0  0
  138.2370   74.2450  218.6550 C   0  0  1  0  0  0  0  0  0  0  0  0
  138.1230   74.7530  220.0120 C   0  0  0  0  0  0  0  0  0  0  0  0
  137.0200   74.3700  220.6070 O   0  0  0  0  0  0  0  0  0  0  0  0
  138.9540   75.5560  220.7840 N   0  0  0  0  0  0  0  0  0  0  0  0
  140.2400   76.1050  220.4580 C   0  0  0  0  0  0  0  0  0  0  0  0
  141.1050   76.1010  221.7130 C   0  0  0  0  0  0  0  0  0  0  0  0
  140.5660   77.0780  222.6960 C   0  0  0  0  0  0  0  0  0  0  0  0
  141.2610   78.3690  222.7310 C   0  0  0  0  0  0  0  0  0  0  0  0
  141.4130   79.0820  221.5310 C   0  0  0  0  0  0  0  0  0  0  0  0
  142.0580   80.3030  221.4990 C   0  0  0  0  0  0  0  0  0  0  0  0
  142.5820   80.8820  222.6340 C   0  0  0  0  0  0  0  0  0  0  0  0
  142.4410   80.1950  223.8140 C   0  0  0  0  0  0  0  0  0  0  0  0
  141.7910   78.9670  223.8440 C   0  0  0  0  0  0  0  0  0  0  0  0
  139.0680   77.2590  222.5590 C   0  0  0  0  0  0  0  0  0  0  0  0
  138.4390   75.9280  222.1300 C   0  0  0  0  0  0  0  0  0  0  0  0
  140.1590   71.4280  223.6720 C   0  0  0  0  0  0  0  0  0  0  0  0
  139.5530   70.1900  223.5700 C   0  0  0  0  0  0  0  0  0  0  0  0
  139.4580   69.4300  224.7310 C   0  0  0  0  0  0  0  0  0  0  0  0
  139.9640   69.9240  225.9230 C   0  0  0  0  0  0  0  0  0  0  0  0
  139.8700   69.1670  227.0830 C   0  0  0  0  0  0  0  0  0  0  0  0
  140.3890   69.6920  228.2740 C   0  0  0  0  0  0  0  0  0  0  0  0
  140.9810   70.9220  228.3270 C   0  0  0  0  0  0  0  0  0  0  0  0
  141.0760   71.6830  227.1640 C   0  0  0  0  0  0  0  0  0  0  0  0
  140.5640   71.1680  225.9850 C   0  0  0  0  0  0  0  0  0  0  0  0
  140.6470   71.8940  224.8460 N   0  0  0  0  0  0  0  0  0  0  0  0
  140.6240   70.5750  221.2330 H   0  0  0  0  0  0  0  0  0  0  0  0
  140.3549   73.4680  220.4442 H   0  0  0  0  0  0  0  0  0  0  0  0
  141.5849   72.2645  219.6611 H   0  0  0  0  0  0  0  0  0  0  0  0
  137.4967   71.3140  217.4048 H   0  0  0  0  0  0  0  0  0  0  0  0
  136.5160   72.0121  218.6513 H   0  0  0  0  0  0  0  0  0  0  0  0
  137.7011   73.5434  216.1522 H   0  0  0  0  0  0  0  0  0  0  0  0
  136.0224   73.2678  216.3404 H   0  0  0  0  0  0  0  0  0  0  0  0
  136.9384   75.5159  217.4593 H   0  0  0  0  0  0  0  0  0  0  0  0
  136.0472   74.5637  218.5962 H   0  0  0  0  0  0  0  0  0  0  0  0
  139.1164   74.7552  218.2351 H   0  0  0  0  0  0  0  0  0  0  0  0
  140.7167   75.4933  219.6778 H   0  0  0  0  0  0  0  0  0  0  0  0
  140.1251   77.1335  220.0851 H   0  0  0  0  0  0  0  0  0  0  0  0
  141.1002   75.0947  222.1573 H   0  0  0  0  0  0  0  0  0  0  0  0
  142.1346   76.3822  221.4468 H   0  0  0  0  0  0  0  0  0  0  0  0
  140.7707   76.6175  223.6737 H   0  0  0  0  0  0  0  0  0  0  0  0
  141.0106   78.6600  220.5983 H   0  0  0  0  0  0  0  0  0  0  0  0
  142.1563   80.8291  220.5380 H   0  0  0  0  0  0  0  0  0  0  0  0
  143.0927   81.8555  222.5962 H   0  0  0  0  0  0  0  0  0  0  0  0
  142.8461   80.6202  224.7441 H   0  0  0  0  0  0  0  0  0  0  0  0
  141.6973   78.4491  224.8099 H   0  0  0  0  0  0  0  0  0  0  0  0
  138.6449   77.5720  223.5250 H   0  0  0  0  0  0  0  0  0  0  0  0
  138.8554   78.0299  221.8037 H   0  0  0  0  0  0  0  0  0  0  0  0
  138.7046   75.1447  222.8552 H   0  0  0  0  0  0  0  0  0  0  0  0
  137.3445   76.0312  222.0919 H   0  0  0  0  0  0  0  0  0  0  0  0
  139.1620   69.8210  222.6103 H   0  0  0  0  0  0  0  0  0  0  0  0
  138.9821   68.4387  224.7032 H   0  0  0  0  0  0  0  0  0  0  0  0
  139.3971   68.1740  227.0674 H   0  0  0  0  0  0  0  0  0  0  0  0
  140.3175   69.0950  229.1951 H   0  0  0  0  0  0  0  0  0  0  0  0
  141.3783   71.3073  229.2776 H   0  0  0  0  0  0  0  0  0  0  0  0
  141.5495   72.6757  227.1820 H   0  0  0  0  0  0  0  0  0  0  0  0
  1  2  2  0
  2  3  1  0
  3  4  1  0
  4  5  1  0
  5  6  2  0
  5  7  1  0
  7  8  1  0
  8  9  1  0
  9 10  1  0
 10 11  1  0
 11 12  1  0
 12 13  2  0
 12 14  1  0
 14 15  1  0
 15 16  1  0
 16 17  1  0
 17 18  1  0
 18 19  2  0
 19 20  1  0
 20 21  2  0
 21 22  1  0
 22 23  2  0
 17 24  1  0
 24 25  1  0
  2 26  1  0
 26 27  2  0
 27 28  1  0
 28 29  2  0
 29 30  1  0
 30 31  2  0
 31 32  1  0
 32 33  2  0
 33 34  1  0
 34 35  2  0
 11  7  1  0
 25 14  1  0
 35 26  1  0
 23 18  1  0
 34 29  1  0
  3 36  1  0
  4 37  1  0
  4 38  1  0
  8 39  1  0
  8 40  1  0
  9 41  1  0
  9 42  1  0
 10 43  1  0
 10 44  1  0
 11 45  1  6
 15 46  1  0
 15 47  1  0
 16 48  1  0
 16 49  1  0
 17 50  1  0
 19 51  1  0
 20 52  1  0
 21 53  1  0
 22 54  1  0
 23 55  1  0
 24 56  1  0
 24 57  1  0
 25 58  1  0
 25 59  1  0
 27 60  1  0
 28 61  1  0
 30 62  1  0
 31 63  1  0
 32 64  1  0
 33 65  1  0
M  END
>  <smiles>  (58) 
O=C(NCC(=O)N1CCCC1C(=O)N1CCC(c2ccccc2)CC1)c1ccc2ccccc2n1

>  <score_type>  (58) 
oracle

>  <origin>  (58) 
autodockgpu

>  <m_score__min__energy>  (58) 
-9.4900000000000002

>  <m_primary>  (58) 
energy

>  <rmsd>  (58) 
3.2446804209451585

>  <m_score__min__rmsd>  (58) 
3.2446804209451585

>  <meeko>  (58) 
{"free_energy": -8.75, "intermolecular_energy": -10.54, "internal_energy": -2.2, "cluster_size": 1, "cluster_id": 5, "rank_in_cluster": 1}

>  <energy>  (58) 
-9.19

>  <cluster_rmsd>  (58) 
1.5

>  <cluster>  (58) 
2

$$$$

     RDKit          3D

 65 69  0  0  1  0  0  0  0  0999 V2000
  139.4060   74.3400  221.7460 O   0  0  0  0  0  0  0  0  0  0  0  0
  140.6060   74.7550  221.6070 C   0  0  0  0  0  0  0  0  0  0  0  0
  140.8710   76.1420  221.9490 N   0  0  0  0  0  0  0  0  0  0  0  0
  139.7520   76.8840  222.4020 C   0  0  0  0  0  0  0  0  0  0  0  0
  139.8520   78.2940  222.6860 C   0  0  0  0  0  0  0  0  0  0  0  0
  138.7060   78.8220  223.0730 O   0  0  0  0  0  0  0  0  0  0  0  0
  140.9080   79.2200  222.6340 N   0  0  0  0  0  0  0  0  0  0  0  0
  142.1890   79.3300  223.2770 C   0  0  0  0  0  0  0  0  0  0  0  0
  142.2430   80.8670  223.5250 C   0  0  0  0  0  0  0  0  0  0  0  0
  141.9980   81.2890  222.0930 C   0  0  0  0  0  0  0  0  0  0  0  0
  140.8200   80.4030  221.7600 C   0  0  1  0  0  0  0  0  0  0  0  0
  140.8380   80.1600  220.3270 C   0  0  0  0  0  0  0  0  0  0  0  0
  140.3210   81.1460  219.6370 O   0  0  0  0  0  0  0  0  0  0  0  0
  141.2960   79.0910  219.5650 N   0  0  0  0  0  0  0  0  0  0  0  0
  141.9470   77.8850  219.9940 C   0  0  0  0  0  0  0  0  0  0  0  0
  142.9910   77.4980  218.9550 C   0  0  0  0  0  0  0  0  0  0  0  0
  142.3170   77.0820  217.6960 C   0  0  0  0  0  0  0  0  0  0  0  0
  142.2020   75.6320  217.5060 C   0  0  0  0  0  0  0  0  0  0  0  0
  140.9610   75.0200  217.7420 C   0  0  0  0  0  0  0  0  0  0  0  0
  140.7910   73.6590  217.5800 C   0  0  0  0  0  0  0  0  0  0  0  0
  141.8210   72.8360  217.1810 C   0  0  0  0  0  0  0  0  0  0  0  0
  143.0400   73.4220  216.9480 C   0  0  0  0  0  0  0  0  0  0  0  0
  143.2090   74.7910  217.1100 C   0  0  0  0  0  0  0  0  0  0  0  0
  140.9810   77.7720  217.5090 C   0  0  0  0  0  0  0  0  0  0  0  0
  141.0610   79.1860  218.0980 C   0  0  0  0  0  0  0  0  0  0  0  0
  141.6780   73.8930  221.1310 C   0  0  0  0  0  0  0  0  0  0  0  0
  141.3590   72.5670  220.9030 C   0  0  0  0  0  0  0  0  0  0  0  0
  142.3800   71.7340  220.4580 C   0  0  0  0  0  0  0  0  0  0  0  0
  143.6520   72.2470  220.2590 C   0  0  0  0  0  0  0  0  0  0  0  0
  144.6740   71.4180  219.8150 C   0  0  0  0  0  0  0  0  0  0  0  0
  145.9510   71.9620  219.6240 C   0  0  0  0  0  0  0  0  0  0  0  0
  146.2180   73.2810  219.8620 C   0  0  0  0  0  0  0  0  0  0  0  0
  145.1960   74.1150  220.3080 C   0  0  0  0  0  0  0  0  0  0  0  0
  143.9330   73.5800  220.4980 C   0  0  0  0  0  0  0  0  0  0  0  0
  142.9280   74.3760  220.9310 N   0  0  0  0  0  0  0  0  0  0  0  0
  141.8420   76.4240  221.8070 H   0  0  0  0  0  0  0  0  0  0  0  0
  138.9747   76.7764  221.6311 H   0  0  0  0  0  0  0  0  0  0  0  0
  139.5678   76.4532  223.3972 H   0  0  0  0  0  0  0  0  0  0  0  0
  142.2215   78.7640  224.2196 H   0  0  0  0  0  0  0  0  0  0  0  0
  143.0322   78.9267  222.6970 H   0  0  0  0  0  0  0  0  0  0  0  0
  141.4521   81.2119  224.2073 H   0  0  0  0  0  0  0  0  0  0  0  0
  143.1514   81.2580  224.0066 H   0  0  0  0  0  0  0  0  0  0  0  0
  141.7407   82.3560  222.0196 H   0  0  0  0  0  0  0  0  0  0  0  0
  142.8636   81.1826  221.4227 H   0  0  0  0  0  0  0  0  0  0  0  0
  139.8338   80.8474  221.9596 H   0  0  0  0  0  0  0  0  0  0  0  0
  142.4357   78.0534  220.9650 H   0  0  0  0  0  0  0  0  0  0  0  0
  141.2077   77.0776  220.1014 H   0  0  0  0  0  0  0  0  0  0  0  0
  143.6426   78.3609  218.7528 H   0  0  0  0  0  0  0  0  0  0  0  0
  143.5933   76.6613  219.3387 H   0  0  0  0  0  0  0  0  0  0  0  0
  142.9965   77.4217  216.9005 H   0  0  0  0  0  0  0  0  0  0  0  0
  140.1077   75.6360  218.0620 H   0  0  0  0  0  0  0  0  0  0  0  0
  139.8022   73.2185  217.7757 H   0  0  0  0  0  0  0  0  0  0  0  0
  141.6726   71.7534  217.0543 H   0  0  0  0  0  0  0  0  0  0  0  0
  143.8910   72.8017  216.6300 H   0  0  0  0  0  0  0  0  0  0  0  0
  144.2012   75.2220  216.9104 H   0  0  0  0  0  0  0  0  0  0  0  0
  140.7443   77.8324  216.4365 H   0  0  0  0  0  0  0  0  0  0  0  0
  140.1932   77.2005  218.0216 H   0  0  0  0  0  0  0  0  0  0  0  0
  141.8900   79.7346  217.6271 H   0  0  0  0  0  0  0  0  0  0  0  0
  140.1184   79.7201  217.9079 H   0  0  0  0  0  0  0  0  0  0  0  0
  140.3399   72.1867  221.0668 H   0  0  0  0  0  0  0  0  0  0  0  0
  142.1783   70.6701  220.2644 H   0  0  0  0  0  0  0  0  0  0  0  0
  144.4842   70.3528  219.6167 H   0  0  0  0  0  0  0  0  0  0  0  0
  146.7626   71.3081  219.2721 H   0  0  0  0  0  0  0  0  0  0  0  0
  147.2306   73.6800  219.7028 H   0  0  0  0  0  0  0  0  0  0  0  0
  145.3885   75.1798  220.5059 H   0  0  0  0  0  0  0  0  0  0  0  0
  1  2  2  0
  2  3  1  0
  3  4  1  0
  4  5  1  0
  5  6  2  0
  5  7  1  0
  7  8  1  0
  8  9  1  0
  9 10  1  0
 10 11  1  0
 11 12  1  0
 12 13  2  0
 12 14  1  0
 14 15  1  0
 15 16  1  0
 16 17  1  0
 17 18  1  0
 18 19  2  0
 19 20  1  0
 20 21  2  0
 21 22  1  0
 22 23  2  0
 17 24  1  0
 24 25  1  0
  2 26  1  0
 26 27  2  0
 27 28  1  0
 28 29  2  0
 29 30  1  0
 30 31  2  0
 31 32  1  0
 32 33  2  0
 33 34  1  0
 34 35  2  0
 11  7  1  0
 25 14  1  0
 35 26  1  0
 23 18  1  0
 34 29  1  0
  3 36  1  0
  4 37  1  0
  4 38  1  0
  8 39  1  0
  8 40  1  0
  9 41  1  0
  9 42  1  0
 10 43  1  0
 10 44  1  0
 11 45  1  1
 15 46  1  0
 15 47  1  0
 16 48  1  0
 16 49  1  0
 17 50  1  0
 19 51  1  0
 20 52  1  0
 21 53  1  0
 22 54  1  0
 23 55  1  0
 24 56  1  0
 24 57  1  0
 25 58  1  0
 25 59  1  0
 27 60  1  0
 28 61  1  0
 30 62  1  0
 31 63  1  0
 32 64  1  0
 33 65  1  0
M  END
>  <smiles>  (59) 
O=C(NCC(=O)N1CCCC1C(=O)N1CCC(c2ccccc2)CC1)c1ccc2ccccc2n1

>  <score_type>  (59) 
oracle

>  <origin>  (59) 
autodockgpu

>  <m_score__min__energy>  (59) 
-9.4900000000000002

>  <m_primary>  (59) 
energy

>  <rmsd>  (59) 
6.650806841574391

>  <m_score__min__rmsd>  (59) 
6.650806841574391

>  <meeko>  (59) 
{"free_energy": -6.84, "intermolecular_energy": -8.63, "internal_energy": -4.11, "cluster_size": 6, "cluster_id": 7, "rank_in_cluster": 5}

>  <energy>  (59) 
-9.09

>  <cluster_rmsd>  (59) 
0.33

>  <cluster>  (59) 
2

$$$$

     RDKit          3D

 65 69  0  0  1  0  0  0  0  0999 V2000
  139.4820   71.0800  221.2690 O   0  0  0  0  0  0  0  0  0  0  0  0
  139.5610   71.7820  222.3350 C   0  0  0  0  0  0  0  0  0  0  0  0
  139.3590   73.2140  222.2010 N   0  0  0  0  0  0  0  0  0  0  0  0
  139.0960   73.6740  220.8880 C   0  0  0  0  0  0  0  0  0  0  0  0
  139.4870   74.9950  220.4630 C   0  0  0  0  0  0  0  0  0  0  0  0
  139.0050   75.3160  219.2760 O   0  0  0  0  0  0  0  0  0  0  0  0
  140.2690   76.0070  221.0440 N   0  0  0  0  0  0  0  0  0  0  0  0
  140.6380   76.3550  222.3890 C   0  0  0  0  0  0  0  0  0  0  0  0
  140.5680   77.9090  222.3020 C   0  0  0  0  0  0  0  0  0  0  0  0
  141.5030   78.0650  221.1240 C   0  0  0  0  0  0  0  0  0  0  0  0
  140.9300   77.0170  220.1980 C   0  0  1  0  0  0  0  0  0  0  0  0
  142.0050   76.5490  219.3380 C   0  0  0  0  0  0  0  0  0  0  0  0
  142.2520   77.3640  218.3430 O   0  0  0  0  0  0  0  0  0  0  0  0
  142.8060   75.4130  219.3760 N   0  0  0  0  0  0  0  0  0  0  0  0
  142.8270   74.3510  220.3420 C   0  0  0  0  0  0  0  0  0  0  0  0
  144.2670   73.8910  220.5290 C   0  0  0  0  0  0  0  0  0  0  0  0
  144.7450   73.2220  219.2900 C   0  0  0  0  0  0  0  0  0  0  0  0
  144.7150   71.7560  219.3270 C   0  0  0  0  0  0  0  0  0  0  0  0
  143.5130   71.1180  219.6680 C   0  0  0  0  0  0  0  0  0  0  0  0
  143.4220   69.7400  219.7200 C   0  0  0  0  0  0  0  0  0  0  0  0
  144.4980   68.9260  219.4420 C   0  0  0  0  0  0  0  0  0  0  0  0
  145.6800   69.5380  219.1070 C   0  0  0  0  0  0  0  0  0  0  0  0
  145.7690   70.9230  219.0550 C   0  0  0  0  0  0  0  0  0  0  0  0
  144.0580   73.7590  218.0500 C   0  0  0  0  0  0  0  0  0  0  0  0
  143.7620   75.2500  218.2470 C   0  0  0  0  0  0  0  0  0  0  0  0
  139.8370   71.1910  223.6370 C   0  0  0  0  0  0  0  0  0  0  0  0
  139.5640   69.8430  223.7830 C   0  0  0  0  0  0  0  0  0  0  0  0
  139.8150   69.2740  225.0270 C   0  0  0  0  0  0  0  0  0  0  0  0
  140.3220   70.0550  226.0530 C   0  0  0  0  0  0  0  0  0  0  0  0
  140.5740   69.4900  227.2960 C   0  0  0  0  0  0  0  0  0  0  0  0
  141.0840   70.3030  228.3170 C   0  0  0  0  0  0  0  0  0  0  0  0
  141.3400   71.6310  228.1250 C   0  0  0  0  0  0  0  0  0  0  0  0
  141.0890   72.2010  226.8790 C   0  0  0  0  0  0  0  0  0  0  0  0
  140.5830   71.4000  225.8680 C   0  0  0  0  0  0  0  0  0  0  0  0
  140.3320   71.9380  224.6520 N   0  0  0  0  0  0  0  0  0  0  0  0
  139.4460   73.7270  223.0800 H   0  0  0  0  0  0  0  0  0  0  0  0
  139.5927   72.9682  220.2060 H   0  0  0  0  0  0  0  0  0  0  0  0
  137.9978   73.7347  220.8729 H   0  0  0  0  0  0  0  0  0  0  0  0
  139.9233   75.9557  223.1236 H   0  0  0  0  0  0  0  0  0  0  0  0
  141.6081   75.9550  222.7190 H   0  0  0  0  0  0  0  0  0  0  0  0
  139.5530   78.2739  222.0859 H   0  0  0  0  0  0  0  0  0  0  0  0
  140.8253   78.4670  223.2143 H   0  0  0  0  0  0  0  0  0  0  0  0
  141.4450   79.0727  220.6867 H   0  0  0  0  0  0  0  0  0  0  0  0
  142.5707   77.9436  221.3590 H   0  0  0  0  0  0  0  0  0  0  0  0
  140.1538   77.3803  219.5085 H   0  0  0  0  0  0  0  0  0  0  0  0
  142.4267   74.7139  221.3002 H   0  0  0  0  0  0  0  0  0  0  0  0
  142.2076   73.5123  219.9912 H   0  0  0  0  0  0  0  0  0  0  0  0
  144.9040   74.7618  220.7433 H   0  0  0  0  0  0  0  0  0  0  0  0
  144.3164   73.1814  221.3681 H   0  0  0  0  0  0  0  0  0  0  0  0
  145.8119   73.4841  219.2357 H   0  0  0  0  0  0  0  0  0  0  0  0
  142.6259   71.7263  219.8984 H   0  0  0  0  0  0  0  0  0  0  0  0
  142.4609   69.2790  219.9917 H   0  0  0  0  0  0  0  0  0  0  0  0
  144.4134   67.8302  219.4867 H   0  0  0  0  0  0  0  0  0  0  0  0
  146.5648   68.9260  218.8776 H   0  0  0  0  0  0  0  0  0  0  0  0
  146.7342   71.3743  218.7817 H   0  0  0  0  0  0  0  0  0  0  0  0
  144.7151   73.6259  217.1779 H   0  0  0  0  0  0  0  0  0  0  0  0
  143.1178   73.2135  217.8814 H   0  0  0  0  0  0  0  0  0  0  0  0
  144.6963   75.7837  218.4758 H   0  0  0  0  0  0  0  0  0  0  0  0
  143.3230   75.6647  217.3276 H   0  0  0  0  0  0  0  0  0  0  0  0
  139.1649   69.2458  222.9499 H   0  0  0  0  0  0  0  0  0  0  0  0
  139.6115   68.2063  225.1960 H   0  0  0  0  0  0  0  0  0  0  0  0
  140.3768   68.4229  227.4761 H   0  0  0  0  0  0  0  0  0  0  0  0
  141.2843   69.8584  229.3030 H   0  0  0  0  0  0  0  0  0  0  0  0
  141.7403   72.2440  228.9460 H   0  0  0  0  0  0  0  0  0  0  0  0
  141.2889   73.2679  226.7009 H   0  0  0  0  0  0  0  0  0  0  0  0
  1  2  2  0
  2  3  1  0
  3  4  1  0
  4  5  1  0
  5  6  2  0
  5  7  1  0
  7  8  1  0
  8  9  1  0
  9 10  1  0
 10 11  1  0
 11 12  1  0
 12 13  2  0
 12 14  1  0
 14 15  1  0
 15 16  1  0
 16 17  1  0
 17 18  1  0
 18 19  2  0
 19 20  1  0
 20 21  2  0
 21 22  1  0
 22 23  2  0
 17 24  1  0
 24 25  1  0
  2 26  1  0
 26 27  2  0
 27 28  1  0
 28 29  2  0
 29 30  1  0
 30 31  2  0
 31 32  1  0
 32 33  2  0
 33 34  1  0
 34 35  2  0
 11  7  1  0
 25 14  1  0
 35 26  1  0
 23 18  1  0
 34 29  1  0
  3 36  1  0
  4 37  1  0
  4 38  1  0
  8 39  1  0
  8 40  1  0
  9 41  1  0
  9 42  1  0
 10 43  1  0
 10 44  1  0
 11 45  1  6
 15 46  1  0
 15 47  1  0
 16 48  1  0
 16 49  1  0
 17 50  1  0
 19 51  1  0
 20 52  1  0
 21 53  1  0
 22 54  1  0
 23 55  1  0
 24 56  1  0
 24 57  1  0
 25 58  1  0
 25 59  1  0
 27 60  1  0
 28 61  1  0
 30 62  1  0
 31 63  1  0
 32 64  1  0
 33 65  1  0
M  END
>  <smiles>  (60) 
O=C(NCC(=O)N1CCCC1C(=O)N1CCC(c2ccccc2)CC1)c1ccc2ccccc2n1

>  <score_type>  (60) 
oracle

>  <origin>  (60) 
autodockgpu

>  <m_score__min__energy>  (60) 
-9.4900000000000002

>  <m_primary>  (60) 
energy

>  <rmsd>  (60) 
5.550014783686498

>  <m_score__min__rmsd>  (60) 
5.550014783686498

>  <meeko>  (60) 
{"free_energy": -8.78, "intermolecular_energy": -10.57, "internal_energy": -2.4, "cluster_size": 6, "cluster_id": 2, "rank_in_cluster": 5}

>  <energy>  (60) 
-8.99

>  <cluster_rmsd>  (60) 
0.38

>  <cluster>  (60) 
2

$$$$

     RDKit          3D

 65 69  0  0  1  0  0  0  0  0999 V2000
  140.6510   77.1750  218.5630 O   0  0  0  0  0  0  0  0  0  0  0  0
  141.8920   77.1130  218.8620 C   0  0  0  0  0  0  0  0  0  0  0  0
  142.5810   78.3700  219.0970 N   0  0  0  0  0  0  0  0  0  0  0  0
  141.7870   79.5350  218.9660 C   0  0  0  0  0  0  0  0  0  0  0  0
  141.7290   80.5240  220.0140 C   0  0  0  0  0  0  0  0  0  0  0  0
  141.7930   81.7610  219.5560 O   0  0  0  0  0  0  0  0  0  0  0  0
  141.6210   80.4480  221.4130 N   0  0  0  0  0  0  0  0  0  0  0  0
  141.5860   81.4120  222.4790 C   0  0  0  0  0  0  0  0  0  0  0  0
  142.4340   80.6670  223.5520 C   0  0  0  0  0  0  0  0  0  0  0  0
  141.6240   79.3900  223.5680 C   0  0  0  0  0  0  0  0  0  0  0  0
  141.5080   79.1390  222.0820 C   0  0  1  0  0  0  0  0  0  0  0  0
  140.2830   78.3910  221.8520 C   0  0  0  0  0  0  0  0  0  0  0  0
  139.2500   79.1640  221.6300 O   0  0  0  0  0  0  0  0  0  0  0  0
  140.0100   77.0280  221.8250 N   0  0  0  0  0  0  0  0  0  0  0  0
  140.9100   75.9210  221.9840 C   0  0  0  0  0  0  0  0  0  0  0  0
  140.4640   74.7930  221.0630 C   0  0  0  0  0  0  0  0  0  0  0  0
  139.1680   74.2400  221.5380 C   0  0  0  0  0  0  0  0  0  0  0  0
  139.2720   72.9990  222.3120 C   0  0  0  0  0  0  0  0  0  0  0  0
  140.5370   72.5960  222.7690 C   0  0  0  0  0  0  0  0  0  0  0  0
  140.6990   71.4380  223.5040 C   0  0  0  0  0  0  0  0  0  0  0  0
  139.6360   70.6220  223.8250 C   0  0  0  0  0  0  0  0  0  0  0  0
  138.3940   71.0030  223.3840 C   0  0  0  0  0  0  0  0  0  0  0  0
  138.2330   72.1690  222.6460 C   0  0  0  0  0  0  0  0  0  0  0  0
  138.3350   75.2770  222.2640 C   0  0  0  0  0  0  0  0  0  0  0  0
  138.5840   76.6510  221.6300 C   0  0  0  0  0  0  0  0  0  0  0  0
  142.6030   75.8470  218.9680 C   0  0  0  0  0  0  0  0  0  0  0  0
  142.1370   74.8000  218.1940 C   0  0  0  0  0  0  0  0  0  0  0  0
  142.8050   73.5850  218.2980 C   0  0  0  0  0  0  0  0  0  0  0  0
  143.8900   73.4640  219.1510 C   0  0  0  0  0  0  0  0  0  0  0  0
  144.5590   72.2520  219.2570 C   0  0  0  0  0  0  0  0  0  0  0  0
  145.6520   72.1580  220.1290 C   0  0  0  0  0  0  0  0  0  0  0  0
  146.0770   73.2210  220.8740 C   0  0  0  0  0  0  0  0  0  0  0  0
  145.4090   74.4380  220.7690 C   0  0  0  0  0  0  0  0  0  0  0  0
  144.3270   74.5350  219.9100 C   0  0  0  0  0  0  0  0  0  0  0  0
  143.6660   75.7100  219.7960 N   0  0  0  0  0  0  0  0  0  0  0  0
  143.5720   78.2620  219.3180 H   0  0  0  0  0  0  0  0  0  0  0  0
  142.1450   80.0560  218.0658 H   0  0  0  0  0  0  0  0  0  0  0  0
  140.7650   79.1283  218.9650 H   0  0  0  0  0  0  0  0  0  0  0  0
  142.0497   82.3644  222.1825 H   0  0  0  0  0  0  0  0  0  0  0  0
  140.5766   81.7005  222.8073 H   0  0  0  0  0  0  0  0  0  0  0  0
  143.4727   80.5031  223.2290 H   0  0  0  0  0  0  0  0  0  0  0  0
  142.5689   81.1781  224.5167 H   0  0  0  0  0  0  0  0  0  0  0  0
  142.1560   78.5747  224.0801 H   0  0  0  0  0  0  0  0  0  0  0  0
  140.6660   79.4539  224.1048 H   0  0  0  0  0  0  0  0  0  0  0  0
  142.3056   78.5150  221.6526 H   0  0  0  0  0  0  0  0  0  0  0  0
  141.9311   76.2331  221.7194 H   0  0  0  0  0  0  0  0  0  0  0  0
  140.9008   75.5775  223.0290 H   0  0  0  0  0  0  0  0  0  0  0  0
  140.3430   75.1817  220.0411 H   0  0  0  0  0  0  0  0  0  0  0  0
  141.2232   73.9970  221.0683 H   0  0  0  0  0  0  0  0  0  0  0  0
  138.6405   73.9582  220.6148 H   0  0  0  0  0  0  0  0  0  0  0  0
  141.4164   73.2148  222.5370 H   0  0  0  0  0  0  0  0  0  0  0  0
  141.7073   71.1586  223.8435 H   0  0  0  0  0  0  0  0  0  0  0  0
  139.7776   69.7021  224.4113 H   0  0  0  0  0  0  0  0  0  0  0  0
  137.5180   70.3798  223.6168 H   0  0  0  0  0  0  0  0  0  0  0  0
  137.2204   72.4401  222.3126 H   0  0  0  0  0  0  0  0  0  0  0  0
  137.2690   75.0193  222.1787 H   0  0  0  0  0  0  0  0  0  0  0  0
  138.6167   75.3018  223.3270 H   0  0  0  0  0  0  0  0  0  0  0  0
  138.3590   76.6061  220.5542 H   0  0  0  0  0  0  0  0  0  0  0  0
  137.9349   77.4009  222.1057 H   0  0  0  0  0  0  0  0  0  0  0  0
  141.2735   74.9233  217.5238 H   0  0  0  0  0  0  0  0  0  0  0  0
  142.4725   72.7210  217.7039 H   0  0  0  0  0  0  0  0  0  0  0  0
  144.2369   71.3812  218.6671 H   0  0  0  0  0  0  0  0  0  0  0  0
  146.1838   71.1990  220.2161 H   0  0  0  0  0  0  0  0  0  0  0  0
  146.9384   73.1166  221.5501 H   0  0  0  0  0  0  0  0  0  0  0  0
  145.7351   75.3077  221.3583 H   0  0  0  0  0  0  0  0  0  0  0  0
  1  2  2  0
  2  3  1  0
  3  4  1  0
  4  5  1  0
  5  6  2  0
  5  7  1  0
  7  8  1  0
  8  9  1  0
  9 10  1  0
 10 11  1  0
 11 12  1  0
 12 13  2  0
 12 14  1  0
 14 15  1  0
 15 16  1  0
 16 17  1  0
 17 18  1  0
 18 19  2  0
 19 20  1  0
 20 21  2  0
 21 22  1  0
 22 23  2  0
 17 24  1  0
 24 25  1  0
  2 26  1  0
 26 27  2  0
 27 28  1  0
 28 29  2  0
 29 30  1  0
 30 31  2  0
 31 32  1  0
 32 33  2  0
 33 34  1  0
 34 35  2  0
 11  7  1  0
 25 14  1  0
 35 26  1  0
 23 18  1  0
 34 29  1  0
  3 36  1  0
  4 37  1  0
  4 38  1  0
  8 39  1  0
  8 40  1  0
  9 41  1  0
  9 42  1  0
 10 43  1  0
 10 44  1  0
 11 45  1  6
 15 46  1  0
 15 47  1  0
 16 48  1  0
 16 49  1  0
 17 50  1  0
 19 51  1  0
 20 52  1  0
 21 53  1  0
 22 54  1  0
 23 55  1  0
 24 56  1  0
 24 57  1  0
 25 58  1  0
 25 59  1  0
 27 60  1  0
 28 61  1  0
 30 62  1  0
 31 63  1  0
 32 64  1  0
 33 65  1  0
M  END
>  <smiles>  (61) 
O=C(NCC(=O)N1CCCC1C(=O)N1CCC(c2ccccc2)CC1)c1ccc2ccccc2n1

>  <score_type>  (61) 
oracle

>  <origin>  (61) 
autodockgpu

>  <m_score__min__energy>  (61) 
-9.4900000000000002

>  <m_primary>  (61) 
energy

>  <rmsd>  (61) 
7.902832331839837

>  <m_score__min__rmsd>  (61) 
7.902832331839837

>  <meeko>  (61) 
{"free_energy": -7.95, "intermolecular_energy": -9.74, "internal_energy": -3.21, "cluster_size": 6, "cluster_id": 7, "rank_in_cluster": 2}

>  <energy>  (61) 
-8.78

>  <cluster_rmsd>  (61) 
0.63

>  <cluster>  (61) 
2

$$$$

     RDKit          3D

 65 69  0  0  1  0  0  0  0  0999 V2000
  140.1290   73.5940  222.3150 O   0  0  0  0  0  0  0  0  0  0  0  0
  140.6610   72.4430  222.4770 C   0  0  0  0  0  0  0  0  0  0  0  0
  141.6250   72.0110  221.4790 N   0  0  0  0  0  0  0  0  0  0  0  0
  141.8660   72.9280  220.4270 C   0  0  0  0  0  0  0  0  0  0  0  0
  143.1220   72.9420  219.7180 C   0  0  0  0  0  0  0  0  0  0  0  0
  144.1670   72.9380  220.5250 O   0  0  0  0  0  0  0  0  0  0  0  0
  143.4640   72.9600  218.3550 N   0  0  0  0  0  0  0  0  0  0  0  0
  143.3160   72.0390  217.2620 C   0  0  0  0  0  0  0  0  0  0  0  0
  144.6730   72.2580  216.5300 C   0  0  0  0  0  0  0  0  0  0  0  0
  144.5500   73.7570  216.3680 C   0  0  0  0  0  0  0  0  0  0  0  0
  144.1350   74.1360  217.7710 C   0  0  1  0  0  0  0  0  0  0  0  0
  143.3560   75.3600  217.6890 C   0  0  0  0  0  0  0  0  0  0  0  0
  143.1630   75.7570  216.4560 O   0  0  0  0  0  0  0  0  0  0  0  0
  142.7880   76.1750  218.6610 N   0  0  0  0  0  0  0  0  0  0  0  0
  142.7740   76.0090  220.0870 C   0  0  0  0  0  0  0  0  0  0  0  0
  141.4360   76.5020  220.6230 C   0  0  0  0  0  0  0  0  0  0  0  0
  141.3430   77.9770  220.4590 C   0  0  0  0  0  0  0  0  0  0  0  0
  141.6360   78.7530  221.6690 C   0  0  0  0  0  0  0  0  0  0  0  0
  142.1500   80.0520  221.5260 C   0  0  0  0  0  0  0  0  0  0  0  0
  142.4450   80.8320  222.6270 C   0  0  0  0  0  0  0  0  0  0  0  0
  142.2530   80.3810  223.9140 C   0  0  0  0  0  0  0  0  0  0  0  0
  141.7520   79.1120  224.0680 C   0  0  0  0  0  0  0  0  0  0  0  0
  141.4550   78.3300  222.9590 C   0  0  0  0  0  0  0  0  0  0  0  0
  142.1490   78.4720  219.2750 C   0  0  0  0  0  0  0  0  0  0  0  0
  142.1180   77.4100  218.1700 C   0  0  0  0  0  0  0  0  0  0  0  0
  140.3310   71.5860  223.6070 C   0  0  0  0  0  0  0  0  0  0  0  0
  139.5530   70.4740  223.3430 C   0  0  0  0  0  0  0  0  0  0  0  0
  139.2250   69.6560  224.4190 C   0  0  0  0  0  0  0  0  0  0  0  0
  139.6780   69.9720  225.6890 C   0  0  0  0  0  0  0  0  0  0  0  0
  139.3520   69.1570  226.7650 C   0  0  0  0  0  0  0  0  0  0  0  0
  139.8230   69.5010  228.0400 C   0  0  0  0  0  0  0  0  0  0  0  0
  140.5910   70.6110  228.2530 C   0  0  0  0  0  0  0  0  0  0  0  0
  140.9200   71.4290  227.1750 C   0  0  0  0  0  0  0  0  0  0  0  0
  140.4560   71.0930  225.9140 C   0  0  0  0  0  0  0  0  0  0  0  0
  140.7650   71.8780  224.8560 N   0  0  0  0  0  0  0  0  0  0  0  0
  142.0080   71.0800  221.6510 H   0  0  0  0  0  0  0  0  0  0  0  0
  141.0851   72.7492  219.6732 H   0  0  0  0  0  0  0  0  0  0  0  0
  141.8773   73.8949  220.9513 H   0  0  0  0  0  0  0  0  0  0  0  0
  143.2061   71.0029  217.6146 H   0  0  0  0  0  0  0  0  0  0  0  0
  142.4244   72.2025  216.6388 H   0  0  0  0  0  0  0  0  0  0  0  0
  145.5365   71.9702  217.1478 H   0  0  0  0  0  0  0  0  0  0  0  0
  144.8394   71.6740  215.6128 H   0  0  0  0  0  0  0  0  0  0  0  0
  145.5084   74.2178  216.0867 H   0  0  0  0  0  0  0  0  0  0  0  0
  143.8607   74.0836  215.5754 H   0  0  0  0  0  0  0  0  0  0  0  0
  144.9647   74.3746  218.4527 H   0  0  0  0  0  0  0  0  0  0  0  0
  142.9039   74.9457  220.3372 H   0  0  0  0  0  0  0  0  0  0  0  0
  143.5944   76.5854  220.5395 H   0  0  0  0  0  0  0  0  0  0  0  0
  140.6190   76.0200  220.0661 H   0  0  0  0  0  0  0  0  0  0  0  0
  141.3555   76.2484  221.6903 H   0  0  0  0  0  0  0  0  0  0  0  0
  140.2781   78.1598  220.2528 H   0  0  0  0  0  0  0  0  0  0  0  0
  142.3210   80.4562  220.5174 H   0  0  0  0  0  0  0  0  0  0  0  0
  142.8456   81.8445  222.4711 H   0  0  0  0  0  0  0  0  0  0  0  0
  142.4913   81.0117  224.7831 H   0  0  0  0  0  0  0  0  0  0  0  0
  141.5843   78.7110  225.0785 H   0  0  0  0  0  0  0  0  0  0  0  0
  141.0539   77.3193  223.1254 H   0  0  0  0  0  0  0  0  0  0  0  0
  141.7130   79.4090  218.8981 H   0  0  0  0  0  0  0  0  0  0  0  0
  143.1885   78.6558  219.5843 H   0  0  0  0  0  0  0  0  0  0  0  0
  141.0744   77.1829  217.9069 H   0  0  0  0  0  0  0  0  0  0  0  0
  142.6428   77.7868  217.2797 H   0  0  0  0  0  0  0  0  0  0  0  0
  139.2076   70.2456  222.3239 H   0  0  0  0  0  0  0  0  0  0  0  0
  138.6070   68.7598  224.2616 H   0  0  0  0  0  0  0  0  0  0  0  0
  138.7354   68.2577  226.6197 H   0  0  0  0  0  0  0  0  0  0  0  0
  139.5665   68.8579  228.8947 H   0  0  0  0  0  0  0  0  0  0  0  0
  140.9456   70.8558  229.2651 H   0  0  0  0  0  0  0  0  0  0  0  0
  141.5380   72.3269  227.3225 H   0  0  0  0  0  0  0  0  0  0  0  0
  1  2  2  0
  2  3  1  0
  3  4  1  0
  4  5  1  0
  5  6  2  0
  5  7  1  0
  7  8  1  0
  8  9  1  0
  9 10  1  0
 10 11  1  0
 11 12  1  0
 12 13  2  0
 12 14  1  0
 14 15  1  0
 15 16  1  0
 16 17  1  0
 17 18  1  0
 18 19  2  0
 19 20  1  0
 20 21  2  0
 21 22  1  0
 22 23  2  0
 17 24  1  0
 24 25  1  0
  2 26  1  0
 26 27  2  0
 27 28  1  0
 28 29  2  0
 29 30  1  0
 30 31  2  0
 31 32  1  0
 32 33  2  0
 33 34  1  0
 34 35  2  0
 11  7  1  0
 25 14  1  0
 35 26  1  0
 23 18  1  0
 34 29  1  0
  3 36  1  0
  4 37  1  0
  4 38  1  0
  8 39  1  0
  8 40  1  0
  9 41  1  0
  9 42  1  0
 10 43  1  0
 10 44  1  0
 11 45  1  1
 15 46  1  0
 15 47  1  0
 16 48  1  0
 16 49  1  0
 17 50  1  0
 19 51  1  0
 20 52  1  0
 21 53  1  0
 22 54  1  0
 23 55  1  0
 24 56  1  0
 24 57  1  0
 25 58  1  0
 25 59  1  0
 27 60  1  0
 28 61  1  0
 30 62  1  0
 31 63  1  0
 32 64  1  0
 33 65  1  0
M  END
>  <smiles>  (62) 
O=C(NCC(=O)N1CCCC1C(=O)N1CCC(c2ccccc2)CC1)c1ccc2ccccc2n1

>  <score_type>  (62) 
oracle

>  <origin>  (62) 
autodockgpu

>  <m_score__min__energy>  (62) 
-9.4900000000000002

>  <m_primary>  (62) 
energy

>  <rmsd>  (62) 
3.908154863441618

>  <m_score__min__rmsd>  (62) 
3.908154863441618

>  <meeko>  (62) 
{"free_energy": -9.46, "intermolecular_energy": -11.25, "internal_energy": -1.82, "cluster_size": 6, "cluster_id": 1, "rank_in_cluster": 2}

>  <energy>  (62) 
-8.78

>  <cluster_rmsd>  (62) 
0.8

>  <cluster>  (62) 
2

$$$$

     RDKit          3D

 65 69  0  0  1  0  0  0  0  0999 V2000
  139.9610   73.0040  222.7870 O   0  0  0  0  0  0  0  0  0  0  0  0
  140.1600   71.7460  222.6720 C   0  0  0  0  0  0  0  0  0  0  0  0
  140.5130   71.2490  221.3540 N   0  0  0  0  0  0  0  0  0  0  0  0
  140.5970   72.2280  220.3340 C   0  0  0  0  0  0  0  0  0  0  0  0
  141.6530   73.2090  220.3220 C   0  0  0  0  0  0  0  0  0  0  0  0
  142.6400   72.9110  221.1470 O   0  0  0  0  0  0  0  0  0  0  0  0
  141.8520   74.4100  219.6200 N   0  0  0  0  0  0  0  0  0  0  0  0
  141.6960   74.8200  218.2510 C   0  0  0  0  0  0  0  0  0  0  0  0
  142.9390   75.7450  218.0960 C   0  0  0  0  0  0  0  0  0  0  0  0
  142.6360   76.6520  219.2680 C   0  0  0  0  0  0  0  0  0  0  0  0
  142.3260   75.6150  220.3240 C   0  0  1  0  0  0  0  0  0  0  0  0
  141.4120   76.2160  221.2820 C   0  0  0  0  0  0  0  0  0  0  0  0
  140.6790   75.3300  221.9080 O   0  0  0  0  0  0  0  0  0  0  0  0
  141.1760   77.5350  221.6500 N   0  0  0  0  0  0  0  0  0  0  0  0
  141.8270   78.7320  221.1960 C   0  0  0  0  0  0  0  0  0  0  0  0
  141.9370   79.7010  222.3670 C   0  0  0  0  0  0  0  0  0  0  0  0
  140.5820   80.1830  222.7490 C   0  0  0  0  0  0  0  0  0  0  0  0
  140.2280   81.5080  222.2300 C   0  0  0  0  0  0  0  0  0  0  0  0
  138.8920   81.9280  222.3150 C   0  0  0  0  0  0  0  0  0  0  0  0
  138.4970   83.1660  221.8450 C   0  0  0  0  0  0  0  0  0  0  0  0
  139.3870   84.0470  221.2720 C   0  0  0  0  0  0  0  0  0  0  0  0
  140.6970   83.6490  221.1820 C   0  0  0  0  0  0  0  0  0  0  0  0
  141.0920   82.4040  221.6560 C   0  0  0  0  0  0  0  0  0  0  0  0
  139.5050   79.1620  222.4400 C   0  0  0  0  0  0  0  0  0  0  0  0
  140.0800   77.7540  222.6330 C   0  0  0  0  0  0  0  0  0  0  0  0
  140.0440   70.8340  223.8010 C   0  0  0  0  0  0  0  0  0  0  0  0
  139.3420   69.6620  223.5890 C   0  0  0  0  0  0  0  0  0  0  0  0
  139.2180   68.7910  224.6660 C   0  0  0  0  0  0  0  0  0  0  0  0
  139.7900   69.1150  225.8860 C   0  0  0  0  0  0  0  0  0  0  0  0
  139.6680   68.2470  226.9630 C   0  0  0  0  0  0  0  0  0  0  0  0
  140.2540   68.6010  228.1850 C   0  0  0  0  0  0  0  0  0  0  0  0
  140.9410   69.7710  228.3470 C   0  0  0  0  0  0  0  0  0  0  0  0
  141.0650   70.6430  227.2680 C   0  0  0  0  0  0  0  0  0  0  0  0
  140.4860   70.2970  226.0590 C   0  0  0  0  0  0  0  0  0  0  0  0
  140.5960   71.1340  225.0010 N   0  0  0  0  0  0  0  0  0  0  0  0
  140.6470   70.2370  221.3170 H   0  0  0  0  0  0  0  0  0  0  0  0
  140.6699   71.6807  219.3826 H   0  0  0  0  0  0  0  0  0  0  0  0
  139.7033   72.8421  220.5189 H   0  0  0  0  0  0  0  0  0  0  0  0
  141.7373   73.9634  217.5621 H   0  0  0  0  0  0  0  0  0  0  0  0
  140.7331   75.2991  218.0201 H   0  0  0  0  0  0  0  0  0  0  0  0
  143.8871   75.2009  218.2182 H   0  0  0  0  0  0  0  0  0  0  0  0
  143.0745   76.2303  217.1182 H   0  0  0  0  0  0  0  0  0  0  0  0
  143.5044   77.2687  219.5430 H   0  0  0  0  0  0  0  0  0  0  0  0
  141.8384   77.3887  219.0916 H   0  0  0  0  0  0  0  0  0  0  0  0
  143.1891   75.2889  220.9230 H   0  0  0  0  0  0  0  0  0  0  0  0
  142.8321   78.4878  220.8217 H   0  0  0  0  0  0  0  0  0  0  0  0
  141.2450   79.1904  220.3829 H   0  0  0  0  0  0  0  0  0  0  0  0
  142.3975   79.1878  223.2241 H   0  0  0  0  0  0  0  0  0  0  0  0
  142.5589   80.5591  222.0722 H   0  0  0  0  0  0  0  0  0  0  0  0
  140.6373   80.3088  223.8404 H   0  0  0  0  0  0  0  0  0  0  0  0
  138.1441   81.2584  222.7648 H   0  0  0  0  0  0  0  0  0  0  0  0
  137.4396   83.4566  221.9312 H   0  0  0  0  0  0  0  0  0  0  0  0
  139.0608   85.0300  220.9015 H   0  0  0  0  0  0  0  0  0  0  0  0
  141.4412   84.3216  220.7306 H   0  0  0  0  0  0  0  0  0  0  0  0
  142.1517   82.1232  221.5661 H   0  0  0  0  0  0  0  0  0  0  0  0
  138.6526   79.3083  223.1196 H   0  0  0  0  0  0  0  0  0  0  0  0
  139.1645   79.2846  221.4012 H   0  0  0  0  0  0  0  0  0  0  0  0
  140.4764   77.6551  223.6543 H   0  0  0  0  0  0  0  0  0  0  0  0
  139.2883   77.0064  222.4770 H   0  0  0  0  0  0  0  0  0  0  0  0
  138.8999   69.4282  222.6093 H   0  0  0  0  0  0  0  0  0  0  0  0
  138.6667   67.8462  224.5497 H   0  0  0  0  0  0  0  0  0  0  0  0
  139.1210   67.2984  226.8584 H   0  0  0  0  0  0  0  0  0  0  0  0
  140.1582   67.9161  229.0404 H   0  0  0  0  0  0  0  0  0  0  0  0
  141.3912   70.0215  229.3189 H   0  0  0  0  0  0  0  0  0  0  0  0
  141.6136   71.5904  227.3747 H   0  0  0  0  0  0  0  0  0  0  0  0
  1  2  2  0
  2  3  1  0
  3  4  1  0
  4  5  1  0
  5  6  2  0
  5  7  1  0
  7  8  1  0
  8  9  1  0
  9 10  1  0
 10 11  1  0
 11 12  1  0
 12 13  2  0
 12 14  1  0
 14 15  1  0
 15 16  1  0
 16 17  1  0
 17 18  1  0
 18 19  2  0
 19 20  1  0
 20 21  2  0
 21 22  1  0
 22 23  2  0
 17 24  1  0
 24 25  1  0
  2 26  1  0
 26 27  2  0
 27 28  1  0
 28 29  2  0
 29 30  1  0
 30 31  2  0
 31 32  1  0
 32 33  2  0
 33 34  1  0
 34 35  2  0
 11  7  1  0
 25 14  1  0
 35 26  1  0
 23 18  1  0
 34 29  1  0
  3 36  1  0
  4 37  1  0
  4 38  1  0
  8 39  1  0
  8 40  1  0
  9 41  1  0
  9 42  1  0
 10 43  1  0
 10 44  1  0
 11 45  1  1
 15 46  1  0
 15 47  1  0
 16 48  1  0
 16 49  1  0
 17 50  1  0
 19 51  1  0
 20 52  1  0
 21 53  1  0
 22 54  1  0
 23 55  1  0
 24 56  1  0
 24 57  1  0
 25 58  1  0
 25 59  1  0
 27 60  1  0
 28 61  1  0
 30 62  1  0
 31 63  1  0
 32 64  1  0
 33 65  1  0
M  END
>  <smiles>  (63) 
O=C(NCC(=O)N1CCCC1C(=O)N1CCC(c2ccccc2)CC1)c1ccc2ccccc2n1

>  <score_type>  (63) 
oracle

>  <origin>  (63) 
autodockgpu

>  <m_score__min__energy>  (63) 
-9.4900000000000002

>  <m_primary>  (63) 
energy

>  <rmsd>  (63) 
2.3329869791051068

>  <m_score__min__rmsd>  (63) 
2.3329869791051068

>  <meeko>  (63) 
{"free_energy": -9.32, "intermolecular_energy": -11.11, "internal_energy": -1.49, "cluster_size": 6, "cluster_id": 1, "rank_in_cluster": 4}

>  <energy>  (63) 
-8.83

>  <cluster_rmsd>  (63) 
0.0

>  <cluster>  (63) 
3

$$$$

     RDKit          3D

 65 69  0  0  1  0  0  0  0  0999 V2000
  138.6280   70.5480  221.4120 O   0  0  0  0  0  0  0  0  0  0  0  0
  138.8760   71.2860  222.4260 C   0  0  0  0  0  0  0  0  0  0  0  0
  138.7010   72.7190  222.2620 N   0  0  0  0  0  0  0  0  0  0  0  0
  138.2710   73.1380  220.9790 C   0  0  0  0  0  0  0  0  0  0  0  0
  139.2160   73.4350  219.9320 C   0  0  0  0  0  0  0  0  0  0  0  0
  138.8080   73.0320  218.7430 O   0  0  0  0  0  0  0  0  0  0  0  0
  140.4750   74.0590  219.9110 N   0  0  0  0  0  0  0  0  0  0  0  0
  141.4060   74.4260  218.8790 C   0  0  0  0  0  0  0  0  0  0  0  0
  142.7510   74.0850  219.5860 C   0  0  0  0  0  0  0  0  0  0  0  0
  142.5210   74.9220  220.8250 C   0  0  0  0  0  0  0  0  0  0  0  0
  141.1120   74.4950  221.1670 C   0  0  1  0  0  0  0  0  0  0  0  0
  140.4750   75.5910  221.8780 C   0  0  0  0  0  0  0  0  0  0  0  0
  139.5400   75.1880  222.7010 O   0  0  0  0  0  0  0  0  0  0  0  0
  140.6720   76.9670  221.8450 N   0  0  0  0  0  0  0  0  0  0  0  0
  141.6320   77.7280  221.0950 C   0  0  0  0  0  0  0  0  0  0  0  0
  142.0920   78.9060  221.9440 C   0  0  0  0  0  0  0  0  0  0  0  0
  140.9700   79.8660  222.1190 C   0  0  0  0  0  0  0  0  0  0  0  0
  141.0110   81.0330  221.2310 C   0  0  0  0  0  0  0  0  0  0  0  0
  140.5890   82.2740  221.7330 C   0  0  0  0  0  0  0  0  0  0  0  0
  140.6050   83.4090  220.9450 C   0  0  0  0  0  0  0  0  0  0  0  0
  141.0320   83.3830  219.6350 C   0  0  0  0  0  0  0  0  0  0  0  0
  141.4460   82.1750  219.1320 C   0  0  0  0  0  0  0  0  0  0  0  0
  141.4300   81.0360  219.9260 C   0  0  0  0  0  0  0  0  0  0  0  0
  139.6190   79.1820  222.0720 C   0  0  0  0  0  0  0  0  0  0  0  0
  139.7470   77.7800  222.6800 C   0  0  0  0  0  0  0  0  0  0  0  0
  139.3130   70.7350  223.7010 C   0  0  0  0  0  0  0  0  0  0  0  0
  139.1860   69.3680  223.8680 C   0  0  0  0  0  0  0  0  0  0  0  0
  139.5910   68.8350  225.0870 C   0  0  0  0  0  0  0  0  0  0  0  0
  140.1000   69.6690  226.0700 C   0  0  0  0  0  0  0  0  0  0  0  0
  140.5050   69.1400  227.2880 C   0  0  0  0  0  0  0  0  0  0  0  0
  141.0140   70.0060  228.2640 C   0  0  0  0  0  0  0  0  0  0  0  0
  141.1220   71.3520  228.0530 C   0  0  0  0  0  0  0  0  0  0  0  0
  140.7160   71.8850  226.8330 C   0  0  0  0  0  0  0  0  0  0  0  0
  140.2120   71.0320  225.8650 C   0  0  0  0  0  0  0  0  0  0  0  0
  139.8120   71.5340  224.6740 N   0  0  0  0  0  0  0  0  0  0  0  0
  138.9250   73.2600  223.0980 H   0  0  0  0  0  0  0  0  0  0  0  0
  137.6197   72.3400  220.5931 H   0  0  0  0  0  0  0  0  0  0  0  0
  137.8274   74.1230  221.1862 H   0  0  0  0  0  0  0  0  0  0  0  0
  141.2613   73.8266  217.9680 H   0  0  0  0  0  0  0  0  0  0  0  0
  141.3198   75.4651  218.5285 H   0  0  0  0  0  0  0  0  0  0  0  0
  142.8476   73.0131  219.8135 H   0  0  0  0  0  0  0  0  0  0  0  0
  143.6718   74.2856  219.0186 H   0  0  0  0  0  0  0  0  0  0  0  0
  143.2307   74.6696  221.6266 H   0  0  0  0  0  0  0  0  0  0  0  0
  142.6581   76.0046  220.6868 H   0  0  0  0  0  0  0  0  0  0  0  0
  141.0403   73.6358  221.8502 H   0  0  0  0  0  0  0  0  0  0  0  0
  142.4945   77.0926  220.8453 H   0  0  0  0  0  0  0  0  0  0  0  0
  141.1754   78.0931  220.1632 H   0  0  0  0  0  0  0  0  0  0  0  0
  142.4183   78.5414  222.9292 H   0  0  0  0  0  0  0  0  0  0  0  0
  142.9295   79.4121  221.4416 H   0  0  0  0  0  0  0  0  0  0  0  0
  141.1167   80.2709  223.1312 H   0  0  0  0  0  0  0  0  0  0  0  0
  140.2389   82.3444  222.7734 H   0  0  0  0  0  0  0  0  0  0  0  0
  140.2665   84.3625  221.3766 H   0  0  0  0  0  0  0  0  0  0  0  0
  141.0407   84.2934  219.0176 H   0  0  0  0  0  0  0  0  0  0  0  0
  141.7936   82.1085  218.0905 H   0  0  0  0  0  0  0  0  0  0  0  0
  141.7710   80.0877  219.4851 H   0  0  0  0  0  0  0  0  0  0  0  0
  138.8885   79.7686  222.6485 H   0  0  0  0  0  0  0  0  0  0  0  0
  139.2780   79.1048  221.0291 H   0  0  0  0  0  0  0  0  0  0  0  0
  140.1459   77.8573  223.7022 H   0  0  0  0  0  0  0  0  0  0  0  0
  138.7582   77.2991  222.7112 H   0  0  0  0  0  0  0  0  0  0  0  0
  138.7813   68.7287  223.0696 H   0  0  0  0  0  0  0  0  0  0  0  0
  139.5075   67.7537  225.2707 H   0  0  0  0  0  0  0  0  0  0  0  0
  140.4275   68.0602  227.4830 H   0  0  0  0  0  0  0  0  0  0  0  0
  141.3367   69.5901  229.2299 H   0  0  0  0  0  0  0  0  0  0  0  0
  141.5255   72.0072  228.8391 H   0  0  0  0  0  0  0  0  0  0  0  0
  140.7941   72.9653  226.6408 H   0  0  0  0  0  0  0  0  0  0  0  0
  1  2  2  0
  2  3  1  0
  3  4  1  0
  4  5  1  0
  5  6  2  0
  5  7  1  0
  7  8  1  0
  8  9  1  0
  9 10  1  0
 10 11  1  0
 11 12  1  0
 12 13  2  0
 12 14  1  0
 14 15  1  0
 15 16  1  0
 16 17  1  0
 17 18  1  0
 18 19  2  0
 19 20  1  0
 20 21  2  0
 21 22  1  0
 22 23  2  0
 17 24  1  0
 24 25  1  0
  2 26  1  0
 26 27  2  0
 27 28  1  0
 28 29  2  0
 29 30  1  0
 30 31  2  0
 31 32  1  0
 32 33  2  0
 33 34  1  0
 34 35  2  0
 11  7  1  0
 25 14  1  0
 35 26  1  0
 23 18  1  0
 34 29  1  0
  3 36  1  0
  4 37  1  0
  4 38  1  0
  8 39  1  0
  8 40  1  0
  9 41  1  0
  9 42  1  0
 10 43  1  0
 10 44  1  0
 11 45  1  1
 15 46  1  0
 15 47  1  0
 16 48  1  0
 16 49  1  0
 17 50  1  0
 19 51  1  0
 20 52  1  0
 21 53  1  0
 22 54  1  0
 23 55  1  0
 24 56  1  0
 24 57  1  0
 25 58  1  0
 25 59  1  0
 27 60  1  0
 28 61  1  0
 30 62  1  0
 31 63  1  0
 32 64  1  0
 33 65  1  0
M  END
>  <smiles>  (64) 
O=C(NCC(=O)N1CCCC1C(=O)N1CCC(c2ccccc2)CC1)c1ccc2ccccc2n1

>  <score_type>  (64) 
oracle

>  <origin>  (64) 
autodockgpu

>  <m_score__min__energy>  (64) 
-9.4900000000000002

>  <m_primary>  (64) 
energy

>  <rmsd>  (64) 
2.291943978810167

>  <m_score__min__rmsd>  (64) 
2.291943978810167

>  <meeko>  (64) 
{"free_energy": -8.83, "intermolecular_energy": -10.62, "internal_energy": -2.66, "cluster_size": 2, "cluster_id": 3, "rank_in_cluster": 1}

>  <energy>  (64) 
-8.64

>  <cluster_rmsd>  (64) 
0.3

>  <cluster>  (64) 
3

$$$$

     RDKit          3D

 65 69  0  0  1  0  0  0  0  0999 V2000
  138.9970   75.2200  221.8200 O   0  0  0  0  0  0  0  0  0  0  0  0
  140.1300   75.7990  221.9460 C   0  0  0  0  0  0  0  0  0  0  0  0
  141.3110   75.0280  221.5990 N   0  0  0  0  0  0  0  0  0  0  0  0
  141.0680   73.7050  221.1550 C   0  0  0  0  0  0  0  0  0  0  0  0
  142.1350   72.7420  221.0460 C   0  0  0  0  0  0  0  0  0  0  0  0
  141.8370   71.5800  221.5960 O   0  0  0  0  0  0  0  0  0  0  0  0
  143.4210   72.7820  220.4800 N   0  0  0  0  0  0  0  0  0  0  0  0
  144.4230   71.7980  220.1740 C   0  0  0  0  0  0  0  0  0  0  0  0
  145.7100   72.5830  220.5630 C   0  0  0  0  0  0  0  0  0  0  0  0
  145.4510   73.7950  219.6950 C   0  0  0  0  0  0  0  0  0  0  0  0
  144.0080   74.0650  220.0520 C   0  0  1  0  0  0  0  0  0  0  0  0
  143.3850   74.7230  218.9150 C   0  0  0  0  0  0  0  0  0  0  0  0
  143.3530   73.9670  217.8460 O   0  0  0  0  0  0  0  0  0  0  0  0
  142.8250   75.9850  218.7560 N   0  0  0  0  0  0  0  0  0  0  0  0
  142.6600   77.0320  219.7240 C   0  0  0  0  0  0  0  0  0  0  0  0
  141.3430   77.7470  219.4500 C   0  0  0  0  0  0  0  0  0  0  0  0
  141.4340   78.4930  218.1670 C   0  0  0  0  0  0  0  0  0  0  0  0
  141.7010   79.9290  218.3040 C   0  0  0  0  0  0  0  0  0  0  0  0
  141.2170   80.5960  219.4400 C   0  0  0  0  0  0  0  0  0  0  0  0
  141.4360   81.9470  219.6260 C   0  0  0  0  0  0  0  0  0  0  0  0
  142.1350   82.7060  218.7120 C   0  0  0  0  0  0  0  0  0  0  0  0
  142.6130   82.0660  217.5970 C   0  0  0  0  0  0  0  0  0  0  0  0
  142.3920   80.7060  217.4120 C   0  0  0  0  0  0  0  0  0  0  0  0
  142.3980   77.8410  217.1950 C   0  0  0  0  0  0  0  0  0  0  0  0
  142.3490   76.3210  217.3860 C   0  0  0  0  0  0  0  0  0  0  0  0
  140.2540   77.1730  222.4130 C   0  0  0  0  0  0  0  0  0  0  0  0
  139.0790   77.8460  222.6960 C   0  0  0  0  0  0  0  0  0  0  0  0
  139.1890   79.1610  223.1330 C   0  0  0  0  0  0  0  0  0  0  0  0
  140.4400   79.7410  223.2700 C   0  0  0  0  0  0  0  0  0  0  0  0
  140.5520   81.0550  223.7060 C   0  0  0  0  0  0  0  0  0  0  0  0
  141.8290   81.6170  223.8350 C   0  0  0  0  0  0  0  0  0  0  0  0
  142.9630   80.9120  223.5450 C   0  0  0  0  0  0  0  0  0  0  0  0
  142.8530   79.5940  223.1070 C   0  0  0  0  0  0  0  0  0  0  0  0
  141.5920   79.0350  222.9780 C   0  0  0  0  0  0  0  0  0  0  0  0
  141.4680   77.7570  222.5540 N   0  0  0  0  0  0  0  0  0  0  0  0
  142.1880   75.5340  221.7300 H   0  0  0  0  0  0  0  0  0  0  0  0
  140.3306   73.2748  221.8486 H   0  0  0  0  0  0  0  0  0  0  0  0
  140.7762   73.8563  220.1053 H   0  0  0  0  0  0  0  0  0  0  0  0
  144.3007   70.8896  220.7821 H   0  0  0  0  0  0  0  0  0  0  0  0
  144.4043   71.4278  219.1383 H   0  0  0  0  0  0  0  0  0  0  0  0
  145.7447   72.8313  221.6341 H   0  0  0  0  0  0  0  0  0  0  0  0
  146.6687   72.0646  220.4140 H   0  0  0  0  0  0  0  0  0  0  0  0
  146.1037   74.6383  219.9650 H   0  0  0  0  0  0  0  0  0  0  0  0
  145.6447   73.6483  218.6222 H   0  0  0  0  0  0  0  0  0  0  0  0
  143.8592   74.7556  220.8951 H   0  0  0  0  0  0  0  0  0  0  0  0
  142.6438   76.6013  220.7360 H   0  0  0  0  0  0  0  0  0  0  0  0
  143.4953   77.7441  219.6521 H   0  0  0  0  0  0  0  0  0  0  0  0
  140.5318   77.0068  219.3856 H   0  0  0  0  0  0  0  0  0  0  0  0
  141.1354   78.4531  220.2675 H   0  0  0  0  0  0  0  0  0  0  0  0
  140.4203   78.4298  217.7446 H   0  0  0  0  0  0  0  0  0  0  0  0
  140.6523   80.0319  220.1969 H   0  0  0  0  0  0  0  0  0  0  0  0
  141.0407   82.4319  220.5308 H   0  0  0  0  0  0  0  0  0  0  0  0
  142.3027   83.7815  218.8704 H   0  0  0  0  0  0  0  0  0  0  0  0
  143.1765   82.6341  216.8422 H   0  0  0  0  0  0  0  0  0  0  0  0
  142.7918   80.2302  216.5044 H   0  0  0  0  0  0  0  0  0  0  0  0
  142.1084   78.0925  216.1640 H   0  0  0  0  0  0  0  0  0  0  0  0
  143.4185   78.2061  217.3831 H   0  0  0  0  0  0  0  0  0  0  0  0
  141.3153   75.9671  217.2584 H   0  0  0  0  0  0  0  0  0  0  0  0
  142.9942   75.8335  216.6403 H   0  0  0  0  0  0  0  0  0  0  0  0
  138.0986   77.3608  222.5801 H   0  0  0  0  0  0  0  0  0  0  0  0
  138.2843   79.7403  223.3697 H   0  0  0  0  0  0  0  0  0  0  0  0
  139.6543   81.6438  223.9457 H   0  0  0  0  0  0  0  0  0  0  0  0
  141.9214   82.6573  224.1802 H   0  0  0  0  0  0  0  0  0  0  0  0
  143.9522   81.3801  223.6562 H   0  0  0  0  0  0  0  0  0  0  0  0
  143.7521   79.0072  222.8677 H   0  0  0  0  0  0  0  0  0  0  0  0
  1  2  2  0
  2  3  1  0
  3  4  1  0
  4  5  1  0
  5  6  2  0
  5  7  1  0
  7  8  1  0
  8  9  1  0
  9 10  1  0
 10 11  1  0
 11 12  1  0
 12 13  2  0
 12 14  1  0
 14 15  1  0
 15 16  1  0
 16 17  1  0
 17 18  1  0
 18 19  2  0
 19 20  1  0
 20 21  2  0
 21 22  1  0
 22 23  2  0
 17 24  1  0
 24 25  1  0
  2 26  1  0
 26 27  2  0
 27 28  1  0
 28 29  2  0
 29 30  1  0
 30 31  2  0
 31 32  1  0
 32 33  2  0
 33 34  1  0
 34 35  2  0
 11  7  1  0
 25 14  1  0
 35 26  1  0
 23 18  1  0
 34 29  1  0
  3 36  1  0
  4 37  1  0
  4 38  1  0
  8 39  1  0
  8 40  1  0
  9 41  1  0
  9 42  1  0
 10 43  1  0
 10 44  1  0
 11 45  1  1
 15 46  1  0
 15 47  1  0
 16 48  1  0
 16 49  1  0
 17 50  1  0
 19 51  1  0
 20 52  1  0
 21 53  1  0
 22 54  1  0
 23 55  1  0
 24 56  1  0
 24 57  1  0
 25 58  1  0
 25 59  1  0
 27 60  1  0
 28 61  1  0
 30 62  1  0
 31 63  1  0
 32 64  1  0
 33 65  1  0
M  END
>  <smiles>  (65) 
O=C(NCC(=O)N1CCCC1C(=O)N1CCC(c2ccccc2)CC1)c1ccc2ccccc2n1

>  <score_type>  (65) 
oracle

>  <origin>  (65) 
autodockgpu

>  <m_score__min__energy>  (65) 
-9.4900000000000002

>  <m_primary>  (65) 
energy

>  <rmsd>  (65) 
7.096777892899858

>  <m_score__min__rmsd>  (65) 
7.096777892899858

>  <meeko>  (65) 
{"free_energy": -8.25, "intermolecular_energy": -10.04, "internal_energy": -3.46, "cluster_size": 13, "cluster_id": 4, "rank_in_cluster": 8}

>  <energy>  (65) 
-8.83

>  <cluster_rmsd>  (65) 
0.0

>  <cluster>  (65) 
4

$$$$

     RDKit          3D

 65 69  0  0  1  0  0  0  0  0999 V2000
  135.2810   76.4670  224.5080 O   0  0  0  0  0  0  0  0  0  0  0  0
  135.6100   75.2810  224.1630 C   0  0  0  0  0  0  0  0  0  0  0  0
  136.5780   75.1470  223.0890 N   0  0  0  0  0  0  0  0  0  0  0  0
  137.0530   76.3630  222.5390 C   0  0  0  0  0  0  0  0  0  0  0  0
  138.4640   76.6260  222.4070 C   0  0  0  0  0  0  0  0  0  0  0  0
  138.8200   77.7880  222.9240 O   0  0  0  0  0  0  0  0  0  0  0  0
  139.5340   75.9100  221.8450 N   0  0  0  0  0  0  0  0  0  0  0  0
  140.9650   75.9730  221.9610 C   0  0  0  0  0  0  0  0  0  0  0  0
  141.3760   75.6970  220.4840 C   0  0  0  0  0  0  0  0  0  0  0  0
  140.6160   74.3980  220.3260 C   0  0  0  0  0  0  0  0  0  0  0  0
  139.2790   74.8090  220.8990 C   0  0  1  0  0  0  0  0  0  0  0  0
  138.6420   73.6190  221.4370 C   0  0  0  0  0  0  0  0  0  0  0  0
  137.4660   73.3890  220.9100 O   0  0  0  0  0  0  0  0  0  0  0  0
  139.0440   72.6930  222.3940 N   0  0  0  0  0  0  0  0  0  0  0  0
  140.2770   72.6250  223.1260 C   0  0  0  0  0  0  0  0  0  0  0  0
  140.6550   71.1610  223.3110 C   0  0  0  0  0  0  0  0  0  0  0  0
  139.6860   70.5050  224.2290 C   0  0  0  0  0  0  0  0  0  0  0  0
  140.1460   70.3620  225.6150 C   0  0  0  0  0  0  0  0  0  0  0  0
  140.6560   71.4920  226.2730 C   0  0  0  0  0  0  0  0  0  0  0  0
  141.1050   71.4210  227.5770 C   0  0  0  0  0  0  0  0  0  0  0  0
  141.0740   70.2470  228.2970 C   0  0  0  0  0  0  0  0  0  0  0  0
  140.5780   69.1340  227.6650 C   0  0  0  0  0  0  0  0  0  0  0  0
  140.1270   69.2080  226.3530 C   0  0  0  0  0  0  0  0  0  0  0  0
  138.3140   71.1460  224.1650 C   0  0  0  0  0  0  0  0  0  0  0  0
  138.0560   71.6340  222.7340 C   0  0  0  0  0  0  0  0  0  0  0  0
  135.0510   74.1010  224.8080 C   0  0  0  0  0  0  0  0  0  0  0  0
  134.1630   74.3160  225.8450 C   0  0  0  0  0  0  0  0  0  0  0  0
  133.6330   73.1940  226.4720 C   0  0  0  0  0  0  0  0  0  0  0  0
  134.0010   71.9270  226.0480 C   0  0  0  0  0  0  0  0  0  0  0  0
  133.4740   70.8050  226.6730 C   0  0  0  0  0  0  0  0  0  0  0  0
  133.8640   69.5360  226.2240 C   0  0  0  0  0  0  0  0  0  0  0  0
  134.7460   69.3730  225.1930 C   0  0  0  0  0  0  0  0  0  0  0  0
  135.2760   70.4970  224.5640 C   0  0  0  0  0  0  0  0  0  0  0  0
  134.8930   71.7520  225.0060 C   0  0  0  0  0  0  0  0  0  0  0  0
  135.3990   72.8550  224.4070 N   0  0  0  0  0  0  0  0  0  0  0  0
  136.7940   74.1790  222.8460 H   0  0  0  0  0  0  0  0  0  0  0  0
  136.6274   76.4338  221.5271 H   0  0  0  0  0  0  0  0  0  0  0  0
  136.7426   77.1021  223.2923 H   0  0  0  0  0  0  0  0  0  0  0  0
  141.3027   76.9637  222.2991 H   0  0  0  0  0  0  0  0  0  0  0  0
  141.3984   75.2797  222.6969 H   0  0  0  0  0  0  0  0  0  0  0  0
  141.0230   76.4785  219.7951 H   0  0  0  0  0  0  0  0  0  0  0  0
  142.4543   75.6680  220.2683 H   0  0  0  0  0  0  0  0  0  0  0  0
  140.5338   74.0982  219.2709 H   0  0  0  0  0  0  0  0  0  0  0  0
  141.0806   73.5261  220.8096 H   0  0  0  0  0  0  0  0  0  0  0  0
  138.5620   75.2072  220.1659 H   0  0  0  0  0  0  0  0  0  0  0  0
  141.0690   73.1439  222.5661 H   0  0  0  0  0  0  0  0  0  0  0  0
  140.1576   73.1081  224.1070 H   0  0  0  0  0  0  0  0  0  0  0  0
  140.6364   70.6526  222.3357 H   0  0  0  0  0  0  0  0  0  0  0  0
  141.6652   71.0973  223.7417 H   0  0  0  0  0  0  0  0  0  0  0  0
  139.6058   69.4768  223.8465 H   0  0  0  0  0  0  0  0  0  0  0  0
  140.6989   72.4530  225.7395 H   0  0  0  0  0  0  0  0  0  0  0  0
  141.4994   72.3296  228.0554 H   0  0  0  0  0  0  0  0  0  0  0  0
  141.4322   70.2032  229.3361 H   0  0  0  0  0  0  0  0  0  0  0  0
  140.5372   68.1749  228.2021 H   0  0  0  0  0  0  0  0  0  0  0  0
  139.7349   68.2939  225.8831 H   0  0  0  0  0  0  0  0  0  0  0  0
  137.5487   70.4076  224.4463 H   0  0  0  0  0  0  0  0  0  0  0  0
  138.2688   71.9965  224.8611 H   0  0  0  0  0  0  0  0  0  0  0  0
  138.1623   70.7927  222.0334 H   0  0  0  0  0  0  0  0  0  0  0  0
  137.0368   72.0412  222.6599 H   0  0  0  0  0  0  0  0  0  0  0  0
  133.8870   75.3328  226.1612 H   0  0  0  0  0  0  0  0  0  0  0  0
  132.9225   73.3118  227.3035 H   0  0  0  0  0  0  0  0  0  0  0  0
  132.7630   70.9101  227.5058 H   0  0  0  0  0  0  0  0  0  0  0  0
  133.4478   68.6446  226.7161 H   0  0  0  0  0  0  0  0  0  0  0  0
  135.0345   68.3641  224.8631 H   0  0  0  0  0  0  0  0  0  0  0  0
  135.9862   70.3896  223.7309 H   0  0  0  0  0  0  0  0  0  0  0  0
  1  2  2  0
  2  3  1  0
  3  4  1  0
  4  5  1  0
  5  6  2  0
  5  7  1  0
  7  8  1  0
  8  9  1  0
  9 10  1  0
 10 11  1  0
 11 12  1  0
 12 13  2  0
 12 14  1  0
 14 15  1  0
 15 16  1  0
 16 17  1  0
 17 18  1  0
 18 19  2  0
 19 20  1  0
 20 21  2  0
 21 22  1  0
 22 23  2  0
 17 24  1  0
 24 25  1  0
  2 26  1  0
 26 27  2  0
 27 28  1  0
 28 29  2  0
 29 30  1  0
 30 31  2  0
 31 32  1  0
 32 33  2  0
 33 34  1  0
 34 35  2  0
 11  7  1  0
 25 14  1  0
 35 26  1  0
 23 18  1  0
 34 29  1  0
  3 36  1  0
  4 37  1  0
  4 38  1  0
  8 39  1  0
  8 40  1  0
  9 41  1  0
  9 42  1  0
 10 43  1  0
 10 44  1  0
 11 45  1  6
 15 46  1  0
 15 47  1  0
 16 48  1  0
 16 49  1  0
 17 50  1  0
 19 51  1  0
 20 52  1  0
 21 53  1  0
 22 54  1  0
 23 55  1  0
 24 56  1  0
 24 57  1  0
 25 58  1  0
 25 59  1  0
 27 60  1  0
 28 61  1  0
 30 62  1  0
 31 63  1  0
 32 64  1  0
 33 65  1  0
M  END
>  <smiles>  (66) 
O=C(NCC(=O)N1CCCC1C(=O)N1CCC(c2ccccc2)CC1)c1ccc2ccccc2n1

>  <score_type>  (66) 
oracle

>  <origin>  (66) 
autodockgpu

>  <m_score__min__energy>  (66) 
-9.4900000000000002

>  <m_primary>  (66) 
energy

>  <rmsd>  (66) 
7.199960085843884

>  <m_score__min__rmsd>  (66) 
7.199960085843884

>  <meeko>  (66) 
{"free_energy": -7.98, "intermolecular_energy": -9.77, "internal_energy": -3.6, "cluster_size": 16, "cluster_id": 6, "rank_in_cluster": 13}

>  <energy>  (66) 
-8.82

>  <cluster_rmsd>  (66) 
0.08

>  <cluster>  (66) 
4

$$$$

     RDKit          3D

 65 69  0  0  1  0  0  0  0  0999 V2000
  138.9520   75.1650  221.8950 O   0  0  0  0  0  0  0  0  0  0  0  0
  140.0850   75.7490  221.9960 C   0  0  0  0  0  0  0  0  0  0  0  0
  141.2650   74.9660  221.6720 N   0  0  0  0  0  0  0  0  0  0  0  0
  141.0210   73.6280  221.2760 C   0  0  0  0  0  0  0  0  0  0  0  0
  142.0400   72.8390  220.6300 C   0  0  0  0  0  0  0  0  0  0  0  0
  141.5610   71.7470  220.0630 O   0  0  0  0  0  0  0  0  0  0  0  0
  143.4290   72.9870  220.4800 N   0  0  0  0  0  0  0  0  0  0  0  0
  144.5400   72.0790  220.3980 C   0  0  0  0  0  0  0  0  0  0  0  0
  145.6020   72.8650  221.2230 C   0  0  0  0  0  0  0  0  0  0  0  0
  145.5280   74.1520  220.4320 C   0  0  0  0  0  0  0  0  0  0  0  0
  144.0280   74.3290  220.3660 C   0  0  1  0  0  0  0  0  0  0  0  0
  143.7220   75.0810  219.1610 C   0  0  0  0  0  0  0  0  0  0  0  0
  144.1660   74.5010  218.0730 O   0  0  0  0  0  0  0  0  0  0  0  0
  143.0580   76.2840  218.9510 N   0  0  0  0  0  0  0  0  0  0  0  0
  142.4190   77.1450  219.9070 C   0  0  0  0  0  0  0  0  0  0  0  0
  141.1730   77.7440  219.2690 C   0  0  0  0  0  0  0  0  0  0  0  0
  141.5670   78.6840  218.1860 C   0  0  0  0  0  0  0  0  0  0  0  0
  141.5450   80.1020  218.5600 C   0  0  0  0  0  0  0  0  0  0  0  0
  140.9390   80.4680  219.7720 C   0  0  0  0  0  0  0  0  0  0  0  0
  140.8880   81.7870  220.1790 C   0  0  0  0  0  0  0  0  0  0  0  0
  141.4240   82.8060  219.4230 C   0  0  0  0  0  0  0  0  0  0  0  0
  142.0180   82.4620  218.2350 C   0  0  0  0  0  0  0  0  0  0  0  0
  142.0700   81.1350  217.8280 C   0  0  0  0  0  0  0  0  0  0  0  0
  142.8870   78.3010  217.5480 C   0  0  0  0  0  0  0  0  0  0  0  0
  143.0170   76.7730  217.5460 C   0  0  0  0  0  0  0  0  0  0  0  0
  140.2090   77.1380  222.4140 C   0  0  0  0  0  0  0  0  0  0  0  0
  139.0340   77.8330  222.6310 C   0  0  0  0  0  0  0  0  0  0  0  0
  139.1450   79.1640  223.0200 C   0  0  0  0  0  0  0  0  0  0  0  0
  140.3980   79.7350  223.1780 C   0  0  0  0  0  0  0  0  0  0  0  0
  140.5110   81.0630  223.5670 C   0  0  0  0  0  0  0  0  0  0  0  0
  141.7900   81.6160  223.7170 C   0  0  0  0  0  0  0  0  0  0  0  0
  142.9240   80.8880  223.4920 C   0  0  0  0  0  0  0  0  0  0  0  0
  142.8130   79.5550  223.1020 C   0  0  0  0  0  0  0  0  0  0  0  0
  141.5510   79.0060  222.9520 C   0  0  0  0  0  0  0  0  0  0  0  0
  141.4250   77.7130  222.5730 N   0  0  0  0  0  0  0  0  0  0  0  0
  142.1420   75.4760  221.7820 H   0  0  0  0  0  0  0  0  0  0  0  0
  140.7352   73.0813  222.1868 H   0  0  0  0  0  0  0  0  0  0  0  0
  140.2725   73.7485  220.4790 H   0  0  0  0  0  0  0  0  0  0  0  0
  144.3060   71.1069  220.8566 H   0  0  0  0  0  0  0  0  0  0  0  0
  144.8499   71.8213  219.3745 H   0  0  0  0  0  0  0  0  0  0  0  0
  145.3052   72.9984  222.2738 H   0  0  0  0  0  0  0  0  0  0  0  0
  146.5947   72.4011  221.3196 H   0  0  0  0  0  0  0  0  0  0  0  0
  146.0152   74.9850  220.9600 H   0  0  0  0  0  0  0  0  0  0  0  0
  146.0366   74.1282  219.4569 H   0  0  0  0  0  0  0  0  0  0  0  0
  143.5936   74.9195  221.1861 H   0  0  0  0  0  0  0  0  0  0  0  0
  142.1361   76.5640  220.7972 H   0  0  0  0  0  0  0  0  0  0  0  0
  143.1085   77.9475  220.2079 H   0  0  0  0  0  0  0  0  0  0  0  0
  140.5549   76.9380  218.8467 H   0  0  0  0  0  0  0  0  0  0  0  0
  140.5984   78.2885  220.0328 H   0  0  0  0  0  0  0  0  0  0  0  0
  140.7739   78.5740  217.4318 H   0  0  0  0  0  0  0  0  0  0  0  0
  140.4960   79.6892  220.4102 H   0  0  0  0  0  0  0  0  0  0  0  0
  140.4044   82.0311  221.1364 H   0  0  0  0  0  0  0  0  0  0  0  0
  141.3777   83.8527  219.7580 H   0  0  0  0  0  0  0  0  0  0  0  0
  142.4572   83.2445  217.5988 H   0  0  0  0  0  0  0  0  0  0  0  0
  142.5571   80.9013  216.8698 H   0  0  0  0  0  0  0  0  0  0  0  0
  142.9189   78.6750  216.5140 H   0  0  0  0  0  0  0  0  0  0  0  0
  143.7171   78.7434  218.1182 H   0  0  0  0  0  0  0  0  0  0  0  0
  142.1534   76.3309  217.0275 H   0  0  0  0  0  0  0  0  0  0  0  0
  143.9413   76.4812  217.0258 H   0  0  0  0  0  0  0  0  0  0  0  0
  138.0524   77.3537  222.5015 H   0  0  0  0  0  0  0  0  0  0  0  0
  138.2400   79.7622  223.2019 H   0  0  0  0  0  0  0  0  0  0  0  0
  139.6130   81.6701  223.7541 H   0  0  0  0  0  0  0  0  0  0  0  0
  141.8836   82.6678  224.0251 H   0  0  0  0  0  0  0  0  0  0  0  0
  143.9146   81.3495  223.6175 H   0  0  0  0  0  0  0  0  0  0  0  0
  143.7124   78.9494  222.9165 H   0  0  0  0  0  0  0  0  0  0  0  0
  1  2  2  0
  2  3  1  0
  3  4  1  0
  4  5  1  0
  5  6  2  0
  5  7  1  0
  7  8  1  0
  8  9  1  0
  9 10  1  0
 10 11  1  0
 11 12  1  0
 12 13  2  0
 12 14  1  0
 14 15  1  0
 15 16  1  0
 16 17  1  0
 17 18  1  0
 18 19  2  0
 19 20  1  0
 20 21  2  0
 21 22  1  0
 22 23  2  0
 17 24  1  0
 24 25  1  0
  2 26  1  0
 26 27  2  0
 27 28  1  0
 28 29  2  0
 29 30  1  0
 30 31  2  0
 31 32  1  0
 32 33  2  0
 33 34  1  0
 34 35  2  0
 11  7  1  0
 25 14  1  0
 35 26  1  0
 23 18  1  0
 34 29  1  0
  3 36  1  0
  4 37  1  0
  4 38  1  0
  8 39  1  0
  8 40  1  0
  9 41  1  0
  9 42  1  0
 10 43  1  0
 10 44  1  0
 11 45  1  1
 15 46  1  0
 15 47  1  0
 16 48  1  0
 16 49  1  0
 17 50  1  0
 19 51  1  0
 20 52  1  0
 21 53  1  0
 22 54  1  0
 23 55  1  0
 24 56  1  0
 24 57  1  0
 25 58  1  0
 25 59  1  0
 27 60  1  0
 28 61  1  0
 30 62  1  0
 31 63  1  0
 32 64  1  0
 33 65  1  0
M  END
>  <smiles>  (67) 
O=C(NCC(=O)N1CCCC1C(=O)N1CCC(c2ccccc2)CC1)c1ccc2ccccc2n1

>  <score_type>  (67) 
oracle

>  <origin>  (67) 
autodockgpu

>  <m_score__min__energy>  (67) 
-9.4900000000000002

>  <m_primary>  (67) 
energy

>  <rmsd>  (67) 
7.085635455512464

>  <m_score__min__rmsd>  (67) 
7.085635455512464

>  <meeko>  (67) 
{"free_energy": -8.69, "intermolecular_energy": -10.48, "internal_energy": -3.65, "cluster_size": 13, "cluster_id": 4, "rank_in_cluster": 5}

>  <energy>  (67) 
-8.77

>  <cluster_rmsd>  (67) 
0.08

>  <cluster>  (67) 
4

$$$$

     RDKit          3D

 65 69  0  0  1  0  0  0  0  0999 V2000
  139.0160   75.0600  221.7440 O   0  0  0  0  0  0  0  0  0  0  0  0
  140.1350   75.6370  221.9650 C   0  0  0  0  0  0  0  0  0  0  0  0
  141.3380   74.8470  221.7680 N   0  0  0  0  0  0  0  0  0  0  0  0
  141.1290   73.5100  221.3480 C   0  0  0  0  0  0  0  0  0  0  0  0
  141.7570   72.9910  220.1590 C   0  0  0  0  0  0  0  0  0  0  0  0
  140.8850   72.5870  219.2530 O   0  0  0  0  0  0  0  0  0  0  0  0
  143.0950   72.8230  219.7650 N   0  0  0  0  0  0  0  0  0  0  0  0
  143.9030   71.6980  219.3820 C   0  0  0  0  0  0  0  0  0  0  0  0
  145.2490   72.0790  220.0670 C   0  0  0  0  0  0  0  0  0  0  0  0
  145.3890   73.4480  219.4390 C   0  0  0  0  0  0  0  0  0  0  0  0
  143.9970   73.9850  219.6760 C   0  0  1  0  0  0  0  0  0  0  0  0
  143.7120   74.9570  218.6330 C   0  0  0  0  0  0  0  0  0  0  0  0
  144.2750   74.6540  217.4900 O   0  0  0  0  0  0  0  0  0  0  0  0
  142.9640   76.1290  218.6240 N   0  0  0  0  0  0  0  0  0  0  0  0
  142.1920   76.7190  219.6810 C   0  0  0  0  0  0  0  0  0  0  0  0
  140.9470   77.3560  219.0780 C   0  0  0  0  0  0  0  0  0  0  0  0
  141.3330   78.5310  218.2530 C   0  0  0  0  0  0  0  0  0  0  0  0
  141.1670   79.8310  218.9110 C   0  0  0  0  0  0  0  0  0  0  0  0
  140.0330   80.0370  219.7130 C   0  0  0  0  0  0  0  0  0  0  0  0
  139.8210   81.2400  220.3590 C   0  0  0  0  0  0  0  0  0  0  0  0
  140.7040   82.2920  220.2530 C   0  0  0  0  0  0  0  0  0  0  0  0
  141.8160   82.1030  219.4710 C   0  0  0  0  0  0  0  0  0  0  0  0
  142.0280   80.8930  218.8230 C   0  0  0  0  0  0  0  0  0  0  0  0
  142.7210   78.3830  217.6630 C   0  0  0  0  0  0  0  0  0  0  0  0
  142.9780   76.9030  217.3530 C   0  0  0  0  0  0  0  0  0  0  0  0
  140.2230   77.0250  222.3940 C   0  0  0  0  0  0  0  0  0  0  0  0
  139.0310   77.6780  222.6500 C   0  0  0  0  0  0  0  0  0  0  0  0
  139.1070   79.0080  223.0500 C   0  0  0  0  0  0  0  0  0  0  0  0
  140.3430   79.6210  223.1800 C   0  0  0  0  0  0  0  0  0  0  0  0
  140.4220   80.9480  223.5800 C   0  0  0  0  0  0  0  0  0  0  0  0
  141.6840   81.5430  223.7010 C   0  0  0  0  0  0  0  0  0  0  0  0
  142.8360   80.8570  223.4380 C   0  0  0  0  0  0  0  0  0  0  0  0
  142.7600   79.5250  223.0370 C   0  0  0  0  0  0  0  0  0  0  0  0
  141.5140   78.9340  222.9150 C   0  0  0  0  0  0  0  0  0  0  0  0
  141.4220   77.6410  222.5270 N   0  0  0  0  0  0  0  0  0  0  0  0
  142.2010   75.3520  221.9710 H   0  0  0  0  0  0  0  0  0  0  0  0
  141.4572   72.8680  222.1787 H   0  0  0  0  0  0  0  0  0  0  0  0
  140.0637   73.5101  221.0740 H   0  0  0  0  0  0  0  0  0  0  0  0
  143.4989   70.7535  219.7752 H   0  0  0  0  0  0  0  0  0  0  0  0
  143.9698   71.5259  218.2976 H   0  0  0  0  0  0  0  0  0  0  0  0
  145.1662   72.1244  221.1629 H   0  0  0  0  0  0  0  0  0  0  0  0
  146.0891   71.3829  219.9268 H   0  0  0  0  0  0  0  0  0  0  0  0
  146.1532   74.0546  219.9470 H   0  0  0  0  0  0  0  0  0  0  0  0
  145.7136   73.4461  218.3880 H   0  0  0  0  0  0  0  0  0  0  0  0
  143.8657   74.5359  220.6190 H   0  0  0  0  0  0  0  0  0  0  0  0
  141.8982   75.9427  220.4028 H   0  0  0  0  0  0  0  0  0  0  0  0
  142.7896   77.4822  220.2011 H   0  0  0  0  0  0  0  0  0  0  0  0
  140.4296   76.6196  218.4455 H   0  0  0  0  0  0  0  0  0  0  0  0
  140.2780   77.6839  219.8873 H   0  0  0  0  0  0  0  0  0  0  0  0
  140.6044   78.5330  217.4289 H   0  0  0  0  0  0  0  0  0  0  0  0
  139.2996   79.2255  219.8292 H   0  0  0  0  0  0  0  0  0  0  0  0
  138.9192   81.3614  220.9770 H   0  0  0  0  0  0  0  0  0  0  0  0
  140.5252   83.2443  220.7737 H   0  0  0  0  0  0  0  0  0  0  0  0
  142.5462   82.9176  219.3564 H   0  0  0  0  0  0  0  0  0  0  0  0
  142.9331   80.7817  218.2079 H   0  0  0  0  0  0  0  0  0  0  0  0
  142.7923   78.9714  216.7364 H   0  0  0  0  0  0  0  0  0  0  0  0
  143.4703   78.7473  218.3812 H   0  0  0  0  0  0  0  0  0  0  0  0
  142.1916   76.5251  216.6831 H   0  0  0  0  0  0  0  0  0  0  0  0
  143.9563   76.7919  216.8625 H   0  0  0  0  0  0  0  0  0  0  0  0
  138.0631   77.1668  222.5418 H   0  0  0  0  0  0  0  0  0  0  0  0
  138.1872   79.5725  223.2629 H   0  0  0  0  0  0  0  0  0  0  0  0
  139.5094   81.5221  223.7981 H   0  0  0  0  0  0  0  0  0  0  0  0
  141.7498   82.5945  224.0174 H   0  0  0  0  0  0  0  0  0  0  0  0
  143.8132   81.3513  223.5418 H   0  0  0  0  0  0  0  0  0  0  0  0
  143.6742   78.9527  222.8210 H   0  0  0  0  0  0  0  0  0  0  0  0
  1  2  2  0
  2  3  1  0
  3  4  1  0
  4  5  1  0
  5  6  2  0
  5  7  1  0
  7  8  1  0
  8  9  1  0
  9 10  1  0
 10 11  1  0
 11 12  1  0
 12 13  2  0
 12 14  1  0
 14 15  1  0
 15 16  1  0
 16 17  1  0
 17 18  1  0
 18 19  2  0
 19 20  1  0
 20 21  2  0
 21 22  1  0
 22 23  2  0
 17 24  1  0
 24 25  1  0
  2 26  1  0
 26 27  2  0
 27 28  1  0
 28 29  2  0
 29 30  1  0
 30 31  2  0
 31 32  1  0
 32 33  2  0
 33 34  1  0
 34 35  2  0
 11  7  1  0
 25 14  1  0
 35 26  1  0
 23 18  1  0
 34 29  1  0
  3 36  1  0
  4 37  1  0
  4 38  1  0
  8 39  1  0
  8 40  1  0
  9 41  1  0
  9 42  1  0
 10 43  1  0
 10 44  1  0
 11 45  1  1
 15 46  1  0
 15 47  1  0
 16 48  1  0
 16 49  1  0
 17 50  1  0
 19 51  1  0
 20 52  1  0
 21 53  1  0
 22 54  1  0
 23 55  1  0
 24 56  1  0
 24 57  1  0
 25 58  1  0
 25 59  1  0
 27 60  1  0
 28 61  1  0
 30 62  1  0
 31 63  1  0
 32 64  1  0
 33 65  1  0
M  END
>  <smiles>  (68) 
O=C(NCC(=O)N1CCCC1C(=O)N1CCC(c2ccccc2)CC1)c1ccc2ccccc2n1

>  <score_type>  (68) 
oracle

>  <origin>  (68) 
autodockgpu

>  <m_score__min__energy>  (68) 
-9.4900000000000002

>  <m_primary>  (68) 
energy

>  <rmsd>  (68) 
7.0141260571004285

>  <m_score__min__rmsd>  (68) 
7.0141260571004285

>  <meeko>  (68) 
{"free_energy": -7.63, "intermolecular_energy": -9.42, "internal_energy": -3.98, "cluster_size": 13, "cluster_id": 4, "rank_in_cluster": 10}

>  <energy>  (68) 
-8.77

>  <cluster_rmsd>  (68) 
0.2

>  <cluster>  (68) 
4

$$$$

     RDKit          3D

 65 69  0  0  1  0  0  0  0  0999 V2000
  140.6400   77.1540  218.6780 O   0  0  0  0  0  0  0  0  0  0  0  0
  141.8940   77.1040  218.9190 C   0  0  0  0  0  0  0  0  0  0  0  0
  142.5830   78.3680  219.1120 N   0  0  0  0  0  0  0  0  0  0  0  0
  141.7740   79.5260  219.0090 C   0  0  0  0  0  0  0  0  0  0  0  0
  141.7270   80.5050  220.0670 C   0  0  0  0  0  0  0  0  0  0  0  0
  141.7440   81.7470  219.6190 O   0  0  0  0  0  0  0  0  0  0  0  0
  141.6690   80.4140  221.4680 N   0  0  0  0  0  0  0  0  0  0  0  0
  141.6960   81.3650  222.5450 C   0  0  0  0  0  0  0  0  0  0  0  0
  142.5650   80.5880  223.5780 C   0  0  0  0  0  0  0  0  0  0  0  0
  141.7250   79.3300  223.6090 C   0  0  0  0  0  0  0  0  0  0  0  0
  141.5490   79.1010  222.1260 C   0  0  1  0  0  0  0  0  0  0  0  0
  140.2980   78.3840  221.9330 C   0  0  0  0  0  0  0  0  0  0  0  0
  139.2720   79.1850  221.7890 O   0  0  0  0  0  0  0  0  0  0  0  0
  139.9960   77.0290  221.8740 N   0  0  0  0  0  0  0  0  0  0  0  0
  140.8790   75.8990  221.9510 C   0  0  0  0  0  0  0  0  0  0  0  0
  140.3640   74.8130  221.0160 C   0  0  0  0  0  0  0  0  0  0  0  0
  139.0820   74.2680  221.5360 C   0  0  0  0  0  0  0  0  0  0  0  0
  139.1980   73.0000  222.2630 C   0  0  0  0  0  0  0  0  0  0  0  0
  140.4660   72.5960  222.7110 C   0  0  0  0  0  0  0  0  0  0  0  0
  140.6400   71.4120  223.4010 C   0  0  0  0  0  0  0  0  0  0  0  0
  139.5860   70.5710  223.6840 C   0  0  0  0  0  0  0  0  0  0  0  0
  138.3410   70.9530  223.2510 C   0  0  0  0  0  0  0  0  0  0  0  0
  138.1690   72.1450  222.5580 C   0  0  0  0  0  0  0  0  0  0  0  0
  138.3090   75.2960  222.3380 C   0  0  0  0  0  0  0  0  0  0  0  0
  138.5540   76.6860  221.7390 C   0  0  0  0  0  0  0  0  0  0  0  0
  142.6200   75.8450  219.0020 C   0  0  0  0  0  0  0  0  0  0  0  0
  142.1750   74.8110  218.1990 C   0  0  0  0  0  0  0  0  0  0  0  0
  142.8560   73.6020  218.2810 C   0  0  0  0  0  0  0  0  0  0  0  0
  143.9350   73.4740  219.1410 C   0  0  0  0  0  0  0  0  0  0  0  0
  144.6170   72.2680  219.2250 C   0  0  0  0  0  0  0  0  0  0  0  0
  145.7030   72.1670  220.1050 C   0  0  0  0  0  0  0  0  0  0  0  0
  146.1080   73.2170  220.8800 C   0  0  0  0  0  0  0  0  0  0  0  0
  145.4260   74.4280  220.7970 C   0  0  0  0  0  0  0  0  0  0  0  0
  144.3510   74.5320  219.9290 C   0  0  0  0  0  0  0  0  0  0  0  0
  143.6760   75.7010  219.8380 N   0  0  0  0  0  0  0  0  0  0  0  0
  143.5840   78.2700  219.2880 H   0  0  0  0  0  0  0  0  0  0  0  0
  142.1075   80.0591  218.1065 H   0  0  0  0  0  0  0  0  0  0  0  0
  140.7567   79.1080  219.0261 H   0  0  0  0  0  0  0  0  0  0  0  0
  142.1708   82.3099  222.2422 H   0  0  0  0  0  0  0  0  0  0  0  0
  140.7063   81.6725  222.9136 H   0  0  0  0  0  0  0  0  0  0  0  0
  143.5870   80.4037  223.2153 H   0  0  0  0  0  0  0  0  0  0  0  0
  142.7475   81.0841  224.5426 H   0  0  0  0  0  0  0  0  0  0  0  0
  142.2554   78.4958  224.0915 H   0  0  0  0  0  0  0  0  0  0  0  0
  140.7891   79.4097  224.1815 H   0  0  0  0  0  0  0  0  0  0  0  0
  142.3156   78.4644  221.6601 H   0  0  0  0  0  0  0  0  0  0  0  0
  141.8924   76.1996  221.6466 H   0  0  0  0  0  0  0  0  0  0  0  0
  140.9137   75.5199  222.9830 H   0  0  0  0  0  0  0  0  0  0  0  0
  140.2004   75.2398  220.0154 H   0  0  0  0  0  0  0  0  0  0  0  0
  141.1058   74.0029  220.9563 H   0  0  0  0  0  0  0  0  0  0  0  0
  138.5042   74.0270  220.6315 H   0  0  0  0  0  0  0  0  0  0  0  0
  141.3381   73.2351  222.5085 H   0  0  0  0  0  0  0  0  0  0  0  0
  141.6502   71.1323  223.7345 H   0  0  0  0  0  0  0  0  0  0  0  0
  139.7364   69.6309  224.2350 H   0  0  0  0  0  0  0  0  0  0  0  0
  137.4719   70.3101  223.4543 H   0  0  0  0  0  0  0  0  0  0  0  0
  137.1548   72.4160  222.2294 H   0  0  0  0  0  0  0  0  0  0  0  0
  137.2349   75.0620  222.2990 H   0  0  0  0  0  0  0  0  0  0  0  0
  138.6453   75.2788  223.3852 H   0  0  0  0  0  0  0  0  0  0  0  0
  138.2745   76.6828  220.6751 H   0  0  0  0  0  0  0  0  0  0  0  0
  137.9451   77.4310  222.2720 H   0  0  0  0  0  0  0  0  0  0  0  0
  141.3170   74.9399  217.5228 H   0  0  0  0  0  0  0  0  0  0  0  0
  142.5389   72.7482  217.6642 H   0  0  0  0  0  0  0  0  0  0  0  0
  144.3107   71.4074  218.6122 H   0  0  0  0  0  0  0  0  0  0  0  0
  146.2462   71.2130  220.1740 H   0  0  0  0  0  0  0  0  0  0  0  0
  146.9638   73.1067  221.5623 H   0  0  0  0  0  0  0  0  0  0  0  0
  145.7353   75.2874  221.4100 H   0  0  0  0  0  0  0  0  0  0  0  0
  1  2  2  0
  2  3  1  0
  3  4  1  0
  4  5  1  0
  5  6  2  0
  5  7  1  0
  7  8  1  0
  8  9  1  0
  9 10  1  0
 10 11  1  0
 11 12  1  0
 12 13  2  0
 12 14  1  0
 14 15  1  0
 15 16  1  0
 16 17  1  0
 17 18  1  0
 18 19  2  0
 19 20  1  0
 20 21  2  0
 21 22  1  0
 22 23  2  0
 17 24  1  0
 24 25  1  0
  2 26  1  0
 26 27  2  0
 27 28  1  0
 28 29  2  0
 29 30  1  0
 30 31  2  0
 31 32  1  0
 32 33  2  0
 33 34  1  0
 34 35  2  0
 11  7  1  0
 25 14  1  0
 35 26  1  0
 23 18  1  0
 34 29  1  0
  3 36  1  0
  4 37  1  0
  4 38  1  0
  8 39  1  0
  8 40  1  0
  9 41  1  0
  9 42  1  0
 10 43  1  0
 10 44  1  0
 11 45  1  6
 15 46  1  0
 15 47  1  0
 16 48  1  0
 16 49  1  0
 17 50  1  0
 19 51  1  0
 20 52  1  0
 21 53  1  0
 22 54  1  0
 23 55  1  0
 24 56  1  0
 24 57  1  0
 25 58  1  0
 25 59  1  0
 27 60  1  0
 28 61  1  0
 30 62  1  0
 31 63  1  0
 32 64  1  0
 33 65  1  0
M  END
>  <smiles>  (69) 
O=C(NCC(=O)N1CCCC1C(=O)N1CCC(c2ccccc2)CC1)c1ccc2ccccc2n1

>  <score_type>  (69) 
oracle

>  <origin>  (69) 
autodockgpu

>  <m_score__min__energy>  (69) 
-9.4900000000000002

>  <m_primary>  (69) 
energy

>  <rmsd>  (69) 
7.909856070244432

>  <m_score__min__rmsd>  (69) 
7.909856070244432

>  <meeko>  (69) 
{"free_energy": -8.04, "intermolecular_energy": -9.83, "internal_energy": -3.17, "cluster_size": 6, "cluster_id": 7, "rank_in_cluster": 1}

>  <energy>  (69) 
-8.69

>  <cluster_rmsd>  (69) 
0.25

>  <cluster>  (69) 
4

$$$$

     RDKit          3D

 65 69  0  0  1  0  0  0  0  0999 V2000
  139.0070   75.1720  221.8720 O   0  0  0  0  0  0  0  0  0  0  0  0
  140.1340   75.7670  221.9700 C   0  0  0  0  0  0  0  0  0  0  0  0
  141.3160   75.0130  221.5920 N   0  0  0  0  0  0  0  0  0  0  0  0
  141.0810   73.6870  221.1540 C   0  0  0  0  0  0  0  0  0  0  0  0
  142.1700   72.7910  220.8550 C   0  0  0  0  0  0  0  0  0  0  0  0
  141.7870   71.5300  220.7620 O   0  0  0  0  0  0  0  0  0  0  0  0
  143.5470   72.9760  220.6440 N   0  0  0  0  0  0  0  0  0  0  0  0
  144.6830   72.1010  220.5510 C   0  0  0  0  0  0  0  0  0  0  0  0
  145.7490   72.9500  221.3050 C   0  0  0  0  0  0  0  0  0  0  0  0
  145.6020   74.2040  220.4720 C   0  0  0  0  0  0  0  0  0  0  0  0
  144.0970   74.3310  220.4590 C   0  0  1  0  0  0  0  0  0  0  0  0
  143.7200   75.0280  219.2400 C   0  0  0  0  0  0  0  0  0  0  0  0
  144.0600   74.3760  218.1560 O   0  0  0  0  0  0  0  0  0  0  0  0
  143.0770   76.2400  219.0150 N   0  0  0  0  0  0  0  0  0  0  0  0
  142.5410   77.1710  219.9680 C   0  0  0  0  0  0  0  0  0  0  0  0
  141.2670   77.7780  219.3930 C   0  0  0  0  0  0  0  0  0  0  0  0
  141.6030   78.6450  218.2330 C   0  0  0  0  0  0  0  0  0  0  0  0
  141.6520   80.0810  218.5280 C   0  0  0  0  0  0  0  0  0  0  0  0
  142.1800   80.9490  217.5590 C   0  0  0  0  0  0  0  0  0  0  0  0
  142.2530   82.3110  217.7790 C   0  0  0  0  0  0  0  0  0  0  0  0
  141.8140   82.8860  218.9510 C   0  0  0  0  0  0  0  0  0  0  0  0
  141.2960   82.0490  219.9070 C   0  0  0  0  0  0  0  0  0  0  0  0
  141.2230   80.6790  219.6840 C   0  0  0  0  0  0  0  0  0  0  0  0
  142.8580   78.1840  217.5190 C   0  0  0  0  0  0  0  0  0  0  0  0
  142.9410   76.6550  217.5920 C   0  0  0  0  0  0  0  0  0  0  0  0
  140.2500   77.1420  222.4350 C   0  0  0  0  0  0  0  0  0  0  0  0
  139.0710   77.8130  222.7040 C   0  0  0  0  0  0  0  0  0  0  0  0
  139.1730   79.1300  223.1380 C   0  0  0  0  0  0  0  0  0  0  0  0
  140.4220   79.7130  223.2880 C   0  0  0  0  0  0  0  0  0  0  0  0
  140.5270   81.0270  223.7220 C   0  0  0  0  0  0  0  0  0  0  0  0
  141.8020   81.5920  223.8630 C   0  0  0  0  0  0  0  0  0  0  0  0
  142.9390   80.8890  223.5860 C   0  0  0  0  0  0  0  0  0  0  0  0
  142.8370   79.5690  223.1510 C   0  0  0  0  0  0  0  0  0  0  0  0
  141.5790   79.0080  223.0100 C   0  0  0  0  0  0  0  0  0  0  0  0
  141.4610   77.7290  222.5870 N   0  0  0  0  0  0  0  0  0  0  0  0
  142.1890   75.5310  221.7020 H   0  0  0  0  0  0  0  0  0  0  0  0
  140.4854   73.2007  221.9406 H   0  0  0  0  0  0  0  0  0  0  0  0
  140.6217   73.8408  220.1664 H   0  0  0  0  0  0  0  0  0  0  0  0
  144.4987   71.1397  221.0529 H   0  0  0  0  0  0  0  0  0  0  0  0
  144.9621   71.8153  219.5260 H   0  0  0  0  0  0  0  0  0  0  0  0
  145.4883   73.1126  222.3612 H   0  0  0  0  0  0  0  0  0  0  0  0
  146.7595   72.5217  221.3790 H   0  0  0  0  0  0  0  0  0  0  0  0
  146.0813   75.0710  220.9502 H   0  0  0  0  0  0  0  0  0  0  0  0
  146.0732   74.1601  219.4790 H   0  0  0  0  0  0  0  0  0  0  0  0
  143.6757   74.9375  221.2743 H   0  0  0  0  0  0  0  0  0  0  0  0
  142.3105   76.6477  220.9077 H   0  0  0  0  0  0  0  0  0  0  0  0
  143.2756   77.9639  220.1720 H   0  0  0  0  0  0  0  0  0  0  0  0
  140.5943   76.9721  219.0642 H   0  0  0  0  0  0  0  0  0  0  0  0
  140.7703   78.3819  220.1667 H   0  0  0  0  0  0  0  0  0  0  0  0
  140.7507   78.5220  217.5485 H   0  0  0  0  0  0  0  0  0  0  0  0
  142.5427   80.5366  216.6059 H   0  0  0  0  0  0  0  0  0  0  0  0
  142.6747   82.9560  216.9940 H   0  0  0  0  0  0  0  0  0  0  0  0
  141.8761   83.9721  219.1140 H   0  0  0  0  0  0  0  0  0  0  0  0
  140.9352   82.4661  220.8587 H   0  0  0  0  0  0  0  0  0  0  0  0
  140.7996   80.0428  220.4752 H   0  0  0  0  0  0  0  0  0  0  0  0
  142.8211   78.5015  216.4664 H   0  0  0  0  0  0  0  0  0  0  0  0
  143.7428   78.6274  217.9992 H   0  0  0  0  0  0  0  0  0  0  0  0
  142.0265   76.2161  217.1665 H   0  0  0  0  0  0  0  0  0  0  0  0
  143.8125   76.3043  217.0197 H   0  0  0  0  0  0  0  0  0  0  0  0
  138.0930   77.3250  222.5797 H   0  0  0  0  0  0  0  0  0  0  0  0
  138.2645   79.7083  223.3619 H   0  0  0  0  0  0  0  0  0  0  0  0
  139.6258   81.6146  223.9512 H   0  0  0  0  0  0  0  0  0  0  0  0
  141.8891   82.6331  224.2072 H   0  0  0  0  0  0  0  0  0  0  0  0
  143.9260   81.3599  223.7050 H   0  0  0  0  0  0  0  0  0  0  0  0
  143.7399   78.9832  222.9237 H   0  0  0  0  0  0  0  0  0  0  0  0
  1  2  2  0
  2  3  1  0
  3  4  1  0
  4  5  1  0
  5  6  2  0
  5  7  1  0
  7  8  1  0
  8  9  1  0
  9 10  1  0
 10 11  1  0
 11 12  1  0
 12 13  2  0
 12 14  1  0
 14 15  1  0
 15 16  1  0
 16 17  1  0
 17 18  1  0
 18 19  2  0
 19 20  1  0
 20 21  2  0
 21 22  1  0
 22 23  2  0
 17 24  1  0
 24 25  1  0
  2 26  1  0
 26 27  2  0
 27 28  1  0
 28 29  2  0
 29 30  1  0
 30 31  2  0
 31 32  1  0
 32 33  2  0
 33 34  1  0
 34 35  2  0
 11  7  1  0
 25 14  1  0
 35 26  1  0
 23 18  1  0
 34 29  1  0
  3 36  1  0
  4 37  1  0
  4 38  1  0
  8 39  1  0
  8 40  1  0
  9 41  1  0
  9 42  1  0
 10 43  1  0
 10 44  1  0
 11 45  1  1
 15 46  1  0
 15 47  1  0
 16 48  1  0
 16 49  1  0
 17 50  1  0
 19 51  1  0
 20 52  1  0
 21 53  1  0
 22 54  1  0
 23 55  1  0
 24 56  1  0
 24 57  1  0
 25 58  1  0
 25 59  1  0
 27 60  1  0
 28 61  1  0
 30 62  1  0
 31 63  1  0
 32 64  1  0
 33 65  1  0
M  END
>  <smiles>  (70) 
O=C(NCC(=O)N1CCCC1C(=O)N1CCC(c2ccccc2)CC1)c1ccc2ccccc2n1

>  <score_type>  (70) 
oracle

>  <origin>  (70) 
autodockgpu

>  <m_score__min__energy>  (70) 
-9.4900000000000002

>  <m_primary>  (70) 
energy

>  <rmsd>  (70) 
7.13283067057944

>  <m_score__min__rmsd>  (70) 
7.13283067057944

>  <meeko>  (70) 
{"free_energy": -8.83, "intermolecular_energy": -10.62, "internal_energy": -3.47, "cluster_size": 13, "cluster_id": 4, "rank_in_cluster": 1}

>  <energy>  (70) 
-8.41

>  <cluster_rmsd>  (70) 
0.4

>  <cluster>  (70) 
4

$$$$

     RDKit          3D

 65 69  0  0  1  0  0  0  0  0999 V2000
  135.0890   76.3130  224.5720 O   0  0  0  0  0  0  0  0  0  0  0  0
  135.5160   75.1470  224.2690 C   0  0  0  0  0  0  0  0  0  0  0  0
  136.5820   75.0670  223.2850 N   0  0  0  0  0  0  0  0  0  0  0  0
  137.0290   76.3070  222.7670 C   0  0  0  0  0  0  0  0  0  0  0  0
  138.4190   76.5320  222.4560 C   0  0  0  0  0  0  0  0  0  0  0  0
  138.8670   77.6870  222.9130 O   0  0  0  0  0  0  0  0  0  0  0  0
  139.3910   75.7840  221.7700 N   0  0  0  0  0  0  0  0  0  0  0  0
  140.8270   75.7980  221.7190 C   0  0  0  0  0  0  0  0  0  0  0  0
  141.0530   75.5190  220.2030 C   0  0  0  0  0  0  0  0  0  0  0  0
  140.2360   74.2480  220.1300 C   0  0  0  0  0  0  0  0  0  0  0  0
  138.9900   74.6990  220.8560 C   0  0  1  0  0  0  0  0  0  0  0  0
  138.3790   73.5270  221.4610 C   0  0  0  0  0  0  0  0  0  0  0  0
  137.1760   73.2870  221.0020 O   0  0  0  0  0  0  0  0  0  0  0  0
  138.8290   72.6280  222.4210 N   0  0  0  0  0  0  0  0  0  0  0  0
  140.0980   72.5760  223.0900 C   0  0  0  0  0  0  0  0  0  0  0  0
  140.4810   71.1160  223.2970 C   0  0  0  0  0  0  0  0  0  0  0  0
  139.5610   70.4900  224.2830 C   0  0  0  0  0  0  0  0  0  0  0  0
  140.0920   70.3860  225.6460 C   0  0  0  0  0  0  0  0  0  0  0  0
  140.1370   69.1210  226.2540 C   0  0  0  0  0  0  0  0  0  0  0  0
  140.6270   68.9590  227.5350 C   0  0  0  0  0  0  0  0  0  0  0  0
  141.0950   70.0200  228.2790 C   0  0  0  0  0  0  0  0  0  0  0  0
  141.0560   71.2620  227.6960 C   0  0  0  0  0  0  0  0  0  0  0  0
  140.5640   71.4230  226.4070 C   0  0  0  0  0  0  0  0  0  0  0  0
  138.1890   71.1350  224.2720 C   0  0  0  0  0  0  0  0  0  0  0  0
  137.8570   71.5820  222.8430 C   0  0  0  0  0  0  0  0  0  0  0  0
  134.9750   73.9380  224.8740 C   0  0  0  0  0  0  0  0  0  0  0  0
  134.1250   74.1050  225.9520 C   0  0  0  0  0  0  0  0  0  0  0  0
  133.6120   72.9550  226.5420 C   0  0  0  0  0  0  0  0  0  0  0  0
  133.9570   71.7100  226.0420 C   0  0  0  0  0  0  0  0  0  0  0  0
  133.4470   70.5600  226.6290 C   0  0  0  0  0  0  0  0  0  0  0  0
  133.8140   69.3140  226.1050 C   0  0  0  0  0  0  0  0  0  0  0  0
  134.6580   69.1980  225.0360 C   0  0  0  0  0  0  0  0  0  0  0  0
  135.1710   70.3500  224.4450 C   0  0  0  0  0  0  0  0  0  0  0  0
  134.8110   71.5840  224.9620 C   0  0  0  0  0  0  0  0  0  0  0  0
  135.3010   72.7130  224.4000 N   0  0  0  0  0  0  0  0  0  0  0  0
  136.8760   74.1130  223.0720 H   0  0  0  0  0  0  0  0  0  0  0  0
  136.4704   76.4742  221.8343 H   0  0  0  0  0  0  0  0  0  0  0  0
  136.8593   76.9927  223.6102 H   0  0  0  0  0  0  0  0  0  0  0  0
  141.2356   76.7743  222.0187 H   0  0  0  0  0  0  0  0  0  0  0  0
  141.3193   75.0855  222.3972 H   0  0  0  0  0  0  0  0  0  0  0  0
  140.6490   76.3171  219.5628 H   0  0  0  0  0  0  0  0  0  0  0  0
  142.0971   75.4551  219.8629 H   0  0  0  0  0  0  0  0  0  0  0  0
  140.0215   73.9591  219.0905 H   0  0  0  0  0  0  0  0  0  0  0  0
  140.7235   73.3574  220.5532 H   0  0  0  0  0  0  0  0  0  0  0  0
  138.2068   75.1261  220.2125 H   0  0  0  0  0  0  0  0  0  0  0  0
  140.8613   73.0754  222.4753 H   0  0  0  0  0  0  0  0  0  0  0  0
  140.0310   73.0875  224.0615 H   0  0  0  0  0  0  0  0  0  0  0  0
  140.4094   70.5801  222.3390 H   0  0  0  0  0  0  0  0  0  0  0  0
  141.5122   71.0608  223.6758 H   0  0  0  0  0  0  0  0  0  0  0  0
  139.4593   69.4511  223.9361 H   0  0  0  0  0  0  0  0  0  0  0  0
  139.7751   68.2426  225.6995 H   0  0  0  0  0  0  0  0  0  0  0  0
  140.6442   67.9511  227.9752 H   0  0  0  0  0  0  0  0  0  0  0  0
  141.4838   69.8776  229.2981 H   0  0  0  0  0  0  0  0  0  0  0  0
  141.4177   72.1379  228.2546 H   0  0  0  0  0  0  0  0  0  0  0  0
  140.5527   72.4346  225.9752 H   0  0  0  0  0  0  0  0  0  0  0  0
  137.4375   70.4085  224.6148 H   0  0  0  0  0  0  0  0  0  0  0  0
  138.1832   72.0059  224.9439 H   0  0  0  0  0  0  0  0  0  0  0  0
  137.9247   70.7204  222.1625 H   0  0  0  0  0  0  0  0  0  0  0  0
  136.8361   71.9903  222.8104 H   0  0  0  0  0  0  0  0  0  0  0  0
  133.8655   75.1059  226.3272 H   0  0  0  0  0  0  0  0  0  0  0  0
  132.9335   73.0338  227.4042 H   0  0  0  0  0  0  0  0  0  0  0  0
  132.7665   70.6262  227.4907 H   0  0  0  0  0  0  0  0  0  0  0  0
  133.4108   68.4011  226.5677 H   0  0  0  0  0  0  0  0  0  0  0  0
  134.9291   68.2055  224.6468 H   0  0  0  0  0  0  0  0  0  0  0  0
  135.8503   70.2814  223.5826 H   0  0  0  0  0  0  0  0  0  0  0  0
  1  2  2  0
  2  3  1  0
  3  4  1  0
  4  5  1  0
  5  6  2  0
  5  7  1  0
  7  8  1  0
  8  9  1  0
  9 10  1  0
 10 11  1  0
 11 12  1  0
 12 13  2  0
 12 14  1  0
 14 15  1  0
 15 16  1  0
 16 17  1  0
 17 18  1  0
 18 19  2  0
 19 20  1  0
 20 21  2  0
 21 22  1  0
 22 23  2  0
 17 24  1  0
 24 25  1  0
  2 26  1  0
 26 27  2  0
 27 28  1  0
 28 29  2  0
 29 30  1  0
 30 31  2  0
 31 32  1  0
 32 33  2  0
 33 34  1  0
 34 35  2  0
 11  7  1  0
 25 14  1  0
 35 26  1  0
 23 18  1  0
 34 29  1  0
  3 36  1  0
  4 37  1  0
  4 38  1  0
  8 39  1  0
  8 40  1  0
  9 41  1  0
  9 42  1  0
 10 43  1  0
 10 44  1  0
 11 45  1  6
 15 46  1  0
 15 47  1  0
 16 48  1  0
 16 49  1  0
 17 50  1  0
 19 51  1  0
 20 52  1  0
 21 53  1  0
 22 54  1  0
 23 55  1  0
 24 56  1  0
 24 57  1  0
 25 58  1  0
 25 59  1  0
 27 60  1  0
 28 61  1  0
 30 62  1  0
 31 63  1  0
 32 64  1  0
 33 65  1  0
M  END
>  <smiles>  (71) 
O=C(NCC(=O)N1CCCC1C(=O)N1CCC(c2ccccc2)CC1)c1ccc2ccccc2n1

>  <score_type>  (71) 
oracle

>  <origin>  (71) 
autodockgpu

>  <m_score__min__energy>  (71) 
-9.4900000000000002

>  <m_primary>  (71) 
energy

>  <rmsd>  (71) 
7.538846592957375

>  <m_score__min__rmsd>  (71) 
7.538846592957375

>  <meeko>  (71) 
{"free_energy": -7.99, "intermolecular_energy": -9.78, "internal_energy": -3.55, "cluster_size": 16, "cluster_id": 6, "rank_in_cluster": 12}

>  <energy>  (71) 
-8.25

>  <cluster_rmsd>  (71) 
0.91

>  <cluster>  (71) 
4

$$$$

     RDKit          3D

 65 69  0  0  1  0  0  0  0  0999 V2000
  140.3280   73.4690  222.2790 O   0  0  0  0  0  0  0  0  0  0  0  0
  140.4850   72.2020  222.3390 C   0  0  0  0  0  0  0  0  0  0  0  0
  140.9070   71.5280  221.1240 N   0  0  0  0  0  0  0  0  0  0  0  0
  141.0990   72.3640  219.9970 C   0  0  0  0  0  0  0  0  0  0  0  0
  142.4020   72.8810  219.6600 C   0  0  0  0  0  0  0  0  0  0  0  0
  143.0100   73.4470  220.6860 O   0  0  0  0  0  0  0  0  0  0  0  0
  143.1560   72.9100  218.4750 N   0  0  0  0  0  0  0  0  0  0  0  0
  143.3410   72.0090  217.3710 C   0  0  0  0  0  0  0  0  0  0  0  0
  144.8630   72.2030  217.1060 C   0  0  0  0  0  0  0  0  0  0  0  0
  144.8270   73.7070  216.9470 C   0  0  0  0  0  0  0  0  0  0  0  0
  144.0000   74.0760  218.1560 C   0  0  1  0  0  0  0  0  0  0  0  0
  143.3120   75.3210  217.8600 C   0  0  0  0  0  0  0  0  0  0  0  0
  143.2350   75.5670  216.5760 O   0  0  0  0  0  0  0  0  0  0  0  0
  142.7290   76.2850  218.6750 N   0  0  0  0  0  0  0  0  0  0  0  0
  142.6000   76.3050  220.1050 C   0  0  0  0  0  0  0  0  0  0  0  0
  141.2620   76.9370  220.4660 C   0  0  0  0  0  0  0  0  0  0  0  0
  141.2780   78.3820  220.1140 C   0  0  0  0  0  0  0  0  0  0  0  0
  141.5320   79.2890  221.2370 C   0  0  0  0  0  0  0  0  0  0  0  0
  141.7620   78.7380  222.5070 C   0  0  0  0  0  0  0  0  0  0  0  0
  142.0080   79.5410  223.6040 C   0  0  0  0  0  0  0  0  0  0  0  0
  142.0410   80.9150  223.5110 C   0  0  0  0  0  0  0  0  0  0  0  0
  141.8170   81.4670  222.2740 C   0  0  0  0  0  0  0  0  0  0  0  0
  141.5710   80.6580  221.1720 C   0  0  0  0  0  0  0  0  0  0  0  0
  142.1990   78.6740  218.9460 C   0  0  0  0  0  0  0  0  0  0  0  0
  142.1800   77.4820  217.9820 C   0  0  0  0  0  0  0  0  0  0  0  0
  140.2560   71.4470  223.5630 C   0  0  0  0  0  0  0  0  0  0  0  0
  139.5460   70.2670  223.4470 C   0  0  0  0  0  0  0  0  0  0  0  0
  139.3140   69.5460  224.6140 C   0  0  0  0  0  0  0  0  0  0  0  0
  139.7930   70.0200  225.8250 C   0  0  0  0  0  0  0  0  0  0  0  0
  139.5630   69.3030  226.9910 C   0  0  0  0  0  0  0  0  0  0  0  0
  140.0570   69.8060  228.2020 C   0  0  0  0  0  0  0  0  0  0  0  0
  140.7560   70.9780  228.2670 C   0  0  0  0  0  0  0  0  0  0  0  0
  140.9880   71.7000  227.0990 C   0  0  0  0  0  0  0  0  0  0  0  0
  140.5000   71.2060  225.9000 C   0  0  0  0  0  0  0  0  0  0  0  0
  140.7160   71.8950  224.7560 N   0  0  0  0  0  0  0  0  0  0  0  0
  141.0030   70.5170  221.2250 H   0  0  0  0  0  0  0  0  0  0  0  0
  140.7560   71.7912  219.1228 H   0  0  0  0  0  0  0  0  0  0  0  0
  140.5475   73.2732  220.2783 H   0  0  0  0  0  0  0  0  0  0  0  0
  143.1053   70.9711  217.6488 H   0  0  0  0  0  0  0  0  0  0  0  0
  142.6938   72.2048  216.5033 H   0  0  0  0  0  0  0  0  0  0  0  0
  145.4831   71.8837  217.9566 H   0  0  0  0  0  0  0  0  0  0  0  0
  145.2970   71.6284  216.2744 H   0  0  0  0  0  0  0  0  0  0  0  0
  145.8343   74.1469  216.9911 H   0  0  0  0  0  0  0  0  0  0  0  0
  144.4284   74.0629  215.9855 H   0  0  0  0  0  0  0  0  0  0  0  0
  144.5778   74.2826  219.0690 H   0  0  0  0  0  0  0  0  0  0  0  0
  142.6410   75.2772  220.4947 H   0  0  0  0  0  0  0  0  0  0  0  0
  143.4213   76.8880  220.5472 H   0  0  0  0  0  0  0  0  0  0  0  0
  140.4580   76.4340  219.9088 H   0  0  0  0  0  0  0  0  0  0  0  0
  141.0875   76.8275  221.5465 H   0  0  0  0  0  0  0  0  0  0  0  0
  140.2451   78.5967  219.8024 H   0  0  0  0  0  0  0  0  0  0  0  0
  141.7461   77.6452  222.6315 H   0  0  0  0  0  0  0  0  0  0  0  0
  142.1829   79.0686  224.5819 H   0  0  0  0  0  0  0  0  0  0  0  0
  142.2387   81.5440  224.3915 H   0  0  0  0  0  0  0  0  0  0  0  0
  141.8325   82.5604  222.1545 H   0  0  0  0  0  0  0  0  0  0  0  0
  141.3988   81.1398  220.1983 H   0  0  0  0  0  0  0  0  0  0  0  0
  141.8539   79.5773  218.4217 H   0  0  0  0  0  0  0  0  0  0  0  0
  143.2229   78.8373  219.3133 H   0  0  0  0  0  0  0  0  0  0  0  0
  141.1460   77.2817  217.6646 H   0  0  0  0  0  0  0  0  0  0  0  0
  142.7929   77.7113  217.0978 H   0  0  0  0  0  0  0  0  0  0  0  0
  139.1795   69.9125  222.4723 H   0  0  0  0  0  0  0  0  0  0  0  0
  138.7514   68.6015  224.5756 H   0  0  0  0  0  0  0  0  0  0  0  0
  139.0028   68.3567  226.9649 H   0  0  0  0  0  0  0  0  0  0  0  0
  139.8766   69.2403  229.1280 H   0  0  0  0  0  0  0  0  0  0  0  0
  141.1318   71.3477  229.2324 H   0  0  0  0  0  0  0  0  0  0  0  0
  141.5488   72.6459  227.1278 H   0  0  0  0  0  0  0  0  0  0  0  0
  1  2  2  0
  2  3  1  0
  3  4  1  0
  4  5  1  0
  5  6  2  0
  5  7  1  0
  7  8  1  0
  8  9  1  0
  9 10  1  0
 10 11  1  0
 11 12  1  0
 12 13  2  0
 12 14  1  0
 14 15  1  0
 15 16  1  0
 16 17  1  0
 17 18  1  0
 18 19  2  0
 19 20  1  0
 20 21  2  0
 21 22  1  0
 22 23  2  0
 17 24  1  0
 24 25  1  0
  2 26  1  0
 26 27  2  0
 27 28  1  0
 28 29  2  0
 29 30  1  0
 30 31  2  0
 31 32  1  0
 32 33  2  0
 33 34  1  0
 34 35  2  0
 11  7  1  0
 25 14  1  0
 35 26  1  0
 23 18  1  0
 34 29  1  0
  3 36  1  0
  4 37  1  0
  4 38  1  0
  8 39  1  0
  8 40  1  0
  9 41  1  0
  9 42  1  0
 10 43  1  0
 10 44  1  0
 11 45  1  1
 15 46  1  0
 15 47  1  0
 16 48  1  0
 16 49  1  0
 17 50  1  0
 19 51  1  0
 20 52  1  0
 21 53  1  0
 22 54  1  0
 23 55  1  0
 24 56  1  0
 24 57  1  0
 25 58  1  0
 25 59  1  0
 27 60  1  0
 28 61  1  0
 30 62  1  0
 31 63  1  0
 32 64  1  0
 33 65  1  0
M  END
>  <smiles>  (72) 
O=C(NCC(=O)N1CCCC1C(=O)N1CCC(c2ccccc2)CC1)c1ccc2ccccc2n1

>  <score_type>  (72) 
oracle

>  <origin>  (72) 
autodockgpu

>  <m_score__min__energy>  (72) 
-9.4900000000000002

>  <m_primary>  (72) 
energy

>  <rmsd>  (72) 
3.885062643045572

>  <m_score__min__rmsd>  (72) 
3.885062643045572

>  <meeko>  (72) 
{"free_energy": -9.35, "intermolecular_energy": -11.14, "internal_energy": -1.82, "cluster_size": 6, "cluster_id": 1, "rank_in_cluster": 3}

>  <energy>  (72) 
-8.25

>  <cluster_rmsd>  (72) 
0.41

>  <cluster>  (72) 
4

$$$$

     RDKit          3D

 65 69  0  0  1  0  0  0  0  0999 V2000
  139.0870   74.9100  222.1870 O   0  0  0  0  0  0  0  0  0  0  0  0
  140.1600   75.5960  222.0750 C   0  0  0  0  0  0  0  0  0  0  0  0
  141.3240   74.9220  221.5260 N   0  0  0  0  0  0  0  0  0  0  0  0
  141.1320   73.5640  221.1720 C   0  0  0  0  0  0  0  0  0  0  0  0
  142.2400   72.7270  220.7810 C   0  0  0  0  0  0  0  0  0  0  0  0
  141.8820   71.4770  220.5510 O   0  0  0  0  0  0  0  0  0  0  0  0
  143.6130   72.9610  220.5970 N   0  0  0  0  0  0  0  0  0  0  0  0
  144.7780   72.1260  220.5050 C   0  0  0  0  0  0  0  0  0  0  0  0
  145.8040   72.9940  221.2920 C   0  0  0  0  0  0  0  0  0  0  0  0
  145.6290   74.2590  220.4800 C   0  0  0  0  0  0  0  0  0  0  0  0
  144.1200   74.3370  220.4450 C   0  0  1  0  0  0  0  0  0  0  0  0
  143.7400   75.0450  219.2340 C   0  0  0  0  0  0  0  0  0  0  0  0
  144.1020   74.4160  218.1430 O   0  0  0  0  0  0  0  0  0  0  0  0
  143.0750   76.2470  219.0220 N   0  0  0  0  0  0  0  0  0  0  0  0
  142.5120   77.1530  219.9840 C   0  0  0  0  0  0  0  0  0  0  0  0
  141.2310   77.7420  219.4080 C   0  0  0  0  0  0  0  0  0  0  0  0
  141.5590   78.6340  218.2630 C   0  0  0  0  0  0  0  0  0  0  0  0
  141.5770   80.0660  218.5800 C   0  0  0  0  0  0  0  0  0  0  0  0
  141.0040   80.4930  219.7880 C   0  0  0  0  0  0  0  0  0  0  0  0
  140.9910   81.8280  220.1430 C   0  0  0  0  0  0  0  0  0  0  0  0
  141.5340   82.8040  219.3360 C   0  0  0  0  0  0  0  0  0  0  0  0
  142.0970   82.3990  218.1520 C   0  0  0  0  0  0  0  0  0  0  0  0
  142.1100   81.0560  217.7980 C   0  0  0  0  0  0  0  0  0  0  0  0
  142.8280   78.2080  217.5540 C   0  0  0  0  0  0  0  0  0  0  0  0
  142.9420   76.6800  217.6040 C   0  0  0  0  0  0  0  0  0  0  0  0
  140.2340   76.9940  222.4750 C   0  0  0  0  0  0  0  0  0  0  0  0
  139.0350   77.6530  222.6700 C   0  0  0  0  0  0  0  0  0  0  0  0
  139.0970   78.9920  223.0410 C   0  0  0  0  0  0  0  0  0  0  0  0
  140.3290   79.6070  223.2020 C   0  0  0  0  0  0  0  0  0  0  0  0
  140.3940   80.9440  223.5720 C   0  0  0  0  0  0  0  0  0  0  0  0
  141.6520   81.5410  223.7250 C   0  0  0  0  0  0  0  0  0  0  0  0
  142.8120   80.8480  223.5220 C   0  0  0  0  0  0  0  0  0  0  0  0
  142.7490   79.5070  223.1510 C   0  0  0  0  0  0  0  0  0  0  0  0
  141.5080   78.9140  222.9970 C   0  0  0  0  0  0  0  0  0  0  0  0
  141.4280   77.6120  222.6360 N   0  0  0  0  0  0  0  0  0  0  0  0
  142.1550   75.5120  221.4720 H   0  0  0  0  0  0  0  0  0  0  0  0
  140.6671   73.0782  222.0426 H   0  0  0  0  0  0  0  0  0  0  0  0
  140.5508   73.6402  220.2412 H   0  0  0  0  0  0  0  0  0  0  0  0
  144.6179   71.1494  220.9852 H   0  0  0  0  0  0  0  0  0  0  0  0
  145.0818   71.8702  219.4792 H   0  0  0  0  0  0  0  0  0  0  0  0
  145.5219   73.1276  222.3468 H   0  0  0  0  0  0  0  0  0  0  0  0
  146.8266   72.5972  221.3744 H   0  0  0  0  0  0  0  0  0  0  0  0
  146.0720   75.1317  220.9821 H   0  0  0  0  0  0  0  0  0  0  0  0
  146.1169   74.2498  219.4942 H   0  0  0  0  0  0  0  0  0  0  0  0
  143.6648   74.9135  221.2638 H   0  0  0  0  0  0  0  0  0  0  0  0
  142.2849   76.6113  220.9141 H   0  0  0  0  0  0  0  0  0  0  0  0
  143.2284   77.9578  220.2052 H   0  0  0  0  0  0  0  0  0  0  0  0
  140.5778   76.9276  219.0615 H   0  0  0  0  0  0  0  0  0  0  0  0
  140.7155   78.3236  220.1865 H   0  0  0  0  0  0  0  0  0  0  0  0
  140.7150   78.5058  217.5693 H   0  0  0  0  0  0  0  0  0  0  0  0
  140.5567   79.7504  220.4651 H   0  0  0  0  0  0  0  0  0  0  0  0
  140.5331   82.1209  221.0993 H   0  0  0  0  0  0  0  0  0  0  0  0
  141.5168   83.8642  219.6289 H   0  0  0  0  0  0  0  0  0  0  0  0
  142.5421   83.1448  217.4770 H   0  0  0  0  0  0  0  0  0  0  0  0
  142.5720   80.7731  216.8407 H   0  0  0  0  0  0  0  0  0  0  0  0
  142.7938   78.5407  216.5061 H   0  0  0  0  0  0  0  0  0  0  0  0
  143.6993   78.6610  218.0497 H   0  0  0  0  0  0  0  0  0  0  0  0
  142.0403   76.2289  217.1643 H   0  0  0  0  0  0  0  0  0  0  0  0
  143.8247   76.3556  217.0334 H   0  0  0  0  0  0  0  0  0  0  0  0
  138.0712   77.1396  222.5372 H   0  0  0  0  0  0  0  0  0  0  0  0
  138.1707   79.5617  223.2063 H   0  0  0  0  0  0  0  0  0  0  0  0
  139.4746   81.5235  223.7418 H   0  0  0  0  0  0  0  0  0  0  0  0
  141.7077   82.5999  224.0175 H   0  0  0  0  0  0  0  0  0  0  0  0
  143.7854   81.3440  223.6502 H   0  0  0  0  0  0  0  0  0  0  0  0
  143.6698   78.9291  222.9833 H   0  0  0  0  0  0  0  0  0  0  0  0
  1  2  2  0
  2  3  1  0
  3  4  1  0
  4  5  1  0
  5  6  2  0
  5  7  1  0
  7  8  1  0
  8  9  1  0
  9 10  1  0
 10 11  1  0
 11 12  1  0
 12 13  2  0
 12 14  1  0
 14 15  1  0
 15 16  1  0
 16 17  1  0
 17 18  1  0
 18 19  2  0
 19 20  1  0
 20 21  2  0
 21 22  1  0
 22 23  2  0
 17 24  1  0
 24 25  1  0
  2 26  1  0
 26 27  2  0
 27 28  1  0
 28 29  2  0
 29 30  1  0
 30 31  2  0
 31 32  1  0
 32 33  2  0
 33 34  1  0
 34 35  2  0
 11  7  1  0
 25 14  1  0
 35 26  1  0
 23 18  1  0
 34 29  1  0
  3 36  1  0
  4 37  1  0
  4 38  1  0
  8 39  1  0
  8 40  1  0
  9 41  1  0
  9 42  1  0
 10 43  1  0
 10 44  1  0
 11 45  1  1
 15 46  1  0
 15 47  1  0
 16 48  1  0
 16 49  1  0
 17 50  1  0
 19 51  1  0
 20 52  1  0
 21 53  1  0
 22 54  1  0
 23 55  1  0
 24 56  1  0
 24 57  1  0
 25 58  1  0
 25 59  1  0
 27 60  1  0
 28 61  1  0
 30 62  1  0
 31 63  1  0
 32 64  1  0
 33 65  1  0
M  END
>  <smiles>  (73) 
O=C(NCC(=O)N1CCCC1C(=O)N1CCC(c2ccccc2)CC1)c1ccc2ccccc2n1

>  <score_type>  (73) 
oracle

>  <origin>  (73) 
autodockgpu

>  <m_score__min__energy>  (73) 
-9.4900000000000002

>  <m_primary>  (73) 
energy

>  <rmsd>  (73) 
7.056739081715251

>  <m_score__min__rmsd>  (73) 
7.056739081715251

>  <meeko>  (73) 
{"free_energy": -8.77, "intermolecular_energy": -10.55, "internal_energy": -3.52, "cluster_size": 13, "cluster_id": 4, "rank_in_cluster": 4}

>  <energy>  (73) 
-7.92

>  <cluster_rmsd>  (73) 
0.68

>  <cluster>  (73) 
4

$$$$

     RDKit          3D

 65 69  0  0  1  0  0  0  0  0999 V2000
  135.5620   77.2560  223.8420 O   0  0  0  0  0  0  0  0  0  0  0  0
  135.8190   76.0040  223.8850 C   0  0  0  0  0  0  0  0  0  0  0  0
  136.9380   75.5290  223.0900 N   0  0  0  0  0  0  0  0  0  0  0  0
  137.6240   76.5220  222.3480 C   0  0  0  0  0  0  0  0  0  0  0  0
  139.0400   76.4240  222.0940 C   0  0  0  0  0  0  0  0  0  0  0  0
  139.7010   77.5090  222.4530 O   0  0  0  0  0  0  0  0  0  0  0  0
  139.8590   75.4220  221.5480 N   0  0  0  0  0  0  0  0  0  0  0  0
  141.2700   75.1470  221.5660 C   0  0  0  0  0  0  0  0  0  0  0  0
  141.4730   74.6460  220.1050 C   0  0  0  0  0  0  0  0  0  0  0  0
  140.4200   73.5610  220.1380 C   0  0  0  0  0  0  0  0  0  0  0  0
  139.2720   74.3330  220.7460 C   0  0  1  0  0  0  0  0  0  0  0  0
  138.4230   73.3870  221.4510 C   0  0  0  0  0  0  0  0  0  0  0  0
  137.1520   73.5430  221.1770 O   0  0  0  0  0  0  0  0  0  0  0  0
  138.7070   72.3630  222.3480 N   0  0  0  0  0  0  0  0  0  0  0  0
  139.9800   71.9020  222.8230 C   0  0  0  0  0  0  0  0  0  0  0  0
  139.9200   70.3900  222.9930 C   0  0  0  0  0  0  0  0  0  0  0  0
  139.0040   70.0460  224.1120 C   0  0  0  0  0  0  0  0  0  0  0  0
  139.6670   69.7400  225.3830 C   0  0  0  0  0  0  0  0  0  0  0  0
  139.7580   68.3990  225.7880 C   0  0  0  0  0  0  0  0  0  0  0  0
  140.3720   68.0470  226.9740 C   0  0  0  0  0  0  0  0  0  0  0  0
  140.9240   68.9870  227.8170 C   0  0  0  0  0  0  0  0  0  0  0  0
  140.8410   70.3020  227.4340 C   0  0  0  0  0  0  0  0  0  0  0  0
  140.2240   70.6530  226.2400 C   0  0  0  0  0  0  0  0  0  0  0  0
  137.9110   71.0800  224.2930 C   0  0  0  0  0  0  0  0  0  0  0  0
  137.5310   71.6530  222.9220 C   0  0  0  0  0  0  0  0  0  0  0  0
  135.0380   75.0770  224.6920 C   0  0  0  0  0  0  0  0  0  0  0  0
  134.1330   75.6300  225.5790 C   0  0  0  0  0  0  0  0  0  0  0  0
  133.3910   74.7510  226.3610 C   0  0  0  0  0  0  0  0  0  0  0  0
  133.5750   73.3840  226.2280 C   0  0  0  0  0  0  0  0  0  0  0  0
  132.8360   72.5040  227.0070 C   0  0  0  0  0  0  0  0  0  0  0  0
  133.0440   71.1270  226.8530 C   0  0  0  0  0  0  0  0  0  0  0  0
  133.9500   70.6270  225.9610 C   0  0  0  0  0  0  0  0  0  0  0  0
  134.6930   71.5070  225.1780 C   0  0  0  0  0  0  0  0  0  0  0  0
  134.4910   72.8690  225.3280 C   0  0  0  0  0  0  0  0  0  0  0  0
  135.2040   73.7380  224.5760 N   0  0  0  0  0  0  0  0  0  0  0  0
  137.0900   74.5220  223.1510 H   0  0  0  0  0  0  0  0  0  0  0  0
  137.1340   76.5693  221.3643 H   0  0  0  0  0  0  0  0  0  0  0  0
  137.5607   77.3992  223.0087 H   0  0  0  0  0  0  0  0  0  0  0  0
  141.8589   76.0531  221.7713 H   0  0  0  0  0  0  0  0  0  0  0  0
  141.5920   74.4400  222.3447 H   0  0  0  0  0  0  0  0  0  0  0  0
  141.2536   75.4236  219.3586 H   0  0  0  0  0  0  0  0  0  0  0  0
  142.4913   74.3373  219.8260 H   0  0  0  0  0  0  0  0  0  0  0  0
  140.1780   73.1954  219.1292 H   0  0  0  0  0  0  0  0  0  0  0  0
  140.7081   72.6503  220.6835 H   0  0  0  0  0  0  0  0  0  0  0  0
  138.6071   74.8233  220.0197 H   0  0  0  0  0  0  0  0  0  0  0  0
  140.7627   72.1618  222.0951 H   0  0  0  0  0  0  0  0  0  0  0  0
  140.2151   72.3782  223.7863 H   0  0  0  0  0  0  0  0  0  0  0  0
  139.5497   69.9323  222.0638 H   0  0  0  0  0  0  0  0  0  0  0  0
  140.9272   70.0091  223.2174 H   0  0  0  0  0  0  0  0  0  0  0  0
  138.5381   69.1002  223.7984 H   0  0  0  0  0  0  0  0  0  0  0  0
  139.3316   67.6126  225.1478 H   0  0  0  0  0  0  0  0  0  0  0  0
  140.4219   66.9844  227.2541 H   0  0  0  0  0  0  0  0  0  0  0  0
  141.4114   68.6950  228.7589 H   0  0  0  0  0  0  0  0  0  0  0  0
  141.2669   71.0853  228.0783 H   0  0  0  0  0  0  0  0  0  0  0  0
  140.1802   71.7181  225.9685 H   0  0  0  0  0  0  0  0  0  0  0  0
  137.0298   70.6082  224.7522 H   0  0  0  0  0  0  0  0  0  0  0  0
  138.2702   71.8888  224.9463 H   0  0  0  0  0  0  0  0  0  0  0  0
  137.2312   70.8346  222.2509 H   0  0  0  0  0  0  0  0  0  0  0  0
  136.6920   72.3556  223.0335 H   0  0  0  0  0  0  0  0  0  0  0  0
  134.0051   76.7193  225.6627 H   0  0  0  0  0  0  0  0  0  0  0  0
  132.6592   75.1405  227.0840 H   0  0  0  0  0  0  0  0  0  0  0  0
  132.1001   72.8812  227.7324 H   0  0  0  0  0  0  0  0  0  0  0  0
  132.4601   70.4273  227.4690 H   0  0  0  0  0  0  0  0  0  0  0  0
  134.0912   69.5406  225.8623 H   0  0  0  0  0  0  0  0  0  0  0  0
  135.4276   71.1269  224.4529 H   0  0  0  0  0  0  0  0  0  0  0  0
  1  2  2  0
  2  3  1  0
  3  4  1  0
  4  5  1  0
  5  6  2  0
  5  7  1  0
  7  8  1  0
  8  9  1  0
  9 10  1  0
 10 11  1  0
 11 12  1  0
 12 13  2  0
 12 14  1  0
 14 15  1  0
 15 16  1  0
 16 17  1  0
 17 18  1  0
 18 19  2  0
 19 20  1  0
 20 21  2  0
 21 22  1  0
 22 23  2  0
 17 24  1  0
 24 25  1  0
  2 26  1  0
 26 27  2  0
 27 28  1  0
 28 29  2  0
 29 30  1  0
 30 31  2  0
 31 32  1  0
 32 33  2  0
 33 34  1  0
 34 35  2  0
 11  7  1  0
 25 14  1  0
 35 26  1  0
 23 18  1  0
 34 29  1  0
  3 36  1  0
  4 37  1  0
  4 38  1  0
  8 39  1  0
  8 40  1  0
  9 41  1  0
  9 42  1  0
 10 43  1  0
 10 44  1  0
 11 45  1  6
 15 46  1  0
 15 47  1  0
 16 48  1  0
 16 49  1  0
 17 50  1  0
 19 51  1  0
 20 52  1  0
 21 53  1  0
 22 54  1  0
 23 55  1  0
 24 56  1  0
 24 57  1  0
 25 58  1  0
 25 59  1  0
 27 60  1  0
 28 61  1  0
 30 62  1  0
 31 63  1  0
 32 64  1  0
 33 65  1  0
M  END
>  <smiles>  (74) 
O=C(NCC(=O)N1CCCC1C(=O)N1CCC(c2ccccc2)CC1)c1ccc2ccccc2n1

>  <score_type>  (74) 
oracle

>  <origin>  (74) 
autodockgpu

>  <m_score__min__energy>  (74) 
-9.4900000000000002

>  <m_primary>  (74) 
energy

>  <rmsd>  (74) 
7.993934070403412

>  <m_score__min__rmsd>  (74) 
7.993934070403412

>  <meeko>  (74) 
{"free_energy": -8.21, "intermolecular_energy": -10.0, "internal_energy": -3.36, "cluster_size": 16, "cluster_id": 6, "rank_in_cluster": 3}

>  <energy>  (74) 
-7.63

>  <cluster_rmsd>  (74) 
0.76

>  <cluster>  (74) 
4

$$$$

     RDKit          3D

 65 69  0  0  1  0  0  0  0  0999 V2000
  139.4550   74.3710  221.4100 O   0  0  0  0  0  0  0  0  0  0  0  0
  140.6990   74.6660  221.4470 C   0  0  0  0  0  0  0  0  0  0  0  0
  141.0550   75.9680  221.9830 N   0  0  0  0  0  0  0  0  0  0  0  0
  139.9680   76.7720  222.4080 C   0  0  0  0  0  0  0  0  0  0  0  0
  140.0190   78.2100  222.3190 C   0  0  0  0  0  0  0  0  0  0  0  0
  138.8600   78.7440  221.9780 O   0  0  0  0  0  0  0  0  0  0  0  0
  141.0370   79.1570  222.5170 N   0  0  0  0  0  0  0  0  0  0  0  0
  142.1350   79.2860  223.4350 C   0  0  0  0  0  0  0  0  0  0  0  0
  142.0970   80.8210  223.6990 C   0  0  0  0  0  0  0  0  0  0  0  0
  142.1760   81.2540  222.2520 C   0  0  0  0  0  0  0  0  0  0  0  0
  141.1250   80.3480  221.6520 C   0  0  1  0  0  0  0  0  0  0  0  0
  141.4760   80.1220  220.2600 C   0  0  0  0  0  0  0  0  0  0  0  0
  141.3820   81.2050  219.5300 O   0  0  0  0  0  0  0  0  0  0  0  0
  141.8860   78.9860  219.5710 N   0  0  0  0  0  0  0  0  0  0  0  0
  142.1300   77.6620  220.0700 C   0  0  0  0  0  0  0  0  0  0  0  0
  143.3100   77.0650  219.3140 C   0  0  0  0  0  0  0  0  0  0  0  0
  142.9260   76.8200  217.8980 C   0  0  0  0  0  0  0  0  0  0  0  0
  142.5650   75.4340  217.5850 C   0  0  0  0  0  0  0  0  0  0  0  0
  141.2310   75.0320  217.7590 C   0  0  0  0  0  0  0  0  0  0  0  0
  140.8300   73.7390  217.4810 C   0  0  0  0  0  0  0  0  0  0  0  0
  141.7100   72.7840  217.0230 C   0  0  0  0  0  0  0  0  0  0  0  0
  143.0170   73.1640  216.8490 C   0  0  0  0  0  0  0  0  0  0  0  0
  143.4190   74.4640  217.1280 C   0  0  0  0  0  0  0  0  0  0  0  0
  141.8650   77.7900  217.4180 C   0  0  0  0  0  0  0  0  0  0  0  0
  142.0790   79.1450  218.1040 C   0  0  0  0  0  0  0  0  0  0  0  0
  141.7300   73.7510  220.9790 C   0  0  0  0  0  0  0  0  0  0  0  0
  141.3330   72.4600  220.6840 C   0  0  0  0  0  0  0  0  0  0  0  0
  142.3140   71.5770  220.2470 C   0  0  0  0  0  0  0  0  0  0  0  0
  143.6250   72.0080  220.1200 C   0  0  0  0  0  0  0  0  0  0  0  0
  144.6070   71.1290  219.6840 C   0  0  0  0  0  0  0  0  0  0  0  0
  145.9240   71.5920  219.5670 C   0  0  0  0  0  0  0  0  0  0  0  0
  146.2690   72.8790  219.8690 C   0  0  0  0  0  0  0  0  0  0  0  0
  145.2860   73.7630  220.3060 C   0  0  0  0  0  0  0  0  0  0  0  0
  143.9830   73.3090  220.4240 C   0  0  0  0  0  0  0  0  0  0  0  0
  143.0160   74.1550  220.8490 N   0  0  0  0  0  0  0  0  0  0  0  0
  142.0580   76.1570  221.9760 H   0  0  0  0  0  0  0  0  0  0  0  0
  139.0964   76.4545  221.8168 H   0  0  0  0  0  0  0  0  0  0  0  0
  139.9559   76.6010  223.4946 H   0  0  0  0  0  0  0  0  0  0  0  0
  141.9650   78.7101  224.3566 H   0  0  0  0  0  0  0  0  0  0  0  0
  143.0968   78.9068  223.0592 H   0  0  0  0  0  0  0  0  0  0  0  0
  141.1639   81.1422  224.1849 H   0  0  0  0  0  0  0  0  0  0  0  0
  142.8625   81.2246  224.3780 H   0  0  0  0  0  0  0  0  0  0  0  0
  141.9185   82.3163  222.1287 H   0  0  0  0  0  0  0  0  0  0  0  0
  143.1740   81.1725  221.7968 H   0  0  0  0  0  0  0  0  0  0  0  0
  140.1093   80.7694  221.6223 H   0  0  0  0  0  0  0  0  0  0  0  0
  142.3637   77.7084  221.1439 H   0  0  0  0  0  0  0  0  0  0  0  0
  141.2369   77.0364  219.9253 H   0  0  0  0  0  0  0  0  0  0  0  0
  144.1576   77.7654  219.3471 H   0  0  0  0  0  0  0  0  0  0  0  0
  143.5991   76.1129  219.7830 H   0  0  0  0  0  0  0  0  0  0  0  0
  143.8499   77.0089  217.3317 H   0  0  0  0  0  0  0  0  0  0  0  0
  140.4912   75.7599  218.1234 H   0  0  0  0  0  0  0  0  0  0  0  0
  139.7754   73.4643  217.6302 H   0  0  0  0  0  0  0  0  0  0  0  0
  141.3786   71.7579  216.8054 H   0  0  0  0  0  0  0  0  0  0  0  0
  143.7533   72.4323  216.4851 H   0  0  0  0  0  0  0  0  0  0  0  0
  144.4757   74.7284  216.9745 H   0  0  0  0  0  0  0  0  0  0  0  0
  141.9435   77.9123  216.3276 H   0  0  0  0  0  0  0  0  0  0  0  0
  140.8666   77.4013  217.6671 H   0  0  0  0  0  0  0  0  0  0  0  0
  143.1001   79.5017  217.9037 H   0  0  0  0  0  0  0  0  0  0  0  0
  141.3558   79.8758  217.7129 H   0  0  0  0  0  0  0  0  0  0  0  0
  140.2846   72.1445  220.7906 H   0  0  0  0  0  0  0  0  0  0  0  0
  142.0499   70.5376  220.0023 H   0  0  0  0  0  0  0  0  0  0  0  0
  144.3555   70.0875  219.4348 H   0  0  0  0  0  0  0  0  0  0  0  0
  146.7043   70.8980  219.2214 H   0  0  0  0  0  0  0  0  0  0  0  0
  147.3121   73.2132  219.7680 H   0  0  0  0  0  0  0  0  0  0  0  0
  145.5401   74.8043  220.5533 H   0  0  0  0  0  0  0  0  0  0  0  0
  1  2  2  0
  2  3  1  0
  3  4  1  0
  4  5  1  0
  5  6  2  0
  5  7  1  0
  7  8  1  0
  8  9  1  0
  9 10  1  0
 10 11  1  0
 11 12  1  0
 12 13  2  0
 12 14  1  0
 14 15  1  0
 15 16  1  0
 16 17  1  0
 17 18  1  0
 18 19  2  0
 19 20  1  0
 20 21  2  0
 21 22  1  0
 22 23  2  0
 17 24  1  0
 24 25  1  0
  2 26  1  0
 26 27  2  0
 27 28  1  0
 28 29  2  0
 29 30  1  0
 30 31  2  0
 31 32  1  0
 32 33  2  0
 33 34  1  0
 34 35  2  0
 11  7  1  0
 25 14  1  0
 35 26  1  0
 23 18  1  0
 34 29  1  0
  3 36  1  0
  4 37  1  0
  4 38  1  0
  8 39  1  0
  8 40  1  0
  9 41  1  0
  9 42  1  0
 10 43  1  0
 10 44  1  0
 11 45  1  6
 15 46  1  0
 15 47  1  0
 16 48  1  0
 16 49  1  0
 17 50  1  0
 19 51  1  0
 20 52  1  0
 21 53  1  0
 22 54  1  0
 23 55  1  0
 24 56  1  0
 24 57  1  0
 25 58  1  0
 25 59  1  0
 27 60  1  0
 28 61  1  0
 30 62  1  0
 31 63  1  0
 32 64  1  0
 33 65  1  0
M  END
>  <smiles>  (75) 
O=C(NCC(=O)N1CCCC1C(=O)N1CCC(c2ccccc2)CC1)c1ccc2ccccc2n1

>  <score_type>  (75) 
oracle

>  <origin>  (75) 
autodockgpu

>  <m_score__min__energy>  (75) 
-9.4900000000000002

>  <m_primary>  (75) 
energy

>  <rmsd>  (75) 
6.66752721945558

>  <m_score__min__rmsd>  (75) 
6.66752721945558

>  <meeko>  (75) 
{"free_energy": -6.92, "intermolecular_energy": -8.71, "internal_energy": -4.07, "cluster_size": 6, "cluster_id": 7, "rank_in_cluster": 4}

>  <energy>  (75) 
-7.07

>  <cluster_rmsd>  (75) 
1.62

>  <cluster>  (75) 
4

$$$$

     RDKit          3D

 65 69  0  0  1  0  0  0  0  0999 V2000
  140.4230   73.7420  222.3290 O   0  0  0  0  0  0  0  0  0  0  0  0
  140.4140   74.7560  221.5500 C   0  0  0  0  0  0  0  0  0  0  0  0
  140.7310   74.5200  220.1520 N   0  0  0  0  0  0  0  0  0  0  0  0
  141.0170   73.1760  219.8090 C   0  0  0  0  0  0  0  0  0  0  0  0
  142.2130   72.5210  220.2790 C   0  0  0  0  0  0  0  0  0  0  0  0
  141.9730   71.3360  220.8120 O   0  0  0  0  0  0  0  0  0  0  0  0
  143.5720   72.8770  220.2890 N   0  0  0  0  0  0  0  0  0  0  0  0
  144.8090   72.1470  220.2570 C   0  0  0  0  0  0  0  0  0  0  0  0
  145.6580   72.9960  221.2480 C   0  0  0  0  0  0  0  0  0  0  0  0
  145.4660   74.3270  220.5550 C   0  0  0  0  0  0  0  0  0  0  0  0
  143.9700   74.2950  220.3430 C   0  0  1  0  0  0  0  0  0  0  0  0
  143.6700   75.1040  219.1730 C   0  0  0  0  0  0  0  0  0  0  0  0
  144.1110   74.5710  218.0610 O   0  0  0  0  0  0  0  0  0  0  0  0
  143.0130   76.3190  219.0190 N   0  0  0  0  0  0  0  0  0  0  0  0
  142.3780   77.1380  220.0120 C   0  0  0  0  0  0  0  0  0  0  0  0
  141.1360   77.7740  219.4010 C   0  0  0  0  0  0  0  0  0  0  0  0
  141.5370   78.7600  218.3620 C   0  0  0  0  0  0  0  0  0  0  0  0
  141.5230   80.1600  218.8010 C   0  0  0  0  0  0  0  0  0  0  0  0
  141.1590   80.4450  220.1270 C   0  0  0  0  0  0  0  0  0  0  0  0
  141.1270   81.7420  220.5990 C   0  0  0  0  0  0  0  0  0  0  0  0
  141.4480   82.8180  219.8000 C   0  0  0  0  0  0  0  0  0  0  0  0
  141.8050   82.5530  218.5010 C   0  0  0  0  0  0  0  0  0  0  0  0
  141.8370   81.2470  218.0290 C   0  0  0  0  0  0  0  0  0  0  0  0
  142.8550   78.3980  217.7090 C   0  0  0  0  0  0  0  0  0  0  0  0
  142.9760   76.8710  217.6370 C   0  0  0  0  0  0  0  0  0  0  0  0
  140.1010   76.0970  222.0220 C   0  0  0  0  0  0  0  0  0  0  0  0
  138.7760   76.4870  221.9630 C   0  0  0  0  0  0  0  0  0  0  0  0
  138.4710   77.7710  222.4020 C   0  0  0  0  0  0  0  0  0  0  0  0
  139.4780   78.5970  222.8750 C   0  0  0  0  0  0  0  0  0  0  0  0
  139.1760   79.8790  223.3140 C   0  0  0  0  0  0  0  0  0  0  0  0
  140.2140   80.6930  223.7860 C   0  0  0  0  0  0  0  0  0  0  0  0
  141.5100   80.2630  223.8260 C   0  0  0  0  0  0  0  0  0  0  0  0
  141.8160   78.9770  223.3870 C   0  0  0  0  0  0  0  0  0  0  0  0
  140.7930   78.1700  222.9190 C   0  0  0  0  0  0  0  0  0  0  0  0
  141.0720   76.9190  222.4880 N   0  0  0  0  0  0  0  0  0  0  0  0
  140.7220   75.3640  219.5780 H   0  0  0  0  0  0  0  0  0  0  0  0
  140.1700   72.5752  220.1717 H   0  0  0  0  0  0  0  0  0  0  0  0
  141.1894   73.2380  218.7244 H   0  0  0  0  0  0  0  0  0  0  0  0
  144.6812   71.1138  220.6121 H   0  0  0  0  0  0  0  0  0  0  0  0
  145.2494   72.0306  219.2558 H   0  0  0  0  0  0  0  0  0  0  0  0
  145.2471   72.9889  222.2683 H   0  0  0  0  0  0  0  0  0  0  0  0
  146.6956   72.6706  221.4137 H   0  0  0  0  0  0  0  0  0  0  0  0
  145.7704   75.1686  221.1946 H   0  0  0  0  0  0  0  0  0  0  0  0
  146.0620   74.4652  219.6408 H   0  0  0  0  0  0  0  0  0  0  0  0
  143.3757   74.7400  221.1546 H   0  0  0  0  0  0  0  0  0  0  0  0
  142.0902   76.5181  220.8739 H   0  0  0  0  0  0  0  0  0  0  0  0
  143.0719   77.9216  220.3503 H   0  0  0  0  0  0  0  0  0  0  0  0
  140.5130   76.9922  218.9421 H   0  0  0  0  0  0  0  0  0  0  0  0
  140.5645   78.2869  220.1886 H   0  0  0  0  0  0  0  0  0  0  0  0
  140.7446   78.6899  217.6023 H   0  0  0  0  0  0  0  0  0  0  0  0
  140.8941   79.6186  220.8029 H   0  0  0  0  0  0  0  0  0  0  0  0
  140.8365   81.9220  221.6446 H   0  0  0  0  0  0  0  0  0  0  0  0
  141.4194   83.8472  220.1872 H   0  0  0  0  0  0  0  0  0  0  0  0
  142.0680   83.3824  217.8280 H   0  0  0  0  0  0  0  0  0  0  0  0
  142.1293   81.0771  216.9823 H   0  0  0  0  0  0  0  0  0  0  0  0
  142.8908   78.8187  216.6933 H   0  0  0  0  0  0  0  0  0  0  0  0
  143.6868   78.8084  218.3003 H   0  0  0  0  0  0  0  0  0  0  0  0
  142.1103   76.4580  217.0986 H   0  0  0  0  0  0  0  0  0  0  0  0
  143.8986   76.5973  217.1041 H   0  0  0  0  0  0  0  0  0  0  0  0
  137.9957   75.8102  221.5847 H   0  0  0  0  0  0  0  0  0  0  0  0
  137.4317   78.1303  222.3737 H   0  0  0  0  0  0  0  0  0  0  0  0
  138.1403   80.2490  223.2916 H   0  0  0  0  0  0  0  0  0  0  0  0
  139.9783   81.7092  224.1350 H   0  0  0  0  0  0  0  0  0  0  0  0
  142.3039   80.9256  224.2011 H   0  0  0  0  0  0  0  0  0  0  0  0
  142.8523   78.6090  223.4117 H   0  0  0  0  0  0  0  0  0  0  0  0
  1  2  2  0
  2  3  1  0
  3  4  1  0
  4  5  1  0
  5  6  2  0
  5  7  1  0
  7  8  1  0
  8  9  1  0
  9 10  1  0
 10 11  1  0
 11 12  1  0
 12 13  2  0
 12 14  1  0
 14 15  1  0
 15 16  1  0
 16 17  1  0
 17 18  1  0
 18 19  2  0
 19 20  1  0
 20 21  2  0
 21 22  1  0
 22 23  2  0
 17 24  1  0
 24 25  1  0
  2 26  1  0
 26 27  2  0
 27 28  1  0
 28 29  2  0
 29 30  1  0
 30 31  2  0
 31 32  1  0
 32 33  2  0
 33 34  1  0
 34 35  2  0
 11  7  1  0
 25 14  1  0
 35 26  1  0
 23 18  1  0
 34 29  1  0
  3 36  1  0
  4 37  1  0
  4 38  1  0
  8 39  1  0
  8 40  1  0
  9 41  1  0
  9 42  1  0
 10 43  1  0
 10 44  1  0
 11 45  1  1
 15 46  1  0
 15 47  1  0
 16 48  1  0
 16 49  1  0
 17 50  1  0
 19 51  1  0
 20 52  1  0
 21 53  1  0
 22 54  1  0
 23 55  1  0
 24 56  1  0
 24 57  1  0
 25 58  1  0
 25 59  1  0
 27 60  1  0
 28 61  1  0
 30 62  1  0
 31 63  1  0
 32 64  1  0
 33 65  1  0
M  END
>  <smiles>  (76) 
O=C(NCC(=O)N1CCCC1C(=O)N1CCC(c2ccccc2)CC1)c1ccc2ccccc2n1

>  <score_type>  (76) 
oracle

>  <origin>  (76) 
autodockgpu

>  <m_score__min__energy>  (76) 
-9.4900000000000002

>  <m_primary>  (76) 
energy

>  <rmsd>  (76) 
6.611193631973746

>  <m_score__min__rmsd>  (76) 
6.611193631973746

>  <meeko>  (76) 
{"free_energy": -8.25, "intermolecular_energy": -10.04, "internal_energy": -3.39, "cluster_size": 13, "cluster_id": 4, "rank_in_cluster": 7}

>  <energy>  (76) 
-7.06

>  <cluster_rmsd>  (76) 
1.61

>  <cluster>  (76) 
4

$$$$

     RDKit          3D

 65 69  0  0  1  0  0  0  0  0999 V2000
  139.4070   74.3930  221.2600 O   0  0  0  0  0  0  0  0  0  0  0  0
  140.6480   74.6730  221.3830 C   0  0  0  0  0  0  0  0  0  0  0  0
  140.9820   75.9500  221.9910 N   0  0  0  0  0  0  0  0  0  0  0  0
  139.8780   76.7480  222.3810 C   0  0  0  0  0  0  0  0  0  0  0  0
  139.9560   78.1870  222.3780 C   0  0  0  0  0  0  0  0  0  0  0  0
  138.7920   78.7630  222.1350 O   0  0  0  0  0  0  0  0  0  0  0  0
  141.0040   79.1020  222.5770 N   0  0  0  0  0  0  0  0  0  0  0  0
  142.1190   79.1820  223.4800 C   0  0  0  0  0  0  0  0  0  0  0  0
  142.1280   80.7110  223.7730 C   0  0  0  0  0  0  0  0  0  0  0  0
  142.1980   81.1700  222.3340 C   0  0  0  0  0  0  0  0  0  0  0  0
  141.1120   80.3060  221.7340 C   0  0  1  0  0  0  0  0  0  0  0  0
  141.4350   80.0970  220.3320 C   0  0  0  0  0  0  0  0  0  0  0  0
  141.2990   81.1830  219.6120 O   0  0  0  0  0  0  0  0  0  0  0  0
  141.8530   78.9750  219.6260 N   0  0  0  0  0  0  0  0  0  0  0  0
  142.1380   77.6540  220.1100 C   0  0  0  0  0  0  0  0  0  0  0  0
  143.3120   77.0880  219.3210 C   0  0  0  0  0  0  0  0  0  0  0  0
  142.9010   76.8450  217.9130 C   0  0  0  0  0  0  0  0  0  0  0  0
  142.5630   75.4520  217.5990 C   0  0  0  0  0  0  0  0  0  0  0  0
  141.2290   75.0370  217.7370 C   0  0  0  0  0  0  0  0  0  0  0  0
  140.8490   73.7390  217.4560 C   0  0  0  0  0  0  0  0  0  0  0  0
  141.7520   72.7900  217.0290 C   0  0  0  0  0  0  0  0  0  0  0  0
  143.0600   73.1830  216.8910 C   0  0  0  0  0  0  0  0  0  0  0  0
  143.4390   74.4890  217.1730 C   0  0  0  0  0  0  0  0  0  0  0  0
  141.8080   77.7940  217.4660 C   0  0  0  0  0  0  0  0  0  0  0  0
  142.0070   79.1490  218.1550 C   0  0  0  0  0  0  0  0  0  0  0  0
  141.6980   73.7660  220.9420 C   0  0  0  0  0  0  0  0  0  0  0  0
  141.3190   72.4710  220.6400 C   0  0  0  0  0  0  0  0  0  0  0  0
  142.3180   71.5950  220.2290 C   0  0  0  0  0  0  0  0  0  0  0  0
  143.6280   72.0370  220.1340 C   0  0  0  0  0  0  0  0  0  0  0  0
  144.6270   71.1650  219.7240 C   0  0  0  0  0  0  0  0  0  0  0  0
  145.9430   71.6390  219.6390 C   0  0  0  0  0  0  0  0  0  0  0  0
  146.2700   72.9290  219.9470 C   0  0  0  0  0  0  0  0  0  0  0  0
  145.2690   73.8060  220.3590 C   0  0  0  0  0  0  0  0  0  0  0  0
  143.9680   73.3410  220.4450 C   0  0  0  0  0  0  0  0  0  0  0  0
  142.9840   74.1800  220.8440 N   0  0  0  0  0  0  0  0  0  0  0  0
  141.9850   76.1280  222.0530 H   0  0  0  0  0  0  0  0  0  0  0  0
  139.0480   76.4799  221.7108 H   0  0  0  0  0  0  0  0  0  0  0  0
  139.7829   76.5165  223.4522 H   0  0  0  0  0  0  0  0  0  0  0  0
  141.9467   78.5933  224.3931 H   0  0  0  0  0  0  0  0  0  0  0  0
  143.0639   78.7831  223.0825 H   0  0  0  0  0  0  0  0  0  0  0  0
  141.2114   81.0486  224.2789 H   0  0  0  0  0  0  0  0  0  0  0  0
  142.9146   81.0798  224.4477 H   0  0  0  0  0  0  0  0  0  0  0  0
  141.9695   82.2414  222.2350 H   0  0  0  0  0  0  0  0  0  0  0  0
  143.1862   81.0693  221.8615 H   0  0  0  0  0  0  0  0  0  0  0  0
  140.1085   80.7565  221.7288 H   0  0  0  0  0  0  0  0  0  0  0  0
  142.3970   77.6989  221.1781 H   0  0  0  0  0  0  0  0  0  0  0  0
  141.2555   77.0097  219.9833 H   0  0  0  0  0  0  0  0  0  0  0  0
  144.1449   77.8062  219.3397 H   0  0  0  0  0  0  0  0  0  0  0  0
  143.6315   76.1386  219.7755 H   0  0  0  0  0  0  0  0  0  0  0  0
  143.8063   77.0587  217.3259 H   0  0  0  0  0  0  0  0  0  0  0  0
  140.4717   75.7594  218.0755 H   0  0  0  0  0  0  0  0  0  0  0  0
  139.7933   73.4544  217.5768 H   0  0  0  0  0  0  0  0  0  0  0  0
  141.4376   71.7594  216.8077 H   0  0  0  0  0  0  0  0  0  0  0  0
  143.8147   72.4571  216.5541 H   0  0  0  0  0  0  0  0  0  0  0  0
  144.4967   74.7641  217.0479 H   0  0  0  0  0  0  0  0  0  0  0  0
  141.8573   77.9248  216.3749 H   0  0  0  0  0  0  0  0  0  0  0  0
  140.8252   77.3812  217.7374 H   0  0  0  0  0  0  0  0  0  0  0  0
  143.0144   79.5308  217.9327 H   0  0  0  0  0  0  0  0  0  0  0  0
  141.2585   79.8657  217.7862 H   0  0  0  0  0  0  0  0  0  0  0  0
  140.2709   72.1471  220.7214 H   0  0  0  0  0  0  0  0  0  0  0  0
  142.0687   70.5530  219.9798 H   0  0  0  0  0  0  0  0  0  0  0  0
  144.3901   70.1212  219.4705 H   0  0  0  0  0  0  0  0  0  0  0  0
  146.7373   70.9509  219.3142 H   0  0  0  0  0  0  0  0  0  0  0  0
  147.3125   73.2717  219.8706 H   0  0  0  0  0  0  0  0  0  0  0  0
  145.5082   74.8496  220.6115 H   0  0  0  0  0  0  0  0  0  0  0  0
  1  2  2  0
  2  3  1  0
  3  4  1  0
  4  5  1  0
  5  6  2  0
  5  7  1  0
  7  8  1  0
  8  9  1  0
  9 10  1  0
 10 11  1  0
 11 12  1  0
 12 13  2  0
 12 14  1  0
 14 15  1  0
 15 16  1  0
 16 17  1  0
 17 18  1  0
 18 19  2  0
 19 20  1  0
 20 21  2  0
 21 22  1  0
 22 23  2  0
 17 24  1  0
 24 25  1  0
  2 26  1  0
 26 27  2  0
 27 28  1  0
 28 29  2  0
 29 30  1  0
 30 31  2  0
 31 32  1  0
 32 33  2  0
 33 34  1  0
 34 35  2  0
 11  7  1  0
 25 14  1  0
 35 26  1  0
 23 18  1  0
 34 29  1  0
  3 36  1  0
  4 37  1  0
  4 38  1  0
  8 39  1  0
  8 40  1  0
  9 41  1  0
  9 42  1  0
 10 43  1  0
 10 44  1  0
 11 45  1  6
 15 46  1  0
 15 47  1  0
 16 48  1  0
 16 49  1  0
 17 50  1  0
 19 51  1  0
 20 52  1  0
 21 53  1  0
 22 54  1  0
 23 55  1  0
 24 56  1  0
 24 57  1  0
 25 58  1  0
 25 59  1  0
 27 60  1  0
 28 61  1  0
 30 62  1  0
 31 63  1  0
 32 64  1  0
 33 65  1  0
M  END
>  <smiles>  (77) 
O=C(NCC(=O)N1CCCC1C(=O)N1CCC(c2ccccc2)CC1)c1ccc2ccccc2n1

>  <score_type>  (77) 
oracle

>  <origin>  (77) 
autodockgpu

>  <m_score__min__energy>  (77) 
-9.4900000000000002

>  <m_primary>  (77) 
energy

>  <rmsd>  (77) 
6.650750905313452

>  <m_score__min__rmsd>  (77) 
6.650750905313452

>  <meeko>  (77) 
{"free_energy": -6.94, "intermolecular_energy": -8.73, "internal_energy": -4.12, "cluster_size": 6, "cluster_id": 7, "rank_in_cluster": 3}

>  <energy>  (77) 
-6.79

>  <cluster_rmsd>  (77) 
1.86

>  <cluster>  (77) 
4

$$$$

     RDKit          3D

 65 69  0  0  1  0  0  0  0  0999 V2000
  138.9730   75.1520  221.7790 O   0  0  0  0  0  0  0  0  0  0  0  0
  140.1050   75.7000  222.0080 C   0  0  0  0  0  0  0  0  0  0  0  0
  141.2900   74.8820  221.8120 N   0  0  0  0  0  0  0  0  0  0  0  0
  141.0490   73.5530  221.3830 C   0  0  0  0  0  0  0  0  0  0  0  0
  141.9410   72.8880  220.4660 C   0  0  0  0  0  0  0  0  0  0  0  0
  141.3160   72.0490  219.6600 O   0  0  0  0  0  0  0  0  0  0  0  0
  143.3290   72.9440  220.2510 N   0  0  0  0  0  0  0  0  0  0  0  0
  144.3670   71.9650  220.0830 C   0  0  0  0  0  0  0  0  0  0  0  0
  145.5200   72.6430  220.8800 C   0  0  0  0  0  0  0  0  0  0  0  0
  145.5000   73.9610  220.1380 C   0  0  0  0  0  0  0  0  0  0  0  0
  144.0160   74.2450  220.1530 C   0  0  1  0  0  0  0  0  0  0  0  0
  143.7080   75.0610  218.9910 C   0  0  0  0  0  0  0  0  0  0  0  0
  144.1450   74.5380  217.8720 O   0  0  0  0  0  0  0  0  0  0  0  0
  143.0460   76.2750  218.8490 N   0  0  0  0  0  0  0  0  0  0  0  0
  142.4150   77.0860  219.8510 C   0  0  0  0  0  0  0  0  0  0  0  0
  141.1680   77.7220  219.2500 C   0  0  0  0  0  0  0  0  0  0  0  0
  141.5610   78.7180  218.2180 C   0  0  0  0  0  0  0  0  0  0  0  0
  141.5450   80.1140  218.6670 C   0  0  0  0  0  0  0  0  0  0  0  0
  140.9190   80.4200  219.8850 C   0  0  0  0  0  0  0  0  0  0  0  0
  140.8720   81.7160  220.3610 C   0  0  0  0  0  0  0  0  0  0  0  0
  141.4320   82.7690  219.6710 C   0  0  0  0  0  0  0  0  0  0  0  0
  142.0480   82.4830  218.4780 C   0  0  0  0  0  0  0  0  0  0  0  0
  142.0940   81.1780  218.0020 C   0  0  0  0  0  0  0  0  0  0  0  0
  142.8770   78.3640  217.5550 C   0  0  0  0  0  0  0  0  0  0  0  0
  143.0010   76.8380  217.4710 C   0  0  0  0  0  0  0  0  0  0  0  0
  140.2260   77.0830  222.4460 C   0  0  0  0  0  0  0  0  0  0  0  0
  139.0480   77.7720  222.6730 C   0  0  0  0  0  0  0  0  0  0  0  0
  139.1550   79.0970  223.0820 C   0  0  0  0  0  0  0  0  0  0  0  0
  140.4060   79.6700  223.2460 C   0  0  0  0  0  0  0  0  0  0  0  0
  140.5150   80.9930  223.6540 C   0  0  0  0  0  0  0  0  0  0  0  0
  141.7920   81.5480  223.8100 C   0  0  0  0  0  0  0  0  0  0  0  0
  142.9280   80.8270  223.5750 C   0  0  0  0  0  0  0  0  0  0  0  0
  142.8220   79.5000  223.1660 C   0  0  0  0  0  0  0  0  0  0  0  0
  141.5610   78.9480  223.0090 C   0  0  0  0  0  0  0  0  0  0  0  0
  141.4390   77.6610  222.6120 N   0  0  0  0  0  0  0  0  0  0  0  0
  142.1640   75.3640  222.0210 H   0  0  0  0  0  0  0  0  0  0  0  0
  141.0181   72.9335  222.2915 H   0  0  0  0  0  0  0  0  0  0  0  0
  140.1299   73.6576  220.7878 H   0  0  0  0  0  0  0  0  0  0  0  0
  144.0862   70.9950  220.5192 H   0  0  0  0  0  0  0  0  0  0  0  0
  144.6090   71.7252  219.0371 H   0  0  0  0  0  0  0  0  0  0  0  0
  145.2839   72.7570  221.9483 H   0  0  0  0  0  0  0  0  0  0  0  0
  146.4806   72.1079  220.9110 H   0  0  0  0  0  0  0  0  0  0  0  0
  146.0701   74.7376  220.6690 H   0  0  0  0  0  0  0  0  0  0  0  0
  145.9582   73.9380  219.1383 H   0  0  0  0  0  0  0  0  0  0  0  0
  143.6640   74.8336  221.0130 H   0  0  0  0  0  0  0  0  0  0  0  0
  142.1337   76.4601  220.7107 H   0  0  0  0  0  0  0  0  0  0  0  0
  143.1086   77.8691  220.1910 H   0  0  0  0  0  0  0  0  0  0  0  0
  140.5464   76.9415  218.7869 H   0  0  0  0  0  0  0  0  0  0  0  0
  140.5974   78.2260  220.0440 H   0  0  0  0  0  0  0  0  0  0  0  0
  140.7643   78.6528  217.4623 H   0  0  0  0  0  0  0  0  0  0  0  0
  140.4569   79.6126  220.4719 H   0  0  0  0  0  0  0  0  0  0  0  0
  140.3719   81.9134  221.3207 H   0  0  0  0  0  0  0  0  0  0  0  0
  141.3873   83.7969  220.0602 H   0  0  0  0  0  0  0  0  0  0  0  0
  142.5089   83.2933  217.8940 H   0  0  0  0  0  0  0  0  0  0  0  0
  142.5971   80.9901  217.0420 H   0  0  0  0  0  0  0  0  0  0  0  0
  142.9064   78.7924  216.5423 H   0  0  0  0  0  0  0  0  0  0  0  0
  143.7111   78.7720  218.1448 H   0  0  0  0  0  0  0  0  0  0  0  0
  142.1336   76.4272  216.9336 H   0  0  0  0  0  0  0  0  0  0  0  0
  143.9217   76.5706  216.9317 H   0  0  0  0  0  0  0  0  0  0  0  0
  138.0678   77.2920  222.5358 H   0  0  0  0  0  0  0  0  0  0  0  0
  138.2482   79.6890  223.2749 H   0  0  0  0  0  0  0  0  0  0  0  0
  139.6152   81.5942  223.8511 H   0  0  0  0  0  0  0  0  0  0  0  0
  141.8824   82.5961  224.1314 H   0  0  0  0  0  0  0  0  0  0  0  0
  143.9170   81.2900  223.7075 H   0  0  0  0  0  0  0  0  0  0  0  0
  143.7236   78.9007  222.9710 H   0  0  0  0  0  0  0  0  0  0  0  0
  1  2  2  0
  2  3  1  0
  3  4  1  0
  4  5  1  0
  5  6  2  0
  5  7  1  0
  7  8  1  0
  8  9  1  0
  9 10  1  0
 10 11  1  0
 11 12  1  0
 12 13  2  0
 12 14  1  0
 14 15  1  0
 15 16  1  0
 16 17  1  0
 17 18  1  0
 18 19  2  0
 19 20  1  0
 20 21  2  0
 21 22  1  0
 22 23  2  0
 17 24  1  0
 24 25  1  0
  2 26  1  0
 26 27  2  0
 27 28  1  0
 28 29  2  0
 29 30  1  0
 30 31  2  0
 31 32  1  0
 32 33  2  0
 33 34  1  0
 34 35  2  0
 11  7  1  0
 25 14  1  0
 35 26  1  0
 23 18  1  0
 34 29  1  0
  3 36  1  0
  4 37  1  0
  4 38  1  0
  8 39  1  0
  8 40  1  0
  9 41  1  0
  9 42  1  0
 10 43  1  0
 10 44  1  0
 11 45  1  1
 15 46  1  0
 15 47  1  0
 16 48  1  0
 16 49  1  0
 17 50  1  0
 19 51  1  0
 20 52  1  0
 21 53  1  0
 22 54  1  0
 23 55  1  0
 24 56  1  0
 24 57  1  0
 25 58  1  0
 25 59  1  0
 27 60  1  0
 28 61  1  0
 30 62  1  0
 31 63  1  0
 32 64  1  0
 33 65  1  0
M  END
>  <smiles>  (78) 
O=C(NCC(=O)N1CCCC1C(=O)N1CCC(c2ccccc2)CC1)c1ccc2ccccc2n1

>  <score_type>  (78) 
oracle

>  <origin>  (78) 
autodockgpu

>  <m_score__min__energy>  (78) 
-9.4900000000000002

>  <m_primary>  (78) 
energy

>  <rmsd>  (78) 
7.033430625250921

>  <m_score__min__rmsd>  (78) 
7.033430625250921

>  <meeko>  (78) 
{"free_energy": -8.41, "intermolecular_energy": -10.2, "internal_energy": -3.72, "cluster_size": 13, "cluster_id": 4, "rank_in_cluster": 6}

>  <energy>  (78) 
-8.75

>  <cluster_rmsd>  (78) 
0.0

>  <cluster>  (78) 
5

$$$$

     RDKit          3D

 65 69  0  0  1  0  0  0  0  0999 V2000
  135.0850   76.4430  224.5810 O   0  0  0  0  0  0  0  0  0  0  0  0
  135.4680   75.2670  224.2570 C   0  0  0  0  0  0  0  0  0  0  0  0
  136.5270   75.1640  223.2680 N   0  0  0  0  0  0  0  0  0  0  0  0
  137.0200   76.3960  222.7700 C   0  0  0  0  0  0  0  0  0  0  0  0
  138.4260   76.5980  222.5270 C   0  0  0  0  0  0  0  0  0  0  0  0
  138.8840   77.7150  223.0610 O   0  0  0  0  0  0  0  0  0  0  0  0
  139.4070   75.8590  221.8430 N   0  0  0  0  0  0  0  0  0  0  0  0
  140.8440   75.8640  221.8190 C   0  0  0  0  0  0  0  0  0  0  0  0
  141.0970   75.6180  220.3030 C   0  0  0  0  0  0  0  0  0  0  0  0
  140.2740   74.3550  220.1860 C   0  0  0  0  0  0  0  0  0  0  0  0
  139.0170   74.7980  220.8980 C   0  0  1  0  0  0  0  0  0  0  0  0
  138.3880   73.6160  221.4650 C   0  0  0  0  0  0  0  0  0  0  0  0
  137.1880   73.4000  220.9850 O   0  0  0  0  0  0  0  0  0  0  0  0
  138.8160   72.6880  222.4070 N   0  0  0  0  0  0  0  0  0  0  0  0
  140.0770   72.6070  223.0900 C   0  0  0  0  0  0  0  0  0  0  0  0
  140.4440   71.1390  223.2640 C   0  0  0  0  0  0  0  0  0  0  0  0
  139.5050   70.4970  224.2220 C   0  0  0  0  0  0  0  0  0  0  0  0
  140.0180   70.3520  225.5880 C   0  0  0  0  0  0  0  0  0  0  0  0
  140.4820   71.4960  226.2560 C   0  0  0  0  0  0  0  0  0  0  0  0
  140.9760   71.4230  227.5440 C   0  0  0  0  0  0  0  0  0  0  0  0
  141.0410   70.2330  228.2360 C   0  0  0  0  0  0  0  0  0  0  0  0
  140.5910   69.1070  227.5930 C   0  0  0  0  0  0  0  0  0  0  0  0
  140.0940   69.1820  226.2990 C   0  0  0  0  0  0  0  0  0  0  0  0
  138.1400   71.1540  224.2100 C   0  0  0  0  0  0  0  0  0  0  0  0
  137.8300   71.6410  222.7900 C   0  0  0  0  0  0  0  0  0  0  0  0
  134.8830   74.0700  224.8430 C   0  0  0  0  0  0  0  0  0  0  0  0
  133.9720   74.2550  225.8670 C   0  0  0  0  0  0  0  0  0  0  0  0
  133.4170   73.1160  226.4390 C   0  0  0  0  0  0  0  0  0  0  0  0
  133.7830   71.8620  225.9750 C   0  0  0  0  0  0  0  0  0  0  0  0
  133.2300   70.7220  226.5440 C   0  0  0  0  0  0  0  0  0  0  0  0
  133.6190   69.4680  226.0570 C   0  0  0  0  0  0  0  0  0  0  0  0
  134.5230   69.3340  225.0410 C   0  0  0  0  0  0  0  0  0  0  0  0
  135.0790   70.4750  224.4680 C   0  0  0  0  0  0  0  0  0  0  0  0
  134.6980   71.7170  224.9480 C   0  0  0  0  0  0  0  0  0  0  0  0
  135.2280   72.8360  224.4030 N   0  0  0  0  0  0  0  0  0  0  0  0
  136.7850   74.2040  223.0380 H   0  0  0  0  0  0  0  0  0  0  0  0
  136.5105   76.5699  221.8108 H   0  0  0  0  0  0  0  0  0  0  0  0
  136.8210   77.0861  223.6032 H   0  0  0  0  0  0  0  0  0  0  0  0
  141.2533   76.8304  222.1485 H   0  0  0  0  0  0  0  0  0  0  0  0
  141.3185   75.1327  222.4899 H   0  0  0  0  0  0  0  0  0  0  0  0
  140.7103   76.4329  219.6734 H   0  0  0  0  0  0  0  0  0  0  0  0
  142.1470   75.5549  219.9813 H   0  0  0  0  0  0  0  0  0  0  0  0
  140.0777   74.0908  219.1364 H   0  0  0  0  0  0  0  0  0  0  0  0
  140.7478   73.4519  220.5984 H   0  0  0  0  0  0  0  0  0  0  0  0
  138.2486   75.2446  220.2498 H   0  0  0  0  0  0  0  0  0  0  0  0
  140.8523   73.1148  222.4975 H   0  0  0  0  0  0  0  0  0  0  0  0
  140.0028   73.0942  224.0734 H   0  0  0  0  0  0  0  0  0  0  0  0
  140.3800   70.6285  222.2917 H   0  0  0  0  0  0  0  0  0  0  0  0
  141.4698   71.0640  223.6542 H   0  0  0  0  0  0  0  0  0  0  0  0
  139.3974   69.4685  223.8470 H   0  0  0  0  0  0  0  0  0  0  0  0
  140.4517   72.4692  225.7441 H   0  0  0  0  0  0  0  0  0  0  0  0
  141.3285   72.3434  228.0325 H   0  0  0  0  0  0  0  0  0  0  0  0
  141.4371   70.1875  229.2612 H   0  0  0  0  0  0  0  0  0  0  0  0
  140.6245   68.1356  228.1081 H   0  0  0  0  0  0  0  0  0  0  0  0
  139.7434   68.2560  225.8198 H   0  0  0  0  0  0  0  0  0  0  0  0
  137.3779   70.4256  224.5242 H   0  0  0  0  0  0  0  0  0  0  0  0
  138.1334   72.0074  224.9041 H   0  0  0  0  0  0  0  0  0  0  0  0
  137.8982   70.7967  222.0882 H   0  0  0  0  0  0  0  0  0  0  0  0
  136.8134   72.0598  222.7560 H   0  0  0  0  0  0  0  0  0  0  0  0
  133.6979   75.2620  226.2146 H   0  0  0  0  0  0  0  0  0  0  0  0
  132.6889   73.2096  227.2582 H   0  0  0  0  0  0  0  0  0  0  0  0
  132.4996   70.8027  227.3625 H   0  0  0  0  0  0  0  0  0  0  0  0
  133.1836   68.5631  226.5060 H   0  0  0  0  0  0  0  0  0  0  0  0
  134.8086   68.3351  224.6795 H   0  0  0  0  0  0  0  0  0  0  0  0
  135.8080   70.3913  223.6485 H   0  0  0  0  0  0  0  0  0  0  0  0
  1  2  2  0
  2  3  1  0
  3  4  1  0
  4  5  1  0
  5  6  2  0
  5  7  1  0
  7  8  1  0
  8  9  1  0
  9 10  1  0
 10 11  1  0
 11 12  1  0
 12 13  2  0
 12 14  1  0
 14 15  1  0
 15 16  1  0
 16 17  1  0
 17 18  1  0
 18 19  2  0
 19 20  1  0
 20 21  2  0
 21 22  1  0
 22 23  2  0
 17 24  1  0
 24 25  1  0
  2 26  1  0
 26 27  2  0
 27 28  1  0
 28 29  2  0
 29 30  1  0
 30 31  2  0
 31 32  1  0
 32 33  2  0
 33 34  1  0
 34 35  2  0
 11  7  1  0
 25 14  1  0
 35 26  1  0
 23 18  1  0
 34 29  1  0
  3 36  1  0
  4 37  1  0
  4 38  1  0
  8 39  1  0
  8 40  1  0
  9 41  1  0
  9 42  1  0
 10 43  1  0
 10 44  1  0
 11 45  1  6
 15 46  1  0
 15 47  1  0
 16 48  1  0
 16 49  1  0
 17 50  1  0
 19 51  1  0
 20 52  1  0
 21 53  1  0
 22 54  1  0
 23 55  1  0
 24 56  1  0
 24 57  1  0
 25 58  1  0
 25 59  1  0
 27 60  1  0
 28 61  1  0
 30 62  1  0
 31 63  1  0
 32 64  1  0
 33 65  1  0
M  END
>  <smiles>  (79) 
O=C(NCC(=O)N1CCCC1C(=O)N1CCC(c2ccccc2)CC1)c1ccc2ccccc2n1

>  <score_type>  (79) 
oracle

>  <origin>  (79) 
autodockgpu

>  <m_score__min__energy>  (79) 
-9.4900000000000002

>  <m_primary>  (79) 
energy

>  <rmsd>  (79) 
7.252420584128045

>  <m_score__min__rmsd>  (79) 
7.252420584128045

>  <meeko>  (79) 
{"free_energy": -8.0, "intermolecular_energy": -9.79, "internal_energy": -3.56, "cluster_size": 16, "cluster_id": 6, "rank_in_cluster": 11}

>  <energy>  (79) 
-8.27

>  <cluster_rmsd>  (79) 
0.0

>  <cluster>  (79) 
6

$$$$

     RDKit          3D

 65 69  0  0  1  0  0  0  0  0999 V2000
  139.6010   74.8090  222.6130 O   0  0  0  0  0  0  0  0  0  0  0  0
  140.2090   74.9000  221.4930 C   0  0  0  0  0  0  0  0  0  0  0  0
  139.8670   76.0260  220.6420 N   0  0  0  0  0  0  0  0  0  0  0  0
  138.8840   76.9050  221.1590 C   0  0  0  0  0  0  0  0  0  0  0  0
  139.2480   78.0610  221.9400 C   0  0  0  0  0  0  0  0  0  0  0  0
  138.2010   78.7590  222.3430 O   0  0  0  0  0  0  0  0  0  0  0  0
  140.4760   78.5990  222.3600 N   0  0  0  0  0  0  0  0  0  0  0  0
  141.4420   78.2520  223.3660 C   0  0  0  0  0  0  0  0  0  0  0  0
  141.8440   79.6710  223.8650 C   0  0  0  0  0  0  0  0  0  0  0  0
  142.2260   80.2360  222.5140 C   0  0  0  0  0  0  0  0  0  0  0  0
  141.0280   79.7980  221.7030 C   0  0  1  0  0  0  0  0  0  0  0  0
  141.4560   79.6490  220.3230 C   0  0  0  0  0  0  0  0  0  0  0  0
  141.3180   80.7500  219.6260 O   0  0  0  0  0  0  0  0  0  0  0  0
  141.9780   78.5720  219.6150 N   0  0  0  0  0  0  0  0  0  0  0  0
  142.2930   77.2510  220.0800 C   0  0  0  0  0  0  0  0  0  0  0  0
  143.5450   76.7660  219.3610 C   0  0  0  0  0  0  0  0  0  0  0  0
  143.2450   76.5490  217.9210 C   0  0  0  0  0  0  0  0  0  0  0  0
  142.9990   75.1540  217.5440 C   0  0  0  0  0  0  0  0  0  0  0  0
  141.6940   74.6490  217.6530 C   0  0  0  0  0  0  0  0  0  0  0  0
  141.3990   73.3420  217.3130 C   0  0  0  0  0  0  0  0  0  0  0  0
  142.3630   72.4730  216.8520 C   0  0  0  0  0  0  0  0  0  0  0  0
  143.6430   72.9540  216.7400 C   0  0  0  0  0  0  0  0  0  0  0  0
  143.9370   74.2680  217.0820 C   0  0  0  0  0  0  0  0  0  0  0  0
  142.1400   77.4600  217.4240 C   0  0  0  0  0  0  0  0  0  0  0  0
  142.2250   78.8000  218.1650 C   0  0  0  0  0  0  0  0  0  0  0  0
  141.2080   73.9290  221.0690 C   0  0  0  0  0  0  0  0  0  0  0  0
  140.7660   72.6400  220.8330 C   0  0  0  0  0  0  0  0  0  0  0  0
  141.7160   71.7040  220.4380 C   0  0  0  0  0  0  0  0  0  0  0  0
  143.0410   72.0830  220.2940 C   0  0  0  0  0  0  0  0  0  0  0  0
  143.9920   71.1510  219.9000 C   0  0  0  0  0  0  0  0  0  0  0  0
  145.3240   71.5620  219.7650 C   0  0  0  0  0  0  0  0  0  0  0  0
  145.7140   72.8480  220.0080 C   0  0  0  0  0  0  0  0  0  0  0  0
  144.7630   73.7860  220.4030 C   0  0  0  0  0  0  0  0  0  0  0  0
  143.4450   73.3830  220.5390 C   0  0  0  0  0  0  0  0  0  0  0  0
  142.5080   74.2810  220.9230 N   0  0  0  0  0  0  0  0  0  0  0  0
  140.3720   76.0430  219.7550 H   0  0  0  0  0  0  0  0  0  0  0  0
  138.3162   77.2798  220.2946 H   0  0  0  0  0  0  0  0  0  0  0  0
  138.3640   76.2743  221.8951 H   0  0  0  0  0  0  0  0  0  0  0  0
  140.9942   77.6494  224.1699 H   0  0  0  0  0  0  0  0  0  0  0  0
  142.2793   77.6351  223.0077 H   0  0  0  0  0  0  0  0  0  0  0  0
  141.0025   80.2101  224.3246 H   0  0  0  0  0  0  0  0  0  0  0  0
  142.6088   79.7185  224.6542 H   0  0  0  0  0  0  0  0  0  0  0  0
  142.3229   81.3314  222.5414 H   0  0  0  0  0  0  0  0  0  0  0  0
  143.1985   79.8979  222.1267 H   0  0  0  0  0  0  0  0  0  0  0  0
  140.2019   80.5234  221.6659 H   0  0  0  0  0  0  0  0  0  0  0  0
  142.4745   77.2738  221.1647 H   0  0  0  0  0  0  0  0  0  0  0  0
  141.4541   76.5705  219.8723 H   0  0  0  0  0  0  0  0  0  0  0  0
  144.3385   77.5214  219.4591 H   0  0  0  0  0  0  0  0  0  0  0  0
  143.8784   75.8187  219.8099 H   0  0  0  0  0  0  0  0  0  0  0  0
  144.1776   76.8238  217.4065 H   0  0  0  0  0  0  0  0  0  0  0  0
  140.8901   75.3062  218.0161 H   0  0  0  0  0  0  0  0  0  0  0  0
  140.3633   72.9853  217.4136 H   0  0  0  0  0  0  0  0  0  0  0  0
  142.1165   71.4349  216.5844 H   0  0  0  0  0  0  0  0  0  0  0  0
  144.4437   72.2933  216.3761 H   0  0  0  0  0  0  0  0  0  0  0  0
  144.9755   74.6150  216.9766 H   0  0  0  0  0  0  0  0  0  0  0  0
  142.2589   77.6281  216.3434 H   0  0  0  0  0  0  0  0  0  0  0  0
  141.1617   76.9934  217.6117 H   0  0  0  0  0  0  0  0  0  0  0  0
  143.2258   79.2349  218.0259 H   0  0  0  0  0  0  0  0  0  0  0  0
  141.4699   79.4928  217.7652 H   0  0  0  0  0  0  0  0  0  0  0  0
  139.7073   72.3664  220.9527 H   0  0  0  0  0  0  0  0  0  0  0  0
  141.4159   70.6644  220.2402 H   0  0  0  0  0  0  0  0  0  0  0  0
  143.7043   70.1088  219.6976 H   0  0  0  0  0  0  0  0  0  0  0  0
  146.0797   70.8259  219.4535 H   0  0  0  0  0  0  0  0  0  0  0  0
  146.7683   73.1401  219.8930 H   0  0  0  0  0  0  0  0  0  0  0  0
  145.0535   74.8279  220.6033 H   0  0  0  0  0  0  0  0  0  0  0  0
  1  2  2  0
  2  3  1  0
  3  4  1  0
  4  5  1  0
  5  6  2  0
  5  7  1  0
  7  8  1  0
  8  9  1  0
  9 10  1  0
 10 11  1  0
 11 12  1  0
 12 13  2  0
 12 14  1  0
 14 15  1  0
 15 16  1  0
 16 17  1  0
 17 18  1  0
 18 19  2  0
 19 20  1  0
 20 21  2  0
 21 22  1  0
 22 23  2  0
 17 24  1  0
 24 25  1  0
  2 26  1  0
 26 27  2  0
 27 28  1  0
 28 29  2  0
 29 30  1  0
 30 31  2  0
 31 32  1  0
 32 33  2  0
 33 34  1  0
 34 35  2  0
 11  7  1  0
 25 14  1  0
 35 26  1  0
 23 18  1  0
 34 29  1  0
  3 36  1  0
  4 37  1  0
  4 38  1  0
  8 39  1  0
  8 40  1  0
  9 41  1  0
  9 42  1  0
 10 43  1  0
 10 44  1  0
 11 45  1  6
 15 46  1  0
 15 47  1  0
 16 48  1  0
 16 49  1  0
 17 50  1  0
 19 51  1  0
 20 52  1  0
 21 53  1  0
 22 54  1  0
 23 55  1  0
 24 56  1  0
 24 57  1  0
 25 58  1  0
 25 59  1  0
 27 60  1  0
 28 61  1  0
 30 62  1  0
 31 63  1  0
 32 64  1  0
 33 65  1  0
M  END
>  <smiles>  (80) 
O=C(NCC(=O)N1CCCC1C(=O)N1CCC(c2ccccc2)CC1)c1ccc2ccccc2n1

>  <score_type>  (80) 
oracle

>  <origin>  (80) 
autodockgpu

>  <m_score__min__energy>  (80) 
-9.4900000000000002

>  <m_primary>  (80) 
energy

>  <rmsd>  (80) 
6.486428487243684

>  <m_score__min__rmsd>  (80) 
6.486428487243684

>  <meeko>  (80) 
{"free_energy": -6.37, "intermolecular_energy": -8.16, "internal_energy": -4.22, "cluster_size": 6, "cluster_id": 7, "rank_in_cluster": 6}

>  <energy>  (80) 
-8.25

>  <cluster_rmsd>  (80) 
0.4

>  <cluster>  (80) 
6

$$$$

     RDKit          3D

 65 69  0  0  1  0  0  0  0  0999 V2000
  141.4060   72.2230  221.7020 O   0  0  0  0  0  0  0  0  0  0  0  0
  140.4470   72.3970  222.5280 C   0  0  0  0  0  0  0  0  0  0  0  0
  139.5340   73.4950  222.2630 N   0  0  0  0  0  0  0  0  0  0  0  0
  139.8170   74.2580  221.1040 C   0  0  0  0  0  0  0  0  0  0  0  0
  140.6010   75.4660  221.1740 C   0  0  0  0  0  0  0  0  0  0  0  0
  140.7700   75.8970  222.4110 O   0  0  0  0  0  0  0  0  0  0  0  0
  141.2180   76.2780  220.2070 N   0  0  0  0  0  0  0  0  0  0  0  0
  141.2650   77.6910  219.9530 C   0  0  0  0  0  0  0  0  0  0  0  0
  141.1990   77.6950  218.3970 C   0  0  0  0  0  0  0  0  0  0  0  0
  142.3770   76.7760  218.1650 C   0  0  0  0  0  0  0  0  0  0  0  0
  142.0440   75.6750  219.1450 C   0  0  1  0  0  0  0  0  0  0  0  0
  143.2920   75.0550  219.5580 C   0  0  0  0  0  0  0  0  0  0  0  0
  144.1410   75.9130  220.0670 O   0  0  0  0  0  0  0  0  0  0  0  0
  143.7440   73.7410  219.5140 N   0  0  0  0  0  0  0  0  0  0  0  0
  143.0590   72.5620  219.0640 C   0  0  0  0  0  0  0  0  0  0  0  0
  143.4690   71.3920  219.9490 C   0  0  0  0  0  0  0  0  0  0  0  0
  144.8980   71.0580  219.7110 C   0  0  0  0  0  0  0  0  0  0  0  0
  145.1260   69.9170  218.8180 C   0  0  0  0  0  0  0  0  0  0  0  0
  145.4370   68.6720  219.3870 C   0  0  0  0  0  0  0  0  0  0  0  0
  145.6620   67.5600  218.5990 C   0  0  0  0  0  0  0  0  0  0  0  0
  145.5930   67.6130  217.2240 C   0  0  0  0  0  0  0  0  0  0  0  0
  145.2910   68.8250  216.6550 C   0  0  0  0  0  0  0  0  0  0  0  0
  145.0640   69.9420  217.4500 C   0  0  0  0  0  0  0  0  0  0  0  0
  145.7030   72.2680  219.2790 C   0  0  0  0  0  0  0  0  0  0  0  0
  145.1420   73.5160  219.9720 C   0  0  0  0  0  0  0  0  0  0  0  0
  140.2570   71.5400  223.6900 C   0  0  0  0  0  0  0  0  0  0  0  0
  139.5630   70.3610  223.4920 C   0  0  0  0  0  0  0  0  0  0  0  0
  139.3690   69.5430  224.6000 C   0  0  0  0  0  0  0  0  0  0  0  0
  139.8670   69.9250  225.8360 C   0  0  0  0  0  0  0  0  0  0  0  0
  139.6740   69.1100  226.9440 C   0  0  0  0  0  0  0  0  0  0  0  0
  140.1870   69.5210  228.1810 C   0  0  0  0  0  0  0  0  0  0  0  0
  140.8680   70.6960  228.3280 C   0  0  0  0  0  0  0  0  0  0  0  0
  141.0630   71.5150  227.2190 C   0  0  0  0  0  0  0  0  0  0  0  0
  140.5570   71.1120  225.9940 C   0  0  0  0  0  0  0  0  0  0  0  0
  140.7360   71.8960  224.9060 N   0  0  0  0  0  0  0  0  0  0  0  0
  138.7950   73.5960  222.9610 H   0  0  0  0  0  0  0  0  0  0  0  0
  140.3427   73.5858  220.4098 H   0  0  0  0  0  0  0  0  0  0  0  0
  138.8238   74.6351  220.8189 H   0  0  0  0  0  0  0  0  0  0  0  0
  140.4056   78.2136  220.3984 H   0  0  0  0  0  0  0  0  0  0  0  0
  142.1382   78.2070  220.3786 H   0  0  0  0  0  0  0  0  0  0  0  0
  140.2564   77.2770  218.0140 H   0  0  0  0  0  0  0  0  0  0  0  0
  141.2342   78.6775  217.9035 H   0  0  0  0  0  0  0  0  0  0  0  0
  142.4089   76.4058  217.1297 H   0  0  0  0  0  0  0  0  0  0  0  0
  143.3638   77.2410  218.3066 H   0  0  0  0  0  0  0  0  0  0  0  0
  141.4429   74.8512  218.7326 H   0  0  0  0  0  0  0  0  0  0  0  0
  141.9721   72.7159  219.1338 H   0  0  0  0  0  0  0  0  0  0  0  0
  143.3234   72.3512  218.0173 H   0  0  0  0  0  0  0  0  0  0  0  0
  143.3289   71.6661  221.0050 H   0  0  0  0  0  0  0  0  0  0  0  0
  142.8463   70.5179  219.7076 H   0  0  0  0  0  0  0  0  0  0  0  0
  145.2663   70.7299  220.6942 H   0  0  0  0  0  0  0  0  0  0  0  0
  145.5028   68.5802  220.4812 H   0  0  0  0  0  0  0  0  0  0  0  0
  145.9037   66.6028  219.0842 H   0  0  0  0  0  0  0  0  0  0  0  0
  145.7727   66.7201  216.6072 H   0  0  0  0  0  0  0  0  0  0  0  0
  145.2281   68.9129  215.5603 H   0  0  0  0  0  0  0  0  0  0  0  0
  144.8223   70.8944  216.9556 H   0  0  0  0  0  0  0  0  0  0  0  0
  146.7566   72.1305  219.5638 H   0  0  0  0  0  0  0  0  0  0  0  0
  145.6360   72.3879  218.1876 H   0  0  0  0  0  0  0  0  0  0  0  0
  145.1532   73.3683  221.0620 H   0  0  0  0  0  0  0  0  0  0  0  0
  145.7600   74.3899  219.7183 H   0  0  0  0  0  0  0  0  0  0  0  0
  139.1801   70.0814  222.4994 H   0  0  0  0  0  0  0  0  0  0  0  0
  138.8214   68.5947  224.4957 H   0  0  0  0  0  0  0  0  0  0  0  0
  139.1284   68.1593  226.8518 H   0  0  0  0  0  0  0  0  0  0  0  0
  140.0369   68.8780  229.0608 H   0  0  0  0  0  0  0  0  0  0  0  0
  141.2585   70.9922  229.3128 H   0  0  0  0  0  0  0  0  0  0  0  0
  141.6091   72.4651  227.3139 H   0  0  0  0  0  0  0  0  0  0  0  0
  1  2  2  0
  2  3  1  0
  3  4  1  0
  4  5  1  0
  5  6  2  0
  5  7  1  0
  7  8  1  0
  8  9  1  0
  9 10  1  0
 10 11  1  0
 11 12  1  0
 12 13  2  0
 12 14  1  0
 14 15  1  0
 15 16  1  0
 16 17  1  0
 17 18  1  0
 18 19  2  0
 19 20  1  0
 20 21  2  0
 21 22  1  0
 22 23  2  0
 17 24  1  0
 24 25  1  0
  2 26  1  0
 26 27  2  0
 27 28  1  0
 28 29  2  0
 29 30  1  0
 30 31  2  0
 31 32  1  0
 32 33  2  0
 33 34  1  0
 34 35  2  0
 11  7  1  0
 25 14  1  0
 35 26  1  0
 23 18  1  0
 34 29  1  0
  3 36  1  0
  4 37  1  0
  4 38  1  0
  8 39  1  0
  8 40  1  0
  9 41  1  0
  9 42  1  0
 10 43  1  0
 10 44  1  0
 11 45  1  6
 15 46  1  0
 15 47  1  0
 16 48  1  0
 16 49  1  0
 17 50  1  0
 19 51  1  0
 20 52  1  0
 21 53  1  0
 22 54  1  0
 23 55  1  0
 24 56  1  0
 24 57  1  0
 25 58  1  0
 25 59  1  0
 27 60  1  0
 28 61  1  0
 30 62  1  0
 31 63  1  0
 32 64  1  0
 33 65  1  0
M  END
>  <smiles>  (81) 
O=C(NCC(=O)N1CCCC1C(=O)N1CCC(c2ccccc2)CC1)c1ccc2ccccc2n1

>  <score_type>  (81) 
oracle

>  <origin>  (81) 
autodockgpu

>  <m_score__min__energy>  (81) 
-9.4900000000000002

>  <m_primary>  (81) 
energy

>  <rmsd>  (81) 
6.462324593156881

>  <m_score__min__rmsd>  (81) 
6.462324593156881

>  <meeko>  (81) 
{"free_energy": -9.19, "intermolecular_energy": -10.98, "internal_energy": -2.05, "cluster_size": 6, "cluster_id": 2, "rank_in_cluster": 2}

>  <energy>  (81) 
-8.21

>  <cluster_rmsd>  (81) 
0.62

>  <cluster>  (81) 
6

$$$$

     RDKit          3D

 65 69  0  0  1  0  0  0  0  0999 V2000
  136.3260   77.2000  223.3150 O   0  0  0  0  0  0  0  0  0  0  0  0
  136.3390   75.9330  223.4790 C   0  0  0  0  0  0  0  0  0  0  0  0
  137.3320   75.1780  222.7340 N   0  0  0  0  0  0  0  0  0  0  0  0
  138.1830   75.9450  221.9010 C   0  0  0  0  0  0  0  0  0  0  0  0
  139.5400   75.5360  221.6340 C   0  0  0  0  0  0  0  0  0  0  0  0
  140.4260   76.4630  221.9500 O   0  0  0  0  0  0  0  0  0  0  0  0
  140.1130   74.3650  221.1110 N   0  0  0  0  0  0  0  0  0  0  0  0
  141.4520   73.8530  221.0080 C   0  0  0  0  0  0  0  0  0  0  0  0
  141.3920   73.2030  219.5940 C   0  0  0  0  0  0  0  0  0  0  0  0
  140.1890   72.3230  219.8520 C   0  0  0  0  0  0  0  0  0  0  0  0
  139.2640   73.3300  220.4940 C   0  0  1  0  0  0  0  0  0  0  0  0
  138.3660   72.6080  221.3790 C   0  0  0  0  0  0  0  0  0  0  0  0
  137.1040   72.8740  221.1500 O   0  0  0  0  0  0  0  0  0  0  0  0
  138.5940   71.7020  222.4080 N   0  0  0  0  0  0  0  0  0  0  0  0
  139.8390   71.1660  222.8840 C   0  0  0  0  0  0  0  0  0  0  0  0
  139.6220   69.7140  223.2890 C   0  0  0  0  0  0  0  0  0  0  0  0
  138.7520   69.6530  224.4930 C   0  0  0  0  0  0  0  0  0  0  0  0
  139.4630   69.4600  225.7610 C   0  0  0  0  0  0  0  0  0  0  0  0
  140.0070   70.5840  226.4040 C   0  0  0  0  0  0  0  0  0  0  0  0
  140.6870   70.4670  227.6000 C   0  0  0  0  0  0  0  0  0  0  0  0
  140.8670   69.2510  228.2220 C   0  0  0  0  0  0  0  0  0  0  0  0
  140.3410   68.1440  227.6040 C   0  0  0  0  0  0  0  0  0  0  0  0
  139.6570   68.2640  226.4010 C   0  0  0  0  0  0  0  0  0  0  0  0
  137.7960   70.8260  224.5670 C   0  0  0  0  0  0  0  0  0  0  0  0
  137.3900   71.2320  223.1450 C   0  0  0  0  0  0  0  0  0  0  0  0
  135.4090   75.2540  224.3700 C   0  0  0  0  0  0  0  0  0  0  0  0
  134.5660   76.0530  225.1200 C   0  0  0  0  0  0  0  0  0  0  0  0
  133.6820   75.4120  225.9820 C   0  0  0  0  0  0  0  0  0  0  0  0
  133.6720   74.0280  226.0570 C   0  0  0  0  0  0  0  0  0  0  0  0
  132.7910   73.3860  226.9160 C   0  0  0  0  0  0  0  0  0  0  0  0
  132.8030   71.9860  226.9740 C   0  0  0  0  0  0  0  0  0  0  0  0
  133.6540   71.2380  226.2110 C   0  0  0  0  0  0  0  0  0  0  0  0
  134.5390   71.8790  225.3480 C   0  0  0  0  0  0  0  0  0  0  0  0
  134.5310   73.2630  225.2900 C   0  0  0  0  0  0  0  0  0  0  0  0
  135.3840   73.9020  224.4570 N   0  0  0  0  0  0  0  0  0  0  0  0
  137.2900   74.1710  222.8920 H   0  0  0  0  0  0  0  0  0  0  0  0
  137.6815   76.0151  220.9245 H   0  0  0  0  0  0  0  0  0  0  0  0
  138.3229   76.8653  222.4870 H   0  0  0  0  0  0  0  0  0  0  0  0
  142.2004   74.6578  221.0548 H   0  0  0  0  0  0  0  0  0  0  0  0
  141.7475   73.1692  221.8174 H   0  0  0  0  0  0  0  0  0  0  0  0
  141.2118   73.9407  218.7982 H   0  0  0  0  0  0  0  0  0  0  0  0
  142.3051   72.7008  219.2418 H   0  0  0  0  0  0  0  0  0  0  0  0
  139.7697   71.9199  218.9184 H   0  0  0  0  0  0  0  0  0  0  0  0
  140.3906   71.4262  220.4563 H   0  0  0  0  0  0  0  0  0  0  0  0
  138.6033   73.8646  219.7957 H   0  0  0  0  0  0  0  0  0  0  0  0
  140.5941   71.2188  222.0859 H   0  0  0  0  0  0  0  0  0  0  0  0
  140.1916   71.7477  223.7485 H   0  0  0  0  0  0  0  0  0  0  0  0
  139.1399   69.1721  222.4620 H   0  0  0  0  0  0  0  0  0  0  0  0
  140.5932   69.2512  223.5182 H   0  0  0  0  0  0  0  0  0  0  0  0
  138.1624   68.7348  224.3538 H   0  0  0  0  0  0  0  0  0  0  0  0
  139.8890   71.5770  225.9458 H   0  0  0  0  0  0  0  0  0  0  0  0
  141.0976   71.3725  228.0706 H   0  0  0  0  0  0  0  0  0  0  0  0
  141.4102   69.1705  229.1751 H   0  0  0  0  0  0  0  0  0  0  0  0
  140.4622   67.1529  228.0656 H   0  0  0  0  0  0  0  0  0  0  0  0
  139.2504   67.3525  225.9386 H   0  0  0  0  0  0  0  0  0  0  0  0
  136.9010   70.5365  225.1373 H   0  0  0  0  0  0  0  0  0  0  0  0
  138.2865   71.6731  225.0688 H   0  0  0  0  0  0  0  0  0  0  0  0
  136.9552   70.3657  222.6250 H   0  0  0  0  0  0  0  0  0  0  0  0
  136.6452   72.0402  223.1898 H   0  0  0  0  0  0  0  0  0  0  0  0
  134.5931   77.1496  225.0385 H   0  0  0  0  0  0  0  0  0  0  0  0
  132.9922   76.0025  226.6029 H   0  0  0  0  0  0  0  0  0  0  0  0
  132.0955   73.9660  227.5404 H   0  0  0  0  0  0  0  0  0  0  0  0
  132.1064   71.4741  227.6542 H   0  0  0  0  0  0  0  0  0  0  0  0
  133.6403   70.1401  226.2777 H   0  0  0  0  0  0  0  0  0  0  0  0
  135.2323   71.2966  224.7233 H   0  0  0  0  0  0  0  0  0  0  0  0
  1  2  2  0
  2  3  1  0
  3  4  1  0
  4  5  1  0
  5  6  2  0
  5  7  1  0
  7  8  1  0
  8  9  1  0
  9 10  1  0
 10 11  1  0
 11 12  1  0
 12 13  2  0
 12 14  1  0
 14 15  1  0
 15 16  1  0
 16 17  1  0
 17 18  1  0
 18 19  2  0
 19 20  1  0
 20 21  2  0
 21 22  1  0
 22 23  2  0
 17 24  1  0
 24 25  1  0
  2 26  1  0
 26 27  2  0
 27 28  1  0
 28 29  2  0
 29 30  1  0
 30 31  2  0
 31 32  1  0
 32 33  2  0
 33 34  1  0
 34 35  2  0
 11  7  1  0
 25 14  1  0
 35 26  1  0
 23 18  1  0
 34 29  1  0
  3 36  1  0
  4 37  1  0
  4 38  1  0
  8 39  1  0
  8 40  1  0
  9 41  1  0
  9 42  1  0
 10 43  1  0
 10 44  1  0
 11 45  1  6
 15 46  1  0
 15 47  1  0
 16 48  1  0
 16 49  1  0
 17 50  1  0
 19 51  1  0
 20 52  1  0
 21 53  1  0
 22 54  1  0
 23 55  1  0
 24 56  1  0
 24 57  1  0
 25 58  1  0
 25 59  1  0
 27 60  1  0
 28 61  1  0
 30 62  1  0
 31 63  1  0
 32 64  1  0
 33 65  1  0
M  END
>  <smiles>  (82) 
O=C(NCC(=O)N1CCCC1C(=O)N1CCC(c2ccccc2)CC1)c1ccc2ccccc2n1

>  <score_type>  (82) 
oracle

>  <origin>  (82) 
autodockgpu

>  <m_score__min__energy>  (82) 
-9.4900000000000002

>  <m_primary>  (82) 
energy

>  <rmsd>  (82) 
7.891467404948991

>  <m_score__min__rmsd>  (82) 
7.891467404948991

>  <meeko>  (82) 
{"free_energy": -7.87, "intermolecular_energy": -9.66, "internal_energy": -3.4, "cluster_size": 16, "cluster_id": 6, "rank_in_cluster": 16}

>  <energy>  (82) 
-8.2

>  <cluster_rmsd>  (82) 
0.54

>  <cluster>  (82) 
6

$$$$

     RDKit          3D

 65 69  0  0  1  0  0  0  0  0999 V2000
  140.3370   72.9070  222.6440 O   0  0  0  0  0  0  0  0  0  0  0  0
  139.9420   71.7220  222.9130 C   0  0  0  0  0  0  0  0  0  0  0  0
  139.2930   70.9810  221.8450 N   0  0  0  0  0  0  0  0  0  0  0  0
  139.1710   71.6670  220.6120 C   0  0  0  0  0  0  0  0  0  0  0  0
  140.2210   71.6280  219.6250 C   0  0  0  0  0  0  0  0  0  0  0  0
  139.7690   71.4100  218.4040 O   0  0  0  0  0  0  0  0  0  0  0  0
  141.6170   71.7700  219.6900 N   0  0  0  0  0  0  0  0  0  0  0  0
  142.7350   71.0070  219.2080 C   0  0  0  0  0  0  0  0  0  0  0  0
  143.7140   71.1610  220.4100 C   0  0  0  0  0  0  0  0  0  0  0  0
  143.7060   72.6720  220.4560 C   0  0  0  0  0  0  0  0  0  0  0  0
  142.2180   72.9250  220.3820 C   0  0  1  0  0  0  0  0  0  0  0  0
  142.0190   74.2290  219.7700 C   0  0  0  0  0  0  0  0  0  0  0  0
  142.1680   74.2080  218.4690 O   0  0  0  0  0  0  0  0  0  0  0  0
  141.7050   75.4740  220.3030 N   0  0  0  0  0  0  0  0  0  0  0  0
  141.4360   75.8350  221.6660 C   0  0  0  0  0  0  0  0  0  0  0  0
  140.3530   76.9070  221.6840 C   0  0  0  0  0  0  0  0  0  0  0  0
  140.8870   78.1680  221.1050 C   0  0  0  0  0  0  0  0  0  0  0  0
  141.3060   79.1710  222.0900 C   0  0  0  0  0  0  0  0  0  0  0  0
  140.3210   79.9570  222.7090 C   0  0  0  0  0  0  0  0  0  0  0  0
  140.6530   80.9170  223.6450 C   0  0  0  0  0  0  0  0  0  0  0  0
  141.9580   81.1540  224.0170 C   0  0  0  0  0  0  0  0  0  0  0  0
  142.9310   80.3930  223.4180 C   0  0  0  0  0  0  0  0  0  0  0  0
  142.5950   79.4270  222.4780 C   0  0  0  0  0  0  0  0  0  0  0  0
  141.9730   77.9120  220.0800 C   0  0  0  0  0  0  0  0  0  0  0  0
  141.6630   76.6060  219.3380 C   0  0  0  0  0  0  0  0  0  0  0  0
  140.1260   71.1200  224.2260 C   0  0  0  0  0  0  0  0  0  0  0  0
  140.7700   71.8860  225.1800 C   0  0  0  0  0  0  0  0  0  0  0  0
  140.9590   71.3150  226.4340 C   0  0  0  0  0  0  0  0  0  0  0  0
  140.5050   70.0290  226.6820 C   0  0  0  0  0  0  0  0  0  0  0  0
  140.6930   69.4560  227.9320 C   0  0  0  0  0  0  0  0  0  0  0  0
  140.2250   68.1540  228.1550 C   0  0  0  0  0  0  0  0  0  0  0  0
  139.5930   67.4350  227.1810 C   0  0  0  0  0  0  0  0  0  0  0  0
  139.4030   68.0080  225.9260 C   0  0  0  0  0  0  0  0  0  0  0  0
  139.8640   69.2940  225.7010 C   0  0  0  0  0  0  0  0  0  0  0  0
  139.6890   69.8650  224.4870 N   0  0  0  0  0  0  0  0  0  0  0  0
  138.9860   70.0460  222.1190 H   0  0  0  0  0  0  0  0  0  0  0  0
  138.2694   71.2697  220.1229 H   0  0  0  0  0  0  0  0  0  0  0  0
  139.1772   72.7216  220.9247 H   0  0  0  0  0  0  0  0  0  0  0  0
  142.4655   69.9547  219.0345 H   0  0  0  0  0  0  0  0  0  0  0  0
  143.1375   71.3401  218.2400 H   0  0  0  0  0  0  0  0  0  0  0  0
  143.3223   70.7091  221.3332 H   0  0  0  0  0  0  0  0  0  0  0  0
  144.6960   70.6750  220.3126 H   0  0  0  0  0  0  0  0  0  0  0  0
  144.1398   73.0549  221.3915 H   0  0  0  0  0  0  0  0  0  0  0  0
  144.3006   73.1640  219.6722 H   0  0  0  0  0  0  0  0  0  0  0  0
  141.7088   72.9875  221.3550 H   0  0  0  0  0  0  0  0  0  0  0  0
  141.0906   74.9507  222.2216 H   0  0  0  0  0  0  0  0  0  0  0  0
  142.3515   76.2198  222.1390 H   0  0  0  0  0  0  0  0  0  0  0  0
  139.4922   76.5673  221.0893 H   0  0  0  0  0  0  0  0  0  0  0  0
  140.0364   77.0879  222.7218 H   0  0  0  0  0  0  0  0  0  0  0  0
  140.0243   78.6151  220.5894 H   0  0  0  0  0  0  0  0  0  0  0  0
  139.2644   79.8054  222.4434 H   0  0  0  0  0  0  0  0  0  0  0  0
  139.8506   81.5105  224.1076 H   0  0  0  0  0  0  0  0  0  0  0  0
  142.2101   81.9216  224.7635 H   0  0  0  0  0  0  0  0  0  0  0  0
  143.9866   80.5496  223.6849 H   0  0  0  0  0  0  0  0  0  0  0  0
  143.4044   78.8379  222.0222 H   0  0  0  0  0  0  0  0  0  0  0  0
  142.0061   78.7449  219.3622 H   0  0  0  0  0  0  0  0  0  0  0  0
  142.9473   77.8303  220.5841 H   0  0  0  0  0  0  0  0  0  0  0  0
  140.6618   76.6679  218.8866 H   0  0  0  0  0  0  0  0  0  0  0  0
  142.4090   76.4446  218.5458 H   0  0  0  0  0  0  0  0  0  0  0  0
  141.1185   72.9051  224.9564 H   0  0  0  0  0  0  0  0  0  0  0  0
  141.4676   71.8826  227.2272 H   0  0  0  0  0  0  0  0  0  0  0  0
  141.2001   70.0137  228.7331 H   0  0  0  0  0  0  0  0  0  0  0  0
  140.3712   67.6971  229.1449 H   0  0  0  0  0  0  0  0  0  0  0  0
  139.2378   66.4142  227.3856 H   0  0  0  0  0  0  0  0  0  0  0  0
  138.8951   67.4482  225.1268 H   0  0  0  0  0  0  0  0  0  0  0  0
  1  2  2  0
  2  3  1  0
  3  4  1  0
  4  5  1  0
  5  6  2  0
  5  7  1  0
  7  8  1  0
  8  9  1  0
  9 10  1  0
 10 11  1  0
 11 12  1  0
 12 13  2  0
 12 14  1  0
 14 15  1  0
 15 16  1  0
 16 17  1  0
 17 18  1  0
 18 19  2  0
 19 20  1  0
 20 21  2  0
 21 22  1  0
 22 23  2  0
 17 24  1  0
 24 25  1  0
  2 26  1  0
 26 27  2  0
 27 28  1  0
 28 29  2  0
 29 30  1  0
 30 31  2  0
 31 32  1  0
 32 33  2  0
 33 34  1  0
 34 35  2  0
 11  7  1  0
 25 14  1  0
 35 26  1  0
 23 18  1  0
 34 29  1  0
  3 36  1  0
  4 37  1  0
  4 38  1  0
  8 39  1  0
  8 40  1  0
  9 41  1  0
  9 42  1  0
 10 43  1  0
 10 44  1  0
 11 45  1  1
 15 46  1  0
 15 47  1  0
 16 48  1  0
 16 49  1  0
 17 50  1  0
 19 51  1  0
 20 52  1  0
 21 53  1  0
 22 54  1  0
 23 55  1  0
 24 56  1  0
 24 57  1  0
 25 58  1  0
 25 59  1  0
 27 60  1  0
 28 61  1  0
 30 62  1  0
 31 63  1  0
 32 64  1  0
 33 65  1  0
M  END
>  <smiles>  (83) 
O=C(NCC(=O)N1CCCC1C(=O)N1CCC(c2ccccc2)CC1)c1ccc2ccccc2n1

>  <score_type>  (83) 
oracle

>  <origin>  (83) 
autodockgpu

>  <m_score__min__energy>  (83) 
-9.4900000000000002

>  <m_primary>  (83) 
energy

>  <rmsd>  (83) 
4.187450714472035

>  <m_score__min__rmsd>  (83) 
4.187450714472035

>  <meeko>  (83) 
{"free_energy": -9.22, "intermolecular_energy": -11.01, "internal_energy": -2.44, "cluster_size": 6, "cluster_id": 1, "rank_in_cluster": 5}

>  <energy>  (83) 
-8.2

>  <cluster_rmsd>  (83) 
0.53

>  <cluster>  (83) 
6

$$$$

     RDKit          3D

 65 69  0  0  1  0  0  0  0  0999 V2000
  135.1580   76.7610  224.2010 O   0  0  0  0  0  0  0  0  0  0  0  0
  135.5710   75.5580  224.0680 C   0  0  0  0  0  0  0  0  0  0  0  0
  136.6900   75.3360  223.1690 N   0  0  0  0  0  0  0  0  0  0  0  0
  137.2020   76.4940  222.5340 C   0  0  0  0  0  0  0  0  0  0  0  0
  138.6160   76.6610  222.3060 C   0  0  0  0  0  0  0  0  0  0  0  0
  139.0510   77.8630  222.6360 O   0  0  0  0  0  0  0  0  0  0  0  0
  139.6220   75.8170  221.8050 N   0  0  0  0  0  0  0  0  0  0  0  0
  141.0510   75.7540  221.9450 C   0  0  0  0  0  0  0  0  0  0  0  0
  141.4540   75.3560  220.4940 C   0  0  0  0  0  0  0  0  0  0  0  0
  140.5790   74.1260  220.3960 C   0  0  0  0  0  0  0  0  0  0  0  0
  139.2780   74.6910  220.9190 C   0  0  1  0  0  0  0  0  0  0  0  0
  138.5250   73.5980  221.5120 C   0  0  0  0  0  0  0  0  0  0  0  0
  137.2860   73.5470  221.0910 O   0  0  0  0  0  0  0  0  0  0  0  0
  138.8720   72.6130  222.4290 N   0  0  0  0  0  0  0  0  0  0  0  0
  140.1410   72.3580  223.0500 C   0  0  0  0  0  0  0  0  0  0  0  0
  140.3180   70.8520  223.2010 C   0  0  0  0  0  0  0  0  0  0  0  0
  139.3480   70.3320  224.2010 C   0  0  0  0  0  0  0  0  0  0  0  0
  139.9030   70.1070  225.5410 C   0  0  0  0  0  0  0  0  0  0  0  0
  140.4330   71.2020  226.2410 C   0  0  0  0  0  0  0  0  0  0  0  0
  140.9680   71.0540  227.5060 C   0  0  0  0  0  0  0  0  0  0  0  0
  141.0110   69.8330  228.1420 C   0  0  0  0  0  0  0  0  0  0  0  0
  140.4960   68.7530  227.4680 C   0  0  0  0  0  0  0  0  0  0  0  0
  139.9570   68.9050  226.1970 C   0  0  0  0  0  0  0  0  0  0  0  0
  138.0840   71.1640  224.2590 C   0  0  0  0  0  0  0  0  0  0  0  0
  137.7740   71.7020  222.8560 C   0  0  0  0  0  0  0  0  0  0  0  0
  134.9600   74.4440  224.7790 C   0  0  0  0  0  0  0  0  0  0  0  0
  134.0690   74.7590  225.7880 C   0  0  0  0  0  0  0  0  0  0  0  0
  133.4900   73.7000  226.4800 C   0  0  0  0  0  0  0  0  0  0  0  0
  133.8140   72.3950  226.1420 C   0  0  0  0  0  0  0  0  0  0  0  0
  133.2370   71.3370  226.8310 C   0  0  0  0  0  0  0  0  0  0  0  0
  133.5840   70.0280  226.4700 C   0  0  0  0  0  0  0  0  0  0  0  0
  134.4710   69.7650  225.4640 C   0  0  0  0  0  0  0  0  0  0  0  0
  135.0500   70.8260  224.7710 C   0  0  0  0  0  0  0  0  0  0  0  0
  134.7100   72.1200  225.1260 C   0  0  0  0  0  0  0  0  0  0  0  0
  135.2650   73.1620  224.4640 N   0  0  0  0  0  0  0  0  0  0  0  0
  136.9690   74.3570  223.0910 H   0  0  0  0  0  0  0  0  0  0  0  0
  136.7193   76.5467  221.5469 H   0  0  0  0  0  0  0  0  0  0  0  0
  136.9840   77.2841  223.2677 H   0  0  0  0  0  0  0  0  0  0  0  0
  141.4752   76.7272  222.2331 H   0  0  0  0  0  0  0  0  0  0  0  0
  141.4077   75.0678  222.7272 H   0  0  0  0  0  0  0  0  0  0  0  0
  141.1842   76.1253  219.7555 H   0  0  0  0  0  0  0  0  0  0  0  0
  142.5276   75.2154  220.3002 H   0  0  0  0  0  0  0  0  0  0  0  0
  140.4838   73.7737  219.3583 H   0  0  0  0  0  0  0  0  0  0  0  0
  140.9538   73.2449  220.9375 H   0  0  0  0  0  0  0  0  0  0  0  0
  138.6109   75.1095  220.1510 H   0  0  0  0  0  0  0  0  0  0  0  0
  140.9482   72.7644  222.4229 H   0  0  0  0  0  0  0  0  0  0  0  0
  140.1782   72.8404  224.0379 H   0  0  0  0  0  0  0  0  0  0  0  0
  140.1408   70.3638  222.2313 H   0  0  0  0  0  0  0  0  0  0  0  0
  141.3421   70.6374  223.5405 H   0  0  0  0  0  0  0  0  0  0  0  0
  139.0854   69.3314  223.8270 H   0  0  0  0  0  0  0  0  0  0  0  0
  140.4222   72.1975  225.7732 H   0  0  0  0  0  0  0  0  0  0  0  0
  141.3719   71.9381  228.0210 H   0  0  0  0  0  0  0  0  0  0  0  0
  141.4405   69.7272  229.1491 H   0  0  0  0  0  0  0  0  0  0  0  0
  140.5105   67.7590  227.9388 H   0  0  0  0  0  0  0  0  0  0  0  0
  139.5530   68.0156  225.6914 H   0  0  0  0  0  0  0  0  0  0  0  0
  137.2478   70.5402  224.6076 H   0  0  0  0  0  0  0  0  0  0  0  0
  138.2238   72.0035  224.9559 H   0  0  0  0  0  0  0  0  0  0  0  0
  137.6957   70.8630  222.1489 H   0  0  0  0  0  0  0  0  0  0  0  0
  136.8217   72.2523  222.8725 H   0  0  0  0  0  0  0  0  0  0  0  0
  133.8278   75.8038  226.0335 H   0  0  0  0  0  0  0  0  0  0  0  0
  132.7766   73.8977  227.2936 H   0  0  0  0  0  0  0  0  0  0  0  0
  132.5208   71.5225  227.6451 H   0  0  0  0  0  0  0  0  0  0  0  0
  133.1286   69.1866  227.0129 H   0  0  0  0  0  0  0  0  0  0  0  0
  134.7250   68.7267  225.2042 H   0  0  0  0  0  0  0  0  0  0  0  0
  135.7647   70.6387  223.9561 H   0  0  0  0  0  0  0  0  0  0  0  0
  1  2  2  0
  2  3  1  0
  3  4  1  0
  4  5  1  0
  5  6  2  0
  5  7  1  0
  7  8  1  0
  8  9  1  0
  9 10  1  0
 10 11  1  0
 11 12  1  0
 12 13  2  0
 12 14  1  0
 14 15  1  0
 15 16  1  0
 16 17  1  0
 17 18  1  0
 18 19  2  0
 19 20  1  0
 20 21  2  0
 21 22  1  0
 22 23  2  0
 17 24  1  0
 24 25  1  0
  2 26  1  0
 26 27  2  0
 27 28  1  0
 28 29  2  0
 29 30  1  0
 30 31  2  0
 31 32  1  0
 32 33  2  0
 33 34  1  0
 34 35  2  0
 11  7  1  0
 25 14  1  0
 35 26  1  0
 23 18  1  0
 34 29  1  0
  3 36  1  0
  4 37  1  0
  4 38  1  0
  8 39  1  0
  8 40  1  0
  9 41  1  0
  9 42  1  0
 10 43  1  0
 10 44  1  0
 11 45  1  6
 15 46  1  0
 15 47  1  0
 16 48  1  0
 16 49  1  0
 17 50  1  0
 19 51  1  0
 20 52  1  0
 21 53  1  0
 22 54  1  0
 23 55  1  0
 24 56  1  0
 24 57  1  0
 25 58  1  0
 25 59  1  0
 27 60  1  0
 28 61  1  0
 30 62  1  0
 31 63  1  0
 32 64  1  0
 33 65  1  0
M  END
>  <smiles>  (84) 
O=C(NCC(=O)N1CCCC1C(=O)N1CCC(c2ccccc2)CC1)c1ccc2ccccc2n1

>  <score_type>  (84) 
oracle

>  <origin>  (84) 
autodockgpu

>  <m_score__min__energy>  (84) 
-9.4900000000000002

>  <m_primary>  (84) 
energy

>  <rmsd>  (84) 
7.387040401057842

>  <m_score__min__rmsd>  (84) 
7.387040401057842

>  <meeko>  (84) 
{"free_energy": -8.27, "intermolecular_energy": -10.06, "internal_energy": -3.49, "cluster_size": 16, "cluster_id": 6, "rank_in_cluster": 1}

>  <energy>  (84) 
-8.16

>  <cluster_rmsd>  (84) 
0.33

>  <cluster>  (84) 
6

$$$$

     RDKit          3D

 65 69  0  0  1  0  0  0  0  0999 V2000
  135.4470   77.1100  223.8440 O   0  0  0  0  0  0  0  0  0  0  0  0
  135.7990   75.8820  223.8850 C   0  0  0  0  0  0  0  0  0  0  0  0
  136.9510   75.4950  223.0890 N   0  0  0  0  0  0  0  0  0  0  0  0
  137.5600   76.5390  222.3490 C   0  0  0  0  0  0  0  0  0  0  0  0
  138.9640   76.5080  222.0250 C   0  0  0  0  0  0  0  0  0  0  0  0
  139.5680   77.6600  222.2500 O   0  0  0  0  0  0  0  0  0  0  0  0
  139.8200   75.5140  221.5200 N   0  0  0  0  0  0  0  0  0  0  0  0
  141.2350   75.2690  221.5850 C   0  0  0  0  0  0  0  0  0  0  0  0
  141.4920   74.7480  220.1400 C   0  0  0  0  0  0  0  0  0  0  0  0
  140.4600   73.6420  220.1610 C   0  0  0  0  0  0  0  0  0  0  0  0
  139.2790   74.4000  220.7210 C   0  0  1  0  0  0  0  0  0  0  0  0
  138.4290   73.4480  221.4170 C   0  0  0  0  0  0  0  0  0  0  0  0
  137.1600   73.5960  221.1300 O   0  0  0  0  0  0  0  0  0  0  0  0
  138.7100   72.4260  222.3160 N   0  0  0  0  0  0  0  0  0  0  0  0
  139.9820   71.9730  222.8040 C   0  0  0  0  0  0  0  0  0  0  0  0
  139.9300   70.4600  222.9730 C   0  0  0  0  0  0  0  0  0  0  0  0
  139.0040   70.1100  224.0830 C   0  0  0  0  0  0  0  0  0  0  0  0
  139.6570   69.8080  225.3610 C   0  0  0  0  0  0  0  0  0  0  0  0
  139.6350   68.4850  225.8300 C   0  0  0  0  0  0  0  0  0  0  0  0
  140.2320   68.1380  227.0260 C   0  0  0  0  0  0  0  0  0  0  0  0
  140.8770   69.0650  227.8160 C   0  0  0  0  0  0  0  0  0  0  0  0
  140.9060   70.3620  227.3690 C   0  0  0  0  0  0  0  0  0  0  0  0
  140.3050   70.7080  226.1650 C   0  0  0  0  0  0  0  0  0  0  0  0
  137.9030   71.1370  224.2530 C   0  0  0  0  0  0  0  0  0  0  0  0
  137.5340   71.7080  222.8790 C   0  0  0  0  0  0  0  0  0  0  0  0
  135.0910   74.8960  224.6890 C   0  0  0  0  0  0  0  0  0  0  0  0
  134.2410   75.3800  225.6670 C   0  0  0  0  0  0  0  0  0  0  0  0
  133.5690   74.4440  226.4460 C   0  0  0  0  0  0  0  0  0  0  0  0
  133.7650   73.0910  226.2230 C   0  0  0  0  0  0  0  0  0  0  0  0
  133.0960   72.1550  226.9990 C   0  0  0  0  0  0  0  0  0  0  0  0
  133.3140   70.7930  226.7530 C   0  0  0  0  0  0  0  0  0  0  0  0
  134.1640   70.3610  225.7740 C   0  0  0  0  0  0  0  0  0  0  0  0
  134.8360   71.2980  224.9930 C   0  0  0  0  0  0  0  0  0  0  0  0
  134.6240   72.6450  225.2340 C   0  0  0  0  0  0  0  0  0  0  0  0
  135.2700   73.5690  224.4860 N   0  0  0  0  0  0  0  0  0  0  0  0
  137.1800   74.5020  223.1480 H   0  0  0  0  0  0  0  0  0  0  0  0
  137.0211   76.5972  221.3918 H   0  0  0  0  0  0  0  0  0  0  0  0
  137.4941   77.3913  223.0412 H   0  0  0  0  0  0  0  0  0  0  0  0
  141.7988   76.1906  221.7920 H   0  0  0  0  0  0  0  0  0  0  0  0
  141.5478   74.5821  222.3853 H   0  0  0  0  0  0  0  0  0  0  0  0
  141.2796   75.5082  219.3739 H   0  0  0  0  0  0  0  0  0  0  0  0
  142.5242   74.4558  219.8967 H   0  0  0  0  0  0  0  0  0  0  0  0
  140.2557   73.2544  219.1520 H   0  0  0  0  0  0  0  0  0  0  0  0
  140.7500   72.7469  220.7309 H   0  0  0  0  0  0  0  0  0  0  0  0
  138.6256   74.8642  219.9676 H   0  0  0  0  0  0  0  0  0  0  0  0
  140.7703   72.2381  222.0841 H   0  0  0  0  0  0  0  0  0  0  0  0
  140.2044   72.4504  223.7697 H   0  0  0  0  0  0  0  0  0  0  0  0
  139.5723   70.0001  222.0400 H   0  0  0  0  0  0  0  0  0  0  0  0
  140.9372   70.0853  223.2077 H   0  0  0  0  0  0  0  0  0  0  0  0
  138.5464   69.1616  223.7648 H   0  0  0  0  0  0  0  0  0  0  0  0
  139.1324   67.7096  225.2332 H   0  0  0  0  0  0  0  0  0  0  0  0
  140.1915   67.0901  227.3581 H   0  0  0  0  0  0  0  0  0  0  0  0
  141.3495   68.7767  228.7666 H   0  0  0  0  0  0  0  0  0  0  0  0
  141.4094   71.1344  227.9690 H   0  0  0  0  0  0  0  0  0  0  0  0
  140.3519   71.7581  225.8410 H   0  0  0  0  0  0  0  0  0  0  0  0
  137.0200   70.6595  224.7028 H   0  0  0  0  0  0  0  0  0  0  0  0
  138.2503   71.9477  224.9104 H   0  0  0  0  0  0  0  0  0  0  0  0
  137.2463   70.8878  222.2048 H   0  0  0  0  0  0  0  0  0  0  0  0
  136.6899   72.4056  222.9831 H   0  0  0  0  0  0  0  0  0  0  0  0
  134.1023   76.4601  225.8222 H   0  0  0  0  0  0  0  0  0  0  0  0
  132.8827   74.7778  227.2382 H   0  0  0  0  0  0  0  0  0  0  0  0
  132.4065   72.4768  227.7934 H   0  0  0  0  0  0  0  0  0  0  0  0
  132.7849   70.0489  227.3665 H   0  0  0  0  0  0  0  0  0  0  0  0
  134.3158   69.2848  225.6047 H   0  0  0  0  0  0  0  0  0  0  0  0
  135.5236   70.9735  224.1981 H   0  0  0  0  0  0  0  0  0  0  0  0
  1  2  2  0
  2  3  1  0
  3  4  1  0
  4  5  1  0
  5  6  2  0
  5  7  1  0
  7  8  1  0
  8  9  1  0
  9 10  1  0
 10 11  1  0
 11 12  1  0
 12 13  2  0
 12 14  1  0
 14 15  1  0
 15 16  1  0
 16 17  1  0
 17 18  1  0
 18 19  2  0
 19 20  1  0
 20 21  2  0
 21 22  1  0
 22 23  2  0
 17 24  1  0
 24 25  1  0
  2 26  1  0
 26 27  2  0
 27 28  1  0
 28 29  2  0
 29 30  1  0
 30 31  2  0
 31 32  1  0
 32 33  2  0
 33 34  1  0
 34 35  2  0
 11  7  1  0
 25 14  1  0
 35 26  1  0
 23 18  1  0
 34 29  1  0
  3 36  1  0
  4 37  1  0
  4 38  1  0
  8 39  1  0
  8 40  1  0
  9 41  1  0
  9 42  1  0
 10 43  1  0
 10 44  1  0
 11 45  1  6
 15 46  1  0
 15 47  1  0
 16 48  1  0
 16 49  1  0
 17 50  1  0
 19 51  1  0
 20 52  1  0
 21 53  1  0
 22 54  1  0
 23 55  1  0
 24 56  1  0
 24 57  1  0
 25 58  1  0
 25 59  1  0
 27 60  1  0
 28 61  1  0
 30 62  1  0
 31 63  1  0
 32 64  1  0
 33 65  1  0
M  END
>  <smiles>  (85) 
O=C(NCC(=O)N1CCCC1C(=O)N1CCC(c2ccccc2)CC1)c1ccc2ccccc2n1

>  <score_type>  (85) 
oracle

>  <origin>  (85) 
autodockgpu

>  <m_score__min__energy>  (85) 
-9.4900000000000002

>  <m_primary>  (85) 
energy

>  <rmsd>  (85) 
7.894748533619106

>  <m_score__min__rmsd>  (85) 
7.894748533619106

>  <meeko>  (85) 
{"free_energy": -8.2, "intermolecular_energy": -9.99, "internal_energy": -3.37, "cluster_size": 16, "cluster_id": 6, "rank_in_cluster": 4}

>  <energy>  (85) 
-8.13

>  <cluster_rmsd>  (85) 
0.39

>  <cluster>  (85) 
6

$$$$

     RDKit          3D

 65 69  0  0  1  0  0  0  0  0999 V2000
  143.4930   74.6110  218.2910 O   0  0  0  0  0  0  0  0  0  0  0  0
  143.0870   75.5490  219.0570 C   0  0  0  0  0  0  0  0  0  0  0  0
  142.9220   75.2310  220.4650 N   0  0  0  0  0  0  0  0  0  0  0  0
  143.2350   73.8980  220.8300 C   0  0  0  0  0  0  0  0  0  0  0  0
  142.2460   72.8510  220.7640 C   0  0  0  0  0  0  0  0  0  0  0  0
  142.5600   71.9030  219.9000 O   0  0  0  0  0  0  0  0  0  0  0  0
  141.0250   72.6290  221.4230 N   0  0  0  0  0  0  0  0  0  0  0  0
  140.6480   72.2820  222.7650 C   0  0  0  0  0  0  0  0  0  0  0  0
  139.4690   71.3050  222.4770 C   0  0  0  0  0  0  0  0  0  0  0  0
  138.6620   72.2470  221.6110 C   0  0  0  0  0  0  0  0  0  0  0  0
  139.7510   72.7480  220.6900 C   0  0  1  0  0  0  0  0  0  0  0  0
  139.3760   74.0790  220.2420 C   0  0  0  0  0  0  0  0  0  0  0  0
  138.8510   74.0820  219.0420 O   0  0  0  0  0  0  0  0  0  0  0  0
  139.4710   75.3300  220.8410 N   0  0  0  0  0  0  0  0  0  0  0  0
  139.9500   75.6730  222.1500 C   0  0  0  0  0  0  0  0  0  0  0  0
  139.1100   76.8230  222.6920 C   0  0  0  0  0  0  0  0  0  0  0  0
  139.3800   78.0560  221.9050 C   0  0  0  0  0  0  0  0  0  0  0  0
  140.3130   78.9980  222.5320 C   0  0  0  0  0  0  0  0  0  0  0  0
  141.6140   78.5590  222.8260 C   0  0  0  0  0  0  0  0  0  0  0  0
  142.5380   79.4000  223.4160 C   0  0  0  0  0  0  0  0  0  0  0  0
  142.2350   80.7030  223.7440 C   0  0  0  0  0  0  0  0  0  0  0  0
  140.9670   81.1440  223.4620 C   0  0  0  0  0  0  0  0  0  0  0  0
  140.0390   80.2980  222.8680 C   0  0  0  0  0  0  0  0  0  0  0  0
  139.7830   77.7450  220.4770 C   0  0  0  0  0  0  0  0  0  0  0  0
  139.0410   76.4870  220.0100 C   0  0  0  0  0  0  0  0  0  0  0  0
  142.7970   76.8880  218.5620 C   0  0  0  0  0  0  0  0  0  0  0  0
  142.8210   77.0660  217.1910 C   0  0  0  0  0  0  0  0  0  0  0  0
  142.5560   78.3440  216.7110 C   0  0  0  0  0  0  0  0  0  0  0  0
  142.2810   79.3720  217.5990 C   0  0  0  0  0  0  0  0  0  0  0  0
  142.0160   80.6490  217.1230 C   0  0  0  0  0  0  0  0  0  0  0  0
  141.7420   81.6690  218.0430 C   0  0  0  0  0  0  0  0  0  0  0  0
  141.7290   81.4450  219.3900 C   0  0  0  0  0  0  0  0  0  0  0  0
  141.9940   80.1650  219.8710 C   0  0  0  0  0  0  0  0  0  0  0  0
  142.2660   79.1540  218.9650 C   0  0  0  0  0  0  0  0  0  0  0  0
  142.5260   77.9050  219.4150 N   0  0  0  0  0  0  0  0  0  0  0  0
  142.5830   76.0120  221.0280 H   0  0  0  0  0  0  0  0  0  0  0  0
  144.0646   73.5839  220.1796 H   0  0  0  0  0  0  0  0  0  0  0  0
  143.4195   73.9839  221.9110 H   0  0  0  0  0  0  0  0  0  0  0  0
  141.4681   71.7834  223.3025 H   0  0  0  0  0  0  0  0  0  0  0  0
  140.3918   73.1371  223.4078 H   0  0  0  0  0  0  0  0  0  0  0  0
  139.7910   70.4044  221.9336 H   0  0  0  0  0  0  0  0  0  0  0  0
  138.9570   70.8774  223.3517 H   0  0  0  0  0  0  0  0  0  0  0  0
  137.8708   71.7185  221.0591 H   0  0  0  0  0  0  0  0  0  0  0  0
  138.1187   73.0314  222.1583 H   0  0  0  0  0  0  0  0  0  0  0  0
  139.8834   72.1653  219.7665 H   0  0  0  0  0  0  0  0  0  0  0  0
  139.8602   74.8027  222.8168 H   0  0  0  0  0  0  0  0  0  0  0  0
  141.0066   75.9740  222.0954 H   0  0  0  0  0  0  0  0  0  0  0  0
  138.0435   76.5654  222.6134 H   0  0  0  0  0  0  0  0  0  0  0  0
  139.3710   76.9993  223.7459 H   0  0  0  0  0  0  0  0  0  0  0  0
  138.4138   78.5814  221.8853 H   0  0  0  0  0  0  0  0  0  0  0  0
  141.9030   77.5261  222.5820 H   0  0  0  0  0  0  0  0  0  0  0  0
  143.5467   79.0171  223.6304 H   0  0  0  0  0  0  0  0  0  0  0  0
  142.9795   81.3631  224.2130 H   0  0  0  0  0  0  0  0  0  0  0  0
  140.6823   82.1775  223.7086 H   0  0  0  0  0  0  0  0  0  0  0  0
  139.0337   80.6914  222.6567 H   0  0  0  0  0  0  0  0  0  0  0  0
  139.5183   78.5918  219.8267 H   0  0  0  0  0  0  0  0  0  0  0  0
  140.8687   77.5756  220.4264 H   0  0  0  0  0  0  0  0  0  0  0  0
  137.9568   76.6368  220.1203 H   0  0  0  0  0  0  0  0  0  0  0  0
  139.2744   76.2906  218.9531 H   0  0  0  0  0  0  0  0  0  0  0  0
  143.0405   76.2317  216.5086 H   0  0  0  0  0  0  0  0  0  0  0  0
  142.5646   78.5387  215.6284 H   0  0  0  0  0  0  0  0  0  0  0  0
  142.0211   80.8560  216.0427 H   0  0  0  0  0  0  0  0  0  0  0  0
  141.5308   82.6817  217.6689 H   0  0  0  0  0  0  0  0  0  0  0  0
  141.5115   82.2669  220.0879 H   0  0  0  0  0  0  0  0  0  0  0  0
  141.9873   79.9609  220.9519 H   0  0  0  0  0  0  0  0  0  0  0  0
  1  2  2  0
  2  3  1  0
  3  4  1  0
  4  5  1  0
  5  6  2  0
  5  7  1  0
  7  8  1  0
  8  9  1  0
  9 10  1  0
 10 11  1  0
 11 12  1  0
 12 13  2  0
 12 14  1  0
 14 15  1  0
 15 16  1  0
 16 17  1  0
 17 18  1  0
 18 19  2  0
 19 20  1  0
 20 21  2  0
 21 22  1  0
 22 23  2  0
 17 24  1  0
 24 25  1  0
  2 26  1  0
 26 27  2  0
 27 28  1  0
 28 29  2  0
 29 30  1  0
 30 31  2  0
 31 32  1  0
 32 33  2  0
 33 34  1  0
 34 35  2  0
 11  7  1  0
 25 14  1  0
 35 26  1  0
 23 18  1  0
 34 29  1  0
  3 36  1  0
  4 37  1  0
  4 38  1  0
  8 39  1  0
  8 40  1  0
  9 41  1  0
  9 42  1  0
 10 43  1  0
 10 44  1  0
 11 45  1  6
 15 46  1  0
 15 47  1  0
 16 48  1  0
 16 49  1  0
 17 50  1  0
 19 51  1  0
 20 52  1  0
 21 53  1  0
 22 54  1  0
 23 55  1  0
 24 56  1  0
 24 57  1  0
 25 58  1  0
 25 59  1  0
 27 60  1  0
 28 61  1  0
 30 62  1  0
 31 63  1  0
 32 64  1  0
 33 65  1  0
M  END
>  <smiles>  (86) 
O=C(NCC(=O)N1CCCC1C(=O)N1CCC(c2ccccc2)CC1)c1ccc2ccccc2n1

>  <score_type>  (86) 
oracle

>  <origin>  (86) 
autodockgpu

>  <m_score__min__energy>  (86) 
-9.4900000000000002

>  <m_primary>  (86) 
energy

>  <rmsd>  (86) 
8.34170805581423

>  <m_score__min__rmsd>  (86) 
8.34170805581423

>  <meeko>  (86) 
{"free_energy": -6.79, "intermolecular_energy": -8.58, "internal_energy": -3.95, "cluster_size": 13, "cluster_id": 4, "rank_in_cluster": 13}

>  <energy>  (86) 
-8.13

>  <cluster_rmsd>  (86) 
0.35

>  <cluster>  (86) 
6

$$$$

     RDKit          3D

 65 69  0  0  1  0  0  0  0  0999 V2000
  138.9950   75.1370  221.9180 O   0  0  0  0  0  0  0  0  0  0  0  0
  140.1170   75.7460  221.9790 C   0  0  0  0  0  0  0  0  0  0  0  0
  141.3000   74.9960  221.5920 N   0  0  0  0  0  0  0  0  0  0  0  0
  141.0700   73.6580  221.1880 C   0  0  0  0  0  0  0  0  0  0  0  0
  142.1530   72.8040  220.7690 C   0  0  0  0  0  0  0  0  0  0  0  0
  141.7610   71.5720  220.5010 O   0  0  0  0  0  0  0  0  0  0  0  0
  143.5320   73.0060  220.5890 N   0  0  0  0  0  0  0  0  0  0  0  0
  144.6790   72.1440  220.5110 C   0  0  0  0  0  0  0  0  0  0  0  0
  145.7200   72.9970  221.2950 C   0  0  0  0  0  0  0  0  0  0  0  0
  145.5770   74.2570  220.4720 C   0  0  0  0  0  0  0  0  0  0  0  0
  144.0710   74.3690  220.4280 C   0  0  1  0  0  0  0  0  0  0  0  0
  143.7120   75.0740  219.2090 C   0  0  0  0  0  0  0  0  0  0  0  0
  144.0780   74.4340  218.1260 O   0  0  0  0  0  0  0  0  0  0  0  0
  143.0640   76.2830  218.9830 N   0  0  0  0  0  0  0  0  0  0  0  0
  142.5020   77.2010  219.9330 C   0  0  0  0  0  0  0  0  0  0  0  0
  141.2350   77.8030  219.3400 C   0  0  0  0  0  0  0  0  0  0  0  0
  141.5860   78.6830  218.1940 C   0  0  0  0  0  0  0  0  0  0  0  0
  141.6180   80.1170  218.5030 C   0  0  0  0  0  0  0  0  0  0  0  0
  142.1570   80.9970  217.5510 C   0  0  0  0  0  0  0  0  0  0  0  0
  142.2150   82.3570  217.7840 C   0  0  0  0  0  0  0  0  0  0  0  0
  141.7500   82.9180  218.9530 C   0  0  0  0  0  0  0  0  0  0  0  0
  141.2210   82.0690  219.8920 C   0  0  0  0  0  0  0  0  0  0  0  0
  141.1630   80.7010  219.6560 C   0  0  0  0  0  0  0  0  0  0  0  0
  142.8580   78.2380  217.5000 C   0  0  0  0  0  0  0  0  0  0  0  0
  142.9520   76.7090  217.5610 C   0  0  0  0  0  0  0  0  0  0  0  0
  140.2280   77.1310  222.4120 C   0  0  0  0  0  0  0  0  0  0  0  0
  139.0460   77.8150  222.6300 C   0  0  0  0  0  0  0  0  0  0  0  0
  139.1430   79.1420  223.0340 C   0  0  0  0  0  0  0  0  0  0  0  0
  140.3910   79.7230  223.2020 C   0  0  0  0  0  0  0  0  0  0  0  0
  140.4910   81.0480  223.6050 C   0  0  0  0  0  0  0  0  0  0  0  0
  141.7640   81.6100  223.7660 C   0  0  0  0  0  0  0  0  0  0  0  0
  142.9050   80.8940  223.5390 C   0  0  0  0  0  0  0  0  0  0  0  0
  142.8080   79.5650  223.1350 C   0  0  0  0  0  0  0  0  0  0  0  0
  141.5510   79.0060  222.9740 C   0  0  0  0  0  0  0  0  0  0  0  0
  141.4380   77.7160  222.5820 N   0  0  0  0  0  0  0  0  0  0  0  0
  142.1690   75.5250  221.6720 H   0  0  0  0  0  0  0  0  0  0  0  0
  140.5885   73.1545  222.0393 H   0  0  0  0  0  0  0  0  0  0  0  0
  140.4947   73.7856  220.2592 H   0  0  0  0  0  0  0  0  0  0  0  0
  144.4949   71.1759  220.9998 H   0  0  0  0  0  0  0  0  0  0  0  0
  144.9821   71.8713  219.4894 H   0  0  0  0  0  0  0  0  0  0  0  0
  145.4359   73.1463  222.3471 H   0  0  0  0  0  0  0  0  0  0  0  0
  146.7333   72.5787  221.3856 H   0  0  0  0  0  0  0  0  0  0  0  0
  146.0369   75.1240  220.9688 H   0  0  0  0  0  0  0  0  0  0  0  0
  146.0693   74.2277  219.4888 H   0  0  0  0  0  0  0  0  0  0  0  0
  143.6259   74.9636  221.2394 H   0  0  0  0  0  0  0  0  0  0  0  0
  142.2579   76.6675  220.8635 H   0  0  0  0  0  0  0  0  0  0  0  0
  143.2261   77.9981  220.1574 H   0  0  0  0  0  0  0  0  0  0  0  0
  140.5749   76.9950  218.9916 H   0  0  0  0  0  0  0  0  0  0  0  0
  140.7192   78.3961  220.1096 H   0  0  0  0  0  0  0  0  0  0  0  0
  140.7481   78.5597  217.4921 H   0  0  0  0  0  0  0  0  0  0  0  0
  142.5404   80.5955  216.6014 H   0  0  0  0  0  0  0  0  0  0  0  0
  142.6457   83.0123  217.0125 H   0  0  0  0  0  0  0  0  0  0  0  0
  141.8008   84.0030  219.1267 H   0  0  0  0  0  0  0  0  0  0  0  0
  140.8393   82.4751  220.8404 H   0  0  0  0  0  0  0  0  0  0  0  0
  140.7302   80.0545  220.4336 H   0  0  0  0  0  0  0  0  0  0  0  0
  142.8386   78.5646  216.4498 H   0  0  0  0  0  0  0  0  0  0  0  0
  143.7299   78.6839  218.0010 H   0  0  0  0  0  0  0  0  0  0  0  0
  142.0494   76.2666  217.1142 H   0  0  0  0  0  0  0  0  0  0  0  0
  143.8369   76.3700  217.0024 H   0  0  0  0  0  0  0  0  0  0  0  0
  138.0691   77.3292  222.4896 H   0  0  0  0  0  0  0  0  0  0  0  0
  138.2319   79.7296  223.2199 H   0  0  0  0  0  0  0  0  0  0  0  0
  139.5870   81.6455  223.7944 H   0  0  0  0  0  0  0  0  0  0  0  0
  141.8474   82.6595  224.0848 H   0  0  0  0  0  0  0  0  0  0  0  0
  143.8909   81.3628  223.6741 H   0  0  0  0  0  0  0  0  0  0  0  0
  143.7136   78.9696  222.9470 H   0  0  0  0  0  0  0  0  0  0  0  0
  1  2  2  0
  2  3  1  0
  3  4  1  0
  4  5  1  0
  5  6  2  0
  5  7  1  0
  7  8  1  0
  8  9  1  0
  9 10  1  0
 10 11  1  0
 11 12  1  0
 12 13  2  0
 12 14  1  0
 14 15  1  0
 15 16  1  0
 16 17  1  0
 17 18  1  0
 18 19  2  0
 19 20  1  0
 20 21  2  0
 21 22  1  0
 22 23  2  0
 17 24  1  0
 24 25  1  0
  2 26  1  0
 26 27  2  0
 27 28  1  0
 28 29  2  0
 29 30  1  0
 30 31  2  0
 31 32  1  0
 32 33  2  0
 33 34  1  0
 34 35  2  0
 11  7  1  0
 25 14  1  0
 35 26  1  0
 23 18  1  0
 34 29  1  0
  3 36  1  0
  4 37  1  0
  4 38  1  0
  8 39  1  0
  8 40  1  0
  9 41  1  0
  9 42  1  0
 10 43  1  0
 10 44  1  0
 11 45  1  1
 15 46  1  0
 15 47  1  0
 16 48  1  0
 16 49  1  0
 17 50  1  0
 19 51  1  0
 20 52  1  0
 21 53  1  0
 22 54  1  0
 23 55  1  0
 24 56  1  0
 24 57  1  0
 25 58  1  0
 25 59  1  0
 27 60  1  0
 28 61  1  0
 30 62  1  0
 31 63  1  0
 32 64  1  0
 33 65  1  0
M  END
>  <smiles>  (87) 
O=C(NCC(=O)N1CCCC1C(=O)N1CCC(c2ccccc2)CC1)c1ccc2ccccc2n1

>  <score_type>  (87) 
oracle

>  <origin>  (87) 
autodockgpu

>  <m_score__min__energy>  (87) 
-9.4900000000000002

>  <m_primary>  (87) 
energy

>  <rmsd>  (87) 
7.131153049696866

>  <m_score__min__rmsd>  (87) 
7.131153049696866

>  <meeko>  (87) 
{"free_energy": -8.82, "intermolecular_energy": -10.61, "internal_energy": -3.51, "cluster_size": 13, "cluster_id": 4, "rank_in_cluster": 2}

>  <energy>  (87) 
-8.12

>  <cluster_rmsd>  (87) 
0.26

>  <cluster>  (87) 
6

$$$$

     RDKit          3D

 65 69  0  0  1  0  0  0  0  0999 V2000
  140.3410   73.4260  222.3610 O   0  0  0  0  0  0  0  0  0  0  0  0
  140.4130   72.1510  222.4100 C   0  0  0  0  0  0  0  0  0  0  0  0
  140.6830   71.4540  221.1650 N   0  0  0  0  0  0  0  0  0  0  0  0
  140.8360   72.2790  220.0240 C   0  0  0  0  0  0  0  0  0  0  0  0
  142.0860   72.3450  219.3080 C   0  0  0  0  0  0  0  0  0  0  0  0
  142.0080   71.8390  218.0910 O   0  0  0  0  0  0  0  0  0  0  0  0
  143.3630   72.8320  219.6330 N   0  0  0  0  0  0  0  0  0  0  0  0
  144.7070   72.4430  219.3060 C   0  0  0  0  0  0  0  0  0  0  0  0
  145.4100   72.7000  220.6710 C   0  0  0  0  0  0  0  0  0  0  0  0
  144.9830   74.1430  220.8250 C   0  0  0  0  0  0  0  0  0  0  0  0
  143.5120   74.0120  220.5030 C   0  0  1  0  0  0  0  0  0  0  0  0
  143.0620   75.2840  219.9620 C   0  0  0  0  0  0  0  0  0  0  0  0
  143.7090   75.6330  218.8780 O   0  0  0  0  0  0  0  0  0  0  0  0
  142.0870   76.1850  220.3760 N   0  0  0  0  0  0  0  0  0  0  0  0
  141.1790   76.0910  221.4840 C   0  0  0  0  0  0  0  0  0  0  0  0
  139.8460   76.7050  221.0760 C   0  0  0  0  0  0  0  0  0  0  0  0
  140.0030   78.1730  220.8990 C   0  0  0  0  0  0  0  0  0  0  0  0
  139.5510   78.9850  222.0340 C   0  0  0  0  0  0  0  0  0  0  0  0
  140.4930   79.7710  222.7150 C   0  0  0  0  0  0  0  0  0  0  0  0
  140.1280   80.5570  223.7910 C   0  0  0  0  0  0  0  0  0  0  0  0
  138.8300   80.6110  224.2490 C   0  0  0  0  0  0  0  0  0  0  0  0
  137.8980   79.8460  223.5920 C   0  0  0  0  0  0  0  0  0  0  0  0
  138.2680   79.0570  222.5100 C   0  0  0  0  0  0  0  0  0  0  0  0
  141.4080   78.5500  220.4740 C   0  0  0  0  0  0  0  0  0  0  0  0
  141.9770   77.4390  219.5830 C   0  0  0  0  0  0  0  0  0  0  0  0
  140.2380   71.4100  223.6510 C   0  0  0  0  0  0  0  0  0  0  0  0
  139.5550   70.2100  223.5720 C   0  0  0  0  0  0  0  0  0  0  0  0
  139.3740   69.5020  224.7550 C   0  0  0  0  0  0  0  0  0  0  0  0
  139.8740   70.0050  225.9450 C   0  0  0  0  0  0  0  0  0  0  0  0
  139.6950   69.3000  227.1270 C   0  0  0  0  0  0  0  0  0  0  0  0
  140.2100   69.8330  228.3160 C   0  0  0  0  0  0  0  0  0  0  0  0
  140.8800   71.0230  228.3450 C   0  0  0  0  0  0  0  0  0  0  0  0
  141.0610   71.7330  227.1600 C   0  0  0  0  0  0  0  0  0  0  0  0
  140.5530   71.2090  225.9830 C   0  0  0  0  0  0  0  0  0  0  0  0
  140.7200   71.8860  224.8240 N   0  0  0  0  0  0  0  0  0  0  0  0
  140.7170   70.4380  221.2590 H   0  0  0  0  0  0  0  0  0  0  0  0
  140.0786   71.9490  219.2977 H   0  0  0  0  0  0  0  0  0  0  0  0
  140.7511   73.2903  220.4484 H   0  0  0  0  0  0  0  0  0  0  0  0
  144.7643   71.3847  219.0115 H   0  0  0  0  0  0  0  0  0  0  0  0
  145.1473   72.9797  218.4527 H   0  0  0  0  0  0  0  0  0  0  0  0
  145.0197   72.0570  221.4737 H   0  0  0  0  0  0  0  0  0  0  0  0
  146.4902   72.4972  220.7160 H   0  0  0  0  0  0  0  0  0  0  0  0
  145.1465   74.5109  221.8487 H   0  0  0  0  0  0  0  0  0  0  0  0
  145.5341   74.8605  220.1993 H   0  0  0  0  0  0  0  0  0  0  0  0
  142.8612   73.8258  221.3701 H   0  0  0  0  0  0  0  0  0  0  0  0
  141.0328   75.0348  221.7543 H   0  0  0  0  0  0  0  0  0  0  0  0
  141.5894   76.6283  222.3517 H   0  0  0  0  0  0  0  0  0  0  0  0
  139.5115   76.2563  220.1290 H   0  0  0  0  0  0  0  0  0  0  0  0
  139.1002   76.5107  221.8609 H   0  0  0  0  0  0  0  0  0  0  0  0
  139.3145   78.4211  220.0778 H   0  0  0  0  0  0  0  0  0  0  0  0
  141.5425   79.7612  222.3857 H   0  0  0  0  0  0  0  0  0  0  0  0
  140.8975   81.1581  224.2975 H   0  0  0  0  0  0  0  0  0  0  0  0
  138.5514   81.2414  225.1063 H   0  0  0  0  0  0  0  0  0  0  0  0
  136.8497   79.8580  223.9251 H   0  0  0  0  0  0  0  0  0  0  0  0
  137.4915   78.4596  222.0099 H   0  0  0  0  0  0  0  0  0  0  0  0
  141.3819   79.4956  219.9126 H   0  0  0  0  0  0  0  0  0  0  0  0
  142.0436   78.6745  221.3631 H   0  0  0  0  0  0  0  0  0  0  0  0
  141.3070   77.2750  218.7261 H   0  0  0  0  0  0  0  0  0  0  0  0
  142.9713   77.7325  219.2154 H   0  0  0  0  0  0  0  0  0  0  0  0
  139.1709   69.8314  222.6133 H   0  0  0  0  0  0  0  0  0  0  0  0
  138.8343   68.5435  224.7459 H   0  0  0  0  0  0  0  0  0  0  0  0
  139.1583   68.3398  227.1303 H   0  0  0  0  0  0  0  0  0  0  0  0
  140.0706   69.2764  229.2545 H   0  0  0  0  0  0  0  0  0  0  0  0
  141.2726   71.4167  229.2942 H   0  0  0  0  0  0  0  0  0  0  0  0
  141.5980   72.6930  227.1593 H   0  0  0  0  0  0  0  0  0  0  0  0
  1  2  2  0
  2  3  1  0
  3  4  1  0
  4  5  1  0
  5  6  2  0
  5  7  1  0
  7  8  1  0
  8  9  1  0
  9 10  1  0
 10 11  1  0
 11 12  1  0
 12 13  2  0
 12 14  1  0
 14 15  1  0
 15 16  1  0
 16 17  1  0
 17 18  1  0
 18 19  2  0
 19 20  1  0
 20 21  2  0
 21 22  1  0
 22 23  2  0
 17 24  1  0
 24 25  1  0
  2 26  1  0
 26 27  2  0
 27 28  1  0
 28 29  2  0
 29 30  1  0
 30 31  2  0
 31 32  1  0
 32 33  2  0
 33 34  1  0
 34 35  2  0
 11  7  1  0
 25 14  1  0
 35 26  1  0
 23 18  1  0
 34 29  1  0
  3 36  1  0
  4 37  1  0
  4 38  1  0
  8 39  1  0
  8 40  1  0
  9 41  1  0
  9 42  1  0
 10 43  1  0
 10 44  1  0
 11 45  1  1
 15 46  1  0
 15 47  1  0
 16 48  1  0
 16 49  1  0
 17 50  1  0
 19 51  1  0
 20 52  1  0
 21 53  1  0
 22 54  1  0
 23 55  1  0
 24 56  1  0
 24 57  1  0
 25 58  1  0
 25 59  1  0
 27 60  1  0
 28 61  1  0
 30 62  1  0
 31 63  1  0
 32 64  1  0
 33 65  1  0
M  END
>  <smiles>  (88) 
O=C(NCC(=O)N1CCCC1C(=O)N1CCC(c2ccccc2)CC1)c1ccc2ccccc2n1

>  <score_type>  (88) 
oracle

>  <origin>  (88) 
autodockgpu

>  <m_score__min__energy>  (88) 
-9.4900000000000002

>  <m_primary>  (88) 
energy

>  <rmsd>  (88) 
3.917627650159191

>  <m_score__min__rmsd>  (88) 
3.917627650159191

>  <meeko>  (88) 
{"free_energy": -9.49, "intermolecular_energy": -11.28, "internal_energy": -2.01, "cluster_size": 6, "cluster_id": 1, "rank_in_cluster": 1}

>  <energy>  (88) 
-8.01

>  <cluster_rmsd>  (88) 
0.43

>  <cluster>  (88) 
6

$$$$

     RDKit          3D

 65 69  0  0  1  0  0  0  0  0999 V2000
  138.9940   75.2270  221.6540 O   0  0  0  0  0  0  0  0  0  0  0  0
  140.1210   75.7450  221.9650 C   0  0  0  0  0  0  0  0  0  0  0  0
  141.2970   74.9030  221.8320 N   0  0  0  0  0  0  0  0  0  0  0  0
  141.0560   73.5870  221.3670 C   0  0  0  0  0  0  0  0  0  0  0  0
  141.6720   73.0940  220.1600 C   0  0  0  0  0  0  0  0  0  0  0  0
  140.7920   72.7890  219.2230 O   0  0  0  0  0  0  0  0  0  0  0  0
  143.0040   72.8690  219.7740 N   0  0  0  0  0  0  0  0  0  0  0  0
  143.7740   71.7080  219.4240 C   0  0  0  0  0  0  0  0  0  0  0  0
  145.1310   72.0590  220.1030 C   0  0  0  0  0  0  0  0  0  0  0  0
  145.3200   73.4060  219.4400 C   0  0  0  0  0  0  0  0  0  0  0  0
  143.9460   73.9970  219.6580 C   0  0  1  0  0  0  0  0  0  0  0  0
  143.6980   74.9500  218.5890 C   0  0  0  0  0  0  0  0  0  0  0  0
  144.2070   74.5720  217.4430 O   0  0  0  0  0  0  0  0  0  0  0  0
  143.0300   76.1690  218.5580 N   0  0  0  0  0  0  0  0  0  0  0  0
  142.3300   76.8450  219.6130 C   0  0  0  0  0  0  0  0  0  0  0  0
  141.1130   77.5450  219.0210 C   0  0  0  0  0  0  0  0  0  0  0  0
  141.5540   78.6630  218.1450 C   0  0  0  0  0  0  0  0  0  0  0  0
  141.4940   79.9920  218.7610 C   0  0  0  0  0  0  0  0  0  0  0  0
  142.0350   81.0820  218.0610 C   0  0  0  0  0  0  0  0  0  0  0  0
  142.0070   82.3590  218.5890 C   0  0  0  0  0  0  0  0  0  0  0  0
  141.4520   82.6280  219.8210 C   0  0  0  0  0  0  0  0  0  0  0  0
  140.9200   81.5710  220.5160 C   0  0  0  0  0  0  0  0  0  0  0  0
  140.9480   80.2880  219.9830 C   0  0  0  0  0  0  0  0  0  0  0  0
  142.9120   78.4010  217.5250 C   0  0  0  0  0  0  0  0  0  0  0  0
  143.0600   76.8980  217.2610 C   0  0  0  0  0  0  0  0  0  0  0  0
  140.2420   77.1180  222.4330 C   0  0  0  0  0  0  0  0  0  0  0  0
  139.0670   77.7870  222.7210 C   0  0  0  0  0  0  0  0  0  0  0  0
  139.1750   79.1030  223.1590 C   0  0  0  0  0  0  0  0  0  0  0  0
  140.4250   79.6870  223.2910 C   0  0  0  0  0  0  0  0  0  0  0  0
  140.5350   81.0000  223.7280 C   0  0  0  0  0  0  0  0  0  0  0  0
  141.8110   81.5650  223.8510 C   0  0  0  0  0  0  0  0  0  0  0  0
  142.9460   80.8640  223.5560 C   0  0  0  0  0  0  0  0  0  0  0  0
  142.8380   79.5460  223.1180 C   0  0  0  0  0  0  0  0  0  0  0  0
  141.5780   78.9840  222.9940 C   0  0  0  0  0  0  0  0  0  0  0  0
  141.4550   77.7060  222.5690 N   0  0  0  0  0  0  0  0  0  0  0  0
  142.1660   75.3620  222.1070 H   0  0  0  0  0  0  0  0  0  0  0  0
  141.3685   72.9093  222.1751 H   0  0  0  0  0  0  0  0  0  0  0  0
  139.9910   73.6219  221.0941 H   0  0  0  0  0  0  0  0  0  0  0  0
  143.3364   70.7887  219.8403 H   0  0  0  0  0  0  0  0  0  0  0  0
  143.8379   71.5061  218.3446 H   0  0  0  0  0  0  0  0  0  0  0  0
  145.0476   72.1356  221.1972 H   0  0  0  0  0  0  0  0  0  0  0  0
  145.9465   71.3305  219.9834 H   0  0  0  0  0  0  0  0  0  0  0  0
  146.1033   73.9989  219.9349 H   0  0  0  0  0  0  0  0  0  0  0  0
  145.6472   73.3655  218.3906 H   0  0  0  0  0  0  0  0  0  0  0  0
  143.8309   74.5767  220.5858 H   0  0  0  0  0  0  0  0  0  0  0  0
  142.0057   76.1150  220.3693 H   0  0  0  0  0  0  0  0  0  0  0  0
  142.9921   77.5829  220.0896 H   0  0  0  0  0  0  0  0  0  0  0  0
  140.5293   76.8249  218.4287 H   0  0  0  0  0  0  0  0  0  0  0  0
  140.4907   77.9443  219.8354 H   0  0  0  0  0  0  0  0  0  0  0  0
  140.8048   78.6873  217.3400 H   0  0  0  0  0  0  0  0  0  0  0  0
  142.4900   80.9166  217.0733 H   0  0  0  0  0  0  0  0  0  0  0  0
  142.4411   83.1859  218.0078 H   0  0  0  0  0  0  0  0  0  0  0  0
  141.4360   83.6486  220.2309 H   0  0  0  0  0  0  0  0  0  0  0  0
  140.4673   81.7409  221.5040 H   0  0  0  0  0  0  0  0  0  0  0  0
  140.5098   79.4684  220.5715 H   0  0  0  0  0  0  0  0  0  0  0  0
  142.9967   78.9519  216.5766 H   0  0  0  0  0  0  0  0  0  0  0  0
  143.7040   78.7372  218.2104 H   0  0  0  0  0  0  0  0  0  0  0  0
  142.2313   76.5526  216.6254 H   0  0  0  0  0  0  0  0  0  0  0  0
  144.0146   76.7044  216.7498 H   0  0  0  0  0  0  0  0  0  0  0  0
  138.0875   77.2991  222.6085 H   0  0  0  0  0  0  0  0  0  0  0  0
  138.2696   79.6793  223.4002 H   0  0  0  0  0  0  0  0  0  0  0  0
  139.6369   81.5859  223.9731 H   0  0  0  0  0  0  0  0  0  0  0  0
  141.9020   82.6056  224.1959 H   0  0  0  0  0  0  0  0  0  0  0  0
  143.9342   81.3351  223.6632 H   0  0  0  0  0  0  0  0  0  0  0  0
  143.7377   78.9617  222.8748 H   0  0  0  0  0  0  0  0  0  0  0  0
  1  2  2  0
  2  3  1  0
  3  4  1  0
  4  5  1  0
  5  6  2  0
  5  7  1  0
  7  8  1  0
  8  9  1  0
  9 10  1  0
 10 11  1  0
 11 12  1  0
 12 13  2  0
 12 14  1  0
 14 15  1  0
 15 16  1  0
 16 17  1  0
 17 18  1  0
 18 19  2  0
 19 20  1  0
 20 21  2  0
 21 22  1  0
 22 23  2  0
 17 24  1  0
 24 25  1  0
  2 26  1  0
 26 27  2  0
 27 28  1  0
 28 29  2  0
 29 30  1  0
 30 31  2  0
 31 32  1  0
 32 33  2  0
 33 34  1  0
 34 35  2  0
 11  7  1  0
 25 14  1  0
 35 26  1  0
 23 18  1  0
 34 29  1  0
  3 36  1  0
  4 37  1  0
  4 38  1  0
  8 39  1  0
  8 40  1  0
  9 41  1  0
  9 42  1  0
 10 43  1  0
 10 44  1  0
 11 45  1  1
 15 46  1  0
 15 47  1  0
 16 48  1  0
 16 49  1  0
 17 50  1  0
 19 51  1  0
 20 52  1  0
 21 53  1  0
 22 54  1  0
 23 55  1  0
 24 56  1  0
 24 57  1  0
 25 58  1  0
 25 59  1  0
 27 60  1  0
 28 61  1  0
 30 62  1  0
 31 63  1  0
 32 64  1  0
 33 65  1  0
M  END
>  <smiles>  (89) 
O=C(NCC(=O)N1CCCC1C(=O)N1CCC(c2ccccc2)CC1)c1ccc2ccccc2n1

>  <score_type>  (89) 
oracle

>  <origin>  (89) 
autodockgpu

>  <m_score__min__energy>  (89) 
-9.4900000000000002

>  <m_primary>  (89) 
energy

>  <rmsd>  (89) 
7.037315589100254

>  <m_score__min__rmsd>  (89) 
7.037315589100254

>  <meeko>  (89) 
{"free_energy": -7.92, "intermolecular_energy": -9.71, "internal_energy": -3.72, "cluster_size": 13, "cluster_id": 4, "rank_in_cluster": 9}

>  <energy>  (89) 
-8.0

>  <cluster_rmsd>  (89) 
0.39

>  <cluster>  (89) 
6

$$$$

     RDKit          3D

 65 69  0  0  1  0  0  0  0  0999 V2000
  134.8980   76.3770  224.4750 O   0  0  0  0  0  0  0  0  0  0  0  0
  135.4070   75.2380  224.1960 C   0  0  0  0  0  0  0  0  0  0  0  0
  136.5230   75.2210  223.2660 N   0  0  0  0  0  0  0  0  0  0  0  0
  136.9240   76.4850  222.7700 C   0  0  0  0  0  0  0  0  0  0  0  0
  138.0660   76.6220  221.9010 C   0  0  0  0  0  0  0  0  0  0  0  0
  137.9880   77.6790  221.1130 O   0  0  0  0  0  0  0  0  0  0  0  0
  139.2390   75.8700  221.7170 N   0  0  0  0  0  0  0  0  0  0  0  0
  140.6070   76.0120  222.1320 C   0  0  0  0  0  0  0  0  0  0  0  0
  141.3390   75.5160  220.8500 C   0  0  0  0  0  0  0  0  0  0  0  0
  140.6410   74.1770  220.7510 C   0  0  0  0  0  0  0  0  0  0  0  0
  139.2070   74.6190  220.9390 C   0  0  1  0  0  0  0  0  0  0  0  0
  138.4720   73.5070  221.5180 C   0  0  0  0  0  0  0  0  0  0  0  0
  137.2370   73.4350  221.0890 O   0  0  0  0  0  0  0  0  0  0  0  0
  138.8320   72.5210  222.4300 N   0  0  0  0  0  0  0  0  0  0  0  0
  140.1020   72.2850  223.0560 C   0  0  0  0  0  0  0  0  0  0  0  0
  140.3070   70.7820  223.1960 C   0  0  0  0  0  0  0  0  0  0  0  0
  139.3420   70.2350  224.1860 C   0  0  0  0  0  0  0  0  0  0  0  0
  139.8930   70.0100  225.5270 C   0  0  0  0  0  0  0  0  0  0  0  0
  139.9210   68.7000  226.0300 C   0  0  0  0  0  0  0  0  0  0  0  0
  140.4280   68.4240  227.2860 C   0  0  0  0  0  0  0  0  0  0  0  0
  140.9280   69.4130  228.1040 C   0  0  0  0  0  0  0  0  0  0  0  0
  140.9050   70.6980  227.6240 C   0  0  0  0  0  0  0  0  0  0  0  0
  140.3960   70.9730  226.3610 C   0  0  0  0  0  0  0  0  0  0  0  0
  138.0610   71.0420  224.2420 C   0  0  0  0  0  0  0  0  0  0  0  0
  137.7500   71.5860  222.8430 C   0  0  0  0  0  0  0  0  0  0  0  0
  134.9060   73.9990  224.7740 C   0  0  0  0  0  0  0  0  0  0  0  0
  134.1330   74.1090  225.9150 C   0  0  0  0  0  0  0  0  0  0  0  0
  133.6600   72.9300  226.4800 C   0  0  0  0  0  0  0  0  0  0  0  0
  133.9670   71.7120  225.8940 C   0  0  0  0  0  0  0  0  0  0  0  0
  133.4960   70.5330  226.4550 C   0  0  0  0  0  0  0  0  0  0  0  0
  133.8230   69.3160  225.8430 C   0  0  0  0  0  0  0  0  0  0  0  0
  134.5900   69.2570  224.7140 C   0  0  0  0  0  0  0  0  0  0  0  0
  135.0640   70.4380  224.1490 C   0  0  0  0  0  0  0  0  0  0  0  0
  134.7430   71.6430  224.7510 C   0  0  0  0  0  0  0  0  0  0  0  0
  135.1960   72.8000  224.2160 N   0  0  0  0  0  0  0  0  0  0  0  0
  136.8810   74.2860  223.0680 H   0  0  0  0  0  0  0  0  0  0  0  0
  136.0629   76.8900  222.2182 H   0  0  0  0  0  0  0  0  0  0  0  0
  137.2550   77.0042  223.6815 H   0  0  0  0  0  0  0  0  0  0  0  0
  140.8556   77.0582  222.3637 H   0  0  0  0  0  0  0  0  0  0  0  0
  140.8683   75.4676  223.0514 H   0  0  0  0  0  0  0  0  0  0  0  0
  141.1445   76.1582  219.9784 H   0  0  0  0  0  0  0  0  0  0  0  0
  142.4383   75.4987  220.8843 H   0  0  0  0  0  0  0  0  0  0  0  0
  140.7983   73.7054  219.7698 H   0  0  0  0  0  0  0  0  0  0  0  0
  140.9906   73.4165  221.4647 H   0  0  0  0  0  0  0  0  0  0  0  0
  138.6695   74.8604  220.0101 H   0  0  0  0  0  0  0  0  0  0  0  0
  140.9047   72.7118  222.4367 H   0  0  0  0  0  0  0  0  0  0  0  0
  140.1244   72.7598  224.0480 H   0  0  0  0  0  0  0  0  0  0  0  0
  140.1447   70.2984  222.2214 H   0  0  0  0  0  0  0  0  0  0  0  0
  141.3331   70.5846  223.5398 H   0  0  0  0  0  0  0  0  0  0  0  0
  139.1016   69.2321  223.8033 H   0  0  0  0  0  0  0  0  0  0  0  0
  139.5319   67.8769  225.4127 H   0  0  0  0  0  0  0  0  0  0  0  0
  140.4323   67.3835  227.6429 H   0  0  0  0  0  0  0  0  0  0  0  0
  141.3295   69.1819  229.1017 H   0  0  0  0  0  0  0  0  0  0  0  0
  141.2934   71.5185  228.2452 H   0  0  0  0  0  0  0  0  0  0  0  0
  140.3970   72.0166  226.0133 H   0  0  0  0  0  0  0  0  0  0  0  0
  137.2348   70.3989  224.5793 H   0  0  0  0  0  0  0  0  0  0  0  0
  138.1799   71.8780  224.9470 H   0  0  0  0  0  0  0  0  0  0  0  0
  137.6919   70.7518  222.1284 H   0  0  0  0  0  0  0  0  0  0  0  0
  136.7875   72.1184  222.8589 H   0  0  0  0  0  0  0  0  0  0  0  0
  133.9017   75.0891  226.3576 H   0  0  0  0  0  0  0  0  0  0  0  0
  133.0434   72.9638  227.3903 H   0  0  0  0  0  0  0  0  0  0  0  0
  132.8770   70.5539  227.3640 H   0  0  0  0  0  0  0  0  0  0  0  0
  133.4510   68.3798  226.2848 H   0  0  0  0  0  0  0  0  0  0  0  0
  134.8307   68.2863  224.2560 H   0  0  0  0  0  0  0  0  0  0  0  0
  135.6829   70.4142  223.2399 H   0  0  0  0  0  0  0  0  0  0  0  0
  1  2  2  0
  2  3  1  0
  3  4  1  0
  4  5  1  0
  5  6  2  0
  5  7  1  0
  7  8  1  0
  8  9  1  0
  9 10  1  0
 10 11  1  0
 11 12  1  0
 12 13  2  0
 12 14  1  0
 14 15  1  0
 15 16  1  0
 16 17  1  0
 17 18  1  0
 18 19  2  0
 19 20  1  0
 20 21  2  0
 21 22  1  0
 22 23  2  0
 17 24  1  0
 24 25  1  0
  2 26  1  0
 26 27  2  0
 27 28  1  0
 28 29  2  0
 29 30  1  0
 30 31  2  0
 31 32  1  0
 32 33  2  0
 33 34  1  0
 34 35  2  0
 11  7  1  0
 25 14  1  0
 35 26  1  0
 23 18  1  0
 34 29  1  0
  3 36  1  0
  4 37  1  0
  4 38  1  0
  8 39  1  0
  8 40  1  0
  9 41  1  0
  9 42  1  0
 10 43  1  0
 10 44  1  0
 11 45  1  6
 15 46  1  0
 15 47  1  0
 16 48  1  0
 16 49  1  0
 17 50  1  0
 19 51  1  0
 20 52  1  0
 21 53  1  0
 22 54  1  0
 23 55  1  0
 24 56  1  0
 24 57  1  0
 25 58  1  0
 25 59  1  0
 27 60  1  0
 28 61  1  0
 30 62  1  0
 31 63  1  0
 32 64  1  0
 33 65  1  0
M  END
>  <smiles>  (90) 
O=C(NCC(=O)N1CCCC1C(=O)N1CCC(c2ccccc2)CC1)c1ccc2ccccc2n1

>  <score_type>  (90) 
oracle

>  <origin>  (90) 
autodockgpu

>  <m_score__min__energy>  (90) 
-9.4900000000000002

>  <m_primary>  (90) 
energy

>  <rmsd>  (90) 
7.717588792302892

>  <m_score__min__rmsd>  (90) 
7.717588792302892

>  <meeko>  (90) 
{"free_energy": -7.91, "intermolecular_energy": -9.7, "internal_energy": -3.44, "cluster_size": 16, "cluster_id": 6, "rank_in_cluster": 15}

>  <energy>  (90) 
-7.99

>  <cluster_rmsd>  (90) 
0.44

>  <cluster>  (90) 
6

$$$$

     RDKit          3D

 65 69  0  0  1  0  0  0  0  0999 V2000
  135.2930   77.1250  224.0490 O   0  0  0  0  0  0  0  0  0  0  0  0
  135.5650   75.8780  223.9900 C   0  0  0  0  0  0  0  0  0  0  0  0
  136.6160   75.4700  223.0740 N   0  0  0  0  0  0  0  0  0  0  0  0
  137.2280   76.5180  222.3430 C   0  0  0  0  0  0  0  0  0  0  0  0
  138.6630   76.6260  222.2460 C   0  0  0  0  0  0  0  0  0  0  0  0
  139.1190   77.7910  222.6700 O   0  0  0  0  0  0  0  0  0  0  0  0
  139.6720   75.7580  221.7950 N   0  0  0  0  0  0  0  0  0  0  0  0
  141.0960   75.6850  221.9720 C   0  0  0  0  0  0  0  0  0  0  0  0
  141.5290   75.2390  220.5440 C   0  0  0  0  0  0  0  0  0  0  0  0
  140.6440   74.0160  220.4610 C   0  0  0  0  0  0  0  0  0  0  0  0
  139.3370   74.6090  220.9350 C   0  0  1  0  0  0  0  0  0  0  0  0
  138.5590   73.5420  221.5420 C   0  0  0  0  0  0  0  0  0  0  0  0
  137.3140   73.5270  221.1350 O   0  0  0  0  0  0  0  0  0  0  0  0
  138.8860   72.5510  222.4590 N   0  0  0  0  0  0  0  0  0  0  0  0
  140.1540   72.2610  223.0660 C   0  0  0  0  0  0  0  0  0  0  0  0
  140.2870   70.7510  223.2230 C   0  0  0  0  0  0  0  0  0  0  0  0
  139.3140   70.2640  224.2370 C   0  0  0  0  0  0  0  0  0  0  0  0
  139.8770   70.0280  225.5700 C   0  0  0  0  0  0  0  0  0  0  0  0
  139.9460   68.7100  226.0470 C   0  0  0  0  0  0  0  0  0  0  0  0
  140.4660   68.4240  227.2950 C   0  0  0  0  0  0  0  0  0  0  0  0
  140.9410   69.4110  228.1310 C   0  0  0  0  0  0  0  0  0  0  0  0
  140.8790   70.7040  227.6770 C   0  0  0  0  0  0  0  0  0  0  0  0
  140.3570   70.9890  226.4220 C   0  0  0  0  0  0  0  0  0  0  0  0
  138.0760   71.1350  224.3040 C   0  0  0  0  0  0  0  0  0  0  0  0
  137.7670   71.6760  222.9030 C   0  0  0  0  0  0  0  0  0  0  0  0
  134.8630   74.8900  224.7970 C   0  0  0  0  0  0  0  0  0  0  0  0
  133.9610   75.3710  225.7290 C   0  0  0  0  0  0  0  0  0  0  0  0
  133.2950   74.4340  226.5120 C   0  0  0  0  0  0  0  0  0  0  0  0
  133.5470   73.0830  226.3360 C   0  0  0  0  0  0  0  0  0  0  0  0
  132.8830   72.1450  227.1160 C   0  0  0  0  0  0  0  0  0  0  0  0
  133.1590   70.7860  226.9190 C   0  0  0  0  0  0  0  0  0  0  0  0
  134.0580   70.3580  225.9840 C   0  0  0  0  0  0  0  0  0  0  0  0
  134.7250   71.2960  225.2000 C   0  0  0  0  0  0  0  0  0  0  0  0
  134.4560   72.6410  225.3930 C   0  0  0  0  0  0  0  0  0  0  0  0
  135.0960   73.5650  224.6400 N   0  0  0  0  0  0  0  0  0  0  0  0
  136.7820   74.4630  223.0580 H   0  0  0  0  0  0  0  0  0  0  0  0
  136.8515   76.4397  221.3124 H   0  0  0  0  0  0  0  0  0  0  0  0
  136.9614   77.4074  222.9329 H   0  0  0  0  0  0  0  0  0  0  0  0
  141.5237   76.6621  222.2408 H   0  0  0  0  0  0  0  0  0  0  0  0
  141.4265   75.0196  222.7832 H   0  0  0  0  0  0  0  0  0  0  0  0
  141.2854   75.9884  219.7765 H   0  0  0  0  0  0  0  0  0  0  0  0
  142.6054   75.0815  220.3811 H   0  0  0  0  0  0  0  0  0  0  0  0
  140.5702   73.6339  219.4321 H   0  0  0  0  0  0  0  0  0  0  0  0
  140.9962   73.1478  221.0373 H   0  0  0  0  0  0  0  0  0  0  0  0
  138.6926   75.0105  220.1391 H   0  0  0  0  0  0  0  0  0  0  0  0
  140.9654   72.6395  222.4270 H   0  0  0  0  0  0  0  0  0  0  0  0
  140.2179   72.7471  224.0507 H   0  0  0  0  0  0  0  0  0  0  0  0
  140.0838   70.2639  222.2579 H   0  0  0  0  0  0  0  0  0  0  0  0
  141.3080   70.5079  223.5522 H   0  0  0  0  0  0  0  0  0  0  0  0
  139.0173   69.2694  223.8726 H   0  0  0  0  0  0  0  0  0  0  0  0
  139.5788   67.8881  225.4148 H   0  0  0  0  0  0  0  0  0  0  0  0
  140.5018   67.3772  227.6310 H   0  0  0  0  0  0  0  0  0  0  0  0
  141.3532   69.1718  229.1224 H   0  0  0  0  0  0  0  0  0  0  0  0
  141.2462   71.5229  228.3130 H   0  0  0  0  0  0  0  0  0  0  0  0
  140.3271   72.0388  226.0950 H   0  0  0  0  0  0  0  0  0  0  0  0
  137.2250   70.5385  224.6645 H   0  0  0  0  0  0  0  0  0  0  0  0
  138.2494   71.9731  224.9951 H   0  0  0  0  0  0  0  0  0  0  0  0
  137.6552   70.8367  222.2008 H   0  0  0  0  0  0  0  0  0  0  0  0
  136.8322   72.2553  222.9282 H   0  0  0  0  0  0  0  0  0  0  0  0
  133.7781   76.4494  225.8460 H   0  0  0  0  0  0  0  0  0  0  0  0
  132.5695   74.7650  227.2697 H   0  0  0  0  0  0  0  0  0  0  0  0
  132.1533   72.4637  227.8749 H   0  0  0  0  0  0  0  0  0  0  0  0
  132.6358   70.0407  227.5361 H   0  0  0  0  0  0  0  0  0  0  0  0
  134.2531   69.2836  225.8516 H   0  0  0  0  0  0  0  0  0  0  0  0
  135.4529   70.9743  224.4406 H   0  0  0  0  0  0  0  0  0  0  0  0
  1  2  2  0
  2  3  1  0
  3  4  1  0
  4  5  1  0
  5  6  2  0
  5  7  1  0
  7  8  1  0
  8  9  1  0
  9 10  1  0
 10 11  1  0
 11 12  1  0
 12 13  2  0
 12 14  1  0
 14 15  1  0
 15 16  1  0
 16 17  1  0
 17 18  1  0
 18 19  2  0
 19 20  1  0
 20 21  2  0
 21 22  1  0
 22 23  2  0
 17 24  1  0
 24 25  1  0
  2 26  1  0
 26 27  2  0
 27 28  1  0
 28 29  2  0
 29 30  1  0
 30 31  2  0
 31 32  1  0
 32 33  2  0
 33 34  1  0
 34 35  2  0
 11  7  1  0
 25 14  1  0
 35 26  1  0
 23 18  1  0
 34 29  1  0
  3 36  1  0
  4 37  1  0
  4 38  1  0
  8 39  1  0
  8 40  1  0
  9 41  1  0
  9 42  1  0
 10 43  1  0
 10 44  1  0
 11 45  1  6
 15 46  1  0
 15 47  1  0
 16 48  1  0
 16 49  1  0
 17 50  1  0
 19 51  1  0
 20 52  1  0
 21 53  1  0
 22 54  1  0
 23 55  1  0
 24 56  1  0
 24 57  1  0
 25 58  1  0
 25 59  1  0
 27 60  1  0
 28 61  1  0
 30 62  1  0
 31 63  1  0
 32 64  1  0
 33 65  1  0
M  END
>  <smiles>  (91) 
O=C(NCC(=O)N1CCCC1C(=O)N1CCC(c2ccccc2)CC1)c1ccc2ccccc2n1

>  <score_type>  (91) 
oracle

>  <origin>  (91) 
autodockgpu

>  <m_score__min__energy>  (91) 
-9.4900000000000002

>  <m_primary>  (91) 
energy

>  <rmsd>  (91) 
7.898639720874883

>  <m_score__min__rmsd>  (91) 
7.898639720874883

>  <meeko>  (91) 
{"free_energy": -8.25, "intermolecular_energy": -10.04, "internal_energy": -3.35, "cluster_size": 16, "cluster_id": 6, "rank_in_cluster": 2}

>  <energy>  (91) 
-7.98

>  <cluster_rmsd>  (91) 
0.38

>  <cluster>  (91) 
6

$$$$

     RDKit          3D

 65 69  0  0  1  0  0  0  0  0999 V2000
  138.5520   70.2440  221.6100 O   0  0  0  0  0  0  0  0  0  0  0  0
  138.8610   71.0930  222.5150 C   0  0  0  0  0  0  0  0  0  0  0  0
  138.7020   72.4990  222.1860 N   0  0  0  0  0  0  0  0  0  0  0  0
  138.2170   72.7700  220.8830 C   0  0  0  0  0  0  0  0  0  0  0  0
  139.0490   73.4020  219.8890 C   0  0  0  0  0  0  0  0  0  0  0  0
  138.5060   73.3950  218.6860 O   0  0  0  0  0  0  0  0  0  0  0  0
  140.3110   74.0180  219.9320 N   0  0  0  0  0  0  0  0  0  0  0  0
  141.2900   74.3900  218.9480 C   0  0  0  0  0  0  0  0  0  0  0  0
  142.6000   74.0340  219.7110 C   0  0  0  0  0  0  0  0  0  0  0  0
  142.3180   74.8590  220.9470 C   0  0  0  0  0  0  0  0  0  0  0  0
  140.8930   74.4370  221.2210 C   0  0  1  0  0  0  0  0  0  0  0  0
  140.2310   75.5300  221.9130 C   0  0  0  0  0  0  0  0  0  0  0  0
  139.2410   75.1260  222.6700 O   0  0  0  0  0  0  0  0  0  0  0  0
  140.4490   76.9020  221.9200 N   0  0  0  0  0  0  0  0  0  0  0  0
  141.4640   77.6610  221.2450 C   0  0  0  0  0  0  0  0  0  0  0  0
  141.8890   78.8160  222.1440 C   0  0  0  0  0  0  0  0  0  0  0  0
  140.7740   79.7910  222.2700 C   0  0  0  0  0  0  0  0  0  0  0  0
  140.8860   80.9730  221.4100 C   0  0  0  0  0  0  0  0  0  0  0  0
  140.5140   82.2220  221.9320 C   0  0  0  0  0  0  0  0  0  0  0  0
  140.5970   83.3720  221.1710 C   0  0  0  0  0  0  0  0  0  0  0  0
  141.0460   83.3540  219.8690 C   0  0  0  0  0  0  0  0  0  0  0  0
  141.4120   82.1400  219.3460 C   0  0  0  0  0  0  0  0  0  0  0  0
  141.3290   80.9850  220.1130 C   0  0  0  0  0  0  0  0  0  0  0  0
  139.4180   79.1290  222.1280 C   0  0  0  0  0  0  0  0  0  0  0  0
  139.4870   77.7140  222.7150 C   0  0  0  0  0  0  0  0  0  0  0  0
  139.3510   70.6900  223.8250 C   0  0  0  0  0  0  0  0  0  0  0  0
  139.1880   69.3620  224.1720 C   0  0  0  0  0  0  0  0  0  0  0  0
  139.6440   68.9710  225.4270 C   0  0  0  0  0  0  0  0  0  0  0  0
  140.2350   69.9010  226.2670 C   0  0  0  0  0  0  0  0  0  0  0  0
  140.6910   69.5140  227.5200 C   0  0  0  0  0  0  0  0  0  0  0  0
  141.2830   70.4760  228.3500 C   0  0  0  0  0  0  0  0  0  0  0  0
  141.4230   71.7790  227.9630 C   0  0  0  0  0  0  0  0  0  0  0  0
  140.9670   72.1690  226.7060 C   0  0  0  0  0  0  0  0  0  0  0  0
  140.3800   71.2220  225.8840 C   0  0  0  0  0  0  0  0  0  0  0  0
  139.9310   71.5850  224.6600 N   0  0  0  0  0  0  0  0  0  0  0  0
  138.9750   73.1320  222.9380 H   0  0  0  0  0  0  0  0  0  0  0  0
  137.9062   71.8035  220.4596 H   0  0  0  0  0  0  0  0  0  0  0  0
  137.4474   73.5335  221.0695 H   0  0  0  0  0  0  0  0  0  0  0  0
  141.1836   73.8010  218.0251 H   0  0  0  0  0  0  0  0  0  0  0  0
  141.2255   75.4334  218.6056 H   0  0  0  0  0  0  0  0  0  0  0  0
  142.6809   72.9593  219.9310 H   0  0  0  0  0  0  0  0  0  0  0  0
  143.5465   74.2354  219.1880 H   0  0  0  0  0  0  0  0  0  0  0  0
  142.9895   74.5943  221.7771 H   0  0  0  0  0  0  0  0  0  0  0  0
  142.4665   75.9422  220.8262 H   0  0  0  0  0  0  0  0  0  0  0  0
  140.7855   73.5716  221.8914 H   0  0  0  0  0  0  0  0  0  0  0  0
  142.3305   77.0165  221.0357 H   0  0  0  0  0  0  0  0  0  0  0  0
  141.0708   78.0508  220.2945 H   0  0  0  0  0  0  0  0  0  0  0  0
  142.1490   78.4275  223.1397 H   0  0  0  0  0  0  0  0  0  0  0  0
  142.7629   79.3178  221.7029 H   0  0  0  0  0  0  0  0  0  0  0  0
  140.8655   80.1753  223.2966 H   0  0  0  0  0  0  0  0  0  0  0  0
  140.1491   82.2863  222.9677 H   0  0  0  0  0  0  0  0  0  0  0  0
  140.2955   84.3307  221.6182 H   0  0  0  0  0  0  0  0  0  0  0  0
  141.1086   84.2762  219.2726 H   0  0  0  0  0  0  0  0  0  0  0  0
  141.7747   82.0805  218.3092 H   0  0  0  0  0  0  0  0  0  0  0  0
  141.6342   80.0319  219.6565 H   0  0  0  0  0  0  0  0  0  0  0  0
  138.6626   79.7165  222.6705 H   0  0  0  0  0  0  0  0  0  0  0  0
  139.1407   79.0763  221.0649 H   0  0  0  0  0  0  0  0  0  0  0  0
  139.8246   77.7653  223.7607 H   0  0  0  0  0  0  0  0  0  0  0  0
  138.4909   77.2489  222.6778 H   0  0  0  0  0  0  0  0  0  0  0  0
  138.7172   68.6440  223.4844 H   0  0  0  0  0  0  0  0  0  0  0  0
  139.5355   67.9256  225.7517 H   0  0  0  0  0  0  0  0  0  0  0  0
  140.5895   68.4713  227.8553 H   0  0  0  0  0  0  0  0  0  0  0  0
  141.6459   70.1728  229.3431 H   0  0  0  0  0  0  0  0  0  0  0  0
  141.8907   72.5119  228.6368 H   0  0  0  0  0  0  0  0  0  0  0  0
  141.0715   73.2118  226.3720 H   0  0  0  0  0  0  0  0  0  0  0  0
  1  2  2  0
  2  3  1  0
  3  4  1  0
  4  5  1  0
  5  6  2  0
  5  7  1  0
  7  8  1  0
  8  9  1  0
  9 10  1  0
 10 11  1  0
 11 12  1  0
 12 13  2  0
 12 14  1  0
 14 15  1  0
 15 16  1  0
 16 17  1  0
 17 18  1  0
 18 19  2  0
 19 20  1  0
 20 21  2  0
 21 22  1  0
 22 23  2  0
 17 24  1  0
 24 25  1  0
  2 26  1  0
 26 27  2  0
 27 28  1  0
 28 29  2  0
 29 30  1  0
 30 31  2  0
 31 32  1  0
 32 33  2  0
 33 34  1  0
 34 35  2  0
 11  7  1  0
 25 14  1  0
 35 26  1  0
 23 18  1  0
 34 29  1  0
  3 36  1  0
  4 37  1  0
  4 38  1  0
  8 39  1  0
  8 40  1  0
  9 41  1  0
  9 42  1  0
 10 43  1  0
 10 44  1  0
 11 45  1  1
 15 46  1  0
 15 47  1  0
 16 48  1  0
 16 49  1  0
 17 50  1  0
 19 51  1  0
 20 52  1  0
 21 53  1  0
 22 54  1  0
 23 55  1  0
 24 56  1  0
 24 57  1  0
 25 58  1  0
 25 59  1  0
 27 60  1  0
 28 61  1  0
 30 62  1  0
 31 63  1  0
 32 64  1  0
 33 65  1  0
M  END
>  <smiles>  (92) 
O=C(NCC(=O)N1CCCC1C(=O)N1CCC(c2ccccc2)CC1)c1ccc2ccccc2n1

>  <score_type>  (92) 
oracle

>  <origin>  (92) 
autodockgpu

>  <m_score__min__energy>  (92) 
-9.4900000000000002

>  <m_primary>  (92) 
energy

>  <rmsd>  (92) 
2.358546553833364

>  <m_score__min__rmsd>  (92) 
2.358546553833364

>  <meeko>  (92) 
{"free_energy": -8.64, "intermolecular_energy": -10.43, "internal_energy": -2.67, "cluster_size": 2, "cluster_id": 3, "rank_in_cluster": 2}

>  <energy>  (92) 
-7.91

>  <cluster_rmsd>  (92) 
0.49

>  <cluster>  (92) 
6

$$$$

     RDKit          3D

 65 69  0  0  1  0  0  0  0  0999 V2000
  135.4130   77.0960  223.8970 O   0  0  0  0  0  0  0  0  0  0  0  0
  135.7080   75.8520  223.9030 C   0  0  0  0  0  0  0  0  0  0  0  0
  136.8070   75.4280  223.0540 N   0  0  0  0  0  0  0  0  0  0  0  0
  137.4350   76.4550  222.3080 C   0  0  0  0  0  0  0  0  0  0  0  0
  138.8540   76.4350  222.0500 C   0  0  0  0  0  0  0  0  0  0  0  0
  139.4440   77.5790  222.3430 O   0  0  0  0  0  0  0  0  0  0  0  0
  139.7340   75.4590  221.5540 N   0  0  0  0  0  0  0  0  0  0  0  0
  141.1530   75.2420  221.6340 C   0  0  0  0  0  0  0  0  0  0  0  0
  141.4350   74.7270  220.1910 C   0  0  0  0  0  0  0  0  0  0  0  0
  140.4260   73.6010  220.2020 C   0  0  0  0  0  0  0  0  0  0  0  0
  139.2240   74.3350  220.7490 C   0  0  1  0  0  0  0  0  0  0  0  0
  138.3870   73.3650  221.4360 C   0  0  0  0  0  0  0  0  0  0  0  0
  137.1220   73.4640  221.1080 O   0  0  0  0  0  0  0  0  0  0  0  0
  138.6740   72.3690  222.3610 N   0  0  0  0  0  0  0  0  0  0  0  0
  139.9450   71.9690  222.8960 C   0  0  0  0  0  0  0  0  0  0  0  0
  139.9400   70.4580  223.0900 C   0  0  0  0  0  0  0  0  0  0  0  0
  138.9920   70.0950  224.1770 C   0  0  0  0  0  0  0  0  0  0  0  0
  139.6150   69.8370  225.4790 C   0  0  0  0  0  0  0  0  0  0  0  0
  139.6240   68.5220  225.9710 C   0  0  0  0  0  0  0  0  0  0  0  0
  140.1960   68.2160  227.1910 C   0  0  0  0  0  0  0  0  0  0  0  0
  140.7840   69.1770  227.9830 C   0  0  0  0  0  0  0  0  0  0  0  0
  140.7810   70.4670  227.5150 C   0  0  0  0  0  0  0  0  0  0  0  0
  140.2060   70.7720  226.2870 C   0  0  0  0  0  0  0  0  0  0  0  0
  137.8520   71.0860  224.2950 C   0  0  0  0  0  0  0  0  0  0  0  0
  137.5060   71.6200  222.9010 C   0  0  0  0  0  0  0  0  0  0  0  0
  134.9860   74.8860  224.7190 C   0  0  0  0  0  0  0  0  0  0  0  0
  134.1180   75.3940  225.6680 C   0  0  0  0  0  0  0  0  0  0  0  0
  133.4330   74.4770  226.4580 C   0  0  0  0  0  0  0  0  0  0  0  0
  133.6340   73.1190  226.2720 C   0  0  0  0  0  0  0  0  0  0  0  0
  132.9510   72.2010  227.0600 C   0  0  0  0  0  0  0  0  0  0  0  0
  133.1750   70.8340  226.8510 C   0  0  0  0  0  0  0  0  0  0  0  0
  134.0420   70.3790  225.8990 C   0  0  0  0  0  0  0  0  0  0  0  0
  134.7280   71.2970  225.1070 C   0  0  0  0  0  0  0  0  0  0  0  0
  134.5100   72.6490  225.3110 C   0  0  0  0  0  0  0  0  0  0  0  0
  135.1690   73.5550  224.5510 N   0  0  0  0  0  0  0  0  0  0  0  0
  136.9910   74.4240  223.0880 H   0  0  0  0  0  0  0  0  0  0  0  0
  136.9405   76.4726  221.3256 H   0  0  0  0  0  0  0  0  0  0  0  0
  137.3253   77.3289  222.9670 H   0  0  0  0  0  0  0  0  0  0  0  0
  141.6963   76.1744  221.8473 H   0  0  0  0  0  0  0  0  0  0  0  0
  141.4711   74.5611  222.4373 H   0  0  0  0  0  0  0  0  0  0  0  0
  141.2147   75.4830  219.4230 H   0  0  0  0  0  0  0  0  0  0  0  0
  142.4752   74.4560  219.9576 H   0  0  0  0  0  0  0  0  0  0  0  0
  140.2402   73.2088  219.1912 H   0  0  0  0  0  0  0  0  0  0  0  0
  140.7281   72.7123  220.7756 H   0  0  0  0  0  0  0  0  0  0  0  0
  138.5693   74.7865  219.9891 H   0  0  0  0  0  0  0  0  0  0  0  0
  140.7460   72.2496  222.1962 H   0  0  0  0  0  0  0  0  0  0  0  0
  140.1203   72.4698  223.8595 H   0  0  0  0  0  0  0  0  0  0  0  0
  139.6279   69.9704  222.1547 H   0  0  0  0  0  0  0  0  0  0  0  0
  140.9516   70.1224  223.3620 H   0  0  0  0  0  0  0  0  0  0  0  0
  138.5764   69.1265  223.8619 H   0  0  0  0  0  0  0  0  0  0  0  0
  139.1667   67.7196  225.3735 H   0  0  0  0  0  0  0  0  0  0  0  0
  140.1813   67.1730  227.5403 H   0  0  0  0  0  0  0  0  0  0  0  0
  141.2378   68.9209  228.9517 H   0  0  0  0  0  0  0  0  0  0  0  0
  141.2376   71.2665  228.1169 H   0  0  0  0  0  0  0  0  0  0  0  0
  140.2265   71.8178  225.9465 H   0  0  0  0  0  0  0  0  0  0  0  0
  136.9724   70.5860  224.7268 H   0  0  0  0  0  0  0  0  0  0  0  0
  138.1513   71.9194  224.9475 H   0  0  0  0  0  0  0  0  0  0  0  0
  137.2674   70.7789  222.2334 H   0  0  0  0  0  0  0  0  0  0  0  0
  136.6355   72.2893  222.9667 H   0  0  0  0  0  0  0  0  0  0  0  0
  133.9753   76.4775  225.7928 H   0  0  0  0  0  0  0  0  0  0  0  0
  132.7326   74.8295  227.2294 H   0  0  0  0  0  0  0  0  0  0  0  0
  132.2472   72.5413  227.8339 H   0  0  0  0  0  0  0  0  0  0  0  0
  132.6358   70.1044  227.4730 H   0  0  0  0  0  0  0  0  0  0  0  0
  134.1970   69.2990  225.7591 H   0  0  0  0  0  0  0  0  0  0  0  0
  135.4305   70.9538  224.3332 H   0  0  0  0  0  0  0  0  0  0  0  0
  1  2  2  0
  2  3  1  0
  3  4  1  0
  4  5  1  0
  5  6  2  0
  5  7  1  0
  7  8  1  0
  8  9  1  0
  9 10  1  0
 10 11  1  0
 11 12  1  0
 12 13  2  0
 12 14  1  0
 14 15  1  0
 15 16  1  0
 16 17  1  0
 17 18  1  0
 18 19  2  0
 19 20  1  0
 20 21  2  0
 21 22  1  0
 22 23  2  0
 17 24  1  0
 24 25  1  0
  2 26  1  0
 26 27  2  0
 27 28  1  0
 28 29  2  0
 29 30  1  0
 30 31  2  0
 31 32  1  0
 32 33  2  0
 33 34  1  0
 34 35  2  0
 11  7  1  0
 25 14  1  0
 35 26  1  0
 23 18  1  0
 34 29  1  0
  3 36  1  0
  4 37  1  0
  4 38  1  0
  8 39  1  0
  8 40  1  0
  9 41  1  0
  9 42  1  0
 10 43  1  0
 10 44  1  0
 11 45  1  6
 15 46  1  0
 15 47  1  0
 16 48  1  0
 16 49  1  0
 17 50  1  0
 19 51  1  0
 20 52  1  0
 21 53  1  0
 22 54  1  0
 23 55  1  0
 24 56  1  0
 24 57  1  0
 25 58  1  0
 25 59  1  0
 27 60  1  0
 28 61  1  0
 30 62  1  0
 31 63  1  0
 32 64  1  0
 33 65  1  0
M  END
>  <smiles>  (93) 
O=C(NCC(=O)N1CCCC1C(=O)N1CCC(c2ccccc2)CC1)c1ccc2ccccc2n1

>  <score_type>  (93) 
oracle

>  <origin>  (93) 
autodockgpu

>  <m_score__min__energy>  (93) 
-9.4900000000000002

>  <m_primary>  (93) 
energy

>  <rmsd>  (93) 
7.933427010376445

>  <m_score__min__rmsd>  (93) 
7.933427010376445

>  <meeko>  (93) 
{"free_energy": -8.2, "intermolecular_energy": -9.99, "internal_energy": -3.41, "cluster_size": 16, "cluster_id": 6, "rank_in_cluster": 5}

>  <energy>  (93) 
-7.91

>  <cluster_rmsd>  (93) 
0.54

>  <cluster>  (93) 
6

$$$$

     RDKit          3D

 65 69  0  0  1  0  0  0  0  0999 V2000
  140.3540   73.0640  222.6310 O   0  0  0  0  0  0  0  0  0  0  0  0
  139.9270   71.8780  222.8480 C   0  0  0  0  0  0  0  0  0  0  0  0
  139.2260   71.2170  221.7610 N   0  0  0  0  0  0  0  0  0  0  0  0
  139.0940   71.9720  220.5700 C   0  0  0  0  0  0  0  0  0  0  0  0
  140.0930   71.9180  219.5330 C   0  0  0  0  0  0  0  0  0  0  0  0
  139.5720   71.8550  218.3210 O   0  0  0  0  0  0  0  0  0  0  0  0
  141.4990   71.9160  219.5400 N   0  0  0  0  0  0  0  0  0  0  0  0
  142.5120   71.0300  219.0360 C   0  0  0  0  0  0  0  0  0  0  0  0
  143.5500   71.1080  220.1950 C   0  0  0  0  0  0  0  0  0  0  0  0
  143.6980   72.6130  220.2020 C   0  0  0  0  0  0  0  0  0  0  0  0
  142.2420   73.0170  220.1780 C   0  0  1  0  0  0  0  0  0  0  0  0
  142.1530   74.3210  219.5410 C   0  0  0  0  0  0  0  0  0  0  0  0
  142.4530   74.2850  218.2660 O   0  0  0  0  0  0  0  0  0  0  0  0
  141.8150   75.5790  220.0260 N   0  0  0  0  0  0  0  0  0  0  0  0
  141.3990   75.9580  221.3470 C   0  0  0  0  0  0  0  0  0  0  0  0
  140.3530   77.0600  221.2320 C   0  0  0  0  0  0  0  0  0  0  0  0
  140.9870   78.3010  220.7130 C   0  0  0  0  0  0  0  0  0  0  0  0
  141.3160   79.3010  221.7350 C   0  0  0  0  0  0  0  0  0  0  0  0
  141.8540   78.8620  222.9550 C   0  0  0  0  0  0  0  0  0  0  0  0
  142.1840   79.7550  223.9560 C   0  0  0  0  0  0  0  0  0  0  0  0
  142.0060   81.1140  223.8110 C   0  0  0  0  0  0  0  0  0  0  0  0
  141.4810   81.5560  222.6220 C   0  0  0  0  0  0  0  0  0  0  0  0
  141.1500   80.6560  221.6170 C   0  0  0  0  0  0  0  0  0  0  0  0
  142.1780   78.0060  219.8240 C   0  0  0  0  0  0  0  0  0  0  0  0
  141.9190   76.7040  219.0570 C   0  0  0  0  0  0  0  0  0  0  0  0
  140.1260   71.2010  224.1210 C   0  0  0  0  0  0  0  0  0  0  0  0
  140.8060   71.9000  225.1020 C   0  0  0  0  0  0  0  0  0  0  0  0
  141.0100   71.2560  226.3170 C   0  0  0  0  0  0  0  0  0  0  0  0
  140.5350   69.9670  226.5040 C   0  0  0  0  0  0  0  0  0  0  0  0
  140.7360   69.3220  227.7170 C   0  0  0  0  0  0  0  0  0  0  0  0
  140.2470   68.0190  227.8770 C   0  0  0  0  0  0  0  0  0  0  0  0
  139.5790   67.3680  226.8790 C   0  0  0  0  0  0  0  0  0  0  0  0
  139.3750   68.0130  225.6620 C   0  0  0  0  0  0  0  0  0  0  0  0
  139.8580   69.3010  225.4990 C   0  0  0  0  0  0  0  0  0  0  0  0
  139.6690   69.9420  224.3220 N   0  0  0  0  0  0  0  0  0  0  0  0
  138.8960   70.2790  221.9930 H   0  0  0  0  0  0  0  0  0  0  0  0
  138.1472   71.6582  220.1063 H   0  0  0  0  0  0  0  0  0  0  0  0
  139.1837   73.0065  220.9330 H   0  0  0  0  0  0  0  0  0  0  0  0
  142.1285   70.0079  218.9010 H   0  0  0  0  0  0  0  0  0  0  0  0
  142.9069   71.2978  218.0449 H   0  0  0  0  0  0  0  0  0  0  0  0
  143.1524   70.7190  221.1440 H   0  0  0  0  0  0  0  0  0  0  0  0
  144.4724   70.5213  220.0726 H   0  0  0  0  0  0  0  0  0  0  0  0
  144.2062   72.9695  221.1101 H   0  0  0  0  0  0  0  0  0  0  0  0
  144.3074   73.0235  219.3834 H   0  0  0  0  0  0  0  0  0  0  0  0
  141.7814   73.1532  221.1676 H   0  0  0  0  0  0  0  0  0  0  0  0
  140.9654   75.0883  221.8624 H   0  0  0  0  0  0  0  0  0  0  0  0
  142.2634   76.3201  221.9229 H   0  0  0  0  0  0  0  0  0  0  0  0
  139.5584   76.7393  220.5422 H   0  0  0  0  0  0  0  0  0  0  0  0
  139.9226   77.2586  222.2246 H   0  0  0  0  0  0  0  0  0  0  0  0
  140.2037   78.7674  220.0975 H   0  0  0  0  0  0  0  0  0  0  0  0
  142.0159   77.7861  223.1171 H   0  0  0  0  0  0  0  0  0  0  0  0
  142.6017   79.3696  224.8978 H   0  0  0  0  0  0  0  0  0  0  0  0
  142.2736   81.8156  224.6149 H   0  0  0  0  0  0  0  0  0  0  0  0
  141.3210   82.6327  222.4637 H   0  0  0  0  0  0  0  0  0  0  0  0
  140.7334   81.0512  220.6788 H   0  0  0  0  0  0  0  0  0  0  0  0
  142.3195   78.8318  219.1113 H   0  0  0  0  0  0  0  0  0  0  0  0
  143.0836   77.9005  220.4394 H   0  0  0  0  0  0  0  0  0  0  0  0
  140.9796   76.7906  218.4913 H   0  0  0  0  0  0  0  0  0  0  0  0
  142.7472   76.5151  218.3582 H   0  0  0  0  0  0  0  0  0  0  0  0
  141.1703   72.9232  224.9279 H   0  0  0  0  0  0  0  0  0  0  0  0
  141.5474   71.7683  227.1287 H   0  0  0  0  0  0  0  0  0  0  0  0
  141.2693   69.8248  228.5372 H   0  0  0  0  0  0  0  0  0  0  0  0
  140.4059   67.5041  228.8360 H   0  0  0  0  0  0  0  0  0  0  0  0
  139.2062   66.3450  227.0352 H   0  0  0  0  0  0  0  0  0  0  0  0
  138.8396   67.5085  224.8442 H   0  0  0  0  0  0  0  0  0  0  0  0
  1  2  2  0
  2  3  1  0
  3  4  1  0
  4  5  1  0
  5  6  2  0
  5  7  1  0
  7  8  1  0
  8  9  1  0
  9 10  1  0
 10 11  1  0
 11 12  1  0
 12 13  2  0
 12 14  1  0
 14 15  1  0
 15 16  1  0
 16 17  1  0
 17 18  1  0
 18 19  2  0
 19 20  1  0
 20 21  2  0
 21 22  1  0
 22 23  2  0
 17 24  1  0
 24 25  1  0
  2 26  1  0
 26 27  2  0
 27 28  1  0
 28 29  2  0
 29 30  1  0
 30 31  2  0
 31 32  1  0
 32 33  2  0
 33 34  1  0
 34 35  2  0
 11  7  1  0
 25 14  1  0
 35 26  1  0
 23 18  1  0
 34 29  1  0
  3 36  1  0
  4 37  1  0
  4 38  1  0
  8 39  1  0
  8 40  1  0
  9 41  1  0
  9 42  1  0
 10 43  1  0
 10 44  1  0
 11 45  1  1
 15 46  1  0
 15 47  1  0
 16 48  1  0
 16 49  1  0
 17 50  1  0
 19 51  1  0
 20 52  1  0
 21 53  1  0
 22 54  1  0
 23 55  1  0
 24 56  1  0
 24 57  1  0
 25 58  1  0
 25 59  1  0
 27 60  1  0
 28 61  1  0
 30 62  1  0
 31 63  1  0
 32 64  1  0
 33 65  1  0
M  END
>  <smiles>  (94) 
O=C(NCC(=O)N1CCCC1C(=O)N1CCC(c2ccccc2)CC1)c1ccc2ccccc2n1

>  <score_type>  (94) 
oracle

>  <origin>  (94) 
autodockgpu

>  <m_score__min__energy>  (94) 
-9.4900000000000002

>  <m_primary>  (94) 
energy

>  <rmsd>  (94) 
4.242109065206625

>  <m_score__min__rmsd>  (94) 
4.242109065206625

>  <meeko>  (94) 
{"free_energy": -9.11, "intermolecular_energy": -10.9, "internal_energy": -2.44, "cluster_size": 6, "cluster_id": 1, "rank_in_cluster": 6}

>  <energy>  (94) 
-7.87

>  <cluster_rmsd>  (94) 
1.05

>  <cluster>  (94) 
6

$$$$

     RDKit          3D

 65 69  0  0  1  0  0  0  0  0999 V2000
  134.6040   76.1650  223.9270 O   0  0  0  0  0  0  0  0  0  0  0  0
  135.3110   75.1000  223.9080 C   0  0  0  0  0  0  0  0  0  0  0  0
  136.5520   75.1410  223.1550 N   0  0  0  0  0  0  0  0  0  0  0  0
  136.8400   76.3740  222.5190 C   0  0  0  0  0  0  0  0  0  0  0  0
  138.1740   76.6960  222.0770 C   0  0  0  0  0  0  0  0  0  0  0  0
  138.3600   77.9930  221.9120 O   0  0  0  0  0  0  0  0  0  0  0  0
  139.3110   75.9240  221.7850 N   0  0  0  0  0  0  0  0  0  0  0  0
  140.7070   76.0150  222.1130 C   0  0  0  0  0  0  0  0  0  0  0  0
  141.3380   75.5540  220.7660 C   0  0  0  0  0  0  0  0  0  0  0  0
  140.5990   74.2390  220.6620 C   0  0  0  0  0  0  0  0  0  0  0  0
  139.1940   74.7070  220.9620 C   0  0  1  0  0  0  0  0  0  0  0  0
  138.4690   73.5900  221.5450 C   0  0  0  0  0  0  0  0  0  0  0  0
  137.2360   73.5020  221.1100 O   0  0  0  0  0  0  0  0  0  0  0  0
  138.8350   72.6140  222.4650 N   0  0  0  0  0  0  0  0  0  0  0  0
  140.1050   72.3970  223.0980 C   0  0  0  0  0  0  0  0  0  0  0  0
  140.3260   70.8980  223.2490 C   0  0  0  0  0  0  0  0  0  0  0  0
  139.3630   70.3450  224.2380 C   0  0  0  0  0  0  0  0  0  0  0  0
  139.9100   70.1350  225.5820 C   0  0  0  0  0  0  0  0  0  0  0  0
  139.9430   68.8290  226.0970 C   0  0  0  0  0  0  0  0  0  0  0  0
  140.4460   68.5680  227.3570 C   0  0  0  0  0  0  0  0  0  0  0  0
  140.9380   69.5660  228.1690 C   0  0  0  0  0  0  0  0  0  0  0  0
  140.9110   70.8470  227.6780 C   0  0  0  0  0  0  0  0  0  0  0  0
  140.4050   71.1080  226.4100 C   0  0  0  0  0  0  0  0  0  0  0  0
  138.0730   71.1380  224.2830 C   0  0  0  0  0  0  0  0  0  0  0  0
  137.7620   71.6690  222.8780 C   0  0  0  0  0  0  0  0  0  0  0  0
  134.9090   73.8870  224.6070 C   0  0  0  0  0  0  0  0  0  0  0  0
  134.2720   74.0480  225.8240 C   0  0  0  0  0  0  0  0  0  0  0  0
  133.8950   72.8940  226.5020 C   0  0  0  0  0  0  0  0  0  0  0  0
  134.1590   71.6510  225.9490 C   0  0  0  0  0  0  0  0  0  0  0  0
  133.7830   70.4970  226.6240 C   0  0  0  0  0  0  0  0  0  0  0  0
  134.0640   69.2540  226.0430 C   0  0  0  0  0  0  0  0  0  0  0  0
  134.6940   69.1440  224.8370 C   0  0  0  0  0  0  0  0  0  0  0  0
  135.0720   70.3000  224.1570 C   0  0  0  0  0  0  0  0  0  0  0  0
  134.7970   71.5310  224.7290 C   0  0  0  0  0  0  0  0  0  0  0  0
  135.1580   72.6630  224.0830 N   0  0  0  0  0  0  0  0  0  0  0  0
  137.0690   74.2610  223.1630 H   0  0  0  0  0  0  0  0  0  0  0  0
  136.1969   76.4221  221.6279 H   0  0  0  0  0  0  0  0  0  0  0  0
  136.6740   77.1028  223.3260 H   0  0  0  0  0  0  0  0  0  0  0  0
  140.9991   77.0443  222.3684 H   0  0  0  0  0  0  0  0  0  0  0  0
  141.0137   75.4274  222.9909 H   0  0  0  0  0  0  0  0  0  0  0  0
  141.1036   76.2361  219.9354 H   0  0  0  0  0  0  0  0  0  0  0  0
  142.4363   75.5080  220.7252 H   0  0  0  0  0  0  0  0  0  0  0  0
  140.6786   73.8039  219.6549 H   0  0  0  0  0  0  0  0  0  0  0  0
  140.9739   73.4420  221.3211 H   0  0  0  0  0  0  0  0  0  0  0  0
  138.6031   74.9991  220.0813 H   0  0  0  0  0  0  0  0  0  0  0  0
  140.9055   72.8286  222.4792 H   0  0  0  0  0  0  0  0  0  0  0  0
  140.1179   72.8790  224.0867 H   0  0  0  0  0  0  0  0  0  0  0  0
  140.1739   70.4065  222.2767 H   0  0  0  0  0  0  0  0  0  0  0  0
  141.3525   70.7153  223.5996 H   0  0  0  0  0  0  0  0  0  0  0  0
  139.1363   69.3368  223.8609 H   0  0  0  0  0  0  0  0  0  0  0  0
  139.5611   67.9981  225.4857 H   0  0  0  0  0  0  0  0  0  0  0  0
  140.4538   67.5308  227.7232 H   0  0  0  0  0  0  0  0  0  0  0  0
  141.3363   69.3450  229.1703 H   0  0  0  0  0  0  0  0  0  0  0  0
  141.2932   71.6748  228.2934 H   0  0  0  0  0  0  0  0  0  0  0  0
  140.4018   72.1485  226.0532 H   0  0  0  0  0  0  0  0  0  0  0  0
  137.2525   70.4881  224.6213 H   0  0  0  0  0  0  0  0  0  0  0  0
  138.1795   71.9801  224.9827 H   0  0  0  0  0  0  0  0  0  0  0  0
  137.7176   70.8295  222.1686 H   0  0  0  0  0  0  0  0  0  0  0  0
  136.7929   72.1894  222.8851 H   0  0  0  0  0  0  0  0  0  0  0  0
  134.0720   75.0472  226.2383 H   0  0  0  0  0  0  0  0  0  0  0  0
  133.3882   72.9676  227.4755 H   0  0  0  0  0  0  0  0  0  0  0  0
  133.2738   70.5581  227.5971 H   0  0  0  0  0  0  0  0  0  0  0  0
  133.7678   68.3379  226.5750 H   0  0  0  0  0  0  0  0  0  0  0  0
  134.9011   68.1531  224.4065 H   0  0  0  0  0  0  0  0  0  0  0  0
  135.5798   70.2360  223.1833 H   0  0  0  0  0  0  0  0  0  0  0  0
  1  2  2  0
  2  3  1  0
  3  4  1  0
  4  5  1  0
  5  6  2  0
  5  7  1  0
  7  8  1  0
  8  9  1  0
  9 10  1  0
 10 11  1  0
 11 12  1  0
 12 13  2  0
 12 14  1  0
 14 15  1  0
 15 16  1  0
 16 17  1  0
 17 18  1  0
 18 19  2  0
 19 20  1  0
 20 21  2  0
 21 22  1  0
 22 23  2  0
 17 24  1  0
 24 25  1  0
  2 26  1  0
 26 27  2  0
 27 28  1  0
 28 29  2  0
 29 30  1  0
 30 31  2  0
 31 32  1  0
 32 33  2  0
 33 34  1  0
 34 35  2  0
 11  7  1  0
 25 14  1  0
 35 26  1  0
 23 18  1  0
 34 29  1  0
  3 36  1  0
  4 37  1  0
  4 38  1  0
  8 39  1  0
  8 40  1  0
  9 41  1  0
  9 42  1  0
 10 43  1  0
 10 44  1  0
 11 45  1  6
 15 46  1  0
 15 47  1  0
 16 48  1  0
 16 49  1  0
 17 50  1  0
 19 51  1  0
 20 52  1  0
 21 53  1  0
 22 54  1  0
 23 55  1  0
 24 56  1  0
 24 57  1  0
 25 58  1  0
 25 59  1  0
 27 60  1  0
 28 61  1  0
 30 62  1  0
 31 63  1  0
 32 64  1  0
 33 65  1  0
M  END
>  <smiles>  (95) 
O=C(NCC(=O)N1CCCC1C(=O)N1CCC(c2ccccc2)CC1)c1ccc2ccccc2n1

>  <score_type>  (95) 
oracle

>  <origin>  (95) 
autodockgpu

>  <m_score__min__energy>  (95) 
-9.4900000000000002

>  <m_primary>  (95) 
energy

>  <rmsd>  (95) 
7.617649069348515

>  <m_score__min__rmsd>  (95) 
7.617649069348515

>  <meeko>  (95) 
{"free_energy": -7.91, "intermolecular_energy": -9.7, "internal_energy": -3.37, "cluster_size": 16, "cluster_id": 6, "rank_in_cluster": 14}

>  <energy>  (95) 
-8.04

>  <cluster_rmsd>  (95) 
0.0

>  <cluster>  (95) 
7

$$$$

     RDKit          3D

 65 69  0  0  1  0  0  0  0  0999 V2000
  135.2420   77.0020  223.7400 O   0  0  0  0  0  0  0  0  0  0  0  0
  135.5980   75.7750  223.7500 C   0  0  0  0  0  0  0  0  0  0  0  0
  136.6760   75.3900  222.8550 N   0  0  0  0  0  0  0  0  0  0  0  0
  137.2150   76.4340  222.0650 C   0  0  0  0  0  0  0  0  0  0  0  0
  138.6390   76.6290  221.9500 C   0  0  0  0  0  0  0  0  0  0  0  0
  139.0050   77.8790  222.1670 O   0  0  0  0  0  0  0  0  0  0  0  0
  139.7130   75.7730  221.6540 N   0  0  0  0  0  0  0  0  0  0  0  0
  141.1160   75.7640  221.9680 C   0  0  0  0  0  0  0  0  0  0  0  0
  141.6980   75.2460  220.6200 C   0  0  0  0  0  0  0  0  0  0  0  0
  140.8630   73.9880  220.5350 C   0  0  0  0  0  0  0  0  0  0  0  0
  139.4990   74.5610  220.8440 C   0  0  1  0  0  0  0  0  0  0  0  0
  138.7000   73.5050  221.4440 C   0  0  0  0  0  0  0  0  0  0  0  0
  137.4690   73.4820  220.9950 O   0  0  0  0  0  0  0  0  0  0  0  0
  138.9940   72.5320  222.3910 N   0  0  0  0  0  0  0  0  0  0  0  0
  140.2410   72.2530  223.0470 C   0  0  0  0  0  0  0  0  0  0  0  0
  140.3680   70.7470  223.2360 C   0  0  0  0  0  0  0  0  0  0  0  0
  139.3600   70.2790  224.2250 C   0  0  0  0  0  0  0  0  0  0  0  0
  139.8770   70.0690  225.5820 C   0  0  0  0  0  0  0  0  0  0  0  0
  139.8550   68.7710  226.1150 C   0  0  0  0  0  0  0  0  0  0  0  0
  140.3290   68.5100  227.3870 C   0  0  0  0  0  0  0  0  0  0  0  0
  140.8430   69.5020  228.1930 C   0  0  0  0  0  0  0  0  0  0  0  0
  140.8690   70.7760  227.6830 C   0  0  0  0  0  0  0  0  0  0  0  0
  140.3940   71.0360  226.4040 C   0  0  0  0  0  0  0  0  0  0  0  0
  138.1210   71.1510  224.2340 C   0  0  0  0  0  0  0  0  0  0  0  0
  137.8600   71.6650  222.8130 C   0  0  0  0  0  0  0  0  0  0  0  0
  134.9650   74.7880  224.6140 C   0  0  0  0  0  0  0  0  0  0  0  0
  134.1000   75.2660  225.5800 C   0  0  0  0  0  0  0  0  0  0  0  0
  133.5000   74.3310  226.4160 C   0  0  0  0  0  0  0  0  0  0  0  0
  133.7790   72.9830  226.2570 C   0  0  0  0  0  0  0  0  0  0  0  0
  133.1810   72.0470  227.0900 C   0  0  0  0  0  0  0  0  0  0  0  0
  133.4830   70.6910  226.9080 C   0  0  0  0  0  0  0  0  0  0  0  0
  134.3440   70.2650  225.9370 C   0  0  0  0  0  0  0  0  0  0  0  0
  134.9450   71.2020  225.1000 C   0  0  0  0  0  0  0  0  0  0  0  0
  134.6500   72.5430  225.2780 C   0  0  0  0  0  0  0  0  0  0  0  0
  135.2260   73.4660  224.4730 N   0  0  0  0  0  0  0  0  0  0  0  0
  136.9100   74.3970  222.8940 H   0  0  0  0  0  0  0  0  0  0  0  0
  136.8390   76.2768  221.0433 H   0  0  0  0  0  0  0  0  0  0  0  0
  136.8946   77.3344  222.6096 H   0  0  0  0  0  0  0  0  0  0  0  0
  141.4854   76.7713  222.2108 H   0  0  0  0  0  0  0  0  0  0  0  0
  141.3874   75.1631  222.8485 H   0  0  0  0  0  0  0  0  0  0  0  0
  141.5064   75.9362  219.7852 H   0  0  0  0  0  0  0  0  0  0  0  0
  142.7894   75.1187  220.5697 H   0  0  0  0  0  0  0  0  0  0  0  0
  140.9002   73.5397  219.5312 H   0  0  0  0  0  0  0  0  0  0  0  0
  141.1848   73.1712  221.1978 H   0  0  0  0  0  0  0  0  0  0  0  0
  138.9223   74.8885  219.9664 H   0  0  0  0  0  0  0  0  0  0  0  0
  141.0741   72.6200  222.4296 H   0  0  0  0  0  0  0  0  0  0  0  0
  140.2709   72.7569  224.0243 H   0  0  0  0  0  0  0  0  0  0  0  0
  140.1979   70.2421  222.2736 H   0  0  0  0  0  0  0  0  0  0  0  0
  141.3770   70.5099  223.6042 H   0  0  0  0  0  0  0  0  0  0  0  0
  139.0757   69.2779  223.8685 H   0  0  0  0  0  0  0  0  0  0  0  0
  139.4529   67.9456  225.5091 H   0  0  0  0  0  0  0  0  0  0  0  0
  140.2947   67.4784  227.7674 H   0  0  0  0  0  0  0  0  0  0  0  0
  141.2172   69.2821  229.2037 H   0  0  0  0  0  0  0  0  0  0  0  0
  141.2698   71.5989  228.2930 H   0  0  0  0  0  0  0  0  0  0  0  0
  140.4348   72.0704  226.0320 H   0  0  0  0  0  0  0  0  0  0  0  0
  137.2580   70.5615  224.5770 H   0  0  0  0  0  0  0  0  0  0  0  0
  138.2712   72.0020  224.9146 H   0  0  0  0  0  0  0  0  0  0  0  0
  137.7722   70.8124  222.1235 H   0  0  0  0  0  0  0  0  0  0  0  0
  136.9250   72.2441  222.7950 H   0  0  0  0  0  0  0  0  0  0  0  0
  133.8947   76.3417  225.6832 H   0  0  0  0  0  0  0  0  0  0  0  0
  132.8050   74.6608  227.2023 H   0  0  0  0  0  0  0  0  0  0  0  0
  132.4828   72.3643  227.8785 H   0  0  0  0  0  0  0  0  0  0  0  0
  133.0123   69.9468  227.5672 H   0  0  0  0  0  0  0  0  0  0  0  0
  134.5604   69.1932  225.8173 H   0  0  0  0  0  0  0  0  0  0  0  0
  135.6419   70.8822  224.3113 H   0  0  0  0  0  0  0  0  0  0  0  0
  1  2  2  0
  2  3  1  0
  3  4  1  0
  4  5  1  0
  5  6  2  0
  5  7  1  0
  7  8  1  0
  8  9  1  0
  9 10  1  0
 10 11  1  0
 11 12  1  0
 12 13  2  0
 12 14  1  0
 14 15  1  0
 15 16  1  0
 16 17  1  0
 17 18  1  0
 18 19  2  0
 19 20  1  0
 20 21  2  0
 21 22  1  0
 22 23  2  0
 17 24  1  0
 24 25  1  0
  2 26  1  0
 26 27  2  0
 27 28  1  0
 28 29  2  0
 29 30  1  0
 30 31  2  0
 31 32  1  0
 32 33  2  0
 33 34  1  0
 34 35  2  0
 11  7  1  0
 25 14  1  0
 35 26  1  0
 23 18  1  0
 34 29  1  0
  3 36  1  0
  4 37  1  0
  4 38  1  0
  8 39  1  0
  8 40  1  0
  9 41  1  0
  9 42  1  0
 10 43  1  0
 10 44  1  0
 11 45  1  6
 15 46  1  0
 15 47  1  0
 16 48  1  0
 16 49  1  0
 17 50  1  0
 19 51  1  0
 20 52  1  0
 21 53  1  0
 22 54  1  0
 23 55  1  0
 24 56  1  0
 24 57  1  0
 25 58  1  0
 25 59  1  0
 27 60  1  0
 28 61  1  0
 30 62  1  0
 31 63  1  0
 32 64  1  0
 33 65  1  0
M  END
>  <smiles>  (96) 
O=C(NCC(=O)N1CCCC1C(=O)N1CCC(c2ccccc2)CC1)c1ccc2ccccc2n1

>  <score_type>  (96) 
oracle

>  <origin>  (96) 
autodockgpu

>  <m_score__min__energy>  (96) 
-9.4900000000000002

>  <m_primary>  (96) 
energy

>  <rmsd>  (96) 
7.808943335334224

>  <m_score__min__rmsd>  (96) 
7.808943335334224

>  <meeko>  (96) 
{"free_energy": -8.13, "intermolecular_energy": -9.92, "internal_energy": -3.38, "cluster_size": 16, "cluster_id": 6, "rank_in_cluster": 7}

>  <energy>  (96) 
-7.95

>  <cluster_rmsd>  (96) 
0.09

>  <cluster>  (96) 
7

$$$$

     RDKit          3D

 65 69  0  0  1  0  0  0  0  0999 V2000
  139.8210   71.3620  221.2530 O   0  0  0  0  0  0  0  0  0  0  0  0
  139.7770   71.9840  222.3690 C   0  0  0  0  0  0  0  0  0  0  0  0
  139.5490   73.4180  222.3200 N   0  0  0  0  0  0  0  0  0  0  0  0
  139.4000   73.9680  221.0230 C   0  0  0  0  0  0  0  0  0  0  0  0
  139.5410   75.3840  220.7890 C   0  0  0  0  0  0  0  0  0  0  0  0
  138.6970   75.8410  219.8820 O   0  0  0  0  0  0  0  0  0  0  0  0
  140.3860   76.3740  221.3190 N   0  0  0  0  0  0  0  0  0  0  0  0
  140.8330   76.7210  222.6410 C   0  0  0  0  0  0  0  0  0  0  0  0
  140.8100   78.2750  222.5410 C   0  0  0  0  0  0  0  0  0  0  0  0
  141.6900   78.3890  221.3160 C   0  0  0  0  0  0  0  0  0  0  0  0
  141.0360   77.3530  220.4300 C   0  0  1  0  0  0  0  0  0  0  0  0
  142.0500   76.8410  219.5230 C   0  0  0  0  0  0  0  0  0  0  0  0
  142.2960   77.6530  218.5250 O   0  0  0  0  0  0  0  0  0  0  0  0
  142.7950   75.6670  219.5190 N   0  0  0  0  0  0  0  0  0  0  0  0
  142.8040   74.5960  220.4750 C   0  0  0  0  0  0  0  0  0  0  0  0
  144.2260   74.0640  220.5980 C   0  0  0  0  0  0  0  0  0  0  0  0
  144.6190   73.3850  219.3350 C   0  0  0  0  0  0  0  0  0  0  0  0
  144.5180   71.9220  219.3610 C   0  0  0  0  0  0  0  0  0  0  0  0
  145.6510   71.1640  219.0290 C   0  0  0  0  0  0  0  0  0  0  0  0
  145.6190   69.7830  219.0360 C   0  0  0  0  0  0  0  0  0  0  0  0
  144.4810   69.0810  219.3680 C   0  0  0  0  0  0  0  0  0  0  0  0
  143.3650   69.8100  219.6950 C   0  0  0  0  0  0  0  0  0  0  0  0
  143.4000   71.1990  219.6880 C   0  0  0  0  0  0  0  0  0  0  0  0
  143.9080   73.9670  218.1290 C   0  0  0  0  0  0  0  0  0  0  0  0
  143.6950   75.4690  218.3500 C   0  0  0  0  0  0  0  0  0  0  0  0
  139.9450   71.3040  223.6450 C   0  0  0  0  0  0  0  0  0  0  0  0
  139.5890   69.9690  223.6940 C   0  0  0  0  0  0  0  0  0  0  0  0
  139.7360   69.3150  224.9130 C   0  0  0  0  0  0  0  0  0  0  0  0
  140.2250   70.0040  226.0110 C   0  0  0  0  0  0  0  0  0  0  0  0
  140.3720   69.3540  227.2290 C   0  0  0  0  0  0  0  0  0  0  0  0
  140.8680   70.0750  228.3240 C   0  0  0  0  0  0  0  0  0  0  0  0
  141.2080   71.3950  228.2270 C   0  0  0  0  0  0  0  0  0  0  0  0
  141.0610   72.0490  227.0060 C   0  0  0  0  0  0  0  0  0  0  0  0
  140.5710   71.3400  225.9230 C   0  0  0  0  0  0  0  0  0  0  0  0
  140.4210   71.9600  224.7300 N   0  0  0  0  0  0  0  0  0  0  0  0
  139.5370   73.8650  223.2370 H   0  0  0  0  0  0  0  0  0  0  0  0
  140.1472   73.4714  220.3865 H   0  0  0  0  0  0  0  0  0  0  0  0
  138.3342   73.7962  220.8120 H   0  0  0  0  0  0  0  0  0  0  0  0
  140.1429   76.3523  223.4142 H   0  0  0  0  0  0  0  0  0  0  0  0
  141.8044   76.2915  222.9271 H   0  0  0  0  0  0  0  0  0  0  0  0
  139.7981   78.6716  222.3716 H   0  0  0  0  0  0  0  0  0  0  0  0
  141.1308   78.8324  223.4334 H   0  0  0  0  0  0  0  0  0  0  0  0
  141.6442   79.3943  220.8719 H   0  0  0  0  0  0  0  0  0  0  0  0
  142.7634   78.2331  221.4989 H   0  0  0  0  0  0  0  0  0  0  0  0
  140.2389   77.7364  219.7760 H   0  0  0  0  0  0  0  0  0  0  0  0
  142.4623   74.9688  221.4519 H   0  0  0  0  0  0  0  0  0  0  0  0
  142.1301   73.7921  220.1440 H   0  0  0  0  0  0  0  0  0  0  0  0
  144.9135   74.9003  220.7926 H   0  0  0  0  0  0  0  0  0  0  0  0
  144.2747   73.3443  221.4285 H   0  0  0  0  0  0  0  0  0  0  0  0
  145.6944   73.5954  219.2388 H   0  0  0  0  0  0  0  0  0  0  0  0
  146.5838   71.6799  218.7576 H   0  0  0  0  0  0  0  0  0  0  0  0
  146.5296   69.2270  218.7684 H   0  0  0  0  0  0  0  0  0  0  0  0
  144.4674   67.9811  219.3709 H   0  0  0  0  0  0  0  0  0  0  0  0
  142.4342   69.2898  219.9652 H   0  0  0  0  0  0  0  0  0  0  0  0
  142.4847   71.7460  219.9584 H   0  0  0  0  0  0  0  0  0  0  0  0
  144.5206   73.8102  217.2289 H   0  0  0  0  0  0  0  0  0  0  0  0
  142.9357   73.4700  217.9960 H   0  0  0  0  0  0  0  0  0  0  0  0
  144.6632   75.9536  218.5444 H   0  0  0  0  0  0  0  0  0  0  0  0
  143.2404   75.9146  217.4529 H   0  0  0  0  0  0  0  0  0  0  0  0
  139.2054   69.4456  222.8058 H   0  0  0  0  0  0  0  0  0  0  0  0
  139.4645   68.2530  225.0049 H   0  0  0  0  0  0  0  0  0  0  0  0
  140.1040   68.2922  227.3329 H   0  0  0  0  0  0  0  0  0  0  0  0
  140.9871   69.5629  229.2902 H   0  0  0  0  0  0  0  0  0  0  0  0
  141.5937   71.9354  229.1040 H   0  0  0  0  0  0  0  0  0  0  0  0
  141.3298   73.1108  226.9042 H   0  0  0  0  0  0  0  0  0  0  0  0
  1  2  2  0
  2  3  1  0
  3  4  1  0
  4  5  1  0
  5  6  2  0
  5  7  1  0
  7  8  1  0
  8  9  1  0
  9 10  1  0
 10 11  1  0
 11 12  1  0
 12 13  2  0
 12 14  1  0
 14 15  1  0
 15 16  1  0
 16 17  1  0
 17 18  1  0
 18 19  2  0
 19 20  1  0
 20 21  2  0
 21 22  1  0
 22 23  2  0
 17 24  1  0
 24 25  1  0
  2 26  1  0
 26 27  2  0
 27 28  1  0
 28 29  2  0
 29 30  1  0
 30 31  2  0
 31 32  1  0
 32 33  2  0
 33 34  1  0
 34 35  2  0
 11  7  1  0
 25 14  1  0
 35 26  1  0
 23 18  1  0
 34 29  1  0
  3 36  1  0
  4 37  1  0
  4 38  1  0
  8 39  1  0
  8 40  1  0
  9 41  1  0
  9 42  1  0
 10 43  1  0
 10 44  1  0
 11 45  1  6
 15 46  1  0
 15 47  1  0
 16 48  1  0
 16 49  1  0
 17 50  1  0
 19 51  1  0
 20 52  1  0
 21 53  1  0
 22 54  1  0
 23 55  1  0
 24 56  1  0
 24 57  1  0
 25 58  1  0
 25 59  1  0
 27 60  1  0
 28 61  1  0
 30 62  1  0
 31 63  1  0
 32 64  1  0
 33 65  1  0
M  END
>  <smiles>  (97) 
O=C(NCC(=O)N1CCCC1C(=O)N1CCC(c2ccccc2)CC1)c1ccc2ccccc2n1

>  <score_type>  (97) 
oracle

>  <origin>  (97) 
autodockgpu

>  <m_score__min__energy>  (97) 
-9.4900000000000002

>  <m_primary>  (97) 
energy

>  <rmsd>  (97) 
5.690434088331239

>  <m_score__min__rmsd>  (97) 
5.690434088331239

>  <meeko>  (97) 
{"free_energy": -8.99, "intermolecular_energy": -10.78, "internal_energy": -2.4, "cluster_size": 6, "cluster_id": 2, "rank_in_cluster": 4}

>  <energy>  (97) 
-6.94

>  <cluster_rmsd>  (97) 
1.63

>  <cluster>  (97) 
7

$$$$

     RDKit          3D

 65 69  0  0  1  0  0  0  0  0999 V2000
  140.9440   71.8190  221.3400 O   0  0  0  0  0  0  0  0  0  0  0  0
  140.2600   72.1920  222.3530 C   0  0  0  0  0  0  0  0  0  0  0  0
  139.5360   73.4460  222.2380 N   0  0  0  0  0  0  0  0  0  0  0  0
  139.6740   74.1190  220.9990 C   0  0  0  0  0  0  0  0  0  0  0  0
  139.6620   75.5590  220.9220 C   0  0  0  0  0  0  0  0  0  0  0  0
  138.6050   76.0300  220.2840 O   0  0  0  0  0  0  0  0  0  0  0  0
  140.5340   76.5610  221.3790 N   0  0  0  0  0  0  0  0  0  0  0  0
  141.0620   76.9340  222.6630 C   0  0  0  0  0  0  0  0  0  0  0  0
  141.0290   78.4860  222.5350 C   0  0  0  0  0  0  0  0  0  0  0  0
  141.8290   78.5780  221.2550 C   0  0  0  0  0  0  0  0  0  0  0  0
  141.1250   77.5240  220.4320 C   0  0  1  0  0  0  0  0  0  0  0  0
  142.0810   76.9960  219.4730 C   0  0  0  0  0  0  0  0  0  0  0  0
  142.2330   77.7710  218.4280 O   0  0  0  0  0  0  0  0  0  0  0  0
  142.8520   75.8400  219.4600 N   0  0  0  0  0  0  0  0  0  0  0  0
  142.9580   74.8100  220.4550 C   0  0  0  0  0  0  0  0  0  0  0  0
  144.3970   74.3130  220.4930 C   0  0  0  0  0  0  0  0  0  0  0  0
  144.7130   73.5910  219.2320 C   0  0  0  0  0  0  0  0  0  0  0  0
  144.6500   72.1290  219.3240 C   0  0  0  0  0  0  0  0  0  0  0  0
  143.5220   71.5410  219.9190 C   0  0  0  0  0  0  0  0  0  0  0  0
  143.4050   70.1700  220.0340 C   0  0  0  0  0  0  0  0  0  0  0  0
  144.3810   69.3120  219.5760 C   0  0  0  0  0  0  0  0  0  0  0  0
  145.4890   69.8740  218.9940 C   0  0  0  0  0  0  0  0  0  0  0  0
  145.6050   71.2530  218.8780 C   0  0  0  0  0  0  0  0  0  0  0  0
  143.9020   74.1070  218.0600 C   0  0  0  0  0  0  0  0  0  0  0  0
  143.6690   75.6120  218.2360 C   0  0  0  0  0  0  0  0  0  0  0  0
  140.1940   71.4100  223.5790 C   0  0  0  0  0  0  0  0  0  0  0  0
  139.6360   70.1480  223.4870 C   0  0  0  0  0  0  0  0  0  0  0  0
  139.5590   69.3990  224.6560 C   0  0  0  0  0  0  0  0  0  0  0  0
  140.0360   69.9250  225.8460 C   0  0  0  0  0  0  0  0  0  0  0  0
  139.9620   69.1790  227.0140 C   0  0  0  0  0  0  0  0  0  0  0  0
  140.4500   69.7370  228.2040 C   0  0  0  0  0  0  0  0  0  0  0  0
  140.9950   70.9890  228.2460 C   0  0  0  0  0  0  0  0  0  0  0  0
  141.0720   71.7390  227.0750 C   0  0  0  0  0  0  0  0  0  0  0  0
  140.5890   71.1920  225.8980 C   0  0  0  0  0  0  0  0  0  0  0  0
  140.6550   71.9070  224.7520 N   0  0  0  0  0  0  0  0  0  0  0  0
  139.0180   73.7030  223.0790 H   0  0  0  0  0  0  0  0  0  0  0  0
  140.6343   73.7927  220.5730 H   0  0  0  0  0  0  0  0  0  0  0  0
  138.7467   73.8448  220.4746 H   0  0  0  0  0  0  0  0  0  0  0  0
  140.4227   76.5794  223.4849 H   0  0  0  0  0  0  0  0  0  0  0  0
  142.0506   76.5113  222.8956 H   0  0  0  0  0  0  0  0  0  0  0  0
  140.0074   78.8781  222.4227 H   0  0  0  0  0  0  0  0  0  0  0  0
  141.4046   79.0606  223.3946 H   0  0  0  0  0  0  0  0  0  0  0  0
  141.7516   79.5744  220.7955 H   0  0  0  0  0  0  0  0  0  0  0  0
  142.9123   78.4279  221.3729 H   0  0  0  0  0  0  0  0  0  0  0  0
  140.2879   77.8935  219.8215 H   0  0  0  0  0  0  0  0  0  0  0  0
  142.6807   75.2161  221.4390 H   0  0  0  0  0  0  0  0  0  0  0  0
  142.2812   73.9790  220.2073 H   0  0  0  0  0  0  0  0  0  0  0  0
  145.0769   75.1706  220.6032 H   0  0  0  0  0  0  0  0  0  0  0  0
  144.5230   73.6288  221.3451 H   0  0  0  0  0  0  0  0  0  0  0  0
  145.7729   73.8205  219.0476 H   0  0  0  0  0  0  0  0  0  0  0  0
  142.7161   72.1850  220.3008 H   0  0  0  0  0  0  0  0  0  0  0  0
  142.5046   69.7497  220.5059 H   0  0  0  0  0  0  0  0  0  0  0  0
  144.2761   68.2213  219.6730 H   0  0  0  0  0  0  0  0  0  0  0  0
  146.2933   69.2260  218.6156 H   0  0  0  0  0  0  0  0  0  0  0  0
  146.5091   71.6629  218.4042 H   0  0  0  0  0  0  0  0  0  0  0  0
  144.4508   73.9261  217.1240 H   0  0  0  0  0  0  0  0  0  0  0  0
  142.9350   73.5843  218.0193 H   0  0  0  0  0  0  0  0  0  0  0  0
  144.6367   76.1248  218.3385 H   0  0  0  0  0  0  0  0  0  0  0  0
  143.1390   76.0096  217.3579 H   0  0  0  0  0  0  0  0  0  0  0  0
  139.2682   69.7530  222.5285 H   0  0  0  0  0  0  0  0  0  0  0  0
  139.1202   68.3905  224.6362 H   0  0  0  0  0  0  0  0  0  0  0  0
  139.5283   68.1681  227.0062 H   0  0  0  0  0  0  0  0  0  0  0  0
  140.3923   69.1490  229.1318 H   0  0  0  0  0  0  0  0  0  0  0  0
  141.3692   71.4005  229.1950 H   0  0  0  0  0  0  0  0  0  0  0  0
  141.5090   72.7484  227.0848 H   0  0  0  0  0  0  0  0  0  0  0  0
  1  2  2  0
  2  3  1  0
  3  4  1  0
  4  5  1  0
  5  6  2  0
  5  7  1  0
  7  8  1  0
  8  9  1  0
  9 10  1  0
 10 11  1  0
 11 12  1  0
 12 13  2  0
 12 14  1  0
 14 15  1  0
 15 16  1  0
 16 17  1  0
 17 18  1  0
 18 19  2  0
 19 20  1  0
 20 21  2  0
 21 22  1  0
 22 23  2  0
 17 24  1  0
 24 25  1  0
  2 26  1  0
 26 27  2  0
 27 28  1  0
 28 29  2  0
 29 30  1  0
 30 31  2  0
 31 32  1  0
 32 33  2  0
 33 34  1  0
 34 35  2  0
 11  7  1  0
 25 14  1  0
 35 26  1  0
 23 18  1  0
 34 29  1  0
  3 36  1  0
  4 37  1  0
  4 38  1  0
  8 39  1  0
  8 40  1  0
  9 41  1  0
  9 42  1  0
 10 43  1  0
 10 44  1  0
 11 45  1  6
 15 46  1  0
 15 47  1  0
 16 48  1  0
 16 49  1  0
 17 50  1  0
 19 51  1  0
 20 52  1  0
 21 53  1  0
 22 54  1  0
 23 55  1  0
 24 56  1  0
 24 57  1  0
 25 58  1  0
 25 59  1  0
 27 60  1  0
 28 61  1  0
 30 62  1  0
 31 63  1  0
 32 64  1  0
 33 65  1  0
M  END
>  <smiles>  (98) 
O=C(NCC(=O)N1CCCC1C(=O)N1CCC(c2ccccc2)CC1)c1ccc2ccccc2n1

>  <score_type>  (98) 
oracle

>  <origin>  (98) 
autodockgpu

>  <m_score__min__energy>  (98) 
-9.4900000000000002

>  <m_primary>  (98) 
energy

>  <rmsd>  (98) 
5.4770987326637455

>  <m_score__min__rmsd>  (98) 
5.4770987326637455

>  <meeko>  (98) 
{"free_energy": -9.24, "intermolecular_energy": -11.03, "internal_energy": -2.34, "cluster_size": 6, "cluster_id": 2, "rank_in_cluster": 1}

>  <energy>  (98) 
-6.92

>  <cluster_rmsd>  (98) 
1.63

>  <cluster>  (98) 
7

$$$$

     RDKit          3D

 65 69  0  0  1  0  0  0  0  0999 V2000
  141.3990   72.4840  221.7420 O   0  0  0  0  0  0  0  0  0  0  0  0
  140.3530   72.4740  222.4770 C   0  0  0  0  0  0  0  0  0  0  0  0
  139.2960   73.4110  222.1380 N   0  0  0  0  0  0  0  0  0  0  0  0
  139.5500   74.2390  221.0170 C   0  0  0  0  0  0  0  0  0  0  0  0
  139.5030   75.6760  221.1190 C   0  0  0  0  0  0  0  0  0  0  0  0
  138.3330   76.1780  220.7690 O   0  0  0  0  0  0  0  0  0  0  0  0
  140.4370   76.6500  221.5110 N   0  0  0  0  0  0  0  0  0  0  0  0
  141.0660   77.0080  222.7530 C   0  0  0  0  0  0  0  0  0  0  0  0
  141.0720   78.5600  222.6230 C   0  0  0  0  0  0  0  0  0  0  0  0
  141.7830   78.6260  221.2890 C   0  0  0  0  0  0  0  0  0  0  0  0
  140.9890   77.5940  220.5220 C   0  0  1  0  0  0  0  0  0  0  0  0
  141.8580   77.0350  219.4990 C   0  0  0  0  0  0  0  0  0  0  0  0
  141.8960   77.7650  218.4120 O   0  0  0  0  0  0  0  0  0  0  0  0
  142.6430   75.8890  219.4620 N   0  0  0  0  0  0  0  0  0  0  0  0
  142.8600   74.9060  220.4860 C   0  0  0  0  0  0  0  0  0  0  0  0
  144.3050   74.4290  220.4070 C   0  0  0  0  0  0  0  0  0  0  0  0
  144.5100   73.6550  219.1540 C   0  0  0  0  0  0  0  0  0  0  0  0
  144.4810   72.1980  219.3160 C   0  0  0  0  0  0  0  0  0  0  0  0
  143.2690   71.5860  219.6750 C   0  0  0  0  0  0  0  0  0  0  0  0
  143.1780   70.2180  219.8410 C   0  0  0  0  0  0  0  0  0  0  0  0
  144.2630   69.3870  219.6660 C   0  0  0  0  0  0  0  0  0  0  0  0
  145.4540   69.9720  219.3150 C   0  0  0  0  0  0  0  0  0  0  0  0
  145.5430   71.3490  219.1470 C   0  0  0  0  0  0  0  0  0  0  0  0
  143.5830   74.1080  218.0450 C   0  0  0  0  0  0  0  0  0  0  0  0
  143.3430   75.6170  218.1770 C   0  0  0  0  0  0  0  0  0  0  0  0
  140.2070   71.5700  223.6090 C   0  0  0  0  0  0  0  0  0  0  0  0
  139.5390   70.3820  223.3780 C   0  0  0  0  0  0  0  0  0  0  0  0
  139.3860   69.5180  224.4570 C   0  0  0  0  0  0  0  0  0  0  0  0
  139.8960   69.8660  225.6970 C   0  0  0  0  0  0  0  0  0  0  0  0
  139.7450   69.0050  226.7760 C   0  0  0  0  0  0  0  0  0  0  0  0
  140.2690   69.3820  228.0200 C   0  0  0  0  0  0  0  0  0  0  0  0
  140.9230   70.5680  228.2000 C   0  0  0  0  0  0  0  0  0  0  0  0
  141.0770   71.4330  227.1190 C   0  0  0  0  0  0  0  0  0  0  0  0
  140.5590   71.0640  225.8890 C   0  0  0  0  0  0  0  0  0  0  0  0
  140.6990   71.8930  224.8290 N   0  0  0  0  0  0  0  0  0  0  0  0
  138.4910   73.3700  222.7640 H   0  0  0  0  0  0  0  0  0  0  0  0
  140.5611   73.9852  220.6658 H   0  0  0  0  0  0  0  0  0  0  0  0
  138.6950   74.0193  220.3607 H   0  0  0  0  0  0  0  0  0  0  0  0
  140.4760   76.6742  223.6193 H   0  0  0  0  0  0  0  0  0  0  0  0
  142.0551   76.5553  222.9161 H   0  0  0  0  0  0  0  0  0  0  0  0
  140.0576   78.9835  222.5814 H   0  0  0  0  0  0  0  0  0  0  0  0
  141.5245   79.1234  223.4523 H   0  0  0  0  0  0  0  0  0  0  0  0
  141.7049   79.6239  220.8329 H   0  0  0  0  0  0  0  0  0  0  0  0
  142.8668   78.4424  221.3302 H   0  0  0  0  0  0  0  0  0  0  0  0
  140.1222   77.9897  219.9724 H   0  0  0  0  0  0  0  0  0  0  0  0
  142.6710   75.3522  221.4735 H   0  0  0  0  0  0  0  0  0  0  0  0
  142.1764   74.0565  220.3409 H   0  0  0  0  0  0  0  0  0  0  0  0
  144.9780   75.2990  220.4135 H   0  0  0  0  0  0  0  0  0  0  0  0
  144.5239   73.7859  221.2721 H   0  0  0  0  0  0  0  0  0  0  0  0
  145.5431   73.8887  218.8574 H   0  0  0  0  0  0  0  0  0  0  0  0
  142.3748   72.2084  219.8269 H   0  0  0  0  0  0  0  0  0  0  0  0
  142.2095   69.7783  220.1216 H   0  0  0  0  0  0  0  0  0  0  0  0
  144.1782   68.2988  219.8021 H   0  0  0  0  0  0  0  0  0  0  0  0
  146.3458   69.3457  219.1653 H   0  0  0  0  0  0  0  0  0  0  0  0
  146.5152   71.7788  218.8641 H   0  0  0  0  0  0  0  0  0  0  0  0
  144.0427   73.8920  217.0693 H   0  0  0  0  0  0  0  0  0  0  0  0
  142.6252   73.5723  218.1204 H   0  0  0  0  0  0  0  0  0  0  0  0
  144.3075   76.1458  218.1640 H   0  0  0  0  0  0  0  0  0  0  0  0
  142.7255   75.9685  217.3373 H   0  0  0  0  0  0  0  0  0  0  0  0
  139.1449   70.1305  222.3823 H   0  0  0  0  0  0  0  0  0  0  0  0
  138.8611   68.5602  224.3260 H   0  0  0  0  0  0  0  0  0  0  0  0
  139.2233   68.0440  226.6564 H   0  0  0  0  0  0  0  0  0  0  0  0
  140.1502   68.7028  228.8770 H   0  0  0  0  0  0  0  0  0  0  0  0
  141.3238   70.8370  229.1884 H   0  0  0  0  0  0  0  0  0  0  0  0
  141.6010   72.3925  227.2404 H   0  0  0  0  0  0  0  0  0  0  0  0
  1  2  2  0
  2  3  1  0
  3  4  1  0
  4  5  1  0
  5  6  2  0
  5  7  1  0
  7  8  1  0
  8  9  1  0
  9 10  1  0
 10 11  1  0
 11 12  1  0
 12 13  2  0
 12 14  1  0
 14 15  1  0
 15 16  1  0
 16 17  1  0
 17 18  1  0
 18 19  2  0
 19 20  1  0
 20 21  2  0
 21 22  1  0
 22 23  2  0
 17 24  1  0
 24 25  1  0
  2 26  1  0
 26 27  2  0
 27 28  1  0
 28 29  2  0
 29 30  1  0
 30 31  2  0
 31 32  1  0
 32 33  2  0
 33 34  1  0
 34 35  2  0
 11  7  1  0
 25 14  1  0
 35 26  1  0
 23 18  1  0
 34 29  1  0
  3 36  1  0
  4 37  1  0
  4 38  1  0
  8 39  1  0
  8 40  1  0
  9 41  1  0
  9 42  1  0
 10 43  1  0
 10 44  1  0
 11 45  1  6
 15 46  1  0
 15 47  1  0
 16 48  1  0
 16 49  1  0
 17 50  1  0
 19 51  1  0
 20 52  1  0
 21 53  1  0
 22 54  1  0
 23 55  1  0
 24 56  1  0
 24 57  1  0
 25 58  1  0
 25 59  1  0
 27 60  1  0
 28 61  1  0
 30 62  1  0
 31 63  1  0
 32 64  1  0
 33 65  1  0
M  END
>  <smiles>  (99) 
O=C(NCC(=O)N1CCCC1C(=O)N1CCC(c2ccccc2)CC1)c1ccc2ccccc2n1

>  <score_type>  (99) 
oracle

>  <origin>  (99) 
autodockgpu

>  <m_score__min__energy>  (99) 
-9.4900000000000002

>  <m_primary>  (99) 
energy

>  <rmsd>  (99) 
5.449394063626859

>  <m_score__min__rmsd>  (99) 
5.449394063626859

>  <meeko>  (99) 
{"free_energy": -9.09, "intermolecular_energy": -10.88, "internal_energy": -2.39, "cluster_size": 6, "cluster_id": 2, "rank_in_cluster": 3}

>  <energy>  (99) 
-6.84

>  <cluster_rmsd>  (99) 
1.67

>  <cluster>  (99) 
7

$$$$

     RDKit          3D

 65 69  0  0  1  0  0  0  0  0999 V2000
  135.3170   76.7450  224.3070 O   0  0  0  0  0  0  0  0  0  0  0  0
  135.6480   75.5260  224.1110 C   0  0  0  0  0  0  0  0  0  0  0  0
  136.7150   75.2740  223.1580 N   0  0  0  0  0  0  0  0  0  0  0  0
  137.2730   76.4240  222.5480 C   0  0  0  0  0  0  0  0  0  0  0  0
  138.6960   76.5550  222.3560 C   0  0  0  0  0  0  0  0  0  0  0  0
  139.1960   77.6290  222.9380 O   0  0  0  0  0  0  0  0  0  0  0  0
  139.6570   75.7830  221.6800 N   0  0  0  0  0  0  0  0  0  0  0  0
  141.0930   75.7650  221.6390 C   0  0  0  0  0  0  0  0  0  0  0  0
  141.3230   75.4740  220.1260 C   0  0  0  0  0  0  0  0  0  0  0  0
  140.4800   74.2200  220.0540 C   0  0  0  0  0  0  0  0  0  0  0  0
  139.2390   74.7020  220.7690 C   0  0  1  0  0  0  0  0  0  0  0  0
  138.6000   73.5460  221.3760 C   0  0  0  0  0  0  0  0  0  0  0  0
  137.4080   73.3100  220.8870 O   0  0  0  0  0  0  0  0  0  0  0  0
  139.0120   72.6600  222.3640 N   0  0  0  0  0  0  0  0  0  0  0  0
  140.2610   72.6070  223.0710 C   0  0  0  0  0  0  0  0  0  0  0  0
  140.6240   71.1480  223.3140 C   0  0  0  0  0  0  0  0  0  0  0  0
  139.6680   70.5480  224.2830 C   0  0  0  0  0  0  0  0  0  0  0  0
  140.1590   70.4620  225.6620 C   0  0  0  0  0  0  0  0  0  0  0  0
  140.1570   69.2110  226.2990 C   0  0  0  0  0  0  0  0  0  0  0  0
  140.6070   69.0660  227.5970 C   0  0  0  0  0  0  0  0  0  0  0  0
  141.0780   70.1340  228.3300 C   0  0  0  0  0  0  0  0  0  0  0  0
  141.0860   71.3620  227.7190 C   0  0  0  0  0  0  0  0  0  0  0  0
  140.6330   71.5060  226.4130 C   0  0  0  0  0  0  0  0  0  0  0  0
  138.3040   71.2050  224.2210 C   0  0  0  0  0  0  0  0  0  0  0  0
  138.0190   71.6300  222.7760 C   0  0  0  0  0  0  0  0  0  0  0  0
  134.9970   74.4220  224.8030 C   0  0  0  0  0  0  0  0  0  0  0  0
  134.0430   74.7520  225.7480 C   0  0  0  0  0  0  0  0  0  0  0  0
  133.4250   73.7030  226.4210 C   0  0  0  0  0  0  0  0  0  0  0  0
  133.7730   72.3940  226.1280 C   0  0  0  0  0  0  0  0  0  0  0  0
  133.1580   71.3460  226.7980 C   0  0  0  0  0  0  0  0  0  0  0  0
  133.5300   70.0320  226.4830 C   0  0  0  0  0  0  0  0  0  0  0  0
  134.4780   69.7550  225.5400 C   0  0  0  0  0  0  0  0  0  0  0  0
  135.0970   70.8050  224.8660 C   0  0  0  0  0  0  0  0  0  0  0  0
  134.7320   72.1040  225.1750 C   0  0  0  0  0  0  0  0  0  0  0  0
  135.3240   73.1360  224.5300 N   0  0  0  0  0  0  0  0  0  0  0  0
  136.9290   74.2840  223.0300 H   0  0  0  0  0  0  0  0  0  0  0  0
  136.8161   76.4996  221.5502 H   0  0  0  0  0  0  0  0  0  0  0  0
  137.0584   77.2123  223.2846 H   0  0  0  0  0  0  0  0  0  0  0  0
  141.5211   76.7334  221.9371 H   0  0  0  0  0  0  0  0  0  0  0  0
  141.5648   75.0450  222.3239 H   0  0  0  0  0  0  0  0  0  0  0  0
  140.9400   76.2771  219.4793 H   0  0  0  0  0  0  0  0  0  0  0  0
  142.3677   75.3867  219.7930 H   0  0  0  0  0  0  0  0  0  0  0  0
  140.2665   73.9299  219.0147 H   0  0  0  0  0  0  0  0  0  0  0  0
  140.9455   73.3214  220.4850 H   0  0  0  0  0  0  0  0  0  0  0  0
  138.4694   75.1427  220.1183 H   0  0  0  0  0  0  0  0  0  0  0  0
  141.0468   73.0887  222.4706 H   0  0  0  0  0  0  0  0  0  0  0  0
  140.1702   73.1353  224.0316 H   0  0  0  0  0  0  0  0  0  0  0  0
  140.5760   70.5961  222.3637 H   0  0  0  0  0  0  0  0  0  0  0  0
  141.6430   71.0897  223.7241 H   0  0  0  0  0  0  0  0  0  0  0  0
  139.5643   69.5046  223.9504 H   0  0  0  0  0  0  0  0  0  0  0  0
  139.7899   68.3289  225.7539 H   0  0  0  0  0  0  0  0  0  0  0  0
  140.5889   68.0681  228.0595 H   0  0  0  0  0  0  0  0  0  0  0  0
  141.4332   70.0067  229.3633 H   0  0  0  0  0  0  0  0  0  0  0  0
  141.4545   72.2412  228.2679 H   0  0  0  0  0  0  0  0  0  0  0  0
  140.6560   72.5079  225.9594 H   0  0  0  0  0  0  0  0  0  0  0  0
  137.5357   70.4916  224.5538 H   0  0  0  0  0  0  0  0  0  0  0  0
  138.2867   72.0873  224.8777 H   0  0  0  0  0  0  0  0  0  0  0  0
  138.0987   70.7560  222.1129 H   0  0  0  0  0  0  0  0  0  0  0  0
  137.0035   72.0470  222.7068 H   0  0  0  0  0  0  0  0  0  0  0  0
  133.7836   75.8000  225.9588 H   0  0  0  0  0  0  0  0  0  0  0  0
  132.6613   73.9123  227.1845 H   0  0  0  0  0  0  0  0  0  0  0  0
  132.3922   71.5430  227.5627 H   0  0  0  0  0  0  0  0  0  0  0  0
  133.0437   69.1987  227.0113 H   0  0  0  0  0  0  0  0  0  0  0  0
  134.7500   68.7132  225.3149 H   0  0  0  0  0  0  0  0  0  0  0  0
  135.8624   70.6055  224.1016 H   0  0  0  0  0  0  0  0  0  0  0  0
  1  2  2  0
  2  3  1  0
  3  4  1  0
  4  5  1  0
  5  6  2  0
  5  7  1  0
  7  8  1  0
  8  9  1  0
  9 10  1  0
 10 11  1  0
 11 12  1  0
 12 13  2  0
 12 14  1  0
 14 15  1  0
 15 16  1  0
 16 17  1  0
 17 18  1  0
 18 19  2  0
 19 20  1  0
 20 21  2  0
 21 22  1  0
 22 23  2  0
 17 24  1  0
 24 25  1  0
  2 26  1  0
 26 27  2  0
 27 28  1  0
 28 29  2  0
 29 30  1  0
 30 31  2  0
 31 32  1  0
 32 33  2  0
 33 34  1  0
 34 35  2  0
 11  7  1  0
 25 14  1  0
 35 26  1  0
 23 18  1  0
 34 29  1  0
  3 36  1  0
  4 37  1  0
  4 38  1  0
  8 39  1  0
  8 40  1  0
  9 41  1  0
  9 42  1  0
 10 43  1  0
 10 44  1  0
 11 45  1  6
 15 46  1  0
 15 47  1  0
 16 48  1  0
 16 49  1  0
 17 50  1  0
 19 51  1  0
 20 52  1  0
 21 53  1  0
 22 54  1  0
 23 55  1  0
 24 56  1  0
 24 57  1  0
 25 58  1  0
 25 59  1  0
 27 60  1  0
 28 61  1  0
 30 62  1  0
 31 63  1  0
 32 64  1  0
 33 65  1  0
M  END
>  <smiles>  (100) 
O=C(NCC(=O)N1CCCC1C(=O)N1CCC(c2ccccc2)CC1)c1ccc2ccccc2n1

>  <score_type>  (100) 
oracle

>  <origin>  (100) 
autodockgpu

>  <m_score__min__energy>  (100) 
-9.4900000000000002

>  <m_primary>  (100) 
energy

>  <rmsd>  (100) 
7.592250415088378

>  <m_score__min__rmsd>  (100) 
7.592250415088378

>  <meeko>  (100) 
{"free_energy": -8.12, "intermolecular_energy": -9.91, "internal_energy": -3.32, "cluster_size": 16, "cluster_id": 6, "rank_in_cluster": 9}

>  <energy>  (100) 
-6.37

>  <cluster_rmsd>  (100) 
1.73

>  <cluster>  (100) 
7

$$$$
