
     RDKit          3D

 64 68  0  0  1  0  0  0  0  0999 V2000
  140.5800   71.6470  221.0260 O   0  0  0  0  0  0  0  0  0  0  0  0
  140.1820   72.1260  222.1190 C   0  0  0  0  0  0  0  0  0  0  0  0
  139.8140   73.5170  222.1920 N   0  0  0  0  0  0  0  0  0  0  0  0
  139.8490   74.4230  221.1190 C   0  0  0  0  0  0  0  0  0  0  0  0
  140.7400   75.5590  221.0890 C   0  0  0  0  0  0  0  0  0  0  0  0
  140.9690   76.0890  222.2530 O   0  0  0  0  0  0  0  0  0  0  0  0
  141.3970   76.1910  220.0090 N   0  0  0  0  0  0  0  0  0  0  0  0
  141.2570   77.6040  219.6440 C   0  0  0  0  0  0  0  0  0  0  0  0
  142.5790   77.9410  218.9400 C   0  0  2  0  0  0  0  0  0  0  0  0
  142.3240   78.2280  217.6110 O   0  0  0  0  0  0  0  0  0  0  0  0
  143.4000   76.6850  219.0140 C   0  0  0  0  0  0  0  0  0  0  0  0
  142.3090   75.6240  219.0300 C   0  0  1  0  0  0  0  0  0  0  0  0
  142.8200   74.2770  219.2500 C   0  0  2  0  0  0  0  0  0  0  0  0
  143.5530   73.9650  220.5010 C   0  0  0  0  0  0  0  0  0  0  0  0
  143.5920   72.4480  220.7260 C   0  0  0  0  0  0  0  0  0  0  0  0
  143.6610   71.8000  219.3560 C   0  0  2  0  0  0  0  0  0  0  0  0
  144.2940   70.4610  219.4680 C   0  0  0  0  0  0  0  0  0  0  0  0
  143.5840   69.3080  219.7360 C   0  0  0  0  0  0  0  0  0  0  0  0
  144.2740   68.1020  219.8210 C   0  0  0  0  0  0  0  0  0  0  0  0
  145.6570   68.0990  219.6320 C   0  0  0  0  0  0  0  0  0  0  0  0
  146.3240   69.2370  219.3720 N   0  0  0  0  0  0  0  0  0  0  0  0
  145.6790   70.4170  219.2850 C   0  0  0  0  0  0  0  0  0  0  0  0
  144.4690   72.6010  218.3950 C   0  0  0  0  0  0  0  0  0  0  0  0
  143.7670   73.9070  218.0940 C   0  0  0  0  0  0  0  0  0  0  0  0
  140.0870   71.2900  223.3250 C   0  0  0  0  0  0  0  0  0  0  0  0
  139.5150   70.0400  223.2090 C   0  0  0  0  0  0  0  0  0  0  0  0
  139.4460   69.2840  224.3780 C   0  0  0  0  0  0  0  0  0  0  0  0
  139.9240   69.7640  225.5840 C   0  0  0  0  0  0  0  0  0  0  0  0
  139.8720   69.0450  226.7540 C   0  0  0  0  0  0  0  0  0  0  0  0
  140.3660   69.5610  227.9520 C   0  0  0  0  0  0  0  0  0  0  0  0
  140.3230   68.8700  229.1090 F   0  0  0  0  0  0  0  0  0  0  0  0
  140.9240   70.8270  227.9740 C   0  0  0  0  0  0  0  0  0  0  0  0
  140.9890   71.5750  226.8040 C   0  0  0  0  0  0  0  0  0  0  0  0
  140.4890   71.0230  225.6420 C   0  0  0  0  0  0  0  0  0  0  0  0
  140.5460   71.7370  224.5060 N   0  0  0  0  0  0  0  0  0  0  0  0
  139.4960   73.8480  223.1500 H   0  0  0  0  0  0  0  0  0  0  0  0
  140.0838   73.8275  220.2245 H   0  0  0  0  0  0  0  0  0  0  0  0
  138.8666   74.9104  221.2046 H   0  0  0  0  0  0  0  0  0  0  0  0
  140.4044   77.7492  218.9643 H   0  0  0  0  0  0  0  0  0  0  0  0
  141.0660   78.2483  220.5148 H   0  0  0  0  0  0  0  0  0  0  0  0
  143.0857   78.8022  219.3999 H   0  0  0  0  0  0  0  0  0  0  0  0
  143.0970   78.6990  217.2140 H   0  0  0  0  0  0  0  0  0  0  0  0
  144.0544   76.5781  218.1363 H   0  0  0  0  0  0  0  0  0  0  0  0
  144.0861   76.6422  219.8728 H   0  0  0  0  0  0  0  0  0  0  0  0
  141.7941   75.4331  218.0769 H   0  0  0  0  0  0  0  0  0  0  0  0
  141.8888   73.6958  219.3216 H   0  0  0  0  0  0  0  0  0  0  0  0
  144.5814   74.3479  220.4251 H   0  0  0  0  0  0  0  0  0  0  0  0
  143.0374   74.4410  221.3481 H   0  0  0  0  0  0  0  0  0  0  0  0
  144.4784   72.1762  221.3179 H   0  0  0  0  0  0  0  0  0  0  0  0
  142.7024   72.1091  221.2771 H   0  0  0  0  0  0  0  0  0  0  0  0
  142.6285   71.7290  218.9834 H   0  0  0  0  0  0  0  0  0  0  0  0
  142.4939   69.3415  219.8796 H   0  0  0  0  0  0  0  0  0  0  0  0
  143.7375   67.1656  220.0339 H   0  0  0  0  0  0  0  0  0  0  0  0
  146.2100   67.1503  219.6968 H   0  0  0  0  0  0  0  0  0  0  0  0
  146.2388   71.3395  219.0714 H   0  0  0  0  0  0  0  0  0  0  0  0
  145.4557   72.8102  218.8340 H   0  0  0  0  0  0  0  0  0  0  0  0
  144.5899   72.0317  217.4616 H   0  0  0  0  0  0  0  0  0  0  0  0
  144.5164   74.7024  217.9687 H   0  0  0  0  0  0  0  0  0  0  0  0
  143.1809   73.7961  217.1698 H   0  0  0  0  0  0  0  0  0  0  0  0
  139.1350   69.6615  222.2486 H   0  0  0  0  0  0  0  0  0  0  0  0
  138.9997   68.2793  224.3405 H   0  0  0  0  0  0  0  0  0  0  0  0
  139.4299   68.0378  226.7455 H   0  0  0  0  0  0  0  0  0  0  0  0
  141.3153   71.2407  228.9152 H   0  0  0  0  0  0  0  0  0  0  0  0
  141.4287   72.5833  226.8043 H   0  0  0  0  0  0  0  0  0  0  0  0
  1  2  2  0
  2  3  1  0
  3  4  1  0
  4  5  1  0
  5  6  2  0
  5  7  1  0
  7  8  1  0
  8  9  1  0
  9 10  1  0
  9 11  1  0
 11 12  1  0
 12 13  1  0
 13 14  1  0
 14 15  1  0
 15 16  1  0
 16 17  1  0
 17 18  2  0
 18 19  1  0
 19 20  2  0
 20 21  1  0
 21 22  2  0
 16 23  1  0
 23 24  1  0
  2 25  1  0
 25 26  2  0
 26 27  1  0
 27 28  2  0
 28 29  1  0
 29 30  2  0
 30 31  1  0
 30 32  1  0
 32 33  2  0
 33 34  1  0
 34 35  2  0
 12  7  1  0
 24 13  1  0
 35 25  1  0
 22 17  1  0
 34 28  1  0
  3 36  1  0
  4 37  1  0
  4 38  1  0
  8 39  1  0
  8 40  1  0
  9 41  1  1
 10 42  1  0
 11 43  1  0
 11 44  1  0
 12 45  1  6
 13 46  1  6
 14 47  1  0
 14 48  1  0
 15 49  1  0
 15 50  1  0
 16 51  1  6
 18 52  1  0
 19 53  1  0
 20 54  1  0
 22 55  1  0
 23 56  1  0
 23 57  1  0
 24 58  1  0
 24 59  1  0
 26 60  1  0
 27 61  1  0
 29 62  1  0
 32 63  1  0
 33 64  1  0
M  END
>  <smiles>  (1) 
O=C(NCC(=O)N1C[C@H](O)C[C@H]1C1CCC(c2cccnc2)CC1)c1ccc2cc(F)ccc2n1

>  <score_type>  (1) 
oracle

>  <origin>  (1) 
autodockgpu

>  <m_score__min__energy>  (1) 
-9.5600000000000005

>  <m_primary>  (1) 
energy

>  <rmsd>  (1) 
2.2098347427644516

>  <m_score__min__rmsd>  (1) 
2.2098347427644516

>  <meeko>  (1) 
{"free_energy": -9.05, "intermolecular_energy": -11.14, "internal_energy": -2.38, "cluster_size": 11, "cluster_id": 3, "rank_in_cluster": 4}

>  <energy>  (1) 
-9.56

>  <cluster_rmsd>  (1) 
0.0

>  <cluster>  (1) 
1

$$$$

     RDKit          3D

 64 68  0  0  1  0  0  0  0  0999 V2000
  139.1280   70.9490  221.4510 O   0  0  0  0  0  0  0  0  0  0  0  0
  139.3960   71.4310  222.5810 C   0  0  0  0  0  0  0  0  0  0  0  0
  139.5550   72.8550  222.7260 N   0  0  0  0  0  0  0  0  0  0  0  0
  139.4260   73.7960  221.6890 C   0  0  0  0  0  0  0  0  0  0  0  0
  139.9190   75.1480  221.8020 C   0  0  0  0  0  0  0  0  0  0  0  0
  139.2150   75.9120  222.5810 O   0  0  0  0  0  0  0  0  0  0  0  0
  141.0340   75.7790  221.2030 N   0  0  0  0  0  0  0  0  0  0  0  0
  142.0430   75.1070  220.3780 C   0  0  0  0  0  0  0  0  0  0  0  0
  142.5760   76.2180  219.4610 C   0  0  2  0  0  0  0  0  0  0  0  0
  143.9040   76.4580  219.7660 O   0  0  0  0  0  0  0  0  0  0  0  0
  141.7710   77.4380  219.8080 C   0  0  0  0  0  0  0  0  0  0  0  0
  141.4490   77.1690  221.2710 C   0  0  1  0  0  0  0  0  0  0  0  0
  140.5300   78.1440  221.8450 C   0  0  2  0  0  0  0  0  0  0  0  0
  140.0690   79.2910  221.0260 C   0  0  0  0  0  0  0  0  0  0  0  0
  138.8050   79.9040  221.6400 C   0  0  0  0  0  0  0  0  0  0  0  0
  138.9280   79.7560  223.1460 C   0  0  2  0  0  0  0  0  0  0  0  0
  138.1170   80.8020  223.8190 C   0  0  0  0  0  0  0  0  0  0  0  0
  137.6510   81.9300  223.1740 C   0  0  0  0  0  0  0  0  0  0  0  0
  136.8990   82.8510  223.8990 C   0  0  0  0  0  0  0  0  0  0  0  0
  136.6400   82.6020  225.2470 C   0  0  0  0  0  0  0  0  0  0  0  0
  137.1060   81.4950  225.8510 N   0  0  0  0  0  0  0  0  0  0  0  0
  137.8370   80.5880  225.1720 C   0  0  0  0  0  0  0  0  0  0  0  0
  140.3340   79.9050  223.6110 C   0  0  0  0  0  0  0  0  0  0  0  0
  141.1700   78.7500  223.1080 C   0  0  0  0  0  0  0  0  0  0  0  0
  139.5510   70.5640  223.7590 C   0  0  0  0  0  0  0  0  0  0  0  0
  139.0900   69.2670  223.6800 C   0  0  0  0  0  0  0  0  0  0  0  0
  139.2570   68.4830  224.8200 C   0  0  0  0  0  0  0  0  0  0  0  0
  139.8530   68.9830  225.9650 C   0  0  0  0  0  0  0  0  0  0  0  0
  140.0340   68.2370  227.1060 C   0  0  0  0  0  0  0  0  0  0  0  0
  140.6400   68.7750  228.2410 C   0  0  0  0  0  0  0  0  0  0  0  0
  140.8250   68.0590  229.3680 F   0  0  0  0  0  0  0  0  0  0  0  0
  141.0730   70.0890  228.2300 C   0  0  0  0  0  0  0  0  0  0  0  0
  140.9010   70.8640  227.0890 C   0  0  0  0  0  0  0  0  0  0  0  0
  140.2980   70.2900  225.9890 C   0  0  0  0  0  0  0  0  0  0  0  0
  140.1270   71.0290  224.8810 N   0  0  0  0  0  0  0  0  0  0  0  0
  139.7880   73.1840  223.7090 H   0  0  0  0  0  0  0  0  0  0  0  0
  139.9314   73.3587  220.8153 H   0  0  0  0  0  0  0  0  0  0  0  0
  138.3378   73.9546  221.6629 H   0  0  0  0  0  0  0  0  0  0  0  0
  142.8492   74.6967  221.0038 H   0  0  0  0  0  0  0  0  0  0  0  0
  141.6307   74.2563  219.8156 H   0  0  0  0  0  0  0  0  0  0  0  0
  142.4978   75.9517  218.3966 H   0  0  0  0  0  0  0  0  0  0  0  0
  144.0430   77.4240  219.9230 H   0  0  0  0  0  0  0  0  0  0  0  0
  142.3607   78.3586  219.6871 H   0  0  0  0  0  0  0  0  0  0  0  0
  140.8877   77.5939  219.1712 H   0  0  0  0  0  0  0  0  0  0  0  0
  142.2724   77.2993  221.9887 H   0  0  0  0  0  0  0  0  0  0  0  0
  139.6284   77.5331  221.9996 H   0  0  0  0  0  0  0  0  0  0  0  0
  140.8615   80.0530  220.9887 H   0  0  0  0  0  0  0  0  0  0  0  0
  139.8402   78.9381  220.0096 H   0  0  0  0  0  0  0  0  0  0  0  0
  138.7309   80.9676  221.3695 H   0  0  0  0  0  0  0  0  0  0  0  0
  137.9020   79.3980  221.2677 H   0  0  0  0  0  0  0  0  0  0  0  0
  138.5726   78.7463  223.3993 H   0  0  0  0  0  0  0  0  0  0  0  0
  137.8692   82.0980  222.1090 H   0  0  0  0  0  0  0  0  0  0  0  0
  136.5149   83.7615  223.4158 H   0  0  0  0  0  0  0  0  0  0  0  0
  136.0444   83.3236  225.8254 H   0  0  0  0  0  0  0  0  0  0  0  0
  138.2104   79.6860  225.6790 H   0  0  0  0  0  0  0  0  0  0  0  0
  140.7471   80.8488  223.2255 H   0  0  0  0  0  0  0  0  0  0  0  0
  140.3518   79.9117  224.7108 H   0  0  0  0  0  0  0  0  0  0  0  0
  142.1808   79.1105  222.8665 H   0  0  0  0  0  0  0  0  0  0  0  0
  141.2248   77.9780  223.8897 H   0  0  0  0  0  0  0  0  0  0  0  0
  138.6170   68.8732  222.7683 H   0  0  0  0  0  0  0  0  0  0  0  0
  138.9063   67.4404  224.8097 H   0  0  0  0  0  0  0  0  0  0  0  0
  139.6928   67.1914  227.1239 H   0  0  0  0  0  0  0  0  0  0  0  0
  141.5521   70.5192  229.1218 H   0  0  0  0  0  0  0  0  0  0  0  0
  141.2379   71.9108  227.0638 H   0  0  0  0  0  0  0  0  0  0  0  0
  1  2  2  0
  2  3  1  0
  3  4  1  0
  4  5  1  0
  5  6  2  0
  5  7  1  0
  7  8  1  0
  8  9  1  0
  9 10  1  0
  9 11  1  0
 11 12  1  0
 12 13  1  0
 13 14  1  0
 14 15  1  0
 15 16  1  0
 16 17  1  0
 17 18  2  0
 18 19  1  0
 19 20  2  0
 20 21  1  0
 21 22  2  0
 16 23  1  0
 23 24  1  0
  2 25  1  0
 25 26  2  0
 26 27  1  0
 27 28  2  0
 28 29  1  0
 29 30  2  0
 30 31  1  0
 30 32  1  0
 32 33  2  0
 33 34  1  0
 34 35  2  0
 12  7  1  0
 24 13  1  0
 35 25  1  0
 22 17  1  0
 34 28  1  0
  3 36  1  0
  4 37  1  0
  4 38  1  0
  8 39  1  0
  8 40  1  0
  9 41  1  6
 10 42  1  0
 11 43  1  0
 11 44  1  0
 12 45  1  1
 13 46  1  1
 14 47  1  0
 14 48  1  0
 15 49  1  0
 15 50  1  0
 16 51  1  1
 18 52  1  0
 19 53  1  0
 20 54  1  0
 22 55  1  0
 23 56  1  0
 23 57  1  0
 24 58  1  0
 24 59  1  0
 26 60  1  0
 27 61  1  0
 29 62  1  0
 32 63  1  0
 33 64  1  0
M  END
>  <smiles>  (2) 
O=C(NCC(=O)N1C[C@H](O)C[C@H]1C1CCC(c2cccnc2)CC1)c1ccc2cc(F)ccc2n1

>  <score_type>  (2) 
oracle

>  <origin>  (2) 
autodockgpu

>  <m_score__min__energy>  (2) 
-9.5600000000000005

>  <m_primary>  (2) 
energy

>  <rmsd>  (2) 
1.6793215071563574

>  <m_score__min__rmsd>  (2) 
1.6793215071563574

>  <meeko>  (2) 
{"free_energy": -9.41, "intermolecular_energy": -11.5, "internal_energy": -1.71, "cluster_size": 14, "cluster_id": 1, "rank_in_cluster": 5}

>  <energy>  (2) 
-9.53

>  <cluster_rmsd>  (2) 
0.25

>  <cluster>  (2) 
1

$$$$

     RDKit          3D

 64 68  0  0  1  0  0  0  0  0999 V2000
  138.1440   75.1330  221.7880 O   0  0  0  0  0  0  0  0  0  0  0  0
  139.3100   75.5100  222.0700 C   0  0  0  0  0  0  0  0  0  0  0  0
  140.3990   74.5700  221.9890 N   0  0  0  0  0  0  0  0  0  0  0  0
  140.2820   73.2230  221.6020 C   0  0  0  0  0  0  0  0  0  0  0  0
  141.0550   72.6550  220.5240 C   0  0  0  0  0  0  0  0  0  0  0  0
  140.3610   71.9530  219.6800 O   0  0  0  0  0  0  0  0  0  0  0  0
  142.4370   72.7310  220.2370 N   0  0  0  0  0  0  0  0  0  0  0  0
  143.3410   71.5830  220.1190 C   0  0  0  0  0  0  0  0  0  0  0  0
  144.4530   72.0760  219.1820 C   0  0  2  0  0  0  0  0  0  0  0  0
  145.6430   72.1340  219.8840 O   0  0  0  0  0  0  0  0  0  0  0  0
  144.0530   73.4700  218.7920 C   0  0  0  0  0  0  0  0  0  0  0  0
  143.2680   73.9040  220.0210 C   0  0  1  0  0  0  0  0  0  0  0  0
  142.6180   75.1990  219.8620 C   0  0  2  0  0  0  0  0  0  0  0  0
  141.4330   75.3230  218.9800 C   0  0  0  0  0  0  0  0  0  0  0  0
  140.6630   76.6080  219.3070 C   0  0  0  0  0  0  0  0  0  0  0  0
  141.6890   77.6430  219.7280 C   0  0  2  0  0  0  0  0  0  0  0  0
  141.1560   79.0060  219.4770 C   0  0  0  0  0  0  0  0  0  0  0  0
  139.8470   79.3650  219.7270 C   0  0  0  0  0  0  0  0  0  0  0  0
  139.4480   80.6710  219.4560 C   0  0  0  0  0  0  0  0  0  0  0  0
  140.3830   81.5710  218.9440 C   0  0  0  0  0  0  0  0  0  0  0  0
  141.6530   81.1960  218.7100 N   0  0  0  0  0  0  0  0  0  0  0  0
  142.0630   79.9380  218.9630 C   0  0  0  0  0  0  0  0  0  0  0  0
  142.9640   77.5110  218.9700 C   0  0  0  0  0  0  0  0  0  0  0  0
  143.6510   76.2140  219.3370 C   0  0  0  0  0  0  0  0  0  0  0  0
  139.5820   76.8950  222.4820 C   0  0  0  0  0  0  0  0  0  0  0  0
  138.5090   77.7190  222.7470 C   0  0  0  0  0  0  0  0  0  0  0  0
  138.8150   79.0230  223.1340 C   0  0  0  0  0  0  0  0  0  0  0  0
  140.1220   79.4610  223.2430 C   0  0  0  0  0  0  0  0  0  0  0  0
  140.4590   80.7390  223.6220 C   0  0  0  0  0  0  0  0  0  0  0  0
  141.7900   81.1450  223.7230 C   0  0  0  0  0  0  0  0  0  0  0  0
  142.1380   82.3940  224.0930 F   0  0  0  0  0  0  0  0  0  0  0  0
  142.8040   80.2470  223.4370 C   0  0  0  0  0  0  0  0  0  0  0  0
  142.4890   78.9490  223.0520 C   0  0  0  0  0  0  0  0  0  0  0  0
  141.1600   78.5920  222.9660 C   0  0  0  0  0  0  0  0  0  0  0  0
  140.8450   77.3400  222.5950 N   0  0  0  0  0  0  0  0  0  0  0  0
  141.3510   74.9610  222.2500 H   0  0  0  0  0  0  0  0  0  0  0  0
  140.5201   72.6270  222.4954 H   0  0  0  0  0  0  0  0  0  0  0  0
  139.2636   73.1958  221.1872 H   0  0  0  0  0  0  0  0  0  0  0  0
  143.7520   71.3072  221.1013 H   0  0  0  0  0  0  0  0  0  0  0  0
  142.8344   70.6846  219.7366 H   0  0  0  0  0  0  0  0  0  0  0  0
  144.5850   71.4172  218.3110 H   0  0  0  0  0  0  0  0  0  0  0  0
  145.4860   71.9080  220.8330 H   0  0  0  0  0  0  0  0  0  0  0  0
  144.9317   74.1109  218.6274 H   0  0  0  0  0  0  0  0  0  0  0  0
  143.4890   73.5320  217.8496 H   0  0  0  0  0  0  0  0  0  0  0  0
  143.8551   74.1425  220.9201 H   0  0  0  0  0  0  0  0  0  0  0  0
  142.2293   75.3778  220.8754 H   0  0  0  0  0  0  0  0  0  0  0  0
  141.7623   75.3535  217.9309 H   0  0  0  0  0  0  0  0  0  0  0  0
  140.7731   74.4578  219.1409 H   0  0  0  0  0  0  0  0  0  0  0  0
  140.1160   76.9574  218.4189 H   0  0  0  0  0  0  0  0  0  0  0  0
  139.9290   76.4337  220.1076 H   0  0  0  0  0  0  0  0  0  0  0  0
  141.8894   77.4785  220.7970 H   0  0  0  0  0  0  0  0  0  0  0  0
  139.1327   78.6333  220.1326 H   0  0  0  0  0  0  0  0  0  0  0  0
  138.4115   80.9884  219.6427 H   0  0  0  0  0  0  0  0  0  0  0  0
  140.0761   82.6050  218.7280 H   0  0  0  0  0  0  0  0  0  0  0  0
  143.1051   79.6456  218.7664 H   0  0  0  0  0  0  0  0  0  0  0  0
  142.7490   77.5170  217.8912 H   0  0  0  0  0  0  0  0  0  0  0  0
  143.6240   78.3539  219.2230 H   0  0  0  0  0  0  0  0  0  0  0  0
  144.1476   75.8006  218.4468 H   0  0  0  0  0  0  0  0  0  0  0  0
  144.3952   76.4102  220.1230 H   0  0  0  0  0  0  0  0  0  0  0  0
  137.4704   77.3676  222.6581 H   0  0  0  0  0  0  0  0  0  0  0  0
  137.9954   79.7215  223.3585 H   0  0  0  0  0  0  0  0  0  0  0  0
  139.6596   81.4590  223.8512 H   0  0  0  0  0  0  0  0  0  0  0  0
  143.8558   80.5597  223.5142 H   0  0  0  0  0  0  0  0  0  0  0  0
  143.2823   78.2228  222.8211 H   0  0  0  0  0  0  0  0  0  0  0  0
  1  2  2  0
  2  3  1  0
  3  4  1  0
  4  5  1  0
  5  6  2  0
  5  7  1  0
  7  8  1  0
  8  9  1  0
  9 10  1  0
  9 11  1  0
 11 12  1  0
 12 13  1  0
 13 14  1  0
 14 15  1  0
 15 16  1  0
 16 17  1  0
 17 18  2  0
 18 19  1  0
 19 20  2  0
 20 21  1  0
 21 22  2  0
 16 23  1  0
 23 24  1  0
  2 25  1  0
 25 26  2  0
 26 27  1  0
 27 28  2  0
 28 29  1  0
 29 30  2  0
 30 31  1  0
 30 32  1  0
 32 33  2  0
 33 34  1  0
 34 35  2  0
 12  7  1  0
 24 13  1  0
 35 25  1  0
 22 17  1  0
 34 28  1  0
  3 36  1  0
  4 37  1  0
  4 38  1  0
  8 39  1  0
  8 40  1  0
  9 41  1  6
 10 42  1  0
 11 43  1  0
 11 44  1  0
 12 45  1  1
 13 46  1  1
 14 47  1  0
 14 48  1  0
 15 49  1  0
 15 50  1  0
 16 51  1  1
 18 52  1  0
 19 53  1  0
 20 54  1  0
 22 55  1  0
 23 56  1  0
 23 57  1  0
 24 58  1  0
 24 59  1  0
 26 60  1  0
 27 61  1  0
 29 62  1  0
 32 63  1  0
 33 64  1  0
M  END
>  <smiles>  (3) 
O=C(NCC(=O)N1C[C@H](O)C[C@H]1C1CCC(c2cccnc2)CC1)c1ccc2cc(F)ccc2n1

>  <score_type>  (3) 
oracle

>  <origin>  (3) 
autodockgpu

>  <m_score__min__energy>  (3) 
-9.5600000000000005

>  <m_primary>  (3) 
energy

>  <rmsd>  (3) 
7.711022622390425

>  <m_score__min__rmsd>  (3) 
7.711022622390425

>  <meeko>  (3) 
{"free_energy": -6.73, "intermolecular_energy": -8.82, "internal_energy": -3.95, "cluster_size": 14, "cluster_id": 8, "rank_in_cluster": 9}

>  <energy>  (3) 
-9.52

>  <cluster_rmsd>  (3) 
0.6

>  <cluster>  (3) 
1

$$$$

     RDKit          3D

 64 68  0  0  1  0  0  0  0  0999 V2000
  138.7360   75.3320  221.8080 O   0  0  0  0  0  0  0  0  0  0  0  0
  139.9050   75.7640  221.9760 C   0  0  0  0  0  0  0  0  0  0  0  0
  141.0270   74.9080  221.6800 N   0  0  0  0  0  0  0  0  0  0  0  0
  140.9380   73.5910  221.1970 C   0  0  0  0  0  0  0  0  0  0  0  0
  142.1030   72.7810  220.9330 C   0  0  0  0  0  0  0  0  0  0  0  0
  142.0500   71.5860  221.4420 O   0  0  0  0  0  0  0  0  0  0  0  0
  143.2900   73.0710  220.2220 N   0  0  0  0  0  0  0  0  0  0  0  0
  144.3730   72.1180  219.9610 C   0  0  0  0  0  0  0  0  0  0  0  0
  145.0270   72.6380  218.6730 C   0  0  2  0  0  0  0  0  0  0  0  0
  146.3160   73.0550  218.9560 O   0  0  0  0  0  0  0  0  0  0  0  0
  144.2110   73.8330  218.2680 C   0  0  0  0  0  0  0  0  0  0  0  0
  143.7190   74.3230  219.6230 C   0  0  1  0  0  0  0  0  0  0  0  0
  142.7590   75.4150  219.5260 C   0  0  2  0  0  0  0  0  0  0  0  0
  141.7300   75.3960  218.4580 C   0  0  0  0  0  0  0  0  0  0  0  0
  140.5870   76.3560  218.8090 C   0  0  0  0  0  0  0  0  0  0  0  0
  141.2040   77.5210  219.5610 C   0  0  2  0  0  0  0  0  0  0  0  0
  140.3480   78.7240  219.4070 C   0  0  0  0  0  0  0  0  0  0  0  0
  139.0050   78.6630  219.0940 C   0  0  0  0  0  0  0  0  0  0  0  0
  138.2920   79.8530  218.9730 C   0  0  0  0  0  0  0  0  0  0  0  0
  138.9570   81.0640  219.1710 C   0  0  0  0  0  0  0  0  0  0  0  0
  140.2660   81.0950  219.4740 N   0  0  0  0  0  0  0  0  0  0  0  0
  140.9790   79.9570  219.5980 C   0  0  0  0  0  0  0  0  0  0  0  0
  142.5600   77.8640  219.0520 C   0  0  0  0  0  0  0  0  0  0  0  0
  143.5260   76.7400  219.3580 C   0  0  0  0  0  0  0  0  0  0  0  0
  140.1480   77.1270  222.4680 C   0  0  0  0  0  0  0  0  0  0  0  0
  139.0620   77.8850  222.8530 C   0  0  0  0  0  0  0  0  0  0  0  0
  139.3410   79.1720  223.3130 C   0  0  0  0  0  0  0  0  0  0  0  0
  140.6350   79.6560  223.3770 C   0  0  0  0  0  0  0  0  0  0  0  0
  140.9450   80.9180  223.8250 C   0  0  0  0  0  0  0  0  0  0  0  0
  142.2620   81.3730  223.8770 C   0  0  0  0  0  0  0  0  0  0  0  0
  142.5840   82.6070  224.3140 F   0  0  0  0  0  0  0  0  0  0  0  0
  143.2910   80.5410  223.4700 C   0  0  0  0  0  0  0  0  0  0  0  0
  143.0040   79.2600  223.0130 C   0  0  0  0  0  0  0  0  0  0  0  0
  141.6860   78.8530  222.9790 C   0  0  0  0  0  0  0  0  0  0  0  0
  141.3970   77.6170  222.5390 N   0  0  0  0  0  0  0  0  0  0  0  0
  141.9810   75.3420  221.8540 H   0  0  0  0  0  0  0  0  0  0  0  0
  140.3403   73.0351  221.9343 H   0  0  0  0  0  0  0  0  0  0  0  0
  140.5393   73.7490  220.1841 H   0  0  0  0  0  0  0  0  0  0  0  0
  145.0954   72.1111  220.7905 H   0  0  0  0  0  0  0  0  0  0  0  0
  144.0109   71.0839  219.8629 H   0  0  0  0  0  0  0  0  0  0  0  0
  145.0652   71.8688  217.8876 H   0  0  0  0  0  0  0  0  0  0  0  0
  146.3690   74.0400  218.9080 H   0  0  0  0  0  0  0  0  0  0  0  0
  144.8282   74.5914  217.7641 H   0  0  0  0  0  0  0  0  0  0  0  0
  143.4094   73.6113  217.5481 H   0  0  0  0  0  0  0  0  0  0  0  0
  144.4577   74.8314  220.2601 H   0  0  0  0  0  0  0  0  0  0  0  0
  142.1915   75.2948  220.4606 H   0  0  0  0  0  0  0  0  0  0  0  0
  142.1871   75.7071  217.5071 H   0  0  0  0  0  0  0  0  0  0  0  0
  141.3275   74.3766  218.3645 H   0  0  0  0  0  0  0  0  0  0  0  0
  140.0989   76.7146  217.8908 H   0  0  0  0  0  0  0  0  0  0  0  0
  139.8242   75.8524  219.4210 H   0  0  0  0  0  0  0  0  0  0  0  0
  141.2847   77.2152  220.6145 H   0  0  0  0  0  0  0  0  0  0  0  0
  138.5078   77.6935  218.9431 H   0  0  0  0  0  0  0  0  0  0  0  0
  137.2204   79.8388  218.7250 H   0  0  0  0  0  0  0  0  0  0  0  0
  138.4007   82.0084  219.0776 H   0  0  0  0  0  0  0  0  0  0  0  0
  142.0495   79.9985  219.8477 H   0  0  0  0  0  0  0  0  0  0  0  0
  142.5127   78.0179  217.9638 H   0  0  0  0  0  0  0  0  0  0  0  0
  142.9086   78.7843  219.5435 H   0  0  0  0  0  0  0  0  0  0  0  0
  144.2445   76.6423  218.5308 H   0  0  0  0  0  0  0  0  0  0  0  0
  144.0601   76.9682  220.2922 H   0  0  0  0  0  0  0  0  0  0  0  0
  138.0342   77.4967  222.8003 H   0  0  0  0  0  0  0  0  0  0  0  0
  138.5106   79.8185  223.6330 H   0  0  0  0  0  0  0  0  0  0  0  0
  140.1338   81.5857  224.1507 H   0  0  0  0  0  0  0  0  0  0  0  0
  144.3326   80.8926  223.5082 H   0  0  0  0  0  0  0  0  0  0  0  0
  143.8094   78.5860  222.6858 H   0  0  0  0  0  0  0  0  0  0  0  0
  1  2  2  0
  2  3  1  0
  3  4  1  0
  4  5  1  0
  5  6  2  0
  5  7  1  0
  7  8  1  0
  8  9  1  0
  9 10  1  0
  9 11  1  0
 11 12  1  0
 12 13  1  0
 13 14  1  0
 14 15  1  0
 15 16  1  0
 16 17  1  0
 17 18  2  0
 18 19  1  0
 19 20  2  0
 20 21  1  0
 21 22  2  0
 16 23  1  0
 23 24  1  0
  2 25  1  0
 25 26  2  0
 26 27  1  0
 27 28  2  0
 28 29  1  0
 29 30  2  0
 30 31  1  0
 30 32  1  0
 32 33  2  0
 33 34  1  0
 34 35  2  0
 12  7  1  0
 24 13  1  0
 35 25  1  0
 22 17  1  0
 34 28  1  0
  3 36  1  0
  4 37  1  0
  4 38  1  0
  8 39  1  0
  8 40  1  0
  9 41  1  6
 10 42  1  0
 11 43  1  0
 11 44  1  0
 12 45  1  1
 13 46  1  1
 14 47  1  0
 14 48  1  0
 15 49  1  0
 15 50  1  0
 16 51  1  1
 18 52  1  0
 19 53  1  0
 20 54  1  0
 22 55  1  0
 23 56  1  0
 23 57  1  0
 24 58  1  0
 24 59  1  0
 26 60  1  0
 27 61  1  0
 29 62  1  0
 32 63  1  0
 33 64  1  0
M  END
>  <smiles>  (4) 
O=C(NCC(=O)N1C[C@H](O)C[C@H]1C1CCC(c2cccnc2)CC1)c1ccc2cc(F)ccc2n1

>  <score_type>  (4) 
oracle

>  <origin>  (4) 
autodockgpu

>  <m_score__min__energy>  (4) 
-9.5600000000000005

>  <m_primary>  (4) 
energy

>  <rmsd>  (4) 
7.915713328247949

>  <m_score__min__rmsd>  (4) 
7.915713328247949

>  <meeko>  (4) 
{"free_energy": -7.36, "intermolecular_energy": -9.45, "internal_energy": -3.7, "cluster_size": 14, "cluster_id": 8, "rank_in_cluster": 1}

>  <energy>  (4) 
-9.45

>  <cluster_rmsd>  (4) 
0.27

>  <cluster>  (4) 
1

$$$$

     RDKit          3D

 64 68  0  0  1  0  0  0  0  0999 V2000
  141.2830   72.0240  221.2440 O   0  0  0  0  0  0  0  0  0  0  0  0
  140.6050   72.4570  222.2110 C   0  0  0  0  0  0  0  0  0  0  0  0
  140.1520   73.8250  222.2030 N   0  0  0  0  0  0  0  0  0  0  0  0
  140.3960   74.7550  221.1780 C   0  0  0  0  0  0  0  0  0  0  0  0
  140.9780   76.0520  221.4280 C   0  0  0  0  0  0  0  0  0  0  0  0
  141.0400   76.3770  222.6840 O   0  0  0  0  0  0  0  0  0  0  0  0
  141.4850   77.0260  220.5370 N   0  0  0  0  0  0  0  0  0  0  0  0
  142.2640   76.7420  219.3280 C   0  0  0  0  0  0  0  0  0  0  0  0
  141.9850   77.9420  218.4120 C   0  0  2  0  0  0  0  0  0  0  0  0
  143.1560   78.6570  218.2330 O   0  0  0  0  0  0  0  0  0  0  0  0
  141.0070   78.7980  219.1670 C   0  0  0  0  0  0  0  0  0  0  0  0
  141.3850   78.4740  220.6050 C   0  0  1  0  0  0  0  0  0  0  0  0
  140.4820   79.0660  221.5840 C   0  0  2  0  0  0  0  0  0  0  0  0
  140.8640   79.0870  223.0170 C   0  0  0  0  0  0  0  0  0  0  0  0
  140.0240   80.1250  223.7710 C   0  0  0  0  0  0  0  0  0  0  0  0
  138.6550   80.1450  223.1170 C   0  0  2  0  0  0  0  0  0  0  0  0
  137.6410   80.6190  224.0930 C   0  0  0  0  0  0  0  0  0  0  0  0
  137.9530   81.3910  225.1940 C   0  0  0  0  0  0  0  0  0  0  0  0
  136.9260   81.7820  226.0490 C   0  0  0  0  0  0  0  0  0  0  0  0
  135.6190   81.3830  225.7640 C   0  0  0  0  0  0  0  0  0  0  0  0
  135.3430   80.6310  224.6850 N   0  0  0  0  0  0  0  0  0  0  0  0
  136.3190   80.2390  223.8420 C   0  0  0  0  0  0  0  0  0  0  0  0
  138.2350   78.7950  222.6500 C   0  0  0  0  0  0  0  0  0  0  0  0
  139.1250   78.3430  221.5130 C   0  0  0  0  0  0  0  0  0  0  0  0
  140.2660   71.5910  223.3500 C   0  0  0  0  0  0  0  0  0  0  0  0
  139.4940   70.4740  223.1130 C   0  0  0  0  0  0  0  0  0  0  0  0
  139.1980   69.6830  224.2230 C   0  0  0  0  0  0  0  0  0  0  0  0
  139.6550   70.0060  225.4880 C   0  0  0  0  0  0  0  0  0  0  0  0
  139.3820   69.2490  226.6020 C   0  0  0  0  0  0  0  0  0  0  0  0
  139.8610   69.6060  227.8630 C   0  0  0  0  0  0  0  0  0  0  0  0
  139.6040   68.8750  228.9670 F   0  0  0  0  0  0  0  0  0  0  0  0
  140.6310   70.7460  228.0070 C   0  0  0  0  0  0  0  0  0  0  0  0
  140.9210   71.5290  226.8950 C   0  0  0  0  0  0  0  0  0  0  0  0
  140.4270   71.1380  225.6680 C   0  0  0  0  0  0  0  0  0  0  0  0
  140.7000   71.8860  224.5870 N   0  0  0  0  0  0  0  0  0  0  0  0
  139.5920   74.1180  223.0570 H   0  0  0  0  0  0  0  0  0  0  0  0
  141.0649   74.2530  220.4634 H   0  0  0  0  0  0  0  0  0  0  0  0
  139.3746   75.0227  220.8696 H   0  0  0  0  0  0  0  0  0  0  0  0
  143.3364   76.6707  219.5623 H   0  0  0  0  0  0  0  0  0  0  0  0
  141.9885   75.7836  218.8638 H   0  0  0  0  0  0  0  0  0  0  0  0
  141.6021   77.6329  217.4282 H   0  0  0  0  0  0  0  0  0  0  0  0
  143.2670   78.8850  217.2780 H   0  0  0  0  0  0  0  0  0  0  0  0
  141.1483   79.8657  218.9432 H   0  0  0  0  0  0  0  0  0  0  0  0
  139.9523   78.6048  218.9215 H   0  0  0  0  0  0  0  0  0  0  0  0
  142.3202   78.9157  220.9796 H   0  0  0  0  0  0  0  0  0  0  0  0
  140.4875   80.1230  221.2794 H   0  0  0  0  0  0  0  0  0  0  0  0
  140.6916   78.0924  223.4541 H   0  0  0  0  0  0  0  0  0  0  0  0
  141.9277   79.3539  223.1022 H   0  0  0  0  0  0  0  0  0  0  0  0
  139.9331   79.8409  224.8298 H   0  0  0  0  0  0  0  0  0  0  0  0
  140.4949   81.1182  223.7281 H   0  0  0  0  0  0  0  0  0  0  0  0
  138.7251   80.8177  222.2495 H   0  0  0  0  0  0  0  0  0  0  0  0
  138.9925   81.6914  225.3920 H   0  0  0  0  0  0  0  0  0  0  0  0
  137.1413   82.3961  226.9358 H   0  0  0  0  0  0  0  0  0  0  0  0
  134.8017   81.6891  226.4336 H   0  0  0  0  0  0  0  0  0  0  0  0
  136.0771   79.6243  222.9625 H   0  0  0  0  0  0  0  0  0  0  0  0
  138.3151   78.0800  223.4821 H   0  0  0  0  0  0  0  0  0  0  0  0
  137.1938   78.8414  222.2982 H   0  0  0  0  0  0  0  0  0  0  0  0
  139.2868   77.2575  221.5870 H   0  0  0  0  0  0  0  0  0  0  0  0
  138.6380   78.5845  220.5567 H   0  0  0  0  0  0  0  0  0  0  0  0
  139.1319   70.2208  222.1057 H   0  0  0  0  0  0  0  0  0  0  0  0
  138.5855   68.7792  224.0890 H   0  0  0  0  0  0  0  0  0  0  0  0
  138.7714   68.3401  226.4971 H   0  0  0  0  0  0  0  0  0  0  0  0
  141.0128   71.0323  228.9981 H   0  0  0  0  0  0  0  0  0  0  0  0
  141.5306   72.4395  226.9917 H   0  0  0  0  0  0  0  0  0  0  0  0
  1  2  2  0
  2  3  1  0
  3  4  1  0
  4  5  1  0
  5  6  2  0
  5  7  1  0
  7  8  1  0
  8  9  1  0
  9 10  1  0
  9 11  1  0
 11 12  1  0
 12 13  1  0
 13 14  1  0
 14 15  1  0
 15 16  1  0
 16 17  1  0
 17 18  2  0
 18 19  1  0
 19 20  2  0
 20 21  1  0
 21 22  2  0
 16 23  1  0
 23 24  1  0
  2 25  1  0
 25 26  2  0
 26 27  1  0
 27 28  2  0
 28 29  1  0
 29 30  2  0
 30 31  1  0
 30 32  1  0
 32 33  2  0
 33 34  1  0
 34 35  2  0
 12  7  1  0
 24 13  1  0
 35 25  1  0
 22 17  1  0
 34 28  1  0
  3 36  1  0
  4 37  1  0
  4 38  1  0
  8 39  1  0
  8 40  1  0
  9 41  1  6
 10 42  1  0
 11 43  1  0
 11 44  1  0
 12 45  1  1
 13 46  1  6
 14 47  1  0
 14 48  1  0
 15 49  1  0
 15 50  1  0
 16 51  1  6
 18 52  1  0
 19 53  1  0
 20 54  1  0
 22 55  1  0
 23 56  1  0
 23 57  1  0
 24 58  1  0
 24 59  1  0
 26 60  1  0
 27 61  1  0
 29 62  1  0
 32 63  1  0
 33 64  1  0
M  END
>  <smiles>  (5) 
O=C(NCC(=O)N1C[C@H](O)C[C@H]1C1CCC(c2cccnc2)CC1)c1ccc2cc(F)ccc2n1

>  <score_type>  (5) 
oracle

>  <origin>  (5) 
autodockgpu

>  <m_score__min__energy>  (5) 
-9.5600000000000005

>  <m_primary>  (5) 
energy

>  <rmsd>  (5) 
2.074237640322399

>  <m_score__min__rmsd>  (5) 
2.074237640322399

>  <meeko>  (5) 
{"free_energy": -9.29, "intermolecular_energy": -11.38, "internal_energy": -1.45, "cluster_size": 14, "cluster_id": 1, "rank_in_cluster": 6}

>  <energy>  (5) 
-9.41

>  <cluster_rmsd>  (5) 
0.5

>  <cluster>  (5) 
1

$$$$

     RDKit          3D

 64 68  0  0  1  0  0  0  0  0999 V2000
  138.8360   70.9400  221.5190 O   0  0  0  0  0  0  0  0  0  0  0  0
  139.2700   71.3790  222.6150 C   0  0  0  0  0  0  0  0  0  0  0  0
  139.5860   72.7790  222.7430 N   0  0  0  0  0  0  0  0  0  0  0  0
  139.4440   73.7400  221.7260 C   0  0  0  0  0  0  0  0  0  0  0  0
  139.9550   75.0840  221.8510 C   0  0  0  0  0  0  0  0  0  0  0  0
  139.2910   75.8350  222.6780 O   0  0  0  0  0  0  0  0  0  0  0  0
  141.0510   75.7190  221.2220 N   0  0  0  0  0  0  0  0  0  0  0  0
  142.0540   75.0460  220.3910 C   0  0  0  0  0  0  0  0  0  0  0  0
  142.5560   76.1480  219.4460 C   0  0  2  0  0  0  0  0  0  0  0  0
  143.8850   76.4110  219.7230 O   0  0  0  0  0  0  0  0  0  0  0  0
  141.7410   77.3630  219.7850 C   0  0  0  0  0  0  0  0  0  0  0  0
  141.4470   77.1160  221.2580 C   0  0  1  0  0  0  0  0  0  0  0  0
  140.5250   78.0890  221.8310 C   0  0  2  0  0  0  0  0  0  0  0  0
  140.1130   79.2690  221.0340 C   0  0  0  0  0  0  0  0  0  0  0  0
  138.8380   79.8840  221.6230 C   0  0  0  0  0  0  0  0  0  0  0  0
  138.9050   79.6870  223.1260 C   0  0  2  0  0  0  0  0  0  0  0  0
  138.0880   80.7250  223.8030 C   0  0  0  0  0  0  0  0  0  0  0  0
  137.7540   80.6710  225.1410 C   0  0  0  0  0  0  0  0  0  0  0  0
  136.9820   81.6990  225.6790 C   0  0  0  0  0  0  0  0  0  0  0  0
  136.5770   82.7450  224.8510 C   0  0  0  0  0  0  0  0  0  0  0  0
  136.9170   82.7730  223.5500 N   0  0  0  0  0  0  0  0  0  0  0  0
  137.6620   81.7910  223.0050 C   0  0  0  0  0  0  0  0  0  0  0  0
  140.2960   79.7960  223.6450 C   0  0  0  0  0  0  0  0  0  0  0  0
  141.1300   78.6420  223.1350 C   0  0  0  0  0  0  0  0  0  0  0  0
  139.4590   70.4880  223.7690 C   0  0  0  0  0  0  0  0  0  0  0  0
  139.0390   69.1800  223.6590 C   0  0  0  0  0  0  0  0  0  0  0  0
  139.2390   68.3730  224.7780 C   0  0  0  0  0  0  0  0  0  0  0  0
  139.8260   68.8610  225.9310 C   0  0  0  0  0  0  0  0  0  0  0  0
  140.0390   68.0930  227.0510 C   0  0  0  0  0  0  0  0  0  0  0  0
  140.6350   68.6200  228.1960 C   0  0  0  0  0  0  0  0  0  0  0  0
  140.8510   67.8820  229.3040 F   0  0  0  0  0  0  0  0  0  0  0  0
  141.0270   69.9470  228.2160 C   0  0  0  0  0  0  0  0  0  0  0  0
  140.8230   70.7450  227.0970 C   0  0  0  0  0  0  0  0  0  0  0  0
  140.2300   70.1810  225.9860 C   0  0  0  0  0  0  0  0  0  0  0  0
  140.0280   70.9430  224.8980 N   0  0  0  0  0  0  0  0  0  0  0  0
  139.9530   73.0720  223.6950 H   0  0  0  0  0  0  0  0  0  0  0  0
  139.9239   73.3128  220.8331 H   0  0  0  0  0  0  0  0  0  0  0  0
  138.3574   73.9113  221.7284 H   0  0  0  0  0  0  0  0  0  0  0  0
  142.8764   74.6570  221.0093 H   0  0  0  0  0  0  0  0  0  0  0  0
  141.6434   74.1804  219.8506 H   0  0  0  0  0  0  0  0  0  0  0  0
  142.4629   75.8617  218.3880 H   0  0  0  0  0  0  0  0  0  0  0  0
  143.9520   77.1490  220.3770 H   0  0  0  0  0  0  0  0  0  0  0  0
  142.3163   78.2889  219.6379 H   0  0  0  0  0  0  0  0  0  0  0  0
  140.8452   77.4960  219.1606 H   0  0  0  0  0  0  0  0  0  0  0  0
  142.2802   77.2706  221.9594 H   0  0  0  0  0  0  0  0  0  0  0  0
  139.6078   77.4906  221.9342 H   0  0  0  0  0  0  0  0  0  0  0  0
  140.9187   80.0177  221.0495 H   0  0  0  0  0  0  0  0  0  0  0  0
  139.9153   78.9530  219.9991 H   0  0  0  0  0  0  0  0  0  0  0  0
  138.7906   80.9567  221.3842 H   0  0  0  0  0  0  0  0  0  0  0  0
  137.9408   79.4053  221.2036 H   0  0  0  0  0  0  0  0  0  0  0  0
  138.5243   78.6762  223.3342 H   0  0  0  0  0  0  0  0  0  0  0  0
  138.0903   79.8336  225.7700 H   0  0  0  0  0  0  0  0  0  0  0  0
  136.6964   81.6853  226.7412 H   0  0  0  0  0  0  0  0  0  0  0  0
  135.9692   83.5611  225.2688 H   0  0  0  0  0  0  0  0  0  0  0  0
  137.9330   81.8280  221.9396 H   0  0  0  0  0  0  0  0  0  0  0  0
  140.7386   80.7438  223.3047 H   0  0  0  0  0  0  0  0  0  0  0  0
  140.2746   79.7680  224.7444 H   0  0  0  0  0  0  0  0  0  0  0  0
  142.1550   78.9912  222.9413 H   0  0  0  0  0  0  0  0  0  0  0  0
  141.1438   77.8446  223.8926 H   0  0  0  0  0  0  0  0  0  0  0  0
  138.5725   68.7947  222.7404 H   0  0  0  0  0  0  0  0  0  0  0  0
  138.9215   67.3204  224.7428 H   0  0  0  0  0  0  0  0  0  0  0  0
  139.7317   67.0368  227.0437 H   0  0  0  0  0  0  0  0  0  0  0  0
  141.4989   70.3690  229.1156 H   0  0  0  0  0  0  0  0  0  0  0  0
  141.1272   71.8021  227.0968 H   0  0  0  0  0  0  0  0  0  0  0  0
  1  2  2  0
  2  3  1  0
  3  4  1  0
  4  5  1  0
  5  6  2  0
  5  7  1  0
  7  8  1  0
  8  9  1  0
  9 10  1  0
  9 11  1  0
 11 12  1  0
 12 13  1  0
 13 14  1  0
 14 15  1  0
 15 16  1  0
 16 17  1  0
 17 18  2  0
 18 19  1  0
 19 20  2  0
 20 21  1  0
 21 22  2  0
 16 23  1  0
 23 24  1  0
  2 25  1  0
 25 26  2  0
 26 27  1  0
 27 28  2  0
 28 29  1  0
 29 30  2  0
 30 31  1  0
 30 32  1  0
 32 33  2  0
 33 34  1  0
 34 35  2  0
 12  7  1  0
 24 13  1  0
 35 25  1  0
 22 17  1  0
 34 28  1  0
  3 36  1  0
  4 37  1  0
  4 38  1  0
  8 39  1  0
  8 40  1  0
  9 41  1  6
 10 42  1  0
 11 43  1  0
 11 44  1  0
 12 45  1  1
 13 46  1  1
 14 47  1  0
 14 48  1  0
 15 49  1  0
 15 50  1  0
 16 51  1  6
 18 52  1  0
 19 53  1  0
 20 54  1  0
 22 55  1  0
 23 56  1  0
 23 57  1  0
 24 58  1  0
 24 59  1  0
 26 60  1  0
 27 61  1  0
 29 62  1  0
 32 63  1  0
 33 64  1  0
M  END
>  <smiles>  (6) 
O=C(NCC(=O)N1C[C@H](O)C[C@H]1C1CCC(c2cccnc2)CC1)c1ccc2cc(F)ccc2n1

>  <score_type>  (6) 
oracle

>  <origin>  (6) 
autodockgpu

>  <m_score__min__energy>  (6) 
-9.5600000000000005

>  <m_primary>  (6) 
energy

>  <rmsd>  (6) 
1.6832538152281193

>  <m_score__min__rmsd>  (6) 
1.6832538152281193

>  <meeko>  (6) 
{"free_energy": -9.53, "intermolecular_energy": -11.62, "internal_energy": -1.76, "cluster_size": 14, "cluster_id": 1, "rank_in_cluster": 2}

>  <energy>  (6) 
-9.29

>  <cluster_rmsd>  (6) 
1.39

>  <cluster>  (6) 
1

$$$$

     RDKit          3D

 64 68  0  0  1  0  0  0  0  0999 V2000
  139.6510   71.0580  221.3590 O   0  0  0  0  0  0  0  0  0  0  0  0
  139.6640   71.5430  222.5190 C   0  0  0  0  0  0  0  0  0  0  0  0
  139.6440   72.9740  222.6900 N   0  0  0  0  0  0  0  0  0  0  0  0
  139.6000   73.9150  221.6470 C   0  0  0  0  0  0  0  0  0  0  0  0
  140.1130   75.2560  221.7900 C   0  0  0  0  0  0  0  0  0  0  0  0
  139.5550   75.9460  222.7390 O   0  0  0  0  0  0  0  0  0  0  0  0
  141.1160   75.9450  221.0680 N   0  0  0  0  0  0  0  0  0  0  0  0
  142.0780   75.3220  220.1540 C   0  0  0  0  0  0  0  0  0  0  0  0
  142.4380   76.4430  219.1690 C   0  0  2  0  0  0  0  0  0  0  0  0
  143.7700   76.7770  219.3300 O   0  0  0  0  0  0  0  0  0  0  0  0
  141.5920   77.6160  219.5770 C   0  0  0  0  0  0  0  0  0  0  0  0
  141.4400   77.3610  221.0700 C   0  0  1  0  0  0  0  0  0  0  0  0
  140.5210   78.2870  221.7200 C   0  0  2  0  0  0  0  0  0  0  0  0
  139.9890   79.4450  220.9640 C   0  0  0  0  0  0  0  0  0  0  0  0
  138.7370   79.9980  221.6580 C   0  0  0  0  0  0  0  0  0  0  0  0
  138.9360   79.8030  223.1490 C   0  0  2  0  0  0  0  0  0  0  0  0
  138.1270   80.8000  223.8960 C   0  0  0  0  0  0  0  0  0  0  0  0
  137.7970   80.6620  225.2290 C   0  0  0  0  0  0  0  0  0  0  0  0
  137.0330   81.6560  225.8350 C   0  0  0  0  0  0  0  0  0  0  0  0
  136.6300   82.7560  225.0770 C   0  0  0  0  0  0  0  0  0  0  0  0
  136.9650   82.8660  223.7790 N   0  0  0  0  0  0  0  0  0  0  0  0
  137.7040   81.9170  223.1700 C   0  0  0  0  0  0  0  0  0  0  0  0
  140.3570   79.9800  223.5550 C   0  0  0  0  0  0  0  0  0  0  0  0
  141.2020   78.8680  222.9730 C   0  0  0  0  0  0  0  0  0  0  0  0
  139.7010   70.6750  223.7050 C   0  0  0  0  0  0  0  0  0  0  0  0
  139.1900   69.3990  223.5960 C   0  0  0  0  0  0  0  0  0  0  0  0
  139.2460   68.6130  224.7460 C   0  0  0  0  0  0  0  0  0  0  0  0
  139.7830   69.0900  225.9280 C   0  0  0  0  0  0  0  0  0  0  0  0
  139.8540   68.3420  227.0790 C   0  0  0  0  0  0  0  0  0  0  0  0
  140.4040   68.8570  228.2530 C   0  0  0  0  0  0  0  0  0  0  0  0
  140.4820   68.1380  229.3900 F   0  0  0  0  0  0  0  0  0  0  0  0
  140.8940   70.1520  228.2700 C   0  0  0  0  0  0  0  0  0  0  0  0
  140.8340   70.9290  227.1190 C   0  0  0  0  0  0  0  0  0  0  0  0
  140.2820   70.3780  225.9810 C   0  0  0  0  0  0  0  0  0  0  0  0
  140.2190   71.1190  224.8630 N   0  0  0  0  0  0  0  0  0  0  0  0
  139.6640   73.3060  223.6990 H   0  0  0  0  0  0  0  0  0  0  0  0
  140.1499   73.4657  220.8069 H   0  0  0  0  0  0  0  0  0  0  0  0
  138.5192   74.0962  221.5525 H   0  0  0  0  0  0  0  0  0  0  0  0
  142.9699   74.9800  220.6995 H   0  0  0  0  0  0  0  0  0  0  0  0
  141.6685   74.4334  219.6513 H   0  0  0  0  0  0  0  0  0  0  0  0
  142.2695   76.1465  218.1232 H   0  0  0  0  0  0  0  0  0  0  0  0
  143.8710   77.7600  219.3500 H   0  0  0  0  0  0  0  0  0  0  0  0
  142.1029   78.5701  219.3803 H   0  0  0  0  0  0  0  0  0  0  0  0
  140.6398   77.6989  219.0324 H   0  0  0  0  0  0  0  0  0  0  0  0
  142.3212   77.5621  221.6970 H   0  0  0  0  0  0  0  0  0  0  0  0
  139.6453   77.6447  221.8948 H   0  0  0  0  0  0  0  0  0  0  0  0
  140.7561   80.2319  220.9165 H   0  0  0  0  0  0  0  0  0  0  0  0
  139.7230   79.1197  219.9475 H   0  0  0  0  0  0  0  0  0  0  0  0
  138.6190   81.0674  221.4290 H   0  0  0  0  0  0  0  0  0  0  0  0
  137.8324   79.4774  221.3106 H   0  0  0  0  0  0  0  0  0  0  0  0
  138.6237   78.7741  223.3812 H   0  0  0  0  0  0  0  0  0  0  0  0
  138.1309   79.7841  225.8014 H   0  0  0  0  0  0  0  0  0  0  0  0
  136.7514   81.5753  226.8953 H   0  0  0  0  0  0  0  0  0  0  0  0
  136.0282   83.5466  225.5489 H   0  0  0  0  0  0  0  0  0  0  0  0
  137.9724   82.0211  222.1083 H   0  0  0  0  0  0  0  0  0  0  0  0
  140.7240   80.9487  223.1848 H   0  0  0  0  0  0  0  0  0  0  0  0
  140.4261   79.9505  224.6524 H   0  0  0  0  0  0  0  0  0  0  0  0
  142.1896   79.2670  222.6985 H   0  0  0  0  0  0  0  0  0  0  0  0
  141.3157   78.0716  223.7232 H   0  0  0  0  0  0  0  0  0  0  0  0
  138.7624   69.0226  222.6550 H   0  0  0  0  0  0  0  0  0  0  0  0
  138.8527   67.5863  224.7125 H   0  0  0  0  0  0  0  0  0  0  0  0
  139.4677   67.3121  227.0743 H   0  0  0  0  0  0  0  0  0  0  0  0
  141.3296   70.5648  229.1919 H   0  0  0  0  0  0  0  0  0  0  0  0
  141.2179   71.9598  227.1156 H   0  0  0  0  0  0  0  0  0  0  0  0
  1  2  2  0
  2  3  1  0
  3  4  1  0
  4  5  1  0
  5  6  2  0
  5  7  1  0
  7  8  1  0
  8  9  1  0
  9 10  1  0
  9 11  1  0
 11 12  1  0
 12 13  1  0
 13 14  1  0
 14 15  1  0
 15 16  1  0
 16 17  1  0
 17 18  2  0
 18 19  1  0
 19 20  2  0
 20 21  1  0
 21 22  2  0
 16 23  1  0
 23 24  1  0
  2 25  1  0
 25 26  2  0
 26 27  1  0
 27 28  2  0
 28 29  1  0
 29 30  2  0
 30 31  1  0
 30 32  1  0
 32 33  2  0
 33 34  1  0
 34 35  2  0
 12  7  1  0
 24 13  1  0
 35 25  1  0
 22 17  1  0
 34 28  1  0
  3 36  1  0
  4 37  1  0
  4 38  1  0
  8 39  1  0
  8 40  1  0
  9 41  1  6
 10 42  1  0
 11 43  1  0
 11 44  1  0
 12 45  1  1
 13 46  1  1
 14 47  1  0
 14 48  1  0
 15 49  1  0
 15 50  1  0
 16 51  1  1
 18 52  1  0
 19 53  1  0
 20 54  1  0
 22 55  1  0
 23 56  1  0
 23 57  1  0
 24 58  1  0
 24 59  1  0
 26 60  1  0
 27 61  1  0
 29 62  1  0
 32 63  1  0
 33 64  1  0
M  END
>  <smiles>  (7) 
O=C(NCC(=O)N1C[C@H](O)C[C@H]1C1CCC(c2cccnc2)CC1)c1ccc2cc(F)ccc2n1

>  <score_type>  (7) 
oracle

>  <origin>  (7) 
autodockgpu

>  <m_score__min__energy>  (7) 
-9.5600000000000005

>  <m_primary>  (7) 
energy

>  <rmsd>  (7) 
1.6316921193898577

>  <m_score__min__rmsd>  (7) 
1.6316921193898577

>  <meeko>  (7) 
{"free_energy": -9.45, "intermolecular_energy": -11.53, "internal_energy": -1.75, "cluster_size": 14, "cluster_id": 1, "rank_in_cluster": 4}

>  <energy>  (7) 
-9.28

>  <cluster_rmsd>  (7) 
1.4

>  <cluster>  (7) 
1

$$$$

     RDKit          3D

 64 68  0  0  1  0  0  0  0  0999 V2000
  140.8270   73.6640  221.8640 O   0  0  0  0  0  0  0  0  0  0  0  0
  139.7410   73.2690  222.3610 C   0  0  0  0  0  0  0  0  0  0  0  0
  138.5690   74.1010  222.2590 N   0  0  0  0  0  0  0  0  0  0  0  0
  138.5170   75.3560  221.6280 C   0  0  0  0  0  0  0  0  0  0  0  0
  139.2980   75.6680  220.4550 C   0  0  0  0  0  0  0  0  0  0  0  0
  138.6950   75.4250  219.3300 O   0  0  0  0  0  0  0  0  0  0  0  0
  140.6070   76.1870  220.3250 N   0  0  0  0  0  0  0  0  0  0  0  0
  141.6820   75.5810  219.5340 C   0  0  0  0  0  0  0  0  0  0  0  0
  142.5840   76.7660  219.1590 C   0  0  2  0  0  0  0  0  0  0  0  0
  143.8130   76.6120  219.7760 O   0  0  0  0  0  0  0  0  0  0  0  0
  141.9050   77.9780  219.7310 C   0  0  0  0  0  0  0  0  0  0  0  0
  141.1890   77.3720  220.9300 C   0  0  1  0  0  0  0  0  0  0  0  0
  140.3080   78.3140  221.6090 C   0  0  2  0  0  0  0  0  0  0  0  0
  139.7530   79.4690  220.8630 C   0  0  0  0  0  0  0  0  0  0  0  0
  138.5370   80.0400  221.6030 C   0  0  0  0  0  0  0  0  0  0  0  0
  138.7980   79.8610  223.0870 C   0  0  2  0  0  0  0  0  0  0  0  0
  138.0320   80.8730  223.8560 C   0  0  0  0  0  0  0  0  0  0  0  0
  137.7050   80.7250  225.1890 C   0  0  0  0  0  0  0  0  0  0  0  0
  136.9820   81.7360  225.8170 C   0  0  0  0  0  0  0  0  0  0  0  0
  136.6140   82.8620  225.0800 C   0  0  0  0  0  0  0  0  0  0  0  0
  136.9450   82.9820  223.7830 N   0  0  0  0  0  0  0  0  0  0  0  0
  137.6440   82.0180  223.1520 C   0  0  0  0  0  0  0  0  0  0  0  0
  140.2380   80.0290  223.4290 C   0  0  0  0  0  0  0  0  0  0  0  0
  141.0470   78.9040  222.8240 C   0  0  0  0  0  0  0  0  0  0  0  0
  139.6470   71.9700  223.0440 C   0  0  0  0  0  0  0  0  0  0  0  0
  138.8270   71.0040  222.4980 C   0  0  0  0  0  0  0  0  0  0  0  0
  138.7690   69.7900  223.1800 C   0  0  0  0  0  0  0  0  0  0  0  0
  139.4940   69.5710  224.3380 C   0  0  0  0  0  0  0  0  0  0  0  0
  139.4590   68.3860  225.0340 C   0  0  0  0  0  0  0  0  0  0  0  0
  140.2050   68.2010  226.1990 C   0  0  0  0  0  0  0  0  0  0  0  0
  140.1840   67.0460  226.8940 F   0  0  0  0  0  0  0  0  0  0  0  0
  141.0020   69.2280  226.6730 C   0  0  0  0  0  0  0  0  0  0  0  0
  141.0540   70.4360  225.9870 C   0  0  0  0  0  0  0  0  0  0  0  0
  140.3000   70.5740  224.8400 C   0  0  0  0  0  0  0  0  0  0  0  0
  140.3420   71.7360  224.1690 N   0  0  0  0  0  0  0  0  0  0  0  0
  137.6940   73.7020  222.7090 H   0  0  0  0  0  0  0  0  0  0  0  0
  137.4655   75.5122  221.3451 H   0  0  0  0  0  0  0  0  0  0  0  0
  138.9775   76.0078  222.3850 H   0  0  0  0  0  0  0  0  0  0  0  0
  142.2365   74.8415  220.1303 H   0  0  0  0  0  0  0  0  0  0  0  0
  141.3052   75.0414  218.6526 H   0  0  0  0  0  0  0  0  0  0  0  0
  142.7374   76.8433  218.0725 H   0  0  0  0  0  0  0  0  0  0  0  0
  144.2280   77.4960  219.9240 H   0  0  0  0  0  0  0  0  0  0  0  0
  142.6343   78.7415  220.0396 H   0  0  0  0  0  0  0  0  0  0  0  0
  141.2435   78.5021  219.0255 H   0  0  0  0  0  0  0  0  0  0  0  0
  141.8150   77.1047  221.7941 H   0  0  0  0  0  0  0  0  0  0  0  0
  139.4362   77.6806  221.8297 H   0  0  0  0  0  0  0  0  0  0  0  0
  140.5237   80.2488  220.7740 H   0  0  0  0  0  0  0  0  0  0  0  0
  139.4410   79.1348  219.8625 H   0  0  0  0  0  0  0  0  0  0  0  0
  138.4175   81.1076  221.3663 H   0  0  0  0  0  0  0  0  0  0  0  0
  137.6145   79.5226  221.3009 H   0  0  0  0  0  0  0  0  0  0  0  0
  138.4859   78.8383  223.3450 H   0  0  0  0  0  0  0  0  0  0  0  0
  138.0097   79.8257  225.7444 H   0  0  0  0  0  0  0  0  0  0  0  0
  136.7052   81.6481  226.8780 H   0  0  0  0  0  0  0  0  0  0  0  0
  136.0432   83.6653  225.5688 H   0  0  0  0  0  0  0  0  0  0  0  0
  137.9078   82.1307  222.0901 H   0  0  0  0  0  0  0  0  0  0  0  0
  140.5970   80.9902  223.0325 H   0  0  0  0  0  0  0  0  0  0  0  0
  140.3543   80.0103  224.5227 H   0  0  0  0  0  0  0  0  0  0  0  0
  142.0248   79.2915  222.5020 H   0  0  0  0  0  0  0  0  0  0  0  0
  141.1865   78.1153  223.5780 H   0  0  0  0  0  0  0  0  0  0  0  0
  138.2520   71.1818  221.5773 H   0  0  0  0  0  0  0  0  0  0  0  0
  138.1303   68.9850  222.7875 H   0  0  0  0  0  0  0  0  0  0  0  0
  138.8282   67.5643  224.6640 H   0  0  0  0  0  0  0  0  0  0  0  0
  141.5929   69.0889  227.5903 H   0  0  0  0  0  0  0  0  0  0  0  0
  141.6819   71.2628  226.3504 H   0  0  0  0  0  0  0  0  0  0  0  0
  1  2  2  0
  2  3  1  0
  3  4  1  0
  4  5  1  0
  5  6  2  0
  5  7  1  0
  7  8  1  0
  8  9  1  0
  9 10  1  0
  9 11  1  0
 11 12  1  0
 12 13  1  0
 13 14  1  0
 14 15  1  0
 15 16  1  0
 16 17  1  0
 17 18  2  0
 18 19  1  0
 19 20  2  0
 20 21  1  0
 21 22  2  0
 16 23  1  0
 23 24  1  0
  2 25  1  0
 25 26  2  0
 26 27  1  0
 27 28  2  0
 28 29  1  0
 29 30  2  0
 30 31  1  0
 30 32  1  0
 32 33  2  0
 33 34  1  0
 34 35  2  0
 12  7  1  0
 24 13  1  0
 35 25  1  0
 22 17  1  0
 34 28  1  0
  3 36  1  0
  4 37  1  0
  4 38  1  0
  8 39  1  0
  8 40  1  0
  9 41  1  6
 10 42  1  0
 11 43  1  0
 11 44  1  0
 12 45  1  1
 13 46  1  1
 14 47  1  0
 14 48  1  0
 15 49  1  0
 15 50  1  0
 16 51  1  1
 18 52  1  0
 19 53  1  0
 20 54  1  0
 22 55  1  0
 23 56  1  0
 23 57  1  0
 24 58  1  0
 24 59  1  0
 26 60  1  0
 27 61  1  0
 29 62  1  0
 32 63  1  0
 33 64  1  0
M  END
>  <smiles>  (8) 
O=C(NCC(=O)N1C[C@H](O)C[C@H]1C1CCC(c2cccnc2)CC1)c1ccc2cc(F)ccc2n1

>  <score_type>  (8) 
oracle

>  <origin>  (8) 
autodockgpu

>  <m_score__min__energy>  (8) 
-9.5600000000000005

>  <m_primary>  (8) 
energy

>  <rmsd>  (8) 
2.154992379385192

>  <m_score__min__rmsd>  (8) 
2.154992379385192

>  <meeko>  (8) 
{"free_energy": -8.49, "intermolecular_energy": -10.58, "internal_energy": -1.71, "cluster_size": 14, "cluster_id": 1, "rank_in_cluster": 14}

>  <energy>  (8) 
-9.27

>  <cluster_rmsd>  (8) 
0.88

>  <cluster>  (8) 
1

$$$$

     RDKit          3D

 64 68  0  0  1  0  0  0  0  0999 V2000
  139.9230   73.6520  222.3370 O   0  0  0  0  0  0  0  0  0  0  0  0
  140.4320   72.5020  222.3620 C   0  0  0  0  0  0  0  0  0  0  0  0
  141.2580   72.0680  221.2630 N   0  0  0  0  0  0  0  0  0  0  0  0
  141.5680   72.8370  220.1280 C   0  0  0  0  0  0  0  0  0  0  0  0
  142.8750   73.4100  219.9110 C   0  0  0  0  0  0  0  0  0  0  0  0
  143.7460   73.1170  220.8290 O   0  0  0  0  0  0  0  0  0  0  0  0
  143.3620   74.2370  218.8730 N   0  0  0  0  0  0  0  0  0  0  0  0
  144.0230   73.7630  217.6530 C   0  0  0  0  0  0  0  0  0  0  0  0
  143.7380   74.8640  216.6220 C   0  0  2  0  0  0  0  0  0  0  0  0
  144.9290   75.4740  216.2700 O   0  0  0  0  0  0  0  0  0  0  0  0
  142.8750   75.8650  217.3370 C   0  0  0  0  0  0  0  0  0  0  0  0
  143.3500   75.6860  218.7720 C   0  0  1  0  0  0  0  0  0  0  0  0
  142.5650   76.4470  219.7360 C   0  0  2  0  0  0  0  0  0  0  0  0
  141.2060   75.9830  220.1060 C   0  0  0  0  0  0  0  0  0  0  0  0
  140.7640   76.6370  221.4210 C   0  0  0  0  0  0  0  0  0  0  0  0
  141.3710   78.0280  221.4480 C   0  0  2  0  0  0  0  0  0  0  0  0
  140.5520   78.9130  222.3140 C   0  0  0  0  0  0  0  0  0  0  0  0
  139.2280   78.6660  222.6130 C   0  0  0  0  0  0  0  0  0  0  0  0
  138.5490   79.5610  223.4360 C   0  0  0  0  0  0  0  0  0  0  0  0
  139.2300   80.6740  223.9310 C   0  0  0  0  0  0  0  0  0  0  0  0
  140.5200   80.8920  223.6240 N   0  0  0  0  0  0  0  0  0  0  0  0
  141.1990   80.0410  222.8290 C   0  0  0  0  0  0  0  0  0  0  0  0
  141.4230   78.6440  220.0930 C   0  0  0  0  0  0  0  0  0  0  0  0
  142.3990   77.8880  219.2200 C   0  0  0  0  0  0  0  0  0  0  0  0
  140.2000   71.5920  223.4930 C   0  0  0  0  0  0  0  0  0  0  0  0
  139.5270   70.4130  223.2540 C   0  0  0  0  0  0  0  0  0  0  0  0
  139.3300   69.5820  224.3560 C   0  0  0  0  0  0  0  0  0  0  0  0
  139.7850   69.9270  225.6170 C   0  0  0  0  0  0  0  0  0  0  0  0
  139.6080   69.1310  226.7240 C   0  0  0  0  0  0  0  0  0  0  0  0
  140.0820   69.5110  227.9790 C   0  0  0  0  0  0  0  0  0  0  0  0
  139.9180   68.7440  229.0760 F   0  0  0  0  0  0  0  0  0  0  0  0
  140.7490   70.7150  228.1260 C   0  0  0  0  0  0  0  0  0  0  0  0
  140.9400   71.5370  227.0210 C   0  0  0  0  0  0  0  0  0  0  0  0
  140.4550   71.1210  225.7990 C   0  0  0  0  0  0  0  0  0  0  0  0
  140.6350   71.9070  224.7250 N   0  0  0  0  0  0  0  0  0  0  0  0
  141.6450   71.0840  221.3540 H   0  0  0  0  0  0  0  0  0  0  0  0
  141.3693   72.1924  219.2591 H   0  0  0  0  0  0  0  0  0  0  0  0
  140.9531   73.7346  220.2899 H   0  0  0  0  0  0  0  0  0  0  0  0
  145.1052   73.6492  217.8140 H   0  0  0  0  0  0  0  0  0  0  0  0
  143.6575   72.7770  217.3302 H   0  0  0  0  0  0  0  0  0  0  0  0
  143.2584   74.4680  215.7147 H   0  0  0  0  0  0  0  0  0  0  0  0
  145.4910   75.6030  217.0730 H   0  0  0  0  0  0  0  0  0  0  0  0
  143.0583   76.8876  216.9755 H   0  0  0  0  0  0  0  0  0  0  0  0
  141.7945   75.7153  217.1951 H   0  0  0  0  0  0  0  0  0  0  0  0
  144.3363   76.1050  219.0201 H   0  0  0  0  0  0  0  0  0  0  0  0
  143.1608   76.3231  220.6523 H   0  0  0  0  0  0  0  0  0  0  0  0
  140.4990   76.2559  219.3087 H   0  0  0  0  0  0  0  0  0  0  0  0
  141.2220   74.8908  220.2354 H   0  0  0  0  0  0  0  0  0  0  0  0
  139.6667   76.7024  221.4608 H   0  0  0  0  0  0  0  0  0  0  0  0
  141.0973   76.0453  222.2863 H   0  0  0  0  0  0  0  0  0  0  0  0
  142.3961   77.9236  221.8330 H   0  0  0  0  0  0  0  0  0  0  0  0
  138.7183   77.7789  222.2090 H   0  0  0  0  0  0  0  0  0  0  0  0
  137.4924   79.3933  223.6919 H   0  0  0  0  0  0  0  0  0  0  0  0
  138.7019   81.3849  224.5835 H   0  0  0  0  0  0  0  0  0  0  0  0
  142.2548   80.2325  222.5869 H   0  0  0  0  0  0  0  0  0  0  0  0
  140.4225   78.6076  219.6374 H   0  0  0  0  0  0  0  0  0  0  0  0
  141.7532   79.6894  220.1833 H   0  0  0  0  0  0  0  0  0  0  0  0
  142.0199   77.8633  218.1877 H   0  0  0  0  0  0  0  0  0  0  0  0
  143.3748   78.3950  219.2487 H   0  0  0  0  0  0  0  0  0  0  0  0
  139.1658   70.1431  222.2507 H   0  0  0  0  0  0  0  0  0  0  0  0
  138.7996   68.6280  224.2200 H   0  0  0  0  0  0  0  0  0  0  0  0
  139.0801   68.1719  226.6170 H   0  0  0  0  0  0  0  0  0  0  0  0
  141.1264   71.0202  229.1131 H   0  0  0  0  0  0  0  0  0  0  0  0
  141.4663   72.4979  227.1194 H   0  0  0  0  0  0  0  0  0  0  0  0
  1  2  2  0
  2  3  1  0
  3  4  1  0
  4  5  1  0
  5  6  2  0
  5  7  1  0
  7  8  1  0
  8  9  1  0
  9 10  1  0
  9 11  1  0
 11 12  1  0
 12 13  1  0
 13 14  1  0
 14 15  1  0
 15 16  1  0
 16 17  1  0
 17 18  2  0
 18 19  1  0
 19 20  2  0
 20 21  1  0
 21 22  2  0
 16 23  1  0
 23 24  1  0
  2 25  1  0
 25 26  2  0
 26 27  1  0
 27 28  2  0
 28 29  1  0
 29 30  2  0
 30 31  1  0
 30 32  1  0
 32 33  2  0
 33 34  1  0
 34 35  2  0
 12  7  1  0
 24 13  1  0
 35 25  1  0
 22 17  1  0
 34 28  1  0
  3 36  1  0
  4 37  1  0
  4 38  1  0
  8 39  1  0
  8 40  1  0
  9 41  1  6
 10 42  1  0
 11 43  1  0
 11 44  1  0
 12 45  1  6
 13 46  1  1
 14 47  1  0
 14 48  1  0
 15 49  1  0
 15 50  1  0
 16 51  1  1
 18 52  1  0
 19 53  1  0
 20 54  1  0
 22 55  1  0
 23 56  1  0
 23 57  1  0
 24 58  1  0
 24 59  1  0
 26 60  1  0
 27 61  1  0
 29 62  1  0
 32 63  1  0
 33 64  1  0
M  END
>  <smiles>  (9) 
O=C(NCC(=O)N1C[C@H](O)C[C@H]1C1CCC(c2cccnc2)CC1)c1ccc2cc(F)ccc2n1

>  <score_type>  (9) 
oracle

>  <origin>  (9) 
autodockgpu

>  <m_score__min__energy>  (9) 
-9.5600000000000005

>  <m_primary>  (9) 
energy

>  <rmsd>  (9) 
2.8437802845076687

>  <m_score__min__rmsd>  (9) 
2.8437802845076687

>  <meeko>  (9) 
{"free_energy": -9.34, "intermolecular_energy": -11.42, "internal_energy": -1.7, "cluster_size": 1, "cluster_id": 2, "rank_in_cluster": 1}

>  <energy>  (9) 
-9.24

>  <cluster_rmsd>  (9) 
0.99

>  <cluster>  (9) 
1

$$$$

     RDKit          3D

 64 68  0  0  1  0  0  0  0  0999 V2000
  141.3900   72.2040  221.4620 O   0  0  0  0  0  0  0  0  0  0  0  0
  140.5030   72.4500  222.3190 C   0  0  0  0  0  0  0  0  0  0  0  0
  139.6920   73.6330  222.1810 N   0  0  0  0  0  0  0  0  0  0  0  0
  139.7950   74.5710  221.1390 C   0  0  0  0  0  0  0  0  0  0  0  0
  140.8140   75.5930  221.1110 C   0  0  0  0  0  0  0  0  0  0  0  0
  141.2670   75.9290  222.2810 O   0  0  0  0  0  0  0  0  0  0  0  0
  141.3950   76.2900  220.0270 N   0  0  0  0  0  0  0  0  0  0  0  0
  141.1200   77.6860  219.6750 C   0  0  0  0  0  0  0  0  0  0  0  0
  142.3950   78.1490  218.9550 C   0  0  2  0  0  0  0  0  0  0  0  0
  142.0950   78.4200  217.6320 O   0  0  0  0  0  0  0  0  0  0  0  0
  143.3290   76.9740  219.0090 C   0  0  0  0  0  0  0  0  0  0  0  0
  142.3410   75.8160  219.0310 C   0  0  1  0  0  0  0  0  0  0  0  0
  142.9780   74.5210  219.2340 C   0  0  2  0  0  0  0  0  0  0  0  0
  144.2060   74.4270  220.0590 C   0  0  0  0  0  0  0  0  0  0  0  0
  144.4320   72.9780  220.5070 C   0  0  0  0  0  0  0  0  0  0  0  0
  143.9270   72.0860  219.3890 C   0  0  2  0  0  0  0  0  0  0  0  0
  144.6240   70.7760  219.4420 C   0  0  0  0  0  0  0  0  0  0  0  0
  145.9070   70.5810  218.9700 C   0  0  0  0  0  0  0  0  0  0  0  0
  146.4690   69.3100  219.0680 C   0  0  0  0  0  0  0  0  0  0  0  0
  145.7190   68.2810  219.6380 C   0  0  0  0  0  0  0  0  0  0  0  0
  144.4720   68.4980  220.0900 N   0  0  0  0  0  0  0  0  0  0  0  0
  143.9050   69.7180  220.0070 C   0  0  0  0  0  0  0  0  0  0  0  0
  144.1760   72.6750  218.0440 C   0  0  0  0  0  0  0  0  0  0  0  0
  143.3350   73.9200  217.8630 C   0  0  0  0  0  0  0  0  0  0  0  0
  140.2780   71.5500  223.4590 C   0  0  0  0  0  0  0  0  0  0  0  0
  139.6230   70.3580  223.2310 C   0  0  0  0  0  0  0  0  0  0  0  0
  139.4330   69.5370  224.3420 C   0  0  0  0  0  0  0  0  0  0  0  0
  139.8760   69.9030  225.6000 C   0  0  0  0  0  0  0  0  0  0  0  0
  139.7050   69.1170  226.7150 C   0  0  0  0  0  0  0  0  0  0  0  0
  140.1670   69.5180  227.9690 C   0  0  0  0  0  0  0  0  0  0  0  0
  140.0080   68.7620  229.0730 F   0  0  0  0  0  0  0  0  0  0  0  0
  140.8150   70.7340  228.1050 C   0  0  0  0  0  0  0  0  0  0  0  0
  141.0000   71.5460  226.9920 C   0  0  0  0  0  0  0  0  0  0  0  0
  140.5270   71.1090  225.7720 C   0  0  0  0  0  0  0  0  0  0  0  0
  140.7010   71.8850  224.6900 N   0  0  0  0  0  0  0  0  0  0  0  0
  138.9710   73.7750  222.9480 H   0  0  0  0  0  0  0  0  0  0  0  0
  139.9223   73.9878  220.2151 H   0  0  0  0  0  0  0  0  0  0  0  0
  138.8823   75.1678  221.2831 H   0  0  0  0  0  0  0  0  0  0  0  0
  140.2478   77.7561  219.0084 H   0  0  0  0  0  0  0  0  0  0  0  0
  140.8832   78.3041  220.5536 H   0  0  0  0  0  0  0  0  0  0  0  0
  142.8269   79.0508  219.4136 H   0  0  0  0  0  0  0  0  0  0  0  0
  142.8530   78.8880  217.2050 H   0  0  0  0  0  0  0  0  0  0  0  0
  143.9786   76.9336  218.1222 H   0  0  0  0  0  0  0  0  0  0  0  0
  144.0274   76.9895  219.8587 H   0  0  0  0  0  0  0  0  0  0  0  0
  141.8323   75.5842  218.0836 H   0  0  0  0  0  0  0  0  0  0  0  0
  142.2123   73.9871  219.8158 H   0  0  0  0  0  0  0  0  0  0  0  0
  145.0692   74.7629  219.4657 H   0  0  0  0  0  0  0  0  0  0  0  0
  144.0913   75.0643  220.9482 H   0  0  0  0  0  0  0  0  0  0  0  0
  145.5035   72.7983  220.6793 H   0  0  0  0  0  0  0  0  0  0  0  0
  143.9001   72.7695  221.4470 H   0  0  0  0  0  0  0  0  0  0  0  0
  142.8426   71.9727  219.5348 H   0  0  0  0  0  0  0  0  0  0  0  0
  146.4738   71.4124  218.5256 H   0  0  0  0  0  0  0  0  0  0  0  0
  147.4887   69.1207  218.7015 H   0  0  0  0  0  0  0  0  0  0  0  0
  146.1558   67.2747  219.7189 H   0  0  0  0  0  0  0  0  0  0  0  0
  142.8834   69.8803  220.3812 H   0  0  0  0  0  0  0  0  0  0  0  0
  145.2403   72.9373  217.9521 H   0  0  0  0  0  0  0  0  0  0  0  0
  143.9059   71.9402  217.2713 H   0  0  0  0  0  0  0  0  0  0  0  0
  143.9012   74.6596  217.2778 H   0  0  0  0  0  0  0  0  0  0  0  0
  142.4079   73.6544  217.3339 H   0  0  0  0  0  0  0  0  0  0  0  0
  139.2704   70.0711  222.2293 H   0  0  0  0  0  0  0  0  0  0  0  0
  138.9176   68.5736  224.2146 H   0  0  0  0  0  0  0  0  0  0  0  0
  139.1918   68.1491  226.6161 H   0  0  0  0  0  0  0  0  0  0  0  0
  141.1822   71.0564  229.0905 H   0  0  0  0  0  0  0  0  0  0  0  0
  141.5121   72.5153  227.0821 H   0  0  0  0  0  0  0  0  0  0  0  0
  1  2  2  0
  2  3  1  0
  3  4  1  0
  4  5  1  0
  5  6  2  0
  5  7  1  0
  7  8  1  0
  8  9  1  0
  9 10  1  0
  9 11  1  0
 11 12  1  0
 12 13  1  0
 13 14  1  0
 14 15  1  0
 15 16  1  0
 16 17  1  0
 17 18  2  0
 18 19  1  0
 19 20  2  0
 20 21  1  0
 21 22  2  0
 16 23  1  0
 23 24  1  0
  2 25  1  0
 25 26  2  0
 26 27  1  0
 27 28  2  0
 28 29  1  0
 29 30  2  0
 30 31  1  0
 30 32  1  0
 32 33  2  0
 33 34  1  0
 34 35  2  0
 12  7  1  0
 24 13  1  0
 35 25  1  0
 22 17  1  0
 34 28  1  0
  3 36  1  0
  4 37  1  0
  4 38  1  0
  8 39  1  0
  8 40  1  0
  9 41  1  1
 10 42  1  0
 11 43  1  0
 11 44  1  0
 12 45  1  6
 13 46  1  1
 14 47  1  0
 14 48  1  0
 15 49  1  0
 15 50  1  0
 16 51  1  1
 18 52  1  0
 19 53  1  0
 20 54  1  0
 22 55  1  0
 23 56  1  0
 23 57  1  0
 24 58  1  0
 24 59  1  0
 26 60  1  0
 27 61  1  0
 29 62  1  0
 32 63  1  0
 33 64  1  0
M  END
>  <smiles>  (10) 
O=C(NCC(=O)N1C[C@H](O)C[C@H]1C1CCC(c2cccnc2)CC1)c1ccc2cc(F)ccc2n1

>  <score_type>  (10) 
oracle

>  <origin>  (10) 
autodockgpu

>  <m_score__min__energy>  (10) 
-9.5600000000000005

>  <m_primary>  (10) 
energy

>  <rmsd>  (10) 
2.257451129200363

>  <m_score__min__rmsd>  (10) 
2.257451129200363

>  <meeko>  (10) 
{"free_energy": -9.11, "intermolecular_energy": -11.2, "internal_energy": -2.16, "cluster_size": 11, "cluster_id": 3, "rank_in_cluster": 3}

>  <energy>  (10) 
-9.14

>  <cluster_rmsd>  (10) 
0.91

>  <cluster>  (10) 
1

$$$$

     RDKit          3D

 64 68  0  0  1  0  0  0  0  0999 V2000
  138.6820   71.7220  221.0610 O   0  0  0  0  0  0  0  0  0  0  0  0
  139.0490   72.2040  222.1630 C   0  0  0  0  0  0  0  0  0  0  0  0
  139.1420   73.6340  222.3170 N   0  0  0  0  0  0  0  0  0  0  0  0
  138.8430   74.5780  221.3190 C   0  0  0  0  0  0  0  0  0  0  0  0
  139.7580   74.8930  220.2480 C   0  0  0  0  0  0  0  0  0  0  0  0
  139.3430   74.5410  219.0690 O   0  0  0  0  0  0  0  0  0  0  0  0
  141.0280   75.5140  220.2700 N   0  0  0  0  0  0  0  0  0  0  0  0
  142.2170   75.0310  219.5590 C   0  0  0  0  0  0  0  0  0  0  0  0
  143.0530   76.2980  219.3270 C   0  0  2  0  0  0  0  0  0  0  0  0
  144.2280   76.2030  220.0520 O   0  0  0  0  0  0  0  0  0  0  0  0
  142.2300   77.4250  219.8840 C   0  0  0  0  0  0  0  0  0  0  0  0
  141.4570   76.7060  220.9800 C   0  0  1  0  0  0  0  0  0  0  0  0
  140.4440   77.5430  221.6130 C   0  0  2  0  0  0  0  0  0  0  0  0
  139.7410   78.5750  220.8140 C   0  0  0  0  0  0  0  0  0  0  0  0
  138.4500   79.0020  221.5220 C   0  0  0  0  0  0  0  0  0  0  0  0
  138.7170   78.9240  223.0130 C   0  0  2  0  0  0  0  0  0  0  0  0
  137.8070   79.8520  223.7330 C   0  0  0  0  0  0  0  0  0  0  0  0
  138.2540   80.8400  224.5860 C   0  0  0  0  0  0  0  0  0  0  0  0
  137.3160   81.6570  225.2120 C   0  0  0  0  0  0  0  0  0  0  0  0
  135.9600   81.4510  224.9550 C   0  0  0  0  0  0  0  0  0  0  0  0
  135.5520   80.4810  224.1190 N   0  0  0  0  0  0  0  0  0  0  0  0
  136.4400   79.6760  223.5010 C   0  0  0  0  0  0  0  0  0  0  0  0
  140.1150   79.3080  223.3540 C   0  0  0  0  0  0  0  0  0  0  0  0
  141.0800   78.2820  222.8040 C   0  0  0  0  0  0  0  0  0  0  0  0
  139.3850   71.3330  223.2990 C   0  0  0  0  0  0  0  0  0  0  0  0
  139.1590   69.9790  223.1730 C   0  0  0  0  0  0  0  0  0  0  0  0
  139.4920   69.1930  224.2750 C   0  0  0  0  0  0  0  0  0  0  0  0
  140.0200   69.7460  225.4280 C   0  0  0  0  0  0  0  0  0  0  0  0
  140.3600   69.0000  226.5320 C   0  0  0  0  0  0  0  0  0  0  0  0
  140.8910   69.5920  227.6780 C   0  0  0  0  0  0  0  0  0  0  0  0
  141.2300   68.8770  228.7700 F   0  0  0  0  0  0  0  0  0  0  0  0
  141.0850   70.9610  227.7160 C   0  0  0  0  0  0  0  0  0  0  0  0
  140.7490   71.7370  226.6130 C   0  0  0  0  0  0  0  0  0  0  0  0
  140.2270   71.1090  225.5000 C   0  0  0  0  0  0  0  0  0  0  0  0
  139.8990   71.8490  224.4290 N   0  0  0  0  0  0  0  0  0  0  0  0
  139.4660   73.9630  223.2730 H   0  0  0  0  0  0  0  0  0  0  0  0
  137.9175   74.2298  220.8371 H   0  0  0  0  0  0  0  0  0  0  0  0
  138.8366   75.5167  221.8924 H   0  0  0  0  0  0  0  0  0  0  0  0
  142.7705   74.3044  220.1719 H   0  0  0  0  0  0  0  0  0  0  0  0
  141.9675   74.5116  218.6220 H   0  0  0  0  0  0  0  0  0  0  0  0
  143.2999   76.4439  218.2650 H   0  0  0  0  0  0  0  0  0  0  0  0
  144.4530   77.0830  220.4430 H   0  0  0  0  0  0  0  0  0  0  0  0
  142.8647   78.2240  220.2949 H   0  0  0  0  0  0  0  0  0  0  0  0
  141.5972   77.9341  219.1421 H   0  0  0  0  0  0  0  0  0  0  0  0
  142.0209   76.4421  221.8869 H   0  0  0  0  0  0  0  0  0  0  0  0
  139.6668   76.8039  221.8574 H   0  0  0  0  0  0  0  0  0  0  0  0
  140.3962   79.4503  220.6934 H   0  0  0  0  0  0  0  0  0  0  0  0
  139.4891   78.1568  219.8283 H   0  0  0  0  0  0  0  0  0  0  0  0
  138.1862   80.0316  221.2386 H   0  0  0  0  0  0  0  0  0  0  0  0
  137.6115   78.3491  221.2381 H   0  0  0  0  0  0  0  0  0  0  0  0
  138.5490   77.8795  223.3144 H   0  0  0  0  0  0  0  0  0  0  0  0
  139.3298   80.9796  224.7680 H   0  0  0  0  0  0  0  0  0  0  0  0
  137.6392   82.4530  225.8990 H   0  0  0  0  0  0  0  0  0  0  0  0
  135.2129   82.0930  225.4446 H   0  0  0  0  0  0  0  0  0  0  0  0
  136.0910   78.8865  222.8192 H   0  0  0  0  0  0  0  0  0  0  0  0
  140.3400   80.2917  222.9162 H   0  0  0  0  0  0  0  0  0  0  0  0
  140.2209   79.3545  224.4479 H   0  0  0  0  0  0  0  0  0  0  0  0
  141.9978   78.7880  222.4701 H   0  0  0  0  0  0  0  0  0  0  0  0
  141.3199   77.5540  223.5930 H   0  0  0  0  0  0  0  0  0  0  0  0
  138.7394   69.5432  222.2543 H   0  0  0  0  0  0  0  0  0  0  0  0
  139.3310   68.1059  224.2267 H   0  0  0  0  0  0  0  0  0  0  0  0
  140.2097   67.9105  226.5109 H   0  0  0  0  0  0  0  0  0  0  0  0
  141.5039   71.4341  228.6164 H   0  0  0  0  0  0  0  0  0  0  0  0
  140.8957   72.8271  226.6266 H   0  0  0  0  0  0  0  0  0  0  0  0
  1  2  2  0
  2  3  1  0
  3  4  1  0
  4  5  1  0
  5  6  2  0
  5  7  1  0
  7  8  1  0
  8  9  1  0
  9 10  1  0
  9 11  1  0
 11 12  1  0
 12 13  1  0
 13 14  1  0
 14 15  1  0
 15 16  1  0
 16 17  1  0
 17 18  2  0
 18 19  1  0
 19 20  2  0
 20 21  1  0
 21 22  2  0
 16 23  1  0
 23 24  1  0
  2 25  1  0
 25 26  2  0
 26 27  1  0
 27 28  2  0
 28 29  1  0
 29 30  2  0
 30 31  1  0
 30 32  1  0
 32 33  2  0
 33 34  1  0
 34 35  2  0
 12  7  1  0
 24 13  1  0
 35 25  1  0
 22 17  1  0
 34 28  1  0
  3 36  1  0
  4 37  1  0
  4 38  1  0
  8 39  1  0
  8 40  1  0
  9 41  1  6
 10 42  1  0
 11 43  1  0
 11 44  1  0
 12 45  1  1
 13 46  1  1
 14 47  1  0
 14 48  1  0
 15 49  1  0
 15 50  1  0
 16 51  1  1
 18 52  1  0
 19 53  1  0
 20 54  1  0
 22 55  1  0
 23 56  1  0
 23 57  1  0
 24 58  1  0
 24 59  1  0
 26 60  1  0
 27 61  1  0
 29 62  1  0
 32 63  1  0
 33 64  1  0
M  END
>  <smiles>  (11) 
O=C(NCC(=O)N1C[C@H](O)C[C@H]1C1CCC(c2cccnc2)CC1)c1ccc2cc(F)ccc2n1

>  <score_type>  (11) 
oracle

>  <origin>  (11) 
autodockgpu

>  <m_score__min__energy>  (11) 
-9.5600000000000005

>  <m_primary>  (11) 
energy

>  <rmsd>  (11) 
1.7730276145383672

>  <m_score__min__rmsd>  (11) 
1.7730276145383672

>  <meeko>  (11) 
{"free_energy": -8.54, "intermolecular_energy": -10.63, "internal_energy": -1.98, "cluster_size": 14, "cluster_id": 1, "rank_in_cluster": 13}

>  <energy>  (11) 
-9.13

>  <cluster_rmsd>  (11) 
1.42

>  <cluster>  (11) 
1

$$$$

     RDKit          3D

 64 68  0  0  1  0  0  0  0  0999 V2000
  136.6620   76.9280  221.5590 O   0  0  0  0  0  0  0  0  0  0  0  0
  136.7400   76.0390  222.4450 C   0  0  0  0  0  0  0  0  0  0  0  0
  137.7240   74.9940  222.3170 N   0  0  0  0  0  0  0  0  0  0  0  0
  138.6470   74.8730  221.2630 C   0  0  0  0  0  0  0  0  0  0  0  0
  140.0690   74.7680  221.4850 C   0  0  0  0  0  0  0  0  0  0  0  0
  140.4170   73.7960  222.2740 O   0  0  0  0  0  0  0  0  0  0  0  0
  141.1420   75.5460  220.9930 N   0  0  0  0  0  0  0  0  0  0  0  0
  142.2390   75.0430  220.1610 C   0  0  0  0  0  0  0  0  0  0  0  0
  142.7010   76.2730  219.3670 C   0  0  2  0  0  0  0  0  0  0  0  0
  143.9880   76.6040  219.7510 O   0  0  0  0  0  0  0  0  0  0  0  0
  141.7730   77.3820  219.7780 C   0  0  0  0  0  0  0  0  0  0  0  0
  141.4220   76.9570  221.1960 C   0  0  1  0  0  0  0  0  0  0  0  0
  140.3960   77.7910  221.8090 C   0  0  2  0  0  0  0  0  0  0  0  0
  139.7720   78.8830  221.0230 C   0  0  0  0  0  0  0  0  0  0  0  0
  138.4510   79.3130  221.6730 C   0  0  0  0  0  0  0  0  0  0  0  0
  138.6220   79.1520  223.1720 C   0  0  2  0  0  0  0  0  0  0  0  0
  137.6950   80.0690  223.8820 C   0  0  0  0  0  0  0  0  0  0  0  0
  138.0790   80.8570  224.9490 C   0  0  0  0  0  0  0  0  0  0  0  0
  137.1300   81.6830  225.5450 C   0  0  0  0  0  0  0  0  0  0  0  0
  135.8270   81.6890  225.0440 C   0  0  0  0  0  0  0  0  0  0  0  0
  135.4800   80.9110  224.0040 N   0  0  0  0  0  0  0  0  0  0  0  0
  136.3800   80.1030  223.4100 C   0  0  0  0  0  0  0  0  0  0  0  0
  140.0060   79.4760  223.6170 C   0  0  0  0  0  0  0  0  0  0  0  0
  140.9760   78.4500  223.0730 C   0  0  0  0  0  0  0  0  0  0  0  0
  135.8420   76.0460  223.6090 C   0  0  0  0  0  0  0  0  0  0  0  0
  135.7430   74.8960  224.3640 C   0  0  0  0  0  0  0  0  0  0  0  0
  134.8810   74.9490  225.4580 C   0  0  0  0  0  0  0  0  0  0  0  0
  134.1660   76.0930  225.7640 C   0  0  0  0  0  0  0  0  0  0  0  0
  133.3080   76.1800  226.8350 C   0  0  0  0  0  0  0  0  0  0  0  0
  132.6040   77.3520  227.1140 C   0  0  0  0  0  0  0  0  0  0  0  0
  131.7580   77.4550  228.1590 F   0  0  0  0  0  0  0  0  0  0  0  0
  132.7660   78.4590  226.3010 C   0  0  0  0  0  0  0  0  0  0  0  0
  133.6280   78.3970  225.2120 C   0  0  0  0  0  0  0  0  0  0  0  0
  134.3040   77.2180  224.9740 C   0  0  0  0  0  0  0  0  0  0  0  0
  135.1390   77.1470  223.9250 N   0  0  0  0  0  0  0  0  0  0  0  0
  137.7220   74.2760  223.1000 H   0  0  0  0  0  0  0  0  0  0  0  0
  138.3575   73.9699  220.7058 H   0  0  0  0  0  0  0  0  0  0  0  0
  138.5668   75.8577  220.7793 H   0  0  0  0  0  0  0  0  0  0  0  0
  143.0556   74.6523  220.7859 H   0  0  0  0  0  0  0  0  0  0  0  0
  141.9286   74.2124  219.5100 H   0  0  0  0  0  0  0  0  0  0  0  0
  142.6886   76.0944  218.2817 H   0  0  0  0  0  0  0  0  0  0  0  0
  143.9700   77.3990  220.3380 H   0  0  0  0  0  0  0  0  0  0  0  0
  142.2790   78.3586  219.7626 H   0  0  0  0  0  0  0  0  0  0  0  0
  140.9042   77.5146  219.1164 H   0  0  0  0  0  0  0  0  0  0  0  0
  142.2021   77.0971  221.9587 H   0  0  0  0  0  0  0  0  0  0  0  0
  139.5858   77.0641  221.9676 H   0  0  0  0  0  0  0  0  0  0  0  0
  140.4569   79.7430  220.9879 H   0  0  0  0  0  0  0  0  0  0  0  0
  139.5706   78.5225  220.0034 H   0  0  0  0  0  0  0  0  0  0  0  0
  138.2336   80.3631  221.4281 H   0  0  0  0  0  0  0  0  0  0  0  0
  137.6145   78.7008  221.3050 H   0  0  0  0  0  0  0  0  0  0  0  0
  138.4071   78.0993  223.4079 H   0  0  0  0  0  0  0  0  0  0  0  0
  139.1140   80.8325  225.3206 H   0  0  0  0  0  0  0  0  0  0  0  0
  137.4029   82.3215  226.3981 H   0  0  0  0  0  0  0  0  0  0  0  0
  135.0720   82.3409  225.5077 H   0  0  0  0  0  0  0  0  0  0  0  0
  136.0814   79.4738  222.5585 H   0  0  0  0  0  0  0  0  0  0  0  0
  140.2842   80.4735  223.2460 H   0  0  0  0  0  0  0  0  0  0  0  0
  140.0449   79.4636  224.7162 H   0  0  0  0  0  0  0  0  0  0  0  0
  141.9259   78.9447  222.8220 H   0  0  0  0  0  0  0  0  0  0  0  0
  141.1468   77.6763  223.8360 H   0  0  0  0  0  0  0  0  0  0  0  0
  136.3124   73.9879  224.1166 H   0  0  0  0  0  0  0  0  0  0  0  0
  134.7664   74.0588  226.0940 H   0  0  0  0  0  0  0  0  0  0  0  0
  133.1734   75.3047  227.4875 H   0  0  0  0  0  0  0  0  0  0  0  0
  132.2143   79.3861  226.5154 H   0  0  0  0  0  0  0  0  0  0  0  0
  133.7679   79.2681  224.5551 H   0  0  0  0  0  0  0  0  0  0  0  0
  1  2  2  0
  2  3  1  0
  3  4  1  0
  4  5  1  0
  5  6  2  0
  5  7  1  0
  7  8  1  0
  8  9  1  0
  9 10  1  0
  9 11  1  0
 11 12  1  0
 12 13  1  0
 13 14  1  0
 14 15  1  0
 15 16  1  0
 16 17  1  0
 17 18  2  0
 18 19  1  0
 19 20  2  0
 20 21  1  0
 21 22  2  0
 16 23  1  0
 23 24  1  0
  2 25  1  0
 25 26  2  0
 26 27  1  0
 27 28  2  0
 28 29  1  0
 29 30  2  0
 30 31  1  0
 30 32  1  0
 32 33  2  0
 33 34  1  0
 34 35  2  0
 12  7  1  0
 24 13  1  0
 35 25  1  0
 22 17  1  0
 34 28  1  0
  3 36  1  0
  4 37  1  0
  4 38  1  0
  8 39  1  0
  8 40  1  0
  9 41  1  6
 10 42  1  0
 11 43  1  0
 11 44  1  0
 12 45  1  1
 13 46  1  1
 14 47  1  0
 14 48  1  0
 15 49  1  0
 15 50  1  0
 16 51  1  1
 18 52  1  0
 19 53  1  0
 20 54  1  0
 22 55  1  0
 23 56  1  0
 23 57  1  0
 24 58  1  0
 24 59  1  0
 26 60  1  0
 27 61  1  0
 29 62  1  0
 32 63  1  0
 33 64  1  0
M  END
>  <smiles>  (12) 
O=C(NCC(=O)N1C[C@H](O)C[C@H]1C1CCC(c2cccnc2)CC1)c1ccc2cc(F)ccc2n1

>  <score_type>  (12) 
oracle

>  <origin>  (12) 
autodockgpu

>  <m_score__min__energy>  (12) 
-9.5600000000000005

>  <m_primary>  (12) 
energy

>  <rmsd>  (12) 
6.631680970979071

>  <m_score__min__rmsd>  (12) 
6.631680970979071

>  <meeko>  (12) 
{"free_energy": -7.82, "intermolecular_energy": -9.91, "internal_energy": -2.92, "cluster_size": 6, "cluster_id": 7, "rank_in_cluster": 4}

>  <energy>  (12) 
-8.7

>  <cluster_rmsd>  (12) 
1.35

>  <cluster>  (12) 
1

$$$$

     RDKit          3D

 64 68  0  0  1  0  0  0  0  0999 V2000
  138.8120   74.6570  222.0420 O   0  0  0  0  0  0  0  0  0  0  0  0
  139.9220   75.2490  222.0230 C   0  0  0  0  0  0  0  0  0  0  0  0
  141.1260   74.4910  221.7940 N   0  0  0  0  0  0  0  0  0  0  0  0
  141.1830   73.1040  221.5710 C   0  0  0  0  0  0  0  0  0  0  0  0
  141.9060   72.5240  220.4660 C   0  0  0  0  0  0  0  0  0  0  0  0
  141.2900   71.5410  219.8800 O   0  0  0  0  0  0  0  0  0  0  0  0
  143.1720   72.8410  219.9210 N   0  0  0  0  0  0  0  0  0  0  0  0
  144.2610   71.8840  219.7000 C   0  0  0  0  0  0  0  0  0  0  0  0
  145.0670   72.4950  218.5440 C   0  0  2  0  0  0  0  0  0  0  0  0
  146.3220   72.8500  219.0060 O   0  0  0  0  0  0  0  0  0  0  0  0
  144.3240   73.7430  218.1590 C   0  0  0  0  0  0  0  0  0  0  0  0
  143.6890   74.1270  219.4880 C   0  0  1  0  0  0  0  0  0  0  0  0
  142.7660   75.2510  219.3810 C   0  0  2  0  0  0  0  0  0  0  0  0
  141.6670   75.2060  218.3870 C   0  0  0  0  0  0  0  0  0  0  0  0
  140.5870   76.2330  218.7480 C   0  0  0  0  0  0  0  0  0  0  0  0
  141.2970   77.4170  219.3780 C   0  0  2  0  0  0  0  0  0  0  0  0
  140.4780   78.6430  219.2000 C   0  0  0  0  0  0  0  0  0  0  0  0
  141.0070   79.9170  219.2260 C   0  0  0  0  0  0  0  0  0  0  0  0
  140.1510   81.0010  219.0490 C   0  0  0  0  0  0  0  0  0  0  0  0
  138.7900   80.7620  218.8500 C   0  0  0  0  0  0  0  0  0  0  0  0
  138.3010   79.5110  218.8300 N   0  0  0  0  0  0  0  0  0  0  0  0
  139.1090   78.4450  218.9990 C   0  0  0  0  0  0  0  0  0  0  0  0
  142.6270   77.6700  218.7590 C   0  0  0  0  0  0  0  0  0  0  0  0
  143.5690   76.5290  219.0760 C   0  0  0  0  0  0  0  0  0  0  0  0
  140.0120   76.7010  222.2320 C   0  0  0  0  0  0  0  0  0  0  0  0
  138.8400   77.4210  222.3250 C   0  0  0  0  0  0  0  0  0  0  0  0
  138.9750   78.7950  222.5220 C   0  0  0  0  0  0  0  0  0  0  0  0
  140.2170   79.3970  222.6180 C   0  0  0  0  0  0  0  0  0  0  0  0
  140.3850   80.7470  222.8120 C   0  0  0  0  0  0  0  0  0  0  0  0
  141.6540   81.3190  222.9050 C   0  0  0  0  0  0  0  0  0  0  0  0
  141.8380   82.6410  223.0960 F   0  0  0  0  0  0  0  0  0  0  0  0
  142.7770   80.5180  222.8000 C   0  0  0  0  0  0  0  0  0  0  0  0
  142.6330   79.1490  222.6030 C   0  0  0  0  0  0  0  0  0  0  0  0
  141.3590   78.6270  222.5180 C   0  0  0  0  0  0  0  0  0  0  0  0
  141.2080   77.3060  222.3280 N   0  0  0  0  0  0  0  0  0  0  0  0
  142.0230   75.0600  221.7990 H   0  0  0  0  0  0  0  0  0  0  0  0
  141.6161   72.6660  222.4824 H   0  0  0  0  0  0  0  0  0  0  0  0
  140.1410   72.8769  221.3015 H   0  0  0  0  0  0  0  0  0  0  0  0
  144.8838   71.7860  220.6014 H   0  0  0  0  0  0  0  0  0  0  0  0
  143.8945   70.8725  219.4711 H   0  0  0  0  0  0  0  0  0  0  0  0
  145.1808   71.7961  217.7022 H   0  0  0  0  0  0  0  0  0  0  0  0
  146.4330   73.8310  218.9580 H   0  0  0  0  0  0  0  0  0  0  0  0
  145.0082   74.5249  217.7977 H   0  0  0  0  0  0  0  0  0  0  0  0
  143.6061   73.6070  217.3368 H   0  0  0  0  0  0  0  0  0  0  0  0
  144.3587   74.5570  220.2473 H   0  0  0  0  0  0  0  0  0  0  0  0
  142.2592   75.2156  220.3566 H   0  0  0  0  0  0  0  0  0  0  0  0
  142.0692   75.4365  217.3894 H   0  0  0  0  0  0  0  0  0  0  0  0
  141.2218   74.2001  218.3881 H   0  0  0  0  0  0  0  0  0  0  0  0
  140.0505   76.5519  217.8422 H   0  0  0  0  0  0  0  0  0  0  0  0
  139.8499   75.8017  219.4413 H   0  0  0  0  0  0  0  0  0  0  0  0
  141.4379   77.1761  220.4420 H   0  0  0  0  0  0  0  0  0  0  0  0
  142.0844   80.0734  219.3835 H   0  0  0  0  0  0  0  0  0  0  0  0
  140.5410   82.0294  219.0657 H   0  0  0  0  0  0  0  0  0  0  0  0
  138.1067   81.6122  218.7072 H   0  0  0  0  0  0  0  0  0  0  0  0
  138.6938   77.4266  218.9788 H   0  0  0  0  0  0  0  0  0  0  0  0
  142.5113   77.7550  217.6684 H   0  0  0  0  0  0  0  0  0  0  0  0
  143.0422   78.6049  219.1633 H   0  0  0  0  0  0  0  0  0  0  0  0
  144.2261   76.3487  218.2125 H   0  0  0  0  0  0  0  0  0  0  0  0
  144.1731   76.7940  219.9562 H   0  0  0  0  0  0  0  0  0  0  0  0
  137.8542   76.9390  222.2482 H   0  0  0  0  0  0  0  0  0  0  0  0
  138.0708   79.4161  222.6032 H   0  0  0  0  0  0  0  0  0  0  0  0
  139.4978   81.3919  222.8959 H   0  0  0  0  0  0  0  0  0  0  0  0
  143.7806   80.9626  222.8721 H   0  0  0  0  0  0  0  0  0  0  0  0
  143.5149   78.4972  222.5169 H   0  0  0  0  0  0  0  0  0  0  0  0
  1  2  2  0
  2  3  1  0
  3  4  1  0
  4  5  1  0
  5  6  2  0
  5  7  1  0
  7  8  1  0
  8  9  1  0
  9 10  1  0
  9 11  1  0
 11 12  1  0
 12 13  1  0
 13 14  1  0
 14 15  1  0
 15 16  1  0
 16 17  1  0
 17 18  2  0
 18 19  1  0
 19 20  2  0
 20 21  1  0
 21 22  2  0
 16 23  1  0
 23 24  1  0
  2 25  1  0
 25 26  2  0
 26 27  1  0
 27 28  2  0
 28 29  1  0
 29 30  2  0
 30 31  1  0
 30 32  1  0
 32 33  2  0
 33 34  1  0
 34 35  2  0
 12  7  1  0
 24 13  1  0
 35 25  1  0
 22 17  1  0
 34 28  1  0
  3 36  1  0
  4 37  1  0
  4 38  1  0
  8 39  1  0
  8 40  1  0
  9 41  1  6
 10 42  1  0
 11 43  1  0
 11 44  1  0
 12 45  1  1
 13 46  1  1
 14 47  1  0
 14 48  1  0
 15 49  1  0
 15 50  1  0
 16 51  1  1
 18 52  1  0
 19 53  1  0
 20 54  1  0
 22 55  1  0
 23 56  1  0
 23 57  1  0
 24 58  1  0
 24 59  1  0
 26 60  1  0
 27 61  1  0
 29 62  1  0
 32 63  1  0
 33 64  1  0
M  END
>  <smiles>  (13) 
O=C(NCC(=O)N1C[C@H](O)C[C@H]1C1CCC(c2cccnc2)CC1)c1ccc2cc(F)ccc2n1

>  <score_type>  (13) 
oracle

>  <origin>  (13) 
autodockgpu

>  <m_score__min__energy>  (13) 
-9.5600000000000005

>  <m_primary>  (13) 
energy

>  <rmsd>  (13) 
7.906568798001155

>  <m_score__min__rmsd>  (13) 
7.906568798001155

>  <meeko>  (13) 
{"free_energy": -6.57, "intermolecular_energy": -8.66, "internal_energy": -4.18, "cluster_size": 14, "cluster_id": 8, "rank_in_cluster": 13}

>  <energy>  (13) 
-8.54

>  <cluster_rmsd>  (13) 
1.22

>  <cluster>  (13) 
1

$$$$

     RDKit          3D

 64 68  0  0  1  0  0  0  0  0999 V2000
  136.9080   77.4720  221.1300 O   0  0  0  0  0  0  0  0  0  0  0  0
  136.7710   76.6450  222.0680 C   0  0  0  0  0  0  0  0  0  0  0  0
  137.5730   75.4480  222.0800 N   0  0  0  0  0  0  0  0  0  0  0  0
  138.5350   75.1050  221.1140 C   0  0  0  0  0  0  0  0  0  0  0  0
  139.9320   74.9410  221.4340 C   0  0  0  0  0  0  0  0  0  0  0  0
  140.1740   74.0270  222.3250 O   0  0  0  0  0  0  0  0  0  0  0  0
  141.0780   75.6110  220.9460 N   0  0  0  0  0  0  0  0  0  0  0  0
  142.1450   74.9930  220.1520 C   0  0  0  0  0  0  0  0  0  0  0  0
  142.7260   76.1570  219.3370 C   0  0  2  0  0  0  0  0  0  0  0  0
  144.0290   76.3870  219.7410 O   0  0  0  0  0  0  0  0  0  0  0  0
  141.8890   77.3510  219.6970 C   0  0  0  0  0  0  0  0  0  0  0  0
  141.4740   76.9980  221.1190 C   0  0  1  0  0  0  0  0  0  0  0  0
  140.5110   77.9340  221.6860 C   0  0  2  0  0  0  0  0  0  0  0  0
  140.2490   79.2230  221.0020 C   0  0  0  0  0  0  0  0  0  0  0  0
  138.9240   79.8200  221.4900 C   0  0  0  0  0  0  0  0  0  0  0  0
  138.7750   79.4320  222.9490 C   0  0  2  0  0  0  0  0  0  0  0  0
  137.9040   80.4150  223.6420 C   0  0  0  0  0  0  0  0  0  0  0  0
  137.9470   80.6380  225.0030 C   0  0  0  0  0  0  0  0  0  0  0  0
  137.0860   81.5840  225.5530 C   0  0  0  0  0  0  0  0  0  0  0  0
  136.2120   82.2740  224.7120 C   0  0  0  0  0  0  0  0  0  0  0  0
  136.1910   82.0370  223.3880 N   0  0  0  0  0  0  0  0  0  0  0  0
  137.0140   81.1270  222.8320 C   0  0  0  0  0  0  0  0  0  0  0  0
  140.0840   79.4090  223.6600 C   0  0  0  0  0  0  0  0  0  0  0  0
  140.9450   78.2900  223.1200 C   0  0  0  0  0  0  0  0  0  0  0  0
  135.8070   76.8790  223.1520 C   0  0  0  0  0  0  0  0  0  0  0  0
  135.2660   78.1410  223.2840 C   0  0  0  0  0  0  0  0  0  0  0  0
  134.3570   78.3160  224.3260 C   0  0  0  0  0  0  0  0  0  0  0  0
  134.0210   77.2790  225.1790 C   0  0  0  0  0  0  0  0  0  0  0  0
  133.1280   77.4170  226.2150 C   0  0  0  0  0  0  0  0  0  0  0  0
  132.8130   76.3480  227.0550 C   0  0  0  0  0  0  0  0  0  0  0  0
  131.9400   76.4650  228.0760 F   0  0  0  0  0  0  0  0  0  0  0  0
  133.4050   75.1150  226.8470 C   0  0  0  0  0  0  0  0  0  0  0  0
  134.3110   74.9500  225.8060 C   0  0  0  0  0  0  0  0  0  0  0  0
  134.5930   76.0340  225.0000 C   0  0  0  0  0  0  0  0  0  0  0  0
  135.4660   75.8860  223.9910 N   0  0  0  0  0  0  0  0  0  0  0  0
  137.3940   74.7960  222.8990 H   0  0  0  0  0  0  0  0  0  0  0  0
  138.2064   74.1481  220.6823 H   0  0  0  0  0  0  0  0  0  0  0  0
  138.5528   76.0067  220.4842 H   0  0  0  0  0  0  0  0  0  0  0  0
  142.9125   74.5520  220.8050 H   0  0  0  0  0  0  0  0  0  0  0  0
  141.7782   74.1737  219.5163 H   0  0  0  0  0  0  0  0  0  0  0  0
  142.7198   75.9506  218.2566 H   0  0  0  0  0  0  0  0  0  0  0  0
  144.1240   77.3200  220.0520 H   0  0  0  0  0  0  0  0  0  0  0  0
  142.4769   78.2802  219.6668 H   0  0  0  0  0  0  0  0  0  0  0  0
  141.0482   77.5378  219.0128 H   0  0  0  0  0  0  0  0  0  0  0  0
  142.2470   77.0926  221.8958 H   0  0  0  0  0  0  0  0  0  0  0  0
  139.5711   77.3712  221.5867 H   0  0  0  0  0  0  0  0  0  0  0  0
  141.0670   79.9245  221.2226 H   0  0  0  0  0  0  0  0  0  0  0  0
  140.1870   79.0485  219.9177 H   0  0  0  0  0  0  0  0  0  0  0  0
  138.9434   80.9153  221.3902 H   0  0  0  0  0  0  0  0  0  0  0  0
  138.0797   79.4424  220.8946 H   0  0  0  0  0  0  0  0  0  0  0  0
  138.3383   78.4226  222.9689 H   0  0  0  0  0  0  0  0  0  0  0  0
  138.6477   80.0794  225.6410 H   0  0  0  0  0  0  0  0  0  0  0  0
  137.0946   81.7845  226.6345 H   0  0  0  0  0  0  0  0  0  0  0  0
  135.5293   83.0237  225.1385 H   0  0  0  0  0  0  0  0  0  0  0  0
  136.9861   80.9452  221.7475 H   0  0  0  0  0  0  0  0  0  0  0  0
  140.5979   80.3697  223.5087 H   0  0  0  0  0  0  0  0  0  0  0  0
  139.9094   79.2449  224.7336 H   0  0  0  0  0  0  0  0  0  0  0  0
  141.9970   78.6114  223.1126 H   0  0  0  0  0  0  0  0  0  0  0  0
  140.8290   77.4043  223.7619 H   0  0  0  0  0  0  0  0  0  0  0  0
  135.5368   78.9630  222.6051 H   0  0  0  0  0  0  0  0  0  0  0  0
  133.8949   79.3032  224.4742 H   0  0  0  0  0  0  0  0  0  0  0  0
  132.6505   78.3931  226.3859 H   0  0  0  0  0  0  0  0  0  0  0  0
  133.1593   74.2675  227.5038 H   0  0  0  0  0  0  0  0  0  0  0  0
  134.7925   73.9770  225.6286 H   0  0  0  0  0  0  0  0  0  0  0  0
  1  2  2  0
  2  3  1  0
  3  4  1  0
  4  5  1  0
  5  6  2  0
  5  7  1  0
  7  8  1  0
  8  9  1  0
  9 10  1  0
  9 11  1  0
 11 12  1  0
 12 13  1  0
 13 14  1  0
 14 15  1  0
 15 16  1  0
 16 17  1  0
 17 18  2  0
 18 19  1  0
 19 20  2  0
 20 21  1  0
 21 22  2  0
 16 23  1  0
 23 24  1  0
  2 25  1  0
 25 26  2  0
 26 27  1  0
 27 28  2  0
 28 29  1  0
 29 30  2  0
 30 31  1  0
 30 32  1  0
 32 33  2  0
 33 34  1  0
 34 35  2  0
 12  7  1  0
 24 13  1  0
 35 25  1  0
 22 17  1  0
 34 28  1  0
  3 36  1  0
  4 37  1  0
  4 38  1  0
  8 39  1  0
  8 40  1  0
  9 41  1  6
 10 42  1  0
 11 43  1  0
 11 44  1  0
 12 45  1  1
 13 46  1  1
 14 47  1  0
 14 48  1  0
 15 49  1  0
 15 50  1  0
 16 51  1  6
 18 52  1  0
 19 53  1  0
 20 54  1  0
 22 55  1  0
 23 56  1  0
 23 57  1  0
 24 58  1  0
 24 59  1  0
 26 60  1  0
 27 61  1  0
 29 62  1  0
 32 63  1  0
 33 64  1  0
M  END
>  <smiles>  (14) 
O=C(NCC(=O)N1C[C@H](O)C[C@H]1C1CCC(c2cccnc2)CC1)c1ccc2cc(F)ccc2n1

>  <score_type>  (14) 
oracle

>  <origin>  (14) 
autodockgpu

>  <m_score__min__energy>  (14) 
-9.5600000000000005

>  <m_primary>  (14) 
energy

>  <rmsd>  (14) 
6.838216249612029

>  <m_score__min__rmsd>  (14) 
6.838216249612029

>  <meeko>  (14) 
{"free_energy": -7.44, "intermolecular_energy": -9.53, "internal_energy": -3.26, "cluster_size": 6, "cluster_id": 7, "rank_in_cluster": 5}

>  <energy>  (14) 
-8.49

>  <cluster_rmsd>  (14) 
1.22

>  <cluster>  (14) 
1

$$$$

     RDKit          3D

 64 68  0  0  1  0  0  0  0  0999 V2000
  140.4370   73.4120  222.3350 O   0  0  0  0  0  0  0  0  0  0  0  0
  139.7240   72.3770  222.3750 C   0  0  0  0  0  0  0  0  0  0  0  0
  138.8390   72.0820  221.2760 N   0  0  0  0  0  0  0  0  0  0  0  0
  138.6970   72.8630  220.1160 C   0  0  0  0  0  0  0  0  0  0  0  0
  137.8160   74.0050  220.0520 C   0  0  0  0  0  0  0  0  0  0  0  0
  138.0450   74.8020  219.0530 O   0  0  0  0  0  0  0  0  0  0  0  0
  136.7530   74.4010  220.8960 N   0  0  0  0  0  0  0  0  0  0  0  0
  135.5010   73.6620  221.0820 C   0  0  0  0  0  0  0  0  0  0  0  0
  135.0330   74.0670  222.4880 C   0  0  2  0  0  0  0  0  0  0  0  0
  133.8550   74.7840  222.3840 O   0  0  0  0  0  0  0  0  0  0  0  0
  136.1070   74.9750  223.0170 C   0  0  0  0  0  0  0  0  0  0  0  0
  136.6330   75.5870  221.7270 C   0  0  1  0  0  0  0  0  0  0  0  0
  137.8110   76.4220  221.9260 C   0  0  2  0  0  0  0  0  0  0  0  0
  138.9810   75.8800  222.6580 C   0  0  0  0  0  0  0  0  0  0  0  0
  140.2280   76.7220  222.3590 C   0  0  0  0  0  0  0  0  0  0  0  0
  139.7600   78.1540  222.1730 C   0  0  2  0  0  0  0  0  0  0  0  0
  140.8720   79.0870  222.4830 C   0  0  0  0  0  0  0  0  0  0  0  0
  141.5280   79.1070  223.6970 C   0  0  0  0  0  0  0  0  0  0  0  0
  142.5590   80.0230  223.8850 C   0  0  0  0  0  0  0  0  0  0  0  0
  142.8960   80.8870  222.8430 C   0  0  0  0  0  0  0  0  0  0  0  0
  142.2410   80.8460  221.6690 N   0  0  0  0  0  0  0  0  0  0  0  0
  141.2390   79.9690  221.4620 C   0  0  0  0  0  0  0  0  0  0  0  0
  138.6220   78.4940  223.0700 C   0  0  0  0  0  0  0  0  0  0  0  0
  137.3950   77.7040  222.6710 C   0  0  0  0  0  0  0  0  0  0  0  0
  139.7770   71.4620  223.5240 C   0  0  0  0  0  0  0  0  0  0  0  0
  139.2470   70.1970  223.3760 C   0  0  0  0  0  0  0  0  0  0  0  0
  139.3200   69.3650  224.4930 C   0  0  0  0  0  0  0  0  0  0  0  0
  139.8910   69.7890  225.6790 C   0  0  0  0  0  0  0  0  0  0  0  0
  139.9790   68.9940  226.7970 C   0  0  0  0  0  0  0  0  0  0  0  0
  140.5640   69.4550  227.9770 C   0  0  0  0  0  0  0  0  0  0  0  0
  140.6590   68.6900  229.0830 F   0  0  0  0  0  0  0  0  0  0  0  0
  141.0710   70.7410  228.0340 C   0  0  0  0  0  0  0  0  0  0  0  0
  140.9940   71.5640  226.9170 C   0  0  0  0  0  0  0  0  0  0  0  0
  140.4080   71.0660  225.7710 C   0  0  0  0  0  0  0  0  0  0  0  0
  140.3280   71.8530  224.6860 N   0  0  0  0  0  0  0  0  0  0  0  0
  138.2650   71.1950  221.3870 H   0  0  0  0  0  0  0  0  0  0  0  0
  139.7025   73.2392  219.8763 H   0  0  0  0  0  0  0  0  0  0  0  0
  138.2035   72.1591  219.4297 H   0  0  0  0  0  0  0  0  0  0  0  0
  134.7590   73.9537  220.3242 H   0  0  0  0  0  0  0  0  0  0  0  0
  135.6326   72.5749  220.9774 H   0  0  0  0  0  0  0  0  0  0  0  0
  134.8628   73.1947  223.1362 H   0  0  0  0  0  0  0  0  0  0  0  0
  133.9280   75.4480  221.6550 H   0  0  0  0  0  0  0  0  0  0  0  0
  135.6929   75.7418  223.6882 H   0  0  0  0  0  0  0  0  0  0  0  0
  136.8722   74.4669  223.6222 H   0  0  0  0  0  0  0  0  0  0  0  0
  135.9952   76.3422  221.2445 H   0  0  0  0  0  0  0  0  0  0  0  0
  138.1663   76.5521  220.8931 H   0  0  0  0  0  0  0  0  0  0  0  0
  138.7767   75.9039  223.7386 H   0  0  0  0  0  0  0  0  0  0  0  0
  139.1601   74.8445  222.3330 H   0  0  0  0  0  0  0  0  0  0  0  0
  140.9355   76.6615  223.1991 H   0  0  0  0  0  0  0  0  0  0  0  0
  140.7429   76.3563  221.4584 H   0  0  0  0  0  0  0  0  0  0  0  0
  139.4321   78.2506  221.1275 H   0  0  0  0  0  0  0  0  0  0  0  0
  141.2416   78.4125  224.5005 H   0  0  0  0  0  0  0  0  0  0  0  0
  143.1004   80.0650  224.8416 H   0  0  0  0  0  0  0  0  0  0  0  0
  143.7101   81.6132  222.9837 H   0  0  0  0  0  0  0  0  0  0  0  0
  140.7132   79.9471  220.4961 H   0  0  0  0  0  0  0  0  0  0  0  0
  138.8909   78.2496  224.1083 H   0  0  0  0  0  0  0  0  0  0  0  0
  138.4032   79.5686  222.9844 H   0  0  0  0  0  0  0  0  0  0  0  0
  136.8275   77.4326  223.5734 H   0  0  0  0  0  0  0  0  0  0  0  0
  136.7701   78.3197  222.0074 H   0  0  0  0  0  0  0  0  0  0  0  0
  138.7928   69.8636  222.4312 H   0  0  0  0  0  0  0  0  0  0  0  0
  138.9129   68.3451  224.4289 H   0  0  0  0  0  0  0  0  0  0  0  0
  139.5787   67.9701  226.7605 H   0  0  0  0  0  0  0  0  0  0  0  0
  141.5337   71.1109  228.9608 H   0  0  0  0  0  0  0  0  0  0  0  0
  141.3912   72.5894  226.9456 H   0  0  0  0  0  0  0  0  0  0  0  0
  1  2  2  0
  2  3  1  0
  3  4  1  0
  4  5  1  0
  5  6  2  0
  5  7  1  0
  7  8  1  0
  8  9  1  0
  9 10  1  0
  9 11  1  0
 11 12  1  0
 12 13  1  0
 13 14  1  0
 14 15  1  0
 15 16  1  0
 16 17  1  0
 17 18  2  0
 18 19  1  0
 19 20  2  0
 20 21  1  0
 21 22  2  0
 16 23  1  0
 23 24  1  0
  2 25  1  0
 25 26  2  0
 26 27  1  0
 27 28  2  0
 28 29  1  0
 29 30  2  0
 30 31  1  0
 30 32  1  0
 32 33  2  0
 33 34  1  0
 34 35  2  0
 12  7  1  0
 24 13  1  0
 35 25  1  0
 22 17  1  0
 34 28  1  0
  3 36  1  0
  4 37  1  0
  4 38  1  0
  8 39  1  0
  8 40  1  0
  9 41  1  1
 10 42  1  0
 11 43  1  0
 11 44  1  0
 12 45  1  6
 13 46  1  6
 14 47  1  0
 14 48  1  0
 15 49  1  0
 15 50  1  0
 16 51  1  6
 18 52  1  0
 19 53  1  0
 20 54  1  0
 22 55  1  0
 23 56  1  0
 23 57  1  0
 24 58  1  0
 24 59  1  0
 26 60  1  0
 27 61  1  0
 29 62  1  0
 32 63  1  0
 33 64  1  0
M  END
>  <smiles>  (15) 
O=C(NCC(=O)N1C[C@H](O)C[C@H]1C1CCC(c2cccnc2)CC1)c1ccc2cc(F)ccc2n1

>  <score_type>  (15) 
oracle

>  <origin>  (15) 
autodockgpu

>  <m_score__min__energy>  (15) 
-9.5600000000000005

>  <m_primary>  (15) 
energy

>  <rmsd>  (15) 
3.668160067027759

>  <m_score__min__rmsd>  (15) 
3.668160067027759

>  <meeko>  (15) 
{"free_energy": -8.32, "intermolecular_energy": -10.41, "internal_energy": -2.08, "cluster_size": 2, "cluster_id": 5, "rank_in_cluster": 2}

>  <energy>  (15) 
-9.34

>  <cluster_rmsd>  (15) 
0.0

>  <cluster>  (15) 
2

$$$$

     RDKit          3D

 64 68  0  0  1  0  0  0  0  0999 V2000
  140.0910   70.8770  221.0790 O   0  0  0  0  0  0  0  0  0  0  0  0
  139.9700   71.4420  222.1960 C   0  0  0  0  0  0  0  0  0  0  0  0
  139.9010   72.8810  222.2600 N   0  0  0  0  0  0  0  0  0  0  0  0
  139.9500   73.7450  221.1530 C   0  0  0  0  0  0  0  0  0  0  0  0
  140.5340   75.0630  221.2220 C   0  0  0  0  0  0  0  0  0  0  0  0
  140.3230   75.6840  222.3440 O   0  0  0  0  0  0  0  0  0  0  0  0
  141.2910   75.7900  220.2750 N   0  0  0  0  0  0  0  0  0  0  0  0
  141.1890   77.2330  220.0380 C   0  0  0  0  0  0  0  0  0  0  0  0
  142.5720   77.6230  219.4960 C   0  0  2  0  0  0  0  0  0  0  0  0
  142.4420   78.0400  218.1840 O   0  0  0  0  0  0  0  0  0  0  0  0
  143.3790   76.3560  219.5230 C   0  0  0  0  0  0  0  0  0  0  0  0
  142.2890   75.3110  219.3340 C   0  0  1  0  0  0  0  0  0  0  0  0
  142.7750   73.9430  219.4670 C   0  0  2  0  0  0  0  0  0  0  0  0
  143.1460   73.4230  220.8050 C   0  0  0  0  0  0  0  0  0  0  0  0
  143.1840   71.8900  220.7840 C   0  0  0  0  0  0  0  0  0  0  0  0
  143.6560   71.4780  219.4020 C   0  0  2  0  0  0  0  0  0  0  0  0
  144.2870   70.1360  219.4690 C   0  0  0  0  0  0  0  0  0  0  0  0
  143.5720   68.9730  219.6700 C   0  0  0  0  0  0  0  0  0  0  0  0
  144.2620   67.7640  219.7160 C   0  0  0  0  0  0  0  0  0  0  0  0
  145.6490   67.7700  219.5570 C   0  0  0  0  0  0  0  0  0  0  0  0
  146.3200   68.9180  219.3630 N   0  0  0  0  0  0  0  0  0  0  0  0
  145.6760   70.1010  219.3140 C   0  0  0  0  0  0  0  0  0  0  0  0
  144.6630   72.4240  218.8480 C   0  0  0  0  0  0  0  0  0  0  0  0
  144.0190   73.7660  218.5780 C   0  0  0  0  0  0  0  0  0  0  0  0
  139.8970   70.6610  223.4390 C   0  0  0  0  0  0  0  0  0  0  0  0
  139.2700   69.4330  223.4020 C   0  0  0  0  0  0  0  0  0  0  0  0
  139.2250   68.7280  224.6040 C   0  0  0  0  0  0  0  0  0  0  0  0
  139.7790   69.2360  225.7660 C   0  0  0  0  0  0  0  0  0  0  0  0
  139.7520   68.5670  226.9670 C   0  0  0  0  0  0  0  0  0  0  0  0
  140.3220   69.1110  228.1180 C   0  0  0  0  0  0  0  0  0  0  0  0
  140.3050   68.4700  229.3040 F   0  0  0  0  0  0  0  0  0  0  0  0
  140.9320   70.3520  228.0620 C   0  0  0  0  0  0  0  0  0  0  0  0
  140.9720   71.0480  226.8590 C   0  0  0  0  0  0  0  0  0  0  0  0
  140.3960   70.4720  225.7450 C   0  0  0  0  0  0  0  0  0  0  0  0
  140.4290   71.1350  224.5790 N   0  0  0  0  0  0  0  0  0  0  0  0
  139.8070   73.2830  223.2390 H   0  0  0  0  0  0  0  0  0  0  0  0
  140.5036   73.2065  220.3697 H   0  0  0  0  0  0  0  0  0  0  0  0
  138.8856   73.9782  221.0023 H   0  0  0  0  0  0  0  0  0  0  0  0
  140.4041   77.4528  219.2993 H   0  0  0  0  0  0  0  0  0  0  0  0
  140.9189   77.7917  220.9463 H   0  0  0  0  0  0  0  0  0  0  0  0
  143.0359   78.4300  220.0821 H   0  0  0  0  0  0  0  0  0  0  0  0
  143.2340   78.5680  217.9190 H   0  0  0  0  0  0  0  0  0  0  0  0
  144.1124   76.3270  218.7037 H   0  0  0  0  0  0  0  0  0  0  0  0
  143.9813   76.2223  220.4337 H   0  0  0  0  0  0  0  0  0  0  0  0
  141.8643   75.2197  218.3234 H   0  0  0  0  0  0  0  0  0  0  0  0
  141.8853   73.3631  219.1803 H   0  0  0  0  0  0  0  0  0  0  0  0
  144.1386   73.8076  221.0821 H   0  0  0  0  0  0  0  0  0  0  0  0
  142.3972   73.7540  221.5397 H   0  0  0  0  0  0  0  0  0  0  0  0
  143.8826   71.5187  221.5483 H   0  0  0  0  0  0  0  0  0  0  0  0
  142.1913   71.4692  221.0019 H   0  0  0  0  0  0  0  0  0  0  0  0
  142.7711   71.4746  218.7485 H   0  0  0  0  0  0  0  0  0  0  0  0
  142.4791   69.0002  219.7915 H   0  0  0  0  0  0  0  0  0  0  0  0
  143.7223   66.8188  219.8752 H   0  0  0  0  0  0  0  0  0  0  0  0
  146.2016   66.8195  219.5911 H   0  0  0  0  0  0  0  0  0  0  0  0
  146.2392   71.0321  219.1532 H   0  0  0  0  0  0  0  0  0  0  0  0
  145.4804   72.5515  219.5730 H   0  0  0  0  0  0  0  0  0  0  0  0
  145.0597   72.0179  217.9058 H   0  0  0  0  0  0  0  0  0  0  0  0
  144.7404   74.5668  218.7978 H   0  0  0  0  0  0  0  0  0  0  0  0
  143.7169   73.8148  217.5214 H   0  0  0  0  0  0  0  0  0  0  0  0
  138.8304   69.0326  222.4766 H   0  0  0  0  0  0  0  0  0  0  0  0
  138.7366   67.7427  224.6294 H   0  0  0  0  0  0  0  0  0  0  0  0
  139.2697   67.5799  227.0214 H   0  0  0  0  0  0  0  0  0  0  0  0
  141.3837   70.7863  228.9661 H   0  0  0  0  0  0  0  0  0  0  0  0
  141.4521   72.0357  226.7966 H   0  0  0  0  0  0  0  0  0  0  0  0
  1  2  2  0
  2  3  1  0
  3  4  1  0
  4  5  1  0
  5  6  2  0
  5  7  1  0
  7  8  1  0
  8  9  1  0
  9 10  1  0
  9 11  1  0
 11 12  1  0
 12 13  1  0
 13 14  1  0
 14 15  1  0
 15 16  1  0
 16 17  1  0
 17 18  2  0
 18 19  1  0
 19 20  2  0
 20 21  1  0
 21 22  2  0
 16 23  1  0
 23 24  1  0
  2 25  1  0
 25 26  2  0
 26 27  1  0
 27 28  2  0
 28 29  1  0
 29 30  2  0
 30 31  1  0
 30 32  1  0
 32 33  2  0
 33 34  1  0
 34 35  2  0
 12  7  1  0
 24 13  1  0
 35 25  1  0
 22 17  1  0
 34 28  1  0
  3 36  1  0
  4 37  1  0
  4 38  1  0
  8 39  1  0
  8 40  1  0
  9 41  1  1
 10 42  1  0
 11 43  1  0
 11 44  1  0
 12 45  1  6
 13 46  1  6
 14 47  1  0
 14 48  1  0
 15 49  1  0
 15 50  1  0
 16 51  1  6
 18 52  1  0
 19 53  1  0
 20 54  1  0
 22 55  1  0
 23 56  1  0
 23 57  1  0
 24 58  1  0
 24 59  1  0
 26 60  1  0
 27 61  1  0
 29 62  1  0
 32 63  1  0
 33 64  1  0
M  END
>  <smiles>  (16) 
O=C(NCC(=O)N1C[C@H](O)C[C@H]1C1CCC(c2cccnc2)CC1)c1ccc2cc(F)ccc2n1

>  <score_type>  (16) 
oracle

>  <origin>  (16) 
autodockgpu

>  <m_score__min__energy>  (16) 
-9.5600000000000005

>  <m_primary>  (16) 
energy

>  <rmsd>  (16) 
2.171266391933454

>  <m_score__min__rmsd>  (16) 
2.171266391933454

>  <meeko>  (16) 
{"free_energy": -8.81, "intermolecular_energy": -10.9, "internal_energy": -2.34, "cluster_size": 11, "cluster_id": 3, "rank_in_cluster": 7}

>  <energy>  (16) 
-9.19

>  <cluster_rmsd>  (16) 
0.0

>  <cluster>  (16) 
3

$$$$

     RDKit          3D

 64 68  0  0  1  0  0  0  0  0999 V2000
  140.7190   71.5480  221.0270 O   0  0  0  0  0  0  0  0  0  0  0  0
  140.2790   72.0330  222.1000 C   0  0  0  0  0  0  0  0  0  0  0  0
  139.8870   73.4190  222.1450 N   0  0  0  0  0  0  0  0  0  0  0  0
  139.9430   74.3130  221.0620 C   0  0  0  0  0  0  0  0  0  0  0  0
  140.7600   75.5020  221.0780 C   0  0  0  0  0  0  0  0  0  0  0  0
  140.9030   76.0370  222.2540 O   0  0  0  0  0  0  0  0  0  0  0  0
  141.4230   76.1840  220.0320 N   0  0  0  0  0  0  0  0  0  0  0  0
  141.2370   77.5980  219.6930 C   0  0  0  0  0  0  0  0  0  0  0  0
  142.5650   78.0030  219.0360 C   0  0  2  0  0  0  0  0  0  0  0  0
  142.3360   78.3100  217.7060 O   0  0  0  0  0  0  0  0  0  0  0  0
  143.4320   76.7780  219.1070 C   0  0  0  0  0  0  0  0  0  0  0  0
  142.3830   75.6750  219.0680 C   0  0  1  0  0  0  0  0  0  0  0  0
  142.9410   74.3440  219.2740 C   0  0  2  0  0  0  0  0  0  0  0  0
  144.2440   74.1930  219.9650 C   0  0  0  0  0  0  0  0  0  0  0  0
  144.4100   72.7530  220.4670 C   0  0  0  0  0  0  0  0  0  0  0  0
  143.7180   71.8510  219.4620 C   0  0  2  0  0  0  0  0  0  0  0  0
  144.3170   70.4940  219.5140 C   0  0  0  0  0  0  0  0  0  0  0  0
  143.5750   69.3460  219.7080 C   0  0  0  0  0  0  0  0  0  0  0  0
  144.2360   68.1200  219.7400 C   0  0  0  0  0  0  0  0  0  0  0  0
  145.6210   68.0940  219.5740 C   0  0  0  0  0  0  0  0  0  0  0  0
  146.3200   69.2270  219.3860 N   0  0  0  0  0  0  0  0  0  0  0  0
  145.7040   70.4260  219.3510 C   0  0  0  0  0  0  0  0  0  0  0  0
  143.8570   72.3530  218.0670 C   0  0  0  0  0  0  0  0  0  0  0  0
  143.0960   73.6510  217.9080 C   0  0  0  0  0  0  0  0  0  0  0  0
  140.1570   71.2090  223.3120 C   0  0  0  0  0  0  0  0  0  0  0  0
  139.5780   69.9630  223.1990 C   0  0  0  0  0  0  0  0  0  0  0  0
  139.4830   69.2190  224.3740 C   0  0  0  0  0  0  0  0  0  0  0  0
  139.9450   69.7070  225.5830 C   0  0  0  0  0  0  0  0  0  0  0  0
  139.8680   69.0000  226.7590 C   0  0  0  0  0  0  0  0  0  0  0  0
  140.3450   69.5250  227.9600 C   0  0  0  0  0  0  0  0  0  0  0  0
  140.2780   68.8460  229.1230 F   0  0  0  0  0  0  0  0  0  0  0  0
  140.9120   70.7870  227.9790 C   0  0  0  0  0  0  0  0  0  0  0  0
  141.0020   71.5220  226.8030 C   0  0  0  0  0  0  0  0  0  0  0  0
  140.5180   70.9630  225.6390 C   0  0  0  0  0  0  0  0  0  0  0  0
  140.5990   71.6640  224.4970 N   0  0  0  0  0  0  0  0  0  0  0  0
  139.5320   73.7550  223.0870 H   0  0  0  0  0  0  0  0  0  0  0  0
  140.2794   73.7232  220.1965 H   0  0  0  0  0  0  0  0  0  0  0  0
  138.9282   74.7375  221.0682 H   0  0  0  0  0  0  0  0  0  0  0  0
  140.3995   77.7245  218.9912 H   0  0  0  0  0  0  0  0  0  0  0  0
  140.9949   78.2146  220.5712 H   0  0  0  0  0  0  0  0  0  0  0  0
  143.0245   78.8724  219.5289 H   0  0  0  0  0  0  0  0  0  0  0  0
  143.1230   78.7740  217.3280 H   0  0  0  0  0  0  0  0  0  0  0  0
  144.1149   76.7163  218.2468 H   0  0  0  0  0  0  0  0  0  0  0  0
  144.0943   76.7422  219.9845 H   0  0  0  0  0  0  0  0  0  0  0  0
  141.9026   75.4858  218.0967 H   0  0  0  0  0  0  0  0  0  0  0  0
  142.2084   73.9008  219.9645 H   0  0  0  0  0  0  0  0  0  0  0  0
  145.0575   74.4299  219.2636 H   0  0  0  0  0  0  0  0  0  0  0  0
  144.2784   74.8800  220.8234 H   0  0  0  0  0  0  0  0  0  0  0  0
  145.4776   72.4964  220.5327 H   0  0  0  0  0  0  0  0  0  0  0  0
  143.9722   72.6334  221.4690 H   0  0  0  0  0  0  0  0  0  0  0  0
  142.6513   71.8316  219.7301 H   0  0  0  0  0  0  0  0  0  0  0  0
  142.4836   69.3983  219.8348 H   0  0  0  0  0  0  0  0  0  0  0  0
  143.6744   67.1867  219.8938 H   0  0  0  0  0  0  0  0  0  0  0  0
  146.1502   67.1299  219.5973 H   0  0  0  0  0  0  0  0  0  0  0  0
  146.2888   71.3445  219.1952 H   0  0  0  0  0  0  0  0  0  0  0  0
  144.9207   72.5245  217.8455 H   0  0  0  0  0  0  0  0  0  0  0  0
  143.4477   71.6059  217.3711 H   0  0  0  0  0  0  0  0  0  0  0  0
  143.6462   74.3139  217.2241 H   0  0  0  0  0  0  0  0  0  0  0  0
  142.0982   73.4355  217.4983 H   0  0  0  0  0  0  0  0  0  0  0  0
  139.2117   69.5777  222.2360 H   0  0  0  0  0  0  0  0  0  0  0  0
  139.0288   68.2178  224.3388 H   0  0  0  0  0  0  0  0  0  0  0  0
  139.4193   67.9957  226.7530 H   0  0  0  0  0  0  0  0  0  0  0  0
  141.2905   71.2074  228.9224 H   0  0  0  0  0  0  0  0  0  0  0  0
  141.4492   72.5270  226.8007 H   0  0  0  0  0  0  0  0  0  0  0  0
  1  2  2  0
  2  3  1  0
  3  4  1  0
  4  5  1  0
  5  6  2  0
  5  7  1  0
  7  8  1  0
  8  9  1  0
  9 10  1  0
  9 11  1  0
 11 12  1  0
 12 13  1  0
 13 14  1  0
 14 15  1  0
 15 16  1  0
 16 17  1  0
 17 18  2  0
 18 19  1  0
 19 20  2  0
 20 21  1  0
 21 22  2  0
 16 23  1  0
 23 24  1  0
  2 25  1  0
 25 26  2  0
 26 27  1  0
 27 28  2  0
 28 29  1  0
 29 30  2  0
 30 31  1  0
 30 32  1  0
 32 33  2  0
 33 34  1  0
 34 35  2  0
 12  7  1  0
 24 13  1  0
 35 25  1  0
 22 17  1  0
 34 28  1  0
  3 36  1  0
  4 37  1  0
  4 38  1  0
  8 39  1  0
  8 40  1  0
  9 41  1  1
 10 42  1  0
 11 43  1  0
 11 44  1  0
 12 45  1  6
 13 46  1  1
 14 47  1  0
 14 48  1  0
 15 49  1  0
 15 50  1  0
 16 51  1  1
 18 52  1  0
 19 53  1  0
 20 54  1  0
 22 55  1  0
 23 56  1  0
 23 57  1  0
 24 58  1  0
 24 59  1  0
 26 60  1  0
 27 61  1  0
 29 62  1  0
 32 63  1  0
 33 64  1  0
M  END
>  <smiles>  (17) 
O=C(NCC(=O)N1C[C@H](O)C[C@H]1C1CCC(c2cccnc2)CC1)c1ccc2cc(F)ccc2n1

>  <score_type>  (17) 
oracle

>  <origin>  (17) 
autodockgpu

>  <m_score__min__energy>  (17) 
-9.5600000000000005

>  <m_primary>  (17) 
energy

>  <rmsd>  (17) 
2.22014168168727

>  <m_score__min__rmsd>  (17) 
2.22014168168727

>  <meeko>  (17) 
{"free_energy": -9.05, "intermolecular_energy": -11.14, "internal_energy": -2.34, "cluster_size": 11, "cluster_id": 3, "rank_in_cluster": 5}

>  <energy>  (17) 
-9.14

>  <cluster_rmsd>  (17) 
0.34

>  <cluster>  (17) 
3

$$$$

     RDKit          3D

 64 68  0  0  1  0  0  0  0  0999 V2000
  141.1920   72.1070  221.3780 O   0  0  0  0  0  0  0  0  0  0  0  0
  140.3940   72.4150  222.3000 C   0  0  0  0  0  0  0  0  0  0  0  0
  139.6800   73.6650  222.2320 N   0  0  0  0  0  0  0  0  0  0  0  0
  139.7860   74.6050  221.1920 C   0  0  0  0  0  0  0  0  0  0  0  0
  140.8530   75.5750  221.1280 C   0  0  0  0  0  0  0  0  0  0  0  0
  141.3250   75.9280  222.2850 O   0  0  0  0  0  0  0  0  0  0  0  0
  141.4640   76.2050  220.0190 N   0  0  0  0  0  0  0  0  0  0  0  0
  141.2770   77.6080  219.6360 C   0  0  0  0  0  0  0  0  0  0  0  0
  142.5700   77.9670  218.8890 C   0  0  2  0  0  0  0  0  0  0  0  0
  142.2700   78.2250  217.5640 O   0  0  0  0  0  0  0  0  0  0  0  0
  143.4250   76.7330  218.9610 C   0  0  0  0  0  0  0  0  0  0  0  0
  142.3620   75.6460  219.0240 C   0  0  1  0  0  0  0  0  0  0  0  0
  142.9140   74.3150  219.2510 C   0  0  2  0  0  0  0  0  0  0  0  0
  143.9280   74.1130  220.3140 C   0  0  0  0  0  0  0  0  0  0  0  0
  144.0230   72.6260  220.6770 C   0  0  0  0  0  0  0  0  0  0  0  0
  143.7600   71.8420  219.4040 C   0  0  2  0  0  0  0  0  0  0  0  0
  144.4030   70.5080  219.4970 C   0  0  0  0  0  0  0  0  0  0  0  0
  143.7040   69.3460  219.7560 C   0  0  0  0  0  0  0  0  0  0  0  0
  144.4040   68.1450  219.8220 C   0  0  0  0  0  0  0  0  0  0  0  0
  145.7850   68.1540  219.6250 C   0  0  0  0  0  0  0  0  0  0  0  0
  146.4430   69.3000  219.3740 N   0  0  0  0  0  0  0  0  0  0  0  0
  145.7880   70.4760  219.3050 C   0  0  0  0  0  0  0  0  0  0  0  0
  144.3100   72.5260  218.2000 C   0  0  0  0  0  0  0  0  0  0  0  0
  143.5540   73.8100  217.9450 C   0  0  0  0  0  0  0  0  0  0  0  0
  140.1770   71.5210  223.4470 C   0  0  0  0  0  0  0  0  0  0  0  0
  139.5160   70.3310  223.2310 C   0  0  0  0  0  0  0  0  0  0  0  0
  139.3330   69.5160  224.3470 C   0  0  0  0  0  0  0  0  0  0  0  0
  139.7900   69.8860  225.6000 C   0  0  0  0  0  0  0  0  0  0  0  0
  139.6270   69.1070  226.7200 C   0  0  0  0  0  0  0  0  0  0  0  0
  140.1020   69.5130  227.9680 C   0  0  0  0  0  0  0  0  0  0  0  0
  139.9510   68.7620  229.0770 F   0  0  0  0  0  0  0  0  0  0  0  0
  140.7550   70.7260  228.0910 C   0  0  0  0  0  0  0  0  0  0  0  0
  140.9330   71.5320  226.9730 C   0  0  0  0  0  0  0  0  0  0  0  0
  140.4470   71.0910  225.7590 C   0  0  0  0  0  0  0  0  0  0  0  0
  140.6130   71.8610  224.6720 N   0  0  0  0  0  0  0  0  0  0  0  0
  139.0310   73.8570  223.0510 H   0  0  0  0  0  0  0  0  0  0  0  0
  139.8455   74.0237  220.2600 H   0  0  0  0  0  0  0  0  0  0  0  0
  138.9108   75.2451  221.3771 H   0  0  0  0  0  0  0  0  0  0  0  0
  140.4021   77.7202  218.9787 H   0  0  0  0  0  0  0  0  0  0  0  0
  141.0938   78.2615  220.5017 H   0  0  0  0  0  0  0  0  0  0  0  0
  143.0675   78.8486  219.3194 H   0  0  0  0  0  0  0  0  0  0  0  0
  143.0190   78.7100  217.1380 H   0  0  0  0  0  0  0  0  0  0  0  0
  144.0580   76.6276  218.0676 H   0  0  0  0  0  0  0  0  0  0  0  0
  144.1350   76.7219  219.8011 H   0  0  0  0  0  0  0  0  0  0  0  0
  141.8255   75.4275  218.0889 H   0  0  0  0  0  0  0  0  0  0  0  0
  142.0290   73.7649  219.6033 H   0  0  0  0  0  0  0  0  0  0  0  0
  144.9068   74.4628  219.9541 H   0  0  0  0  0  0  0  0  0  0  0  0
  143.6316   74.6830  221.2069 H   0  0  0  0  0  0  0  0  0  0  0  0
  145.0267   72.3945  221.0629 H   0  0  0  0  0  0  0  0  0  0  0  0
  143.2933   72.3645  221.4575 H   0  0  0  0  0  0  0  0  0  0  0  0
  142.6683   71.7564  219.2997 H   0  0  0  0  0  0  0  0  0  0  0  0
  142.6147   69.3690  219.9073 H   0  0  0  0  0  0  0  0  0  0  0  0
  143.8759   67.2020  220.0266 H   0  0  0  0  0  0  0  0  0  0  0  0
  146.3450   67.2086  219.6758 H   0  0  0  0  0  0  0  0  0  0  0  0
  146.3395   71.4051  219.0989 H   0  0  0  0  0  0  0  0  0  0  0  0
  145.3730   72.7557  218.3651 H   0  0  0  0  0  0  0  0  0  0  0  0
  144.2027   71.8642  217.3279 H   0  0  0  0  0  0  0  0  0  0  0  0
  144.2492   74.5717  217.5622 H   0  0  0  0  0  0  0  0  0  0  0  0
  142.7620   73.6209  217.2054 H   0  0  0  0  0  0  0  0  0  0  0  0
  139.1533   70.0407  222.2339 H   0  0  0  0  0  0  0  0  0  0  0  0
  138.8121   68.5544  224.2288 H   0  0  0  0  0  0  0  0  0  0  0  0
  139.1098   68.1403  226.6309 H   0  0  0  0  0  0  0  0  0  0  0  0
  141.1326   71.0520  229.0714 H   0  0  0  0  0  0  0  0  0  0  0  0
  141.4497   72.4997  227.0539 H   0  0  0  0  0  0  0  0  0  0  0  0
  1  2  2  0
  2  3  1  0
  3  4  1  0
  4  5  1  0
  5  6  2  0
  5  7  1  0
  7  8  1  0
  8  9  1  0
  9 10  1  0
  9 11  1  0
 11 12  1  0
 12 13  1  0
 13 14  1  0
 14 15  1  0
 15 16  1  0
 16 17  1  0
 17 18  2  0
 18 19  1  0
 19 20  2  0
 20 21  1  0
 21 22  2  0
 16 23  1  0
 23 24  1  0
  2 25  1  0
 25 26  2  0
 26 27  1  0
 27 28  2  0
 28 29  1  0
 29 30  2  0
 30 31  1  0
 30 32  1  0
 32 33  2  0
 33 34  1  0
 34 35  2  0
 12  7  1  0
 24 13  1  0
 35 25  1  0
 22 17  1  0
 34 28  1  0
  3 36  1  0
  4 37  1  0
  4 38  1  0
  8 39  1  0
  8 40  1  0
  9 41  1  1
 10 42  1  0
 11 43  1  0
 11 44  1  0
 12 45  1  6
 13 46  1  1
 14 47  1  0
 14 48  1  0
 15 49  1  0
 15 50  1  0
 16 51  1  6
 18 52  1  0
 19 53  1  0
 20 54  1  0
 22 55  1  0
 23 56  1  0
 23 57  1  0
 24 58  1  0
 24 59  1  0
 26 60  1  0
 27 61  1  0
 29 62  1  0
 32 63  1  0
 33 64  1  0
M  END
>  <smiles>  (18) 
O=C(NCC(=O)N1C[C@H](O)C[C@H]1C1CCC(c2cccnc2)CC1)c1ccc2cc(F)ccc2n1

>  <score_type>  (18) 
oracle

>  <origin>  (18) 
autodockgpu

>  <m_score__min__energy>  (18) 
-9.5600000000000005

>  <m_primary>  (18) 
energy

>  <rmsd>  (18) 
2.269903421434696

>  <m_score__min__rmsd>  (18) 
2.269903421434696

>  <meeko>  (18) 
{"free_energy": -9.19, "intermolecular_energy": -11.28, "internal_energy": -2.21, "cluster_size": 11, "cluster_id": 3, "rank_in_cluster": 1}

>  <energy>  (18) 
-9.11

>  <cluster_rmsd>  (18) 
0.49

>  <cluster>  (18) 
3

$$$$

     RDKit          3D

 64 68  0  0  1  0  0  0  0  0999 V2000
  138.3080   70.5510  221.0890 O   0  0  0  0  0  0  0  0  0  0  0  0
  138.5180   71.2280  222.1280 C   0  0  0  0  0  0  0  0  0  0  0  0
  138.2910   72.6510  222.1050 N   0  0  0  0  0  0  0  0  0  0  0  0
  137.8320   73.3820  220.9950 C   0  0  0  0  0  0  0  0  0  0  0  0
  138.7000   74.2230  220.2070 C   0  0  0  0  0  0  0  0  0  0  0  0
  138.5630   74.0780  218.9230 O   0  0  0  0  0  0  0  0  0  0  0  0
  139.6740   75.1700  220.5970 N   0  0  0  0  0  0  0  0  0  0  0  0
  139.3910   76.5280  221.0710 C   0  0  0  0  0  0  0  0  0  0  0  0
  140.5930   76.8710  221.9640 C   0  0  2  0  0  0  0  0  0  0  0  0
  141.3070   77.9040  221.3840 O   0  0  0  0  0  0  0  0  0  0  0  0
  141.4470   75.6360  221.9700 C   0  0  0  0  0  0  0  0  0  0  0  0
  141.1220   75.0490  220.6030 C   0  0  1  0  0  0  0  0  0  0  0  0
  141.7140   73.7350  220.3860 C   0  0  2  0  0  0  0  0  0  0  0  0
  141.4300   72.6360  221.3400 C   0  0  0  0  0  0  0  0  0  0  0  0
  141.7580   71.2820  220.6980 C   0  0  0  0  0  0  0  0  0  0  0  0
  142.9420   71.5050  219.7760 C   0  0  2  0  0  0  0  0  0  0  0  0
  143.6850   70.2310  219.6010 C   0  0  0  0  0  0  0  0  0  0  0  0
  143.0720   68.9950  219.5670 C   0  0  0  0  0  0  0  0  0  0  0  0
  143.8620   67.8610  219.3980 C   0  0  0  0  0  0  0  0  0  0  0  0
  145.2430   68.0120  219.2670 C   0  0  0  0  0  0  0  0  0  0  0  0
  145.8150   69.2280  219.3030 N   0  0  0  0  0  0  0  0  0  0  0  0
  145.0730   70.3410  219.4660 C   0  0  0  0  0  0  0  0  0  0  0  0
  143.8950   72.5120  220.3200 C   0  0  0  0  0  0  0  0  0  0  0  0
  143.2460   73.8780  220.3400 C   0  0  0  0  0  0  0  0  0  0  0  0
  138.9910   70.5930  223.3660 C   0  0  0  0  0  0  0  0  0  0  0  0
  138.8190   69.2320  223.5080 C   0  0  0  0  0  0  0  0  0  0  0  0
  139.2830   68.6740  224.6990 C   0  0  0  0  0  0  0  0  0  0  0  0
  139.8810   69.4460  225.6790 C   0  0  0  0  0  0  0  0  0  0  0  0
  140.3500   68.9270  226.8630 C   0  0  0  0  0  0  0  0  0  0  0  0
  140.9490   69.7370  227.8280 C   0  0  0  0  0  0  0  0  0  0  0  0
  141.4140   69.2460  228.9950 F   0  0  0  0  0  0  0  0  0  0  0  0
  141.0800   71.0950  227.5990 C   0  0  0  0  0  0  0  0  0  0  0  0
  140.6140   71.6430  226.4100 C   0  0  0  0  0  0  0  0  0  0  0  0
  140.0290   70.8050  225.4830 C   0  0  0  0  0  0  0  0  0  0  0  0
  139.5750   71.3240  224.3300 N   0  0  0  0  0  0  0  0  0  0  0  0
  138.4970   73.1540  223.0170 H   0  0  0  0  0  0  0  0  0  0  0  0
  137.4067   72.6445  220.2984 H   0  0  0  0  0  0  0  0  0  0  0  0
  137.1720   74.1225  221.4704 H   0  0  0  0  0  0  0  0  0  0  0  0
  139.3191   77.2293  220.2266 H   0  0  0  0  0  0  0  0  0  0  0  0
  138.4331   76.5970  221.6074 H   0  0  0  0  0  0  0  0  0  0  0  0
  140.2859   77.1745  222.9757 H   0  0  0  0  0  0  0  0  0  0  0  0
  142.2640   77.8250  221.6200 H   0  0  0  0  0  0  0  0  0  0  0  0
  142.5149   75.8841  222.0592 H   0  0  0  0  0  0  0  0  0  0  0  0
  141.2533   74.9557  222.8125 H   0  0  0  0  0  0  0  0  0  0  0  0
  141.5630   75.5554  219.7317 H   0  0  0  0  0  0  0  0  0  0  0  0
  141.2262   73.4242  219.4504 H   0  0  0  0  0  0  0  0  0  0  0  0
  142.0452   72.7694  222.2421 H   0  0  0  0  0  0  0  0  0  0  0  0
  140.3632   72.6584  221.6074 H   0  0  0  0  0  0  0  0  0  0  0  0
  142.0171   70.5480  221.4752 H   0  0  0  0  0  0  0  0  0  0  0  0
  140.8938   70.8916  220.1406 H   0  0  0  0  0  0  0  0  0  0  0  0
  142.5400   71.8723  218.8203 H   0  0  0  0  0  0  0  0  0  0  0  0
  141.9805   68.9074  219.6714 H   0  0  0  0  0  0  0  0  0  0  0  0
  143.4044   66.8612  219.3682 H   0  0  0  0  0  0  0  0  0  0  0  0
  145.8741   67.1212  219.1320 H   0  0  0  0  0  0  0  0  0  0  0  0
  145.5554   71.3292  219.4927 H   0  0  0  0  0  0  0  0  0  0  0  0
  144.1797   72.2286  221.3440 H   0  0  0  0  0  0  0  0  0  0  0  0
  144.7896   72.5458  219.6808 H   0  0  0  0  0  0  0  0  0  0  0  0
  143.5868   74.4298  221.2285 H   0  0  0  0  0  0  0  0  0  0  0  0
  143.5294   74.4247  219.4285 H   0  0  0  0  0  0  0  0  0  0  0  0
  138.3430   68.6215  222.7265 H   0  0  0  0  0  0  0  0  0  0  0  0
  139.1706   67.5922  224.8634 H   0  0  0  0  0  0  0  0  0  0  0  0
  140.2505   67.8482  227.0536 H   0  0  0  0  0  0  0  0  0  0  0  0
  141.5516   71.7391  228.3558 H   0  0  0  0  0  0  0  0  0  0  0  0
  140.7094   72.7209  226.2123 H   0  0  0  0  0  0  0  0  0  0  0  0
  1  2  2  0
  2  3  1  0
  3  4  1  0
  4  5  1  0
  5  6  2  0
  5  7  1  0
  7  8  1  0
  8  9  1  0
  9 10  1  0
  9 11  1  0
 11 12  1  0
 12 13  1  0
 13 14  1  0
 14 15  1  0
 15 16  1  0
 16 17  1  0
 17 18  2  0
 18 19  1  0
 19 20  2  0
 20 21  1  0
 21 22  2  0
 16 23  1  0
 23 24  1  0
  2 25  1  0
 25 26  2  0
 26 27  1  0
 27 28  2  0
 28 29  1  0
 29 30  2  0
 30 31  1  0
 30 32  1  0
 32 33  2  0
 33 34  1  0
 34 35  2  0
 12  7  1  0
 24 13  1  0
 35 25  1  0
 22 17  1  0
 34 28  1  0
  3 36  1  0
  4 37  1  0
  4 38  1  0
  8 39  1  0
  8 40  1  0
  9 41  1  1
 10 42  1  0
 11 43  1  0
 11 44  1  0
 12 45  1  6
 13 46  1  6
 14 47  1  0
 14 48  1  0
 15 49  1  0
 15 50  1  0
 16 51  1  6
 18 52  1  0
 19 53  1  0
 20 54  1  0
 22 55  1  0
 23 56  1  0
 23 57  1  0
 24 58  1  0
 24 59  1  0
 26 60  1  0
 27 61  1  0
 29 62  1  0
 32 63  1  0
 33 64  1  0
M  END
>  <smiles>  (19) 
O=C(NCC(=O)N1C[C@H](O)C[C@H]1C1CCC(c2cccnc2)CC1)c1ccc2cc(F)ccc2n1

>  <score_type>  (19) 
oracle

>  <origin>  (19) 
autodockgpu

>  <m_score__min__energy>  (19) 
-9.5600000000000005

>  <m_primary>  (19) 
energy

>  <rmsd>  (19) 
2.3667938523040455

>  <m_score__min__rmsd>  (19) 
2.3667938523040455

>  <meeko>  (19) 
{"free_energy": -7.76, "intermolecular_energy": -9.85, "internal_energy": -2.6, "cluster_size": 11, "cluster_id": 3, "rank_in_cluster": 11}

>  <energy>  (19) 
-9.05

>  <cluster_rmsd>  (19) 
0.27

>  <cluster>  (19) 
3

$$$$

     RDKit          3D

 64 68  0  0  1  0  0  0  0  0999 V2000
  136.7400   76.9900  221.5970 O   0  0  0  0  0  0  0  0  0  0  0  0
  136.7100   75.9970  222.3690 C   0  0  0  0  0  0  0  0  0  0  0  0
  137.6450   74.9190  222.1740 N   0  0  0  0  0  0  0  0  0  0  0  0
  138.6310   74.8700  221.1740 C   0  0  0  0  0  0  0  0  0  0  0  0
  140.0390   74.7780  221.4750 C   0  0  0  0  0  0  0  0  0  0  0  0
  140.3440   73.8450  222.3270 O   0  0  0  0  0  0  0  0  0  0  0  0
  141.1380   75.5340  221.0050 N   0  0  0  0  0  0  0  0  0  0  0  0
  142.2400   75.0090  220.1930 C   0  0  0  0  0  0  0  0  0  0  0  0
  142.7420   76.2300  219.4090 C   0  0  2  0  0  0  0  0  0  0  0  0
  144.0280   76.5330  219.8190 O   0  0  0  0  0  0  0  0  0  0  0  0
  141.8310   77.3570  219.8050 C   0  0  0  0  0  0  0  0  0  0  0  0
  141.4440   76.9380  221.2160 C   0  0  1  0  0  0  0  0  0  0  0  0
  140.4240   77.7930  221.8110 C   0  0  2  0  0  0  0  0  0  0  0  0
  139.8500   78.9090  221.0210 C   0  0  0  0  0  0  0  0  0  0  0  0
  138.5240   79.3670  221.6410 C   0  0  0  0  0  0  0  0  0  0  0  0
  138.6520   79.1870  223.1420 C   0  0  2  0  0  0  0  0  0  0  0  0
  137.7320   80.1210  223.8380 C   0  0  0  0  0  0  0  0  0  0  0  0
  138.1010   80.8700  224.9360 C   0  0  0  0  0  0  0  0  0  0  0  0
  137.1590   81.7180  225.5150 C   0  0  0  0  0  0  0  0  0  0  0  0
  135.8780   81.7820  224.9660 C   0  0  0  0  0  0  0  0  0  0  0  0
  135.5450   81.0410  223.8940 N   0  0  0  0  0  0  0  0  0  0  0  0
  136.4380   80.2130  223.3160 C   0  0  0  0  0  0  0  0  0  0  0  0
  140.0320   79.4690  223.6260 C   0  0  0  0  0  0  0  0  0  0  0  0
  140.9890   78.4240  223.0970 C   0  0  0  0  0  0  0  0  0  0  0  0
  135.7350   75.9180  223.4670 C   0  0  0  0  0  0  0  0  0  0  0  0
  135.1510   77.0870  223.9070 C   0  0  0  0  0  0  0  0  0  0  0  0
  134.2340   76.9630  224.9500 C   0  0  0  0  0  0  0  0  0  0  0  0
  133.9310   75.7340  225.5080 C   0  0  0  0  0  0  0  0  0  0  0  0
  133.0320   75.5770  226.5360 C   0  0  0  0  0  0  0  0  0  0  0  0
  132.7500   74.3210  227.0740 C   0  0  0  0  0  0  0  0  0  0  0  0
  131.8710   74.1480  228.0820 F   0  0  0  0  0  0  0  0  0  0  0  0
  133.3840   73.2000  226.5690 C   0  0  0  0  0  0  0  0  0  0  0  0
  134.2980   73.3330  225.5290 C   0  0  0  0  0  0  0  0  0  0  0  0
  134.5450   74.5950  225.0280 C   0  0  0  0  0  0  0  0  0  0  0  0
  135.4250   74.7350  224.0230 N   0  0  0  0  0  0  0  0  0  0  0  0
  137.5520   74.1140  222.8610 H   0  0  0  0  0  0  0  0  0  0  0  0
  138.3936   73.9928  220.5542 H   0  0  0  0  0  0  0  0  0  0  0  0
  138.5598   75.8778  220.7388 H   0  0  0  0  0  0  0  0  0  0  0  0
  143.0366   74.6012  220.8326 H   0  0  0  0  0  0  0  0  0  0  0  0
  141.9249   74.1854  219.5355 H   0  0  0  0  0  0  0  0  0  0  0  0
  142.7458   76.0536  218.3232 H   0  0  0  0  0  0  0  0  0  0  0  0
  144.0010   77.1930  220.5530 H   0  0  0  0  0  0  0  0  0  0  0  0
  142.3580   78.3225  219.8009 H   0  0  0  0  0  0  0  0  0  0  0  0
  140.9776   77.5087  219.1277 H   0  0  0  0  0  0  0  0  0  0  0  0
  142.2121   77.0609  221.9938 H   0  0  0  0  0  0  0  0  0  0  0  0
  139.5907   77.0867  221.9407 H   0  0  0  0  0  0  0  0  0  0  0  0
  140.5579   79.7509  221.0133 H   0  0  0  0  0  0  0  0  0  0  0  0
  139.6663   78.5646  219.9926 H   0  0  0  0  0  0  0  0  0  0  0  0
  138.3401   80.4247  221.4015 H   0  0  0  0  0  0  0  0  0  0  0  0
  137.6817   78.7805  221.2452 H   0  0  0  0  0  0  0  0  0  0  0  0
  138.4031   78.1381  223.3608 H   0  0  0  0  0  0  0  0  0  0  0  0
  139.1191   80.7992  225.3465 H   0  0  0  0  0  0  0  0  0  0  0  0
  137.4215   82.3280  226.3920 H   0  0  0  0  0  0  0  0  0  0  0  0
  135.1285   82.4490  225.4170 H   0  0  0  0  0  0  0  0  0  0  0  0
  136.1507   79.6137  222.4395 H   0  0  0  0  0  0  0  0  0  0  0  0
  140.3459   80.4625  223.2732 H   0  0  0  0  0  0  0  0  0  0  0  0
  140.0413   79.4437  224.7257 H   0  0  0  0  0  0  0  0  0  0  0  0
  141.9575   78.8962  222.8756 H   0  0  0  0  0  0  0  0  0  0  0  0
  141.1207   77.6388  223.8560 H   0  0  0  0  0  0  0  0  0  0  0  0
  135.3948   78.0623  223.4604 H   0  0  0  0  0  0  0  0  0  0  0  0
  133.7391   77.8651  225.3389 H   0  0  0  0  0  0  0  0  0  0  0  0
  132.5229   76.4626  226.9441 H   0  0  0  0  0  0  0  0  0  0  0  0
  133.1660   72.2068  226.9885 H   0  0  0  0  0  0  0  0  0  0  0  0
  134.8120   72.4528  225.1155 H   0  0  0  0  0  0  0  0  0  0  0  0
  1  2  2  0
  2  3  1  0
  3  4  1  0
  4  5  1  0
  5  6  2  0
  5  7  1  0
  7  8  1  0
  8  9  1  0
  9 10  1  0
  9 11  1  0
 11 12  1  0
 12 13  1  0
 13 14  1  0
 14 15  1  0
 15 16  1  0
 16 17  1  0
 17 18  2  0
 18 19  1  0
 19 20  2  0
 20 21  1  0
 21 22  2  0
 16 23  1  0
 23 24  1  0
  2 25  1  0
 25 26  2  0
 26 27  1  0
 27 28  2  0
 28 29  1  0
 29 30  2  0
 30 31  1  0
 30 32  1  0
 32 33  2  0
 33 34  1  0
 34 35  2  0
 12  7  1  0
 24 13  1  0
 35 25  1  0
 22 17  1  0
 34 28  1  0
  3 36  1  0
  4 37  1  0
  4 38  1  0
  8 39  1  0
  8 40  1  0
  9 41  1  6
 10 42  1  0
 11 43  1  0
 11 44  1  0
 12 45  1  1
 13 46  1  1
 14 47  1  0
 14 48  1  0
 15 49  1  0
 15 50  1  0
 16 51  1  6
 18 52  1  0
 19 53  1  0
 20 54  1  0
 22 55  1  0
 23 56  1  0
 23 57  1  0
 24 58  1  0
 24 59  1  0
 26 60  1  0
 27 61  1  0
 29 62  1  0
 32 63  1  0
 33 64  1  0
M  END
>  <smiles>  (20) 
O=C(NCC(=O)N1C[C@H](O)C[C@H]1C1CCC(c2cccnc2)CC1)c1ccc2cc(F)ccc2n1

>  <score_type>  (20) 
oracle

>  <origin>  (20) 
autodockgpu

>  <m_score__min__energy>  (20) 
-9.5600000000000005

>  <m_primary>  (20) 
energy

>  <rmsd>  (20) 
6.208436778389174

>  <m_score__min__rmsd>  (20) 
6.208436778389174

>  <meeko>  (20) 
{"free_energy": -8.01, "intermolecular_energy": -10.09, "internal_energy": -2.89, "cluster_size": 6, "cluster_id": 7, "rank_in_cluster": 3}

>  <energy>  (20) 
-9.05

>  <cluster_rmsd>  (20) 
0.31

>  <cluster>  (20) 
3

$$$$

     RDKit          3D

 64 68  0  0  1  0  0  0  0  0999 V2000
  138.3270   75.1230  221.7340 O   0  0  0  0  0  0  0  0  0  0  0  0
  139.4940   75.5070  221.9990 C   0  0  0  0  0  0  0  0  0  0  0  0
  140.5900   74.5770  221.8870 N   0  0  0  0  0  0  0  0  0  0  0  0
  140.4770   73.2340  221.4870 C   0  0  0  0  0  0  0  0  0  0  0  0
  141.5570   72.5220  220.8460 C   0  0  0  0  0  0  0  0  0  0  0  0
  141.2070   71.3940  220.3050 O   0  0  0  0  0  0  0  0  0  0  0  0
  142.9280   72.8430  220.7150 N   0  0  0  0  0  0  0  0  0  0  0  0
  144.0350   71.8920  220.8480 C   0  0  0  0  0  0  0  0  0  0  0  0
  145.1560   72.5020  219.9930 C   0  0  2  0  0  0  0  0  0  0  0  0
  146.2060   72.8660  220.8160 O   0  0  0  0  0  0  0  0  0  0  0  0
  144.5630   73.7420  219.3880 C   0  0  0  0  0  0  0  0  0  0  0  0
  143.5490   74.1310  220.4540 C   0  0  1  0  0  0  0  0  0  0  0  0
  142.6990   75.2480  220.0590 C   0  0  2  0  0  0  0  0  0  0  0  0
  141.7600   75.0910  218.9220 C   0  0  0  0  0  0  0  0  0  0  0  0
  140.6820   76.1800  218.9740 C   0  0  0  0  0  0  0  0  0  0  0  0
  141.3370   77.4240  219.5450 C   0  0  2  0  0  0  0  0  0  0  0  0
  140.6060   78.6310  219.0830 C   0  0  0  0  0  0  0  0  0  0  0  0
  139.3420   78.5850  218.5300 C   0  0  0  0  0  0  0  0  0  0  0  0
  138.7440   79.7770  218.1300 C   0  0  0  0  0  0  0  0  0  0  0  0
  139.4390   80.9740  218.3010 C   0  0  0  0  0  0  0  0  0  0  0  0
  140.6700   80.9910  218.8430 N   0  0  0  0  0  0  0  0  0  0  0  0
  141.2710   79.8510  219.2390 C   0  0  0  0  0  0  0  0  0  0  0  0
  142.7550   77.5620  219.1100 C   0  0  0  0  0  0  0  0  0  0  0  0
  143.5900   76.4560  219.7160 C   0  0  0  0  0  0  0  0  0  0  0  0
  139.7620   76.8890  222.4230 C   0  0  0  0  0  0  0  0  0  0  0  0
  138.6870   77.6960  222.7310 C   0  0  0  0  0  0  0  0  0  0  0  0
  138.9890   78.9980  223.1270 C   0  0  0  0  0  0  0  0  0  0  0  0
  140.2940   79.4510  223.2040 C   0  0  0  0  0  0  0  0  0  0  0  0
  140.6260   80.7270  223.5920 C   0  0  0  0  0  0  0  0  0  0  0  0
  141.9540   81.1480  223.6590 C   0  0  0  0  0  0  0  0  0  0  0  0
  142.2980   82.3960  224.0360 F   0  0  0  0  0  0  0  0  0  0  0  0
  142.9700   80.2680  223.3300 C   0  0  0  0  0  0  0  0  0  0  0  0
  142.6600   78.9710  222.9360 C   0  0  0  0  0  0  0  0  0  0  0  0
  141.3330   78.5980  222.8850 C   0  0  0  0  0  0  0  0  0  0  0  0
  141.0220   77.3480  222.5050 N   0  0  0  0  0  0  0  0  0  0  0  0
  141.5430   74.9740  222.1360 H   0  0  0  0  0  0  0  0  0  0  0  0
  140.2323   72.6642  222.3956 H   0  0  0  0  0  0  0  0  0  0  0  0
  139.7384   73.3021  220.6747 H   0  0  0  0  0  0  0  0  0  0  0  0
  144.3493   71.8027  221.8984 H   0  0  0  0  0  0  0  0  0  0  0  0
  143.7614   70.8769  220.5245 H   0  0  0  0  0  0  0  0  0  0  0  0
  145.5271   71.7993  219.2324 H   0  0  0  0  0  0  0  0  0  0  0  0
  146.2920   72.2190  221.5590 H   0  0  0  0  0  0  0  0  0  0  0  0
  145.3222   74.5256  219.2479 H   0  0  0  0  0  0  0  0  0  0  0  0
  144.1332   73.5959  218.3861 H   0  0  0  0  0  0  0  0  0  0  0  0
  143.9507   74.5700  221.3791 H   0  0  0  0  0  0  0  0  0  0  0  0
  142.0505   75.3552  220.9410 H   0  0  0  0  0  0  0  0  0  0  0  0
  142.3162   75.1747  217.9767 H   0  0  0  0  0  0  0  0  0  0  0  0
  141.2781   74.1043  218.9870 H   0  0  0  0  0  0  0  0  0  0  0  0
  140.3014   76.3837  217.9622 H   0  0  0  0  0  0  0  0  0  0  0  0
  139.8322   75.8625  219.5961 H   0  0  0  0  0  0  0  0  0  0  0  0
  141.3058   77.3281  220.6404 H   0  0  0  0  0  0  0  0  0  0  0  0
  138.8177   77.6257  218.4078 H   0  0  0  0  0  0  0  0  0  0  0  0
  137.7378   79.7747  217.6855 H   0  0  0  0  0  0  0  0  0  0  0  0
  138.9728   81.9197  217.9875 H   0  0  0  0  0  0  0  0  0  0  0  0
  142.2775   79.8805  219.6818 H   0  0  0  0  0  0  0  0  0  0  0  0
  142.8076   77.4993  218.0130 H   0  0  0  0  0  0  0  0  0  0  0  0
  143.1437   78.5346  219.4463 H   0  0  0  0  0  0  0  0  0  0  0  0
  144.3615   76.1462  218.9957 H   0  0  0  0  0  0  0  0  0  0  0  0
  144.0647   76.8263  220.6366 H   0  0  0  0  0  0  0  0  0  0  0  0
  137.6505   77.3331  222.6678 H   0  0  0  0  0  0  0  0  0  0  0  0
  138.1681   79.6833  223.3851 H   0  0  0  0  0  0  0  0  0  0  0  0
  139.8251   81.4332  223.8561 H   0  0  0  0  0  0  0  0  0  0  0  0
  144.0196   80.5935  223.3800 H   0  0  0  0  0  0  0  0  0  0  0  0
  143.4551   78.2585  222.6710 H   0  0  0  0  0  0  0  0  0  0  0  0
  1  2  2  0
  2  3  1  0
  3  4  1  0
  4  5  1  0
  5  6  2  0
  5  7  1  0
  7  8  1  0
  8  9  1  0
  9 10  1  0
  9 11  1  0
 11 12  1  0
 12 13  1  0
 13 14  1  0
 14 15  1  0
 15 16  1  0
 16 17  1  0
 17 18  2  0
 18 19  1  0
 19 20  2  0
 20 21  1  0
 21 22  2  0
 16 23  1  0
 23 24  1  0
  2 25  1  0
 25 26  2  0
 26 27  1  0
 27 28  2  0
 28 29  1  0
 29 30  2  0
 30 31  1  0
 30 32  1  0
 32 33  2  0
 33 34  1  0
 34 35  2  0
 12  7  1  0
 24 13  1  0
 35 25  1  0
 22 17  1  0
 34 28  1  0
  3 36  1  0
  4 37  1  0
  4 38  1  0
  8 39  1  0
  8 40  1  0
  9 41  1  6
 10 42  1  0
 11 43  1  0
 11 44  1  0
 12 45  1  1
 13 46  1  1
 14 47  1  0
 14 48  1  0
 15 49  1  0
 15 50  1  0
 16 51  1  1
 18 52  1  0
 19 53  1  0
 20 54  1  0
 22 55  1  0
 23 56  1  0
 23 57  1  0
 24 58  1  0
 24 59  1  0
 26 60  1  0
 27 61  1  0
 29 62  1  0
 32 63  1  0
 33 64  1  0
M  END
>  <smiles>  (21) 
O=C(NCC(=O)N1C[C@H](O)C[C@H]1C1CCC(c2cccnc2)CC1)c1ccc2cc(F)ccc2n1

>  <score_type>  (21) 
oracle

>  <origin>  (21) 
autodockgpu

>  <m_score__min__energy>  (21) 
-9.5600000000000005

>  <m_primary>  (21) 
energy

>  <rmsd>  (21) 
7.827542318581923

>  <m_score__min__rmsd>  (21) 
7.827542318581923

>  <meeko>  (21) 
{"free_energy": -6.85, "intermolecular_energy": -8.94, "internal_energy": -3.8, "cluster_size": 14, "cluster_id": 8, "rank_in_cluster": 6}

>  <energy>  (21) 
-8.94

>  <cluster_rmsd>  (21) 
0.37

>  <cluster>  (21) 
3

$$$$

     RDKit          3D

 64 68  0  0  1  0  0  0  0  0999 V2000
  138.2190   75.0300  221.9860 O   0  0  0  0  0  0  0  0  0  0  0  0
  139.3970   75.4460  222.1370 C   0  0  0  0  0  0  0  0  0  0  0  0
  140.4990   74.5360  221.9540 N   0  0  0  0  0  0  0  0  0  0  0  0
  140.3830   73.1800  221.6000 C   0  0  0  0  0  0  0  0  0  0  0  0
  141.2830   72.5400  220.6710 C   0  0  0  0  0  0  0  0  0  0  0  0
  140.7190   71.6580  219.9010 O   0  0  0  0  0  0  0  0  0  0  0  0
  142.6720   72.7080  220.4640 N   0  0  0  0  0  0  0  0  0  0  0  0
  143.6580   71.6240  220.4290 C   0  0  0  0  0  0  0  0  0  0  0  0
  144.7880   72.1740  219.5470 C   0  0  2  0  0  0  0  0  0  0  0  0
  145.9270   72.3320  220.3160 O   0  0  0  0  0  0  0  0  0  0  0  0
  144.3160   73.5290  219.0980 C   0  0  0  0  0  0  0  0  0  0  0  0
  143.4300   73.9310  220.2680 C   0  0  1  0  0  0  0  0  0  0  0  0
  142.7030   75.1740  220.0380 C   0  0  2  0  0  0  0  0  0  0  0  0
  141.5670   75.1940  219.0850 C   0  0  0  0  0  0  0  0  0  0  0  0
  140.6920   76.4280  219.3340 C   0  0  0  0  0  0  0  0  0  0  0  0
  141.6160   77.5430  219.7880 C   0  0  2  0  0  0  0  0  0  0  0  0
  141.0060   78.8580  219.4720 C   0  0  0  0  0  0  0  0  0  0  0  0
  139.7100   79.0030  219.0190 C   0  0  0  0  0  0  0  0  0  0  0  0
  139.2340   80.2840  218.7520 C   0  0  0  0  0  0  0  0  0  0  0  0
  140.0800   81.3750  218.9510 C   0  0  0  0  0  0  0  0  0  0  0  0
  141.3390   81.2070  219.3930 N   0  0  0  0  0  0  0  0  0  0  0  0
  141.8230   79.9770  219.6590 C   0  0  0  0  0  0  0  0  0  0  0  0
  142.9410   77.4850  219.1100 C   0  0  0  0  0  0  0  0  0  0  0  0
  143.6920   76.2480  219.5500 C   0  0  0  0  0  0  0  0  0  0  0  0
  139.6680   76.8450  222.4980 C   0  0  0  0  0  0  0  0  0  0  0  0
  138.5950   77.6890  222.6890 C   0  0  0  0  0  0  0  0  0  0  0  0
  138.9010   79.0060  223.0300 C   0  0  0  0  0  0  0  0  0  0  0  0
  140.2080   79.4370  223.1670 C   0  0  0  0  0  0  0  0  0  0  0  0
  140.5450   80.7270  223.5020 C   0  0  0  0  0  0  0  0  0  0  0  0
  141.8750   81.1250  223.6310 C   0  0  0  0  0  0  0  0  0  0  0  0
  142.2230   82.3860  223.9590 F   0  0  0  0  0  0  0  0  0  0  0  0
  142.8890   80.2070  223.4210 C   0  0  0  0  0  0  0  0  0  0  0  0
  142.5750   78.8970  223.0810 C   0  0  0  0  0  0  0  0  0  0  0  0
  141.2460   78.5470  222.9640 C   0  0  0  0  0  0  0  0  0  0  0  0
  140.9310   77.2840  222.6360 N   0  0  0  0  0  0  0  0  0  0  0  0
  141.4610   74.9590  222.1060 H   0  0  0  0  0  0  0  0  0  0  0  0
  140.4589   72.6119  222.5389 H   0  0  0  0  0  0  0  0  0  0  0  0
  139.4379   73.1747  221.0372 H   0  0  0  0  0  0  0  0  0  0  0  0
  144.0267   71.3987  221.4406 H   0  0  0  0  0  0  0  0  0  0  0  0
  143.2386   70.6842  220.0406 H   0  0  0  0  0  0  0  0  0  0  0  0
  145.0179   71.5071  218.7030 H   0  0  0  0  0  0  0  0  0  0  0  0
  145.7990   71.9050  221.1980 H   0  0  0  0  0  0  0  0  0  0  0  0
  145.1563   74.2271  218.9692 H   0  0  0  0  0  0  0  0  0  0  0  0
  143.8074   73.5315  218.1226 H   0  0  0  0  0  0  0  0  0  0  0  0
  143.9430   74.2283  221.1946 H   0  0  0  0  0  0  0  0  0  0  0  0
  142.2429   75.3473  221.0220 H   0  0  0  0  0  0  0  0  0  0  0  0
  141.9555   75.2251  218.0564 H   0  0  0  0  0  0  0  0  0  0  0  0
  140.9605   74.2877  219.2288 H   0  0  0  0  0  0  0  0  0  0  0  0
  140.1763   76.7187  218.4069 H   0  0  0  0  0  0  0  0  0  0  0  0
  139.9259   76.2188  220.0951 H   0  0  0  0  0  0  0  0  0  0  0  0
  141.7620   77.4168  220.8709 H   0  0  0  0  0  0  0  0  0  0  0  0
  139.0659   78.1236  218.8718 H   0  0  0  0  0  0  0  0  0  0  0  0
  138.2062   80.4334  218.3896 H   0  0  0  0  0  0  0  0  0  0  0  0
  139.7111   82.3902  218.7429 H   0  0  0  0  0  0  0  0  0  0  0  0
  142.8545   79.8547  220.0210 H   0  0  0  0  0  0  0  0  0  0  0  0
  142.7919   77.4527  218.0206 H   0  0  0  0  0  0  0  0  0  0  0  0
  143.5247   78.3775  219.3797 H   0  0  0  0  0  0  0  0  0  0  0  0
  144.2696   75.8521  218.7017 H   0  0  0  0  0  0  0  0  0  0  0  0
  144.3709   76.5131  220.3739 H   0  0  0  0  0  0  0  0  0  0  0  0
  137.5566   77.3433  222.5787 H   0  0  0  0  0  0  0  0  0  0  0  0
  138.0813   79.7209  223.1944 H   0  0  0  0  0  0  0  0  0  0  0  0
  139.7457   81.4633  223.6725 H   0  0  0  0  0  0  0  0  0  0  0  0
  143.9405   80.5135  223.5230 H   0  0  0  0  0  0  0  0  0  0  0  0
  143.3688   78.1553  222.9089 H   0  0  0  0  0  0  0  0  0  0  0  0
  1  2  2  0
  2  3  1  0
  3  4  1  0
  4  5  1  0
  5  6  2  0
  5  7  1  0
  7  8  1  0
  8  9  1  0
  9 10  1  0
  9 11  1  0
 11 12  1  0
 12 13  1  0
 13 14  1  0
 14 15  1  0
 15 16  1  0
 16 17  1  0
 17 18  2  0
 18 19  1  0
 19 20  2  0
 20 21  1  0
 21 22  2  0
 16 23  1  0
 23 24  1  0
  2 25  1  0
 25 26  2  0
 26 27  1  0
 27 28  2  0
 28 29  1  0
 29 30  2  0
 30 31  1  0
 30 32  1  0
 32 33  2  0
 33 34  1  0
 34 35  2  0
 12  7  1  0
 24 13  1  0
 35 25  1  0
 22 17  1  0
 34 28  1  0
  3 36  1  0
  4 37  1  0
  4 38  1  0
  8 39  1  0
  8 40  1  0
  9 41  1  6
 10 42  1  0
 11 43  1  0
 11 44  1  0
 12 45  1  1
 13 46  1  1
 14 47  1  0
 14 48  1  0
 15 49  1  0
 15 50  1  0
 16 51  1  1
 18 52  1  0
 19 53  1  0
 20 54  1  0
 22 55  1  0
 23 56  1  0
 23 57  1  0
 24 58  1  0
 24 59  1  0
 26 60  1  0
 27 61  1  0
 29 62  1  0
 32 63  1  0
 33 64  1  0
M  END
>  <smiles>  (22) 
O=C(NCC(=O)N1C[C@H](O)C[C@H]1C1CCC(c2cccnc2)CC1)c1ccc2cc(F)ccc2n1

>  <score_type>  (22) 
oracle

>  <origin>  (22) 
autodockgpu

>  <m_score__min__energy>  (22) 
-9.5600000000000005

>  <m_primary>  (22) 
energy

>  <rmsd>  (22) 
7.762473709945264

>  <m_score__min__rmsd>  (22) 
7.762473709945264

>  <meeko>  (22) 
{"free_energy": -6.99, "intermolecular_energy": -9.07, "internal_energy": -3.96, "cluster_size": 14, "cluster_id": 8, "rank_in_cluster": 3}

>  <energy>  (22) 
-8.81

>  <cluster_rmsd>  (22) 
0.74

>  <cluster>  (22) 
3

$$$$

     RDKit          3D

 64 68  0  0  1  0  0  0  0  0999 V2000
  141.1940   72.9700  221.9310 O   0  0  0  0  0  0  0  0  0  0  0  0
  140.1310   72.7980  222.5810 C   0  0  0  0  0  0  0  0  0  0  0  0
  138.9990   73.6530  222.3280 N   0  0  0  0  0  0  0  0  0  0  0  0
  138.9620   74.6940  221.3850 C   0  0  0  0  0  0  0  0  0  0  0  0
  139.8550   74.7480  220.2520 C   0  0  0  0  0  0  0  0  0  0  0  0
  139.5220   73.9640  219.2710 O   0  0  0  0  0  0  0  0  0  0  0  0
  141.0310   75.5030  220.0360 N   0  0  0  0  0  0  0  0  0  0  0  0
  142.1520   75.0970  219.1840 C   0  0  0  0  0  0  0  0  0  0  0  0
  142.7860   76.4240  218.7420 C   0  0  2  0  0  0  0  0  0  0  0  0
  144.0570   76.5200  219.2800 O   0  0  0  0  0  0  0  0  0  0  0  0
  141.9230   77.4960  219.3440 C   0  0  0  0  0  0  0  0  0  0  0  0
  141.4100   76.7910  220.5910 C   0  0  1  0  0  0  0  0  0  0  0  0
  140.4070   77.5620  221.3160 C   0  0  2  0  0  0  0  0  0  0  0  0
  139.3450   78.2730  220.5650 C   0  0  0  0  0  0  0  0  0  0  0  0
  138.1790   78.6180  221.4990 C   0  0  0  0  0  0  0  0  0  0  0  0
  138.7750   78.8990  222.8660 C   0  0  2  0  0  0  0  0  0  0  0  0
  137.8700   79.7920  223.6330 C   0  0  0  0  0  0  0  0  0  0  0  0
  138.3230   80.7680  224.4970 C   0  0  0  0  0  0  0  0  0  0  0  0
  137.3890   81.5530  225.1680 C   0  0  0  0  0  0  0  0  0  0  0  0
  136.0300   81.3280  224.9440 C   0  0  0  0  0  0  0  0  0  0  0  0
  135.6160   80.3700  224.0960 N   0  0  0  0  0  0  0  0  0  0  0  0
  136.5000   79.5970  223.4350 C   0  0  0  0  0  0  0  0  0  0  0  0
  140.1010   79.5720  222.7730 C   0  0  0  0  0  0  0  0  0  0  0  0
  141.1170   78.6280  222.1690 C   0  0  0  0  0  0  0  0  0  0  0  0
  140.0240   71.7380  223.5940 C   0  0  0  0  0  0  0  0  0  0  0  0
  139.3950   70.5620  223.2450 C   0  0  0  0  0  0  0  0  0  0  0  0
  139.3160   69.5870  224.2380 C   0  0  0  0  0  0  0  0  0  0  0  0
  139.8400   69.7920  225.5010 C   0  0  0  0  0  0  0  0  0  0  0  0
  139.7800   68.8520  226.5030 C   0  0  0  0  0  0  0  0  0  0  0  0
  140.3210   69.0950  227.7650 C   0  0  0  0  0  0  0  0  0  0  0  0
  140.2710   68.1850  228.7590 F   0  0  0  0  0  0  0  0  0  0  0  0
  140.9360   70.3070  228.0270 C   0  0  0  0  0  0  0  0  0  0  0  0
  141.0090   71.2730  227.0310 C   0  0  0  0  0  0  0  0  0  0  0  0
  140.4610   70.9900  225.7970 C   0  0  0  0  0  0  0  0  0  0  0  0
  140.5260   71.9170  224.8280 N   0  0  0  0  0  0  0  0  0  0  0  0
  138.1410   73.4500  222.9210 H   0  0  0  0  0  0  0  0  0  0  0  0
  137.9430   74.6944  220.9707 H   0  0  0  0  0  0  0  0  0  0  0  0
  139.3052   75.5512  221.9828 H   0  0  0  0  0  0  0  0  0  0  0  0
  142.8730   74.4893  219.7505 H   0  0  0  0  0  0  0  0  0  0  0  0
  141.8328   74.4774  218.3330 H   0  0  0  0  0  0  0  0  0  0  0  0
  142.8558   76.5064  217.6473 H   0  0  0  0  0  0  0  0  0  0  0  0
  144.0850   77.2480  219.9480 H   0  0  0  0  0  0  0  0  0  0  0  0
  142.5096   78.3910  219.5986 H   0  0  0  0  0  0  0  0  0  0  0  0
  141.1321   77.8689  218.6766 H   0  0  0  0  0  0  0  0  0  0  0  0
  142.1266   76.6673  221.4163 H   0  0  0  0  0  0  0  0  0  0  0  0
  139.8759   76.7723  221.8676 H   0  0  0  0  0  0  0  0  0  0  0  0
  139.7580   79.2002  220.1410 H   0  0  0  0  0  0  0  0  0  0  0  0
  138.9785   77.6224  219.7573 H   0  0  0  0  0  0  0  0  0  0  0  0
  137.6481   79.5071  221.1282 H   0  0  0  0  0  0  0  0  0  0  0  0
  137.4565   77.7900  221.5480 H   0  0  0  0  0  0  0  0  0  0  0  0
  138.9007   77.9273  223.3661 H   0  0  0  0  0  0  0  0  0  0  0  0
  139.4009   80.9228  224.6526 H   0  0  0  0  0  0  0  0  0  0  0  0
  137.7174   82.3388  225.8642 H   0  0  0  0  0  0  0  0  0  0  0  0
  135.2856   81.9442  225.4695 H   0  0  0  0  0  0  0  0  0  0  0  0
  136.1459   78.8177  222.7442 H   0  0  0  0  0  0  0  0  0  0  0  0
  140.0122   80.4664  222.1389 H   0  0  0  0  0  0  0  0  0  0  0  0
  140.4311   79.8620  223.7814 H   0  0  0  0  0  0  0  0  0  0  0  0
  141.8114   79.1983  221.5346 H   0  0  0  0  0  0  0  0  0  0  0  0
  141.6718   78.1306  222.9782 H   0  0  0  0  0  0  0  0  0  0  0  0
  138.9788   70.4020  222.2394 H   0  0  0  0  0  0  0  0  0  0  0  0
  138.8240   68.6297  224.0110 H   0  0  0  0  0  0  0  0  0  0  0  0
  139.2937   67.8855  226.3042 H   0  0  0  0  0  0  0  0  0  0  0  0
  141.3655   70.5047  229.0202 H   0  0  0  0  0  0  0  0  0  0  0  0
  141.4931   72.2421  227.2222 H   0  0  0  0  0  0  0  0  0  0  0  0
  1  2  2  0
  2  3  1  0
  3  4  1  0
  4  5  1  0
  5  6  2  0
  5  7  1  0
  7  8  1  0
  8  9  1  0
  9 10  1  0
  9 11  1  0
 11 12  1  0
 12 13  1  0
 13 14  1  0
 14 15  1  0
 15 16  1  0
 16 17  1  0
 17 18  2  0
 18 19  1  0
 19 20  2  0
 20 21  1  0
 21 22  2  0
 16 23  1  0
 23 24  1  0
  2 25  1  0
 25 26  2  0
 26 27  1  0
 27 28  2  0
 28 29  1  0
 29 30  2  0
 30 31  1  0
 30 32  1  0
 32 33  2  0
 33 34  1  0
 34 35  2  0
 12  7  1  0
 24 13  1  0
 35 25  1  0
 22 17  1  0
 34 28  1  0
  3 36  1  0
  4 37  1  0
  4 38  1  0
  8 39  1  0
  8 40  1  0
  9 41  1  6
 10 42  1  0
 11 43  1  0
 11 44  1  0
 12 45  1  1
 13 46  1  1
 14 47  1  0
 14 48  1  0
 15 49  1  0
 15 50  1  0
 16 51  1  1
 18 52  1  0
 19 53  1  0
 20 54  1  0
 22 55  1  0
 23 56  1  0
 23 57  1  0
 24 58  1  0
 24 59  1  0
 26 60  1  0
 27 61  1  0
 29 62  1  0
 32 63  1  0
 33 64  1  0
M  END
>  <smiles>  (23) 
O=C(NCC(=O)N1C[C@H](O)C[C@H]1C1CCC(c2cccnc2)CC1)c1ccc2cc(F)ccc2n1

>  <score_type>  (23) 
oracle

>  <origin>  (23) 
autodockgpu

>  <m_score__min__energy>  (23) 
-9.5600000000000005

>  <m_primary>  (23) 
energy

>  <rmsd>  (23) 
1.792081192249471

>  <m_score__min__rmsd>  (23) 
1.792081192249471

>  <meeko>  (23) 
{"free_energy": -8.7, "intermolecular_energy": -10.79, "internal_energy": -1.65, "cluster_size": 14, "cluster_id": 1, "rank_in_cluster": 12}

>  <energy>  (23) 
-8.52

>  <cluster_rmsd>  (23) 
1.3

>  <cluster>  (23) 
3

$$$$

     RDKit          3D

 64 68  0  0  1  0  0  0  0  0999 V2000
  140.5970   73.4540  222.3370 O   0  0  0  0  0  0  0  0  0  0  0  0
  139.8580   72.4370  222.3500 C   0  0  0  0  0  0  0  0  0  0  0  0
  138.9810   72.1820  221.2350 N   0  0  0  0  0  0  0  0  0  0  0  0
  138.8740   72.9860  220.0870 C   0  0  0  0  0  0  0  0  0  0  0  0
  137.9510   74.0920  219.9970 C   0  0  0  0  0  0  0  0  0  0  0  0
  138.1580   74.8810  218.9850 O   0  0  0  0  0  0  0  0  0  0  0  0
  136.8660   74.4610  220.8250 N   0  0  0  0  0  0  0  0  0  0  0  0
  135.6300   73.6910  220.9930 C   0  0  0  0  0  0  0  0  0  0  0  0
  135.1320   74.0840  222.3920 C   0  0  2  0  0  0  0  0  0  0  0  0
  133.9380   74.7710  222.2710 O   0  0  0  0  0  0  0  0  0  0  0  0
  136.1750   75.0180  222.9370 C   0  0  0  0  0  0  0  0  0  0  0  0
  136.7050   75.6430  221.6540 C   0  0  1  0  0  0  0  0  0  0  0  0
  137.8590   76.5070  221.8700 C   0  0  2  0  0  0  0  0  0  0  0  0
  139.0370   75.9890  222.6060 C   0  0  0  0  0  0  0  0  0  0  0  0
  140.2630   76.8660  222.3250 C   0  0  0  0  0  0  0  0  0  0  0  0
  139.7590   78.2870  222.1490 C   0  0  2  0  0  0  0  0  0  0  0  0
  140.8440   79.2460  222.4770 C   0  0  0  0  0  0  0  0  0  0  0  0
  141.1650   80.3270  221.6810 C   0  0  0  0  0  0  0  0  0  0  0  0
  142.2010   81.1670  222.0800 C   0  0  0  0  0  0  0  0  0  0  0  0
  142.8780   80.8890  223.2680 C   0  0  0  0  0  0  0  0  0  0  0  0
  142.5450   79.8290  224.0250 N   0  0  0  0  0  0  0  0  0  0  0  0
  141.5460   79.0010  223.6610 C   0  0  0  0  0  0  0  0  0  0  0  0
  138.6050   78.5880  223.0410 C   0  0  0  0  0  0  0  0  0  0  0  0
  137.4030   77.7700  222.6250 C   0  0  0  0  0  0  0  0  0  0  0  0
  139.8730   71.5020  223.4850 C   0  0  0  0  0  0  0  0  0  0  0  0
  139.3200   70.2510  223.3070 C   0  0  0  0  0  0  0  0  0  0  0  0
  139.3560   69.3990  224.4100 C   0  0  0  0  0  0  0  0  0  0  0  0
  139.9160   69.7910  225.6130 C   0  0  0  0  0  0  0  0  0  0  0  0
  139.9690   68.9760  226.7190 C   0  0  0  0  0  0  0  0  0  0  0  0
  140.5420   69.4050  227.9160 C   0  0  0  0  0  0  0  0  0  0  0  0
  140.6030   68.6200  229.0100 F   0  0  0  0  0  0  0  0  0  0  0  0
  141.0750   70.6800  228.0030 C   0  0  0  0  0  0  0  0  0  0  0  0
  141.0340   71.5230  226.8980 C   0  0  0  0  0  0  0  0  0  0  0  0
  140.4570   71.0560  225.7350 C   0  0  0  0  0  0  0  0  0  0  0  0
  140.4120   71.8620  224.6620 N   0  0  0  0  0  0  0  0  0  0  0  0
  138.3840   71.3090  221.3240 H   0  0  0  0  0  0  0  0  0  0  0  0
  139.8749   73.4090  219.9162 H   0  0  0  0  0  0  0  0  0  0  0  0
  138.4514   72.2803  219.3566 H   0  0  0  0  0  0  0  0  0  0  0  0
  134.8919   73.9644  220.2245 H   0  0  0  0  0  0  0  0  0  0  0  0
  135.7899   72.6075  220.8904 H   0  0  0  0  0  0  0  0  0  0  0  0
  134.9745   73.2075  223.0377 H   0  0  0  0  0  0  0  0  0  0  0  0
  133.9070   75.2420  221.4020 H   0  0  0  0  0  0  0  0  0  0  0  0
  135.7321   75.7743  223.6017 H   0  0  0  0  0  0  0  0  0  0  0  0
  136.9433   74.5291  223.5540 H   0  0  0  0  0  0  0  0  0  0  0  0
  136.0560   76.3824  221.1620 H   0  0  0  0  0  0  0  0  0  0  0  0
  138.2185   76.6570  220.8413 H   0  0  0  0  0  0  0  0  0  0  0  0
  138.8239   75.9970  223.6851 H   0  0  0  0  0  0  0  0  0  0  0  0
  139.2459   74.9617  222.2727 H   0  0  0  0  0  0  0  0  0  0  0  0
  140.9654   76.8159  223.1701 H   0  0  0  0  0  0  0  0  0  0  0  0
  140.7941   76.5228  221.4249 H   0  0  0  0  0  0  0  0  0  0  0  0
  139.4368   78.3856  221.1019 H   0  0  0  0  0  0  0  0  0  0  0  0
  140.6130   80.5210  220.7495 H   0  0  0  0  0  0  0  0  0  0  0  0
  142.4817   82.0368  221.4679 H   0  0  0  0  0  0  0  0  0  0  0  0
  143.6976   81.5479  223.5905 H   0  0  0  0  0  0  0  0  0  0  0  0
  141.2846   78.1381  224.2912 H   0  0  0  0  0  0  0  0  0  0  0  0
  138.8725   78.3406  224.0789 H   0  0  0  0  0  0  0  0  0  0  0  0
  138.3584   79.6572  222.9642 H   0  0  0  0  0  0  0  0  0  0  0  0
  136.8365   77.4742  223.5203 H   0  0  0  0  0  0  0  0  0  0  0  0
  136.7665   78.3756  221.9630 H   0  0  0  0  0  0  0  0  0  0  0  0
  138.8757   69.9430  222.3490 H   0  0  0  0  0  0  0  0  0  0  0  0
  138.9283   68.3894  224.3216 H   0  0  0  0  0  0  0  0  0  0  0  0
  139.5493   67.9610  226.6583 H   0  0  0  0  0  0  0  0  0  0  0  0
  141.5295   71.0249  228.9435 H   0  0  0  0  0  0  0  0  0  0  0  0
  141.4521   72.5391  226.9499 H   0  0  0  0  0  0  0  0  0  0  0  0
  1  2  2  0
  2  3  1  0
  3  4  1  0
  4  5  1  0
  5  6  2  0
  5  7  1  0
  7  8  1  0
  8  9  1  0
  9 10  1  0
  9 11  1  0
 11 12  1  0
 12 13  1  0
 13 14  1  0
 14 15  1  0
 15 16  1  0
 16 17  1  0
 17 18  2  0
 18 19  1  0
 19 20  2  0
 20 21  1  0
 21 22  2  0
 16 23  1  0
 23 24  1  0
  2 25  1  0
 25 26  2  0
 26 27  1  0
 27 28  2  0
 28 29  1  0
 29 30  2  0
 30 31  1  0
 30 32  1  0
 32 33  2  0
 33 34  1  0
 34 35  2  0
 12  7  1  0
 24 13  1  0
 35 25  1  0
 22 17  1  0
 34 28  1  0
  3 36  1  0
  4 37  1  0
  4 38  1  0
  8 39  1  0
  8 40  1  0
  9 41  1  1
 10 42  1  0
 11 43  1  0
 11 44  1  0
 12 45  1  6
 13 46  1  6
 14 47  1  0
 14 48  1  0
 15 49  1  0
 15 50  1  0
 16 51  1  6
 18 52  1  0
 19 53  1  0
 20 54  1  0
 22 55  1  0
 23 56  1  0
 23 57  1  0
 24 58  1  0
 24 59  1  0
 26 60  1  0
 27 61  1  0
 29 62  1  0
 32 63  1  0
 33 64  1  0
M  END
>  <smiles>  (24) 
O=C(NCC(=O)N1C[C@H](O)C[C@H]1C1CCC(c2cccnc2)CC1)c1ccc2cc(F)ccc2n1

>  <score_type>  (24) 
oracle

>  <origin>  (24) 
autodockgpu

>  <m_score__min__energy>  (24) 
-9.5600000000000005

>  <m_primary>  (24) 
energy

>  <rmsd>  (24) 
3.610802288252275

>  <m_score__min__rmsd>  (24) 
3.610802288252275

>  <meeko>  (24) 
{"free_energy": -8.35, "intermolecular_energy": -10.44, "internal_energy": -2.08, "cluster_size": 2, "cluster_id": 5, "rank_in_cluster": 1}

>  <energy>  (24) 
-8.38

>  <cluster_rmsd>  (24) 
0.62

>  <cluster>  (24) 
3

$$$$

     RDKit          3D

 64 68  0  0  1  0  0  0  0  0999 V2000
  138.3860   74.7960  221.9740 O   0  0  0  0  0  0  0  0  0  0  0  0
  139.5440   75.2700  222.1010 C   0  0  0  0  0  0  0  0  0  0  0  0
  140.6850   74.4000  221.9650 N   0  0  0  0  0  0  0  0  0  0  0  0
  140.6280   73.0240  221.6850 C   0  0  0  0  0  0  0  0  0  0  0  0
  141.4290   72.4080  220.6530 C   0  0  0  0  0  0  0  0  0  0  0  0
  140.7910   71.5390  219.9280 O   0  0  0  0  0  0  0  0  0  0  0  0
  142.7870   72.5890  220.3050 N   0  0  0  0  0  0  0  0  0  0  0  0
  143.7790   71.5160  220.1880 C   0  0  0  0  0  0  0  0  0  0  0  0
  144.8080   72.0650  219.1880 C   0  0  2  0  0  0  0  0  0  0  0  0
  146.0160   72.2490  219.8360 O   0  0  0  0  0  0  0  0  0  0  0  0
  144.2760   73.4060  218.7680 C   0  0  0  0  0  0  0  0  0  0  0  0
  143.5060   73.8180  220.0150 C   0  0  1  0  0  0  0  0  0  0  0  0
  142.7430   75.0470  219.8390 C   0  0  2  0  0  0  0  0  0  0  0  0
  141.6140   75.0800  218.8790 C   0  0  0  0  0  0  0  0  0  0  0  0
  140.6990   76.2730  219.1800 C   0  0  0  0  0  0  0  0  0  0  0  0
  141.5860   77.3920  219.6950 C   0  0  2  0  0  0  0  0  0  0  0  0
  140.9370   78.7020  219.4380 C   0  0  0  0  0  0  0  0  0  0  0  0
  139.6160   78.8330  219.0630 C   0  0  0  0  0  0  0  0  0  0  0  0
  139.1050   80.1100  218.8460 C   0  0  0  0  0  0  0  0  0  0  0  0
  139.9440   81.2120  219.0170 C   0  0  0  0  0  0  0  0  0  0  0  0
  141.2280   81.0570  219.3830 N   0  0  0  0  0  0  0  0  0  0  0  0
  141.7460   79.8320  219.5980 C   0  0  0  0  0  0  0  0  0  0  0  0
  142.9160   77.4070  219.0260 C   0  0  0  0  0  0  0  0  0  0  0  0
  143.7020   76.1740  219.4120 C   0  0  0  0  0  0  0  0  0  0  0  0
  139.7540   76.6970  222.3870 C   0  0  0  0  0  0  0  0  0  0  0  0
  138.6530   77.5260  222.4100 C   0  0  0  0  0  0  0  0  0  0  0  0
  138.9010   78.8710  222.6850 C   0  0  0  0  0  0  0  0  0  0  0  0
  140.1800   79.3410  222.9210 C   0  0  0  0  0  0  0  0  0  0  0  0
  140.4590   80.6590  223.1950 C   0  0  0  0  0  0  0  0  0  0  0  0
  141.7630   81.0960  223.4280 C   0  0  0  0  0  0  0  0  0  0  0  0
  142.0550   82.3840  223.6990 F   0  0  0  0  0  0  0  0  0  0  0  0
  142.8080   80.1910  223.3860 C   0  0  0  0  0  0  0  0  0  0  0  0
  142.5530   78.8520  223.1100 C   0  0  0  0  0  0  0  0  0  0  0  0
  141.2480   78.4640  222.8860 C   0  0  0  0  0  0  0  0  0  0  0  0
  140.9890   77.1740  222.6200 N   0  0  0  0  0  0  0  0  0  0  0  0
  141.6280   74.8730  222.0940 H   0  0  0  0  0  0  0  0  0  0  0  0
  140.8896   72.5106  222.6220 H   0  0  0  0  0  0  0  0  0  0  0  0
  139.6127   72.9194  221.2748 H   0  0  0  0  0  0  0  0  0  0  0  0
  144.2502   71.3119  221.1608 H   0  0  0  0  0  0  0  0  0  0  0  0
  143.3355   70.5649  219.8583 H   0  0  0  0  0  0  0  0  0  0  0  0
  144.9607   71.3868  218.3355 H   0  0  0  0  0  0  0  0  0  0  0  0
  145.9650   71.8820  220.7530 H   0  0  0  0  0  0  0  0  0  0  0  0
  145.0900   74.1114  218.5447 H   0  0  0  0  0  0  0  0  0  0  0  0
  143.6722   73.3861  217.8488 H   0  0  0  0  0  0  0  0  0  0  0  0
  144.1052   74.1372  220.8805 H   0  0  0  0  0  0  0  0  0  0  0  0
  142.2707   75.1567  220.8264 H   0  0  0  0  0  0  0  0  0  0  0  0
  142.0088   75.1735  217.8566 H   0  0  0  0  0  0  0  0  0  0  0  0
  141.0345   74.1498  218.9736 H   0  0  0  0  0  0  0  0  0  0  0  0
  140.1809   76.5926  218.2638 H   0  0  0  0  0  0  0  0  0  0  0  0
  139.9340   76.0040  219.9233 H   0  0  0  0  0  0  0  0  0  0  0  0
  141.7296   77.2180  220.7716 H   0  0  0  0  0  0  0  0  0  0  0  0
  138.9783   77.9455  218.9378 H   0  0  0  0  0  0  0  0  0  0  0  0
  138.0562   80.2480  218.5444 H   0  0  0  0  0  0  0  0  0  0  0  0
  139.5479   82.2244  218.8495 H   0  0  0  0  0  0  0  0  0  0  0  0
  142.7986   79.7211  219.8975 H   0  0  0  0  0  0  0  0  0  0  0  0
  142.7751   77.4227  217.9352 H   0  0  0  0  0  0  0  0  0  0  0  0
  143.4700   78.3028  219.3431 H   0  0  0  0  0  0  0  0  0  0  0  0
  144.2977   75.8379  218.5505 H   0  0  0  0  0  0  0  0  0  0  0  0
  144.3664   76.4195  220.2536 H   0  0  0  0  0  0  0  0  0  0  0  0
  137.6370   77.1486  222.2223 H   0  0  0  0  0  0  0  0  0  0  0  0
  138.0572   79.5761  222.7149 H   0  0  0  0  0  0  0  0  0  0  0  0
  139.6344   81.3861  223.2314 H   0  0  0  0  0  0  0  0  0  0  0  0
  143.8383   80.5295  223.5704 H   0  0  0  0  0  0  0  0  0  0  0  0
  143.3726   78.1193  223.0712 H   0  0  0  0  0  0  0  0  0  0  0  0
  1  2  2  0
  2  3  1  0
  3  4  1  0
  4  5  1  0
  5  6  2  0
  5  7  1  0
  7  8  1  0
  8  9  1  0
  9 10  1  0
  9 11  1  0
 11 12  1  0
 12 13  1  0
 13 14  1  0
 14 15  1  0
 15 16  1  0
 16 17  1  0
 17 18  2  0
 18 19  1  0
 19 20  2  0
 20 21  1  0
 21 22  2  0
 16 23  1  0
 23 24  1  0
  2 25  1  0
 25 26  2  0
 26 27  1  0
 27 28  2  0
 28 29  1  0
 29 30  2  0
 30 31  1  0
 30 32  1  0
 32 33  2  0
 33 34  1  0
 34 35  2  0
 12  7  1  0
 24 13  1  0
 35 25  1  0
 22 17  1  0
 34 28  1  0
  3 36  1  0
  4 37  1  0
  4 38  1  0
  8 39  1  0
  8 40  1  0
  9 41  1  6
 10 42  1  0
 11 43  1  0
 11 44  1  0
 12 45  1  1
 13 46  1  1
 14 47  1  0
 14 48  1  0
 15 49  1  0
 15 50  1  0
 16 51  1  1
 18 52  1  0
 19 53  1  0
 20 54  1  0
 22 55  1  0
 23 56  1  0
 23 57  1  0
 24 58  1  0
 24 59  1  0
 26 60  1  0
 27 61  1  0
 29 62  1  0
 32 63  1  0
 33 64  1  0
M  END
>  <smiles>  (25) 
O=C(NCC(=O)N1C[C@H](O)C[C@H]1C1CCC(c2cccnc2)CC1)c1ccc2cc(F)ccc2n1

>  <score_type>  (25) 
oracle

>  <origin>  (25) 
autodockgpu

>  <m_score__min__energy>  (25) 
-9.5600000000000005

>  <m_primary>  (25) 
energy

>  <rmsd>  (25) 
7.758035023757265

>  <m_score__min__rmsd>  (25) 
7.758035023757265

>  <meeko>  (25) 
{"free_energy": -6.84, "intermolecular_energy": -8.93, "internal_energy": -4.14, "cluster_size": 14, "cluster_id": 8, "rank_in_cluster": 7}

>  <energy>  (25) 
-8.23

>  <cluster_rmsd>  (25) 
1.51

>  <cluster>  (25) 
3

$$$$

     RDKit          3D

 64 68  0  0  1  0  0  0  0  0999 V2000
  140.7610   71.6130  221.0590 O   0  0  0  0  0  0  0  0  0  0  0  0
  140.2940   72.0990  222.1200 C   0  0  0  0  0  0  0  0  0  0  0  0
  139.9190   73.4900  222.1580 N   0  0  0  0  0  0  0  0  0  0  0  0
  140.0200   74.3880  221.0820 C   0  0  0  0  0  0  0  0  0  0  0  0
  141.0180   75.4310  221.0310 C   0  0  0  0  0  0  0  0  0  0  0  0
  141.3570   75.9040  222.1920 O   0  0  0  0  0  0  0  0  0  0  0  0
  141.6800   76.0240  219.9320 N   0  0  0  0  0  0  0  0  0  0  0  0
  141.5860   77.4370  219.5500 C   0  0  0  0  0  0  0  0  0  0  0  0
  142.9080   77.7160  218.8200 C   0  0  2  0  0  0  0  0  0  0  0  0
  142.6410   77.9950  217.4920 O   0  0  0  0  0  0  0  0  0  0  0  0
  143.6830   76.4310  218.8980 C   0  0  0  0  0  0  0  0  0  0  0  0
  142.5540   75.4120  218.9460 C   0  0  1  0  0  0  0  0  0  0  0  0
  143.0190   74.0490  219.1760 C   0  0  2  0  0  0  0  0  0  0  0  0
  143.8070   73.7380  220.3920 C   0  0  0  0  0  0  0  0  0  0  0  0
  143.7930   72.2280  220.6580 C   0  0  0  0  0  0  0  0  0  0  0  0
  143.7580   71.5410  219.3050 C   0  0  2  0  0  0  0  0  0  0  0  0
  144.3380   70.1790  219.4210 C   0  0  0  0  0  0  0  0  0  0  0  0
  143.5770   69.0470  219.6260 C   0  0  0  0  0  0  0  0  0  0  0  0
  144.2210   67.8160  219.7200 C   0  0  0  0  0  0  0  0  0  0  0  0
  145.6100   67.7680  219.6020 C   0  0  0  0  0  0  0  0  0  0  0  0
  146.3290   68.8870  219.4030 N   0  0  0  0  0  0  0  0  0  0  0  0
  145.7290   70.0910  219.3080 C   0  0  0  0  0  0  0  0  0  0  0  0
  144.5440   72.2810  218.2790 C   0  0  0  0  0  0  0  0  0  0  0  0
  143.8830   73.6080  217.9800 C   0  0  0  0  0  0  0  0  0  0  0  0
  140.1230   71.2730  223.3240 C   0  0  0  0  0  0  0  0  0  0  0  0
  139.5440   70.0290  223.1850 C   0  0  0  0  0  0  0  0  0  0  0  0
  139.4030   69.2810  224.3530 C   0  0  0  0  0  0  0  0  0  0  0  0
  139.8210   69.7650  225.5800 C   0  0  0  0  0  0  0  0  0  0  0  0
  139.6960   69.0540  226.7500 C   0  0  0  0  0  0  0  0  0  0  0  0
  140.1300   69.5740  227.9700 C   0  0  0  0  0  0  0  0  0  0  0  0
  140.0160   68.8910  229.1270 F   0  0  0  0  0  0  0  0  0  0  0  0
  140.7010   70.8330  228.0150 C   0  0  0  0  0  0  0  0  0  0  0  0
  140.8370   71.5720  226.8450 C   0  0  0  0  0  0  0  0  0  0  0  0
  140.3950   71.0180  225.6610 C   0  0  0  0  0  0  0  0  0  0  0  0
  140.5220   71.7230  224.5250 N   0  0  0  0  0  0  0  0  0  0  0  0
  139.5400   73.8280  223.0910 H   0  0  0  0  0  0  0  0  0  0  0  0
  140.1761   73.7721  220.1841 H   0  0  0  0  0  0  0  0  0  0  0  0
  139.0922   74.9695  221.1866 H   0  0  0  0  0  0  0  0  0  0  0  0
  140.7282   77.6048  218.8822 H   0  0  0  0  0  0  0  0  0  0  0  0
  141.4333   78.0991  220.4151 H   0  0  0  0  0  0  0  0  0  0  0  0
  143.4542   78.5636  219.2595 H   0  0  0  0  0  0  0  0  0  0  0  0
  143.3370   78.5960  217.1290 H   0  0  0  0  0  0  0  0  0  0  0  0
  144.3183   76.2882  218.0114 H   0  0  0  0  0  0  0  0  0  0  0  0
  144.3811   76.3738  219.7461 H   0  0  0  0  0  0  0  0  0  0  0  0
  142.0165   75.2290  218.0039 H   0  0  0  0  0  0  0  0  0  0  0  0
  142.0696   73.5113  219.3157 H   0  0  0  0  0  0  0  0  0  0  0  0
  144.8450   74.0723  220.2481 H   0  0  0  0  0  0  0  0  0  0  0  0
  143.3615   74.2589  221.2523 H   0  0  0  0  0  0  0  0  0  0  0  0
  144.6983   71.9327  221.2086 H   0  0  0  0  0  0  0  0  0  0  0  0
  142.9214   71.9439  221.2659 H   0  0  0  0  0  0  0  0  0  0  0  0
  142.7044   71.5049  218.9909 H   0  0  0  0  0  0  0  0  0  0  0  0
  142.4826   69.1154  219.7135 H   0  0  0  0  0  0  0  0  0  0  0  0
  143.6428   66.8949  219.8849 H   0  0  0  0  0  0  0  0  0  0  0  0
  146.1258   66.7990  219.6729 H   0  0  0  0  0  0  0  0  0  0  0  0
  146.3297   70.9976  219.1428 H   0  0  0  0  0  0  0  0  0  0  0  0
  145.5617   72.4578  218.6572 H   0  0  0  0  0  0  0  0  0  0  0  0
  144.5878   71.6831  217.3567 H   0  0  0  0  0  0  0  0  0  0  0  0
  144.6574   74.3661  217.7912 H   0  0  0  0  0  0  0  0  0  0  0  0
  143.2419   73.4996  217.0927 H   0  0  0  0  0  0  0  0  0  0  0  0
  139.2122   69.6485  222.2077 H   0  0  0  0  0  0  0  0  0  0  0  0
  138.9481   68.2810  224.2977 H   0  0  0  0  0  0  0  0  0  0  0  0
  139.2433   68.0518  226.7238 H   0  0  0  0  0  0  0  0  0  0  0  0
  141.0464   71.2483  228.9732 H   0  0  0  0  0  0  0  0  0  0  0  0
  141.2868   72.5757  226.8629 H   0  0  0  0  0  0  0  0  0  0  0  0
  1  2  2  0
  2  3  1  0
  3  4  1  0
  4  5  1  0
  5  6  2  0
  5  7  1  0
  7  8  1  0
  8  9  1  0
  9 10  1  0
  9 11  1  0
 11 12  1  0
 12 13  1  0
 13 14  1  0
 14 15  1  0
 15 16  1  0
 16 17  1  0
 17 18  2  0
 18 19  1  0
 19 20  2  0
 20 21  1  0
 21 22  2  0
 16 23  1  0
 23 24  1  0
  2 25  1  0
 25 26  2  0
 26 27  1  0
 27 28  2  0
 28 29  1  0
 29 30  2  0
 30 31  1  0
 30 32  1  0
 32 33  2  0
 33 34  1  0
 34 35  2  0
 12  7  1  0
 24 13  1  0
 35 25  1  0
 22 17  1  0
 34 28  1  0
  3 36  1  0
  4 37  1  0
  4 38  1  0
  8 39  1  0
  8 40  1  0
  9 41  1  1
 10 42  1  0
 11 43  1  0
 11 44  1  0
 12 45  1  6
 13 46  1  1
 14 47  1  0
 14 48  1  0
 15 49  1  0
 15 50  1  0
 16 51  1  6
 18 52  1  0
 19 53  1  0
 20 54  1  0
 22 55  1  0
 23 56  1  0
 23 57  1  0
 24 58  1  0
 24 59  1  0
 26 60  1  0
 27 61  1  0
 29 62  1  0
 32 63  1  0
 33 64  1  0
M  END
>  <smiles>  (26) 
O=C(NCC(=O)N1C[C@H](O)C[C@H]1C1CCC(c2cccnc2)CC1)c1ccc2cc(F)ccc2n1

>  <score_type>  (26) 
oracle

>  <origin>  (26) 
autodockgpu

>  <m_score__min__energy>  (26) 
-9.5600000000000005

>  <m_primary>  (26) 
energy

>  <rmsd>  (26) 
2.314759306312164

>  <m_score__min__rmsd>  (26) 
2.314759306312164

>  <meeko>  (26) 
{"free_energy": -9.14, "intermolecular_energy": -11.23, "internal_energy": -2.34, "cluster_size": 11, "cluster_id": 3, "rank_in_cluster": 2}

>  <energy>  (26) 
-7.76

>  <cluster_rmsd>  (26) 
1.7

>  <cluster>  (26) 
3

$$$$

     RDKit          3D

 64 68  0  0  1  0  0  0  0  0999 V2000
  140.4440   71.6000  220.9810 O   0  0  0  0  0  0  0  0  0  0  0  0
  140.1190   72.0460  222.1110 C   0  0  0  0  0  0  0  0  0  0  0  0
  139.8040   73.4450  222.2570 N   0  0  0  0  0  0  0  0  0  0  0  0
  139.8160   74.3930  221.2180 C   0  0  0  0  0  0  0  0  0  0  0  0
  140.7660   75.4780  221.1690 C   0  0  0  0  0  0  0  0  0  0  0  0
  141.1100   75.9410  222.3330 O   0  0  0  0  0  0  0  0  0  0  0  0
  141.3770   76.1220  220.0690 N   0  0  0  0  0  0  0  0  0  0  0  0
  141.2380   77.5440  219.7370 C   0  0  0  0  0  0  0  0  0  0  0  0
  142.5280   77.8780  218.9740 C   0  0  2  0  0  0  0  0  0  0  0  0
  142.2110   78.1930  217.6650 O   0  0  0  0  0  0  0  0  0  0  0  0
  143.3350   76.6100  218.9840 C   0  0  0  0  0  0  0  0  0  0  0  0
  142.2310   75.5630  219.0350 C   0  0  1  0  0  0  0  0  0  0  0  0
  142.7350   74.2050  219.2050 C   0  0  2  0  0  0  0  0  0  0  0  0
  144.1540   73.9890  219.5780 C   0  0  0  0  0  0  0  0  0  0  0  0
  144.3430   72.5730  220.1360 C   0  0  0  0  0  0  0  0  0  0  0  0
  143.3720   71.6730  219.3950 C   0  0  2  0  0  0  0  0  0  0  0  0
  143.8770   70.2770  219.4070 C   0  0  0  0  0  0  0  0  0  0  0  0
  143.0500   69.1730  219.4580 C   0  0  0  0  0  0  0  0  0  0  0  0
  143.6260   67.9050  219.4650 C   0  0  0  0  0  0  0  0  0  0  0  0
  145.0160   67.7940  219.4190 C   0  0  0  0  0  0  0  0  0  0  0  0
  145.7990   68.8850  219.3690 N   0  0  0  0  0  0  0  0  0  0  0  0
  145.2660   70.1230  219.3620 C   0  0  0  0  0  0  0  0  0  0  0  0
  143.2030   72.0790  217.9720 C   0  0  0  0  0  0  0  0  0  0  0  0
  142.5120   73.4230  217.8980 C   0  0  0  0  0  0  0  0  0  0  0  0
  140.0550   71.1660  223.2860 C   0  0  0  0  0  0  0  0  0  0  0  0
  139.5690   69.8870  223.1180 C   0  0  0  0  0  0  0  0  0  0  0  0
  139.5270   69.0890  224.2600 C   0  0  0  0  0  0  0  0  0  0  0  0
  139.9500   69.5580  225.4910 C   0  0  0  0  0  0  0  0  0  0  0  0
  139.9220   68.7980  226.6360 C   0  0  0  0  0  0  0  0  0  0  0  0
  140.3580   69.3050  227.8600 C   0  0  0  0  0  0  0  0  0  0  0  0
  140.3380   68.5750  228.9930 F   0  0  0  0  0  0  0  0  0  0  0  0
  140.8320   70.6030  227.9350 C   0  0  0  0  0  0  0  0  0  0  0  0
  140.8700   71.3920  226.7920 C   0  0  0  0  0  0  0  0  0  0  0  0
  140.4290   70.8490  225.6020 C   0  0  0  0  0  0  0  0  0  0  0  0
  140.4610   71.6020  224.4910 N   0  0  0  0  0  0  0  0  0  0  0  0
  139.5460   73.7470  223.2420 H   0  0  0  0  0  0  0  0  0  0  0  0
  139.9541   73.8239  220.2869 H   0  0  0  0  0  0  0  0  0  0  0  0
  138.8709   74.9286  221.3908 H   0  0  0  0  0  0  0  0  0  0  0  0
  140.3547   77.7126  219.1034 H   0  0  0  0  0  0  0  0  0  0  0  0
  141.0992   78.1740  220.6279 H   0  0  0  0  0  0  0  0  0  0  0  0
  143.0685   78.7241  219.4235 H   0  0  0  0  0  0  0  0  0  0  0  0
  141.2830   77.9170  217.4680 H   0  0  0  0  0  0  0  0  0  0  0  0
  143.9435   76.5113  218.0729 H   0  0  0  0  0  0  0  0  0  0  0  0
  144.0625   76.5421  219.8063 H   0  0  0  0  0  0  0  0  0  0  0  0
  141.6662   75.3977  218.1057 H   0  0  0  0  0  0  0  0  0  0  0  0
  142.1630   73.8647  220.0808 H   0  0  0  0  0  0  0  0  0  0  0  0
  144.7876   74.1168  218.6879 H   0  0  0  0  0  0  0  0  0  0  0  0
  144.4389   74.7205  220.3486 H   0  0  0  0  0  0  0  0  0  0  0  0
  145.3760   72.2348  219.9672 H   0  0  0  0  0  0  0  0  0  0  0  0
  144.1535   72.5486  221.2193 H   0  0  0  0  0  0  0  0  0  0  0  0
  142.4027   71.7564  219.9083 H   0  0  0  0  0  0  0  0  0  0  0  0
  141.9570   69.2924  219.4924 H   0  0  0  0  0  0  0  0  0  0  0  0
  142.9949   67.0050  219.5061 H   0  0  0  0  0  0  0  0  0  0  0  0
  145.4790   66.7962  219.4238 H   0  0  0  0  0  0  0  0  0  0  0  0
  145.9197   71.0067  219.3211 H   0  0  0  0  0  0  0  0  0  0  0  0
  144.1908   72.1500  217.4933 H   0  0  0  0  0  0  0  0  0  0  0  0
  142.5905   71.3280  217.4516 H   0  0  0  0  0  0  0  0  0  0  0  0
  142.9236   73.9978  217.0553 H   0  0  0  0  0  0  0  0  0  0  0  0
  141.4331   73.2656  217.7522 H   0  0  0  0  0  0  0  0  0  0  0  0
  139.2333   69.5171  222.1380 H   0  0  0  0  0  0  0  0  0  0  0  0
  139.1477   68.0595  224.1805 H   0  0  0  0  0  0  0  0  0  0  0  0
  139.5467   67.7652  226.5858 H   0  0  0  0  0  0  0  0  0  0  0  0
  141.1778   71.0090  228.8971 H   0  0  0  0  0  0  0  0  0  0  0  0
  141.2430   72.4259  226.8344 H   0  0  0  0  0  0  0  0  0  0  0  0
  1  2  2  0
  2  3  1  0
  3  4  1  0
  4  5  1  0
  5  6  2  0
  5  7  1  0
  7  8  1  0
  8  9  1  0
  9 10  1  0
  9 11  1  0
 11 12  1  0
 12 13  1  0
 13 14  1  0
 14 15  1  0
 15 16  1  0
 16 17  1  0
 17 18  2  0
 18 19  1  0
 19 20  2  0
 20 21  1  0
 21 22  2  0
 16 23  1  0
 23 24  1  0
  2 25  1  0
 25 26  2  0
 26 27  1  0
 27 28  2  0
 28 29  1  0
 29 30  2  0
 30 31  1  0
 30 32  1  0
 32 33  2  0
 33 34  1  0
 34 35  2  0
 12  7  1  0
 24 13  1  0
 35 25  1  0
 22 17  1  0
 34 28  1  0
  3 36  1  0
  4 37  1  0
  4 38  1  0
  8 39  1  0
  8 40  1  0
  9 41  1  1
 10 42  1  0
 11 43  1  0
 11 44  1  0
 12 45  1  6
 13 46  1  1
 14 47  1  0
 14 48  1  0
 15 49  1  0
 15 50  1  0
 16 51  1  1
 18 52  1  0
 19 53  1  0
 20 54  1  0
 22 55  1  0
 23 56  1  0
 23 57  1  0
 24 58  1  0
 24 59  1  0
 26 60  1  0
 27 61  1  0
 29 62  1  0
 32 63  1  0
 33 64  1  0
M  END
>  <smiles>  (27) 
O=C(NCC(=O)N1C[C@H](O)C[C@H]1C1CCC(c2cccnc2)CC1)c1ccc2cc(F)ccc2n1

>  <score_type>  (27) 
oracle

>  <origin>  (27) 
autodockgpu

>  <m_score__min__energy>  (27) 
-9.5600000000000005

>  <m_primary>  (27) 
energy

>  <rmsd>  (27) 
2.1690476025845973

>  <m_score__min__rmsd>  (27) 
2.1690476025845973

>  <meeko>  (27) 
{"free_energy": -8.38, "intermolecular_energy": -10.47, "internal_energy": -2.42, "cluster_size": 11, "cluster_id": 3, "rank_in_cluster": 9}

>  <energy>  (27) 
-8.63

>  <cluster_rmsd>  (27) 
0.0

>  <cluster>  (27) 
4

$$$$

     RDKit          3D

 64 68  0  0  1  0  0  0  0  0999 V2000
  140.2870   73.4270  222.4500 O   0  0  0  0  0  0  0  0  0  0  0  0
  140.2470   74.3020  221.5470 C   0  0  0  0  0  0  0  0  0  0  0  0
  140.4120   73.9090  220.1710 N   0  0  0  0  0  0  0  0  0  0  0  0
  140.6130   72.5920  219.7210 C   0  0  0  0  0  0  0  0  0  0  0  0
  141.7340   71.7890  220.1460 C   0  0  0  0  0  0  0  0  0  0  0  0
  141.4270   70.8360  220.9740 O   0  0  0  0  0  0  0  0  0  0  0  0
  143.1070   71.8700  219.8160 N   0  0  0  0  0  0  0  0  0  0  0  0
  144.0330   70.7340  219.7700 C   0  0  0  0  0  0  0  0  0  0  0  0
  145.1100   71.1710  218.7660 C   0  0  2  0  0  0  0  0  0  0  0  0
  146.3160   71.3120  219.4280 O   0  0  0  0  0  0  0  0  0  0  0  0
  144.6690   72.5190  218.2720 C   0  0  0  0  0  0  0  0  0  0  0  0
  143.9050   73.0370  219.4830 C   0  0  1  0  0  0  0  0  0  0  0  0
  143.2220   74.3010  219.2340 C   0  0  2  0  0  0  0  0  0  0  0  0
  143.1410   74.8320  217.8520 C   0  0  0  0  0  0  0  0  0  0  0  0
  142.0290   75.8840  217.7550 C   0  0  0  0  0  0  0  0  0  0  0  0
  141.9840   76.6030  219.0910 C   0  0  2  0  0  0  0  0  0  0  0  0
  141.4150   77.9620  218.9070 C   0  0  0  0  0  0  0  0  0  0  0  0
  142.1910   79.0910  218.7410 C   0  0  0  0  0  0  0  0  0  0  0  0
  141.5570   80.3200  218.5770 C   0  0  0  0  0  0  0  0  0  0  0  0
  140.1620   80.3680  218.5840 C   0  0  0  0  0  0  0  0  0  0  0  0
  139.4300   79.2530  218.7480 N   0  0  0  0  0  0  0  0  0  0  0  0
  140.0200   78.0520  218.9090 C   0  0  0  0  0  0  0  0  0  0  0  0
  143.3370   76.7570  219.6920 C   0  0  0  0  0  0  0  0  0  0  0  0
  143.8880   75.4030  220.0790 C   0  0  0  0  0  0  0  0  0  0  0  0
  140.0340   75.7200  221.8720 C   0  0  0  0  0  0  0  0  0  0  0  0
  138.7430   76.1530  222.0890 C   0  0  0  0  0  0  0  0  0  0  0  0
  138.5900   77.5050  222.3940 C   0  0  0  0  0  0  0  0  0  0  0  0
  139.6750   78.3600  222.4720 C   0  0  0  0  0  0  0  0  0  0  0  0
  139.5590   79.6970  222.7710 C   0  0  0  0  0  0  0  0  0  0  0  0
  140.6770   80.5280  222.8420 C   0  0  0  0  0  0  0  0  0  0  0  0
  140.5820   81.8420  223.1330 F   0  0  0  0  0  0  0  0  0  0  0  0
  141.9370   80.0060  222.6090 C   0  0  0  0  0  0  0  0  0  0  0  0
  142.0800   78.6570  222.3060 C   0  0  0  0  0  0  0  0  0  0  0  0
  140.9470   77.8720  222.2460 C   0  0  0  0  0  0  0  0  0  0  0  0
  141.0740   76.5670  221.9540 N   0  0  0  0  0  0  0  0  0  0  0  0
  140.3740   74.7050  219.4680 H   0  0  0  0  0  0  0  0  0  0  0  0
  139.7105   72.0311  220.0054 H   0  0  0  0  0  0  0  0  0  0  0  0
  140.8404   72.7503  218.6565 H   0  0  0  0  0  0  0  0  0  0  0  0
  144.4742   70.5492  220.7606 H   0  0  0  0  0  0  0  0  0  0  0  0
  143.5377   69.7964  219.4774 H   0  0  0  0  0  0  0  0  0  0  0  0
  145.2348   70.4445  217.9496 H   0  0  0  0  0  0  0  0  0  0  0  0
  146.1820   71.1960  220.4010 H   0  0  0  0  0  0  0  0  0  0  0  0
  145.5285   73.1620  218.0313 H   0  0  0  0  0  0  0  0  0  0  0  0
  144.0808   72.4911  217.3429 H   0  0  0  0  0  0  0  0  0  0  0  0
  144.5081   73.3605  220.3441 H   0  0  0  0  0  0  0  0  0  0  0  0
  142.1839   74.0473  219.4949 H   0  0  0  0  0  0  0  0  0  0  0  0
  144.1026   75.2934  217.5827 H   0  0  0  0  0  0  0  0  0  0  0  0
  142.9156   74.0057  217.1618 H   0  0  0  0  0  0  0  0  0  0  0  0
  142.2530   76.5979  216.9487 H   0  0  0  0  0  0  0  0  0  0  0  0
  141.0608   75.4136  217.5284 H   0  0  0  0  0  0  0  0  0  0  0  0
  141.3624   75.9930  219.7629 H   0  0  0  0  0  0  0  0  0  0  0  0
  143.2888   79.0215  218.7383 H   0  0  0  0  0  0  0  0  0  0  0  0
  142.1466   81.2390  218.4439 H   0  0  0  0  0  0  0  0  0  0  0  0
  139.6534   81.3345  218.4531 H   0  0  0  0  0  0  0  0  0  0  0  0
  139.4075   77.1479  219.0412 H   0  0  0  0  0  0  0  0  0  0  0  0
  144.0093   77.2282  218.9599 H   0  0  0  0  0  0  0  0  0  0  0  0
  143.2634   77.3872  220.5906 H   0  0  0  0  0  0  0  0  0  0  0  0
  144.9741   75.3887  219.9052 H   0  0  0  0  0  0  0  0  0  0  0  0
  143.6774   75.2186  221.1428 H   0  0  0  0  0  0  0  0  0  0  0  0
  137.8826   75.4706  222.0251 H   0  0  0  0  0  0  0  0  0  0  0  0
  137.5807   77.9020  222.5773 H   0  0  0  0  0  0  0  0  0  0  0  0
  138.5615   80.1211  222.9585 H   0  0  0  0  0  0  0  0  0  0  0  0
  142.8225   80.6563  222.6633 H   0  0  0  0  0  0  0  0  0  0  0  0
  143.0741   78.2250  222.1183 H   0  0  0  0  0  0  0  0  0  0  0  0
  1  2  2  0
  2  3  1  0
  3  4  1  0
  4  5  1  0
  5  6  2  0
  5  7  1  0
  7  8  1  0
  8  9  1  0
  9 10  1  0
  9 11  1  0
 11 12  1  0
 12 13  1  0
 13 14  1  0
 14 15  1  0
 15 16  1  0
 16 17  1  0
 17 18  2  0
 18 19  1  0
 19 20  2  0
 20 21  1  0
 21 22  2  0
 16 23  1  0
 23 24  1  0
  2 25  1  0
 25 26  2  0
 26 27  1  0
 27 28  2  0
 28 29  1  0
 29 30  2  0
 30 31  1  0
 30 32  1  0
 32 33  2  0
 33 34  1  0
 34 35  2  0
 12  7  1  0
 24 13  1  0
 35 25  1  0
 22 17  1  0
 34 28  1  0
  3 36  1  0
  4 37  1  0
  4 38  1  0
  8 39  1  0
  8 40  1  0
  9 41  1  6
 10 42  1  0
 11 43  1  0
 11 44  1  0
 12 45  1  1
 13 46  1  1
 14 47  1  0
 14 48  1  0
 15 49  1  0
 15 50  1  0
 16 51  1  1
 18 52  1  0
 19 53  1  0
 20 54  1  0
 22 55  1  0
 23 56  1  0
 23 57  1  0
 24 58  1  0
 24 59  1  0
 26 60  1  0
 27 61  1  0
 29 62  1  0
 32 63  1  0
 33 64  1  0
M  END
>  <smiles>  (28) 
O=C(NCC(=O)N1C[C@H](O)C[C@H]1C1CCC(c2cccnc2)CC1)c1ccc2cc(F)ccc2n1

>  <score_type>  (28) 
oracle

>  <origin>  (28) 
autodockgpu

>  <m_score__min__energy>  (28) 
-9.5600000000000005

>  <m_primary>  (28) 
energy

>  <rmsd>  (28) 
7.60920512576328

>  <m_score__min__rmsd>  (28) 
7.60920512576328

>  <meeko>  (28) 
{"free_energy": -6.6, "intermolecular_energy": -8.69, "internal_energy": -3.83, "cluster_size": 14, "cluster_id": 8, "rank_in_cluster": 11}

>  <energy>  (28) 
-8.35

>  <cluster_rmsd>  (28) 
0.0

>  <cluster>  (28) 
5

$$$$

     RDKit          3D

 64 68  0  0  1  0  0  0  0  0999 V2000
  141.4530   72.5870  221.6340 O   0  0  0  0  0  0  0  0  0  0  0  0
  140.4700   72.6670  222.4140 C   0  0  0  0  0  0  0  0  0  0  0  0
  139.5500   73.7690  222.2850 N   0  0  0  0  0  0  0  0  0  0  0  0
  139.6430   74.7970  221.3310 C   0  0  0  0  0  0  0  0  0  0  0  0
  140.5270   75.9260  221.4910 C   0  0  0  0  0  0  0  0  0  0  0  0
  140.6970   76.3030  222.7230 O   0  0  0  0  0  0  0  0  0  0  0  0
  141.2330   76.6910  220.5340 N   0  0  0  0  0  0  0  0  0  0  0  0
  142.0670   76.1420  219.4610 C   0  0  0  0  0  0  0  0  0  0  0  0
  142.0290   77.2200  218.3680 C   0  0  2  0  0  0  0  0  0  0  0  0
  143.2950   77.7550  218.2150 O   0  0  0  0  0  0  0  0  0  0  0  0
  141.1130   78.2880  218.8960 C   0  0  0  0  0  0  0  0  0  0  0  0
  141.3220   78.1350  220.3960 C   0  0  1  0  0  0  0  0  0  0  0  0
  140.4260   78.9680  221.1880 C   0  0  2  0  0  0  0  0  0  0  0  0
  140.0890   80.3340  220.7210 C   0  0  0  0  0  0  0  0  0  0  0  0
  138.8240   80.8370  221.4290 C   0  0  0  0  0  0  0  0  0  0  0  0
  138.8380   80.2500  222.8280 C   0  0  2  0  0  0  0  0  0  0  0  0
  138.0470   81.1150  223.7400 C   0  0  0  0  0  0  0  0  0  0  0  0
  137.9270   80.8770  225.0940 C   0  0  0  0  0  0  0  0  0  0  0  0
  137.1610   81.7500  225.8620 C   0  0  0  0  0  0  0  0  0  0  0  0
  136.5420   82.8340  225.2380 C   0  0  0  0  0  0  0  0  0  0  0  0
  136.6750   83.0430  223.9160 N   0  0  0  0  0  0  0  0  0  0  0  0
  137.4110   82.2120  223.1520 C   0  0  0  0  0  0  0  0  0  0  0  0
  140.2160   80.1510  223.3830 C   0  0  0  0  0  0  0  0  0  0  0  0
  141.0150   79.1310  222.6020 C   0  0  0  0  0  0  0  0  0  0  0  0
  140.2420   71.6550  223.4560 C   0  0  0  0  0  0  0  0  0  0  0  0
  139.5710   70.5020  223.1090 C   0  0  0  0  0  0  0  0  0  0  0  0
  139.3780   69.5710  224.1300 C   0  0  0  0  0  0  0  0  0  0  0  0
  139.8360   69.7970  225.4150 C   0  0  0  0  0  0  0  0  0  0  0  0
  139.6630   68.9010  226.4440 C   0  0  0  0  0  0  0  0  0  0  0  0
  140.1400   69.1630  227.7280 C   0  0  0  0  0  0  0  0  0  0  0  0
  139.9790   68.2970  228.7490 F   0  0  0  0  0  0  0  0  0  0  0  0
  140.8040   70.3500  227.9850 C   0  0  0  0  0  0  0  0  0  0  0  0
  140.9910   71.2720  226.9620 C   0  0  0  0  0  0  0  0  0  0  0  0
  140.5040   70.9710  225.7070 C   0  0  0  0  0  0  0  0  0  0  0  0
  140.6790   71.8540  224.7110 N   0  0  0  0  0  0  0  0  0  0  0  0
  138.7500   73.7700  222.9840 H   0  0  0  0  0  0  0  0  0  0  0  0
  139.9342   74.3125  220.3874 H   0  0  0  0  0  0  0  0  0  0  0  0
  138.6541   75.2716  221.4141 H   0  0  0  0  0  0  0  0  0  0  0  0
  143.0965   75.9778  219.8119 H   0  0  0  0  0  0  0  0  0  0  0  0
  141.7068   75.1659  219.1039 H   0  0  0  0  0  0  0  0  0  0  0  0
  141.6931   76.8183  217.4006 H   0  0  0  0  0  0  0  0  0  0  0  0
  143.6980   77.9240  219.1020 H   0  0  0  0  0  0  0  0  0  0  0  0
  141.4132   79.2868  218.5462 H   0  0  0  0  0  0  0  0  0  0  0  0
  140.0666   78.1887  218.5717 H   0  0  0  0  0  0  0  0  0  0  0  0
  142.2729   78.5109  220.8017 H   0  0  0  0  0  0  0  0  0  0  0  0
  139.4815   78.4089  221.1151 H   0  0  0  0  0  0  0  0  0  0  0  0
  140.9256   81.0119  220.9458 H   0  0  0  0  0  0  0  0  0  0  0  0
  139.9083   80.3089  219.6362 H   0  0  0  0  0  0  0  0  0  0  0  0
  138.8307   81.9358  221.4799 H   0  0  0  0  0  0  0  0  0  0  0  0
  137.9195   80.5309  220.8830 H   0  0  0  0  0  0  0  0  0  0  0  0
  138.4087   79.2398  222.7555 H   0  0  0  0  0  0  0  0  0  0  0  0
  138.4270   80.0139  225.5578 H   0  0  0  0  0  0  0  0  0  0  0  0
  137.0455   81.5878  226.9438 H   0  0  0  0  0  0  0  0  0  0  0  0
  135.9354   83.5289  225.8372 H   0  0  0  0  0  0  0  0  0  0  0  0
  137.5107   82.3959  222.0721 H   0  0  0  0  0  0  0  0  0  0  0  0
  140.7088   81.1319  223.3122 H   0  0  0  0  0  0  0  0  0  0  0  0
  140.1601   79.8374  224.4359 H   0  0  0  0  0  0  0  0  0  0  0  0
  142.0591   79.4684  222.5246 H   0  0  0  0  0  0  0  0  0  0  0  0
  140.9722   78.1636  223.1238 H   0  0  0  0  0  0  0  0  0  0  0  0
  139.2084   70.3260  222.0855 H   0  0  0  0  0  0  0  0  0  0  0  0
  138.8480   68.6332  223.9071 H   0  0  0  0  0  0  0  0  0  0  0  0
  139.1359   67.9553  226.2496 H   0  0  0  0  0  0  0  0  0  0  0  0
  141.1825   70.5629  228.9957 H   0  0  0  0  0  0  0  0  0  0  0  0
  141.5156   72.2206  227.1489 H   0  0  0  0  0  0  0  0  0  0  0  0
  1  2  2  0
  2  3  1  0
  3  4  1  0
  4  5  1  0
  5  6  2  0
  5  7  1  0
  7  8  1  0
  8  9  1  0
  9 10  1  0
  9 11  1  0
 11 12  1  0
 12 13  1  0
 13 14  1  0
 14 15  1  0
 15 16  1  0
 16 17  1  0
 17 18  2  0
 18 19  1  0
 19 20  2  0
 20 21  1  0
 21 22  2  0
 16 23  1  0
 23 24  1  0
  2 25  1  0
 25 26  2  0
 26 27  1  0
 27 28  2  0
 28 29  1  0
 29 30  2  0
 30 31  1  0
 30 32  1  0
 32 33  2  0
 33 34  1  0
 34 35  2  0
 12  7  1  0
 24 13  1  0
 35 25  1  0
 22 17  1  0
 34 28  1  0
  3 36  1  0
  4 37  1  0
  4 38  1  0
  8 39  1  0
  8 40  1  0
  9 41  1  6
 10 42  1  0
 11 43  1  0
 11 44  1  0
 12 45  1  6
 13 46  1  1
 14 47  1  0
 14 48  1  0
 15 49  1  0
 15 50  1  0
 16 51  1  6
 18 52  1  0
 19 53  1  0
 20 54  1  0
 22 55  1  0
 23 56  1  0
 23 57  1  0
 24 58  1  0
 24 59  1  0
 26 60  1  0
 27 61  1  0
 29 62  1  0
 32 63  1  0
 33 64  1  0
M  END
>  <smiles>  (29) 
O=C(NCC(=O)N1C[C@H](O)C[C@H]1C1CCC(c2cccnc2)CC1)c1ccc2cc(F)ccc2n1

>  <score_type>  (29) 
oracle

>  <origin>  (29) 
autodockgpu

>  <m_score__min__energy>  (29) 
-9.5600000000000005

>  <m_primary>  (29) 
energy

>  <rmsd>  (29) 
1.8066786717013847

>  <m_score__min__rmsd>  (29) 
1.8066786717013847

>  <meeko>  (29) 
{"free_energy": -9.24, "intermolecular_energy": -11.33, "internal_energy": -1.56, "cluster_size": 14, "cluster_id": 1, "rank_in_cluster": 9}

>  <energy>  (29) 
-8.32

>  <cluster_rmsd>  (29) 
0.49

>  <cluster>  (29) 
5

$$$$

     RDKit          3D

 64 68  0  0  1  0  0  0  0  0999 V2000
  141.4050   72.1730  221.5930 O   0  0  0  0  0  0  0  0  0  0  0  0
  140.4760   72.3740  222.4160 C   0  0  0  0  0  0  0  0  0  0  0  0
  139.6220   73.5240  222.2560 N   0  0  0  0  0  0  0  0  0  0  0  0
  139.7250   74.4740  221.2240 C   0  0  0  0  0  0  0  0  0  0  0  0
  140.7880   75.4490  221.1700 C   0  0  0  0  0  0  0  0  0  0  0  0
  141.2790   75.7710  222.3290 O   0  0  0  0  0  0  0  0  0  0  0  0
  141.3780   76.1130  220.0700 N   0  0  0  0  0  0  0  0  0  0  0  0
  141.1490   77.5160  219.7080 C   0  0  0  0  0  0  0  0  0  0  0  0
  142.4300   77.9240  218.9650 C   0  0  2  0  0  0  0  0  0  0  0  0
  142.1200   78.1930  217.6440 O   0  0  0  0  0  0  0  0  0  0  0  0
  143.3200   76.7150  219.0160 C   0  0  0  0  0  0  0  0  0  0  0  0
  142.2900   75.5950  219.0650 C   0  0  1  0  0  0  0  0  0  0  0  0
  142.8810   74.2790  219.2710 C   0  0  2  0  0  0  0  0  0  0  0  0
  144.0870   74.1400  220.1220 C   0  0  0  0  0  0  0  0  0  0  0  0
  144.2570   72.6810  220.5630 C   0  0  0  0  0  0  0  0  0  0  0  0
  143.7500   71.8140  219.4260 C   0  0  2  0  0  0  0  0  0  0  0  0
  144.4040   70.4820  219.4830 C   0  0  0  0  0  0  0  0  0  0  0  0
  143.7130   69.3090  219.7090 C   0  0  0  0  0  0  0  0  0  0  0  0
  144.4230   68.1110  219.7440 C   0  0  0  0  0  0  0  0  0  0  0  0
  145.8040   68.1370  219.5480 C   0  0  0  0  0  0  0  0  0  0  0  0
  146.4530   69.2950  219.3300 N   0  0  0  0  0  0  0  0  0  0  0  0
  145.7890   70.4670  219.2920 C   0  0  0  0  0  0  0  0  0  0  0  0
  144.0470   72.4060  218.0920 C   0  0  0  0  0  0  0  0  0  0  0  0
  143.2500   73.6770  217.9030 C   0  0  0  0  0  0  0  0  0  0  0  0
  140.2450   71.4560  223.5410 C   0  0  0  0  0  0  0  0  0  0  0  0
  139.5650   70.2820  223.2960 C   0  0  0  0  0  0  0  0  0  0  0  0
  139.3690   69.4430  224.3930 C   0  0  0  0  0  0  0  0  0  0  0  0
  139.8340   69.7750  225.6530 C   0  0  0  0  0  0  0  0  0  0  0  0
  139.6590   68.9710  226.7550 C   0  0  0  0  0  0  0  0  0  0  0  0
  140.1420   69.3380  228.0110 C   0  0  0  0  0  0  0  0  0  0  0  0
  139.9790   68.5630  229.1020 F   0  0  0  0  0  0  0  0  0  0  0  0
  140.8150   70.5370  228.1630 C   0  0  0  0  0  0  0  0  0  0  0  0
  141.0050   71.3680  227.0650 C   0  0  0  0  0  0  0  0  0  0  0  0
  140.5100   70.9640  225.8410 C   0  0  0  0  0  0  0  0  0  0  0  0
  140.6880   71.7580  224.7730 N   0  0  0  0  0  0  0  0  0  0  0  0
  138.8670   73.6300  222.9940 H   0  0  0  0  0  0  0  0  0  0  0  0
  139.7880   73.9013  220.2870 H   0  0  0  0  0  0  0  0  0  0  0  0
  138.8467   75.1086  221.4136 H   0  0  0  0  0  0  0  0  0  0  0  0
  140.2702   77.6121  219.0534 H   0  0  0  0  0  0  0  0  0  0  0  0
  140.9478   78.1509  220.5835 H   0  0  0  0  0  0  0  0  0  0  0  0
  142.9024   78.8128  219.4087 H   0  0  0  0  0  0  0  0  0  0  0  0
  141.1650   78.0010  217.4760 H   0  0  0  0  0  0  0  0  0  0  0  0
  143.9533   76.6419  218.1196 H   0  0  0  0  0  0  0  0  0  0  0  0
  144.0319   76.7121  219.8546 H   0  0  0  0  0  0  0  0  0  0  0  0
  141.7584   75.3736  218.1278 H   0  0  0  0  0  0  0  0  0  0  0  0
  142.0857   73.7653  219.8310 H   0  0  0  0  0  0  0  0  0  0  0  0
  144.9733   74.4527  219.5505 H   0  0  0  0  0  0  0  0  0  0  0  0
  143.9729   74.7741  221.0136 H   0  0  0  0  0  0  0  0  0  0  0  0
  145.3180   72.4662  220.7582 H   0  0  0  0  0  0  0  0  0  0  0  0
  143.6974   72.4822  221.4889 H   0  0  0  0  0  0  0  0  0  0  0  0
  142.6596   71.7334  219.5467 H   0  0  0  0  0  0  0  0  0  0  0  0
  142.6233   69.3198  219.8585 H   0  0  0  0  0  0  0  0  0  0  0  0
  143.9025   67.1587  219.9235 H   0  0  0  0  0  0  0  0  0  0  0  0
  146.3716   67.1951  219.5721 H   0  0  0  0  0  0  0  0  0  0  0  0
  146.3331   71.4059  219.1119 H   0  0  0  0  0  0  0  0  0  0  0  0
  145.1207   72.6358  218.0260 H   0  0  0  0  0  0  0  0  0  0  0  0
  143.7714   71.6861  217.3073 H   0  0  0  0  0  0  0  0  0  0  0  0
  143.8519   74.4029  217.3366 H   0  0  0  0  0  0  0  0  0  0  0  0
  142.3271   73.4443  217.3515 H   0  0  0  0  0  0  0  0  0  0  0  0
  139.1978   70.0217  222.2923 H   0  0  0  0  0  0  0  0  0  0  0  0
  138.8313   68.4937  224.2528 H   0  0  0  0  0  0  0  0  0  0  0  0
  139.1253   68.0156  226.6432 H   0  0  0  0  0  0  0  0  0  0  0  0
  141.1990   70.8322  229.1506 H   0  0  0  0  0  0  0  0  0  0  0  0
  141.5373   72.3250  227.1688 H   0  0  0  0  0  0  0  0  0  0  0  0
  1  2  2  0
  2  3  1  0
  3  4  1  0
  4  5  1  0
  5  6  2  0
  5  7  1  0
  7  8  1  0
  8  9  1  0
  9 10  1  0
  9 11  1  0
 11 12  1  0
 12 13  1  0
 13 14  1  0
 14 15  1  0
 15 16  1  0
 16 17  1  0
 17 18  2  0
 18 19  1  0
 19 20  2  0
 20 21  1  0
 21 22  2  0
 16 23  1  0
 23 24  1  0
  2 25  1  0
 25 26  2  0
 26 27  1  0
 27 28  2  0
 28 29  1  0
 29 30  2  0
 30 31  1  0
 30 32  1  0
 32 33  2  0
 33 34  1  0
 34 35  2  0
 12  7  1  0
 24 13  1  0
 35 25  1  0
 22 17  1  0
 34 28  1  0
  3 36  1  0
  4 37  1  0
  4 38  1  0
  8 39  1  0
  8 40  1  0
  9 41  1  1
 10 42  1  0
 11 43  1  0
 11 44  1  0
 12 45  1  6
 13 46  1  1
 14 47  1  0
 14 48  1  0
 15 49  1  0
 15 50  1  0
 16 51  1  1
 18 52  1  0
 19 53  1  0
 20 54  1  0
 22 55  1  0
 23 56  1  0
 23 57  1  0
 24 58  1  0
 24 59  1  0
 26 60  1  0
 27 61  1  0
 29 62  1  0
 32 63  1  0
 33 64  1  0
M  END
>  <smiles>  (30) 
O=C(NCC(=O)N1C[C@H](O)C[C@H]1C1CCC(c2cccnc2)CC1)c1ccc2cc(F)ccc2n1

>  <score_type>  (30) 
oracle

>  <origin>  (30) 
autodockgpu

>  <m_score__min__energy>  (30) 
-9.5600000000000005

>  <m_primary>  (30) 
energy

>  <rmsd>  (30) 
2.2212360789233903

>  <m_score__min__rmsd>  (30) 
2.2212360789233903

>  <meeko>  (30) 
{"free_energy": -8.94, "intermolecular_energy": -11.02, "internal_energy": -2.19, "cluster_size": 11, "cluster_id": 3, "rank_in_cluster": 6}

>  <energy>  (30) 
-8.32

>  <cluster_rmsd>  (30) 
0.0

>  <cluster>  (30) 
6

$$$$

     RDKit          3D

 64 68  0  0  1  0  0  0  0  0999 V2000
  137.9150   70.4000  222.0000 O   0  0  0  0  0  0  0  0  0  0  0  0
  138.6270   70.8730  222.9210 C   0  0  0  0  0  0  0  0  0  0  0  0
  139.0320   72.2550  222.8680 N   0  0  0  0  0  0  0  0  0  0  0  0
  138.6860   73.1630  221.8520 C   0  0  0  0  0  0  0  0  0  0  0  0
  139.2670   74.4810  221.7580 C   0  0  0  0  0  0  0  0  0  0  0  0
  140.4250   74.5980  222.3340 O   0  0  0  0  0  0  0  0  0  0  0  0
  138.7840   75.6630  221.1510 N   0  0  0  0  0  0  0  0  0  0  0  0
  139.3490   76.2890  219.9510 C   0  0  0  0  0  0  0  0  0  0  0  0
  138.1660   77.0480  219.3330 C   0  0  2  0  0  0  0  0  0  0  0  0
  138.4210   78.4060  219.3890 O   0  0  0  0  0  0  0  0  0  0  0  0
  136.9910   76.7400  220.2180 C   0  0  0  0  0  0  0  0  0  0  0  0
  137.6830   76.5200  221.5560 C   0  0  1  0  0  0  0  0  0  0  0  0
  136.7800   76.0500  222.5990 C   0  0  2  0  0  0  0  0  0  0  0  0
  135.8250   74.9550  222.3060 C   0  0  0  0  0  0  0  0  0  0  0  0
  135.3210   74.3300  223.6130 C   0  0  0  0  0  0  0  0  0  0  0  0
  135.2550   75.4450  224.6400 C   0  0  2  0  0  0  0  0  0  0  0  0
  134.2550   75.1050  225.6830 C   0  0  0  0  0  0  0  0  0  0  0  0
  133.4710   76.0480  226.3160 C   0  0  0  0  0  0  0  0  0  0  0  0
  132.5620   75.6230  227.2820 C   0  0  0  0  0  0  0  0  0  0  0  0
  132.4740   74.2610  227.5750 C   0  0  0  0  0  0  0  0  0  0  0  0
  133.2490   73.3630  226.9430 N   0  0  0  0  0  0  0  0  0  0  0  0
  134.1370   73.7500  226.0050 C   0  0  0  0  0  0  0  0  0  0  0  0
  134.8510   76.7440  224.0330 C   0  0  0  0  0  0  0  0  0  0  0  0
  135.9330   77.2360  223.0980 C   0  0  0  0  0  0  0  0  0  0  0  0
  139.0570   70.0390  224.0540 C   0  0  0  0  0  0  0  0  0  0  0  0
  138.8360   68.6790  223.9830 C   0  0  0  0  0  0  0  0  0  0  0  0
  139.2590   67.9290  225.0800 C   0  0  0  0  0  0  0  0  0  0  0  0
  139.8650   68.5200  226.1740 C   0  0  0  0  0  0  0  0  0  0  0  0
  140.2940   67.8100  227.2700 C   0  0  0  0  0  0  0  0  0  0  0  0
  140.9020   68.4400  228.3560 C   0  0  0  0  0  0  0  0  0  0  0  0
  141.3290   67.7610  229.4400 F   0  0  0  0  0  0  0  0  0  0  0  0
  141.0830   69.8120  228.3400 C   0  0  0  0  0  0  0  0  0  0  0  0
  140.6580   70.5520  227.2430 C   0  0  0  0  0  0  0  0  0  0  0  0
  140.0620   69.8870  226.1910 C   0  0  0  0  0  0  0  0  0  0  0  0
  139.6480   70.5920  225.1260 N   0  0  0  0  0  0  0  0  0  0  0  0
  139.6380   72.5770  223.6780 H   0  0  0  0  0  0  0  0  0  0  0  0
  138.9157   72.6595  220.9013 H   0  0  0  0  0  0  0  0  0  0  0  0
  137.6407   73.3952  222.1040 H   0  0  0  0  0  0  0  0  0  0  0  0
  140.1611   76.9815  220.2172 H   0  0  0  0  0  0  0  0  0  0  0  0
  139.7882   75.5555  219.2589 H   0  0  0  0  0  0  0  0  0  0  0  0
  137.9904   76.7610  218.2857 H   0  0  0  0  0  0  0  0  0  0  0  0
  137.9120   78.8140  220.1330 H   0  0  0  0  0  0  0  0  0  0  0  0
  136.2864   77.5836  220.2618 H   0  0  0  0  0  0  0  0  0  0  0  0
  136.3793   75.8907  219.8794 H   0  0  0  0  0  0  0  0  0  0  0  0
  138.0528   77.4178  222.0729 H   0  0  0  0  0  0  0  0  0  0  0  0
  137.4855   75.6158  223.3227 H   0  0  0  0  0  0  0  0  0  0  0  0
  134.9707   75.3586  221.7428 H   0  0  0  0  0  0  0  0  0  0  0  0
  136.3348   74.1827  221.7113 H   0  0  0  0  0  0  0  0  0  0  0  0
  134.3220   73.8945  223.4632 H   0  0  0  0  0  0  0  0  0  0  0  0
  135.9923   73.5258  223.9486 H   0  0  0  0  0  0  0  0  0  0  0  0
  136.2635   75.5478  225.0670 H   0  0  0  0  0  0  0  0  0  0  0  0
  133.5622   77.1145  226.0626 H   0  0  0  0  0  0  0  0  0  0  0  0
  131.9233   76.3494  227.8059 H   0  0  0  0  0  0  0  0  0  0  0  0
  131.7582   73.9168  228.3361 H   0  0  0  0  0  0  0  0  0  0  0  0
  134.7649   73.0037  225.4962 H   0  0  0  0  0  0  0  0  0  0  0  0
  133.9164   76.6077  223.4691 H   0  0  0  0  0  0  0  0  0  0  0  0
  134.6996   77.4847  224.8320 H   0  0  0  0  0  0  0  0  0  0  0  0
  135.4688   77.7394  222.2371 H   0  0  0  0  0  0  0  0  0  0  0  0
  136.5826   77.9408  223.6378 H   0  0  0  0  0  0  0  0  0  0  0  0
  138.3538   68.2130  223.1111 H   0  0  0  0  0  0  0  0  0  0  0  0
  139.1068   66.8396  225.0752 H   0  0  0  0  0  0  0  0  0  0  0  0
  140.1546   66.7191  227.2912 H   0  0  0  0  0  0  0  0  0  0  0  0
  141.5618   70.3153  229.1929 H   0  0  0  0  0  0  0  0  0  0  0  0
  140.7937   71.6432  227.2140 H   0  0  0  0  0  0  0  0  0  0  0  0
  1  2  2  0
  2  3  1  0
  3  4  1  0
  4  5  1  0
  5  6  2  0
  5  7  1  0
  7  8  1  0
  8  9  1  0
  9 10  1  0
  9 11  1  0
 11 12  1  0
 12 13  1  0
 13 14  1  0
 14 15  1  0
 15 16  1  0
 16 17  1  0
 17 18  2  0
 18 19  1  0
 19 20  2  0
 20 21  1  0
 21 22  2  0
 16 23  1  0
 23 24  1  0
  2 25  1  0
 25 26  2  0
 26 27  1  0
 27 28  2  0
 28 29  1  0
 29 30  2  0
 30 31  1  0
 30 32  1  0
 32 33  2  0
 33 34  1  0
 34 35  2  0
 12  7  1  0
 24 13  1  0
 35 25  1  0
 22 17  1  0
 34 28  1  0
  3 36  1  0
  4 37  1  0
  4 38  1  0
  8 39  1  0
  8 40  1  0
  9 41  1  6
 10 42  1  0
 11 43  1  0
 11 44  1  0
 12 45  1  1
 13 46  1  1
 14 47  1  0
 14 48  1  0
 15 49  1  0
 15 50  1  0
 16 51  1  1
 18 52  1  0
 19 53  1  0
 20 54  1  0
 22 55  1  0
 23 56  1  0
 23 57  1  0
 24 58  1  0
 24 59  1  0
 26 60  1  0
 27 61  1  0
 29 62  1  0
 32 63  1  0
 33 64  1  0
M  END
>  <smiles>  (31) 
O=C(NCC(=O)N1C[C@H](O)C[C@H]1C1CCC(c2cccnc2)CC1)c1ccc2cc(F)ccc2n1

>  <score_type>  (31) 
oracle

>  <origin>  (31) 
autodockgpu

>  <m_score__min__energy>  (31) 
-9.5600000000000005

>  <m_primary>  (31) 
energy

>  <rmsd>  (31) 
2.232157701762194

>  <m_score__min__rmsd>  (31) 
2.232157701762194

>  <meeko>  (31) 
{"free_energy": -8.32, "intermolecular_energy": -10.4, "internal_energy": -2.21, "cluster_size": 1, "cluster_id": 6, "rank_in_cluster": 1}

>  <energy>  (31) 
-8.06

>  <cluster_rmsd>  (31) 
0.0

>  <cluster>  (31) 
7

$$$$

     RDKit          3D

 64 68  0  0  1  0  0  0  0  0999 V2000
  136.5020   77.4680  222.0600 O   0  0  0  0  0  0  0  0  0  0  0  0
  136.4750   76.3800  222.6890 C   0  0  0  0  0  0  0  0  0  0  0  0
  137.4140   75.3410  222.3490 N   0  0  0  0  0  0  0  0  0  0  0  0
  138.4010   75.4330  221.3520 C   0  0  0  0  0  0  0  0  0  0  0  0
  139.7820   75.0910  221.5930 C   0  0  0  0  0  0  0  0  0  0  0  0
  139.9520   74.0450  222.3450 O   0  0  0  0  0  0  0  0  0  0  0  0
  140.9770   75.7060  221.1530 N   0  0  0  0  0  0  0  0  0  0  0  0
  142.0390   75.0410  220.3920 C   0  0  0  0  0  0  0  0  0  0  0  0
  142.7080   76.1810  219.6100 C   0  0  2  0  0  0  0  0  0  0  0  0
  144.0050   76.3410  220.0630 O   0  0  0  0  0  0  0  0  0  0  0  0
  141.9200   77.4140  219.9540 C   0  0  0  0  0  0  0  0  0  0  0  0
  141.4370   77.0690  221.3550 C   0  0  1  0  0  0  0  0  0  0  0  0
  140.5030   78.0480  221.8980 C   0  0  2  0  0  0  0  0  0  0  0  0
  140.0830   79.2020  221.0670 C   0  0  0  0  0  0  0  0  0  0  0  0
  138.8000   79.8210  221.6320 C   0  0  0  0  0  0  0  0  0  0  0  0
  138.8600   79.6640  223.1410 C   0  0  2  0  0  0  0  0  0  0  0  0
  138.0300   80.7120  223.7860 C   0  0  0  0  0  0  0  0  0  0  0  0
  137.5270   81.8040  223.1080 C   0  0  0  0  0  0  0  0  0  0  0  0
  136.7590   82.7310  223.8080 C   0  0  0  0  0  0  0  0  0  0  0  0
  136.5230   82.5240  225.1680 C   0  0  0  0  0  0  0  0  0  0  0  0
  137.0250   81.4520  225.8040 N   0  0  0  0  0  0  0  0  0  0  0  0
  137.7720   80.5410  225.1490 C   0  0  0  0  0  0  0  0  0  0  0  0
  140.2480   79.8010  223.6640 C   0  0  0  0  0  0  0  0  0  0  0  0
  141.0950   78.6420  223.1890 C   0  0  0  0  0  0  0  0  0  0  0  0
  135.5000   76.1480  223.7650 C   0  0  0  0  0  0  0  0  0  0  0  0
  134.8250   77.2340  224.2790 C   0  0  0  0  0  0  0  0  0  0  0  0
  133.9120   76.9660  225.2980 C   0  0  0  0  0  0  0  0  0  0  0  0
  133.6990   75.6810  225.7640 C   0  0  0  0  0  0  0  0  0  0  0  0
  132.8060   75.3820  226.7660 C   0  0  0  0  0  0  0  0  0  0  0  0
  132.6180   74.0730  227.2090 C   0  0  0  0  0  0  0  0  0  0  0  0
  131.7470   73.7620  228.1910 F   0  0  0  0  0  0  0  0  0  0  0  0
  133.3410   73.0430  226.6340 C   0  0  0  0  0  0  0  0  0  0  0  0
  134.2500   73.3200  225.6190 C   0  0  0  0  0  0  0  0  0  0  0  0
  134.4030   74.6290  225.2120 C   0  0  0  0  0  0  0  0  0  0  0  0
  135.2780   74.9070  224.2320 N   0  0  0  0  0  0  0  0  0  0  0  0
  137.3240   74.4490  222.9190 H   0  0  0  0  0  0  0  0  0  0  0  0
  138.0651   74.7848  220.5292 H   0  0  0  0  0  0  0  0  0  0  0  0
  138.4624   76.5201  221.1958 H   0  0  0  0  0  0  0  0  0  0  0  0
  142.7587   74.5558  221.0677 H   0  0  0  0  0  0  0  0  0  0  0  0
  141.6545   74.2468  219.7352 H   0  0  0  0  0  0  0  0  0  0  0  0
  142.7304   75.9843  218.5280 H   0  0  0  0  0  0  0  0  0  0  0  0
  144.0760   77.1710  220.5940 H   0  0  0  0  0  0  0  0  0  0  0  0
  142.5553   78.3120  219.9555 H   0  0  0  0  0  0  0  0  0  0  0  0
  141.1151   77.6507  219.2425 H   0  0  0  0  0  0  0  0  0  0  0  0
  142.1858   77.1159  222.1594 H   0  0  0  0  0  0  0  0  0  0  0  0
  139.5917   77.4429  222.0138 H   0  0  0  0  0  0  0  0  0  0  0  0
  140.8815   79.9586  221.0655 H   0  0  0  0  0  0  0  0  0  0  0  0
  139.8927   78.8552  220.0406 H   0  0  0  0  0  0  0  0  0  0  0  0
  138.7450   80.8866  221.3647 H   0  0  0  0  0  0  0  0  0  0  0  0
  137.9093   79.3239  221.2202 H   0  0  0  0  0  0  0  0  0  0  0  0
  138.4874   78.6556  223.3739 H   0  0  0  0  0  0  0  0  0  0  0  0
  137.7289   81.9394  222.0352 H   0  0  0  0  0  0  0  0  0  0  0  0
  136.3448   83.6127  223.2971 H   0  0  0  0  0  0  0  0  0  0  0  0
  135.9161   83.2504  225.7284 H   0  0  0  0  0  0  0  0  0  0  0  0
  138.1759   79.6687  225.6837 H   0  0  0  0  0  0  0  0  0  0  0  0
  140.6832   80.7436  223.3004 H   0  0  0  0  0  0  0  0  0  0  0  0
  140.2216   79.8028  224.7637 H   0  0  0  0  0  0  0  0  0  0  0  0
  142.1176   78.9958  222.9911 H   0  0  0  0  0  0  0  0  0  0  0  0
  141.1117   77.8654  223.9679 H   0  0  0  0  0  0  0  0  0  0  0  0
  134.9969   78.2546  223.9064 H   0  0  0  0  0  0  0  0  0  0  0  0
  133.3464   77.7979  225.7430 H   0  0  0  0  0  0  0  0  0  0  0  0
  132.2264   76.1942  227.2290 H   0  0  0  0  0  0  0  0  0  0  0  0
  133.1972   72.0084  226.9787 H   0  0  0  0  0  0  0  0  0  0  0  0
  134.8338   72.5136  225.1512 H   0  0  0  0  0  0  0  0  0  0  0  0
  1  2  2  0
  2  3  1  0
  3  4  1  0
  4  5  1  0
  5  6  2  0
  5  7  1  0
  7  8  1  0
  8  9  1  0
  9 10  1  0
  9 11  1  0
 11 12  1  0
 12 13  1  0
 13 14  1  0
 14 15  1  0
 15 16  1  0
 16 17  1  0
 17 18  2  0
 18 19  1  0
 19 20  2  0
 20 21  1  0
 21 22  2  0
 16 23  1  0
 23 24  1  0
  2 25  1  0
 25 26  2  0
 26 27  1  0
 27 28  2  0
 28 29  1  0
 29 30  2  0
 30 31  1  0
 30 32  1  0
 32 33  2  0
 33 34  1  0
 34 35  2  0
 12  7  1  0
 24 13  1  0
 35 25  1  0
 22 17  1  0
 34 28  1  0
  3 36  1  0
  4 37  1  0
  4 38  1  0
  8 39  1  0
  8 40  1  0
  9 41  1  6
 10 42  1  0
 11 43  1  0
 11 44  1  0
 12 45  1  1
 13 46  1  1
 14 47  1  0
 14 48  1  0
 15 49  1  0
 15 50  1  0
 16 51  1  6
 18 52  1  0
 19 53  1  0
 20 54  1  0
 22 55  1  0
 23 56  1  0
 23 57  1  0
 24 58  1  0
 24 59  1  0
 26 60  1  0
 27 61  1  0
 29 62  1  0
 32 63  1  0
 33 64  1  0
M  END
>  <smiles>  (32) 
O=C(NCC(=O)N1C[C@H](O)C[C@H]1C1CCC(c2cccnc2)CC1)c1ccc2cc(F)ccc2n1

>  <score_type>  (32) 
oracle

>  <origin>  (32) 
autodockgpu

>  <m_score__min__energy>  (32) 
-9.5600000000000005

>  <m_primary>  (32) 
energy

>  <rmsd>  (32) 
6.3223307554143

>  <m_score__min__rmsd>  (32) 
6.3223307554143

>  <meeko>  (32) 
{"free_energy": -8.06, "intermolecular_energy": -10.15, "internal_energy": -2.65, "cluster_size": 6, "cluster_id": 7, "rank_in_cluster": 1}

>  <energy>  (32) 
-8.02

>  <cluster_rmsd>  (32) 
0.81

>  <cluster>  (32) 
7

$$$$

     RDKit          3D

 64 68  0  0  1  0  0  0  0  0999 V2000
  137.9820   71.5060  222.2600 O   0  0  0  0  0  0  0  0  0  0  0  0
  139.0760   71.4970  222.8800 C   0  0  0  0  0  0  0  0  0  0  0  0
  140.1260   72.3990  222.4800 N   0  0  0  0  0  0  0  0  0  0  0  0
  140.0410   73.3300  221.4300 C   0  0  0  0  0  0  0  0  0  0  0  0
  140.3920   74.7200  221.5950 C   0  0  0  0  0  0  0  0  0  0  0  0
  139.7470   75.3270  222.5450 O   0  0  0  0  0  0  0  0  0  0  0  0
  141.3150   75.5300  220.8930 N   0  0  0  0  0  0  0  0  0  0  0  0
  142.3390   75.0370  219.9670 C   0  0  0  0  0  0  0  0  0  0  0  0
  142.5770   76.2140  219.0110 C   0  0  2  0  0  0  0  0  0  0  0  0
  143.8650   76.6860  219.1850 O   0  0  0  0  0  0  0  0  0  0  0  0
  141.6090   77.2790  219.4440 C   0  0  0  0  0  0  0  0  0  0  0  0
  141.4840   76.9720  220.9300 C   0  0  1  0  0  0  0  0  0  0  0  0
  140.4710   77.7770  221.6000 C   0  0  2  0  0  0  0  0  0  0  0  0
  139.8400   78.9100  220.8810 C   0  0  0  0  0  0  0  0  0  0  0  0
  138.5300   79.3100  221.5720 C   0  0  0  0  0  0  0  0  0  0  0  0
  138.7240   79.0720  223.0580 C   0  0  2  0  0  0  0  0  0  0  0  0
  137.8110   79.9540  223.8290 C   0  0  0  0  0  0  0  0  0  0  0  0
  136.4360   79.8440  223.7850 C   0  0  0  0  0  0  0  0  0  0  0  0
  135.6710   80.7230  224.5470 C   0  0  0  0  0  0  0  0  0  0  0  0
  136.3180   81.6810  225.3280 C   0  0  0  0  0  0  0  0  0  0  0  0
  137.6590   81.7670  225.3530 N   0  0  0  0  0  0  0  0  0  0  0  0
  138.4220   80.9280  224.6240 C   0  0  0  0  0  0  0  0  0  0  0  0
  140.1150   79.3670  223.4980 C   0  0  0  0  0  0  0  0  0  0  0  0
  141.0730   78.3680  222.8880 C   0  0  0  0  0  0  0  0  0  0  0  0
  139.3020   70.5800  224.0070 C   0  0  0  0  0  0  0  0  0  0  0  0
  138.8190   69.2930  223.9080 C   0  0  0  0  0  0  0  0  0  0  0  0
  139.0570   68.4600  225.0010 C   0  0  0  0  0  0  0  0  0  0  0  0
  139.7390   68.9060  226.1200 C   0  0  0  0  0  0  0  0  0  0  0  0
  139.9910   68.1110  227.2130 C   0  0  0  0  0  0  0  0  0  0  0  0
  140.6820   68.5950  228.3240 C   0  0  0  0  0  0  0  0  0  0  0  0
  140.9380   67.8310  229.4040 F   0  0  0  0  0  0  0  0  0  0  0  0
  141.1310   69.9040  228.3350 C   0  0  0  0  0  0  0  0  0  0  0  0
  140.8900   70.7270  227.2420 C   0  0  0  0  0  0  0  0  0  0  0  0
  140.2020   70.2060  226.1650 C   0  0  0  0  0  0  0  0  0  0  0  0
  139.9620   70.9930  225.1030 N   0  0  0  0  0  0  0  0  0  0  0  0
  141.0210   72.3260  223.0480 H   0  0  0  0  0  0  0  0  0  0  0  0
  140.6874   72.9450  220.6275 H   0  0  0  0  0  0  0  0  0  0  0  0
  138.9544   73.3897  221.2694 H   0  0  0  0  0  0  0  0  0  0  0  0
  143.2622   74.7795  220.5068 H   0  0  0  0  0  0  0  0  0  0  0  0
  142.0276   74.1223  219.4412 H   0  0  0  0  0  0  0  0  0  0  0  0
  142.4426   75.9264  217.9578 H   0  0  0  0  0  0  0  0  0  0  0  0
  143.8500   77.5160  219.7210 H   0  0  0  0  0  0  0  0  0  0  0  0
  142.0144   78.2871  219.2726 H   0  0  0  0  0  0  0  0  0  0  0  0
  140.6541   77.2726  218.8980 H   0  0  0  0  0  0  0  0  0  0  0  0
  142.3382   77.2516  221.5642 H   0  0  0  0  0  0  0  0  0  0  0  0
  139.6599   77.0460  221.7328 H   0  0  0  0  0  0  0  0  0  0  0  0
  140.5277   79.7685  220.8803 H   0  0  0  0  0  0  0  0  0  0  0  0
  139.6223   78.6035  219.8472 H   0  0  0  0  0  0  0  0  0  0  0  0
  138.3124   80.3718  221.3844 H   0  0  0  0  0  0  0  0  0  0  0  0
  137.6856   78.7201  221.1861 H   0  0  0  0  0  0  0  0  0  0  0  0
  138.5090   78.0091  223.2424 H   0  0  0  0  0  0  0  0  0  0  0  0
  135.9542   79.0773  223.1605 H   0  0  0  0  0  0  0  0  0  0  0  0
  134.5727   80.6630  224.5334 H   0  0  0  0  0  0  0  0  0  0  0  0
  135.7203   82.3780  225.9338 H   0  0  0  0  0  0  0  0  0  0  0  0
  139.5186   81.0094  224.6546 H   0  0  0  0  0  0  0  0  0  0  0  0
  140.3919   80.3814  223.1750 H   0  0  0  0  0  0  0  0  0  0  0  0
  140.1696   79.2968  224.5944 H   0  0  0  0  0  0  0  0  0  0  0  0
  142.0209   78.8721  222.6487 H   0  0  0  0  0  0  0  0  0  0  0  0
  141.2527   77.5556  223.6075 H   0  0  0  0  0  0  0  0  0  0  0  0
  138.2766   68.9427  223.0175 H   0  0  0  0  0  0  0  0  0  0  0  0
  138.6935   67.4222  224.9731 H   0  0  0  0  0  0  0  0  0  0  0  0
  139.6395   67.0687  227.2114 H   0  0  0  0  0  0  0  0  0  0  0  0
  141.6775   70.2920  229.2073 H   0  0  0  0  0  0  0  0  0  0  0  0
  141.2395   71.7700  227.2351 H   0  0  0  0  0  0  0  0  0  0  0  0
  1  2  2  0
  2  3  1  0
  3  4  1  0
  4  5  1  0
  5  6  2  0
  5  7  1  0
  7  8  1  0
  8  9  1  0
  9 10  1  0
  9 11  1  0
 11 12  1  0
 12 13  1  0
 13 14  1  0
 14 15  1  0
 15 16  1  0
 16 17  1  0
 17 18  2  0
 18 19  1  0
 19 20  2  0
 20 21  1  0
 21 22  2  0
 16 23  1  0
 23 24  1  0
  2 25  1  0
 25 26  2  0
 26 27  1  0
 27 28  2  0
 28 29  1  0
 29 30  2  0
 30 31  1  0
 30 32  1  0
 32 33  2  0
 33 34  1  0
 34 35  2  0
 12  7  1  0
 24 13  1  0
 35 25  1  0
 22 17  1  0
 34 28  1  0
  3 36  1  0
  4 37  1  0
  4 38  1  0
  8 39  1  0
  8 40  1  0
  9 41  1  6
 10 42  1  0
 11 43  1  0
 11 44  1  0
 12 45  1  1
 13 46  1  1
 14 47  1  0
 14 48  1  0
 15 49  1  0
 15 50  1  0
 16 51  1  6
 18 52  1  0
 19 53  1  0
 20 54  1  0
 22 55  1  0
 23 56  1  0
 23 57  1  0
 24 58  1  0
 24 59  1  0
 26 60  1  0
 27 61  1  0
 29 62  1  0
 32 63  1  0
 33 64  1  0
M  END
>  <smiles>  (33) 
O=C(NCC(=O)N1C[C@H](O)C[C@H]1C1CCC(c2cccnc2)CC1)c1ccc2cc(F)ccc2n1

>  <score_type>  (33) 
oracle

>  <origin>  (33) 
autodockgpu

>  <m_score__min__energy>  (33) 
-9.5600000000000005

>  <m_primary>  (33) 
energy

>  <rmsd>  (33) 
1.7625786333333167

>  <m_score__min__rmsd>  (33) 
1.7625786333333167

>  <meeko>  (33) 
{"free_energy": -9.14, "intermolecular_energy": -11.23, "internal_energy": -1.58, "cluster_size": 14, "cluster_id": 1, "rank_in_cluster": 10}

>  <energy>  (33) 
-8.01

>  <cluster_rmsd>  (33) 
0.67

>  <cluster>  (33) 
7

$$$$

     RDKit          3D

 64 68  0  0  1  0  0  0  0  0999 V2000
  140.6950   73.6360  222.3420 O   0  0  0  0  0  0  0  0  0  0  0  0
  140.2340   72.4770  222.1900 C   0  0  0  0  0  0  0  0  0  0  0  0
  139.8290   72.0400  220.8780 N   0  0  0  0  0  0  0  0  0  0  0  0
  139.9110   72.8110  219.7050 C   0  0  0  0  0  0  0  0  0  0  0  0
  139.9510   74.2530  219.7250 C   0  0  0  0  0  0  0  0  0  0  0  0
  138.8210   74.8160  220.0330 O   0  0  0  0  0  0  0  0  0  0  0  0
  141.0090   75.1530  219.4610 N   0  0  0  0  0  0  0  0  0  0  0  0
  140.8900   76.6140  219.4360 C   0  0  0  0  0  0  0  0  0  0  0  0
  142.2990   77.1110  219.7920 C   0  0  2  0  0  0  0  0  0  0  0  0
  142.8360   77.7700  218.7000 O   0  0  0  0  0  0  0  0  0  0  0  0
  143.1040   75.8690  220.0500 C   0  0  0  0  0  0  0  0  0  0  0  0
  142.3980   74.8700  219.1430 C   0  0  1  0  0  0  0  0  0  0  0  0
  142.8860   73.5060  219.3020 C   0  0  2  0  0  0  0  0  0  0  0  0
  143.5790   73.1140  220.5530 C   0  0  0  0  0  0  0  0  0  0  0  0
  143.5920   71.5870  220.6930 C   0  0  0  0  0  0  0  0  0  0  0  0
  143.6940   71.0150  219.2910 C   0  0  2  0  0  0  0  0  0  0  0  0
  144.3060   69.6640  219.3450 C   0  0  0  0  0  0  0  0  0  0  0  0
  143.5670   68.5000  219.4170 C   0  0  0  0  0  0  0  0  0  0  0  0
  144.2410   67.2820  219.4640 C   0  0  0  0  0  0  0  0  0  0  0  0
  145.6360   67.2790  219.4350 C   0  0  0  0  0  0  0  0  0  0  0  0
  146.3310   68.4270  219.3650 N   0  0  0  0  0  0  0  0  0  0  0  0
  145.7030   69.6190  219.3190 C   0  0  0  0  0  0  0  0  0  0  0  0
  144.5390   71.8580  218.4010 C   0  0  0  0  0  0  0  0  0  0  0  0
  143.8620   73.1880  218.1540 C   0  0  0  0  0  0  0  0  0  0  0  0
  140.0990   71.5570  223.3290 C   0  0  0  0  0  0  0  0  0  0  0  0
  139.4760   70.3450  223.1200 C   0  0  0  0  0  0  0  0  0  0  0  0
  139.3710   69.5070  224.2290 C   0  0  0  0  0  0  0  0  0  0  0  0
  139.8650   69.8740  225.4670 C   0  0  0  0  0  0  0  0  0  0  0  0
  139.7790   69.0720  226.5800 C   0  0  0  0  0  0  0  0  0  0  0  0
  140.2900   69.4760  227.8140 C   0  0  0  0  0  0  0  0  0  0  0  0
  140.2140   68.7030  228.9150 F   0  0  0  0  0  0  0  0  0  0  0  0
  140.9010   70.7120  227.9310 C   0  0  0  0  0  0  0  0  0  0  0  0
  141.0000   71.5420  226.8210 C   0  0  0  0  0  0  0  0  0  0  0  0
  140.4820   71.1010  225.6210 C   0  0  0  0  0  0  0  0  0  0  0  0
  140.5730   71.8940  224.5410 N   0  0  0  0  0  0  0  0  0  0  0  0
  139.4430   71.0520  220.8320 H   0  0  0  0  0  0  0  0  0  0  0  0
  140.8278   72.4873  219.1905 H   0  0  0  0  0  0  0  0  0  0  0  0
  138.9321   72.6196  219.2412 H   0  0  0  0  0  0  0  0  0  0  0  0
  140.5933   76.9645  218.4365 H   0  0  0  0  0  0  0  0  0  0  0  0
  140.1229   76.9869  220.1306 H   0  0  0  0  0  0  0  0  0  0  0  0
  142.2924   77.7949  220.6535 H   0  0  0  0  0  0  0  0  0  0  0  0
  143.7140   78.1550  218.9390 H   0  0  0  0  0  0  0  0  0  0  0  0
  144.1568   76.0029  219.7609 H   0  0  0  0  0  0  0  0  0  0  0  0
  143.1474   75.5688  221.1074 H   0  0  0  0  0  0  0  0  0  0  0  0
  142.5823   74.9695  218.0631 H   0  0  0  0  0  0  0  0  0  0  0  0
  141.9457   72.9353  219.3154 H   0  0  0  0  0  0  0  0  0  0  0  0
  144.6140   73.4856  220.5272 H   0  0  0  0  0  0  0  0  0  0  0  0
  143.0458   73.5493  221.4111 H   0  0  0  0  0  0  0  0  0  0  0  0
  144.4567   71.2699  221.2944 H   0  0  0  0  0  0  0  0  0  0  0  0
  142.6818   71.2308  221.1976 H   0  0  0  0  0  0  0  0  0  0  0  0
  142.6722   70.9783  218.8852 H   0  0  0  0  0  0  0  0  0  0  0  0
  142.4677   68.5339  219.4369 H   0  0  0  0  0  0  0  0  0  0  0  0
  143.6819   66.3365  219.5231 H   0  0  0  0  0  0  0  0  0  0  0  0
  146.1757   66.3212  219.4700 H   0  0  0  0  0  0  0  0  0  0  0  0
  146.2860   70.5501  219.2614 H   0  0  0  0  0  0  0  0  0  0  0  0
  145.5146   72.0290  218.8795 H   0  0  0  0  0  0  0  0  0  0  0  0
  144.6806   71.3406  217.4407 H   0  0  0  0  0  0  0  0  0  0  0  0
  144.6243   73.9789  218.0949 H   0  0  0  0  0  0  0  0  0  0  0  0
  143.3018   73.1369  217.2088 H   0  0  0  0  0  0  0  0  0  0  0  0
  139.0839   70.0556  222.1338 H   0  0  0  0  0  0  0  0  0  0  0  0
  138.8823   68.5280  224.1162 H   0  0  0  0  0  0  0  0  0  0  0  0
  139.2955   68.0875  226.4959 H   0  0  0  0  0  0  0  0  0  0  0  0
  141.3073   71.0367  228.9003 H   0  0  0  0  0  0  0  0  0  0  0  0
  141.4806   72.5285  226.8975 H   0  0  0  0  0  0  0  0  0  0  0  0
  1  2  2  0
  2  3  1  0
  3  4  1  0
  4  5  1  0
  5  6  2  0
  5  7  1  0
  7  8  1  0
  8  9  1  0
  9 10  1  0
  9 11  1  0
 11 12  1  0
 12 13  1  0
 13 14  1  0
 14 15  1  0
 15 16  1  0
 16 17  1  0
 17 18  2  0
 18 19  1  0
 19 20  2  0
 20 21  1  0
 21 22  2  0
 16 23  1  0
 23 24  1  0
  2 25  1  0
 25 26  2  0
 26 27  1  0
 27 28  2  0
 28 29  1  0
 29 30  2  0
 30 31  1  0
 30 32  1  0
 32 33  2  0
 33 34  1  0
 34 35  2  0
 12  7  1  0
 24 13  1  0
 35 25  1  0
 22 17  1  0
 34 28  1  0
  3 36  1  0
  4 37  1  0
  4 38  1  0
  8 39  1  0
  8 40  1  0
  9 41  1  1
 10 42  1  0
 11 43  1  0
 11 44  1  0
 12 45  1  6
 13 46  1  6
 14 47  1  0
 14 48  1  0
 15 49  1  0
 15 50  1  0
 16 51  1  6
 18 52  1  0
 19 53  1  0
 20 54  1  0
 22 55  1  0
 23 56  1  0
 23 57  1  0
 24 58  1  0
 24 59  1  0
 26 60  1  0
 27 61  1  0
 29 62  1  0
 32 63  1  0
 33 64  1  0
M  END
>  <smiles>  (34) 
O=C(NCC(=O)N1C[C@H](O)C[C@H]1C1CCC(c2cccnc2)CC1)c1ccc2cc(F)ccc2n1

>  <score_type>  (34) 
oracle

>  <origin>  (34) 
autodockgpu

>  <m_score__min__energy>  (34) 
-9.5600000000000005

>  <m_primary>  (34) 
energy

>  <rmsd>  (34) 
2.411155554989188

>  <m_score__min__rmsd>  (34) 
2.411155554989188

>  <meeko>  (34) 
{"free_energy": -8.52, "intermolecular_energy": -10.61, "internal_energy": -2.08, "cluster_size": 11, "cluster_id": 3, "rank_in_cluster": 8}

>  <energy>  (34) 
-7.82

>  <cluster_rmsd>  (34) 
1.16

>  <cluster>  (34) 
7

$$$$

     RDKit          3D

 64 68  0  0  1  0  0  0  0  0999 V2000
  138.7600   74.6960  221.9780 O   0  0  0  0  0  0  0  0  0  0  0  0
  139.8740   75.2770  222.0110 C   0  0  0  0  0  0  0  0  0  0  0  0
  141.0800   74.5100  221.8310 N   0  0  0  0  0  0  0  0  0  0  0  0
  141.1340   73.1240  221.6040 C   0  0  0  0  0  0  0  0  0  0  0  0
  141.8530   72.5460  220.4930 C   0  0  0  0  0  0  0  0  0  0  0  0
  141.2340   71.5650  219.9080 O   0  0  0  0  0  0  0  0  0  0  0  0
  143.1150   72.8650  219.9420 N   0  0  0  0  0  0  0  0  0  0  0  0
  144.2140   71.9150  219.7420 C   0  0  0  0  0  0  0  0  0  0  0  0
  145.0140   72.5100  218.5740 C   0  0  2  0  0  0  0  0  0  0  0  0
  146.2650   72.8880  219.0280 O   0  0  0  0  0  0  0  0  0  0  0  0
  144.2580   73.7410  218.1610 C   0  0  0  0  0  0  0  0  0  0  0  0
  143.6190   74.1470  219.4820 C   0  0  1  0  0  0  0  0  0  0  0  0
  142.6840   75.2580  219.3500 C   0  0  2  0  0  0  0  0  0  0  0  0
  141.7610   75.3080  218.1910 C   0  0  0  0  0  0  0  0  0  0  0  0
  140.6000   76.2670  218.4810 C   0  0  0  0  0  0  0  0  0  0  0  0
  141.1540   77.3830  219.3480 C   0  0  2  0  0  0  0  0  0  0  0  0
  140.3300   78.6060  219.1760 C   0  0  0  0  0  0  0  0  0  0  0  0
  140.8590   79.8800  219.1650 C   0  0  0  0  0  0  0  0  0  0  0  0
  139.9960   80.9610  218.9970 C   0  0  0  0  0  0  0  0  0  0  0  0
  138.6310   80.7190  218.8430 C   0  0  0  0  0  0  0  0  0  0  0  0
  138.1420   79.4670  218.8570 N   0  0  0  0  0  0  0  0  0  0  0  0
  138.9550   78.4040  219.0190 C   0  0  0  0  0  0  0  0  0  0  0  0
  142.5570   77.7300  218.9870 C   0  0  0  0  0  0  0  0  0  0  0  0
  143.4770   76.5780  219.3250 C   0  0  0  0  0  0  0  0  0  0  0  0
  139.9680   76.7280  222.2310 C   0  0  0  0  0  0  0  0  0  0  0  0
  138.7980   77.4440  222.3700 C   0  0  0  0  0  0  0  0  0  0  0  0
  138.9360   78.8160  222.5760 C   0  0  0  0  0  0  0  0  0  0  0  0
  140.1780   79.4200  222.6370 C   0  0  0  0  0  0  0  0  0  0  0  0
  140.3500   80.7690  222.8390 C   0  0  0  0  0  0  0  0  0  0  0  0
  141.6200   81.3440  222.8950 C   0  0  0  0  0  0  0  0  0  0  0  0
  141.8070   82.6640  223.0930 F   0  0  0  0  0  0  0  0  0  0  0  0
  142.7410   80.5460  222.7450 C   0  0  0  0  0  0  0  0  0  0  0  0
  142.5940   79.1790  222.5390 C   0  0  0  0  0  0  0  0  0  0  0  0
  141.3190   78.6540  222.4920 C   0  0  0  0  0  0  0  0  0  0  0  0
  141.1650   77.3350  222.2930 N   0  0  0  0  0  0  0  0  0  0  0  0
  141.9810   75.0710  221.8790 H   0  0  0  0  0  0  0  0  0  0  0  0
  141.5699   72.6827  222.5124 H   0  0  0  0  0  0  0  0  0  0  0  0
  140.0906   72.8988  221.3382 H   0  0  0  0  0  0  0  0  0  0  0  0
  144.8371   71.8426  220.6456 H   0  0  0  0  0  0  0  0  0  0  0  0
  143.8584   70.8950  219.5345 H   0  0  0  0  0  0  0  0  0  0  0  0
  145.1357   71.7942  217.7477 H   0  0  0  0  0  0  0  0  0  0  0  0
  146.3630   73.8690  218.9660 H   0  0  0  0  0  0  0  0  0  0  0  0
  144.9338   74.5220  217.7824 H   0  0  0  0  0  0  0  0  0  0  0  0
  143.5419   73.5795  217.3418 H   0  0  0  0  0  0  0  0  0  0  0  0
  144.2839   74.6001  220.2320 H   0  0  0  0  0  0  0  0  0  0  0  0
  142.0286   75.0997  220.2191 H   0  0  0  0  0  0  0  0  0  0  0  0
  142.3095   75.6588  217.3043 H   0  0  0  0  0  0  0  0  0  0  0  0
  141.3582   74.3008  218.0086 H   0  0  0  0  0  0  0  0  0  0  0  0
  140.2062   76.6792  217.5403 H   0  0  0  0  0  0  0  0  0  0  0  0
  139.7769   75.7449  218.9908 H   0  0  0  0  0  0  0  0  0  0  0  0
  141.1296   77.0235  220.3873 H   0  0  0  0  0  0  0  0  0  0  0  0
  141.9406   80.0393  219.2864 H   0  0  0  0  0  0  0  0  0  0  0  0
  140.3853   81.9897  218.9860 H   0  0  0  0  0  0  0  0  0  0  0  0
  137.9433   81.5668  218.7079 H   0  0  0  0  0  0  0  0  0  0  0  0
  138.5401   77.3853  219.0276 H   0  0  0  0  0  0  0  0  0  0  0  0
  142.6149   77.9384  217.9085 H   0  0  0  0  0  0  0  0  0  0  0  0
  142.8672   78.6192  219.5554 H   0  0  0  0  0  0  0  0  0  0  0  0
  144.2707   76.5114  218.5663 H   0  0  0  0  0  0  0  0  0  0  0  0
  143.9210   76.7504  220.3165 H   0  0  0  0  0  0  0  0  0  0  0  0
  137.8114   76.9601  222.3211 H   0  0  0  0  0  0  0  0  0  0  0  0
  138.0334   79.4338  222.6930 H   0  0  0  0  0  0  0  0  0  0  0  0
  139.4647   81.4107  222.9594 H   0  0  0  0  0  0  0  0  0  0  0  0
  143.7455   80.9923  222.7887 H   0  0  0  0  0  0  0  0  0  0  0  0
  143.4742   78.5307  222.4163 H   0  0  0  0  0  0  0  0  0  0  0  0
  1  2  2  0
  2  3  1  0
  3  4  1  0
  4  5  1  0
  5  6  2  0
  5  7  1  0
  7  8  1  0
  8  9  1  0
  9 10  1  0
  9 11  1  0
 11 12  1  0
 12 13  1  0
 13 14  1  0
 14 15  1  0
 15 16  1  0
 16 17  1  0
 17 18  2  0
 18 19  1  0
 19 20  2  0
 20 21  1  0
 21 22  2  0
 16 23  1  0
 23 24  1  0
  2 25  1  0
 25 26  2  0
 26 27  1  0
 27 28  2  0
 28 29  1  0
 29 30  2  0
 30 31  1  0
 30 32  1  0
 32 33  2  0
 33 34  1  0
 34 35  2  0
 12  7  1  0
 24 13  1  0
 35 25  1  0
 22 17  1  0
 34 28  1  0
  3 36  1  0
  4 37  1  0
  4 38  1  0
  8 39  1  0
  8 40  1  0
  9 41  1  6
 10 42  1  0
 11 43  1  0
 11 44  1  0
 12 45  1  1
 13 46  1  1
 14 47  1  0
 14 48  1  0
 15 49  1  0
 15 50  1  0
 16 51  1  1
 18 52  1  0
 19 53  1  0
 20 54  1  0
 22 55  1  0
 23 56  1  0
 23 57  1  0
 24 58  1  0
 24 59  1  0
 26 60  1  0
 27 61  1  0
 29 62  1  0
 32 63  1  0
 33 64  1  0
M  END
>  <smiles>  (35) 
O=C(NCC(=O)N1C[C@H](O)C[C@H]1C1CCC(c2cccnc2)CC1)c1ccc2cc(F)ccc2n1

>  <score_type>  (35) 
oracle

>  <origin>  (35) 
autodockgpu

>  <m_score__min__energy>  (35) 
-9.5600000000000005

>  <m_primary>  (35) 
energy

>  <rmsd>  (35) 
7.908351159093973

>  <m_score__min__rmsd>  (35) 
7.908351159093973

>  <meeko>  (35) 
{"free_energy": -6.52, "intermolecular_energy": -8.6, "internal_energy": -4.23, "cluster_size": 14, "cluster_id": 8, "rank_in_cluster": 14}

>  <energy>  (35) 
-7.44

>  <cluster_rmsd>  (35) 
0.91

>  <cluster>  (35) 
7

$$$$

     RDKit          3D

 64 68  0  0  1  0  0  0  0  0999 V2000
  140.2520   71.2120  221.1120 O   0  0  0  0  0  0  0  0  0  0  0  0
  139.9810   71.7380  222.2220 C   0  0  0  0  0  0  0  0  0  0  0  0
  139.7800   73.1630  222.3020 N   0  0  0  0  0  0  0  0  0  0  0  0
  139.8510   74.0550  221.2180 C   0  0  0  0  0  0  0  0  0  0  0  0
  140.9310   74.0290  220.2610 C   0  0  0  0  0  0  0  0  0  0  0  0
  140.5530   74.1520  219.0240 O   0  0  0  0  0  0  0  0  0  0  0  0
  142.3260   73.8880  220.4440 N   0  0  0  0  0  0  0  0  0  0  0  0
  143.0050   72.6520  220.8460 C   0  0  0  0  0  0  0  0  0  0  0  0
  144.4180   72.7940  220.2620 C   0  0  2  0  0  0  0  0  0  0  0  0
  145.3290   72.8830  221.2980 O   0  0  0  0  0  0  0  0  0  0  0  0
  144.4080   74.0970  219.5130 C   0  0  0  0  0  0  0  0  0  0  0  0
  143.3760   74.8830  220.3080 C   0  0  1  0  0  0  0  0  0  0  0  0
  143.0450   76.1690  219.7070 C   0  0  2  0  0  0  0  0  0  0  0  0
  141.8020   76.8700  220.1110 C   0  0  0  0  0  0  0  0  0  0  0  0
  141.8820   78.3520  219.7230 C   0  0  0  0  0  0  0  0  0  0  0  0
  142.6820   78.4290  218.4350 C   0  0  2  0  0  0  0  0  0  0  0  0
  142.3110   79.6570  217.6890 C   0  0  0  0  0  0  0  0  0  0  0  0
  142.5380   80.9320  218.1670 C   0  0  0  0  0  0  0  0  0  0  0  0
  142.1500   82.0170  217.3860 C   0  0  0  0  0  0  0  0  0  0  0  0
  141.5480   81.7810  216.1490 C   0  0  0  0  0  0  0  0  0  0  0  0
  141.3380   80.5290  215.7070 N   0  0  0  0  0  0  0  0  0  0  0  0
  141.7040   79.4610  216.4440 C   0  0  0  0  0  0  0  0  0  0  0  0
  142.4260   77.2640  217.5440 C   0  0  0  0  0  0  0  0  0  0  0  0
  142.9650   76.0000  218.1790 C   0  0  0  0  0  0  0  0  0  0  0  0
  139.8670   70.9240  223.4410 C   0  0  0  0  0  0  0  0  0  0  0  0
  139.2880   69.6760  223.3400 C   0  0  0  0  0  0  0  0  0  0  0  0
  139.2000   68.9410  224.5210 C   0  0  0  0  0  0  0  0  0  0  0  0
  139.6690   69.4390  225.7240 C   0  0  0  0  0  0  0  0  0  0  0  0
  139.5980   68.7400  226.9060 C   0  0  0  0  0  0  0  0  0  0  0  0
  140.0820   69.2740  228.1000 C   0  0  0  0  0  0  0  0  0  0  0  0
  140.0210   68.6040  229.2680 F   0  0  0  0  0  0  0  0  0  0  0  0
  140.6480   70.5370  228.1070 C   0  0  0  0  0  0  0  0  0  0  0  0
  140.7310   71.2640  226.9250 C   0  0  0  0  0  0  0  0  0  0  0  0
  140.2400   70.6950  225.7670 C   0  0  0  0  0  0  0  0  0  0  0  0
  140.3150   71.3880  224.6190 N   0  0  0  0  0  0  0  0  0  0  0  0
  139.5630   73.5320  223.2740 H   0  0  0  0  0  0  0  0  0  0  0  0
  138.9270   73.9070  220.6398 H   0  0  0  0  0  0  0  0  0  0  0  0
  140.0243   75.0146  221.7270 H   0  0  0  0  0  0  0  0  0  0  0  0
  143.0423   72.5657  221.9420 H   0  0  0  0  0  0  0  0  0  0  0  0
  142.4881   71.7501  220.4862 H   0  0  0  0  0  0  0  0  0  0  0  0
  144.6900   71.9424  219.6210 H   0  0  0  0  0  0  0  0  0  0  0  0
  145.5490   71.9790  221.6310 H   0  0  0  0  0  0  0  0  0  0  0  0
  145.3937   74.5846  219.5380 H   0  0  0  0  0  0  0  0  0  0  0  0
  144.1776   74.0016  218.4416 H   0  0  0  0  0  0  0  0  0  0  0  0
  143.6938   75.2566  221.2926 H   0  0  0  0  0  0  0  0  0  0  0  0
  143.8583   76.8062  220.0847 H   0  0  0  0  0  0  0  0  0  0  0  0
  140.9423   76.4072  219.6042 H   0  0  0  0  0  0  0  0  0  0  0  0
  141.6818   76.7896  221.2014 H   0  0  0  0  0  0  0  0  0  0  0  0
  140.8714   78.7566  219.5652 H   0  0  0  0  0  0  0  0  0  0  0  0
  142.3602   78.9417  220.5190 H   0  0  0  0  0  0  0  0  0  0  0  0
  143.7449   78.4354  218.7181 H   0  0  0  0  0  0  0  0  0  0  0  0
  143.0159   81.0875  219.1455 H   0  0  0  0  0  0  0  0  0  0  0  0
  142.3154   83.0457  217.7387 H   0  0  0  0  0  0  0  0  0  0  0  0
  141.2404   82.6335  215.5256 H   0  0  0  0  0  0  0  0  0  0  0  0
  141.5265   78.4423  216.0688 H   0  0  0  0  0  0  0  0  0  0  0  0
  141.3428   77.1584  217.3842 H   0  0  0  0  0  0  0  0  0  0  0  0
  142.9303   77.4280  216.5803 H   0  0  0  0  0  0  0  0  0  0  0  0
  142.2969   75.1593  217.9403 H   0  0  0  0  0  0  0  0  0  0  0  0
  143.9726   75.8004  217.7853 H   0  0  0  0  0  0  0  0  0  0  0  0
  138.9168   69.2832  222.3819 H   0  0  0  0  0  0  0  0  0  0  0  0
  138.7461   67.9393  224.4962 H   0  0  0  0  0  0  0  0  0  0  0  0
  139.1488   67.7359  226.9099 H   0  0  0  0  0  0  0  0  0  0  0  0
  141.0311   70.9644  229.0454 H   0  0  0  0  0  0  0  0  0  0  0  0
  141.1775   72.2692  226.9127 H   0  0  0  0  0  0  0  0  0  0  0  0
  1  2  2  0
  2  3  1  0
  3  4  1  0
  4  5  1  0
  5  6  2  0
  5  7  1  0
  7  8  1  0
  8  9  1  0
  9 10  1  0
  9 11  1  0
 11 12  1  0
 12 13  1  0
 13 14  1  0
 14 15  1  0
 15 16  1  0
 16 17  1  0
 17 18  2  0
 18 19  1  0
 19 20  2  0
 20 21  1  0
 21 22  2  0
 16 23  1  0
 23 24  1  0
  2 25  1  0
 25 26  2  0
 26 27  1  0
 27 28  2  0
 28 29  1  0
 29 30  2  0
 30 31  1  0
 30 32  1  0
 32 33  2  0
 33 34  1  0
 34 35  2  0
 12  7  1  0
 24 13  1  0
 35 25  1  0
 22 17  1  0
 34 28  1  0
  3 36  1  0
  4 37  1  0
  4 38  1  0
  8 39  1  0
  8 40  1  0
  9 41  1  6
 10 42  1  0
 11 43  1  0
 11 44  1  0
 12 45  1  1
 13 46  1  6
 14 47  1  0
 14 48  1  0
 15 49  1  0
 15 50  1  0
 16 51  1  1
 18 52  1  0
 19 53  1  0
 20 54  1  0
 22 55  1  0
 23 56  1  0
 23 57  1  0
 24 58  1  0
 24 59  1  0
 26 60  1  0
 27 61  1  0
 29 62  1  0
 32 63  1  0
 33 64  1  0
M  END
>  <smiles>  (36) 
O=C(NCC(=O)N1C[C@H](O)C[C@H]1C1CCC(c2cccnc2)CC1)c1ccc2cc(F)ccc2n1

>  <score_type>  (36) 
oracle

>  <origin>  (36) 
autodockgpu

>  <m_score__min__energy>  (36) 
-9.5600000000000005

>  <m_primary>  (36) 
energy

>  <rmsd>  (36) 
2.925448008561715

>  <m_score__min__rmsd>  (36) 
2.925448008561715

>  <meeko>  (36) 
{"free_energy": -8.63, "intermolecular_energy": -10.71, "internal_energy": -1.84, "cluster_size": 1, "cluster_id": 4, "rank_in_cluster": 1}

>  <energy>  (36) 
-7.28

>  <cluster_rmsd>  (36) 
1.24

>  <cluster>  (36) 
7

$$$$

     RDKit          3D

 64 68  0  0  1  0  0  0  0  0999 V2000
  138.3570   74.6820  221.9600 O   0  0  0  0  0  0  0  0  0  0  0  0
  139.5030   75.1830  222.0880 C   0  0  0  0  0  0  0  0  0  0  0  0
  140.6640   74.3360  221.9780 N   0  0  0  0  0  0  0  0  0  0  0  0
  140.6390   72.9540  221.7240 C   0  0  0  0  0  0  0  0  0  0  0  0
  141.3890   72.3480  220.6500 C   0  0  0  0  0  0  0  0  0  0  0  0
  140.7040   71.5190  219.9200 O   0  0  0  0  0  0  0  0  0  0  0  0
  142.7400   72.5010  220.2640 N   0  0  0  0  0  0  0  0  0  0  0  0
  143.7100   71.4100  220.1310 C   0  0  0  0  0  0  0  0  0  0  0  0
  144.7200   71.9320  219.0980 C   0  0  2  0  0  0  0  0  0  0  0  0
  145.9490   72.1000  219.7120 O   0  0  0  0  0  0  0  0  0  0  0  0
  144.2010   73.2780  218.6800 C   0  0  0  0  0  0  0  0  0  0  0  0
  143.4720   73.7150  219.9430 C   0  0  1  0  0  0  0  0  0  0  0  0
  142.7260   74.9560  219.7760 C   0  0  2  0  0  0  0  0  0  0  0  0
  141.6310   75.0260  218.7780 C   0  0  0  0  0  0  0  0  0  0  0  0
  140.7160   76.2190  219.0820 C   0  0  0  0  0  0  0  0  0  0  0  0
  141.5940   77.3140  219.6590 C   0  0  2  0  0  0  0  0  0  0  0  0
  140.9670   78.6380  219.4170 C   0  0  0  0  0  0  0  0  0  0  0  0
  141.6690   79.8250  219.4450 C   0  0  0  0  0  0  0  0  0  0  0  0
  140.9840   81.0130  219.2050 C   0  0  0  0  0  0  0  0  0  0  0  0
  139.6140   80.9630  218.9430 C   0  0  0  0  0  0  0  0  0  0  0  0
  138.9540   79.7930  218.9210 N   0  0  0  0  0  0  0  0  0  0  0  0
  139.5940   78.6290  219.1510 C   0  0  0  0  0  0  0  0  0  0  0  0
  142.9470   77.3360  219.0370 C   0  0  0  0  0  0  0  0  0  0  0  0
  143.7090   76.0850  219.4140 C   0  0  0  0  0  0  0  0  0  0  0  0
  139.6800   76.6190  222.3470 C   0  0  0  0  0  0  0  0  0  0  0  0
  138.5570   77.4200  222.3790 C   0  0  0  0  0  0  0  0  0  0  0  0
  138.7740   78.7740  222.6280 C   0  0  0  0  0  0  0  0  0  0  0  0
  140.0440   79.2820  222.8300 C   0  0  0  0  0  0  0  0  0  0  0  0
  140.2930   80.6110  223.0780 C   0  0  0  0  0  0  0  0  0  0  0  0
  141.5880   81.0880  223.2780 C   0  0  0  0  0  0  0  0  0  0  0  0
  141.8500   82.3870  223.5230 F   0  0  0  0  0  0  0  0  0  0  0  0
  142.6570   80.2100  223.2290 C   0  0  0  0  0  0  0  0  0  0  0  0
  142.4320   78.8610  222.9800 C   0  0  0  0  0  0  0  0  0  0  0  0
  141.1340   78.4340  222.7880 C   0  0  0  0  0  0  0  0  0  0  0  0
  140.9050   77.1330  222.5470 N   0  0  0  0  0  0  0  0  0  0  0  0
  141.5950   74.8310  222.1050 H   0  0  0  0  0  0  0  0  0  0  0  0
  140.9828   72.4675  222.6487 H   0  0  0  0  0  0  0  0  0  0  0  0
  139.6027   72.8062  221.3859 H   0  0  0  0  0  0  0  0  0  0  0  0
  144.2042   71.2072  221.0926 H   0  0  0  0  0  0  0  0  0  0  0  0
  143.2418   70.4634  219.8233 H   0  0  0  0  0  0  0  0  0  0  0  0
  144.8368   71.2441  218.2476 H   0  0  0  0  0  0  0  0  0  0  0  0
  145.9420   71.6710  220.6020 H   0  0  0  0  0  0  0  0  0  0  0  0
  145.0211   73.9666  218.4285 H   0  0  0  0  0  0  0  0  0  0  0  0
  143.5725   73.2607  217.7774 H   0  0  0  0  0  0  0  0  0  0  0  0
  144.0996   74.0318  220.7890 H   0  0  0  0  0  0  0  0  0  0  0  0
  142.2208   75.0433  220.7492 H   0  0  0  0  0  0  0  0  0  0  0  0
  142.0619   75.1448  217.7729 H   0  0  0  0  0  0  0  0  0  0  0  0
  141.0411   74.0987  218.8252 H   0  0  0  0  0  0  0  0  0  0  0  0
  140.2325   76.5696  218.1583 H   0  0  0  0  0  0  0  0  0  0  0  0
  139.9236   75.9362  219.7906 H   0  0  0  0  0  0  0  0  0  0  0  0
  141.6974   77.1071  220.7344 H   0  0  0  0  0  0  0  0  0  0  0  0
  142.7491   79.8328  219.6529 H   0  0  0  0  0  0  0  0  0  0  0  0
  141.5145   81.9765  219.2216 H   0  0  0  0  0  0  0  0  0  0  0  0
  139.0655   81.8971  218.7513 H   0  0  0  0  0  0  0  0  0  0  0  0
  139.0402   77.6788  219.1296 H   0  0  0  0  0  0  0  0  0  0  0  0
  142.8444   77.3844  217.9429 H   0  0  0  0  0  0  0  0  0  0  0  0
  143.4970   78.2172  219.3990 H   0  0  0  0  0  0  0  0  0  0  0  0
  144.3307   75.7675  218.5639 H   0  0  0  0  0  0  0  0  0  0  0  0
  144.3467   76.3001  220.2841 H   0  0  0  0  0  0  0  0  0  0  0  0
  137.5479   77.0131  222.2172 H   0  0  0  0  0  0  0  0  0  0  0  0
  137.9122   79.4565  222.6648 H   0  0  0  0  0  0  0  0  0  0  0  0
  139.4495   81.3159  223.1197 H   0  0  0  0  0  0  0  0  0  0  0  0
  143.6814   80.5786  223.3866 H   0  0  0  0  0  0  0  0  0  0  0  0
  143.2700   78.1498  222.9370 H   0  0  0  0  0  0  0  0  0  0  0  0
  1  2  2  0
  2  3  1  0
  3  4  1  0
  4  5  1  0
  5  6  2  0
  5  7  1  0
  7  8  1  0
  8  9  1  0
  9 10  1  0
  9 11  1  0
 11 12  1  0
 12 13  1  0
 13 14  1  0
 14 15  1  0
 15 16  1  0
 16 17  1  0
 17 18  2  0
 18 19  1  0
 19 20  2  0
 20 21  1  0
 21 22  2  0
 16 23  1  0
 23 24  1  0
  2 25  1  0
 25 26  2  0
 26 27  1  0
 27 28  2  0
 28 29  1  0
 29 30  2  0
 30 31  1  0
 30 32  1  0
 32 33  2  0
 33 34  1  0
 34 35  2  0
 12  7  1  0
 24 13  1  0
 35 25  1  0
 22 17  1  0
 34 28  1  0
  3 36  1  0
  4 37  1  0
  4 38  1  0
  8 39  1  0
  8 40  1  0
  9 41  1  6
 10 42  1  0
 11 43  1  0
 11 44  1  0
 12 45  1  1
 13 46  1  1
 14 47  1  0
 14 48  1  0
 15 49  1  0
 15 50  1  0
 16 51  1  1
 18 52  1  0
 19 53  1  0
 20 54  1  0
 22 55  1  0
 23 56  1  0
 23 57  1  0
 24 58  1  0
 24 59  1  0
 26 60  1  0
 27 61  1  0
 29 62  1  0
 32 63  1  0
 33 64  1  0
M  END
>  <smiles>  (37) 
O=C(NCC(=O)N1C[C@H](O)C[C@H]1C1CCC(c2cccnc2)CC1)c1ccc2cc(F)ccc2n1

>  <score_type>  (37) 
oracle

>  <origin>  (37) 
autodockgpu

>  <m_score__min__energy>  (37) 
-9.5600000000000005

>  <m_primary>  (37) 
energy

>  <rmsd>  (37) 
7.751527067058304

>  <m_score__min__rmsd>  (37) 
7.751527067058304

>  <meeko>  (37) 
{"free_energy": -6.72, "intermolecular_energy": -8.81, "internal_energy": -4.21, "cluster_size": 14, "cluster_id": 8, "rank_in_cluster": 10}

>  <energy>  (37) 
-7.36

>  <cluster_rmsd>  (37) 
0.0

>  <cluster>  (37) 
8

$$$$

     RDKit          3D

 64 68  0  0  1  0  0  0  0  0999 V2000
  139.1340   71.1330  221.3860 O   0  0  0  0  0  0  0  0  0  0  0  0
  139.4070   71.5910  222.5250 C   0  0  0  0  0  0  0  0  0  0  0  0
  139.5730   73.0120  222.6970 N   0  0  0  0  0  0  0  0  0  0  0  0
  139.4470   73.9730  221.6790 C   0  0  0  0  0  0  0  0  0  0  0  0
  139.9480   75.3200  221.8160 C   0  0  0  0  0  0  0  0  0  0  0  0
  139.2720   76.0610  222.6410 O   0  0  0  0  0  0  0  0  0  0  0  0
  141.0440   75.9660  221.1990 N   0  0  0  0  0  0  0  0  0  0  0  0
  142.0400   75.3110  220.3450 C   0  0  0  0  0  0  0  0  0  0  0  0
  142.5440   76.4360  219.4290 C   0  0  2  0  0  0  0  0  0  0  0  0
  143.8760   76.6840  219.7070 O   0  0  0  0  0  0  0  0  0  0  0  0
  141.7380   77.6460  219.8060 C   0  0  0  0  0  0  0  0  0  0  0  0
  141.4490   77.3590  221.2730 C   0  0  1  0  0  0  0  0  0  0  0  0
  140.5360   78.3200  221.8780 C   0  0  2  0  0  0  0  0  0  0  0  0
  140.2170   79.5800  221.1640 C   0  0  0  0  0  0  0  0  0  0  0  0
  138.9360   80.2010  221.7350 C   0  0  0  0  0  0  0  0  0  0  0  0
  138.9100   79.8750  223.2170 C   0  0  2  0  0  0  0  0  0  0  0  0
  138.0990   80.8890  223.9370 C   0  0  0  0  0  0  0  0  0  0  0  0
  137.7980   80.8020  225.2820 C   0  0  0  0  0  0  0  0  0  0  0  0
  137.0290   81.8080  225.8610 C   0  0  0  0  0  0  0  0  0  0  0  0
  136.5900   82.8670  225.0650 C   0  0  0  0  0  0  0  0  0  0  0  0
  136.8970   82.9270  223.7580 N   0  0  0  0  0  0  0  0  0  0  0  0
  137.6400   81.9660  223.1740 C   0  0  0  0  0  0  0  0  0  0  0  0
  140.2730   79.8790  223.8170 C   0  0  0  0  0  0  0  0  0  0  0  0
  141.0880   78.7350  223.2540 C   0  0  0  0  0  0  0  0  0  0  0  0
  139.5600   70.7010  223.6850 C   0  0  0  0  0  0  0  0  0  0  0  0
  139.1080   69.4030  223.5760 C   0  0  0  0  0  0  0  0  0  0  0  0
  139.2730   68.5960  224.7010 C   0  0  0  0  0  0  0  0  0  0  0  0
  139.8580   69.0760  225.8600 C   0  0  0  0  0  0  0  0  0  0  0  0
  140.0360   68.3080  226.9860 C   0  0  0  0  0  0  0  0  0  0  0  0
  140.6300   68.8260  228.1370 C   0  0  0  0  0  0  0  0  0  0  0  0
  140.8130   68.0880  229.2500 F   0  0  0  0  0  0  0  0  0  0  0  0
  141.0550   70.1430  228.1560 C   0  0  0  0  0  0  0  0  0  0  0  0
  140.8850   70.9400  227.0300 C   0  0  0  0  0  0  0  0  0  0  0  0
  140.2930   70.3860  225.9140 C   0  0  0  0  0  0  0  0  0  0  0  0
  140.1250   71.1470  224.8200 N   0  0  0  0  0  0  0  0  0  0  0  0
  139.8100   73.3200  223.6850 H   0  0  0  0  0  0  0  0  0  0  0  0
  139.9477   73.5495  220.7958 H   0  0  0  0  0  0  0  0  0  0  0  0
  138.3597   74.1384  221.6592 H   0  0  0  0  0  0  0  0  0  0  0  0
  142.8628   74.9005  220.9486 H   0  0  0  0  0  0  0  0  0  0  0  0
  141.6223   74.4630  219.7824 H   0  0  0  0  0  0  0  0  0  0  0  0
  142.4442   76.1796  218.3640 H   0  0  0  0  0  0  0  0  0  0  0  0
  143.9580   77.4980  220.2620 H   0  0  0  0  0  0  0  0  0  0  0  0
  142.3184   78.5722  219.6826 H   0  0  0  0  0  0  0  0  0  0  0  0
  140.8403   77.8022  219.1897 H   0  0  0  0  0  0  0  0  0  0  0  0
  142.2864   77.4888  221.9743 H   0  0  0  0  0  0  0  0  0  0  0  0
  139.5915   77.7562  221.8816 H   0  0  0  0  0  0  0  0  0  0  0  0
  141.0500   80.2880  221.2860 H   0  0  0  0  0  0  0  0  0  0  0  0
  140.0652   79.3601  220.0970 H   0  0  0  0  0  0  0  0  0  0  0  0
  138.9460   81.2910  221.5877 H   0  0  0  0  0  0  0  0  0  0  0  0
  138.0452   79.8011  221.2285 H   0  0  0  0  0  0  0  0  0  0  0  0
  138.4782   78.8681  223.3161 H   0  0  0  0  0  0  0  0  0  0  0  0
  138.1586   79.9548  225.8839 H   0  0  0  0  0  0  0  0  0  0  0  0
  136.7714   81.7687  226.9297 H   0  0  0  0  0  0  0  0  0  0  0  0
  135.9825   83.6660  225.5150 H   0  0  0  0  0  0  0  0  0  0  0  0
  137.8836   82.0291  222.1032 H   0  0  0  0  0  0  0  0  0  0  0  0
  140.7714   80.8313  223.5833 H   0  0  0  0  0  0  0  0  0  0  0  0
  140.1886   79.7607  224.9074 H   0  0  0  0  0  0  0  0  0  0  0  0
  142.1353   79.0533  223.1451 H   0  0  0  0  0  0  0  0  0  0  0  0
  141.0272   77.8774  223.9402 H   0  0  0  0  0  0  0  0  0  0  0  0
  138.6433   69.0253  222.6533 H   0  0  0  0  0  0  0  0  0  0  0  0
  138.9296   67.5515  224.6666 H   0  0  0  0  0  0  0  0  0  0  0  0
  139.7021   67.2599  226.9793 H   0  0  0  0  0  0  0  0  0  0  0  0
  141.5259   70.5577  229.0595 H   0  0  0  0  0  0  0  0  0  0  0  0
  141.2152   71.9893  227.0288 H   0  0  0  0  0  0  0  0  0  0  0  0
  1  2  2  0
  2  3  1  0
  3  4  1  0
  4  5  1  0
  5  6  2  0
  5  7  1  0
  7  8  1  0
  8  9  1  0
  9 10  1  0
  9 11  1  0
 11 12  1  0
 12 13  1  0
 13 14  1  0
 14 15  1  0
 15 16  1  0
 16 17  1  0
 17 18  2  0
 18 19  1  0
 19 20  2  0
 20 21  1  0
 21 22  2  0
 16 23  1  0
 23 24  1  0
  2 25  1  0
 25 26  2  0
 26 27  1  0
 27 28  2  0
 28 29  1  0
 29 30  2  0
 30 31  1  0
 30 32  1  0
 32 33  2  0
 33 34  1  0
 34 35  2  0
 12  7  1  0
 24 13  1  0
 35 25  1  0
 22 17  1  0
 34 28  1  0
  3 36  1  0
  4 37  1  0
  4 38  1  0
  8 39  1  0
  8 40  1  0
  9 41  1  6
 10 42  1  0
 11 43  1  0
 11 44  1  0
 12 45  1  1
 13 46  1  1
 14 47  1  0
 14 48  1  0
 15 49  1  0
 15 50  1  0
 16 51  1  6
 18 52  1  0
 19 53  1  0
 20 54  1  0
 22 55  1  0
 23 56  1  0
 23 57  1  0
 24 58  1  0
 24 59  1  0
 26 60  1  0
 27 61  1  0
 29 62  1  0
 32 63  1  0
 33 64  1  0
M  END
>  <smiles>  (38) 
O=C(NCC(=O)N1C[C@H](O)C[C@H]1C1CCC(c2cccnc2)CC1)c1ccc2cc(F)ccc2n1

>  <score_type>  (38) 
oracle

>  <origin>  (38) 
autodockgpu

>  <m_score__min__energy>  (38) 
-9.5600000000000005

>  <m_primary>  (38) 
energy

>  <rmsd>  (38) 
1.6800929837343044

>  <m_score__min__rmsd>  (38) 
1.6800929837343044

>  <meeko>  (38) 
{"free_energy": -9.56, "intermolecular_energy": -11.65, "internal_energy": -1.74, "cluster_size": 14, "cluster_id": 1, "rank_in_cluster": 1}

>  <energy>  (38) 
-7.25

>  <cluster_rmsd>  (38) 
0.17

>  <cluster>  (38) 
8

$$$$

     RDKit          3D

 64 68  0  0  1  0  0  0  0  0999 V2000
  141.4050   72.5400  222.1060 O   0  0  0  0  0  0  0  0  0  0  0  0
  140.3140   72.3770  222.7110 C   0  0  0  0  0  0  0  0  0  0  0  0
  139.1740   73.1800  222.3480 N   0  0  0  0  0  0  0  0  0  0  0  0
  139.1590   74.1580  221.3390 C   0  0  0  0  0  0  0  0  0  0  0  0
  139.7480   75.4640  221.5150 C   0  0  0  0  0  0  0  0  0  0  0  0
  139.0730   76.2550  222.2940 O   0  0  0  0  0  0  0  0  0  0  0  0
  140.9300   76.0260  220.9790 N   0  0  0  0  0  0  0  0  0  0  0  0
  141.9210   75.3030  220.1760 C   0  0  0  0  0  0  0  0  0  0  0  0
  142.5710   76.3940  219.3130 C   0  0  2  0  0  0  0  0  0  0  0  0
  143.8980   76.5290  219.6770 O   0  0  0  0  0  0  0  0  0  0  0  0
  141.8430   77.6610  219.6600 C   0  0  0  0  0  0  0  0  0  0  0  0
  141.4410   77.3800  221.1010 C   0  0  1  0  0  0  0  0  0  0  0  0
  140.5720   78.4060  221.6660 C   0  0  2  0  0  0  0  0  0  0  0  0
  140.5410   79.7580  221.0590 C   0  0  0  0  0  0  0  0  0  0  0  0
  139.2750   80.5040  221.4960 C   0  0  0  0  0  0  0  0  0  0  0  0
  138.9610   80.0530  222.9100 C   0  0  2  0  0  0  0  0  0  0  0  0
  138.1790   81.1040  223.6080 C   0  0  0  0  0  0  0  0  0  0  0  0
  137.6900   82.2290  222.9760 C   0  0  0  0  0  0  0  0  0  0  0  0
  136.9680   83.1560  223.7250 C   0  0  0  0  0  0  0  0  0  0  0  0
  136.7630   82.9160  225.0840 C   0  0  0  0  0  0  0  0  0  0  0  0
  137.2510   81.8110  225.6750 N   0  0  0  0  0  0  0  0  0  0  0  0
  137.9530   80.9000  224.9730 C   0  0  0  0  0  0  0  0  0  0  0  0
  140.1940   79.8030  223.7060 C   0  0  0  0  0  0  0  0  0  0  0  0
  140.9360   78.6090  223.1480 C   0  0  0  0  0  0  0  0  0  0  0  0
  140.1820   71.3800  223.7840 C   0  0  0  0  0  0  0  0  0  0  0  0
  139.5610   70.1850  223.4920 C   0  0  0  0  0  0  0  0  0  0  0  0
  139.4590   69.2710  224.5400 C   0  0  0  0  0  0  0  0  0  0  0  0
  139.9540   69.5530  225.8010 C   0  0  0  0  0  0  0  0  0  0  0  0
  139.8700   68.6750  226.8550 C   0  0  0  0  0  0  0  0  0  0  0  0
  140.3810   68.9940  228.1130 C   0  0  0  0  0  0  0  0  0  0  0  0
  140.3080   68.1460  229.1590 F   0  0  0  0  0  0  0  0  0  0  0  0
  140.9900   70.2200  228.3160 C   0  0  0  0  0  0  0  0  0  0  0  0
  141.0870   71.1250  227.2650 C   0  0  0  0  0  0  0  0  0  0  0  0
  140.5680   70.7670  226.0380 C   0  0  0  0  0  0  0  0  0  0  0  0
  140.6560   71.6340  225.0160 N   0  0  0  0  0  0  0  0  0  0  0  0
  138.2930   72.9890  222.9090 H   0  0  0  0  0  0  0  0  0  0  0  0
  139.6649   73.7093  220.4714 H   0  0  0  0  0  0  0  0  0  0  0  0
  138.0879   74.4007  221.2766 H   0  0  0  0  0  0  0  0  0  0  0  0
  142.6685   74.8186  220.8215 H   0  0  0  0  0  0  0  0  0  0  0  0
  141.4717   74.4997  219.5736 H   0  0  0  0  0  0  0  0  0  0  0  0
  142.5184   76.1596  218.2396 H   0  0  0  0  0  0  0  0  0  0  0  0
  144.4820   76.2690  218.9230 H   0  0  0  0  0  0  0  0  0  0  0  0
  142.5026   78.5384  219.5884 H   0  0  0  0  0  0  0  0  0  0  0  0
  141.0013   77.8976  218.9925 H   0  0  0  0  0  0  0  0  0  0  0  0
  142.2412   77.4317  221.8540 H   0  0  0  0  0  0  0  0  0  0  0  0
  139.5752   77.9877  221.4623 H   0  0  0  0  0  0  0  0  0  0  0  0
  141.4267   80.3232  221.3846 H   0  0  0  0  0  0  0  0  0  0  0  0
  140.5406   79.6603  219.9634 H   0  0  0  0  0  0  0  0  0  0  0  0
  139.4502   81.5898  221.4758 H   0  0  0  0  0  0  0  0  0  0  0  0
  138.4365   80.2851  220.8185 H   0  0  0  0  0  0  0  0  0  0  0  0
  138.3917   79.1153  222.8285 H   0  0  0  0  0  0  0  0  0  0  0  0
  137.8666   82.3908  221.9024 H   0  0  0  0  0  0  0  0  0  0  0  0
  136.5655   84.0638  223.2517 H   0  0  0  0  0  0  0  0  0  0  0  0
  136.1929   83.6424  225.6818 H   0  0  0  0  0  0  0  0  0  0  0  0
  138.3460   80.0011  225.4706 H   0  0  0  0  0  0  0  0  0  0  0  0
  140.8434   80.6896  223.6600 H   0  0  0  0  0  0  0  0  0  0  0  0
  139.9148   79.5992  224.7503 H   0  0  0  0  0  0  0  0  0  0  0  0
  142.0191   78.7796  223.2367 H   0  0  0  0  0  0  0  0  0  0  0  0
  140.6513   77.7106  223.7152 H   0  0  0  0  0  0  0  0  0  0  0  0
  139.1679   69.9646  222.4886 H   0  0  0  0  0  0  0  0  0  0  0  0
  138.9726   68.3010  224.3597 H   0  0  0  0  0  0  0  0  0  0  0  0
  139.3885   67.6978  226.7029 H   0  0  0  0  0  0  0  0  0  0  0  0
  141.3959   70.4776  229.3054 H   0  0  0  0  0  0  0  0  0  0  0  0
  141.5668   72.1044  227.4086 H   0  0  0  0  0  0  0  0  0  0  0  0
  1  2  2  0
  2  3  1  0
  3  4  1  0
  4  5  1  0
  5  6  2  0
  5  7  1  0
  7  8  1  0
  8  9  1  0
  9 10  1  0
  9 11  1  0
 11 12  1  0
 12 13  1  0
 13 14  1  0
 14 15  1  0
 15 16  1  0
 16 17  1  0
 17 18  2  0
 18 19  1  0
 19 20  2  0
 20 21  1  0
 21 22  2  0
 16 23  1  0
 23 24  1  0
  2 25  1  0
 25 26  2  0
 26 27  1  0
 27 28  2  0
 28 29  1  0
 29 30  2  0
 30 31  1  0
 30 32  1  0
 32 33  2  0
 33 34  1  0
 34 35  2  0
 12  7  1  0
 24 13  1  0
 35 25  1  0
 22 17  1  0
 34 28  1  0
  3 36  1  0
  4 37  1  0
  4 38  1  0
  8 39  1  0
  8 40  1  0
  9 41  1  6
 10 42  1  0
 11 43  1  0
 11 44  1  0
 12 45  1  1
 13 46  1  1
 14 47  1  0
 14 48  1  0
 15 49  1  0
 15 50  1  0
 16 51  1  6
 18 52  1  0
 19 53  1  0
 20 54  1  0
 22 55  1  0
 23 56  1  0
 23 57  1  0
 24 58  1  0
 24 59  1  0
 26 60  1  0
 27 61  1  0
 29 62  1  0
 32 63  1  0
 33 64  1  0
M  END
>  <smiles>  (39) 
O=C(NCC(=O)N1C[C@H](O)C[C@H]1C1CCC(c2cccnc2)CC1)c1ccc2cc(F)ccc2n1

>  <score_type>  (39) 
oracle

>  <origin>  (39) 
autodockgpu

>  <m_score__min__energy>  (39) 
-9.5600000000000005

>  <m_primary>  (39) 
energy

>  <rmsd>  (39) 
1.75432949995016

>  <m_score__min__rmsd>  (39) 
1.75432949995016

>  <meeko>  (39) 
{"free_energy": -9.27, "intermolecular_energy": -11.36, "internal_energy": -1.53, "cluster_size": 14, "cluster_id": 1, "rank_in_cluster": 8}

>  <energy>  (39) 
-6.99

>  <cluster_rmsd>  (39) 
0.95

>  <cluster>  (39) 
8

$$$$

     RDKit          3D

 64 68  0  0  1  0  0  0  0  0999 V2000
  141.3140   72.0510  221.2950 O   0  0  0  0  0  0  0  0  0  0  0  0
  140.6070   72.4730  222.2460 C   0  0  0  0  0  0  0  0  0  0  0  0
  140.1260   73.8310  222.2240 N   0  0  0  0  0  0  0  0  0  0  0  0
  140.3710   74.7620  221.1990 C   0  0  0  0  0  0  0  0  0  0  0  0
  140.9830   76.0460  221.4470 C   0  0  0  0  0  0  0  0  0  0  0  0
  141.0870   76.3560  222.7050 O   0  0  0  0  0  0  0  0  0  0  0  0
  141.4820   77.0210  220.5530 N   0  0  0  0  0  0  0  0  0  0  0  0
  142.2640   76.7390  219.3450 C   0  0  0  0  0  0  0  0  0  0  0  0
  141.9750   77.9340  218.4250 C   0  0  2  0  0  0  0  0  0  0  0  0
  143.1400   78.6570  218.2430 O   0  0  0  0  0  0  0  0  0  0  0  0
  140.9900   78.7840  219.1760 C   0  0  0  0  0  0  0  0  0  0  0  0
  141.3710   78.4680  220.6160 C   0  0  1  0  0  0  0  0  0  0  0  0
  140.4630   79.0560  221.5930 C   0  0  2  0  0  0  0  0  0  0  0  0
  140.8410   79.0800  223.0260 C   0  0  0  0  0  0  0  0  0  0  0  0
  139.9940   80.1140  223.7790 C   0  0  0  0  0  0  0  0  0  0  0  0
  138.6270   80.1270  223.1220 C   0  0  2  0  0  0  0  0  0  0  0  0
  137.6090   80.5960  224.0960 C   0  0  0  0  0  0  0  0  0  0  0  0
  137.9150   81.3690  225.1970 C   0  0  0  0  0  0  0  0  0  0  0  0
  136.8840   81.7560  226.0500 C   0  0  0  0  0  0  0  0  0  0  0  0
  135.5800   81.3510  225.7620 C   0  0  0  0  0  0  0  0  0  0  0  0
  135.3090   80.5980  224.6810 N   0  0  0  0  0  0  0  0  0  0  0  0
  136.2890   80.2110  223.8410 C   0  0  0  0  0  0  0  0  0  0  0  0
  138.2150   78.7750  222.6540 C   0  0  0  0  0  0  0  0  0  0  0  0
  139.1090   78.3260  221.5200 C   0  0  0  0  0  0  0  0  0  0  0  0
  140.2640   71.6040  223.3810 C   0  0  0  0  0  0  0  0  0  0  0  0
  139.4830   70.4940  223.1400 C   0  0  0  0  0  0  0  0  0  0  0  0
  139.1830   69.7000  224.2470 C   0  0  0  0  0  0  0  0  0  0  0  0
  139.6440   70.0140  225.5130 C   0  0  0  0  0  0  0  0  0  0  0  0
  139.3670   69.2530  226.6240 C   0  0  0  0  0  0  0  0  0  0  0  0
  139.8510   69.6000  227.8860 C   0  0  0  0  0  0  0  0  0  0  0  0
  139.5890   68.8670  228.9860 F   0  0  0  0  0  0  0  0  0  0  0  0
  140.6290   70.7350  228.0330 C   0  0  0  0  0  0  0  0  0  0  0  0
  140.9230   71.5200  226.9250 C   0  0  0  0  0  0  0  0  0  0  0  0
  140.4240   71.1390  225.6970 C   0  0  0  0  0  0  0  0  0  0  0  0
  140.7020   71.8900  224.6190 N   0  0  0  0  0  0  0  0  0  0  0  0
  139.5430   74.1150  223.0650 H   0  0  0  0  0  0  0  0  0  0  0  0
  141.0176   74.2511  220.4704 H   0  0  0  0  0  0  0  0  0  0  0  0
  139.3502   75.0512  220.9085 H   0  0  0  0  0  0  0  0  0  0  0  0
  143.3369   76.6773  219.5798 H   0  0  0  0  0  0  0  0  0  0  0  0
  141.9969   75.7767  218.8840 H   0  0  0  0  0  0  0  0  0  0  0  0
  141.5943   77.6188  217.4423 H   0  0  0  0  0  0  0  0  0  0  0  0
  143.2660   78.8560  217.2840 H   0  0  0  0  0  0  0  0  0  0  0  0
  141.1222   79.8520  218.9484 H   0  0  0  0  0  0  0  0  0  0  0  0
  139.9370   78.5812  218.9309 H   0  0  0  0  0  0  0  0  0  0  0  0
  142.3027   78.9185  220.9888 H   0  0  0  0  0  0  0  0  0  0  0  0
  140.4646   80.1127  221.2873 H   0  0  0  0  0  0  0  0  0  0  0  0
  140.6729   78.0846  223.4630 H   0  0  0  0  0  0  0  0  0  0  0  0
  141.9029   79.3533  223.1130 H   0  0  0  0  0  0  0  0  0  0  0  0
  139.9022   79.8291  224.8375 H   0  0  0  0  0  0  0  0  0  0  0  0
  140.4599   81.1096  223.7378 H   0  0  0  0  0  0  0  0  0  0  0  0
  138.6953   80.7998  222.2544 H   0  0  0  0  0  0  0  0  0  0  0  0
  138.9528   81.6737  225.3973 H   0  0  0  0  0  0  0  0  0  0  0  0
  137.0945   82.3714  226.9371 H   0  0  0  0  0  0  0  0  0  0  0  0
  134.7600   81.6527  226.4303 H   0  0  0  0  0  0  0  0  0  0  0  0
  136.0522   79.5961  222.9602 H   0  0  0  0  0  0  0  0  0  0  0  0
  138.2962   78.0608  223.4867 H   0  0  0  0  0  0  0  0  0  0  0  0
  137.1747   78.8171  222.2990 H   0  0  0  0  0  0  0  0  0  0  0  0
  139.2758   77.2414  221.5958 H   0  0  0  0  0  0  0  0  0  0  0  0
  138.6228   78.5638  220.5624 H   0  0  0  0  0  0  0  0  0  0  0  0
  139.1172   70.2483  222.1321 H   0  0  0  0  0  0  0  0  0  0  0  0
  138.5640   68.8011  224.1098 H   0  0  0  0  0  0  0  0  0  0  0  0
  138.7493   68.3493  226.5155 H   0  0  0  0  0  0  0  0  0  0  0  0
  141.0137   71.0150  229.0248 H   0  0  0  0  0  0  0  0  0  0  0  0
  141.5400   72.4252  227.0250 H   0  0  0  0  0  0  0  0  0  0  0  0
  1  2  2  0
  2  3  1  0
  3  4  1  0
  4  5  1  0
  5  6  2  0
  5  7  1  0
  7  8  1  0
  8  9  1  0
  9 10  1  0
  9 11  1  0
 11 12  1  0
 12 13  1  0
 13 14  1  0
 14 15  1  0
 15 16  1  0
 16 17  1  0
 17 18  2  0
 18 19  1  0
 19 20  2  0
 20 21  1  0
 21 22  2  0
 16 23  1  0
 23 24  1  0
  2 25  1  0
 25 26  2  0
 26 27  1  0
 27 28  2  0
 28 29  1  0
 29 30  2  0
 30 31  1  0
 30 32  1  0
 32 33  2  0
 33 34  1  0
 34 35  2  0
 12  7  1  0
 24 13  1  0
 35 25  1  0
 22 17  1  0
 34 28  1  0
  3 36  1  0
  4 37  1  0
  4 38  1  0
  8 39  1  0
  8 40  1  0
  9 41  1  6
 10 42  1  0
 11 43  1  0
 11 44  1  0
 12 45  1  1
 13 46  1  6
 14 47  1  0
 14 48  1  0
 15 49  1  0
 15 50  1  0
 16 51  1  6
 18 52  1  0
 19 53  1  0
 20 54  1  0
 22 55  1  0
 23 56  1  0
 23 57  1  0
 24 58  1  0
 24 59  1  0
 26 60  1  0
 27 61  1  0
 29 62  1  0
 32 63  1  0
 33 64  1  0
M  END
>  <smiles>  (40) 
O=C(NCC(=O)N1C[C@H](O)C[C@H]1C1CCC(c2cccnc2)CC1)c1ccc2cc(F)ccc2n1

>  <score_type>  (40) 
oracle

>  <origin>  (40) 
autodockgpu

>  <m_score__min__energy>  (40) 
-9.5600000000000005

>  <m_primary>  (40) 
energy

>  <rmsd>  (40) 
2.075291845467805

>  <m_score__min__rmsd>  (40) 
2.075291845467805

>  <meeko>  (40) 
{"free_energy": -9.28, "intermolecular_energy": -11.37, "internal_energy": -1.45, "cluster_size": 14, "cluster_id": 1, "rank_in_cluster": 7}

>  <energy>  (40) 
-6.89

>  <cluster_rmsd>  (40) 
1.59

>  <cluster>  (40) 
8

$$$$

     RDKit          3D

 64 68  0  0  1  0  0  0  0  0999 V2000
  136.7370   76.8170  222.3370 O   0  0  0  0  0  0  0  0  0  0  0  0
  136.7080   75.6500  222.8050 C   0  0  0  0  0  0  0  0  0  0  0  0
  137.6350   74.6640  222.3090 N   0  0  0  0  0  0  0  0  0  0  0  0
  138.6110   74.8910  221.3240 C   0  0  0  0  0  0  0  0  0  0  0  0
  140.0230   74.7270  221.5770 C   0  0  0  0  0  0  0  0  0  0  0  0
  140.3150   73.7200  222.3440 O   0  0  0  0  0  0  0  0  0  0  0  0
  141.1350   75.4800  221.1350 N   0  0  0  0  0  0  0  0  0  0  0  0
  142.2520   74.9530  220.3450 C   0  0  0  0  0  0  0  0  0  0  0  0
  142.7780   76.1760  219.5790 C   0  0  2  0  0  0  0  0  0  0  0  0
  144.0560   76.4700  220.0190 O   0  0  0  0  0  0  0  0  0  0  0  0
  141.8640   77.3060  219.9600 C   0  0  0  0  0  0  0  0  0  0  0  0
  141.4440   76.8810  221.3600 C   0  0  1  0  0  0  0  0  0  0  0  0
  140.4150   77.7390  221.9360 C   0  0  2  0  0  0  0  0  0  0  0  0
  139.7770   78.7840  221.1000 C   0  0  0  0  0  0  0  0  0  0  0  0
  138.4570   79.2360  221.7370 C   0  0  0  0  0  0  0  0  0  0  0  0
  138.6410   79.1560  223.2410 C   0  0  2  0  0  0  0  0  0  0  0  0
  137.7130   80.1010  223.9100 C   0  0  0  0  0  0  0  0  0  0  0  0
  136.3420   80.0510  223.7580 C   0  0  0  0  0  0  0  0  0  0  0  0
  135.5600   80.9860  224.4300 C   0  0  0  0  0  0  0  0  0  0  0  0
  136.1860   81.9400  225.2340 C   0  0  0  0  0  0  0  0  0  0  0  0
  137.5240   81.9670  225.3640 N   0  0  0  0  0  0  0  0  0  0  0  0
  138.3030   81.0730  224.7240 C   0  0  0  0  0  0  0  0  0  0  0  0
  140.0260   79.5120  223.6570 C   0  0  0  0  0  0  0  0  0  0  0  0
  141.0000   78.4670  223.1610 C   0  0  0  0  0  0  0  0  0  0  0  0
  135.7440   75.2740  223.8490 C   0  0  0  0  0  0  0  0  0  0  0  0
  135.0750   76.2800  224.5130 C   0  0  0  0  0  0  0  0  0  0  0  0
  134.1710   75.8760  225.4940 C   0  0  0  0  0  0  0  0  0  0  0  0
  133.9610   74.5390  225.7820 C   0  0  0  0  0  0  0  0  0  0  0  0
  133.0770   74.1070  226.7420 C   0  0  0  0  0  0  0  0  0  0  0  0
  132.8900   72.7500  227.0050 C   0  0  0  0  0  0  0  0  0  0  0  0
  132.0290   72.3070  227.9430 F   0  0  0  0  0  0  0  0  0  0  0  0
  133.6060   71.8070  226.2870 C   0  0  0  0  0  0  0  0  0  0  0  0
  134.5050   72.2190  225.3110 C   0  0  0  0  0  0  0  0  0  0  0  0
  134.6570   73.5720  225.0840 C   0  0  0  0  0  0  0  0  0  0  0  0
  135.5240   73.9810  224.1430 N   0  0  0  0  0  0  0  0  0  0  0  0
  137.5430   73.7010  222.7480 H   0  0  0  0  0  0  0  0  0  0  0  0
  138.3691   74.2126  220.4926 H   0  0  0  0  0  0  0  0  0  0  0  0
  138.5337   75.9784  221.1772 H   0  0  0  0  0  0  0  0  0  0  0  0
  143.0318   74.5373  221.0000 H   0  0  0  0  0  0  0  0  0  0  0  0
  141.9473   74.1346  219.6762 H   0  0  0  0  0  0  0  0  0  0  0  0
  142.8053   76.0051  218.4927 H   0  0  0  0  0  0  0  0  0  0  0  0
  144.0270   77.2190  220.6630 H   0  0  0  0  0  0  0  0  0  0  0  0
  142.3957   78.2689  219.9727 H   0  0  0  0  0  0  0  0  0  0  0  0
  141.0269   77.4660  219.2646 H   0  0  0  0  0  0  0  0  0  0  0  0
  142.1956   76.9947  222.1551 H   0  0  0  0  0  0  0  0  0  0  0  0
  139.6109   77.0158  222.1369 H   0  0  0  0  0  0  0  0  0  0  0  0
  140.4545   79.6465  221.0160 H   0  0  0  0  0  0  0  0  0  0  0  0
  139.5717   78.3705  220.1016 H   0  0  0  0  0  0  0  0  0  0  0  0
  138.2279   80.2697  221.4387 H   0  0  0  0  0  0  0  0  0  0  0  0
  137.6234   78.5978  221.4086 H   0  0  0  0  0  0  0  0  0  0  0  0
  138.4357   78.1157  223.5334 H   0  0  0  0  0  0  0  0  0  0  0  0
  135.8764   79.2870  223.1181 H   0  0  0  0  0  0  0  0  0  0  0  0
  134.4647   80.9733  224.3290 H   0  0  0  0  0  0  0  0  0  0  0  0
  135.5750   82.6814  225.7697 H   0  0  0  0  0  0  0  0  0  0  0  0
  139.3962   81.1076  224.8411 H   0  0  0  0  0  0  0  0  0  0  0  0
  140.2938   80.4905  223.2318 H   0  0  0  0  0  0  0  0  0  0  0  0
  140.0728   79.5568  224.7551 H   0  0  0  0  0  0  0  0  0  0  0  0
  141.9444   78.9548  222.8779 H   0  0  0  0  0  0  0  0  0  0  0  0
  141.1827   77.7354  223.9619 H   0  0  0  0  0  0  0  0  0  0  0  0
  135.2450   77.3419  224.2816 H   0  0  0  0  0  0  0  0  0  0  0  0
  133.6103   76.6394  226.0534 H   0  0  0  0  0  0  0  0  0  0  0  0
  132.5034   74.8492  227.3165 H   0  0  0  0  0  0  0  0  0  0  0  0
  133.4635   70.7351  226.4887 H   0  0  0  0  0  0  0  0  0  0  0  0
  135.0827   71.4834  224.7321 H   0  0  0  0  0  0  0  0  0  0  0  0
  1  2  2  0
  2  3  1  0
  3  4  1  0
  4  5  1  0
  5  6  2  0
  5  7  1  0
  7  8  1  0
  8  9  1  0
  9 10  1  0
  9 11  1  0
 11 12  1  0
 12 13  1  0
 13 14  1  0
 14 15  1  0
 15 16  1  0
 16 17  1  0
 17 18  2  0
 18 19  1  0
 19 20  2  0
 20 21  1  0
 21 22  2  0
 16 23  1  0
 23 24  1  0
  2 25  1  0
 25 26  2  0
 26 27  1  0
 27 28  2  0
 28 29  1  0
 29 30  2  0
 30 31  1  0
 30 32  1  0
 32 33  2  0
 33 34  1  0
 34 35  2  0
 12  7  1  0
 24 13  1  0
 35 25  1  0
 22 17  1  0
 34 28  1  0
  3 36  1  0
  4 37  1  0
  4 38  1  0
  8 39  1  0
  8 40  1  0
  9 41  1  6
 10 42  1  0
 11 43  1  0
 11 44  1  0
 12 45  1  1
 13 46  1  1
 14 47  1  0
 14 48  1  0
 15 49  1  0
 15 50  1  0
 16 51  1  1
 18 52  1  0
 19 53  1  0
 20 54  1  0
 22 55  1  0
 23 56  1  0
 23 57  1  0
 24 58  1  0
 24 59  1  0
 26 60  1  0
 27 61  1  0
 29 62  1  0
 32 63  1  0
 33 64  1  0
M  END
>  <smiles>  (41) 
O=C(NCC(=O)N1C[C@H](O)C[C@H]1C1CCC(c2cccnc2)CC1)c1ccc2cc(F)ccc2n1

>  <score_type>  (41) 
oracle

>  <origin>  (41) 
autodockgpu

>  <m_score__min__energy>  (41) 
-9.5600000000000005

>  <m_primary>  (41) 
energy

>  <rmsd>  (41) 
5.781720206853215

>  <m_score__min__rmsd>  (41) 
5.781720206853215

>  <meeko>  (41) 
{"free_energy": -8.02, "intermolecular_energy": -10.1, "internal_energy": -2.69, "cluster_size": 6, "cluster_id": 7, "rank_in_cluster": 2}

>  <energy>  (41) 
-6.87

>  <cluster_rmsd>  (41) 
0.83

>  <cluster>  (41) 
8

$$$$

     RDKit          3D

 64 68  0  0  1  0  0  0  0  0999 V2000
  141.7080   72.4490  221.5670 O   0  0  0  0  0  0  0  0  0  0  0  0
  140.7250   72.6580  222.3220 C   0  0  0  0  0  0  0  0  0  0  0  0
  139.9340   73.8500  222.1440 N   0  0  0  0  0  0  0  0  0  0  0  0
  140.1590   74.8340  221.1660 C   0  0  0  0  0  0  0  0  0  0  0  0
  140.9690   76.0030  221.4120 C   0  0  0  0  0  0  0  0  0  0  0  0
  141.2800   76.1860  222.6600 O   0  0  0  0  0  0  0  0  0  0  0  0
  141.4740   76.9820  220.5250 N   0  0  0  0  0  0  0  0  0  0  0  0
  142.2380   76.7030  219.3050 C   0  0  0  0  0  0  0  0  0  0  0  0
  141.9590   77.9160  218.4050 C   0  0  2  0  0  0  0  0  0  0  0  0
  143.1340   78.6220  218.2190 O   0  0  0  0  0  0  0  0  0  0  0  0
  140.9970   78.7720  219.1790 C   0  0  0  0  0  0  0  0  0  0  0  0
  141.3880   78.4290  220.6090 C   0  0  1  0  0  0  0  0  0  0  0  0
  140.5010   79.0190  221.6050 C   0  0  2  0  0  0  0  0  0  0  0  0
  140.8810   78.9870  223.0370 C   0  0  0  0  0  0  0  0  0  0  0  0
  140.0700   80.0260  223.8220 C   0  0  0  0  0  0  0  0  0  0  0  0
  138.7040   80.1070  223.1670 C   0  0  2  0  0  0  0  0  0  0  0  0
  137.7030   80.5820  224.1560 C   0  0  0  0  0  0  0  0  0  0  0  0
  138.0240   81.3800  225.2340 C   0  0  0  0  0  0  0  0  0  0  0  0
  137.0080   81.7700  226.1030 C   0  0  0  0  0  0  0  0  0  0  0  0
  135.7040   81.3430  225.8550 C   0  0  0  0  0  0  0  0  0  0  0  0
  135.4180   80.5650  224.7960 N   0  0  0  0  0  0  0  0  0  0  0  0
  136.3830   80.1740  223.9400 C   0  0  0  0  0  0  0  0  0  0  0  0
  138.2450   78.7850  222.6590 C   0  0  0  0  0  0  0  0  0  0  0  0
  139.1230   78.3400  221.5100 C   0  0  0  0  0  0  0  0  0  0  0  0
  140.3670   71.7070  223.3850 C   0  0  0  0  0  0  0  0  0  0  0  0
  139.5490   70.6460  223.0620 C   0  0  0  0  0  0  0  0  0  0  0  0
  139.2360   69.7710  224.1020 C   0  0  0  0  0  0  0  0  0  0  0  0
  139.7210   69.9620  225.3830 C   0  0  0  0  0  0  0  0  0  0  0  0
  139.4330   69.1180  226.4300 C   0  0  0  0  0  0  0  0  0  0  0  0
  139.9420   69.3420  227.7090 C   0  0  0  0  0  0  0  0  0  0  0  0
  139.6700   68.5260  228.7480 F   0  0  0  0  0  0  0  0  0  0  0  0
  140.7570   70.4360  227.9420 C   0  0  0  0  0  0  0  0  0  0  0  0
  141.0630   71.3030  226.9000 C   0  0  0  0  0  0  0  0  0  0  0  0
  140.5380   71.0430  225.6500 C   0  0  0  0  0  0  0  0  0  0  0  0
  140.8280   71.8740  224.6360 N   0  0  0  0  0  0  0  0  0  0  0  0
  139.1260   73.9590  222.8250 H   0  0  0  0  0  0  0  0  0  0  0  0
  140.6217   74.3162  220.3129 H   0  0  0  0  0  0  0  0  0  0  0  0
  139.1570   75.2741  221.0553 H   0  0  0  0  0  0  0  0  0  0  0  0
  143.3122   76.6199  219.5270 H   0  0  0  0  0  0  0  0  0  0  0  0
  141.9500   75.7516  218.8339 H   0  0  0  0  0  0  0  0  0  0  0  0
  141.5619   77.6209  217.4226 H   0  0  0  0  0  0  0  0  0  0  0  0
  143.2510   78.8340  217.2610 H   0  0  0  0  0  0  0  0  0  0  0  0
  141.1451   79.8408  218.9651 H   0  0  0  0  0  0  0  0  0  0  0  0
  139.9380   78.5909  218.9428 H   0  0  0  0  0  0  0  0  0  0  0  0
  142.3315   78.8582  220.9774 H   0  0  0  0  0  0  0  0  0  0  0  0
  140.5387   80.0841  221.3328 H   0  0  0  0  0  0  0  0  0  0  0  0
  140.6797   77.9852  223.4443 H   0  0  0  0  0  0  0  0  0  0  0  0
  141.9517   79.2213  223.1303 H   0  0  0  0  0  0  0  0  0  0  0  0
  139.9681   79.7119  224.8713 H   0  0  0  0  0  0  0  0  0  0  0  0
  140.5702   81.0056  223.8108 H   0  0  0  0  0  0  0  0  0  0  0  0
  138.7957   80.8029  222.3201 H   0  0  0  0  0  0  0  0  0  0  0  0
  139.0620   81.7021  225.4041 H   0  0  0  0  0  0  0  0  0  0  0  0
  137.2310   82.4058  226.9725 H   0  0  0  0  0  0  0  0  0  0  0  0
  134.8961   81.6475  226.5366 H   0  0  0  0  0  0  0  0  0  0  0  0
  136.1339   79.5384  223.0775 H   0  0  0  0  0  0  0  0  0  0  0  0
  138.3017   78.0434  223.4695 H   0  0  0  0  0  0  0  0  0  0  0  0
  137.2066   78.8737  222.3071 H   0  0  0  0  0  0  0  0  0  0  0  0
  139.2515   77.2483  221.5516 H   0  0  0  0  0  0  0  0  0  0  0  0
  138.6458   78.6242  220.5605 H   0  0  0  0  0  0  0  0  0  0  0  0
  139.1648   70.4977  222.0420 H   0  0  0  0  0  0  0  0  0  0  0  0
  138.5867   68.9068  223.8981 H   0  0  0  0  0  0  0  0  0  0  0  0
  138.7860   68.2458  226.2545 H   0  0  0  0  0  0  0  0  0  0  0  0
  141.1612   70.6186  228.9486 H   0  0  0  0  0  0  0  0  0  0  0  0
  141.7093   72.1772  227.0675 H   0  0  0  0  0  0  0  0  0  0  0  0
  1  2  2  0
  2  3  1  0
  3  4  1  0
  4  5  1  0
  5  6  2  0
  5  7  1  0
  7  8  1  0
  8  9  1  0
  9 10  1  0
  9 11  1  0
 11 12  1  0
 12 13  1  0
 13 14  1  0
 14 15  1  0
 15 16  1  0
 16 17  1  0
 17 18  2  0
 18 19  1  0
 19 20  2  0
 20 21  1  0
 21 22  2  0
 16 23  1  0
 23 24  1  0
  2 25  1  0
 25 26  2  0
 26 27  1  0
 27 28  2  0
 28 29  1  0
 29 30  2  0
 30 31  1  0
 30 32  1  0
 32 33  2  0
 33 34  1  0
 34 35  2  0
 12  7  1  0
 24 13  1  0
 35 25  1  0
 22 17  1  0
 34 28  1  0
  3 36  1  0
  4 37  1  0
  4 38  1  0
  8 39  1  0
  8 40  1  0
  9 41  1  6
 10 42  1  0
 11 43  1  0
 11 44  1  0
 12 45  1  1
 13 46  1  6
 14 47  1  0
 14 48  1  0
 15 49  1  0
 15 50  1  0
 16 51  1  6
 18 52  1  0
 19 53  1  0
 20 54  1  0
 22 55  1  0
 23 56  1  0
 23 57  1  0
 24 58  1  0
 24 59  1  0
 26 60  1  0
 27 61  1  0
 29 62  1  0
 32 63  1  0
 33 64  1  0
M  END
>  <smiles>  (42) 
O=C(NCC(=O)N1C[C@H](O)C[C@H]1C1CCC(c2cccnc2)CC1)c1ccc2cc(F)ccc2n1

>  <score_type>  (42) 
oracle

>  <origin>  (42) 
autodockgpu

>  <m_score__min__energy>  (42) 
-9.5600000000000005

>  <m_primary>  (42) 
energy

>  <rmsd>  (42) 
2.0697627100985976

>  <m_score__min__rmsd>  (42) 
2.0697627100985976

>  <meeko>  (42) 
{"free_energy": -9.13, "intermolecular_energy": -11.22, "internal_energy": -1.46, "cluster_size": 14, "cluster_id": 1, "rank_in_cluster": 11}

>  <energy>  (42) 
-6.85

>  <cluster_rmsd>  (42) 
0.88

>  <cluster>  (42) 
8

$$$$

     RDKit          3D

 64 68  0  0  1  0  0  0  0  0999 V2000
  136.9000   76.7580  221.5030 O   0  0  0  0  0  0  0  0  0  0  0  0
  136.8950   75.8180  222.3380 C   0  0  0  0  0  0  0  0  0  0  0  0
  137.8100   74.7170  222.1720 N   0  0  0  0  0  0  0  0  0  0  0  0
  138.7490   74.5910  221.1330 C   0  0  0  0  0  0  0  0  0  0  0  0
  140.1720   74.6560  221.3610 C   0  0  0  0  0  0  0  0  0  0  0  0
  140.5970   73.8870  222.3180 O   0  0  0  0  0  0  0  0  0  0  0  0
  141.1780   75.4190  220.7230 N   0  0  0  0  0  0  0  0  0  0  0  0
  142.1950   74.8830  219.8130 C   0  0  0  0  0  0  0  0  0  0  0  0
  142.5540   76.0730  218.9110 C   0  0  2  0  0  0  0  0  0  0  0  0
  143.8670   76.4400  219.1470 O   0  0  0  0  0  0  0  0  0  0  0  0
  141.6530   77.1920  219.3530 C   0  0  0  0  0  0  0  0  0  0  0  0
  141.4520   76.8420  220.8210 C   0  0  1  0  0  0  0  0  0  0  0  0
  140.4770   77.6970  221.4870 C   0  0  2  0  0  0  0  0  0  0  0  0
  140.0090   78.9350  220.8190 C   0  0  0  0  0  0  0  0  0  0  0  0
  138.7000   79.4150  221.4580 C   0  0  0  0  0  0  0  0  0  0  0  0
  138.7680   79.0570  222.9310 C   0  0  2  0  0  0  0  0  0  0  0  0
  137.8950   79.9710  223.7090 C   0  0  0  0  0  0  0  0  0  0  0  0
  138.3810   80.9040  224.6020 C   0  0  0  0  0  0  0  0  0  0  0  0
  137.4740   81.7140  225.2820 C   0  0  0  0  0  0  0  0  0  0  0  0
  136.1100   81.5560  225.0370 C   0  0  0  0  0  0  0  0  0  0  0  0
  135.6630   80.6390  224.1620 N   0  0  0  0  0  0  0  0  0  0  0  0
  136.5200   79.8430  223.4910 C   0  0  0  0  0  0  0  0  0  0  0  0
  140.1490   79.1800  223.4750 C   0  0  0  0  0  0  0  0  0  0  0  0
  141.0450   78.1330  222.8500 C   0  0  0  0  0  0  0  0  0  0  0  0
  135.9720   75.8230  223.4810 C   0  0  0  0  0  0  0  0  0  0  0  0
  135.8230   74.6590  224.2050 C   0  0  0  0  0  0  0  0  0  0  0  0
  134.9370   74.7100  225.2800 C   0  0  0  0  0  0  0  0  0  0  0  0
  134.2470   75.8670  225.5980 C   0  0  0  0  0  0  0  0  0  0  0  0
  133.3670   75.9520  226.6510 C   0  0  0  0  0  0  0  0  0  0  0  0
  132.6890   77.1360  226.9420 C   0  0  0  0  0  0  0  0  0  0  0  0
  131.8230   77.2380  227.9700 F   0  0  0  0  0  0  0  0  0  0  0  0
  132.9010   78.2580  226.1600 C   0  0  0  0  0  0  0  0  0  0  0  0
  133.7860   78.1970  225.0900 C   0  0  0  0  0  0  0  0  0  0  0  0
  134.4350   77.0050  224.8390 C   0  0  0  0  0  0  0  0  0  0  0  0
  135.2920   76.9350  223.8080 N   0  0  0  0  0  0  0  0  0  0  0  0
  137.7400   73.9590  222.9130 H   0  0  0  0  0  0  0  0  0  0  0  0
  138.5589   73.6130  220.6667 H   0  0  0  0  0  0  0  0  0  0  0  0
  138.5713   75.5107  220.5563 H   0  0  0  0  0  0  0  0  0  0  0  0
  143.0766   74.5371  220.3726 H   0  0  0  0  0  0  0  0  0  0  0  0
  141.8356   74.0138  219.2426 H   0  0  0  0  0  0  0  0  0  0  0  0
  142.4365   75.8347  217.8436 H   0  0  0  0  0  0  0  0  0  0  0  0
  144.4500   76.0760  218.4360 H   0  0  0  0  0  0  0  0  0  0  0  0
  142.1383   78.1720  219.2343 H   0  0  0  0  0  0  0  0  0  0  0  0
  140.7205   77.2776  218.7759 H   0  0  0  0  0  0  0  0  0  0  0  0
  142.3010   77.0332  221.4938 H   0  0  0  0  0  0  0  0  0  0  0  0
  139.5915   77.0449  221.5142 H   0  0  0  0  0  0  0  0  0  0  0  0
  140.7745   79.7177  220.9255 H   0  0  0  0  0  0  0  0  0  0  0  0
  139.8343   78.7255  219.7534 H   0  0  0  0  0  0  0  0  0  0  0  0
  138.5981   80.5037  221.3381 H   0  0  0  0  0  0  0  0  0  0  0  0
  137.8316   78.9399  220.9782 H   0  0  0  0  0  0  0  0  0  0  0  0
  138.4388   78.0114  223.0220 H   0  0  0  0  0  0  0  0  0  0  0  0
  139.4627   81.0062  224.7735 H   0  0  0  0  0  0  0  0  0  0  0  0
  137.8283   82.4669  226.0014 H   0  0  0  0  0  0  0  0  0  0  0  0
  135.3878   82.1928  225.5690 H   0  0  0  0  0  0  0  0  0  0  0  0
  136.1397   79.0978  222.7768 H   0  0  0  0  0  0  0  0  0  0  0  0
  140.5433   80.1810  223.2459 H   0  0  0  0  0  0  0  0  0  0  0  0
  140.1233   79.0304  224.5645 H   0  0  0  0  0  0  0  0  0  0  0  0
  142.0514   78.5535  222.7072 H   0  0  0  0  0  0  0  0  0  0  0  0
  141.0960   77.2586  223.5155 H   0  0  0  0  0  0  0  0  0  0  0  0
  136.3726   73.7413  223.9486 H   0  0  0  0  0  0  0  0  0  0  0  0
  134.7824   73.8083  225.8908 H   0  0  0  0  0  0  0  0  0  0  0  0
  133.1935   75.0656  227.2788 H   0  0  0  0  0  0  0  0  0  0  0  0
  132.3707   79.1952  226.3846 H   0  0  0  0  0  0  0  0  0  0  0  0
  133.9651   79.0789  224.4574 H   0  0  0  0  0  0  0  0  0  0  0  0
  1  2  2  0
  2  3  1  0
  3  4  1  0
  4  5  1  0
  5  6  2  0
  5  7  1  0
  7  8  1  0
  8  9  1  0
  9 10  1  0
  9 11  1  0
 11 12  1  0
 12 13  1  0
 13 14  1  0
 14 15  1  0
 15 16  1  0
 16 17  1  0
 17 18  2  0
 18 19  1  0
 19 20  2  0
 20 21  1  0
 21 22  2  0
 16 23  1  0
 23 24  1  0
  2 25  1  0
 25 26  2  0
 26 27  1  0
 27 28  2  0
 28 29  1  0
 29 30  2  0
 30 31  1  0
 30 32  1  0
 32 33  2  0
 33 34  1  0
 34 35  2  0
 12  7  1  0
 24 13  1  0
 35 25  1  0
 22 17  1  0
 34 28  1  0
  3 36  1  0
  4 37  1  0
  4 38  1  0
  8 39  1  0
  8 40  1  0
  9 41  1  6
 10 42  1  0
 11 43  1  0
 11 44  1  0
 12 45  1  1
 13 46  1  1
 14 47  1  0
 14 48  1  0
 15 49  1  0
 15 50  1  0
 16 51  1  6
 18 52  1  0
 19 53  1  0
 20 54  1  0
 22 55  1  0
 23 56  1  0
 23 57  1  0
 24 58  1  0
 24 59  1  0
 26 60  1  0
 27 61  1  0
 29 62  1  0
 32 63  1  0
 33 64  1  0
M  END
>  <smiles>  (43) 
O=C(NCC(=O)N1C[C@H](O)C[C@H]1C1CCC(c2cccnc2)CC1)c1ccc2cc(F)ccc2n1

>  <score_type>  (43) 
oracle

>  <origin>  (43) 
autodockgpu

>  <m_score__min__energy>  (43) 
-9.5600000000000005

>  <m_primary>  (43) 
energy

>  <rmsd>  (43) 
6.439002944663001

>  <m_score__min__rmsd>  (43) 
6.439002944663001

>  <meeko>  (43) 
{"free_energy": -7.28, "intermolecular_energy": -9.37, "internal_energy": -2.85, "cluster_size": 6, "cluster_id": 7, "rank_in_cluster": 6}

>  <energy>  (43) 
-6.84

>  <cluster_rmsd>  (43) 
0.91

>  <cluster>  (43) 
8

$$$$

     RDKit          3D

 64 68  0  0  1  0  0  0  0  0999 V2000
  139.9880   72.0280  220.9290 O   0  0  0  0  0  0  0  0  0  0  0  0
  139.7790   72.4140  222.1070 C   0  0  0  0  0  0  0  0  0  0  0  0
  139.4390   73.7930  222.3520 N   0  0  0  0  0  0  0  0  0  0  0  0
  139.3050   74.7840  221.3640 C   0  0  0  0  0  0  0  0  0  0  0  0
  139.3150   76.1940  221.6720 C   0  0  0  0  0  0  0  0  0  0  0  0
  138.6370   76.5150  222.7320 O   0  0  0  0  0  0  0  0  0  0  0  0
  139.9340   77.2810  221.0120 N   0  0  0  0  0  0  0  0  0  0  0  0
  139.4710   78.6710  221.0560 C   0  0  0  0  0  0  0  0  0  0  0  0
  140.7440   79.4960  220.8130 C   0  0  2  0  0  0  0  0  0  0  0  0
  140.6270   80.1620  219.6070 O   0  0  0  0  0  0  0  0  0  0  0  0
  141.8540   78.4900  220.7050 C   0  0  0  0  0  0  0  0  0  0  0  0
  141.1050   77.2870  220.1520 C   0  0  1  0  0  0  0  0  0  0  0  0
  141.9240   76.0830  220.0790 C   0  0  2  0  0  0  0  0  0  0  0  0
  143.3640   76.1940  219.7430 C   0  0  0  0  0  0  0  0  0  0  0  0
  144.1030   74.9170  220.1610 C   0  0  0  0  0  0  0  0  0  0  0  0
  143.1340   73.7640  219.9740 C   0  0  2  0  0  0  0  0  0  0  0  0
  143.8910   72.5040  219.7630 C   0  0  0  0  0  0  0  0  0  0  0  0
  143.3630   71.2530  220.0080 C   0  0  0  0  0  0  0  0  0  0  0  0
  144.1590   70.1340  219.7760 C   0  0  0  0  0  0  0  0  0  0  0  0
  145.4590   70.3150  219.3040 C   0  0  0  0  0  0  0  0  0  0  0  0
  145.9490   71.5450  219.0730 N   0  0  0  0  0  0  0  0  0  0  0  0
  145.2000   72.6440  219.2900 C   0  0  0  0  0  0  0  0  0  0  0  0
  142.2470   73.9610  218.7950 C   0  0  0  0  0  0  0  0  0  0  0  0
  141.3130   75.1250  219.0400 C   0  0  0  0  0  0  0  0  0  0  0  0
  139.8750   71.4830  223.2410 C   0  0  0  0  0  0  0  0  0  0  0  0
  139.4780   70.1770  223.0470 C   0  0  0  0  0  0  0  0  0  0  0  0
  139.5860   69.3300  224.1500 C   0  0  0  0  0  0  0  0  0  0  0  0
  140.0660   69.7800  225.3670 C   0  0  0  0  0  0  0  0  0  0  0  0
  140.1870   68.9720  226.4730 C   0  0  0  0  0  0  0  0  0  0  0  0
  140.6760   69.4610  227.6840 C   0  0  0  0  0  0  0  0  0  0  0  0
  140.8010   68.6840  228.7790 F   0  0  0  0  0  0  0  0  0  0  0  0
  141.0520   70.7890  227.7870 C   0  0  0  0  0  0  0  0  0  0  0  0
  140.9400   71.6260  226.6830 C   0  0  0  0  0  0  0  0  0  0  0  0
  140.4510   71.0990  225.5040 C   0  0  0  0  0  0  0  0  0  0  0  0
  140.3390   71.8990  224.4320 N   0  0  0  0  0  0  0  0  0  0  0  0
  139.2850   74.0440  223.3730 H   0  0  0  0  0  0  0  0  0  0  0  0
  140.1293   74.6208  220.6542 H   0  0  0  0  0  0  0  0  0  0  0  0
  138.2666   74.6333  221.0337 H   0  0  0  0  0  0  0  0  0  0  0  0
  138.7266   78.8600  220.2685 H   0  0  0  0  0  0  0  0  0  0  0  0
  138.9789   78.9229  222.0070 H   0  0  0  0  0  0  0  0  0  0  0  0
  140.9209   80.2322  221.6110 H   0  0  0  0  0  0  0  0  0  0  0  0
  141.0990   81.0300  219.6540 H   0  0  0  0  0  0  0  0  0  0  0  0
  142.6400   78.8287  220.0140 H   0  0  0  0  0  0  0  0  0  0  0  0
  142.3846   78.2981  221.6493 H   0  0  0  0  0  0  0  0  0  0  0  0
  140.8145   77.3328  219.0920 H   0  0  0  0  0  0  0  0  0  0  0  0
  141.9086   75.7411  221.1244 H   0  0  0  0  0  0  0  0  0  0  0  0
  143.4743   76.3396  218.6583 H   0  0  0  0  0  0  0  0  0  0  0  0
  143.7941   77.0513  220.2815 H   0  0  0  0  0  0  0  0  0  0  0  0
  144.9915   74.7704  219.5292 H   0  0  0  0  0  0  0  0  0  0  0  0
  144.4399   74.9819  221.2061 H   0  0  0  0  0  0  0  0  0  0  0  0
  142.5154   73.7152  220.8823 H   0  0  0  0  0  0  0  0  0  0  0  0
  142.3336   71.1417  220.3793 H   0  0  0  0  0  0  0  0  0  0  0  0
  143.7684   69.1227  219.9622 H   0  0  0  0  0  0  0  0  0  0  0  0
  146.0939   69.4362  219.1177 H   0  0  0  0  0  0  0  0  0  0  0  0
  145.6150   73.6442  219.0965 H   0  0  0  0  0  0  0  0  0  0  0  0
  142.8620   74.1680  217.9068 H   0  0  0  0  0  0  0  0  0  0  0  0
  141.6533   73.0492  218.6330 H   0  0  0  0  0  0  0  0  0  0  0  0
  141.1512   75.6667  218.0964 H   0  0  0  0  0  0  0  0  0  0  0  0
  140.3543   74.7437  219.4214 H   0  0  0  0  0  0  0  0  0  0  0  0
  139.0977   69.8231  222.0774 H   0  0  0  0  0  0  0  0  0  0  0  0
  139.2818   68.2777  224.0496 H   0  0  0  0  0  0  0  0  0  0  0  0
  139.8911   67.9150  226.4009 H   0  0  0  0  0  0  0  0  0  0  0  0
  141.4382   71.1808  228.7395 H   0  0  0  0  0  0  0  0  0  0  0  0
  141.2342   72.6840  226.7470 H   0  0  0  0  0  0  0  0  0  0  0  0
  1  2  2  0
  2  3  1  0
  3  4  1  0
  4  5  1  0
  5  6  2  0
  5  7  1  0
  7  8  1  0
  8  9  1  0
  9 10  1  0
  9 11  1  0
 11 12  1  0
 12 13  1  0
 13 14  1  0
 14 15  1  0
 15 16  1  0
 16 17  1  0
 17 18  2  0
 18 19  1  0
 19 20  2  0
 20 21  1  0
 21 22  2  0
 16 23  1  0
 23 24  1  0
  2 25  1  0
 25 26  2  0
 26 27  1  0
 27 28  2  0
 28 29  1  0
 29 30  2  0
 30 31  1  0
 30 32  1  0
 32 33  2  0
 33 34  1  0
 34 35  2  0
 12  7  1  0
 24 13  1  0
 35 25  1  0
 22 17  1  0
 34 28  1  0
  3 36  1  0
  4 37  1  0
  4 38  1  0
  8 39  1  0
  8 40  1  0
  9 41  1  1
 10 42  1  0
 11 43  1  0
 11 44  1  0
 12 45  1  6
 13 46  1  1
 14 47  1  0
 14 48  1  0
 15 49  1  0
 15 50  1  0
 16 51  1  1
 18 52  1  0
 19 53  1  0
 20 54  1  0
 22 55  1  0
 23 56  1  0
 23 57  1  0
 24 58  1  0
 24 59  1  0
 26 60  1  0
 27 61  1  0
 29 62  1  0
 32 63  1  0
 33 64  1  0
M  END
>  <smiles>  (44) 
O=C(NCC(=O)N1C[C@H](O)C[C@H]1C1CCC(c2cccnc2)CC1)c1ccc2cc(F)ccc2n1

>  <score_type>  (44) 
oracle

>  <origin>  (44) 
autodockgpu

>  <m_score__min__energy>  (44) 
-9.5600000000000005

>  <m_primary>  (44) 
energy

>  <rmsd>  (44) 
2.4520820289785448

>  <m_score__min__rmsd>  (44) 
2.4520820289785448

>  <meeko>  (44) 
{"free_energy": -8.23, "intermolecular_energy": -10.32, "internal_energy": -2.37, "cluster_size": 11, "cluster_id": 3, "rank_in_cluster": 10}

>  <energy>  (44) 
-6.75

>  <cluster_rmsd>  (44) 
1.53

>  <cluster>  (44) 
8

$$$$

     RDKit          3D

 64 68  0  0  1  0  0  0  0  0999 V2000
  140.1030   73.4630  222.4220 O   0  0  0  0  0  0  0  0  0  0  0  0
  140.2210   74.3760  221.5650 C   0  0  0  0  0  0  0  0  0  0  0  0
  140.5080   74.0310  220.1950 N   0  0  0  0  0  0  0  0  0  0  0  0
  140.6650   72.7230  219.7040 C   0  0  0  0  0  0  0  0  0  0  0  0
  141.7420   71.8600  220.1240 C   0  0  0  0  0  0  0  0  0  0  0  0
  141.3790   70.8970  220.9160 O   0  0  0  0  0  0  0  0  0  0  0  0
  143.1230   71.8910  219.8220 N   0  0  0  0  0  0  0  0  0  0  0  0
  144.0130   70.7260  219.8150 C   0  0  0  0  0  0  0  0  0  0  0  0
  145.1240   71.1090  218.8260 C   0  0  2  0  0  0  0  0  0  0  0  0
  146.3200   71.2240  219.5110 O   0  0  0  0  0  0  0  0  0  0  0  0
  144.7360   72.4620  218.3000 C   0  0  0  0  0  0  0  0  0  0  0  0
  143.9650   73.0260  219.4840 C   0  0  1  0  0  0  0  0  0  0  0  0
  143.3280   74.3060  219.1990 C   0  0  2  0  0  0  0  0  0  0  0  0
  143.3480   74.8440  217.8180 C   0  0  0  0  0  0  0  0  0  0  0  0
  142.2690   75.9220  217.6560 C   0  0  0  0  0  0  0  0  0  0  0  0
  142.1540   76.6370  218.9890 C   0  0  2  0  0  0  0  0  0  0  0  0
  141.6290   78.0090  218.7770 C   0  0  0  0  0  0  0  0  0  0  0  0
  140.2950   78.3380  218.9060 C   0  0  0  0  0  0  0  0  0  0  0  0
  139.9070   79.6570  218.6840 C   0  0  0  0  0  0  0  0  0  0  0  0
  140.8780   80.5990  218.3420 C   0  0  0  0  0  0  0  0  0  0  0  0
  142.1710   80.2520  218.2240 N   0  0  0  0  0  0  0  0  0  0  0  0
  142.5720   78.9830  218.4330 C   0  0  0  0  0  0  0  0  0  0  0  0
  143.4700   76.7570  219.6770 C   0  0  0  0  0  0  0  0  0  0  0  0
  143.9630   75.3890  220.0910 C   0  0  0  0  0  0  0  0  0  0  0  0
  140.0730   75.7910  221.9360 C   0  0  0  0  0  0  0  0  0  0  0  0
  138.8330   76.2300  222.3510 C   0  0  0  0  0  0  0  0  0  0  0  0
  138.7400   77.5780  222.6930 C   0  0  0  0  0  0  0  0  0  0  0  0
  139.8330   78.4240  222.6180 C   0  0  0  0  0  0  0  0  0  0  0  0
  139.7750   79.7570  222.9480 C   0  0  0  0  0  0  0  0  0  0  0  0
  140.8980   80.5800  222.8600 C   0  0  0  0  0  0  0  0  0  0  0  0
  140.8610   81.8900  223.1790 F   0  0  0  0  0  0  0  0  0  0  0  0
  142.1040   80.0520  222.4330 C   0  0  0  0  0  0  0  0  0  0  0  0
  142.1880   78.7070  222.0940 C   0  0  0  0  0  0  0  0  0  0  0  0
  141.0520   77.9300  222.1960 C   0  0  0  0  0  0  0  0  0  0  0  0
  141.1210   76.6290  221.8710 N   0  0  0  0  0  0  0  0  0  0  0  0
  140.6010   74.8560  219.5340 H   0  0  0  0  0  0  0  0  0  0  0  0
  139.7341   72.1910  219.9498 H   0  0  0  0  0  0  0  0  0  0  0  0
  140.9227   72.9077  218.6507 H   0  0  0  0  0  0  0  0  0  0  0  0
  144.4279   70.5456  220.8176 H   0  0  0  0  0  0  0  0  0  0  0  0
  143.4936   69.7997  219.5283 H   0  0  0  0  0  0  0  0  0  0  0  0
  145.2425   70.3641  218.0254 H   0  0  0  0  0  0  0  0  0  0  0  0
  146.1450   71.3570  220.4750 H   0  0  0  0  0  0  0  0  0  0  0  0
  145.6203   73.0730  218.0662 H   0  0  0  0  0  0  0  0  0  0  0  0
  144.1658   72.4356  217.3597 H   0  0  0  0  0  0  0  0  0  0  0  0
  144.5612   73.3464  220.3511 H   0  0  0  0  0  0  0  0  0  0  0  0
  142.2699   74.0752  219.3916 H   0  0  0  0  0  0  0  0  0  0  0  0
  144.3352   75.2839  217.6133 H   0  0  0  0  0  0  0  0  0  0  0  0
  143.1484   74.0259  217.1102 H   0  0  0  0  0  0  0  0  0  0  0  0
  142.5607   76.6335  216.8694 H   0  0  0  0  0  0  0  0  0  0  0  0
  141.3069   75.4745  217.3659 H   0  0  0  0  0  0  0  0  0  0  0  0
  141.4759   76.0393  219.6159 H   0  0  0  0  0  0  0  0  0  0  0  0
  139.5527   77.5734  219.1788 H   0  0  0  0  0  0  0  0  0  0  0  0
  138.8513   79.9517  218.7768 H   0  0  0  0  0  0  0  0  0  0  0  0
  140.5801   81.6432  218.1660 H   0  0  0  0  0  0  0  0  0  0  0  0
  143.6341   78.7146  218.3338 H   0  0  0  0  0  0  0  0  0  0  0  0
  144.1988   77.2151  218.9922 H   0  0  0  0  0  0  0  0  0  0  0  0
  143.3537   77.3854  220.5723 H   0  0  0  0  0  0  0  0  0  0  0  0
  145.0574   75.3499  219.9877 H   0  0  0  0  0  0  0  0  0  0  0  0
  143.6794   75.2054  221.1378 H   0  0  0  0  0  0  0  0  0  0  0  0
  137.9667   75.5546  222.4088 H   0  0  0  0  0  0  0  0  0  0  0  0
  137.7734   77.9798  223.0311 H   0  0  0  0  0  0  0  0  0  0  0  0
  138.8209   80.1849  223.2894 H   0  0  0  0  0  0  0  0  0  0  0  0
  142.9935   80.6952  222.3622 H   0  0  0  0  0  0  0  0  0  0  0  0
  143.1385   78.2715  221.7521 H   0  0  0  0  0  0  0  0  0  0  0  0
  1  2  2  0
  2  3  1  0
  3  4  1  0
  4  5  1  0
  5  6  2  0
  5  7  1  0
  7  8  1  0
  8  9  1  0
  9 10  1  0
  9 11  1  0
 11 12  1  0
 12 13  1  0
 13 14  1  0
 14 15  1  0
 15 16  1  0
 16 17  1  0
 17 18  2  0
 18 19  1  0
 19 20  2  0
 20 21  1  0
 21 22  2  0
 16 23  1  0
 23 24  1  0
  2 25  1  0
 25 26  2  0
 26 27  1  0
 27 28  2  0
 28 29  1  0
 29 30  2  0
 30 31  1  0
 30 32  1  0
 32 33  2  0
 33 34  1  0
 34 35  2  0
 12  7  1  0
 24 13  1  0
 35 25  1  0
 22 17  1  0
 34 28  1  0
  3 36  1  0
  4 37  1  0
  4 38  1  0
  8 39  1  0
  8 40  1  0
  9 41  1  6
 10 42  1  0
 11 43  1  0
 11 44  1  0
 12 45  1  1
 13 46  1  1
 14 47  1  0
 14 48  1  0
 15 49  1  0
 15 50  1  0
 16 51  1  1
 18 52  1  0
 19 53  1  0
 20 54  1  0
 22 55  1  0
 23 56  1  0
 23 57  1  0
 24 58  1  0
 24 59  1  0
 26 60  1  0
 27 61  1  0
 29 62  1  0
 32 63  1  0
 33 64  1  0
M  END
>  <smiles>  (45) 
O=C(NCC(=O)N1C[C@H](O)C[C@H]1C1CCC(c2cccnc2)CC1)c1ccc2cc(F)ccc2n1

>  <score_type>  (45) 
oracle

>  <origin>  (45) 
autodockgpu

>  <m_score__min__energy>  (45) 
-9.5600000000000005

>  <m_primary>  (45) 
energy

>  <rmsd>  (45) 
7.6578943237577235

>  <m_score__min__rmsd>  (45) 
7.6578943237577235

>  <meeko>  (45) 
{"free_energy": -6.75, "intermolecular_energy": -8.84, "internal_energy": -3.68, "cluster_size": 14, "cluster_id": 8, "rank_in_cluster": 8}

>  <energy>  (45) 
-6.73

>  <cluster_rmsd>  (45) 
1.03

>  <cluster>  (45) 
8

$$$$

     RDKit          3D

 64 68  0  0  1  0  0  0  0  0999 V2000
  140.4840   71.2640  221.3130 O   0  0  0  0  0  0  0  0  0  0  0  0
  140.0390   71.6920  222.4090 C   0  0  0  0  0  0  0  0  0  0  0  0
  139.6040   73.0620  222.5110 N   0  0  0  0  0  0  0  0  0  0  0  0
  139.6200   74.0000  221.4640 C   0  0  0  0  0  0  0  0  0  0  0  0
  140.1550   75.3310  221.6220 C   0  0  0  0  0  0  0  0  0  0  0  0
  139.5610   76.0420  222.5340 O   0  0  0  0  0  0  0  0  0  0  0  0
  141.2090   75.9910  220.9500 N   0  0  0  0  0  0  0  0  0  0  0  0
  142.1940   75.3410  220.0800 C   0  0  0  0  0  0  0  0  0  0  0  0
  142.6330   76.4530  219.1160 C   0  0  2  0  0  0  0  0  0  0  0  0
  143.9650   76.7470  219.3400 O   0  0  0  0  0  0  0  0  0  0  0  0
  141.8040   77.6500  219.4870 C   0  0  0  0  0  0  0  0  0  0  0  0
  141.5750   77.3970  220.9700 C   0  0  1  0  0  0  0  0  0  0  0  0
  140.6550   78.3480  221.5800 C   0  0  2  0  0  0  0  0  0  0  0  0
  140.4180   79.6600  220.9310 C   0  0  0  0  0  0  0  0  0  0  0  0
  139.1230   80.2860  221.4630 C   0  0  0  0  0  0  0  0  0  0  0  0
  138.9950   79.8700  222.9170 C   0  0  2  0  0  0  0  0  0  0  0  0
  138.1710   80.8630  223.6510 C   0  0  0  0  0  0  0  0  0  0  0  0
  137.6550   82.0000  223.0640 C   0  0  0  0  0  0  0  0  0  0  0  0
  136.8940   82.8680  223.8430 C   0  0  0  0  0  0  0  0  0  0  0  0
  136.6770   82.5590  225.1860 C   0  0  0  0  0  0  0  0  0  0  0  0
  137.1910   81.4440  225.7330 N   0  0  0  0  0  0  0  0  0  0  0  0
  137.9320   80.5880  225.0010 C   0  0  0  0  0  0  0  0  0  0  0  0
  140.3180   79.7900  223.5970 C   0  0  0  0  0  0  0  0  0  0  0  0
  141.1320   78.6570  223.0110 C   0  0  0  0  0  0  0  0  0  0  0  0
  139.9550   70.8180  223.5880 C   0  0  0  0  0  0  0  0  0  0  0  0
  139.3000   69.6120  223.4600 C   0  0  0  0  0  0  0  0  0  0  0  0
  139.2460   68.8170  224.6050 C   0  0  0  0  0  0  0  0  0  0  0  0
  139.8170   69.2210  225.7980 C   0  0  0  0  0  0  0  0  0  0  0  0
  139.7820   68.4620  226.9440 C   0  0  0  0  0  0  0  0  0  0  0  0
  140.3700   68.9010  228.1300 C   0  0  0  0  0  0  0  0  0  0  0  0
  140.3460   68.1710  229.2620 F   0  0  0  0  0  0  0  0  0  0  0  0
  141.0080   70.1290  228.1650 C   0  0  0  0  0  0  0  0  0  0  0  0
  141.0570   70.9150  227.0200 C   0  0  0  0  0  0  0  0  0  0  0  0
  140.4620   70.4400  225.8690 C   0  0  0  0  0  0  0  0  0  0  0  0
  140.5040   71.1910  224.7570 N   0  0  0  0  0  0  0  0  0  0  0  0
  139.2480   73.3500  223.4700 H   0  0  0  0  0  0  0  0  0  0  0  0
  140.1923   73.5360  220.6472 H   0  0  0  0  0  0  0  0  0  0  0  0
  138.5476   74.2034  221.3278 H   0  0  0  0  0  0  0  0  0  0  0  0
  143.0488   74.9717  220.6655 H   0  0  0  0  0  0  0  0  0  0  0  0
  141.7824   74.4658  219.5560 H   0  0  0  0  0  0  0  0  0  0  0  0
  142.5049   76.1632  218.0626 H   0  0  0  0  0  0  0  0  0  0  0  0
  144.0720   77.1720  220.2260 H   0  0  0  0  0  0  0  0  0  0  0  0
  142.3516   78.5888  219.3173 H   0  0  0  0  0  0  0  0  0  0  0  0
  140.8814   77.7623  218.8986 H   0  0  0  0  0  0  0  0  0  0  0  0
  142.4325   77.5710  221.6366 H   0  0  0  0  0  0  0  0  0  0  0  0
  139.6959   77.8168  221.4904 H   0  0  0  0  0  0  0  0  0  0  0  0
  141.2622   80.3309  221.1482 H   0  0  0  0  0  0  0  0  0  0  0  0
  140.3263   79.5125  219.8448 H   0  0  0  0  0  0  0  0  0  0  0  0
  139.1739   81.3822  221.3866 H   0  0  0  0  0  0  0  0  0  0  0  0
  138.2542   79.9474  220.8794 H   0  0  0  0  0  0  0  0  0  0  0  0
  138.5276   78.8743  222.9249 H   0  0  0  0  0  0  0  0  0  0  0  0
  137.8410   82.2166  222.0017 H   0  0  0  0  0  0  0  0  0  0  0  0
  136.4701   83.7840  223.4057 H   0  0  0  0  0  0  0  0  0  0  0  0
  136.0755   83.2388  225.8073 H   0  0  0  0  0  0  0  0  0  0  0  0
  138.3458   79.6794  225.4627 H   0  0  0  0  0  0  0  0  0  0  0  0
  140.8582   80.7378  223.4560 H   0  0  0  0  0  0  0  0  0  0  0  0
  140.1624   79.6060  224.6703 H   0  0  0  0  0  0  0  0  0  0  0  0
  142.1930   78.9461  222.9864 H   0  0  0  0  0  0  0  0  0  0  0  0
  141.0028   77.7605  223.6351 H   0  0  0  0  0  0  0  0  0  0  0  0
  138.8460   69.2947  222.5097 H   0  0  0  0  0  0  0  0  0  0  0  0
  138.7360   67.8435  224.5577 H   0  0  0  0  0  0  0  0  0  0  0  0
  139.2778   67.4845  226.9249 H   0  0  0  0  0  0  0  0  0  0  0  0
  141.4749   70.4816  229.0965 H   0  0  0  0  0  0  0  0  0  0  0  0
  141.5588   71.8938  227.0309 H   0  0  0  0  0  0  0  0  0  0  0  0
  1  2  2  0
  2  3  1  0
  3  4  1  0
  4  5  1  0
  5  6  2  0
  5  7  1  0
  7  8  1  0
  8  9  1  0
  9 10  1  0
  9 11  1  0
 11 12  1  0
 12 13  1  0
 13 14  1  0
 14 15  1  0
 15 16  1  0
 16 17  1  0
 17 18  2  0
 18 19  1  0
 19 20  2  0
 20 21  1  0
 21 22  2  0
 16 23  1  0
 23 24  1  0
  2 25  1  0
 25 26  2  0
 26 27  1  0
 27 28  2  0
 28 29  1  0
 29 30  2  0
 30 31  1  0
 30 32  1  0
 32 33  2  0
 33 34  1  0
 34 35  2  0
 12  7  1  0
 24 13  1  0
 35 25  1  0
 22 17  1  0
 34 28  1  0
  3 36  1  0
  4 37  1  0
  4 38  1  0
  8 39  1  0
  8 40  1  0
  9 41  1  6
 10 42  1  0
 11 43  1  0
 11 44  1  0
 12 45  1  1
 13 46  1  1
 14 47  1  0
 14 48  1  0
 15 49  1  0
 15 50  1  0
 16 51  1  6
 18 52  1  0
 19 53  1  0
 20 54  1  0
 22 55  1  0
 23 56  1  0
 23 57  1  0
 24 58  1  0
 24 59  1  0
 26 60  1  0
 27 61  1  0
 29 62  1  0
 32 63  1  0
 33 64  1  0
M  END
>  <smiles>  (46) 
O=C(NCC(=O)N1C[C@H](O)C[C@H]1C1CCC(c2cccnc2)CC1)c1ccc2cc(F)ccc2n1

>  <score_type>  (46) 
oracle

>  <origin>  (46) 
autodockgpu

>  <m_score__min__energy>  (46) 
-9.5600000000000005

>  <m_primary>  (46) 
energy

>  <rmsd>  (46) 
1.6750389389039084

>  <m_score__min__rmsd>  (46) 
1.6750389389039084

>  <meeko>  (46) 
{"free_energy": -9.52, "intermolecular_energy": -11.6, "internal_energy": -1.6, "cluster_size": 14, "cluster_id": 1, "rank_in_cluster": 3}

>  <energy>  (46) 
-6.72

>  <cluster_rmsd>  (46) 
1.01

>  <cluster>  (46) 
8

$$$$

     RDKit          3D

 64 68  0  0  1  0  0  0  0  0999 V2000
  140.3820   73.2990  222.4700 O   0  0  0  0  0  0  0  0  0  0  0  0
  140.2070   74.1750  221.5850 C   0  0  0  0  0  0  0  0  0  0  0  0
  140.2840   73.8050  220.1940 N   0  0  0  0  0  0  0  0  0  0  0  0
  140.5370   72.5090  219.7120 C   0  0  0  0  0  0  0  0  0  0  0  0
  141.6670   71.7250  220.1490 C   0  0  0  0  0  0  0  0  0  0  0  0
  141.3660   70.7550  220.9590 O   0  0  0  0  0  0  0  0  0  0  0  0
  143.0440   71.8390  219.8460 N   0  0  0  0  0  0  0  0  0  0  0  0
  143.9820   70.7170  219.7430 C   0  0  0  0  0  0  0  0  0  0  0  0
  145.0690   71.2270  218.7850 C   0  0  2  0  0  0  0  0  0  0  0  0
  146.2640   71.3370  219.4740 O   0  0  0  0  0  0  0  0  0  0  0  0
  144.6220   72.6000  218.3710 C   0  0  0  0  0  0  0  0  0  0  0  0
  143.8340   73.0320  219.6000 C   0  0  1  0  0  0  0  0  0  0  0  0
  143.1420   74.3030  219.4200 C   0  0  2  0  0  0  0  0  0  0  0  0
  142.8050   74.7690  218.0540 C   0  0  0  0  0  0  0  0  0  0  0  0
  141.7170   75.8490  218.1180 C   0  0  0  0  0  0  0  0  0  0  0  0
  141.9470   76.6320  219.3970 C   0  0  2  0  0  0  0  0  0  0  0  0
  141.3810   77.9980  219.2550 C   0  0  0  0  0  0  0  0  0  0  0  0
  142.1540   79.1410  219.2530 C   0  0  0  0  0  0  0  0  0  0  0  0
  141.5240   80.3750  219.1140 C   0  0  0  0  0  0  0  0  0  0  0  0
  140.1350   80.4130  218.9790 C   0  0  0  0  0  0  0  0  0  0  0  0
  139.4060   79.2840  218.9830 N   0  0  0  0  0  0  0  0  0  0  0  0
  139.9920   78.0780  219.1170 C   0  0  0  0  0  0  0  0  0  0  0  0
  143.3950   76.7740  219.7160 C   0  0  0  0  0  0  0  0  0  0  0  0
  143.9820   75.4240  220.0600 C   0  0  0  0  0  0  0  0  0  0  0  0
  139.9250   75.5720  221.9450 C   0  0  0  0  0  0  0  0  0  0  0  0
  138.6120   75.9930  221.9480 C   0  0  0  0  0  0  0  0  0  0  0  0
  138.3920   77.3250  222.2950 C   0  0  0  0  0  0  0  0  0  0  0  0
  139.4370   78.1740  222.6170 C   0  0  0  0  0  0  0  0  0  0  0  0
  139.2560   79.4920  222.9630 C   0  0  0  0  0  0  0  0  0  0  0  0
  140.3330   80.3180  223.2820 C   0  0  0  0  0  0  0  0  0  0  0  0
  140.1750   81.6120  223.6250 F   0  0  0  0  0  0  0  0  0  0  0  0
  141.6200   79.8090  223.2530 C   0  0  0  0  0  0  0  0  0  0  0  0
  141.8290   78.4790  222.9050 C   0  0  0  0  0  0  0  0  0  0  0  0
  140.7340   77.6990  222.5980 C   0  0  0  0  0  0  0  0  0  0  0  0
  140.9240   76.4130  222.2610 N   0  0  0  0  0  0  0  0  0  0  0  0
  140.1320   74.6010  219.5080 H   0  0  0  0  0  0  0  0  0  0  0  0
  139.6426   71.9147  219.9504 H   0  0  0  0  0  0  0  0  0  0  0  0
  140.7931   72.7060  218.6605 H   0  0  0  0  0  0  0  0  0  0  0  0
  144.4105   70.4742  220.7266 H   0  0  0  0  0  0  0  0  0  0  0  0
  143.5009   69.7950  219.3846 H   0  0  0  0  0  0  0  0  0  0  0  0
  145.2129   70.5552  217.9259 H   0  0  0  0  0  0  0  0  0  0  0  0
  146.0950   71.3090  220.4470 H   0  0  0  0  0  0  0  0  0  0  0  0
  145.4785   73.2650  218.1860 H   0  0  0  0  0  0  0  0  0  0  0  0
  144.0488   72.6264  217.4325 H   0  0  0  0  0  0  0  0  0  0  0  0
  144.4198   73.3055  220.4900 H   0  0  0  0  0  0  0  0  0  0  0  0
  142.1695   74.0935  219.8895 H   0  0  0  0  0  0  0  0  0  0  0  0
  143.7052   75.1873  217.5800 H   0  0  0  0  0  0  0  0  0  0  0  0
  142.4327   73.9177  217.4652 H   0  0  0  0  0  0  0  0  0  0  0  0
  141.7948   76.5162  217.2469 H   0  0  0  0  0  0  0  0  0  0  0  0
  140.7138   75.3979  218.1078 H   0  0  0  0  0  0  0  0  0  0  0  0
  141.4553   76.0739  220.2075 H   0  0  0  0  0  0  0  0  0  0  0  0
  143.2471   79.0786  219.3592 H   0  0  0  0  0  0  0  0  0  0  0  0
  142.1114   81.3050  219.1106 H   0  0  0  0  0  0  0  0  0  0  0  0
  139.6288   81.3832  218.8675 H   0  0  0  0  0  0  0  0  0  0  0  0
  139.3818   77.1628  219.1178 H   0  0  0  0  0  0  0  0  0  0  0  0
  143.9215   77.1889  218.8438 H   0  0  0  0  0  0  0  0  0  0  0  0
  143.5112   77.4489  220.5768 H   0  0  0  0  0  0  0  0  0  0  0  0
  145.0129   75.3681  219.6803 H   0  0  0  0  0  0  0  0  0  0  0  0
  143.9782   75.2976  221.1527 H   0  0  0  0  0  0  0  0  0  0  0  0
  137.7844   75.3156  221.6909 H   0  0  0  0  0  0  0  0  0  0  0  0
  137.3622   77.7112  222.3134 H   0  0  0  0  0  0  0  0  0  0  0  0
  138.2368   79.9050  222.9888 H   0  0  0  0  0  0  0  0  0  0  0  0
  142.4745   80.4545  223.5044 H   0  0  0  0  0  0  0  0  0  0  0  0
  142.8450   78.0585  222.8753 H   0  0  0  0  0  0  0  0  0  0  0  0
  1  2  2  0
  2  3  1  0
  3  4  1  0
  4  5  1  0
  5  6  2  0
  5  7  1  0
  7  8  1  0
  8  9  1  0
  9 10  1  0
  9 11  1  0
 11 12  1  0
 12 13  1  0
 13 14  1  0
 14 15  1  0
 15 16  1  0
 16 17  1  0
 17 18  2  0
 18 19  1  0
 19 20  2  0
 20 21  1  0
 21 22  2  0
 16 23  1  0
 23 24  1  0
  2 25  1  0
 25 26  2  0
 26 27  1  0
 27 28  2  0
 28 29  1  0
 29 30  2  0
 30 31  1  0
 30 32  1  0
 32 33  2  0
 33 34  1  0
 34 35  2  0
 12  7  1  0
 24 13  1  0
 35 25  1  0
 22 17  1  0
 34 28  1  0
  3 36  1  0
  4 37  1  0
  4 38  1  0
  8 39  1  0
  8 40  1  0
  9 41  1  6
 10 42  1  0
 11 43  1  0
 11 44  1  0
 12 45  1  1
 13 46  1  1
 14 47  1  0
 14 48  1  0
 15 49  1  0
 15 50  1  0
 16 51  1  1
 18 52  1  0
 19 53  1  0
 20 54  1  0
 22 55  1  0
 23 56  1  0
 23 57  1  0
 24 58  1  0
 24 59  1  0
 26 60  1  0
 27 61  1  0
 29 62  1  0
 32 63  1  0
 33 64  1  0
M  END
>  <smiles>  (47) 
O=C(NCC(=O)N1C[C@H](O)C[C@H]1C1CCC(c2cccnc2)CC1)c1ccc2cc(F)ccc2n1

>  <score_type>  (47) 
oracle

>  <origin>  (47) 
autodockgpu

>  <m_score__min__energy>  (47) 
-9.5600000000000005

>  <m_primary>  (47) 
energy

>  <rmsd>  (47) 
7.417184362740857

>  <m_score__min__rmsd>  (47) 
7.417184362740857

>  <meeko>  (47) 
{"free_energy": -6.57, "intermolecular_energy": -8.66, "internal_energy": -3.86, "cluster_size": 14, "cluster_id": 8, "rank_in_cluster": 12}

>  <energy>  (47) 
-6.6

>  <cluster_rmsd>  (47) 
1.53

>  <cluster>  (47) 
8

$$$$

     RDKit          3D

 64 68  0  0  1  0  0  0  0  0999 V2000
  140.3090   73.5300  222.3470 O   0  0  0  0  0  0  0  0  0  0  0  0
  140.3300   74.4400  221.4790 C   0  0  0  0  0  0  0  0  0  0  0  0
  140.5350   74.0950  220.0950 N   0  0  0  0  0  0  0  0  0  0  0  0
  140.7120   72.7910  219.6010 C   0  0  0  0  0  0  0  0  0  0  0  0
  141.7610   71.9190  220.0710 C   0  0  0  0  0  0  0  0  0  0  0  0
  141.3720   71.0320  220.9370 O   0  0  0  0  0  0  0  0  0  0  0  0
  143.1380   71.8720  219.7510 N   0  0  0  0  0  0  0  0  0  0  0  0
  143.9680   70.6640  219.7640 C   0  0  0  0  0  0  0  0  0  0  0  0
  145.0820   70.9640  218.7510 C   0  0  2  0  0  0  0  0  0  0  0  0
  146.2920   71.0370  219.4180 O   0  0  0  0  0  0  0  0  0  0  0  0
  144.7560   72.3200  218.1930 C   0  0  0  0  0  0  0  0  0  0  0  0
  144.0300   72.9540  219.3710 C   0  0  1  0  0  0  0  0  0  0  0  0
  143.4550   74.2560  219.0590 C   0  0  2  0  0  0  0  0  0  0  0  0
  143.6810   74.8580  217.7230 C   0  0  0  0  0  0  0  0  0  0  0  0
  142.6470   75.9590  217.4580 C   0  0  0  0  0  0  0  0  0  0  0  0
  142.3460   76.6130  218.7940 C   0  0  2  0  0  0  0  0  0  0  0  0
  141.8710   78.0030  218.5750 C   0  0  0  0  0  0  0  0  0  0  0  0
  142.6940   79.0250  218.1480 C   0  0  0  0  0  0  0  0  0  0  0  0
  142.1480   80.2940  217.9730 C   0  0  0  0  0  0  0  0  0  0  0  0
  140.7910   80.4880  218.2330 C   0  0  0  0  0  0  0  0  0  0  0  0
  140.0110   79.4740  218.6480 N   0  0  0  0  0  0  0  0  0  0  0  0
  140.5160   78.2370  218.8250 C   0  0  0  0  0  0  0  0  0  0  0  0
  143.5480   76.6800  219.6700 C   0  0  0  0  0  0  0  0  0  0  0  0
  143.9630   75.2860  220.0850 C   0  0  0  0  0  0  0  0  0  0  0  0
  140.1480   75.8500  221.8530 C   0  0  0  0  0  0  0  0  0  0  0  0
  138.9020   76.2570  222.2800 C   0  0  0  0  0  0  0  0  0  0  0  0
  138.7770   77.6030  222.6230 C   0  0  0  0  0  0  0  0  0  0  0  0
  139.8460   78.4760  222.5370 C   0  0  0  0  0  0  0  0  0  0  0  0
  139.7580   79.8080  222.8680 C   0  0  0  0  0  0  0  0  0  0  0  0
  140.8580   80.6600  222.7690 C   0  0  0  0  0  0  0  0  0  0  0  0
  140.7900   81.9680  223.0890 F   0  0  0  0  0  0  0  0  0  0  0  0
  142.0730   80.1630  222.3300 C   0  0  0  0  0  0  0  0  0  0  0  0
  142.1880   78.8200  221.9900 C   0  0  0  0  0  0  0  0  0  0  0  0
  141.0740   78.0140  222.1030 C   0  0  0  0  0  0  0  0  0  0  0  0
  141.1740   76.7160  221.7770 N   0  0  0  0  0  0  0  0  0  0  0  0
  140.5470   74.9180  219.4240 H   0  0  0  0  0  0  0  0  0  0  0  0
  139.7667   72.2615  219.7911 H   0  0  0  0  0  0  0  0  0  0  0  0
  141.0268   72.9836  218.5647 H   0  0  0  0  0  0  0  0  0  0  0  0
  144.3877   70.4894  220.7657 H   0  0  0  0  0  0  0  0  0  0  0  0
  143.3987   69.7579  219.5094 H   0  0  0  0  0  0  0  0  0  0  0  0
  145.1511   70.1930  217.9695 H   0  0  0  0  0  0  0  0  0  0  0  0
  146.1360   71.1560  220.3860 H   0  0  0  0  0  0  0  0  0  0  0  0
  145.6669   72.8788  217.9321 H   0  0  0  0  0  0  0  0  0  0  0  0
  144.1728   72.2976  217.2606 H   0  0  0  0  0  0  0  0  0  0  0  0
  144.6526   73.2676  220.2219 H   0  0  0  0  0  0  0  0  0  0  0  0
  142.3781   74.0333  219.0844 H   0  0  0  0  0  0  0  0  0  0  0  0
  144.6913   75.2914  217.6857 H   0  0  0  0  0  0  0  0  0  0  0  0
  143.5795   74.0771  216.9550 H   0  0  0  0  0  0  0  0  0  0  0  0
  143.0564   76.7015  216.7572 H   0  0  0  0  0  0  0  0  0  0  0  0
  141.7335   75.5411  217.0098 H   0  0  0  0  0  0  0  0  0  0  0  0
  141.5784   75.9974  219.2858 H   0  0  0  0  0  0  0  0  0  0  0  0
  143.7602   78.8409  217.9498 H   0  0  0  0  0  0  0  0  0  0  0  0
  142.7770   81.1307  217.6349 H   0  0  0  0  0  0  0  0  0  0  0  0
  140.3517   81.4872  218.0963 H   0  0  0  0  0  0  0  0  0  0  0  0
  139.8659   77.4169  219.1640 H   0  0  0  0  0  0  0  0  0  0  0  0
  144.3729   77.1575  219.1209 H   0  0  0  0  0  0  0  0  0  0  0  0
  143.3084   77.2682  220.5681 H   0  0  0  0  0  0  0  0  0  0  0  0
  145.0604   75.2342  220.1400 H   0  0  0  0  0  0  0  0  0  0  0  0
  143.5281   75.0586  221.0695 H   0  0  0  0  0  0  0  0  0  0  0  0
  138.0541   75.5594  222.3464 H   0  0  0  0  0  0  0  0  0  0  0  0
  137.8037   77.9796  222.9706 H   0  0  0  0  0  0  0  0  0  0  0  0
  138.7968   80.2113  223.2193 H   0  0  0  0  0  0  0  0  0  0  0  0
  142.9450   80.8288  222.2504 H   0  0  0  0  0  0  0  0  0  0  0  0
  143.1460   78.4090  221.6387 H   0  0  0  0  0  0  0  0  0  0  0  0
  1  2  2  0
  2  3  1  0
  3  4  1  0
  4  5  1  0
  5  6  2  0
  5  7  1  0
  7  8  1  0
  8  9  1  0
  9 10  1  0
  9 11  1  0
 11 12  1  0
 12 13  1  0
 13 14  1  0
 14 15  1  0
 15 16  1  0
 16 17  1  0
 17 18  2  0
 18 19  1  0
 19 20  2  0
 20 21  1  0
 21 22  2  0
 16 23  1  0
 23 24  1  0
  2 25  1  0
 25 26  2  0
 26 27  1  0
 27 28  2  0
 28 29  1  0
 29 30  2  0
 30 31  1  0
 30 32  1  0
 32 33  2  0
 33 34  1  0
 34 35  2  0
 12  7  1  0
 24 13  1  0
 35 25  1  0
 22 17  1  0
 34 28  1  0
  3 36  1  0
  4 37  1  0
  4 38  1  0
  8 39  1  0
  8 40  1  0
  9 41  1  6
 10 42  1  0
 11 43  1  0
 11 44  1  0
 12 45  1  1
 13 46  1  1
 14 47  1  0
 14 48  1  0
 15 49  1  0
 15 50  1  0
 16 51  1  1
 18 52  1  0
 19 53  1  0
 20 54  1  0
 22 55  1  0
 23 56  1  0
 23 57  1  0
 24 58  1  0
 24 59  1  0
 26 60  1  0
 27 61  1  0
 29 62  1  0
 32 63  1  0
 33 64  1  0
M  END
>  <smiles>  (48) 
O=C(NCC(=O)N1C[C@H](O)C[C@H]1C1CCC(c2cccnc2)CC1)c1ccc2cc(F)ccc2n1

>  <score_type>  (48) 
oracle

>  <origin>  (48) 
autodockgpu

>  <m_score__min__energy>  (48) 
-9.5600000000000005

>  <m_primary>  (48) 
energy

>  <rmsd>  (48) 
7.73067758910508

>  <m_score__min__rmsd>  (48) 
7.73067758910508

>  <meeko>  (48) 
{"free_energy": -6.89, "intermolecular_energy": -8.97, "internal_energy": -3.63, "cluster_size": 14, "cluster_id": 8, "rank_in_cluster": 4}

>  <energy>  (48) 
-6.57

>  <cluster_rmsd>  (48) 
1.51

>  <cluster>  (48) 
8

$$$$

     RDKit          3D

 64 68  0  0  1  0  0  0  0  0999 V2000
  138.7180   75.0930  221.7770 O   0  0  0  0  0  0  0  0  0  0  0  0
  139.8810   75.5430  221.9340 C   0  0  0  0  0  0  0  0  0  0  0  0
  141.0130   74.6980  221.6490 N   0  0  0  0  0  0  0  0  0  0  0  0
  140.9400   73.3730  221.1860 C   0  0  0  0  0  0  0  0  0  0  0  0
  141.5130   72.9570  219.9270 C   0  0  0  0  0  0  0  0  0  0  0  0
  140.7300   72.2170  219.2020 O   0  0  0  0  0  0  0  0  0  0  0  0
  142.7810   73.2160  219.3570 N   0  0  0  0  0  0  0  0  0  0  0  0
  143.7390   72.1930  218.9280 C   0  0  0  0  0  0  0  0  0  0  0  0
  144.5580   72.8860  217.8290 C   0  0  2  0  0  0  0  0  0  0  0  0
  145.8660   73.0250  218.2590 O   0  0  0  0  0  0  0  0  0  0  0  0
  143.9490   74.2520  217.6820 C   0  0  0  0  0  0  0  0  0  0  0  0
  143.4250   74.4900  219.0910 C   0  0  1  0  0  0  0  0  0  0  0  0
  142.6360   75.7100  219.2120 C   0  0  2  0  0  0  0  0  0  0  0  0
  141.3050   75.7910  218.5650 C   0  0  0  0  0  0  0  0  0  0  0  0
  140.4860   76.9320  219.1800 C   0  0  0  0  0  0  0  0  0  0  0  0
  141.4670   78.0280  219.5530 C   0  0  2  0  0  0  0  0  0  0  0  0
  140.7690   79.3380  219.5740 C   0  0  0  0  0  0  0  0  0  0  0  0
  141.4230   80.5420  219.7360 C   0  0  0  0  0  0  0  0  0  0  0  0
  140.6730   81.7160  219.7410 C   0  0  0  0  0  0  0  0  0  0  0  0
  139.2890   81.6350  219.5810 C   0  0  0  0  0  0  0  0  0  0  0  0
  138.6770   80.4480  219.4240 N   0  0  0  0  0  0  0  0  0  0  0  0
  139.3800   79.2980  219.4160 C   0  0  0  0  0  0  0  0  0  0  0  0
  142.5910   78.1310  218.5810 C   0  0  0  0  0  0  0  0  0  0  0  0
  143.4540   76.8910  218.6570 C   0  0  0  0  0  0  0  0  0  0  0  0
  140.1070   76.9170  222.4040 C   0  0  0  0  0  0  0  0  0  0  0  0
  139.0090   77.6810  222.7390 C   0  0  0  0  0  0  0  0  0  0  0  0
  139.2720   78.9780  223.1800 C   0  0  0  0  0  0  0  0  0  0  0  0
  140.5630   79.4650  223.2740 C   0  0  0  0  0  0  0  0  0  0  0  0
  140.8580   80.7370  223.7040 C   0  0  0  0  0  0  0  0  0  0  0  0
  142.1730   81.1950  223.7870 C   0  0  0  0  0  0  0  0  0  0  0  0
  142.4800   82.4390  224.2070 F   0  0  0  0  0  0  0  0  0  0  0  0
  143.2140   80.3570  223.4300 C   0  0  0  0  0  0  0  0  0  0  0  0
  142.9430   79.0660  222.9910 C   0  0  0  0  0  0  0  0  0  0  0  0
  141.6270   78.6560  222.9260 C   0  0  0  0  0  0  0  0  0  0  0  0
  141.3530   77.4110  222.5030 N   0  0  0  0  0  0  0  0  0  0  0  0
  141.9620   75.1470  221.8130 H   0  0  0  0  0  0  0  0  0  0  0  0
  141.4180   72.7529  221.9586 H   0  0  0  0  0  0  0  0  0  0  0  0
  139.8632   73.2620  220.9907 H   0  0  0  0  0  0  0  0  0  0  0  0
  144.3858   71.8884  219.7639 H   0  0  0  0  0  0  0  0  0  0  0  0
  143.2470   71.2753  218.5734 H   0  0  0  0  0  0  0  0  0  0  0  0
  144.5512   72.3192  216.8863 H   0  0  0  0  0  0  0  0  0  0  0  0
  146.0830   73.9830  218.3690 H   0  0  0  0  0  0  0  0  0  0  0  0
  144.7025   75.0019  217.3993 H   0  0  0  0  0  0  0  0  0  0  0  0
  143.1835   74.3248  216.8954 H   0  0  0  0  0  0  0  0  0  0  0  0
  144.1743   74.7204  219.8627 H   0  0  0  0  0  0  0  0  0  0  0  0
  142.4223   75.7288  220.2909 H   0  0  0  0  0  0  0  0  0  0  0  0
  141.4349   75.9762  217.4885 H   0  0  0  0  0  0  0  0  0  0  0  0
  140.7716   74.8417  218.7210 H   0  0  0  0  0  0  0  0  0  0  0  0
  139.7562   77.3103  218.4491 H   0  0  0  0  0  0  0  0  0  0  0  0
  139.9290   76.5852  220.0629 H   0  0  0  0  0  0  0  0  0  0  0  0
  141.8723   77.7713  220.5428 H   0  0  0  0  0  0  0  0  0  0  0  0
  142.5156   80.5743  219.8588 H   0  0  0  0  0  0  0  0  0  0  0  0
  141.1642   82.6919  219.8691 H   0  0  0  0  0  0  0  0  0  0  0  0
  138.6891   82.5570  219.5833 H   0  0  0  0  0  0  0  0  0  0  0  0
  138.8648   78.3348  219.2861 H   0  0  0  0  0  0  0  0  0  0  0  0
  142.1851   78.2308  217.5635 H   0  0  0  0  0  0  0  0  0  0  0  0
  143.2018   79.0123  218.8263 H   0  0  0  0  0  0  0  0  0  0  0  0
  143.8190   76.6395  217.6503 H   0  0  0  0  0  0  0  0  0  0  0  0
  144.3052   77.0853  219.3261 H   0  0  0  0  0  0  0  0  0  0  0  0
  137.9837   77.2898  222.6628 H   0  0  0  0  0  0  0  0  0  0  0  0
  138.4314   79.6299  223.4600 H   0  0  0  0  0  0  0  0  0  0  0  0
  140.0366   81.4105  223.9897 H   0  0  0  0  0  0  0  0  0  0  0  0
  144.2535   80.7111  223.4933 H   0  0  0  0  0  0  0  0  0  0  0  0
  143.7588   78.3870  222.7021 H   0  0  0  0  0  0  0  0  0  0  0  0
  1  2  2  0
  2  3  1  0
  3  4  1  0
  4  5  1  0
  5  6  2  0
  5  7  1  0
  7  8  1  0
  8  9  1  0
  9 10  1  0
  9 11  1  0
 11 12  1  0
 12 13  1  0
 13 14  1  0
 14 15  1  0
 15 16  1  0
 16 17  1  0
 17 18  2  0
 18 19  1  0
 19 20  2  0
 20 21  1  0
 21 22  2  0
 16 23  1  0
 23 24  1  0
  2 25  1  0
 25 26  2  0
 26 27  1  0
 27 28  2  0
 28 29  1  0
 29 30  2  0
 30 31  1  0
 30 32  1  0
 32 33  2  0
 33 34  1  0
 34 35  2  0
 12  7  1  0
 24 13  1  0
 35 25  1  0
 22 17  1  0
 34 28  1  0
  3 36  1  0
  4 37  1  0
  4 38  1  0
  8 39  1  0
  8 40  1  0
  9 41  1  6
 10 42  1  0
 11 43  1  0
 11 44  1  0
 12 45  1  1
 13 46  1  1
 14 47  1  0
 14 48  1  0
 15 49  1  0
 15 50  1  0
 16 51  1  1
 18 52  1  0
 19 53  1  0
 20 54  1  0
 22 55  1  0
 23 56  1  0
 23 57  1  0
 24 58  1  0
 24 59  1  0
 26 60  1  0
 27 61  1  0
 29 62  1  0
 32 63  1  0
 33 64  1  0
M  END
>  <smiles>  (49) 
O=C(NCC(=O)N1C[C@H](O)C[C@H]1C1CCC(c2cccnc2)CC1)c1ccc2cc(F)ccc2n1

>  <score_type>  (49) 
oracle

>  <origin>  (49) 
autodockgpu

>  <m_score__min__energy>  (49) 
-9.5600000000000005

>  <m_primary>  (49) 
energy

>  <rmsd>  (49) 
7.6955949546238545

>  <m_score__min__rmsd>  (49) 
7.6955949546238545

>  <meeko>  (49) 
{"free_energy": -6.87, "intermolecular_energy": -8.96, "internal_energy": -4.04, "cluster_size": 14, "cluster_id": 8, "rank_in_cluster": 5}

>  <energy>  (49) 
-6.57

>  <cluster_rmsd>  (49) 
0.79

>  <cluster>  (49) 
8

$$$$

     RDKit          3D

 64 68  0  0  1  0  0  0  0  0999 V2000
  138.7810   75.1720  221.9220 O   0  0  0  0  0  0  0  0  0  0  0  0
  139.9380   75.6650  221.9560 C   0  0  0  0  0  0  0  0  0  0  0  0
  141.0600   74.8750  221.5170 N   0  0  0  0  0  0  0  0  0  0  0  0
  140.9840   73.5600  221.0260 C   0  0  0  0  0  0  0  0  0  0  0  0
  142.1570   72.7660  220.7480 C   0  0  0  0  0  0  0  0  0  0  0  0
  142.1480   71.5880  221.2950 O   0  0  0  0  0  0  0  0  0  0  0  0
  143.3120   73.0580  219.9860 N   0  0  0  0  0  0  0  0  0  0  0  0
  144.3750   72.1020  219.6630 C   0  0  0  0  0  0  0  0  0  0  0  0
  144.9730   72.6360  218.3530 C   0  0  2  0  0  0  0  0  0  0  0  0
  146.2760   73.0390  218.5810 O   0  0  0  0  0  0  0  0  0  0  0  0
  144.1480   73.8420  218.0030 C   0  0  0  0  0  0  0  0  0  0  0  0
  143.7230   74.3160  219.3860 C   0  0  1  0  0  0  0  0  0  0  0  0
  142.7670   75.4160  219.3480 C   0  0  2  0  0  0  0  0  0  0  0  0
  141.7150   75.4390  218.3030 C   0  0  0  0  0  0  0  0  0  0  0  0
  140.5860   76.3930  218.7130 C   0  0  0  0  0  0  0  0  0  0  0  0
  141.2260   77.5280  219.4910 C   0  0  2  0  0  0  0  0  0  0  0  0
  140.3740   78.7400  219.3980 C   0  0  0  0  0  0  0  0  0  0  0  0
  139.0160   78.6950  219.1560 C   0  0  0  0  0  0  0  0  0  0  0  0
  138.3090   79.8920  219.0880 C   0  0  0  0  0  0  0  0  0  0  0  0
  138.9940   81.0940  219.2670 C   0  0  0  0  0  0  0  0  0  0  0  0
  140.3180   81.1100  219.5010 N   0  0  0  0  0  0  0  0  0  0  0  0
  141.0250   79.9650  219.5720 C   0  0  0  0  0  0  0  0  0  0  0  0
  142.5730   77.8800  218.9640 C   0  0  0  0  0  0  0  0  0  0  0  0
  143.5380   76.7420  219.2090 C   0  0  0  0  0  0  0  0  0  0  0  0
  140.1650   77.0360  222.4380 C   0  0  0  0  0  0  0  0  0  0  0  0
  139.0690   77.7890  222.8030 C   0  0  0  0  0  0  0  0  0  0  0  0
  139.3330   79.0820  223.2530 C   0  0  0  0  0  0  0  0  0  0  0  0
  140.6230   79.5760  223.3280 C   0  0  0  0  0  0  0  0  0  0  0  0
  140.9170   80.8450  223.7680 C   0  0  0  0  0  0  0  0  0  0  0  0
  142.2310   81.3100  223.8310 C   0  0  0  0  0  0  0  0  0  0  0  0
  142.5390   82.5500  224.2590 F   0  0  0  0  0  0  0  0  0  0  0  0
  143.2710   80.4810  223.4440 C   0  0  0  0  0  0  0  0  0  0  0  0
  142.9980   79.1940  222.9960 C   0  0  0  0  0  0  0  0  0  0  0  0
  141.6840   78.7770  222.9510 C   0  0  0  0  0  0  0  0  0  0  0  0
  141.4090   77.5350  222.5200 N   0  0  0  0  0  0  0  0  0  0  0  0
  142.0030   75.3590  221.5830 H   0  0  0  0  0  0  0  0  0  0  0  0
  140.3987   72.9919  221.7641 H   0  0  0  0  0  0  0  0  0  0  0  0
  140.5761   73.7198  220.0170 H   0  0  0  0  0  0  0  0  0  0  0  0
  145.1346   72.0791  220.4583 H   0  0  0  0  0  0  0  0  0  0  0  0
  144.0018   71.0716  219.5678 H   0  0  0  0  0  0  0  0  0  0  0  0
  144.9691   71.8780  217.5559 H   0  0  0  0  0  0  0  0  0  0  0  0
  146.3230   74.0260  218.6060 H   0  0  0  0  0  0  0  0  0  0  0  0
  144.7467   74.6033  217.4816 H   0  0  0  0  0  0  0  0  0  0  0  0
  143.3123   73.6359  217.3181 H   0  0  0  0  0  0  0  0  0  0  0  0
  144.4939   74.8100  219.9957 H   0  0  0  0  0  0  0  0  0  0  0  0
  142.2193   75.2666  220.2902 H   0  0  0  0  0  0  0  0  0  0  0  0
  142.1528   75.7802  217.3533 H   0  0  0  0  0  0  0  0  0  0  0  0
  141.3044   74.4256  218.1829 H   0  0  0  0  0  0  0  0  0  0  0  0
  140.0799   76.7859  217.8189 H   0  0  0  0  0  0  0  0  0  0  0  0
  139.8343   75.8724  219.3245 H   0  0  0  0  0  0  0  0  0  0  0  0
  141.3277   77.1864  220.5317 H   0  0  0  0  0  0  0  0  0  0  0  0
  138.5024   77.7319  219.0195 H   0  0  0  0  0  0  0  0  0  0  0  0
  137.2259   79.8902  218.8959 H   0  0  0  0  0  0  0  0  0  0  0  0
  138.4421   82.0441  219.2159 H   0  0  0  0  0  0  0  0  0  0  0  0
  142.1074   79.9940  219.7656 H   0  0  0  0  0  0  0  0  0  0  0  0
  142.5026   78.0715  217.8831 H   0  0  0  0  0  0  0  0  0  0  0  0
  142.9383   78.7804  219.4795 H   0  0  0  0  0  0  0  0  0  0  0  0
  144.2374   76.6694  218.3631 H   0  0  0  0  0  0  0  0  0  0  0  0
  144.0940   76.9347  220.1384 H   0  0  0  0  0  0  0  0  0  0  0  0
  138.0448   77.3922  222.7426 H   0  0  0  0  0  0  0  0  0  0  0  0
  138.4941   79.7257  223.5561 H   0  0  0  0  0  0  0  0  0  0  0  0
  140.0969   81.5094  224.0777 H   0  0  0  0  0  0  0  0  0  0  0  0
  144.3097   80.8401  223.4911 H   0  0  0  0  0  0  0  0  0  0  0  0
  143.8118   78.5228  222.6842 H   0  0  0  0  0  0  0  0  0  0  0  0
  1  2  2  0
  2  3  1  0
  3  4  1  0
  4  5  1  0
  5  6  2  0
  5  7  1  0
  7  8  1  0
  8  9  1  0
  9 10  1  0
  9 11  1  0
 11 12  1  0
 12 13  1  0
 13 14  1  0
 14 15  1  0
 15 16  1  0
 16 17  1  0
 17 18  2  0
 18 19  1  0
 19 20  2  0
 20 21  1  0
 21 22  2  0
 16 23  1  0
 23 24  1  0
  2 25  1  0
 25 26  2  0
 26 27  1  0
 27 28  2  0
 28 29  1  0
 29 30  2  0
 30 31  1  0
 30 32  1  0
 32 33  2  0
 33 34  1  0
 34 35  2  0
 12  7  1  0
 24 13  1  0
 35 25  1  0
 22 17  1  0
 34 28  1  0
  3 36  1  0
  4 37  1  0
  4 38  1  0
  8 39  1  0
  8 40  1  0
  9 41  1  6
 10 42  1  0
 11 43  1  0
 11 44  1  0
 12 45  1  1
 13 46  1  1
 14 47  1  0
 14 48  1  0
 15 49  1  0
 15 50  1  0
 16 51  1  1
 18 52  1  0
 19 53  1  0
 20 54  1  0
 22 55  1  0
 23 56  1  0
 23 57  1  0
 24 58  1  0
 24 59  1  0
 26 60  1  0
 27 61  1  0
 29 62  1  0
 32 63  1  0
 33 64  1  0
M  END
>  <smiles>  (50) 
O=C(NCC(=O)N1C[C@H](O)C[C@H]1C1CCC(c2cccnc2)CC1)c1ccc2cc(F)ccc2n1

>  <score_type>  (50) 
oracle

>  <origin>  (50) 
autodockgpu

>  <m_score__min__energy>  (50) 
-9.5600000000000005

>  <m_primary>  (50) 
energy

>  <rmsd>  (50) 
7.871000267401159

>  <m_score__min__rmsd>  (50) 
7.871000267401159

>  <meeko>  (50) 
{"free_energy": -7.25, "intermolecular_energy": -9.34, "internal_energy": -3.76, "cluster_size": 14, "cluster_id": 8, "rank_in_cluster": 2}

>  <energy>  (50) 
-6.52

>  <cluster_rmsd>  (50) 
0.8

>  <cluster>  (50) 
8

$$$$

     RDKit          3D

 64 68  0  0  1  0  0  0  0  0999 V2000
  139.7280   73.0530  222.7230 O   0  0  0  0  0  0  0  0  0  0  0  0
  140.0630   71.8410  222.5610 C   0  0  0  0  0  0  0  0  0  0  0  0
  140.4740   71.3680  221.2890 N   0  0  0  0  0  0  0  0  0  0  0  0
  140.5250   72.2450  220.1400 C   0  0  0  0  0  0  0  0  0  0  0  0
  141.7690   71.9920  219.3610 C   0  0  0  0  0  0  0  0  0  0  0  0
  141.7260   71.0770  218.4980 O   0  0  0  0  0  0  0  0  0  0  0  0
  142.9300   72.7740  219.6160 N   0  0  0  0  0  0  0  0  0  0  0  0
  144.0360   73.0000  218.6730 C   0  0  0  0  0  0  0  0  0  0  0  0
  145.2530   73.2450  219.4960 C   0  0  2  0  0  0  0  0  0  0  0  0
  146.0130   72.0610  219.6170 O   0  0  0  0  0  0  0  0  0  0  0  0
  144.7550   73.6290  220.8700 C   0  0  0  0  0  0  0  0  0  0  0  0
  143.2690   73.4950  220.8090 C   0  0  1  0  0  0  0  0  0  0  0  0
  142.6640   74.8730  220.8540 C   0  0  1  0  0  0  0  0  0  0  0  0
  142.7490   75.6120  219.5450 C   0  0  0  0  0  0  0  0  0  0  0  0
  142.5170   77.0640  219.8510 C   0  0  0  0  0  0  0  0  0  0  0  0
  141.3050   77.3460  220.6830 C   0  0  2  0  0  0  0  0  0  0  0  0
  141.6300   78.5710  221.4730 C   0  0  0  0  0  0  0  0  0  0  0  0
  141.7710   78.5300  222.8580 C   0  0  0  0  0  0  0  0  0  0  0  0
  142.0740   79.6760  223.5900 C   0  0  0  0  0  0  0  0  0  0  0  0
  142.2420   80.8880  222.9430 C   0  0  0  0  0  0  0  0  0  0  0  0
  142.1000   80.9010  221.6140 N   0  0  0  0  0  0  0  0  0  0  0  0
  141.8090   79.8080  220.8870 C   0  0  0  0  0  0  0  0  0  0  0  0
  140.8870   76.2970  221.6360 C   0  0  0  0  0  0  0  0  0  0  0  0
  141.2040   74.8790  221.2540 C   0  0  0  0  0  0  0  0  0  0  0  0
  140.0230   70.9240  223.7040 C   0  0  0  0  0  0  0  0  0  0  0  0
  139.4760   69.6670  223.5590 C   0  0  0  0  0  0  0  0  0  0  0  0
  139.4680   68.8460  224.6770 C   0  0  0  0  0  0  0  0  0  0  0  0
  139.9810   69.2480  225.8920 C   0  0  0  0  0  0  0  0  0  0  0  0
  139.9800   68.4390  227.0140 C   0  0  0  0  0  0  0  0  0  0  0  0
  140.5030   68.8730  228.2180 C   0  0  0  0  0  0  0  0  0  0  0  0
  140.5140   68.1000  229.3330 F   0  0  0  0  0  0  0  0  0  0  0  0
  141.0460   70.1510  228.3150 C   0  0  0  0  0  0  0  0  0  0  0  0
  141.0460   70.9500  227.2040 C   0  0  0  0  0  0  0  0  0  0  0  0
  140.5230   70.5270  225.9830 C   0  0  0  0  0  0  0  0  0  0  0  0
  140.5240   71.3130  224.8920 N   0  0  0  0  0  0  0  0  0  0  0  0
  140.7370   70.3490  221.2320 H   0  0  0  0  0  0  0  0  0  0  0  0
  139.6501   72.0582  219.5000 H   0  0  0  0  0  0  0  0  0  0  0  0
  140.5199   73.2902  220.4829 H   0  0  0  0  0  0  0  0  0  0  0  0
  144.1798   72.1140  218.0371 H   0  0  0  0  0  0  0  0  0  0  0  0
  143.8256   73.8535  218.0118 H   0  0  0  0  0  0  0  0  0  0  0  0
  145.8836   74.0210  219.0375 H   0  0  0  0  0  0  0  0  0  0  0  0
  145.7520   71.6190  220.4640 H   0  0  0  0  0  0  0  0  0  0  0  0
  145.1707   72.9534  221.6320 H   0  0  0  0  0  0  0  0  0  0  0  0
  145.0613   74.6493  221.1441 H   0  0  0  0  0  0  0  0  0  0  0  0
  142.8679   72.9306  221.6638 H   0  0  0  0  0  0  0  0  0  0  0  0
  143.2729   75.3787  221.6179 H   0  0  0  0  0  0  0  0  0  0  0  0
  141.9790   75.2434  218.8513 H   0  0  0  0  0  0  0  0  0  0  0  0
  143.7290   75.4605  219.0689 H   0  0  0  0  0  0  0  0  0  0  0  0
  142.4096   77.6015  218.8973 H   0  0  0  0  0  0  0  0  0  0  0  0
  143.3823   77.3971  220.4429 H   0  0  0  0  0  0  0  0  0  0  0  0
  140.4615   77.4345  219.9826 H   0  0  0  0  0  0  0  0  0  0  0  0
  141.6404   77.5732  223.3847 H   0  0  0  0  0  0  0  0  0  0  0  0
  142.1798   79.6176  224.6833 H   0  0  0  0  0  0  0  0  0  0  0  0
  142.4830   81.8049  223.5009 H   0  0  0  0  0  0  0  0  0  0  0  0
  141.7109   79.9021  219.7954 H   0  0  0  0  0  0  0  0  0  0  0  0
  139.7967   76.3738  221.7604 H   0  0  0  0  0  0  0  0  0  0  0  0
  141.4661   76.4881  222.5515 H   0  0  0  0  0  0  0  0  0  0  0  0
  140.5748   74.5605  220.4098 H   0  0  0  0  0  0  0  0  0  0  0  0
  141.0102   74.1843  222.0845 H   0  0  0  0  0  0  0  0  0  0  0  0
  139.0632   69.3292  222.5970 H   0  0  0  0  0  0  0  0  0  0  0  0
  139.0368   67.8377  224.5912 H   0  0  0  0  0  0  0  0  0  0  0  0
  139.5534   67.4273  226.9468 H   0  0  0  0  0  0  0  0  0  0  0  0
  141.4666   70.5114  229.2654 H   0  0  0  0  0  0  0  0  0  0  0  0
  141.4735   71.9609  227.2769 H   0  0  0  0  0  0  0  0  0  0  0  0
  1  2  2  0
  2  3  1  0
  3  4  1  0
  4  5  1  0
  5  6  2  0
  5  7  1  0
  7  8  1  0
  8  9  1  0
  9 10  1  0
  9 11  1  0
 11 12  1  0
 12 13  1  0
 13 14  1  0
 14 15  1  0
 15 16  1  0
 16 17  1  0
 17 18  2  0
 18 19  1  0
 19 20  2  0
 20 21  1  0
 21 22  2  0
 16 23  1  0
 23 24  1  0
  2 25  1  0
 25 26  2  0
 26 27  1  0
 27 28  2  0
 28 29  1  0
 29 30  2  0
 30 31  1  0
 30 32  1  0
 32 33  2  0
 33 34  1  0
 34 35  2  0
 12  7  1  0
 24 13  1  0
 35 25  1  0
 22 17  1  0
 34 28  1  0
  3 36  1  0
  4 37  1  0
  4 38  1  0
  8 39  1  0
  8 40  1  0
  9 41  1  6
 10 42  1  0
 11 43  1  0
 11 44  1  0
 12 45  1  1
 13 46  1  1
 14 47  1  0
 14 48  1  0
 15 49  1  0
 15 50  1  0
 16 51  1  6
 18 52  1  0
 19 53  1  0
 20 54  1  0
 22 55  1  0
 23 56  1  0
 23 57  1  0
 24 58  1  0
 24 59  1  0
 26 60  1  0
 27 61  1  0
 29 62  1  0
 32 63  1  0
 33 64  1  0
M  END
>  <smiles>  (51) 
O=C(NCC(=O)N1C[C@H](O)C[C@H]1C1CCC(c2cccnc2)CC1)c1ccc2cc(F)ccc2n1

>  <score_type>  (51) 
oracle

>  <origin>  (51) 
autodockgpu

>  <m_score__min__energy>  (51) 
-10.19

>  <m_primary>  (51) 
energy

>  <rmsd>  (51) 
3.4909156375636914

>  <m_score__min__rmsd>  (51) 
3.4909156375636914

>  <meeko>  (51) 
{"free_energy": -10.19, "intermolecular_energy": -12.28, "internal_energy": -1.62, "cluster_size": 9, "cluster_id": 1, "rank_in_cluster": 1}

>  <energy>  (51) 
-10.19

>  <cluster_rmsd>  (51) 
0.0

>  <cluster>  (51) 
1

$$$$

     RDKit          3D

 64 68  0  0  1  0  0  0  0  0999 V2000
  137.3650   70.1170  221.7380 O   0  0  0  0  0  0  0  0  0  0  0  0
  137.8370   70.8250  222.6770 C   0  0  0  0  0  0  0  0  0  0  0  0
  137.7200   72.2380  222.6460 N   0  0  0  0  0  0  0  0  0  0  0  0
  137.0630   72.9160  221.5500 C   0  0  0  0  0  0  0  0  0  0  0  0
  138.0310   73.1530  220.4440 C   0  0  0  0  0  0  0  0  0  0  0  0
  137.6480   73.8920  219.5000 O   0  0  0  0  0  0  0  0  0  0  0  0
  139.3190   72.5520  220.4950 N   0  0  0  0  0  0  0  0  0  0  0  0
  139.7530   71.3850  219.7120 C   0  0  0  0  0  0  0  0  0  0  0  0
  140.8120   70.7070  220.5090 C   0  0  2  0  0  0  0  0  0  0  0  0
  140.2680   69.6240  221.2330 O   0  0  0  0  0  0  0  0  0  0  0  0
  141.3090   71.7350  221.5000 C   0  0  0  0  0  0  0  0  0  0  0  0
  140.4460   72.9370  221.2960 C   0  0  1  0  0  0  0  0  0  0  0  0
  141.2770   74.0170  220.6580 C   0  0  1  0  0  0  0  0  0  0  0  0
  141.1930   75.3420  221.3680 C   0  0  0  0  0  0  0  0  0  0  0  0
  141.6960   76.3810  220.4070 C   0  0  0  0  0  0  0  0  0  0  0  0
  143.0130   76.0640  219.7700 C   0  0  2  0  0  0  0  0  0  0  0  0
  142.9790   76.7070  218.4220 C   0  0  0  0  0  0  0  0  0  0  0  0
  142.5380   78.0160  218.2500 C   0  0  0  0  0  0  0  0  0  0  0  0
  142.5090   78.6120  216.9910 C   0  0  0  0  0  0  0  0  0  0  0  0
  142.9230   77.9010  215.8770 C   0  0  0  0  0  0  0  0  0  0  0  0
  143.3410   76.6460  216.0700 N   0  0  0  0  0  0  0  0  0  0  0  0
  143.3780   76.0520  217.2750 C   0  0  0  0  0  0  0  0  0  0  0  0
  143.3360   74.6360  219.5740 C   0  0  0  0  0  0  0  0  0  0  0  0
  142.7490   73.6730  220.5670 C   0  0  0  0  0  0  0  0  0  0  0  0
  138.5100   70.1720  223.8040 C   0  0  0  0  0  0  0  0  0  0  0  0
  138.5050   68.7970  223.9050 C   0  0  0  0  0  0  0  0  0  0  0  0
  139.1580   68.2390  224.9930 C   0  0  0  0  0  0  0  0  0  0  0  0
  139.7940   69.0060  225.9460 C   0  0  0  0  0  0  0  0  0  0  0  0
  140.4500   68.4630  227.0360 C   0  0  0  0  0  0  0  0  0  0  0  0
  141.0770   69.2610  227.9740 C   0  0  0  0  0  0  0  0  0  0  0  0
  141.7260   68.7530  229.0520 F   0  0  0  0  0  0  0  0  0  0  0  0
  141.0560   70.6460  227.8290 C   0  0  0  0  0  0  0  0  0  0  0  0
  140.4070   71.1810  226.7490 C   0  0  0  0  0  0  0  0  0  0  0  0
  139.7690   70.3910  225.7950 C   0  0  0  0  0  0  0  0  0  0  0  0
  139.1320   70.9190  224.7350 N   0  0  0  0  0  0  0  0  0  0  0  0
  138.1370   72.7590  223.4620 H   0  0  0  0  0  0  0  0  0  0  0  0
  136.2340   72.2940  221.1814 H   0  0  0  0  0  0  0  0  0  0  0  0
  136.6755   73.8827  221.9039 H   0  0  0  0  0  0  0  0  0  0  0  0
  138.9063   70.7023  219.5475 H   0  0  0  0  0  0  0  0  0  0  0  0
  140.1328   71.6887  218.7253 H   0  0  0  0  0  0  0  0  0  0  0  0
  141.6081   70.3253  219.8528 H   0  0  0  0  0  0  0  0  0  0  0  0
  139.2950   69.5960  221.0490 H   0  0  0  0  0  0  0  0  0  0  0  0
  141.2065   71.3584  222.5284 H   0  0  0  0  0  0  0  0  0  0  0  0
  142.3735   71.9667  221.3478 H   0  0  0  0  0  0  0  0  0  0  0  0
  140.0589   73.3357  222.2453 H   0  0  0  0  0  0  0  0  0  0  0  0
  140.8388   74.0951  219.6521 H   0  0  0  0  0  0  0  0  0  0  0  0
  141.8191   75.3276  222.2723 H   0  0  0  0  0  0  0  0  0  0  0  0
  140.1604   75.5587  221.6792 H   0  0  0  0  0  0  0  0  0  0  0  0
  141.8001   77.3301  220.9532 H   0  0  0  0  0  0  0  0  0  0  0  0
  140.9610   76.4278  219.5900 H   0  0  0  0  0  0  0  0  0  0  0  0
  143.7871   76.4313  220.4598 H   0  0  0  0  0  0  0  0  0  0  0  0
  142.2055   78.5918  219.1263 H   0  0  0  0  0  0  0  0  0  0  0  0
  142.1569   79.6484  216.8817 H   0  0  0  0  0  0  0  0  0  0  0  0
  142.9085   78.3510  214.8734 H   0  0  0  0  0  0  0  0  0  0  0  0
  143.7364   75.0147  217.3489 H   0  0  0  0  0  0  0  0  0  0  0  0
  144.4303   74.5323  219.6148 H   0  0  0  0  0  0  0  0  0  0  0  0
  142.8870   74.3663  218.6067 H   0  0  0  0  0  0  0  0  0  0  0  0
  143.2315   73.7935  221.5482 H   0  0  0  0  0  0  0  0  0  0  0  0
  142.9014   72.6290  220.2560 H   0  0  0  0  0  0  0  0  0  0  0  0
  138.0038   68.1691  223.1537 H   0  0  0  0  0  0  0  0  0  0  0  0
  139.1692   67.1443  225.1000 H   0  0  0  0  0  0  0  0  0  0  0  0
  140.4731   67.3702  227.1591 H   0  0  0  0  0  0  0  0  0  0  0  0
  141.5502   71.2958  228.5663 H   0  0  0  0  0  0  0  0  0  0  0  0
  140.3885   72.2744  226.6300 H   0  0  0  0  0  0  0  0  0  0  0  0
  1  2  2  0
  2  3  1  0
  3  4  1  0
  4  5  1  0
  5  6  2  0
  5  7  1  0
  7  8  1  0
  8  9  1  0
  9 10  1  0
  9 11  1  0
 11 12  1  0
 12 13  1  0
 13 14  1  0
 14 15  1  0
 15 16  1  0
 16 17  1  0
 17 18  2  0
 18 19  1  0
 19 20  2  0
 20 21  1  0
 21 22  2  0
 16 23  1  0
 23 24  1  0
  2 25  1  0
 25 26  2  0
 26 27  1  0
 27 28  2  0
 28 29  1  0
 29 30  2  0
 30 31  1  0
 30 32  1  0
 32 33  2  0
 33 34  1  0
 34 35  2  0
 12  7  1  0
 24 13  1  0
 35 25  1  0
 22 17  1  0
 34 28  1  0
  3 36  1  0
  4 37  1  0
  4 38  1  0
  8 39  1  0
  8 40  1  0
  9 41  1  6
 10 42  1  0
 11 43  1  0
 11 44  1  0
 12 45  1  1
 13 46  1  6
 14 47  1  0
 14 48  1  0
 15 49  1  0
 15 50  1  0
 16 51  1  1
 18 52  1  0
 19 53  1  0
 20 54  1  0
 22 55  1  0
 23 56  1  0
 23 57  1  0
 24 58  1  0
 24 59  1  0
 26 60  1  0
 27 61  1  0
 29 62  1  0
 32 63  1  0
 33 64  1  0
M  END
>  <smiles>  (52) 
O=C(NCC(=O)N1C[C@H](O)C[C@H]1C1CCC(c2cccnc2)CC1)c1ccc2cc(F)ccc2n1

>  <score_type>  (52) 
oracle

>  <origin>  (52) 
autodockgpu

>  <m_score__min__energy>  (52) 
-10.19

>  <m_primary>  (52) 
energy

>  <rmsd>  (52) 
3.1336593930716927

>  <m_score__min__rmsd>  (52) 
3.1336593930716927

>  <meeko>  (52) 
{"free_energy": -6.96, "intermolecular_energy": -9.05, "internal_energy": -3.45, "cluster_size": 1, "cluster_id": 9, "rank_in_cluster": 1}

>  <energy>  (52) 
-9.96

>  <cluster_rmsd>  (52) 
0.27

>  <cluster>  (52) 
1

$$$$

     RDKit          3D

 64 68  0  0  1  0  0  0  0  0999 V2000
  137.8800   75.5280  221.8960 O   0  0  0  0  0  0  0  0  0  0  0  0
  139.1000   75.7830  222.1260 C   0  0  0  0  0  0  0  0  0  0  0  0
  140.0900   74.7790  221.9760 N   0  0  0  0  0  0  0  0  0  0  0  0
  139.7440   73.4370  221.5590 C   0  0  0  0  0  0  0  0  0  0  0  0
  140.9380   72.5520  221.6520 C   0  0  0  0  0  0  0  0  0  0  0  0
  140.9020   71.6330  222.5110 O   0  0  0  0  0  0  0  0  0  0  0  0
  142.0460   72.7730  220.7870 N   0  0  0  0  0  0  0  0  0  0  0  0
  142.4030   71.9480  219.6230 C   0  0  0  0  0  0  0  0  0  0  0  0
  143.8760   72.0770  219.4450 C   0  0  2  0  0  0  0  0  0  0  0  0
  144.5420   70.9790  220.0320 O   0  0  0  0  0  0  0  0  0  0  0  0
  144.2770   73.3270  220.1940 C   0  0  0  0  0  0  0  0  0  0  0  0
  143.0300   73.8150  220.8550 C   0  0  1  0  0  0  0  0  0  0  0  0
  142.5910   75.0800  220.1670 C   0  0  1  0  0  0  0  0  0  0  0  0
  143.6680   75.7180  219.3310 C   0  0  0  0  0  0  0  0  0  0  0  0
  143.2390   77.1360  219.0800 C   0  0  0  0  0  0  0  0  0  0  0  0
  141.8400   77.2890  218.5710 C   0  0  2  0  0  0  0  0  0  0  0  0
  141.3620   78.6080  219.0830 C   0  0  0  0  0  0  0  0  0  0  0  0
  140.0570   78.7870  219.5310 C   0  0  0  0  0  0  0  0  0  0  0  0
  139.6160   80.0200  220.0080 C   0  0  0  0  0  0  0  0  0  0  0  0
  140.4830   81.1000  220.0450 C   0  0  0  0  0  0  0  0  0  0  0  0
  141.7310   80.9010  219.6080 N   0  0  0  0  0  0  0  0  0  0  0  0
  142.1770   79.7210  219.1440 C   0  0  0  0  0  0  0  0  0  0  0  0
  140.8590   76.2670  218.9870 C   0  0  0  0  0  0  0  0  0  0  0  0
  141.3980   74.8900  219.2550 C   0  0  0  0  0  0  0  0  0  0  0  0
  139.4870   77.1320  222.5490 C   0  0  0  0  0  0  0  0  0  0  0  0
  138.5160   78.0570  222.8720 C   0  0  0  0  0  0  0  0  0  0  0  0
  138.9450   79.3160  223.2650 C   0  0  0  0  0  0  0  0  0  0  0  0
  140.2810   79.6510  223.3380 C   0  0  0  0  0  0  0  0  0  0  0  0
  140.7220   80.9030  223.7290 C   0  0  0  0  0  0  0  0  0  0  0  0
  142.0690   81.2060  223.7920 C   0  0  0  0  0  0  0  0  0  0  0  0
  142.5280   82.4260  224.1720 F   0  0  0  0  0  0  0  0  0  0  0  0
  143.0130   80.2390  223.4570 C   0  0  0  0  0  0  0  0  0  0  0  0
  142.5730   79.0020  223.0700 C   0  0  0  0  0  0  0  0  0  0  0  0
  141.2200   78.6790  223.0020 C   0  0  0  0  0  0  0  0  0  0  0  0
  140.7900   77.4630  222.6220 N   0  0  0  0  0  0  0  0  0  0  0  0
  141.0830   75.0660  222.1840 H   0  0  0  0  0  0  0  0  0  0  0  0
  138.9491   73.0463  222.2112 H   0  0  0  0  0  0  0  0  0  0  0  0
  139.3926   73.4616  220.5170 H   0  0  0  0  0  0  0  0  0  0  0  0
  142.1334   70.8973  219.8056 H   0  0  0  0  0  0  0  0  0  0  0  0
  141.8644   72.2785  218.7226 H   0  0  0  0  0  0  0  0  0  0  0  0
  144.1371   72.1155  218.3771 H   0  0  0  0  0  0  0  0  0  0  0  0
  144.7830   71.2320  220.9590 H   0  0  0  0  0  0  0  0  0  0  0  0
  145.0449   73.0943  220.9465 H   0  0  0  0  0  0  0  0  0  0  0  0
  144.7054   74.0851  219.5218 H   0  0  0  0  0  0  0  0  0  0  0  0
  143.1896   74.0535  221.9169 H   0  0  0  0  0  0  0  0  0  0  0  0
  142.3271   75.7332  221.0118 H   0  0  0  0  0  0  0  0  0  0  0  0
  143.7757   75.1804  218.3774 H   0  0  0  0  0  0  0  0  0  0  0  0
  144.6395   75.6845  219.8458 H   0  0  0  0  0  0  0  0  0  0  0  0
  143.9227   77.5738  218.3378 H   0  0  0  0  0  0  0  0  0  0  0  0
  143.2709   77.6456  220.0543 H   0  0  0  0  0  0  0  0  0  0  0  0
  141.8963   77.1884  217.4771 H   0  0  0  0  0  0  0  0  0  0  0  0
  139.3586   77.9374  219.5083 H   0  0  0  0  0  0  0  0  0  0  0  0
  138.5787   80.1358  220.3554 H   0  0  0  0  0  0  0  0  0  0  0  0
  140.1577   82.0820  220.4189 H   0  0  0  0  0  0  0  0  0  0  0  0
  143.2198   79.6397  218.8035 H   0  0  0  0  0  0  0  0  0  0  0  0
  140.1064   76.1819  218.1893 H   0  0  0  0  0  0  0  0  0  0  0  0
  140.4643   76.6180  219.9519 H   0  0  0  0  0  0  0  0  0  0  0  0
  141.7081   74.4111  218.3146 H   0  0  0  0  0  0  0  0  0  0  0  0
  140.6377   74.2419  219.7154 H   0  0  0  0  0  0  0  0  0  0  0  0
  137.4462   77.8066  222.8200 H   0  0  0  0  0  0  0  0  0  0  0  0
  138.1929   80.0745  223.5279 H   0  0  0  0  0  0  0  0  0  0  0  0
  139.9842   81.6741  223.9956 H   0  0  0  0  0  0  0  0  0  0  0  0
  144.0888   80.4641  223.5023 H   0  0  0  0  0  0  0  0  0  0  0  0
  143.3150   78.2351  222.8030 H   0  0  0  0  0  0  0  0  0  0  0  0
  1  2  2  0
  2  3  1  0
  3  4  1  0
  4  5  1  0
  5  6  2  0
  5  7  1  0
  7  8  1  0
  8  9  1  0
  9 10  1  0
  9 11  1  0
 11 12  1  0
 12 13  1  0
 13 14  1  0
 14 15  1  0
 15 16  1  0
 16 17  1  0
 17 18  2  0
 18 19  1  0
 19 20  2  0
 20 21  1  0
 21 22  2  0
 16 23  1  0
 23 24  1  0
  2 25  1  0
 25 26  2  0
 26 27  1  0
 27 28  2  0
 28 29  1  0
 29 30  2  0
 30 31  1  0
 30 32  1  0
 32 33  2  0
 33 34  1  0
 34 35  2  0
 12  7  1  0
 24 13  1  0
 35 25  1  0
 22 17  1  0
 34 28  1  0
  3 36  1  0
  4 37  1  0
  4 38  1  0
  8 39  1  0
  8 40  1  0
  9 41  1  6
 10 42  1  0
 11 43  1  0
 11 44  1  0
 12 45  1  1
 13 46  1  1
 14 47  1  0
 14 48  1  0
 15 49  1  0
 15 50  1  0
 16 51  1  6
 18 52  1  0
 19 53  1  0
 20 54  1  0
 22 55  1  0
 23 56  1  0
 23 57  1  0
 24 58  1  0
 24 59  1  0
 26 60  1  0
 27 61  1  0
 29 62  1  0
 32 63  1  0
 33 64  1  0
M  END
>  <smiles>  (53) 
O=C(NCC(=O)N1C[C@H](O)C[C@H]1C1CCC(c2cccnc2)CC1)c1ccc2cc(F)ccc2n1

>  <score_type>  (53) 
oracle

>  <origin>  (53) 
autodockgpu

>  <m_score__min__energy>  (53) 
-10.19

>  <m_primary>  (53) 
energy

>  <rmsd>  (53) 
7.7326244578007115

>  <m_score__min__rmsd>  (53) 
7.7326244578007115

>  <meeko>  (53) 
{"free_energy": -6.84, "intermolecular_energy": -8.92, "internal_energy": -4.04, "cluster_size": 9, "cluster_id": 10, "rank_in_cluster": 8}

>  <energy>  (53) 
-9.05

>  <cluster_rmsd>  (53) 
1.67

>  <cluster>  (53) 
1

$$$$

     RDKit          3D

 64 68  0  0  1  0  0  0  0  0999 V2000
  140.6730   73.3630  222.3340 O   0  0  0  0  0  0  0  0  0  0  0  0
  139.7350   72.5190  222.4560 C   0  0  0  0  0  0  0  0  0  0  0  0
  138.6440   72.5150  221.5490 N   0  0  0  0  0  0  0  0  0  0  0  0
  138.5640   73.4650  220.4620 C   0  0  0  0  0  0  0  0  0  0  0  0
  138.0600   74.7730  220.9660 C   0  0  0  0  0  0  0  0  0  0  0  0
  136.8120   74.9060  221.0570 O   0  0  0  0  0  0  0  0  0  0  0  0
  138.9840   75.7960  221.3150 N   0  0  0  0  0  0  0  0  0  0  0  0
  139.3910   76.1540  222.6830 C   0  0  0  0  0  0  0  0  0  0  0  0
  139.7720   77.5940  222.6500 C   0  0  2  0  0  0  0  0  0  0  0  0
  138.7000   78.3980  223.0940 O   0  0  0  0  0  0  0  0  0  0  0  0
  140.0380   77.9200  221.1980 C   0  0  0  0  0  0  0  0  0  0  0  0
  139.7040   76.6780  220.4410 C   0  0  1  0  0  0  0  0  0  0  0  0
  140.9840   76.0760  219.9260 C   0  0  1  0  0  0  0  0  0  0  0  0
  140.7880   75.1570  218.7500 C   0  0  0  0  0  0  0  0  0  0  0  0
  142.0360   74.3280  218.6350 C   0  0  0  0  0  0  0  0  0  0  0  0
  143.3130   75.1080  218.6490 C   0  0  2  0  0  0  0  0  0  0  0  0
  144.3330   74.2100  219.2690 C   0  0  0  0  0  0  0  0  0  0  0  0
  144.6310   74.2720  220.6270 C   0  0  0  0  0  0  0  0  0  0  0  0
  145.5830   73.4310  221.1990 C   0  0  0  0  0  0  0  0  0  0  0  0
  146.2550   72.5080  220.4150 C   0  0  0  0  0  0  0  0  0  0  0  0
  145.9490   72.4680  219.1150 N   0  0  0  0  0  0  0  0  0  0  0  0
  145.0350   73.2690  218.5410 C   0  0  0  0  0  0  0  0  0  0  0  0
  143.3160   76.3760  219.4080 C   0  0  0  0  0  0  0  0  0  0  0  0
  142.0070   77.1070  219.4980 C   0  0  0  0  0  0  0  0  0  0  0  0
  139.7830   71.5410  223.5460 C   0  0  0  0  0  0  0  0  0  0  0  0
  139.2990   70.2650  223.3470 C   0  0  0  0  0  0  0  0  0  0  0  0
  139.3740   69.3850  224.4160 C   0  0  0  0  0  0  0  0  0  0  0  0
  139.9060   69.7470  225.6360 C   0  0  0  0  0  0  0  0  0  0  0  0
  139.9870   68.8790  226.7100 C   0  0  0  0  0  0  0  0  0  0  0  0
  140.5260   69.2750  227.9190 C   0  0  0  0  0  0  0  0  0  0  0  0
  140.6160   68.4440  228.9890 F   0  0  0  0  0  0  0  0  0  0  0  0
  141.0030   70.5740  228.0720 C   0  0  0  0  0  0  0  0  0  0  0  0
  140.9220   71.4310  227.0080 C   0  0  0  0  0  0  0  0  0  0  0  0
  140.3810   71.0480  225.7820 C   0  0  0  0  0  0  0  0  0  0  0  0
  140.3030   71.8910  224.7380 N   0  0  0  0  0  0  0  0  0  0  0  0
  137.9030   71.7830  221.7140 H   0  0  0  0  0  0  0  0  0  0  0  0
  139.5638   73.6036  220.0248 H   0  0  0  0  0  0  0  0  0  0  0  0
  137.8727   73.0817  219.6970 H   0  0  0  0  0  0  0  0  0  0  0  0
  138.5550   75.9984  223.3808 H   0  0  0  0  0  0  0  0  0  0  0  0
  140.2297   75.5292  223.0240 H   0  0  0  0  0  0  0  0  0  0  0  0
  140.6418   77.7819  223.2966 H   0  0  0  0  0  0  0  0  0  0  0  0
  137.8570   77.9300  222.8680 H   0  0  0  0  0  0  0  0  0  0  0  0
  139.4006   78.7538  220.8685 H   0  0  0  0  0  0  0  0  0  0  0  0
  141.0810   78.2288  221.0343 H   0  0  0  0  0  0  0  0  0  0  0  0
  139.0613   76.8825  219.5720 H   0  0  0  0  0  0  0  0  0  0  0  0
  141.3510   75.5099  220.7948 H   0  0  0  0  0  0  0  0  0  0  0  0
  140.6370   75.7437  217.8318 H   0  0  0  0  0  0  0  0  0  0  0  0
  139.9022   74.5200  218.8898 H   0  0  0  0  0  0  0  0  0  0  0  0
  141.9882   73.7674  217.6898 H   0  0  0  0  0  0  0  0  0  0  0  0
  142.0597   73.6805  219.5239 H   0  0  0  0  0  0  0  0  0  0  0  0
  143.5038   75.4074  217.6079 H   0  0  0  0  0  0  0  0  0  0  0  0
  144.1042   74.9998  221.2616 H   0  0  0  0  0  0  0  0  0  0  0  0
  145.8013   73.5001  222.2749 H   0  0  0  0  0  0  0  0  0  0  0  0
  147.0107   71.8345  220.8455 H   0  0  0  0  0  0  0  0  0  0  0  0
  144.8408   73.1727  217.4626 H   0  0  0  0  0  0  0  0  0  0  0  0
  144.0426   77.0496  218.9303 H   0  0  0  0  0  0  0  0  0  0  0  0
  143.5640   76.0953  220.4423 H   0  0  0  0  0  0  0  0  0  0  0  0
  141.7371   77.5303  218.5192 H   0  0  0  0  0  0  0  0  0  0  0  0
  142.0598   77.9433  220.2106 H   0  0  0  0  0  0  0  0  0  0  0  0
  138.8715   69.9583  222.3810 H   0  0  0  0  0  0  0  0  0  0  0  0
  138.9952   68.3604  224.2863 H   0  0  0  0  0  0  0  0  0  0  0  0
  139.6138   67.8502  226.5990 H   0  0  0  0  0  0  0  0  0  0  0  0
  141.4358   70.9045  229.0278 H   0  0  0  0  0  0  0  0  0  0  0  0
  141.2972   72.4585  227.1246 H   0  0  0  0  0  0  0  0  0  0  0  0
  1  2  2  0
  2  3  1  0
  3  4  1  0
  4  5  1  0
  5  6  2  0
  5  7  1  0
  7  8  1  0
  8  9  1  0
  9 10  1  0
  9 11  1  0
 11 12  1  0
 12 13  1  0
 13 14  1  0
 14 15  1  0
 15 16  1  0
 16 17  1  0
 17 18  2  0
 18 19  1  0
 19 20  2  0
 20 21  1  0
 21 22  2  0
 16 23  1  0
 23 24  1  0
  2 25  1  0
 25 26  2  0
 26 27  1  0
 27 28  2  0
 28 29  1  0
 29 30  2  0
 30 31  1  0
 30 32  1  0
 32 33  2  0
 33 34  1  0
 34 35  2  0
 12  7  1  0
 24 13  1  0
 35 25  1  0
 22 17  1  0
 34 28  1  0
  3 36  1  0
  4 37  1  0
  4 38  1  0
  8 39  1  0
  8 40  1  0
  9 41  1  1
 10 42  1  0
 11 43  1  0
 11 44  1  0
 12 45  1  6
 13 46  1  1
 14 47  1  0
 14 48  1  0
 15 49  1  0
 15 50  1  0
 16 51  1  6
 18 52  1  0
 19 53  1  0
 20 54  1  0
 22 55  1  0
 23 56  1  0
 23 57  1  0
 24 58  1  0
 24 59  1  0
 26 60  1  0
 27 61  1  0
 29 62  1  0
 32 63  1  0
 33 64  1  0
M  END
>  <smiles>  (54) 
O=C(NCC(=O)N1C[C@H](O)C[C@H]1C1CCC(c2cccnc2)CC1)c1ccc2cc(F)ccc2n1

>  <score_type>  (54) 
oracle

>  <origin>  (54) 
autodockgpu

>  <m_score__min__energy>  (54) 
-10.19

>  <m_primary>  (54) 
energy

>  <rmsd>  (54) 
2.540444160699849

>  <m_score__min__rmsd>  (54) 
2.540444160699849

>  <meeko>  (54) 
{"free_energy": -8.78, "intermolecular_energy": -10.87, "internal_energy": -2.15, "cluster_size": 1, "cluster_id": 4, "rank_in_cluster": 1}

>  <energy>  (54) 
-9.01

>  <cluster_rmsd>  (54) 
1.09

>  <cluster>  (54) 
1

$$$$

     RDKit          3D

 64 68  0  0  1  0  0  0  0  0999 V2000
  138.4430   74.8330  222.1220 O   0  0  0  0  0  0  0  0  0  0  0  0
  139.6020   75.3250  221.9770 C   0  0  0  0  0  0  0  0  0  0  0  0
  139.8430   76.6980  222.2390 N   0  0  0  0  0  0  0  0  0  0  0  0
  138.7830   77.5780  222.6770 C   0  0  0  0  0  0  0  0  0  0  0  0
  139.2910   78.9740  222.7840 C   0  0  0  0  0  0  0  0  0  0  0  0
  138.4560   79.8630  223.0950 O   0  0  0  0  0  0  0  0  0  0  0  0
  140.6660   79.2420  222.5380 N   0  0  0  0  0  0  0  0  0  0  0  0
  141.7920   78.7740  223.3610 C   0  0  0  0  0  0  0  0  0  0  0  0
  142.8860   79.7700  223.1920 C   0  0  2  0  0  0  0  0  0  0  0  0
  142.8900   80.6860  224.2660 O   0  0  0  0  0  0  0  0  0  0  0  0
  142.5640   80.5300  221.9250 C   0  0  0  0  0  0  0  0  0  0  0  0
  141.2430   80.0040  221.4680 C   0  0  1  0  0  0  0  0  0  0  0  0
  141.4610   79.1910  220.2210 C   0  0  1  0  0  0  0  0  0  0  0  0
  140.2010   78.5730  219.6750 C   0  0  0  0  0  0  0  0  0  0  0  0
  140.6260   77.4820  218.7340 C   0  0  0  0  0  0  0  0  0  0  0  0
  141.6460   77.8900  217.7170 C   0  0  2  0  0  0  0  0  0  0  0  0
  142.4510   76.6640  217.4340 C   0  0  0  0  0  0  0  0  0  0  0  0
  143.6510   76.7260  216.7310 C   0  0  0  0  0  0  0  0  0  0  0  0
  144.3980   75.5790  216.4690 C   0  0  0  0  0  0  0  0  0  0  0  0
  143.9520   74.3450  216.9100 C   0  0  0  0  0  0  0  0  0  0  0  0
  142.7970   74.3130  217.5820 N   0  0  0  0  0  0  0  0  0  0  0  0
  142.0600   75.4060  217.8470 C   0  0  0  0  0  0  0  0  0  0  0  0
  142.5870   78.9610  218.1040 C   0  0  0  0  0  0  0  0  0  0  0  0
  142.0770   79.9790  219.0840 C   0  0  0  0  0  0  0  0  0  0  0  0
  140.7010   74.4620  221.5350 C   0  0  0  0  0  0  0  0  0  0  0  0
  140.5130   73.0990  221.4480 C   0  0  0  0  0  0  0  0  0  0  0  0
  141.5910   72.3360  221.0230 C   0  0  0  0  0  0  0  0  0  0  0  0
  142.8080   72.8950  220.6950 C   0  0  0  0  0  0  0  0  0  0  0  0
  143.8900   72.1460  220.2690 C   0  0  0  0  0  0  0  0  0  0  0  0
  145.0970   72.7380  219.9480 C   0  0  0  0  0  0  0  0  0  0  0  0
  146.1740   72.0260  219.5290 F   0  0  0  0  0  0  0  0  0  0  0  0
  145.2390   74.1190  220.0510 C   0  0  0  0  0  0  0  0  0  0  0  0
  144.1660   74.8580  220.4720 C   0  0  0  0  0  0  0  0  0  0  0  0
  142.9430   74.2770  220.7990 C   0  0  0  0  0  0  0  0  0  0  0  0
  141.8910   75.0050  221.2130 N   0  0  0  0  0  0  0  0  0  0  0  0
  140.8320   77.0340  222.0960 H   0  0  0  0  0  0  0  0  0  0  0  0
  137.9585   77.5452  221.9496 H   0  0  0  0  0  0  0  0  0  0  0  0
  138.4242   77.2479  223.6630 H   0  0  0  0  0  0  0  0  0  0  0  0
  141.4915   78.7161  224.4175 H   0  0  0  0  0  0  0  0  0  0  0  0
  142.1186   77.7701  223.0520 H   0  0  0  0  0  0  0  0  0  0  0  0
  143.8650   79.2699  223.1542 H   0  0  0  0  0  0  0  0  0  0  0  0
  143.5840   81.3680  224.0800 H   0  0  0  0  0  0  0  0  0  0  0  0
  142.4980   81.6087  222.1302 H   0  0  0  0  0  0  0  0  0  0  0  0
  143.3430   80.3960  221.1600 H   0  0  0  0  0  0  0  0  0  0  0  0
  140.5390   80.8113  221.2178 H   0  0  0  0  0  0  0  0  0  0  0  0
  142.1533   78.4078  220.5637 H   0  0  0  0  0  0  0  0  0  0  0  0
  139.6108   79.3291  219.1365 H   0  0  0  0  0  0  0  0  0  0  0  0
  139.5737   78.1734  220.4855 H   0  0  0  0  0  0  0  0  0  0  0  0
  139.7336   77.1251  218.1990 H   0  0  0  0  0  0  0  0  0  0  0  0
  141.1005   76.7069  219.3538 H   0  0  0  0  0  0  0  0  0  0  0  0
  141.0865   78.3066  216.8665 H   0  0  0  0  0  0  0  0  0  0  0  0
  144.0171   77.7003  216.3750 H   0  0  0  0  0  0  0  0  0  0  0  0
  145.3430   75.6544  215.9111 H   0  0  0  0  0  0  0  0  0  0  0  0
  144.5255   73.4268  216.7151 H   0  0  0  0  0  0  0  0  0  0  0  0
  141.1203   75.2948  218.4079 H   0  0  0  0  0  0  0  0  0  0  0  0
  142.8797   79.4958  217.1884 H   0  0  0  0  0  0  0  0  0  0  0  0
  143.4141   78.4501  218.6186 H   0  0  0  0  0  0  0  0  0  0  0  0
  141.3200   80.6207  218.6095 H   0  0  0  0  0  0  0  0  0  0  0  0
  142.8844   80.6359  219.4398 H   0  0  0  0  0  0  0  0  0  0  0  0
  139.5488   72.6359  221.7047 H   0  0  0  0  0  0  0  0  0  0  0  0
  141.4704   71.2454  220.9449 H   0  0  0  0  0  0  0  0  0  0  0  0
  143.7875   71.0541  220.1837 H   0  0  0  0  0  0  0  0  0  0  0  0
  146.1927   74.6060  219.7996 H   0  0  0  0  0  0  0  0  0  0  0  0
  144.2736   75.9496  220.5550 H   0  0  0  0  0  0  0  0  0  0  0  0
  1  2  2  0
  2  3  1  0
  3  4  1  0
  4  5  1  0
  5  6  2  0
  5  7  1  0
  7  8  1  0
  8  9  1  0
  9 10  1  0
  9 11  1  0
 11 12  1  0
 12 13  1  0
 13 14  1  0
 14 15  1  0
 15 16  1  0
 16 17  1  0
 17 18  2  0
 18 19  1  0
 19 20  2  0
 20 21  1  0
 21 22  2  0
 16 23  1  0
 23 24  1  0
  2 25  1  0
 25 26  2  0
 26 27  1  0
 27 28  2  0
 28 29  1  0
 29 30  2  0
 30 31  1  0
 30 32  1  0
 32 33  2  0
 33 34  1  0
 34 35  2  0
 12  7  1  0
 24 13  1  0
 35 25  1  0
 22 17  1  0
 34 28  1  0
  3 36  1  0
  4 37  1  0
  4 38  1  0
  8 39  1  0
  8 40  1  0
  9 41  1  6
 10 42  1  0
 11 43  1  0
 11 44  1  0
 12 45  1  6
 13 46  1  1
 14 47  1  0
 14 48  1  0
 15 49  1  0
 15 50  1  0
 16 51  1  6
 18 52  1  0
 19 53  1  0
 20 54  1  0
 22 55  1  0
 23 56  1  0
 23 57  1  0
 24 58  1  0
 24 59  1  0
 26 60  1  0
 27 61  1  0
 29 62  1  0
 32 63  1  0
 33 64  1  0
M  END
>  <smiles>  (55) 
O=C(NCC(=O)N1C[C@H](O)C[C@H]1C1CCC(c2cccnc2)CC1)c1ccc2cc(F)ccc2n1

>  <score_type>  (55) 
oracle

>  <origin>  (55) 
autodockgpu

>  <m_score__min__energy>  (55) 
-10.19

>  <m_primary>  (55) 
energy

>  <rmsd>  (55) 
6.43768563137319

>  <m_score__min__rmsd>  (55) 
6.43768563137319

>  <meeko>  (55) 
{"free_energy": -6.42, "intermolecular_energy": -8.51, "internal_energy": -3.77, "cluster_size": 2, "cluster_id": 12, "rank_in_cluster": 2}

>  <energy>  (55) 
-8.95

>  <cluster_rmsd>  (55) 
1.12

>  <cluster>  (55) 
1

$$$$

     RDKit          3D

 64 68  0  0  1  0  0  0  0  0999 V2000
  137.4670   70.1120  221.7320 O   0  0  0  0  0  0  0  0  0  0  0  0
  137.5340   70.7730  222.8120 C   0  0  0  0  0  0  0  0  0  0  0  0
  136.9040   72.0380  222.9260 N   0  0  0  0  0  0  0  0  0  0  0  0
  136.1670   72.6150  221.8220 C   0  0  0  0  0  0  0  0  0  0  0  0
  137.0400   73.5520  221.0610 C   0  0  0  0  0  0  0  0  0  0  0  0
  136.4680   74.4750  220.4260 O   0  0  0  0  0  0  0  0  0  0  0  0
  138.4510   73.3720  221.0820 N   0  0  0  0  0  0  0  0  0  0  0  0
  139.2440   72.6890  220.0490 C   0  0  0  0  0  0  0  0  0  0  0  0
  140.4500   72.1410  220.7310 C   0  0  2  0  0  0  0  0  0  0  0  0
  140.2620   70.7770  221.0440 O   0  0  0  0  0  0  0  0  0  0  0  0
  140.5790   72.9090  222.0260 C   0  0  0  0  0  0  0  0  0  0  0  0
  139.3850   73.8040  222.0820 C   0  0  1  0  0  0  0  0  0  0  0  0
  139.8440   75.2230  221.8830 C   0  0  1  0  0  0  0  0  0  0  0  0
  140.7940   75.3940  220.7280 C   0  0  0  0  0  0  0  0  0  0  0  0
  141.4770   76.7180  220.9200 C   0  0  0  0  0  0  0  0  0  0  0  0
  140.5560   77.8680  221.1840 C   0  0  2  0  0  0  0  0  0  0  0  0
  141.3250   78.8160  222.0440 C   0  0  0  0  0  0  0  0  0  0  0  0
  141.4800   78.6000  223.4110 C   0  0  0  0  0  0  0  0  0  0  0  0
  142.1980   79.4870  224.2090 C   0  0  0  0  0  0  0  0  0  0  0  0
  142.7770   80.6130  223.6470 C   0  0  0  0  0  0  0  0  0  0  0  0
  142.6140   80.7980  222.3330 N   0  0  0  0  0  0  0  0  0  0  0  0
  141.9250   79.9550  221.5440 C   0  0  0  0  0  0  0  0  0  0  0  0
  139.2870   77.5660  221.8760 C   0  0  0  0  0  0  0  0  0  0  0  0
  138.7090   76.1980  221.6500 C   0  0  0  0  0  0  0  0  0  0  0  0
  138.2720   70.2190  223.9510 C   0  0  0  0  0  0  0  0  0  0  0  0
  138.2580   68.8600  224.1840 C   0  0  0  0  0  0  0  0  0  0  0  0
  138.9750   68.3980  225.2770 C   0  0  0  0  0  0  0  0  0  0  0  0
  139.6810   69.2410  226.1090 C   0  0  0  0  0  0  0  0  0  0  0  0
  140.4020   68.7930  227.2020 C   0  0  0  0  0  0  0  0  0  0  0  0
  141.0980   69.6660  228.0150 C   0  0  0  0  0  0  0  0  0  0  0  0
  141.8120   69.2520  229.0930 F   0  0  0  0  0  0  0  0  0  0  0  0
  141.0830   71.0310  227.7380 C   0  0  0  0  0  0  0  0  0  0  0  0
  140.3710   71.4720  226.6560 C   0  0  0  0  0  0  0  0  0  0  0  0
  139.6630   70.6050  225.8270 C   0  0  0  0  0  0  0  0  0  0  0  0
  138.9630   71.0410  224.7640 N   0  0  0  0  0  0  0  0  0  0  0  0
  137.0040   72.5280  223.8540 H   0  0  0  0  0  0  0  0  0  0  0  0
  135.8246   71.8116  221.1531 H   0  0  0  0  0  0  0  0  0  0  0  0
  135.3009   73.1674  222.2155 H   0  0  0  0  0  0  0  0  0  0  0  0
  138.6590   71.8734  219.5989 H   0  0  0  0  0  0  0  0  0  0  0  0
  139.5251   73.3818  219.2421 H   0  0  0  0  0  0  0  0  0  0  0  0
  141.3377   72.2341  220.0880 H   0  0  0  0  0  0  0  0  0  0  0  0
  139.5250   70.7160  221.7030 H   0  0  0  0  0  0  0  0  0  0  0  0
  140.5825   72.2193  222.8829 H   0  0  0  0  0  0  0  0  0  0  0  0
  141.5183   73.4799  222.0691 H   0  0  0  0  0  0  0  0  0  0  0  0
  138.8753   73.7561  223.0556 H   0  0  0  0  0  0  0  0  0  0  0  0
  140.3534   75.4463  222.8320 H   0  0  0  0  0  0  0  0  0  0  0  0
  140.2398   75.3881  219.7778 H   0  0  0  0  0  0  0  0  0  0  0  0
  141.5260   74.5736  220.6943 H   0  0  0  0  0  0  0  0  0  0  0  0
  142.0513   76.9419  220.0089 H   0  0  0  0  0  0  0  0  0  0  0  0
  142.1067   76.6141  221.8160 H   0  0  0  0  0  0  0  0  0  0  0  0
  140.2488   78.2511  220.1997 H   0  0  0  0  0  0  0  0  0  0  0  0
  141.0256   77.7097  223.8702 H   0  0  0  0  0  0  0  0  0  0  0  0
  142.3055   79.2934  225.2865 H   0  0  0  0  0  0  0  0  0  0  0  0
  143.3486   81.3271  224.2580 H   0  0  0  0  0  0  0  0  0  0  0  0
  141.8368   80.1787  220.4706 H   0  0  0  0  0  0  0  0  0  0  0  0
  138.5413   78.3030  221.5431 H   0  0  0  0  0  0  0  0  0  0  0  0
  139.5237   77.6081  222.9494 H   0  0  0  0  0  0  0  0  0  0  0  0
  138.3322   76.1073  220.6205 H   0  0  0  0  0  0  0  0  0  0  0  0
  137.8630   76.0010  222.3248 H   0  0  0  0  0  0  0  0  0  0  0  0
  137.7017   68.1718  223.5306 H   0  0  0  0  0  0  0  0  0  0  0  0
  138.9809   67.3185  225.4884 H   0  0  0  0  0  0  0  0  0  0  0  0
  140.4212   67.7167  227.4285 H   0  0  0  0  0  0  0  0  0  0  0  0
  141.6320   71.7395  228.3757 H   0  0  0  0  0  0  0  0  0  0  0  0
  140.3572   72.5491  226.4330 H   0  0  0  0  0  0  0  0  0  0  0  0
  1  2  2  0
  2  3  1  0
  3  4  1  0
  4  5  1  0
  5  6  2  0
  5  7  1  0
  7  8  1  0
  8  9  1  0
  9 10  1  0
  9 11  1  0
 11 12  1  0
 12 13  1  0
 13 14  1  0
 14 15  1  0
 15 16  1  0
 16 17  1  0
 17 18  2  0
 18 19  1  0
 19 20  2  0
 20 21  1  0
 21 22  2  0
 16 23  1  0
 23 24  1  0
  2 25  1  0
 25 26  2  0
 26 27  1  0
 27 28  2  0
 28 29  1  0
 29 30  2  0
 30 31  1  0
 30 32  1  0
 32 33  2  0
 33 34  1  0
 34 35  2  0
 12  7  1  0
 24 13  1  0
 35 25  1  0
 22 17  1  0
 34 28  1  0
  3 36  1  0
  4 37  1  0
  4 38  1  0
  8 39  1  0
  8 40  1  0
  9 41  1  6
 10 42  1  0
 11 43  1  0
 11 44  1  0
 12 45  1  1
 13 46  1  1
 14 47  1  0
 14 48  1  0
 15 49  1  0
 15 50  1  0
 16 51  1  6
 18 52  1  0
 19 53  1  0
 20 54  1  0
 22 55  1  0
 23 56  1  0
 23 57  1  0
 24 58  1  0
 24 59  1  0
 26 60  1  0
 27 61  1  0
 29 62  1  0
 32 63  1  0
 33 64  1  0
M  END
>  <smiles>  (56) 
O=C(NCC(=O)N1C[C@H](O)C[C@H]1C1CCC(c2cccnc2)CC1)c1ccc2cc(F)ccc2n1

>  <score_type>  (56) 
oracle

>  <origin>  (56) 
autodockgpu

>  <m_score__min__energy>  (56) 
-10.19

>  <m_primary>  (56) 
energy

>  <rmsd>  (56) 
2.9190888940897635

>  <m_score__min__rmsd>  (56) 
2.9190888940897635

>  <meeko>  (56) 
{"free_energy": -8.1, "intermolecular_energy": -10.19, "internal_energy": -3.17, "cluster_size": 15, "cluster_id": 5, "rank_in_cluster": 13}

>  <energy>  (56) 
-8.83

>  <cluster_rmsd>  (56) 
1.8

>  <cluster>  (56) 
1

$$$$

     RDKit          3D

 64 68  0  0  1  0  0  0  0  0999 V2000
  137.9590   75.4610  221.7300 O   0  0  0  0  0  0  0  0  0  0  0  0
  139.1620   75.7200  222.0340 C   0  0  0  0  0  0  0  0  0  0  0  0
  140.1580   74.7130  221.9650 N   0  0  0  0  0  0  0  0  0  0  0  0
  139.8390   73.3650  221.5500 C   0  0  0  0  0  0  0  0  0  0  0  0
  141.0590   72.5130  221.6040 C   0  0  0  0  0  0  0  0  0  0  0  0
  141.0550   71.5620  222.4290 O   0  0  0  0  0  0  0  0  0  0  0  0
  142.1550   72.7980  220.7430 N   0  0  0  0  0  0  0  0  0  0  0  0
  142.5480   72.0110  219.5650 C   0  0  0  0  0  0  0  0  0  0  0  0
  144.0140   72.2090  219.3900 C   0  0  2  0  0  0  0  0  0  0  0  0
  144.7280   71.1320  219.9570 O   0  0  0  0  0  0  0  0  0  0  0  0
  144.3580   73.4630  220.1600 C   0  0  0  0  0  0  0  0  0  0  0  0
  143.0910   73.8830  220.8290 C   0  0  1  0  0  0  0  0  0  0  0  0
  142.5950   75.1390  220.1640 C   0  0  1  0  0  0  0  0  0  0  0  0
  143.6270   75.8100  219.2970 C   0  0  0  0  0  0  0  0  0  0  0  0
  143.1510   77.2170  219.0680 C   0  0  0  0  0  0  0  0  0  0  0  0
  141.7320   77.3330  218.6050 C   0  0  2  0  0  0  0  0  0  0  0  0
  141.2350   78.6360  219.1400 C   0  0  0  0  0  0  0  0  0  0  0  0
  142.0900   79.7170  219.3380 C   0  0  0  0  0  0  0  0  0  0  0  0
  141.6220   80.9310  219.8370 C   0  0  0  0  0  0  0  0  0  0  0  0
  140.2810   81.0820  220.1480 C   0  0  0  0  0  0  0  0  0  0  0  0
  139.4820   80.0290  219.9500 N   0  0  0  0  0  0  0  0  0  0  0  0
  139.9110   78.8490  219.4690 C   0  0  0  0  0  0  0  0  0  0  0  0
  140.7940   76.2820  219.0480 C   0  0  0  0  0  0  0  0  0  0  0  0
  141.3780   74.9200  219.2900 C   0  0  0  0  0  0  0  0  0  0  0  0
  139.5220   77.0760  222.4580 C   0  0  0  0  0  0  0  0  0  0  0  0
  138.5320   77.9890  222.7550 C   0  0  0  0  0  0  0  0  0  0  0  0
  138.9360   79.2560  223.1510 C   0  0  0  0  0  0  0  0  0  0  0  0
  140.2650   79.6090  223.2520 C   0  0  0  0  0  0  0  0  0  0  0  0
  140.6820   80.8680  223.6460 C   0  0  0  0  0  0  0  0  0  0  0  0
  142.0230   81.1900  223.7370 C   0  0  0  0  0  0  0  0  0  0  0  0
  142.4580   82.4170  224.1200 F   0  0  0  0  0  0  0  0  0  0  0  0
  142.9860   80.2330  223.4270 C   0  0  0  0  0  0  0  0  0  0  0  0
  142.5710   78.9880  223.0370 C   0  0  0  0  0  0  0  0  0  0  0  0
  141.2240   78.6480  222.9410 C   0  0  0  0  0  0  0  0  0  0  0  0
  140.8180   77.4240  222.5580 N   0  0  0  0  0  0  0  0  0  0  0  0
  141.1360   75.0040  222.2320 H   0  0  0  0  0  0  0  0  0  0  0  0
  139.0739   72.9486  222.2217 H   0  0  0  0  0  0  0  0  0  0  0  0
  139.4585   73.3855  220.5181 H   0  0  0  0  0  0  0  0  0  0  0  0
  142.3258   70.9462  219.7287 H   0  0  0  0  0  0  0  0  0  0  0  0
  141.9948   72.3331  218.6704 H   0  0  0  0  0  0  0  0  0  0  0  0
  144.2738   72.2778  218.3233 H   0  0  0  0  0  0  0  0  0  0  0  0
  145.0010   71.3980  220.8720 H   0  0  0  0  0  0  0  0  0  0  0  0
  145.1361   73.2528  220.9085 H   0  0  0  0  0  0  0  0  0  0  0  0
  144.7509   74.2509  219.5006 H   0  0  0  0  0  0  0  0  0  0  0  0
  143.2402   74.1105  221.8948 H   0  0  0  0  0  0  0  0  0  0  0  0
  142.3407   75.7811  221.0202 H   0  0  0  0  0  0  0  0  0  0  0  0
  143.7184   75.2800  218.3375 H   0  0  0  0  0  0  0  0  0  0  0  0
  144.6154   75.8007  219.7797 H   0  0  0  0  0  0  0  0  0  0  0  0
  143.7979   77.6773  218.3067 H   0  0  0  0  0  0  0  0  0  0  0  0
  143.2004   77.7229  220.0435 H   0  0  0  0  0  0  0  0  0  0  0  0
  141.7548   77.2388  217.5093 H   0  0  0  0  0  0  0  0  0  0  0  0
  143.1576   79.6104  219.0953 H   0  0  0  0  0  0  0  0  0  0  0  0
  142.3182   81.7699  219.9840 H   0  0  0  0  0  0  0  0  0  0  0  0
  139.8889   82.0311  220.5424 H   0  0  0  0  0  0  0  0  0  0  0  0
  139.1877   78.0313  219.3339 H   0  0  0  0  0  0  0  0  0  0  0  0
  140.0176   76.1800  218.2755 H   0  0  0  0  0  0  0  0  0  0  0  0
  140.4233   76.6175  220.0278 H   0  0  0  0  0  0  0  0  0  0  0  0
  141.6701   74.4542  218.3372 H   0  0  0  0  0  0  0  0  0  0  0  0
  140.6512   74.2488  219.7709 H   0  0  0  0  0  0  0  0  0  0  0  0
  137.4670   77.7240  222.6811 H   0  0  0  0  0  0  0  0  0  0  0  0
  138.1684   80.0058  223.3931 H   0  0  0  0  0  0  0  0  0  0  0  0
  139.9286   81.6306  223.8926 H   0  0  0  0  0  0  0  0  0  0  0  0
  144.0575   80.4724  223.4941 H   0  0  0  0  0  0  0  0  0  0  0  0
  143.3285   78.2293  222.7907 H   0  0  0  0  0  0  0  0  0  0  0  0
  1  2  2  0
  2  3  1  0
  3  4  1  0
  4  5  1  0
  5  6  2  0
  5  7  1  0
  7  8  1  0
  8  9  1  0
  9 10  1  0
  9 11  1  0
 11 12  1  0
 12 13  1  0
 13 14  1  0
 14 15  1  0
 15 16  1  0
 16 17  1  0
 17 18  2  0
 18 19  1  0
 19 20  2  0
 20 21  1  0
 21 22  2  0
 16 23  1  0
 23 24  1  0
  2 25  1  0
 25 26  2  0
 26 27  1  0
 27 28  2  0
 28 29  1  0
 29 30  2  0
 30 31  1  0
 30 32  1  0
 32 33  2  0
 33 34  1  0
 34 35  2  0
 12  7  1  0
 24 13  1  0
 35 25  1  0
 22 17  1  0
 34 28  1  0
  3 36  1  0
  4 37  1  0
  4 38  1  0
  8 39  1  0
  8 40  1  0
  9 41  1  6
 10 42  1  0
 11 43  1  0
 11 44  1  0
 12 45  1  1
 13 46  1  1
 14 47  1  0
 14 48  1  0
 15 49  1  0
 15 50  1  0
 16 51  1  6
 18 52  1  0
 19 53  1  0
 20 54  1  0
 22 55  1  0
 23 56  1  0
 23 57  1  0
 24 58  1  0
 24 59  1  0
 26 60  1  0
 27 61  1  0
 29 62  1  0
 32 63  1  0
 33 64  1  0
M  END
>  <smiles>  (57) 
O=C(NCC(=O)N1C[C@H](O)C[C@H]1C1CCC(c2cccnc2)CC1)c1ccc2cc(F)ccc2n1

>  <score_type>  (57) 
oracle

>  <origin>  (57) 
autodockgpu

>  <m_score__min__energy>  (57) 
-10.19

>  <m_primary>  (57) 
energy

>  <rmsd>  (57) 
7.717129696108549

>  <m_score__min__rmsd>  (57) 
7.717129696108549

>  <meeko>  (57) 
{"free_energy": -6.84, "intermolecular_energy": -8.92, "internal_energy": -4.13, "cluster_size": 9, "cluster_id": 10, "rank_in_cluster": 7}

>  <energy>  (57) 
-8.72

>  <cluster_rmsd>  (57) 
1.98

>  <cluster>  (57) 
1

$$$$

     RDKit          3D

 64 68  0  0  1  0  0  0  0  0999 V2000
  141.1170   72.1140  221.3080 O   0  0  0  0  0  0  0  0  0  0  0  0
  140.2110   72.3850  222.1530 C   0  0  0  0  0  0  0  0  0  0  0  0
  139.3750   73.5160  221.9790 N   0  0  0  0  0  0  0  0  0  0  0  0
  139.5240   74.3960  220.8410 C   0  0  0  0  0  0  0  0  0  0  0  0
  140.5840   75.4060  221.1130 C   0  0  0  0  0  0  0  0  0  0  0  0
  141.4660   75.0950  221.9550 O   0  0  0  0  0  0  0  0  0  0  0  0
  140.5590   76.6530  220.4280 N   0  0  0  0  0  0  0  0  0  0  0  0
  139.7990   76.9440  219.2030 C   0  0  0  0  0  0  0  0  0  0  0  0
  140.5390   78.0200  218.4880 C   0  0  2  0  0  0  0  0  0  0  0  0
  141.3540   77.4690  217.4750 O   0  0  0  0  0  0  0  0  0  0  0  0
  141.4370   78.6620  219.5200 C   0  0  0  0  0  0  0  0  0  0  0  0
  141.2480   77.8650  220.7680 C   0  0  1  0  0  0  0  0  0  0  0  0
  140.4960   78.7080  221.7620 C   0  0  1  0  0  0  0  0  0  0  0  0
  139.4540   77.9440  222.5350 C   0  0  0  0  0  0  0  0  0  0  0  0
  138.5290   78.9620  223.1390 C   0  0  0  0  0  0  0  0  0  0  0  0
  139.2100   80.0710  223.8790 C   0  0  2  0  0  0  0  0  0  0  0  0
  138.3240   81.2640  223.7320 C   0  0  0  0  0  0  0  0  0  0  0  0
  138.3170   82.0290  222.5690 C   0  0  0  0  0  0  0  0  0  0  0  0
  137.4880   83.1400  222.4370 C   0  0  0  0  0  0  0  0  0  0  0  0
  136.6470   83.5050  223.4750 C   0  0  0  0  0  0  0  0  0  0  0  0
  136.6720   82.7540  224.5800 N   0  0  0  0  0  0  0  0  0  0  0  0
  137.4630   81.6780  224.7290 C   0  0  0  0  0  0  0  0  0  0  0  0
  140.5590   80.4570  223.4160 C   0  0  0  0  0  0  0  0  0  0  0  0
  141.3880   79.3730  222.7890 C   0  0  0  0  0  0  0  0  0  0  0  0
  140.0310   71.5150  223.3190 C   0  0  0  0  0  0  0  0  0  0  0  0
  139.3500   70.3230  223.1900 C   0  0  0  0  0  0  0  0  0  0  0  0
  139.2130   69.5440  224.3290 C   0  0  0  0  0  0  0  0  0  0  0  0
  139.7280   69.9240  225.5500 C   0  0  0  0  0  0  0  0  0  0  0  0
  139.6000   69.1560  226.6940 C   0  0  0  0  0  0  0  0  0  0  0  0
  140.1290   69.5660  227.9020 C   0  0  0  0  0  0  0  0  0  0  0  0
  140.0160   68.8330  229.0390 F   0  0  0  0  0  0  0  0  0  0  0  0
  140.8100   70.7780  227.9840 C   0  0  0  0  0  0  0  0  0  0  0  0
  140.9370   71.5360  226.8510 C   0  0  0  0  0  0  0  0  0  0  0  0
  140.4090   71.1370  225.6250 C   0  0  0  0  0  0  0  0  0  0  0  0
  140.5340   71.8830  224.5130 N   0  0  0  0  0  0  0  0  0  0  0  0
  138.6440   73.6760  222.7230 H   0  0  0  0  0  0  0  0  0  0  0  0
  139.8033   73.8040  219.9569 H   0  0  0  0  0  0  0  0  0  0  0  0
  138.5708   74.9136  220.6578 H   0  0  0  0  0  0  0  0  0  0  0  0
  139.7353   76.0443  218.5733 H   0  0  0  0  0  0  0  0  0  0  0  0
  138.7718   77.2589  219.4392 H   0  0  0  0  0  0  0  0  0  0  0  0
  139.8402   78.7330  218.0261 H   0  0  0  0  0  0  0  0  0  0  0  0
  141.3680   78.1060  216.7170 H   0  0  0  0  0  0  0  0  0  0  0  0
  142.4868   78.6217  219.1939 H   0  0  0  0  0  0  0  0  0  0  0  0
  141.1882   79.7226  219.6727 H   0  0  0  0  0  0  0  0  0  0  0  0
  142.2058   77.5849  221.2309 H   0  0  0  0  0  0  0  0  0  0  0  0
  140.0182   79.4648  221.1225 H   0  0  0  0  0  0  0  0  0  0  0  0
  139.9311   77.3485  223.3273 H   0  0  0  0  0  0  0  0  0  0  0  0
  138.9052   77.2514  221.8799 H   0  0  0  0  0  0  0  0  0  0  0  0
  137.8606   78.4424  223.8413 H   0  0  0  0  0  0  0  0  0  0  0  0
  137.9968   79.4324  222.2991 H   0  0  0  0  0  0  0  0  0  0  0  0
  139.3633   79.7089  224.9063 H   0  0  0  0  0  0  0  0  0  0  0  0
  138.9802   81.7500  221.7369 H   0  0  0  0  0  0  0  0  0  0  0  0
  137.5011   83.7282  221.5076 H   0  0  0  0  0  0  0  0  0  0  0  0
  135.9842   84.3791  223.3931 H   0  0  0  0  0  0  0  0  0  0  0  0
  137.4235   81.1114  225.6710 H   0  0  0  0  0  0  0  0  0  0  0  0
  141.1133   80.8413  224.2849 H   0  0  0  0  0  0  0  0  0  0  0  0
  140.3926   81.1949  222.6174 H   0  0  0  0  0  0  0  0  0  0  0  0
  141.7038   78.6444  223.5502 H   0  0  0  0  0  0  0  0  0  0  0  0
  142.3007   79.7788  222.3281 H   0  0  0  0  0  0  0  0  0  0  0  0
  138.9328   70.0033  222.2237 H   0  0  0  0  0  0  0  0  0  0  0  0
  138.6738   68.5881  224.2556 H   0  0  0  0  0  0  0  0  0  0  0  0
  139.0645   68.1967  226.6399 H   0  0  0  0  0  0  0  0  0  0  0  0
  141.2368   71.1190  228.9387 H   0  0  0  0  0  0  0  0  0  0  0  0
  141.4748   72.4937  226.9108 H   0  0  0  0  0  0  0  0  0  0  0  0
  1  2  2  0
  2  3  1  0
  3  4  1  0
  4  5  1  0
  5  6  2  0
  5  7  1  0
  7  8  1  0
  8  9  1  0
  9 10  1  0
  9 11  1  0
 11 12  1  0
 12 13  1  0
 13 14  1  0
 14 15  1  0
 15 16  1  0
 16 17  1  0
 17 18  2  0
 18 19  1  0
 19 20  2  0
 20 21  1  0
 21 22  2  0
 16 23  1  0
 23 24  1  0
  2 25  1  0
 25 26  2  0
 26 27  1  0
 27 28  2  0
 28 29  1  0
 29 30  2  0
 30 31  1  0
 30 32  1  0
 32 33  2  0
 33 34  1  0
 34 35  2  0
 12  7  1  0
 24 13  1  0
 35 25  1  0
 22 17  1  0
 34 28  1  0
  3 36  1  0
  4 37  1  0
  4 38  1  0
  8 39  1  0
  8 40  1  0
  9 41  1  6
 10 42  1  0
 11 43  1  0
 11 44  1  0
 12 45  1  1
 13 46  1  6
 14 47  1  0
 14 48  1  0
 15 49  1  0
 15 50  1  0
 16 51  1  1
 18 52  1  0
 19 53  1  0
 20 54  1  0
 22 55  1  0
 23 56  1  0
 23 57  1  0
 24 58  1  0
 24 59  1  0
 26 60  1  0
 27 61  1  0
 29 62  1  0
 32 63  1  0
 33 64  1  0
M  END
>  <smiles>  (58) 
O=C(NCC(=O)N1C[C@H](O)C[C@H]1C1CCC(c2cccnc2)CC1)c1ccc2cc(F)ccc2n1

>  <score_type>  (58) 
oracle

>  <origin>  (58) 
autodockgpu

>  <m_score__min__energy>  (58) 
-10.19

>  <m_primary>  (58) 
energy

>  <rmsd>  (58) 
1.5730373855881619

>  <m_score__min__rmsd>  (58) 
1.5730373855881619

>  <meeko>  (58) 
{"free_energy": -8.58, "intermolecular_energy": -10.67, "internal_energy": -1.62, "cluster_size": 6, "cluster_id": 2, "rank_in_cluster": 6}

>  <energy>  (58) 
-8.69

>  <cluster_rmsd>  (58) 
1.97

>  <cluster>  (58) 
1

$$$$

     RDKit          3D

 64 68  0  0  1  0  0  0  0  0999 V2000
  139.8860   74.4980  221.9850 O   0  0  0  0  0  0  0  0  0  0  0  0
  140.6430   75.5070  221.8620 C   0  0  0  0  0  0  0  0  0  0  0  0
  141.8840   75.4020  221.1840 N   0  0  0  0  0  0  0  0  0  0  0  0
  142.3270   74.1490  220.6150 C   0  0  0  0  0  0  0  0  0  0  0  0
  143.3190   74.4040  219.5330 C   0  0  0  0  0  0  0  0  0  0  0  0
  144.5020   74.0290  219.7430 O   0  0  0  0  0  0  0  0  0  0  0  0
  142.9010   75.0440  218.3330 N   0  0  0  0  0  0  0  0  0  0  0  0
  141.9040   74.5240  217.3850 C   0  0  0  0  0  0  0  0  0  0  0  0
  142.2540   75.0820  216.0500 C   0  0  2  0  0  0  0  0  0  0  0  0
  142.9950   74.1420  215.3010 O   0  0  0  0  0  0  0  0  0  0  0  0
  143.1410   76.2760  216.3180 C   0  0  0  0  0  0  0  0  0  0  0  0
  143.3440   76.2990  217.7970 C   0  0  1  0  0  0  0  0  0  0  0  0
  142.5940   77.4750  218.3630 C   0  0  1  0  0  0  0  0  0  0  0  0
  142.6090   78.6870  217.4690 C   0  0  0  0  0  0  0  0  0  0  0  0
  142.2190   79.8600  218.3230 C   0  0  0  0  0  0  0  0  0  0  0  0
  140.9780   79.6620  219.1360 C   0  0  2  0  0  0  0  0  0  0  0  0
  141.1630   80.4850  220.3680 C   0  0  0  0  0  0  0  0  0  0  0  0
  140.3010   81.5320  220.6820 C   0  0  0  0  0  0  0  0  0  0  0  0
  140.4780   82.2970  221.8330 C   0  0  0  0  0  0  0  0  0  0  0  0
  141.5270   82.0230  222.6940 C   0  0  0  0  0  0  0  0  0  0  0  0
  142.3400   81.0120  222.3700 N   0  0  0  0  0  0  0  0  0  0  0  0
  142.1880   80.2610  221.2650 C   0  0  0  0  0  0  0  0  0  0  0  0
  140.6690   78.2820  219.5630 C   0  0  0  0  0  0  0  0  0  0  0  0
  141.1390   77.1790  218.6590 C   0  0  0  0  0  0  0  0  0  0  0  0
  140.2250   76.7940  222.4260 C   0  0  0  0  0  0  0  0  0  0  0  0
  141.1490   77.6050  223.0490 C   0  0  0  0  0  0  0  0  0  0  0  0
  140.6920   78.8090  223.5620 C   0  0  0  0  0  0  0  0  0  0  0  0
  139.3730   79.2010  223.4650 C   0  0  0  0  0  0  0  0  0  0  0  0
  138.9040   80.4000  223.9710 C   0  0  0  0  0  0  0  0  0  0  0  0
  137.5760   80.7630  223.8560 C   0  0  0  0  0  0  0  0  0  0  0  0
  137.0900   81.9320  224.3450 F   0  0  0  0  0  0  0  0  0  0  0  0
  136.6790   79.9100  223.2180 C   0  0  0  0  0  0  0  0  0  0  0  0
  137.1450   78.7240  222.7170 C   0  0  0  0  0  0  0  0  0  0  0  0
  138.4810   78.3440  222.8240 C   0  0  0  0  0  0  0  0  0  0  0  0
  138.9380   77.1790  222.3320 N   0  0  0  0  0  0  0  0  0  0  0  0
  142.4580   76.2840  221.1220 H   0  0  0  0  0  0  0  0  0  0  0  0
  142.7940   73.5369  221.4007 H   0  0  0  0  0  0  0  0  0  0  0  0
  141.4612   73.6173  220.1935 H   0  0  0  0  0  0  0  0  0  0  0  0
  141.9424   73.4250  217.3588 H   0  0  0  0  0  0  0  0  0  0  0  0
  140.8855   74.8149  217.6816 H   0  0  0  0  0  0  0  0  0  0  0  0
  141.3456   75.3417  215.4866 H   0  0  0  0  0  0  0  0  0  0  0  0
  142.9270   74.3940  214.3460 H   0  0  0  0  0  0  0  0  0  0  0  0
  144.1046   76.1630  215.7995 H   0  0  0  0  0  0  0  0  0  0  0  0
  142.6885   77.2101  215.9539 H   0  0  0  0  0  0  0  0  0  0  0  0
  144.4031   76.4213  218.0677 H   0  0  0  0  0  0  0  0  0  0  0  0
  143.1394   77.6822  219.2955 H   0  0  0  0  0  0  0  0  0  0  0  0
  141.8888   78.5606  216.6472 H   0  0  0  0  0  0  0  0  0  0  0  0
  143.6032   78.8364  217.0227 H   0  0  0  0  0  0  0  0  0  0  0  0
  142.0608   80.7257  217.6630 H   0  0  0  0  0  0  0  0  0  0  0  0
  143.0391   80.0049  219.0417 H   0  0  0  0  0  0  0  0  0  0  0  0
  140.1350   79.9461  218.4889 H   0  0  0  0  0  0  0  0  0  0  0  0
  139.4626   81.7601  220.0074 H   0  0  0  0  0  0  0  0  0  0  0  0
  139.7834   83.1197  222.0579 H   0  0  0  0  0  0  0  0  0  0  0  0
  141.6854   82.6136  223.6084 H   0  0  0  0  0  0  0  0  0  0  0  0
  142.9002   79.4456  221.0705 H   0  0  0  0  0  0  0  0  0  0  0  0
  139.5760   78.1971  219.6532 H   0  0  0  0  0  0  0  0  0  0  0  0
  141.2181   78.1394  220.5054 H   0  0  0  0  0  0  0  0  0  0  0  0
  140.5532   77.1718  217.7280 H   0  0  0  0  0  0  0  0  0  0  0  0
  141.0157   76.1921  219.1290 H   0  0  0  0  0  0  0  0  0  0  0  0
  142.2050   77.3092  223.1355 H   0  0  0  0  0  0  0  0  0  0  0  0
  141.4074   79.4763  224.0649 H   0  0  0  0  0  0  0  0  0  0  0  0
  139.6049   81.0804  224.4768 H   0  0  0  0  0  0  0  0  0  0  0  0
  135.6181   80.1833  223.1186 H   0  0  0  0  0  0  0  0  0  0  0  0
  136.4397   78.0474  222.2123 H   0  0  0  0  0  0  0  0  0  0  0  0
  1  2  2  0
  2  3  1  0
  3  4  1  0
  4  5  1  0
  5  6  2  0
  5  7  1  0
  7  8  1  0
  8  9  1  0
  9 10  1  0
  9 11  1  0
 11 12  1  0
 12 13  1  0
 13 14  1  0
 14 15  1  0
 15 16  1  0
 16 17  1  0
 17 18  2  0
 18 19  1  0
 19 20  2  0
 20 21  1  0
 21 22  2  0
 16 23  1  0
 23 24  1  0
  2 25  1  0
 25 26  2  0
 26 27  1  0
 27 28  2  0
 28 29  1  0
 29 30  2  0
 30 31  1  0
 30 32  1  0
 32 33  2  0
 33 34  1  0
 34 35  2  0
 12  7  1  0
 24 13  1  0
 35 25  1  0
 22 17  1  0
 34 28  1  0
  3 36  1  0
  4 37  1  0
  4 38  1  0
  8 39  1  0
  8 40  1  0
  9 41  1  6
 10 42  1  0
 11 43  1  0
 11 44  1  0
 12 45  1  6
 13 46  1  1
 14 47  1  0
 14 48  1  0
 15 49  1  0
 15 50  1  0
 16 51  1  6
 18 52  1  0
 19 53  1  0
 20 54  1  0
 22 55  1  0
 23 56  1  0
 23 57  1  0
 24 58  1  0
 24 59  1  0
 26 60  1  0
 27 61  1  0
 29 62  1  0
 32 63  1  0
 33 64  1  0
M  END
>  <smiles>  (59) 
O=C(NCC(=O)N1C[C@H](O)C[C@H]1C1CCC(c2cccnc2)CC1)c1ccc2cc(F)ccc2n1

>  <score_type>  (59) 
oracle

>  <origin>  (59) 
autodockgpu

>  <m_score__min__energy>  (59) 
-10.19

>  <m_primary>  (59) 
energy

>  <rmsd>  (59) 
7.5665605955808255

>  <m_score__min__rmsd>  (59) 
7.5665605955808255

>  <meeko>  (59) 
{"free_energy": -6.86, "intermolecular_energy": -8.95, "internal_energy": -3.29, "cluster_size": 1, "cluster_id": 11, "rank_in_cluster": 1}

>  <energy>  (59) 
-8.62

>  <cluster_rmsd>  (59) 
1.97

>  <cluster>  (59) 
1

$$$$

     RDKit          3D

 64 68  0  0  1  0  0  0  0  0999 V2000
  137.7120   70.0950  221.5300 O   0  0  0  0  0  0  0  0  0  0  0  0
  137.7550   70.7890  222.5900 C   0  0  0  0  0  0  0  0  0  0  0  0
  137.1350   72.0620  222.6460 N   0  0  0  0  0  0  0  0  0  0  0  0
  136.4360   72.6110  221.5050 C   0  0  0  0  0  0  0  0  0  0  0  0
  137.4020   73.2860  220.5930 C   0  0  0  0  0  0  0  0  0  0  0  0
  136.9200   73.9010  219.6060 O   0  0  0  0  0  0  0  0  0  0  0  0
  138.7960   73.2110  220.8650 N   0  0  0  0  0  0  0  0  0  0  0  0
  139.8060   72.5800  220.0040 C   0  0  0  0  0  0  0  0  0  0  0  0
  140.9080   72.1290  220.8990 C   0  0  2  0  0  0  0  0  0  0  0  0
  140.7660   70.7580  221.2040 O   0  0  0  0  0  0  0  0  0  0  0  0
  140.7510   72.9170  222.1790 C   0  0  0  0  0  0  0  0  0  0  0  0
  139.5050   73.7200  222.0050 C   0  0  1  0  0  0  0  0  0  0  0  0
  139.8890   75.1680  221.8570 C   0  0  1  0  0  0  0  0  0  0  0  0
  140.6530   75.4650  220.5950 C   0  0  0  0  0  0  0  0  0  0  0  0
  141.3190   76.7960  220.7940 C   0  0  0  0  0  0  0  0  0  0  0  0
  140.4160   77.8850  221.2820 C   0  0  2  0  0  0  0  0  0  0  0  0
  141.2760   78.7940  222.0960 C   0  0  0  0  0  0  0  0  0  0  0  0
  141.4000   78.6400  223.4740 C   0  0  0  0  0  0  0  0  0  0  0  0
  142.2050   79.4910  224.2290 C   0  0  0  0  0  0  0  0  0  0  0  0
  142.9030   80.5160  223.6120 C   0  0  0  0  0  0  0  0  0  0  0  0
  142.7660   80.6420  222.2880 N   0  0  0  0  0  0  0  0  0  0  0  0
  141.9960   79.8330  221.5400 C   0  0  0  0  0  0  0  0  0  0  0  0
  139.2710   77.4810  222.1240 C   0  0  0  0  0  0  0  0  0  0  0  0
  138.7050   76.1120  221.8720 C   0  0  0  0  0  0  0  0  0  0  0  0
  138.4540   70.2630  223.7660 C   0  0  0  0  0  0  0  0  0  0  0  0
  138.4360   68.9100  224.0300 C   0  0  0  0  0  0  0  0  0  0  0  0
  139.1160   68.4750  225.1570 C   0  0  0  0  0  0  0  0  0  0  0  0
  139.7890   69.3400  225.9940 C   0  0  0  0  0  0  0  0  0  0  0  0
  140.4720   68.9190  227.1220 C   0  0  0  0  0  0  0  0  0  0  0  0
  141.1370   69.8130  227.9390 C   0  0  0  0  0  0  0  0  0  0  0  0
  141.8120   69.4260  229.0510 F   0  0  0  0  0  0  0  0  0  0  0  0
  141.1270   71.1710  227.6320 C   0  0  0  0  0  0  0  0  0  0  0  0
  140.4510   71.5850  226.5160 C   0  0  0  0  0  0  0  0  0  0  0  0
  139.7760   70.6970  225.6810 C   0  0  0  0  0  0  0  0  0  0  0  0
  139.1130   71.1050  224.5850 N   0  0  0  0  0  0  0  0  0  0  0  0
  137.2130   72.5800  223.5610 H   0  0  0  0  0  0  0  0  0  0  0  0
  135.9293   71.7991  220.9628 H   0  0  0  0  0  0  0  0  0  0  0  0
  135.6950   73.3452  221.8541 H   0  0  0  0  0  0  0  0  0  0  0  0
  139.3699   71.7193  219.4758 H   0  0  0  0  0  0  0  0  0  0  0  0
  140.1756   73.2849  219.2447 H   0  0  0  0  0  0  0  0  0  0  0  0
  141.8865   72.2813  220.4201 H   0  0  0  0  0  0  0  0  0  0  0  0
  139.7970   70.5560  221.2470 H   0  0  0  0  0  0  0  0  0  0  0  0
  140.6533   72.2377  223.0387 H   0  0  0  0  0  0  0  0  0  0  0  0
  141.6243   73.5571  222.3729 H   0  0  0  0  0  0  0  0  0  0  0  0
  138.8364   73.6422  222.8750 H   0  0  0  0  0  0  0  0  0  0  0  0
  140.5267   75.3381  222.7370 H   0  0  0  0  0  0  0  0  0  0  0  0
  139.9652   75.5101  219.7377 H   0  0  0  0  0  0  0  0  0  0  0  0
  141.3948   74.6794  220.3886 H   0  0  0  0  0  0  0  0  0  0  0  0
  141.7460   77.1120  219.8308 H   0  0  0  0  0  0  0  0  0  0  0  0
  142.0762   76.6482  221.5781 H   0  0  0  0  0  0  0  0  0  0  0  0
  139.9570   78.3300  220.3868 H   0  0  0  0  0  0  0  0  0  0  0  0
  140.8514   77.8301  223.9772 H   0  0  0  0  0  0  0  0  0  0  0  0
  142.2862   79.3484  225.3167 H   0  0  0  0  0  0  0  0  0  0  0  0
  143.5444   81.1990  224.1883 H   0  0  0  0  0  0  0  0  0  0  0  0
  141.9378   80.0033  220.4548 H   0  0  0  0  0  0  0  0  0  0  0  0
  138.4640   78.2112  221.9638 H   0  0  0  0  0  0  0  0  0  0  0  0
  139.6613   77.4505  223.1520 H   0  0  0  0  0  0  0  0  0  0  0  0
  138.1832   76.0862  220.9040 H   0  0  0  0  0  0  0  0  0  0  0  0
  137.9739   75.8296  222.6438 H   0  0  0  0  0  0  0  0  0  0  0  0
  137.9043   68.2052  223.3739 H   0  0  0  0  0  0  0  0  0  0  0  0
  139.1188   67.4005  225.3922 H   0  0  0  0  0  0  0  0  0  0  0  0
  140.4856   67.8483  227.3737 H   0  0  0  0  0  0  0  0  0  0  0  0
  141.6511   71.8957  228.2725 H   0  0  0  0  0  0  0  0  0  0  0  0
  140.4403   72.6570  226.2696 H   0  0  0  0  0  0  0  0  0  0  0  0
  1  2  2  0
  2  3  1  0
  3  4  1  0
  4  5  1  0
  5  6  2  0
  5  7  1  0
  7  8  1  0
  8  9  1  0
  9 10  1  0
  9 11  1  0
 11 12  1  0
 12 13  1  0
 13 14  1  0
 14 15  1  0
 15 16  1  0
 16 17  1  0
 17 18  2  0
 18 19  1  0
 19 20  2  0
 20 21  1  0
 21 22  2  0
 16 23  1  0
 23 24  1  0
  2 25  1  0
 25 26  2  0
 26 27  1  0
 27 28  2  0
 28 29  1  0
 29 30  2  0
 30 31  1  0
 30 32  1  0
 32 33  2  0
 33 34  1  0
 34 35  2  0
 12  7  1  0
 24 13  1  0
 35 25  1  0
 22 17  1  0
 34 28  1  0
  3 36  1  0
  4 37  1  0
  4 38  1  0
  8 39  1  0
  8 40  1  0
  9 41  1  6
 10 42  1  0
 11 43  1  0
 11 44  1  0
 12 45  1  1
 13 46  1  1
 14 47  1  0
 14 48  1  0
 15 49  1  0
 15 50  1  0
 16 51  1  6
 18 52  1  0
 19 53  1  0
 20 54  1  0
 22 55  1  0
 23 56  1  0
 23 57  1  0
 24 58  1  0
 24 59  1  0
 26 60  1  0
 27 61  1  0
 29 62  1  0
 32 63  1  0
 33 64  1  0
M  END
>  <smiles>  (60) 
O=C(NCC(=O)N1C[C@H](O)C[C@H]1C1CCC(c2cccnc2)CC1)c1ccc2cc(F)ccc2n1

>  <score_type>  (60) 
oracle

>  <origin>  (60) 
autodockgpu

>  <m_score__min__energy>  (60) 
-10.19

>  <m_primary>  (60) 
energy

>  <rmsd>  (60) 
2.922585925269455

>  <m_score__min__rmsd>  (60) 
2.922585925269455

>  <meeko>  (60) 
{"free_energy": -8.09, "intermolecular_energy": -10.18, "internal_energy": -3.27, "cluster_size": 15, "cluster_id": 5, "rank_in_cluster": 14}

>  <energy>  (60) 
-9.51

>  <cluster_rmsd>  (60) 
0.0

>  <cluster>  (60) 
2

$$$$

     RDKit          3D

 64 68  0  0  1  0  0  0  0  0999 V2000
  141.4250   72.7400  222.1020 O   0  0  0  0  0  0  0  0  0  0  0  0
  140.3190   72.5910  222.7040 C   0  0  0  0  0  0  0  0  0  0  0  0
  139.2010   73.3970  222.3720 N   0  0  0  0  0  0  0  0  0  0  0  0
  139.2820   74.4110  221.3440 C   0  0  0  0  0  0  0  0  0  0  0  0
  138.8590   75.7290  221.8950 C   0  0  0  0  0  0  0  0  0  0  0  0
  137.7680   75.7620  222.5220 O   0  0  0  0  0  0  0  0  0  0  0  0
  139.6830   76.8710  221.6970 N   0  0  0  0  0  0  0  0  0  0  0  0
  140.1220   77.3970  220.3950 C   0  0  0  0  0  0  0  0  0  0  0  0
  141.4190   78.0890  220.6310 C   0  0  2  0  0  0  0  0  0  0  0  0
  142.4980   77.2410  220.2980 O   0  0  0  0  0  0  0  0  0  0  0  0
  141.4780   78.3680  222.1150 C   0  0  0  0  0  0  0  0  0  0  0  0
  140.2520   77.7370  222.6900 C   0  0  1  0  0  0  0  0  0  0  0  0
  139.3120   78.8300  223.1220 C   0  0  1  0  0  0  0  0  0  0  0  0
  139.9040   80.2110  223.0210 C   0  0  0  0  0  0  0  0  0  0  0  0
  139.0480   81.1120  223.8650 C   0  0  0  0  0  0  0  0  0  0  0  0
  137.5780   81.0110  223.6030 C   0  0  2  0  0  0  0  0  0  0  0  0
  136.9110   81.3190  224.9030 C   0  0  0  0  0  0  0  0  0  0  0  0
  135.6030   80.9180  225.1640 C   0  0  0  0  0  0  0  0  0  0  0  0
  134.9850   81.2080  226.3790 C   0  0  0  0  0  0  0  0  0  0  0  0
  135.6720   81.9080  227.3570 C   0  0  0  0  0  0  0  0  0  0  0  0
  136.9250   82.2810  227.0800 N   0  0  0  0  0  0  0  0  0  0  0  0
  137.5410   82.0120  225.9160 C   0  0  0  0  0  0  0  0  0  0  0  0
  137.0680   79.7050  223.1370 C   0  0  0  0  0  0  0  0  0  0  0  0
  138.0180   78.8610  222.3360 C   0  0  0  0  0  0  0  0  0  0  0  0
  140.2010   71.5710  223.7500 C   0  0  0  0  0  0  0  0  0  0  0  0
  139.6360   70.3480  223.4580 C   0  0  0  0  0  0  0  0  0  0  0  0
  139.5530   69.4260  224.4910 C   0  0  0  0  0  0  0  0  0  0  0  0
  140.0100   69.6980  225.7630 C   0  0  0  0  0  0  0  0  0  0  0  0
  139.9340   68.7870  226.8020 C   0  0  0  0  0  0  0  0  0  0  0  0
  140.4010   69.0920  228.0660 C   0  0  0  0  0  0  0  0  0  0  0  0
  140.3380   68.2180  229.1020 F   0  0  0  0  0  0  0  0  0  0  0  0
  140.9640   70.3420  228.3120 C   0  0  0  0  0  0  0  0  0  0  0  0
  141.0390   71.2410  227.2830 C   0  0  0  0  0  0  0  0  0  0  0  0
  140.5730   70.9490  226.0030 C   0  0  0  0  0  0  0  0  0  0  0  0
  140.6470   71.8340  224.9930 N   0  0  0  0  0  0  0  0  0  0  0  0
  138.3160   73.2140  222.9150 H   0  0  0  0  0  0  0  0  0  0  0  0
  140.3188   74.4825  220.9835 H   0  0  0  0  0  0  0  0  0  0  0  0
  138.6164   74.1365  220.5123 H   0  0  0  0  0  0  0  0  0  0  0  0
  140.2562   76.5732  219.6786 H   0  0  0  0  0  0  0  0  0  0  0  0
  139.3755   78.0864  219.9737 H   0  0  0  0  0  0  0  0  0  0  0  0
  141.4895   79.0021  220.0216 H   0  0  0  0  0  0  0  0  0  0  0  0
  143.3200   77.6300  220.6900 H   0  0  0  0  0  0  0  0  0  0  0  0
  142.3821   77.9213  222.5543 H   0  0  0  0  0  0  0  0  0  0  0  0
  141.5182   79.4469  222.3256 H   0  0  0  0  0  0  0  0  0  0  0  0
  140.4769   77.1252  223.5761 H   0  0  0  0  0  0  0  0  0  0  0  0
  139.1154   78.5755  224.1739 H   0  0  0  0  0  0  0  0  0  0  0  0
  139.8956   80.5512  221.9750 H   0  0  0  0  0  0  0  0  0  0  0  0
  140.9480   80.2196  223.3674 H   0  0  0  0  0  0  0  0  0  0  0  0
  139.3578   82.1509  223.6785 H   0  0  0  0  0  0  0  0  0  0  0  0
  139.1984   80.7933  224.9070 H   0  0  0  0  0  0  0  0  0  0  0  0
  137.3622   81.7026  222.7753 H   0  0  0  0  0  0  0  0  0  0  0  0
  135.0465   80.3612  224.3957 H   0  0  0  0  0  0  0  0  0  0  0  0
  133.9508   80.8807  226.5614 H   0  0  0  0  0  0  0  0  0  0  0  0
  135.2047   82.1474  228.3236 H   0  0  0  0  0  0  0  0  0  0  0  0
  138.5759   82.3538  225.7670 H   0  0  0  0  0  0  0  0  0  0  0  0
  136.1826   79.8956  222.5126 H   0  0  0  0  0  0  0  0  0  0  0  0
  136.8668   79.1281  224.0517 H   0  0  0  0  0  0  0  0  0  0  0  0
  138.1835   79.3078  221.3445 H   0  0  0  0  0  0  0  0  0  0  0  0
  137.6199   77.8483  222.1747 H   0  0  0  0  0  0  0  0  0  0  0  0
  139.2667   70.1132  222.4488 H   0  0  0  0  0  0  0  0  0  0  0  0
  139.1061   68.4416  224.2878 H   0  0  0  0  0  0  0  0  0  0  0  0
  139.4915   67.7970  226.6172 H   0  0  0  0  0  0  0  0  0  0  0  0
  141.3405   70.6012  229.3125 H   0  0  0  0  0  0  0  0  0  0  0  0
  141.4830   72.2293  227.4733 H   0  0  0  0  0  0  0  0  0  0  0  0
  1  2  2  0
  2  3  1  0
  3  4  1  0
  4  5  1  0
  5  6  2  0
  5  7  1  0
  7  8  1  0
  8  9  1  0
  9 10  1  0
  9 11  1  0
 11 12  1  0
 12 13  1  0
 13 14  1  0
 14 15  1  0
 15 16  1  0
 16 17  1  0
 17 18  2  0
 18 19  1  0
 19 20  2  0
 20 21  1  0
 21 22  2  0
 16 23  1  0
 23 24  1  0
  2 25  1  0
 25 26  2  0
 26 27  1  0
 27 28  2  0
 28 29  1  0
 29 30  2  0
 30 31  1  0
 30 32  1  0
 32 33  2  0
 33 34  1  0
 34 35  2  0
 12  7  1  0
 24 13  1  0
 35 25  1  0
 22 17  1  0
 34 28  1  0
  3 36  1  0
  4 37  1  0
  4 38  1  0
  8 39  1  0
  8 40  1  0
  9 41  1  6
 10 42  1  0
 11 43  1  0
 11 44  1  0
 12 45  1  1
 13 46  1  1
 14 47  1  0
 14 48  1  0
 15 49  1  0
 15 50  1  0
 16 51  1  6
 18 52  1  0
 19 53  1  0
 20 54  1  0
 22 55  1  0
 23 56  1  0
 23 57  1  0
 24 58  1  0
 24 59  1  0
 26 60  1  0
 27 61  1  0
 29 62  1  0
 32 63  1  0
 33 64  1  0
M  END
>  <smiles>  (61) 
O=C(NCC(=O)N1C[C@H](O)C[C@H]1C1CCC(c2cccnc2)CC1)c1ccc2cc(F)ccc2n1

>  <score_type>  (61) 
oracle

>  <origin>  (61) 
autodockgpu

>  <m_score__min__energy>  (61) 
-10.19

>  <m_primary>  (61) 
energy

>  <rmsd>  (61) 
2.4234188786800903

>  <m_score__min__rmsd>  (61) 
2.4234188786800903

>  <meeko>  (61) 
{"free_energy": -9.51, "intermolecular_energy": -11.6, "internal_energy": -1.71, "cluster_size": 6, "cluster_id": 2, "rank_in_cluster": 1}

>  <energy>  (61) 
-9.47

>  <cluster_rmsd>  (61) 
0.67

>  <cluster>  (61) 
2

$$$$

     RDKit          3D

 64 68  0  0  1  0  0  0  0  0999 V2000
  138.2420   75.3970  221.6550 O   0  0  0  0  0  0  0  0  0  0  0  0
  139.4380   75.6730  221.9720 C   0  0  0  0  0  0  0  0  0  0  0  0
  140.4540   74.6870  221.8860 N   0  0  0  0  0  0  0  0  0  0  0  0
  140.1640   73.3430  221.4390 C   0  0  0  0  0  0  0  0  0  0  0  0
  141.4210   72.5450  221.3750 C   0  0  0  0  0  0  0  0  0  0  0  0
  141.4650   71.4950  222.0670 O   0  0  0  0  0  0  0  0  0  0  0  0
  142.4950   72.9900  220.5550 N   0  0  0  0  0  0  0  0  0  0  0  0
  143.0180   72.2890  219.3720 C   0  0  0  0  0  0  0  0  0  0  0  0
  144.4510   72.6760  219.2480 C   0  0  2  0  0  0  0  0  0  0  0  0
  145.2800   71.6830  219.8130 O   0  0  0  0  0  0  0  0  0  0  0  0
  144.6110   73.9420  220.0560 C   0  0  0  0  0  0  0  0  0  0  0  0
  143.2820   74.1810  220.6950 C   0  0  1  0  0  0  0  0  0  0  0  0
  142.6500   75.3810  220.0430 C   0  0  1  0  0  0  0  0  0  0  0  0
  143.5910   76.1550  219.1590 C   0  0  0  0  0  0  0  0  0  0  0  0
  142.9720   77.5060  218.9430 C   0  0  0  0  0  0  0  0  0  0  0  0
  141.5400   77.4800  218.5080 C   0  0  2  0  0  0  0  0  0  0  0  0
  140.9240   78.7250  219.0570 C   0  0  0  0  0  0  0  0  0  0  0  0
  141.7000   79.8190  219.4290 C   0  0  0  0  0  0  0  0  0  0  0  0
  141.1210   80.9790  219.9400 C   0  0  0  0  0  0  0  0  0  0  0  0
  139.7460   81.0610  220.0860 C   0  0  0  0  0  0  0  0  0  0  0  0
  139.0250   79.9970  219.7220 N   0  0  0  0  0  0  0  0  0  0  0  0
  139.5620   78.8690  219.2260 C   0  0  0  0  0  0  0  0  0  0  0  0
  140.7210   76.3380  218.9650 C   0  0  0  0  0  0  0  0  0  0  0  0
  141.4450   75.0420  219.1910 C   0  0  0  0  0  0  0  0  0  0  0  0
  139.7680   77.0260  222.4290 C   0  0  0  0  0  0  0  0  0  0  0  0
  138.7600   77.8940  222.7920 C   0  0  0  0  0  0  0  0  0  0  0  0
  139.1360   79.1600  223.2160 C   0  0  0  0  0  0  0  0  0  0  0  0
  140.4560   79.5550  223.2810 C   0  0  0  0  0  0  0  0  0  0  0  0
  140.8450   80.8140  223.7030 C   0  0  0  0  0  0  0  0  0  0  0  0
  142.1770   81.1780  223.7570 C   0  0  0  0  0  0  0  0  0  0  0  0
  142.5850   82.4060  224.1660 F   0  0  0  0  0  0  0  0  0  0  0  0
  143.1590   80.2650  223.3810 C   0  0  0  0  0  0  0  0  0  0  0  0
  142.7720   79.0210  222.9640 C   0  0  0  0  0  0  0  0  0  0  0  0
  141.4340   78.6380  222.9040 C   0  0  0  0  0  0  0  0  0  0  0  0
  141.0550   77.4140  222.4950 N   0  0  0  0  0  0  0  0  0  0  0  0
  141.4240   74.9920  222.1660 H   0  0  0  0  0  0  0  0  0  0  0  0
  139.4660   72.8674  222.1436 H   0  0  0  0  0  0  0  0  0  0  0  0
  139.7116   73.3853  220.4372 H   0  0  0  0  0  0  0  0  0  0  0  0
  142.9288   71.2008  219.5052 H   0  0  0  0  0  0  0  0  0  0  0  0
  142.4537   72.5607  218.4677 H   0  0  0  0  0  0  0  0  0  0  0  0
  144.7298   72.8057  218.1919 H   0  0  0  0  0  0  0  0  0  0  0  0
  144.9890   71.5430  220.7490 H   0  0  0  0  0  0  0  0  0  0  0  0
  145.3883   73.8121  220.8234 H   0  0  0  0  0  0  0  0  0  0  0  0
  144.9188   74.7903  219.4270 H   0  0  0  0  0  0  0  0  0  0  0  0
  143.3706   74.3973  221.7699 H   0  0  0  0  0  0  0  0  0  0  0  0
  142.3495   75.9922  220.9068 H   0  0  0  0  0  0  0  0  0  0  0  0
  143.7173   75.6381  218.1962 H   0  0  0  0  0  0  0  0  0  0  0  0
  144.5839   76.2458  219.6238 H   0  0  0  0  0  0  0  0  0  0  0  0
  143.5545   78.0293  218.1705 H   0  0  0  0  0  0  0  0  0  0  0  0
  142.9892   78.0132  219.9189 H   0  0  0  0  0  0  0  0  0  0  0  0
  141.5513   77.3915  217.4116 H   0  0  0  0  0  0  0  0  0  0  0  0
  142.7931   79.7668  219.3173 H   0  0  0  0  0  0  0  0  0  0  0  0
  141.7561   81.8298  220.2275 H   0  0  0  0  0  0  0  0  0  0  0  0
  139.2666   81.9667  220.4860 H   0  0  0  0  0  0  0  0  0  0  0  0
  138.8976   78.0379  218.9471 H   0  0  0  0  0  0  0  0  0  0  0  0
  139.9444   76.1591  218.2068 H   0  0  0  0  0  0  0  0  0  0  0  0
  140.3363   76.6325  219.9525 H   0  0  0  0  0  0  0  0  0  0  0  0
  141.7647   74.6102  218.2311 H   0  0  0  0  0  0  0  0  0  0  0  0
  140.7992   74.2999  219.6831 H   0  0  0  0  0  0  0  0  0  0  0  0
  137.7023   77.5951  222.7472 H   0  0  0  0  0  0  0  0  0  0  0  0
  138.3535   79.8746  223.5110 H   0  0  0  0  0  0  0  0  0  0  0  0
  140.0764   81.5418  224.0023 H   0  0  0  0  0  0  0  0  0  0  0  0
  144.2238   80.5385  223.4185 H   0  0  0  0  0  0  0  0  0  0  0  0
  143.5448   78.2974  222.6655 H   0  0  0  0  0  0  0  0  0  0  0  0
  1  2  2  0
  2  3  1  0
  3  4  1  0
  4  5  1  0
  5  6  2  0
  5  7  1  0
  7  8  1  0
  8  9  1  0
  9 10  1  0
  9 11  1  0
 11 12  1  0
 12 13  1  0
 13 14  1  0
 14 15  1  0
 15 16  1  0
 16 17  1  0
 17 18  2  0
 18 19  1  0
 19 20  2  0
 20 21  1  0
 21 22  2  0
 16 23  1  0
 23 24  1  0
  2 25  1  0
 25 26  2  0
 26 27  1  0
 27 28  2  0
 28 29  1  0
 29 30  2  0
 30 31  1  0
 30 32  1  0
 32 33  2  0
 33 34  1  0
 34 35  2  0
 12  7  1  0
 24 13  1  0
 35 25  1  0
 22 17  1  0
 34 28  1  0
  3 36  1  0
  4 37  1  0
  4 38  1  0
  8 39  1  0
  8 40  1  0
  9 41  1  6
 10 42  1  0
 11 43  1  0
 11 44  1  0
 12 45  1  1
 13 46  1  1
 14 47  1  0
 14 48  1  0
 15 49  1  0
 15 50  1  0
 16 51  1  6
 18 52  1  0
 19 53  1  0
 20 54  1  0
 22 55  1  0
 23 56  1  0
 23 57  1  0
 24 58  1  0
 24 59  1  0
 26 60  1  0
 27 61  1  0
 29 62  1  0
 32 63  1  0
 33 64  1  0
M  END
>  <smiles>  (62) 
O=C(NCC(=O)N1C[C@H](O)C[C@H]1C1CCC(c2cccnc2)CC1)c1ccc2cc(F)ccc2n1

>  <score_type>  (62) 
oracle

>  <origin>  (62) 
autodockgpu

>  <m_score__min__energy>  (62) 
-10.19

>  <m_primary>  (62) 
energy

>  <rmsd>  (62) 
7.710103946269826

>  <m_score__min__rmsd>  (62) 
7.710103946269826

>  <meeko>  (62) 
{"free_energy": -6.87, "intermolecular_energy": -8.96, "internal_energy": -4.12, "cluster_size": 9, "cluster_id": 10, "rank_in_cluster": 4}

>  <energy>  (62) 
-8.7

>  <cluster_rmsd>  (62) 
1.59

>  <cluster>  (62) 
2

$$$$

     RDKit          3D

 64 68  0  0  1  0  0  0  0  0999 V2000
  139.7600   70.8130  221.1380 O   0  0  0  0  0  0  0  0  0  0  0  0
  139.7850   71.3780  222.2730 C   0  0  0  0  0  0  0  0  0  0  0  0
  139.8420   72.7910  222.3770 N   0  0  0  0  0  0  0  0  0  0  0  0
  139.8730   73.6320  221.2000 C   0  0  0  0  0  0  0  0  0  0  0  0
  139.8310   75.0660  221.5990 C   0  0  0  0  0  0  0  0  0  0  0  0
  139.2980   75.3360  222.7060 O   0  0  0  0  0  0  0  0  0  0  0  0
  140.3820   76.0530  220.7340 N   0  0  0  0  0  0  0  0  0  0  0  0
  139.9440   76.3280  219.3580 C   0  0  0  0  0  0  0  0  0  0  0  0
  141.1270   76.8730  218.6350 C   0  0  2  0  0  0  0  0  0  0  0  0
  141.7650   75.8540  217.8940 O   0  0  0  0  0  0  0  0  0  0  0  0
  142.0840   77.3480  219.7040 C   0  0  0  0  0  0  0  0  0  0  0  0
  141.4540   76.9690  221.0040 C   0  0  1  0  0  0  0  0  0  0  0  0
  140.9910   78.2250  221.6930 C   0  0  1  0  0  0  0  0  0  0  0  0
  141.4530   78.3340  223.1220 C   0  0  0  0  0  0  0  0  0  0  0  0
  140.5850   79.3700  223.7790 C   0  0  0  0  0  0  0  0  0  0  0  0
  140.4680   80.6600  223.0290 C   0  0  2  0  0  0  0  0  0  0  0  0
  139.1140   81.1990  223.3550 C   0  0  0  0  0  0  0  0  0  0  0  0
  138.4550   80.8530  224.5310 C   0  0  0  0  0  0  0  0  0  0  0  0
  137.1910   81.3580  224.8300 C   0  0  0  0  0  0  0  0  0  0  0  0
  136.5640   82.2240  223.9500 C   0  0  0  0  0  0  0  0  0  0  0  0
  137.2190   82.5400  222.8280 N   0  0  0  0  0  0  0  0  0  0  0  0
  138.4380   82.0650  222.5190 C   0  0  0  0  0  0  0  0  0  0  0  0
  140.5810   80.5940  221.5580 C   0  0  0  0  0  0  0  0  0  0  0  0
  141.4390   79.4940  221.0000 C   0  0  0  0  0  0  0  0  0  0  0  0
  139.7530   70.5560  223.4860 C   0  0  0  0  0  0  0  0  0  0  0  0
  139.1800   69.3020  223.4530 C   0  0  0  0  0  0  0  0  0  0  0  0
  139.1810   68.5740  224.6340 C   0  0  0  0  0  0  0  0  0  0  0  0
  139.7260   69.0620  225.8030 C   0  0  0  0  0  0  0  0  0  0  0  0
  139.7350   68.3460  226.9870 C   0  0  0  0  0  0  0  0  0  0  0  0
  140.2900   68.8650  228.1410 C   0  0  0  0  0  0  0  0  0  0  0  0
  140.3100   68.1840  229.3150 F   0  0  0  0  0  0  0  0  0  0  0  0
  140.8570   70.1370  228.1240 C   0  0  0  0  0  0  0  0  0  0  0  0
  140.8480   70.8430  226.9520 C   0  0  0  0  0  0  0  0  0  0  0  0
  140.2930   70.3340  225.7800 C   0  0  0  0  0  0  0  0  0  0  0  0
  140.2850   71.0300  224.6290 N   0  0  0  0  0  0  0  0  0  0  0  0
  139.8590   73.1870  223.3530 H   0  0  0  0  0  0  0  0  0  0  0  0
  140.7978   73.4372  220.6371 H   0  0  0  0  0  0  0  0  0  0  0  0
  138.9994   73.4059  220.5709 H   0  0  0  0  0  0  0  0  0  0  0  0
  139.5994   75.4007  218.8770 H   0  0  0  0  0  0  0  0  0  0  0  0
  139.1071   77.0418  219.3435 H   0  0  0  0  0  0  0  0  0  0  0  0
  140.8258   77.6736  217.9433 H   0  0  0  0  0  0  0  0  0  0  0  0
  141.5720   74.9900  218.3400 H   0  0  0  0  0  0  0  0  0  0  0  0
  143.0605   76.8542  219.5921 H   0  0  0  0  0  0  0  0  0  0  0  0
  142.2622   78.4315  219.6386 H   0  0  0  0  0  0  0  0  0  0  0  0
  142.1627   76.4647  221.6774 H   0  0  0  0  0  0  0  0  0  0  0  0
  139.8956   78.1330  221.6526 H   0  0  0  0  0  0  0  0  0  0  0  0
  142.5074   78.6455  223.1567 H   0  0  0  0  0  0  0  0  0  0  0  0
  141.3733   77.3660  223.6384 H   0  0  0  0  0  0  0  0  0  0  0  0
  141.0053   79.5886  224.7718 H   0  0  0  0  0  0  0  0  0  0  0  0
  139.5719   78.9434  223.8201 H   0  0  0  0  0  0  0  0  0  0  0  0
  141.3213   81.2791  223.3430 H   0  0  0  0  0  0  0  0  0  0  0  0
  138.9420   80.1666  225.2393 H   0  0  0  0  0  0  0  0  0  0  0  0
  136.6909   81.0684  225.7660 H   0  0  0  0  0  0  0  0  0  0  0  0
  135.5669   82.6355  224.1654 H   0  0  0  0  0  0  0  0  0  0  0  0
  138.9095   82.3747  221.5747 H   0  0  0  0  0  0  0  0  0  0  0  0
  140.9978   81.5512  221.2116 H   0  0  0  0  0  0  0  0  0  0  0  0
  139.5639   80.3811  221.1973 H   0  0  0  0  0  0  0  0  0  0  0  0
  142.5001   79.6916  221.2123 H   0  0  0  0  0  0  0  0  0  0  0  0
  141.3347   79.4156  219.9078 H   0  0  0  0  0  0  0  0  0  0  0  0
  138.7409   68.8963  222.5297 H   0  0  0  0  0  0  0  0  0  0  0  0
  138.7305   67.5705  224.6381 H   0  0  0  0  0  0  0  0  0  0  0  0
  139.2900   67.3403  227.0101 H   0  0  0  0  0  0  0  0  0  0  0  0
  141.3028   70.5652  229.0339 H   0  0  0  0  0  0  0  0  0  0  0  0
  141.2948   71.8480  226.9346 H   0  0  0  0  0  0  0  0  0  0  0  0
  1  2  2  0
  2  3  1  0
  3  4  1  0
  4  5  1  0
  5  6  2  0
  5  7  1  0
  7  8  1  0
  8  9  1  0
  9 10  1  0
  9 11  1  0
 11 12  1  0
 12 13  1  0
 13 14  1  0
 14 15  1  0
 15 16  1  0
 16 17  1  0
 17 18  2  0
 18 19  1  0
 19 20  2  0
 20 21  1  0
 21 22  2  0
 16 23  1  0
 23 24  1  0
  2 25  1  0
 25 26  2  0
 26 27  1  0
 27 28  2  0
 28 29  1  0
 29 30  2  0
 30 31  1  0
 30 32  1  0
 32 33  2  0
 33 34  1  0
 34 35  2  0
 12  7  1  0
 24 13  1  0
 35 25  1  0
 22 17  1  0
 34 28  1  0
  3 36  1  0
  4 37  1  0
  4 38  1  0
  8 39  1  0
  8 40  1  0
  9 41  1  6
 10 42  1  0
 11 43  1  0
 11 44  1  0
 12 45  1  1
 13 46  1  1
 14 47  1  0
 14 48  1  0
 15 49  1  0
 15 50  1  0
 16 51  1  1
 18 52  1  0
 19 53  1  0
 20 54  1  0
 22 55  1  0
 23 56  1  0
 23 57  1  0
 24 58  1  0
 24 59  1  0
 26 60  1  0
 27 61  1  0
 29 62  1  0
 32 63  1  0
 33 64  1  0
M  END
>  <smiles>  (63) 
O=C(NCC(=O)N1C[C@H](O)C[C@H]1C1CCC(c2cccnc2)CC1)c1ccc2cc(F)ccc2n1

>  <score_type>  (63) 
oracle

>  <origin>  (63) 
autodockgpu

>  <m_score__min__energy>  (63) 
-10.19

>  <m_primary>  (63) 
energy

>  <rmsd>  (63) 
1.3441963769604306

>  <m_score__min__rmsd>  (63) 
1.3441963769604306

>  <meeko>  (63) 
{"free_energy": -8.69, "intermolecular_energy": -10.78, "internal_energy": -2.28, "cluster_size": 6, "cluster_id": 2, "rank_in_cluster": 4}

>  <energy>  (63) 
-8.69

>  <cluster_rmsd>  (63) 
1.68

>  <cluster>  (63) 
2

$$$$

     RDKit          3D

 64 68  0  0  1  0  0  0  0  0999 V2000
  140.1520   77.9800  218.2100 O   0  0  0  0  0  0  0  0  0  0  0  0
  141.2880   78.4650  218.4960 C   0  0  0  0  0  0  0  0  0  0  0  0
  142.4380   78.1020  217.7510 N   0  0  0  0  0  0  0  0  0  0  0  0
  142.3570   77.1720  216.6460 C   0  0  0  0  0  0  0  0  0  0  0  0
  142.0260   75.8100  217.1500 C   0  0  0  0  0  0  0  0  0  0  0  0
  141.3960   75.0510  216.3680 O   0  0  0  0  0  0  0  0  0  0  0  0
  142.4240   75.4300  218.4610 N   0  0  0  0  0  0  0  0  0  0  0  0
  143.7090   75.7580  219.0970 C   0  0  0  0  0  0  0  0  0  0  0  0
  143.9860   74.6750  220.0810 C   0  0  2  0  0  0  0  0  0  0  0  0
  144.8620   73.7170  219.5270 O   0  0  0  0  0  0  0  0  0  0  0  0
  142.6570   74.0030  220.3440 C   0  0  0  0  0  0  0  0  0  0  0  0
  141.6850   74.6660  219.4250 C   0  0  1  0  0  0  0  0  0  0  0  0
  140.7500   75.5100  220.2500 C   0  0  1  0  0  0  0  0  0  0  0  0
  139.2940   75.2600  219.9560 C   0  0  0  0  0  0  0  0  0  0  0  0
  138.5340   76.4330  220.5080 C   0  0  0  0  0  0  0  0  0  0  0  0
  138.8640   76.7870  221.9240 C   0  0  2  0  0  0  0  0  0  0  0  0
  138.6590   78.2620  222.0330 C   0  0  0  0  0  0  0  0  0  0  0  0
  138.1810   79.0140  220.9630 C   0  0  0  0  0  0  0  0  0  0  0  0
  137.9910   80.3900  221.0710 C   0  0  0  0  0  0  0  0  0  0  0  0
  138.2790   81.0390  222.2590 C   0  0  0  0  0  0  0  0  0  0  0  0
  138.7360   80.2950  223.2710 N   0  0  0  0  0  0  0  0  0  0  0  0
  138.9270   78.9670  223.1900 C   0  0  0  0  0  0  0  0  0  0  0  0
  140.2350   76.4920  222.3870 C   0  0  0  0  0  0  0  0  0  0  0  0
  140.9240   75.3230  221.7420 C   0  0  0  0  0  0  0  0  0  0  0  0
  141.4070   79.4110  219.6090 C   0  0  0  0  0  0  0  0  0  0  0  0
  141.0900   80.7400  219.4190 C   0  0  0  0  0  0  0  0  0  0  0  0
  141.2230   81.5850  220.5110 C   0  0  0  0  0  0  0  0  0  0  0  0
  141.6500   81.1390  221.7440 C   0  0  0  0  0  0  0  0  0  0  0  0
  141.7860   81.9710  222.8410 C   0  0  0  0  0  0  0  0  0  0  0  0
  142.2170   81.4900  224.0630 C   0  0  0  0  0  0  0  0  0  0  0  0
  142.3600   82.2850  225.1540 F   0  0  0  0  0  0  0  0  0  0  0  0
  142.5240   80.1400  224.2060 C   0  0  0  0  0  0  0  0  0  0  0  0
  142.3890   79.3180  223.1190 C   0  0  0  0  0  0  0  0  0  0  0  0
  141.9550   79.7870  221.8810 C   0  0  0  0  0  0  0  0  0  0  0  0
  141.8230   78.9780  220.8140 N   0  0  0  0  0  0  0  0  0  0  0  0
  143.3470   78.5470  218.0470 H   0  0  0  0  0  0  0  0  0  0  0  0
  141.5735   77.5026  215.9482 H   0  0  0  0  0  0  0  0  0  0  0  0
  143.3274   77.1399  216.1291 H   0  0  0  0  0  0  0  0  0  0  0  0
  144.5073   75.7973  218.3413 H   0  0  0  0  0  0  0  0  0  0  0  0
  143.6681   76.7406  219.5899 H   0  0  0  0  0  0  0  0  0  0  0  0
  144.4461   75.0852  220.9920 H   0  0  0  0  0  0  0  0  0  0  0  0
  145.5640   74.2040  219.0250 H   0  0  0  0  0  0  0  0  0  0  0  0
  142.7205   72.9269  220.1248 H   0  0  0  0  0  0  0  0  0  0  0  0
  142.3530   74.0986  221.3968 H   0  0  0  0  0  0  0  0  0  0  0  0
  141.0730   73.9375  218.8730 H   0  0  0  0  0  0  0  0  0  0  0  0
  141.0278   76.5335  219.9579 H   0  0  0  0  0  0  0  0  0  0  0  0
  138.9631   74.3308  220.4430 H   0  0  0  0  0  0  0  0  0  0  0  0
  139.1219   75.1505  218.8751 H   0  0  0  0  0  0  0  0  0  0  0  0
  137.4603   76.2000  220.4553 H   0  0  0  0  0  0  0  0  0  0  0  0
  138.8212   77.3019  219.8976 H   0  0  0  0  0  0  0  0  0  0  0  0
  138.2177   76.1623  222.5581 H   0  0  0  0  0  0  0  0  0  0  0  0
  137.9486   78.5112  220.0126 H   0  0  0  0  0  0  0  0  0  0  0  0
  137.6116   80.9613  220.2110 H   0  0  0  0  0  0  0  0  0  0  0  0
  138.1374   82.1246  222.3662 H   0  0  0  0  0  0  0  0  0  0  0  0
  139.3073   78.4268  224.0695 H   0  0  0  0  0  0  0  0  0  0  0  0
  140.1876   76.2967  223.4685 H   0  0  0  0  0  0  0  0  0  0  0  0
  140.8323   77.3723  222.1070 H   0  0  0  0  0  0  0  0  0  0  0  0
  140.4605   74.3795  222.0659 H   0  0  0  0  0  0  0  0  0  0  0  0
  141.9868   75.2762  222.0218 H   0  0  0  0  0  0  0  0  0  0  0  0
  140.7464   81.1138  218.4432 H   0  0  0  0  0  0  0  0  0  0  0  0
  140.9788   82.6506  220.3888 H   0  0  0  0  0  0  0  0  0  0  0  0
  141.5457   83.0395  222.7383 H   0  0  0  0  0  0  0  0  0  0  0  0
  142.8679   79.7416  225.1719 H   0  0  0  0  0  0  0  0  0  0  0  0
  142.6316   78.2506  223.2271 H   0  0  0  0  0  0  0  0  0  0  0  0
  1  2  2  0
  2  3  1  0
  3  4  1  0
  4  5  1  0
  5  6  2  0
  5  7  1  0
  7  8  1  0
  8  9  1  0
  9 10  1  0
  9 11  1  0
 11 12  1  0
 12 13  1  0
 13 14  1  0
 14 15  1  0
 15 16  1  0
 16 17  1  0
 17 18  2  0
 18 19  1  0
 19 20  2  0
 20 21  1  0
 21 22  2  0
 16 23  1  0
 23 24  1  0
  2 25  1  0
 25 26  2  0
 26 27  1  0
 27 28  2  0
 28 29  1  0
 29 30  2  0
 30 31  1  0
 30 32  1  0
 32 33  2  0
 33 34  1  0
 34 35  2  0
 12  7  1  0
 24 13  1  0
 35 25  1  0
 22 17  1  0
 34 28  1  0
  3 36  1  0
  4 37  1  0
  4 38  1  0
  8 39  1  0
  8 40  1  0
  9 41  1  1
 10 42  1  0
 11 43  1  0
 11 44  1  0
 12 45  1  6
 13 46  1  1
 14 47  1  0
 14 48  1  0
 15 49  1  0
 15 50  1  0
 16 51  1  1
 18 52  1  0
 19 53  1  0
 20 54  1  0
 22 55  1  0
 23 56  1  0
 23 57  1  0
 24 58  1  0
 24 59  1  0
 26 60  1  0
 27 61  1  0
 29 62  1  0
 32 63  1  0
 33 64  1  0
M  END
>  <smiles>  (64) 
O=C(NCC(=O)N1C[C@H](O)C[C@H]1C1CCC(c2cccnc2)CC1)c1ccc2cc(F)ccc2n1

>  <score_type>  (64) 
oracle

>  <origin>  (64) 
autodockgpu

>  <m_score__min__energy>  (64) 
-10.19

>  <m_primary>  (64) 
energy

>  <rmsd>  (64) 
9.142746797138512

>  <m_score__min__rmsd>  (64) 
9.142746797138512

>  <meeko>  (64) 
{"free_energy": -6.17, "intermolecular_energy": -8.26, "internal_energy": -4.47, "cluster_size": 1, "cluster_id": 13, "rank_in_cluster": 1}

>  <energy>  (64) 
-8.61

>  <cluster_rmsd>  (64) 
1.69

>  <cluster>  (64) 
2

$$$$

     RDKit          3D

 64 68  0  0  1  0  0  0  0  0999 V2000
  140.1050   70.8470  221.1920 O   0  0  0  0  0  0  0  0  0  0  0  0
  139.9300   71.4090  222.3150 C   0  0  0  0  0  0  0  0  0  0  0  0
  139.7960   72.8180  222.4050 N   0  0  0  0  0  0  0  0  0  0  0  0
  139.8540   73.6570  221.2290 C   0  0  0  0  0  0  0  0  0  0  0  0
  139.8290   75.0930  221.6260 C   0  0  0  0  0  0  0  0  0  0  0  0
  139.2830   75.3720  222.7250 O   0  0  0  0  0  0  0  0  0  0  0  0
  140.4110   76.0690  220.7700 N   0  0  0  0  0  0  0  0  0  0  0  0
  140.0170   76.3320  219.3780 C   0  0  0  0  0  0  0  0  0  0  0  0
  141.2240   76.8660  218.6880 C   0  0  2  0  0  0  0  0  0  0  0  0
  141.8820   75.8390  217.9780 O   0  0  0  0  0  0  0  0  0  0  0  0
  142.1480   77.3500  219.7820 C   0  0  0  0  0  0  0  0  0  0  0  0
  141.4750   76.9850  221.0640 C   0  0  1  0  0  0  0  0  0  0  0  0
  140.9940   78.2490  221.7260 C   0  0  1  0  0  0  0  0  0  0  0  0
  141.4630   78.4010  223.1490 C   0  0  0  0  0  0  0  0  0  0  0  0
  140.5810   79.4370  223.7870 C   0  0  0  0  0  0  0  0  0  0  0  0
  140.4360   80.7060  223.0070 C   0  0  2  0  0  0  0  0  0  0  0  0
  139.0740   81.2280  223.3290 C   0  0  0  0  0  0  0  0  0  0  0  0
  138.4110   82.1070  222.4770 C   0  0  0  0  0  0  0  0  0  0  0  0
  137.1400   82.5910  222.7820 C   0  0  0  0  0  0  0  0  0  0  0  0
  136.5100   82.1990  223.9510 C   0  0  0  0  0  0  0  0  0  0  0  0
  137.1690   81.3540  224.7510 N   0  0  0  0  0  0  0  0  0  0  0  0
  138.3950   80.8750  224.4770 C   0  0  0  0  0  0  0  0  0  0  0  0
  140.5410   80.6060  221.5370 C   0  0  0  0  0  0  0  0  0  0  0  0
  141.4150   79.5090  221.0000 C   0  0  0  0  0  0  0  0  0  0  0  0
  139.8660   70.5890  223.5280 C   0  0  0  0  0  0  0  0  0  0  0  0
  139.2510   69.3550  223.4930 C   0  0  0  0  0  0  0  0  0  0  0  0
  139.2230   68.6270  224.6730 C   0  0  0  0  0  0  0  0  0  0  0  0
  139.7800   69.0960  225.8440 C   0  0  0  0  0  0  0  0  0  0  0  0
  139.7600   68.3800  227.0270 C   0  0  0  0  0  0  0  0  0  0  0  0
  140.3290   68.8790  228.1830 C   0  0  0  0  0  0  0  0  0  0  0  0
  140.3220   68.1980  229.3570 F   0  0  0  0  0  0  0  0  0  0  0  0
  140.9390   70.1310  228.1700 C   0  0  0  0  0  0  0  0  0  0  0  0
  140.9590   70.8370  226.9980 C   0  0  0  0  0  0  0  0  0  0  0  0
  140.3900   70.3480  225.8230 C   0  0  0  0  0  0  0  0  0  0  0  0
  140.4100   71.0440  224.6730 N   0  0  0  0  0  0  0  0  0  0  0  0
  139.6530   73.2120  223.3730 H   0  0  0  0  0  0  0  0  0  0  0  0
  140.7824   73.4476  220.6775 H   0  0  0  0  0  0  0  0  0  0  0  0
  138.9844   73.4438  220.5900 H   0  0  0  0  0  0  0  0  0  0  0  0
  139.6845   75.4012  218.8953 H   0  0  0  0  0  0  0  0  0  0  0  0
  139.1833   77.0480  219.3301 H   0  0  0  0  0  0  0  0  0  0  0  0
  140.9471   77.6601  217.9790 H   0  0  0  0  0  0  0  0  0  0  0  0
  142.5290   76.2640  217.3600 H   0  0  0  0  0  0  0  0  0  0  0  0
  143.1264   76.8530  219.7065 H   0  0  0  0  0  0  0  0  0  0  0  0
  142.3317   78.4323  219.7115 H   0  0  0  0  0  0  0  0  0  0  0  0
  142.1603   76.4851  221.7643 H   0  0  0  0  0  0  0  0  0  0  0  0
  139.9002   78.1362  221.6951 H   0  0  0  0  0  0  0  0  0  0  0  0
  142.5118   78.7320  223.1690 H   0  0  0  0  0  0  0  0  0  0  0  0
  141.4037   77.4445  223.6891 H   0  0  0  0  0  0  0  0  0  0  0  0
  141.0039   79.6870  224.7712 H   0  0  0  0  0  0  0  0  0  0  0  0
  139.5760   78.9937  223.8456 H   0  0  0  0  0  0  0  0  0  0  0  0
  141.2797   81.3481  223.3001 H   0  0  0  0  0  0  0  0  0  0  0  0
  138.8999   82.4259  221.5446 H   0  0  0  0  0  0  0  0  0  0  0  0
  136.6368   83.2853  222.0931 H   0  0  0  0  0  0  0  0  0  0  0  0
  135.5070   82.5681  224.2114 H   0  0  0  0  0  0  0  0  0  0  0  0
  138.8698   80.1826  225.1877 H   0  0  0  0  0  0  0  0  0  0  0  0
  140.9380   81.5619  221.1647 H   0  0  0  0  0  0  0  0  0  0  0  0
  139.5257   80.3657  221.1886 H   0  0  0  0  0  0  0  0  0  0  0  0
  142.4736   79.7305  221.2007 H   0  0  0  0  0  0  0  0  0  0  0  0
  141.3056   79.4027  219.9106 H   0  0  0  0  0  0  0  0  0  0  0  0
  138.8016   68.9647  222.5680 H   0  0  0  0  0  0  0  0  0  0  0  0
  138.7388   67.6393  224.6749 H   0  0  0  0  0  0  0  0  0  0  0  0
  139.2800   67.3905  227.0481 H   0  0  0  0  0  0  0  0  0  0  0  0
  141.3949   70.5434  229.0822 H   0  0  0  0  0  0  0  0  0  0  0  0
  141.4412   71.8256  226.9824 H   0  0  0  0  0  0  0  0  0  0  0  0
  1  2  2  0
  2  3  1  0
  3  4  1  0
  4  5  1  0
  5  6  2  0
  5  7  1  0
  7  8  1  0
  8  9  1  0
  9 10  1  0
  9 11  1  0
 11 12  1  0
 12 13  1  0
 13 14  1  0
 14 15  1  0
 15 16  1  0
 16 17  1  0
 17 18  2  0
 18 19  1  0
 19 20  2  0
 20 21  1  0
 21 22  2  0
 16 23  1  0
 23 24  1  0
  2 25  1  0
 25 26  2  0
 26 27  1  0
 27 28  2  0
 28 29  1  0
 29 30  2  0
 30 31  1  0
 30 32  1  0
 32 33  2  0
 33 34  1  0
 34 35  2  0
 12  7  1  0
 24 13  1  0
 35 25  1  0
 22 17  1  0
 34 28  1  0
  3 36  1  0
  4 37  1  0
  4 38  1  0
  8 39  1  0
  8 40  1  0
  9 41  1  6
 10 42  1  0
 11 43  1  0
 11 44  1  0
 12 45  1  1
 13 46  1  1
 14 47  1  0
 14 48  1  0
 15 49  1  0
 15 50  1  0
 16 51  1  1
 18 52  1  0
 19 53  1  0
 20 54  1  0
 22 55  1  0
 23 56  1  0
 23 57  1  0
 24 58  1  0
 24 59  1  0
 26 60  1  0
 27 61  1  0
 29 62  1  0
 32 63  1  0
 33 64  1  0
M  END
>  <smiles>  (65) 
O=C(NCC(=O)N1C[C@H](O)C[C@H]1C1CCC(c2cccnc2)CC1)c1ccc2cc(F)ccc2n1

>  <score_type>  (65) 
oracle

>  <origin>  (65) 
autodockgpu

>  <m_score__min__energy>  (65) 
-10.19

>  <m_primary>  (65) 
energy

>  <rmsd>  (65) 
1.3873034644806472

>  <m_score__min__rmsd>  (65) 
1.3873034644806472

>  <meeko>  (65) 
{"free_energy": -8.7, "intermolecular_energy": -10.79, "internal_energy": -2.22, "cluster_size": 6, "cluster_id": 2, "rank_in_cluster": 3}

>  <energy>  (65) 
-8.58

>  <cluster_rmsd>  (65) 
1.59

>  <cluster>  (65) 
2

$$$$

     RDKit          3D

 64 68  0  0  1  0  0  0  0  0999 V2000
  137.5760   70.3040  221.7700 O   0  0  0  0  0  0  0  0  0  0  0  0
  137.7050   70.8790  222.8920 C   0  0  0  0  0  0  0  0  0  0  0  0
  137.1520   72.1660  223.1130 N   0  0  0  0  0  0  0  0  0  0  0  0
  136.4270   72.8620  222.0740 C   0  0  0  0  0  0  0  0  0  0  0  0
  137.3230   73.1170  220.9110 C   0  0  0  0  0  0  0  0  0  0  0  0
  136.7700   73.4090  219.8190 O   0  0  0  0  0  0  0  0  0  0  0  0
  138.7330   73.0250  221.0760 N   0  0  0  0  0  0  0  0  0  0  0  0
  139.6620   72.3510  220.1570 C   0  0  0  0  0  0  0  0  0  0  0  0
  140.8230   71.9050  220.9770 C   0  0  2  0  0  0  0  0  0  0  0  0
  140.6830   70.5460  221.3320 O   0  0  0  0  0  0  0  0  0  0  0  0
  140.7800   72.7310  222.2420 C   0  0  0  0  0  0  0  0  0  0  0  0
  139.5370   73.5530  222.1410 C   0  0  1  0  0  0  0  0  0  0  0  0
  139.9310   74.9880  221.9220 C   0  0  1  0  0  0  0  0  0  0  0  0
  140.8050   75.1970  220.7140 C   0  0  0  0  0  0  0  0  0  0  0  0
  141.4500   76.5440  220.8730 C   0  0  0  0  0  0  0  0  0  0  0  0
  140.5050   77.6600  221.1960 C   0  0  2  0  0  0  0  0  0  0  0  0
  141.2890   78.6320  222.0140 C   0  0  0  0  0  0  0  0  0  0  0  0
  141.4280   78.4820  223.3910 C   0  0  0  0  0  0  0  0  0  0  0  0
  142.1600   79.3920  224.1500 C   0  0  0  0  0  0  0  0  0  0  0  0
  142.7700   80.4750  223.5380 C   0  0  0  0  0  0  0  0  0  0  0  0
  142.6210   80.5960  222.2150 N   0  0  0  0  0  0  0  0  0  0  0  0
  141.9200   79.7300  221.4630 C   0  0  0  0  0  0  0  0  0  0  0  0
  139.2910   77.3100  221.9600 C   0  0  0  0  0  0  0  0  0  0  0  0
  138.7500   75.9220  221.7620 C   0  0  0  0  0  0  0  0  0  0  0  0
  138.4340   70.2020  223.9690 C   0  0  0  0  0  0  0  0  0  0  0  0
  138.5040   68.8250  223.9930 C   0  0  0  0  0  0  0  0  0  0  0  0
  139.2070   68.2440  225.0370 C   0  0  0  0  0  0  0  0  0  0  0  0
  139.8200   68.9910  226.0210 C   0  0  0  0  0  0  0  0  0  0  0  0
  140.5260   68.4240  227.0680 C   0  0  0  0  0  0  0  0  0  0  0  0
  141.1280   69.2020  228.0380 C   0  0  0  0  0  0  0  0  0  0  0  0
  141.8240   68.6710  229.0750 F   0  0  0  0  0  0  0  0  0  0  0  0
  141.0300   70.5890  227.9710 C   0  0  0  0  0  0  0  0  0  0  0  0
  140.3320   71.1480  226.9350 C   0  0  0  0  0  0  0  0  0  0  0  0
  139.7190   70.3780  225.9490 C   0  0  0  0  0  0  0  0  0  0  0  0
  139.0330   70.9290  224.9310 N   0  0  0  0  0  0  0  0  0  0  0  0
  137.3000   72.5800  224.0720 H   0  0  0  0  0  0  0  0  0  0  0  0
  135.5750   72.2466  221.7495 H   0  0  0  0  0  0  0  0  0  0  0  0
  136.0644   73.8228  222.4681 H   0  0  0  0  0  0  0  0  0  0  0  0
  139.1718   71.4841  219.6900 H   0  0  0  0  0  0  0  0  0  0  0  0
  139.9823   73.0268  219.3503 H   0  0  0  0  0  0  0  0  0  0  0  0
  141.7633   72.0262  220.4192 H   0  0  0  0  0  0  0  0  0  0  0  0
  139.7150   70.3540  221.4190 H   0  0  0  0  0  0  0  0  0  0  0  0
  140.7380   72.0779  223.1261 H   0  0  0  0  0  0  0  0  0  0  0  0
  141.6766   73.3592  222.3494 H   0  0  0  0  0  0  0  0  0  0  0  0
  138.9373   73.5128  223.0623 H   0  0  0  0  0  0  0  0  0  0  0  0
  140.4869   75.2270  222.8406 H   0  0  0  0  0  0  0  0  0  0  0  0
  140.1966   75.1742  219.7979 H   0  0  0  0  0  0  0  0  0  0  0  0
  141.5626   74.4036  220.6329 H   0  0  0  0  0  0  0  0  0  0  0  0
  141.9620   76.7912  219.9314 H   0  0  0  0  0  0  0  0  0  0  0  0
  142.1337   76.4600  221.7306 H   0  0  0  0  0  0  0  0  0  0  0  0
  140.1268   78.0351  220.2336 H   0  0  0  0  0  0  0  0  0  0  0  0
  140.9495   77.6266  223.8903 H   0  0  0  0  0  0  0  0  0  0  0  0
  142.2539   79.2506  225.2368 H   0  0  0  0  0  0  0  0  0  0  0  0
  143.3534   81.2058  224.1173 H   0  0  0  0  0  0  0  0  0  0  0  0
  141.8469   79.9006  220.3788 H   0  0  0  0  0  0  0  0  0  0  0  0
  138.5008   78.0203  221.6753 H   0  0  0  0  0  0  0  0  0  0  0  0
  139.5894   77.3576  223.0177 H   0  0  0  0  0  0  0  0  0  0  0  0
  138.3159   75.8207  220.7564 H   0  0  0  0  0  0  0  0  0  0  0  0
  137.9535   75.6926  222.4852 H   0  0  0  0  0  0  0  0  0  0  0  0
  138.0221   68.2132  223.2162 H   0  0  0  0  0  0  0  0  0  0  0  0
  139.2785   67.1473  225.0822 H   0  0  0  0  0  0  0  0  0  0  0  0
  140.6096   67.3289  227.1291 H   0  0  0  0  0  0  0  0  0  0  0  0
  141.5039   71.2227  228.7351 H   0  0  0  0  0  0  0  0  0  0  0  0
  140.2522   72.2437  226.8789 H   0  0  0  0  0  0  0  0  0  0  0  0
  1  2  2  0
  2  3  1  0
  3  4  1  0
  4  5  1  0
  5  6  2  0
  5  7  1  0
  7  8  1  0
  8  9  1  0
  9 10  1  0
  9 11  1  0
 11 12  1  0
 12 13  1  0
 13 14  1  0
 14 15  1  0
 15 16  1  0
 16 17  1  0
 17 18  2  0
 18 19  1  0
 19 20  2  0
 20 21  1  0
 21 22  2  0
 16 23  1  0
 23 24  1  0
  2 25  1  0
 25 26  2  0
 26 27  1  0
 27 28  2  0
 28 29  1  0
 29 30  2  0
 30 31  1  0
 30 32  1  0
 32 33  2  0
 33 34  1  0
 34 35  2  0
 12  7  1  0
 24 13  1  0
 35 25  1  0
 22 17  1  0
 34 28  1  0
  3 36  1  0
  4 37  1  0
  4 38  1  0
  8 39  1  0
  8 40  1  0
  9 41  1  6
 10 42  1  0
 11 43  1  0
 11 44  1  0
 12 45  1  1
 13 46  1  1
 14 47  1  0
 14 48  1  0
 15 49  1  0
 15 50  1  0
 16 51  1  6
 18 52  1  0
 19 53  1  0
 20 54  1  0
 22 55  1  0
 23 56  1  0
 23 57  1  0
 24 58  1  0
 24 59  1  0
 26 60  1  0
 27 61  1  0
 29 62  1  0
 32 63  1  0
 33 64  1  0
M  END
>  <smiles>  (66) 
O=C(NCC(=O)N1C[C@H](O)C[C@H]1C1CCC(c2cccnc2)CC1)c1ccc2cc(F)ccc2n1

>  <score_type>  (66) 
oracle

>  <origin>  (66) 
autodockgpu

>  <m_score__min__energy>  (66) 
-10.19

>  <m_primary>  (66) 
energy

>  <rmsd>  (66) 
3.0263376525708257

>  <m_score__min__rmsd>  (66) 
3.0263376525708257

>  <meeko>  (66) 
{"free_energy": -8.27, "intermolecular_energy": -10.36, "internal_energy": -3.22, "cluster_size": 15, "cluster_id": 5, "rank_in_cluster": 4}

>  <energy>  (66) 
-9.16

>  <cluster_rmsd>  (66) 
0.0

>  <cluster>  (66) 
3

$$$$

     RDKit          3D

 64 68  0  0  1  0  0  0  0  0999 V2000
  138.1120   75.5810  221.3460 O   0  0  0  0  0  0  0  0  0  0  0  0
  139.2490   75.7560  221.8780 C   0  0  0  0  0  0  0  0  0  0  0  0
  140.1670   74.6810  221.9900 N   0  0  0  0  0  0  0  0  0  0  0  0
  139.8410   73.3580  221.5050 C   0  0  0  0  0  0  0  0  0  0  0  0
  141.0430   72.4800  221.5730 C   0  0  0  0  0  0  0  0  0  0  0  0
  141.0060   71.5250  222.3920 O   0  0  0  0  0  0  0  0  0  0  0  0
  142.1570   72.7470  220.7290 N   0  0  0  0  0  0  0  0  0  0  0  0
  142.5580   71.9500  219.5610 C   0  0  0  0  0  0  0  0  0  0  0  0
  144.0300   72.1270  219.4100 C   0  0  2  0  0  0  0  0  0  0  0  0
  144.7200   71.0430  219.9930 O   0  0  0  0  0  0  0  0  0  0  0  0
  144.3780   73.3790  220.1810 C   0  0  0  0  0  0  0  0  0  0  0  0
  143.1060   73.8190  220.8270 C   0  0  1  0  0  0  0  0  0  0  0  0
  142.6380   75.0790  220.1490 C   0  0  1  0  0  0  0  0  0  0  0  0
  143.6900   75.7280  219.2890 C   0  0  0  0  0  0  0  0  0  0  0  0
  143.2410   77.1410  219.0470 C   0  0  0  0  0  0  0  0  0  0  0  0
  141.8290   77.2790  218.5680 C   0  0  2  0  0  0  0  0  0  0  0  0
  141.3490   78.5930  219.0900 C   0  0  0  0  0  0  0  0  0  0  0  0
  142.2020   79.6860  219.2100 C   0  0  0  0  0  0  0  0  0  0  0  0
  141.7490   80.9100  219.6980 C   0  0  0  0  0  0  0  0  0  0  0  0
  140.4250   81.0600  220.0740 C   0  0  0  0  0  0  0  0  0  0  0  0
  139.6270   79.9950  219.9490 N   0  0  0  0  0  0  0  0  0  0  0  0
  140.0420   78.8050  219.4810 C   0  0  0  0  0  0  0  0  0  0  0  0
  140.8680   76.2460  219.0070 C   0  0  0  0  0  0  0  0  0  0  0  0
  141.4270   74.8750  219.2630 C   0  0  0  0  0  0  0  0  0  0  0  0
  139.6140   77.0840  222.3790 C   0  0  0  0  0  0  0  0  0  0  0  0
  138.6320   77.9490  222.8140 C   0  0  0  0  0  0  0  0  0  0  0  0
  139.0400   79.1900  223.2770 C   0  0  0  0  0  0  0  0  0  0  0  0
  140.3670   79.5660  223.3120 C   0  0  0  0  0  0  0  0  0  0  0  0
  140.7880   80.8010  223.7720 C   0  0  0  0  0  0  0  0  0  0  0  0
  142.1260   81.1460  223.7930 C   0  0  0  0  0  0  0  0  0  0  0  0
  142.5650   82.3500  224.2380 F   0  0  0  0  0  0  0  0  0  0  0  0
  143.0820   80.2380  223.3440 C   0  0  0  0  0  0  0  0  0  0  0  0
  142.6630   79.0170  222.8900 C   0  0  0  0  0  0  0  0  0  0  0  0
  141.3180   78.6540  222.8620 C   0  0  0  0  0  0  0  0  0  0  0  0
  140.9080   77.4530  222.4150 N   0  0  0  0  0  0  0  0  0  0  0  0
  141.0930   74.9030  222.4430 H   0  0  0  0  0  0  0  0  0  0  0  0
  139.0410   72.9291  222.1263 H   0  0  0  0  0  0  0  0  0  0  0  0
  139.5043   73.4291  220.4602 H   0  0  0  0  0  0  0  0  0  0  0  0
  142.3181   70.8891  219.7250 H   0  0  0  0  0  0  0  0  0  0  0  0
  142.0243   72.2760  218.6561 H   0  0  0  0  0  0  0  0  0  0  0  0
  144.3083   72.1875  218.3475 H   0  0  0  0  0  0  0  0  0  0  0  0
  145.0550   71.3380  220.8770 H   0  0  0  0  0  0  0  0  0  0  0  0
  145.1405   73.1611  220.9433 H   0  0  0  0  0  0  0  0  0  0  0  0
  144.7926   74.1589  219.5253 H   0  0  0  0  0  0  0  0  0  0  0  0
  143.2408   74.0487  221.8943 H   0  0  0  0  0  0  0  0  0  0  0  0
  142.3854   75.7301  220.9989 H   0  0  0  0  0  0  0  0  0  0  0  0
  143.7823   75.1910  218.3334 H   0  0  0  0  0  0  0  0  0  0  0  0
  144.6729   75.7050  219.7824 H   0  0  0  0  0  0  0  0  0  0  0  0
  143.9039   77.5856  218.2901 H   0  0  0  0  0  0  0  0  0  0  0  0
  143.2886   77.6515  220.0202 H   0  0  0  0  0  0  0  0  0  0  0  0
  141.8617   77.1785  217.4731 H   0  0  0  0  0  0  0  0  0  0  0  0
  143.2561   79.5815  218.9134 H   0  0  0  0  0  0  0  0  0  0  0  0
  142.4441   81.7581  219.7846 H   0  0  0  0  0  0  0  0  0  0  0  0
  140.0450   82.0173  220.4602 H   0  0  0  0  0  0  0  0  0  0  0  0
  139.3207   77.9778  219.4076 H   0  0  0  0  0  0  0  0  0  0  0  0
  140.0983   76.1526  218.2268 H   0  0  0  0  0  0  0  0  0  0  0  0
  140.4922   76.5934  219.9807 H   0  0  0  0  0  0  0  0  0  0  0  0
  141.7216   74.3990  218.3161 H   0  0  0  0  0  0  0  0  0  0  0  0
  140.6840   74.2186  219.7396 H   0  0  0  0  0  0  0  0  0  0  0  0
  137.5693   77.6658  222.7943 H   0  0  0  0  0  0  0  0  0  0  0  0
  138.2782   79.9010  223.6293 H   0  0  0  0  0  0  0  0  0  0  0  0
  140.0406   81.5248  224.1292 H   0  0  0  0  0  0  0  0  0  0  0  0
  144.1511   80.4969  223.3541 H   0  0  0  0  0  0  0  0  0  0  0  0
  143.4145   78.2966  222.5346 H   0  0  0  0  0  0  0  0  0  0  0  0
  1  2  2  0
  2  3  1  0
  3  4  1  0
  4  5  1  0
  5  6  2  0
  5  7  1  0
  7  8  1  0
  8  9  1  0
  9 10  1  0
  9 11  1  0
 11 12  1  0
 12 13  1  0
 13 14  1  0
 14 15  1  0
 15 16  1  0
 16 17  1  0
 17 18  2  0
 18 19  1  0
 19 20  2  0
 20 21  1  0
 21 22  2  0
 16 23  1  0
 23 24  1  0
  2 25  1  0
 25 26  2  0
 26 27  1  0
 27 28  2  0
 28 29  1  0
 29 30  2  0
 30 31  1  0
 30 32  1  0
 32 33  2  0
 33 34  1  0
 34 35  2  0
 12  7  1  0
 24 13  1  0
 35 25  1  0
 22 17  1  0
 34 28  1  0
  3 36  1  0
  4 37  1  0
  4 38  1  0
  8 39  1  0
  8 40  1  0
  9 41  1  6
 10 42  1  0
 11 43  1  0
 11 44  1  0
 12 45  1  1
 13 46  1  1
 14 47  1  0
 14 48  1  0
 15 49  1  0
 15 50  1  0
 16 51  1  6
 18 52  1  0
 19 53  1  0
 20 54  1  0
 22 55  1  0
 23 56  1  0
 23 57  1  0
 24 58  1  0
 24 59  1  0
 26 60  1  0
 27 61  1  0
 29 62  1  0
 32 63  1  0
 33 64  1  0
M  END
>  <smiles>  (67) 
O=C(NCC(=O)N1C[C@H](O)C[C@H]1C1CCC(c2cccnc2)CC1)c1ccc2cc(F)ccc2n1

>  <score_type>  (67) 
oracle

>  <origin>  (67) 
autodockgpu

>  <m_score__min__energy>  (67) 
-10.19

>  <m_primary>  (67) 
energy

>  <rmsd>  (67) 
7.7160299179946605

>  <m_score__min__rmsd>  (67) 
7.7160299179946605

>  <meeko>  (67) 
{"free_energy": -6.91, "intermolecular_energy": -9.0, "internal_energy": -4.06, "cluster_size": 9, "cluster_id": 10, "rank_in_cluster": 2}

>  <energy>  (67) 
-8.78

>  <cluster_rmsd>  (67) 
0.0

>  <cluster>  (67) 
4

$$$$

     RDKit          3D

 64 68  0  0  1  0  0  0  0  0999 V2000
  140.2040   73.6700  222.3520 O   0  0  0  0  0  0  0  0  0  0  0  0
  140.2890   72.4170  222.1800 C   0  0  0  0  0  0  0  0  0  0  0  0
  140.5140   71.8780  220.8880 N   0  0  0  0  0  0  0  0  0  0  0  0
  140.6530   72.7310  219.7290 C   0  0  0  0  0  0  0  0  0  0  0  0
  142.0500   73.2420  219.6380 C   0  0  0  0  0  0  0  0  0  0  0  0
  142.9170   72.6620  220.3420 O   0  0  0  0  0  0  0  0  0  0  0  0
  142.3430   74.3370  218.7790 N   0  0  0  0  0  0  0  0  0  0  0  0
  141.7940   74.5410  217.4300 C   0  0  0  0  0  0  0  0  0  0  0  0
  142.8030   75.3340  216.6740 C   0  0  2  0  0  0  0  0  0  0  0  0
  143.6040   74.4850  215.8800 O   0  0  0  0  0  0  0  0  0  0  0  0
  143.6880   75.9790  217.7160 C   0  0  0  0  0  0  0  0  0  0  0  0
  143.2110   75.4520  219.0290 C   0  0  1  0  0  0  0  0  0  0  0  0
  142.5290   76.5700  219.7710 C   0  0  1  0  0  0  0  0  0  0  0  0
  141.9840   77.6480  218.8720 C   0  0  0  0  0  0  0  0  0  0  0  0
  141.7390   78.8510  219.7370 C   0  0  0  0  0  0  0  0  0  0  0  0
  140.9550   78.5820  220.9830 C   0  0  2  0  0  0  0  0  0  0  0  0
  141.4390   79.5730  221.9900 C   0  0  0  0  0  0  0  0  0  0  0  0
  142.1350   79.1770  223.1290 C   0  0  0  0  0  0  0  0  0  0  0  0
  142.5840   80.1060  224.0650 C   0  0  0  0  0  0  0  0  0  0  0  0
  142.3410   81.4560  223.8740 C   0  0  0  0  0  0  0  0  0  0  0  0
  141.6710   81.8100  222.7730 N   0  0  0  0  0  0  0  0  0  0  0  0
  141.2290   80.9310  221.8570 C   0  0  0  0  0  0  0  0  0  0  0  0
  141.0880   77.2380  221.5810 C   0  0  0  0  0  0  0  0  0  0  0  0
  141.3740   76.1080  220.6340 C   0  0  0  0  0  0  0  0  0  0  0  0
  140.1530   71.5220  223.3330 C   0  0  0  0  0  0  0  0  0  0  0  0
  139.5290   70.3010  223.1860 C   0  0  0  0  0  0  0  0  0  0  0  0
  139.4320   69.4990  224.3130 C   0  0  0  0  0  0  0  0  0  0  0  0
  139.9320   69.8840  225.5390 C   0  0  0  0  0  0  0  0  0  0  0  0
  139.8440   69.0930  226.6710 C   0  0  0  0  0  0  0  0  0  0  0  0
  140.3550   69.5100  227.8850 C   0  0  0  0  0  0  0  0  0  0  0  0
  140.2800   68.7550  229.0100 F   0  0  0  0  0  0  0  0  0  0  0  0
  140.9780   70.7520  227.9840 C   0  0  0  0  0  0  0  0  0  0  0  0
  141.0650   71.5320  226.8630 C   0  0  0  0  0  0  0  0  0  0  0  0
  140.5540   71.1270  225.6310 C   0  0  0  0  0  0  0  0  0  0  0  0
  140.6410   71.8950  224.5310 N   0  0  0  0  0  0  0  0  0  0  0  0
  140.5730   70.8270  220.8250 H   0  0  0  0  0  0  0  0  0  0  0  0
  140.4157   72.1553  218.8222 H   0  0  0  0  0  0  0  0  0  0  0  0
  139.9621   73.5820  219.8215 H   0  0  0  0  0  0  0  0  0  0  0  0
  141.6272   73.5715  216.9378 H   0  0  0  0  0  0  0  0  0  0  0  0
  140.8277   75.0651  217.4706 H   0  0  0  0  0  0  0  0  0  0  0  0
  142.3107   76.0662  216.0171 H   0  0  0  0  0  0  0  0  0  0  0  0
  143.9210   73.7430  216.4540 H   0  0  0  0  0  0  0  0  0  0  0  0
  144.7399   75.7030  217.5506 H   0  0  0  0  0  0  0  0  0  0  0  0
  143.6333   77.0768  217.6737 H   0  0  0  0  0  0  0  0  0  0  0  0
  144.0395   75.0944  219.6580 H   0  0  0  0  0  0  0  0  0  0  0  0
  143.3392   76.9704  220.3981 H   0  0  0  0  0  0  0  0  0  0  0  0
  141.0427   77.3158  218.4099 H   0  0  0  0  0  0  0  0  0  0  0  0
  142.6907   77.8814  218.0620 H   0  0  0  0  0  0  0  0  0  0  0  0
  141.1890   79.5941  219.1410 H   0  0  0  0  0  0  0  0  0  0  0  0
  142.7286   79.2019  220.0649 H   0  0  0  0  0  0  0  0  0  0  0  0
  139.8936   78.6574  220.7040 H   0  0  0  0  0  0  0  0  0  0  0  0
  142.3346   78.1078  223.2933 H   0  0  0  0  0  0  0  0  0  0  0  0
  143.1320   79.7670  224.9565 H   0  0  0  0  0  0  0  0  0  0  0  0
  142.6858   82.2073  224.5998 H   0  0  0  0  0  0  0  0  0  0  0  0
  140.6848   81.3042  220.9769 H   0  0  0  0  0  0  0  0  0  0  0  0
  140.1457   77.0085  222.1001 H   0  0  0  0  0  0  0  0  0  0  0  0
  141.9687   77.2975  222.2373 H   0  0  0  0  0  0  0  0  0  0  0  0
  140.4917   75.8982  220.0116 H   0  0  0  0  0  0  0  0  0  0  0  0
  141.6195   75.1817  221.1740 H   0  0  0  0  0  0  0  0  0  0  0  0
  139.1252   69.9769  222.2155 H   0  0  0  0  0  0  0  0  0  0  0  0
  138.9382   68.5200  224.2258 H   0  0  0  0  0  0  0  0  0  0  0  0
  139.3559   68.1096  226.6027 H   0  0  0  0  0  0  0  0  0  0  0  0
  141.3912   71.0984  228.9428 H   0  0  0  0  0  0  0  0  0  0  0  0
  141.5557   72.5137  226.9368 H   0  0  0  0  0  0  0  0  0  0  0  0
  1  2  2  0
  2  3  1  0
  3  4  1  0
  4  5  1  0
  5  6  2  0
  5  7  1  0
  7  8  1  0
  8  9  1  0
  9 10  1  0
  9 11  1  0
 11 12  1  0
 12 13  1  0
 13 14  1  0
 14 15  1  0
 15 16  1  0
 16 17  1  0
 17 18  2  0
 18 19  1  0
 19 20  2  0
 20 21  1  0
 21 22  2  0
 16 23  1  0
 23 24  1  0
  2 25  1  0
 25 26  2  0
 26 27  1  0
 27 28  2  0
 28 29  1  0
 29 30  2  0
 30 31  1  0
 30 32  1  0
 32 33  2  0
 33 34  1  0
 34 35  2  0
 12  7  1  0
 24 13  1  0
 35 25  1  0
 22 17  1  0
 34 28  1  0
  3 36  1  0
  4 37  1  0
  4 38  1  0
  8 39  1  0
  8 40  1  0
  9 41  1  6
 10 42  1  0
 11 43  1  0
 11 44  1  0
 12 45  1  1
 13 46  1  1
 14 47  1  0
 14 48  1  0
 15 49  1  0
 15 50  1  0
 16 51  1  6
 18 52  1  0
 19 53  1  0
 20 54  1  0
 22 55  1  0
 23 56  1  0
 23 57  1  0
 24 58  1  0
 24 59  1  0
 26 60  1  0
 27 61  1  0
 29 62  1  0
 32 63  1  0
 33 64  1  0
M  END
>  <smiles>  (68) 
O=C(NCC(=O)N1C[C@H](O)C[C@H]1C1CCC(c2cccnc2)CC1)c1ccc2cc(F)ccc2n1

>  <score_type>  (68) 
oracle

>  <origin>  (68) 
autodockgpu

>  <m_score__min__energy>  (68) 
-10.19

>  <m_primary>  (68) 
energy

>  <rmsd>  (68) 
2.324095500806031

>  <m_score__min__rmsd>  (68) 
2.324095500806031

>  <meeko>  (68) 
{"free_energy": -9.05, "intermolecular_energy": -11.14, "internal_energy": -1.83, "cluster_size": 9, "cluster_id": 1, "rank_in_cluster": 3}

>  <energy>  (68) 
-8.51

>  <cluster_rmsd>  (68) 
0.0

>  <cluster>  (68) 
5

$$$$

     RDKit          3D

 64 68  0  0  1  0  0  0  0  0999 V2000
  138.5050   70.9110  220.4450 O   0  0  0  0  0  0  0  0  0  0  0  0
  139.5120   71.0730  221.1980 C   0  0  0  0  0  0  0  0  0  0  0  0
  140.6730   71.7320  220.7200 N   0  0  0  0  0  0  0  0  0  0  0  0
  140.7490   72.2400  219.3680 C   0  0  0  0  0  0  0  0  0  0  0  0
  142.1220   72.0410  218.8260 C   0  0  0  0  0  0  0  0  0  0  0  0
  142.2590   71.1760  217.9230 O   0  0  0  0  0  0  0  0  0  0  0  0
  143.1980   72.8190  219.3360 N   0  0  0  0  0  0  0  0  0  0  0  0
  144.3940   73.2270  218.5840 C   0  0  0  0  0  0  0  0  0  0  0  0
  145.4890   73.3890  219.5800 C   0  0  2  0  0  0  0  0  0  0  0  0
  146.2950   72.2310  219.6200 O   0  0  0  0  0  0  0  0  0  0  0  0
  144.8110   73.5400  220.9220 C   0  0  0  0  0  0  0  0  0  0  0  0
  143.3530   73.3610  220.6560 C   0  0  1  0  0  0  0  0  0  0  0  0
  142.6710   74.6910  220.8270 C   0  0  1  0  0  0  0  0  0  0  0  0
  142.6230   75.5120  219.5650 C   0  0  0  0  0  0  0  0  0  0  0  0
  142.3250   76.9250  219.9780 C   0  0  0  0  0  0  0  0  0  0  0  0
  141.1570   77.0780  220.9020 C   0  0  2  0  0  0  0  0  0  0  0  0
  141.4600   78.2720  221.7470 C   0  0  0  0  0  0  0  0  0  0  0  0
  141.8170   79.4930  221.1820 C   0  0  0  0  0  0  0  0  0  0  0  0
  142.0980   80.6040  221.9750 C   0  0  0  0  0  0  0  0  0  0  0  0
  142.0240   80.5080  223.3550 C   0  0  0  0  0  0  0  0  0  0  0  0
  141.6790   79.3240  223.8710 N   0  0  0  0  0  0  0  0  0  0  0  0
  141.4030   78.2400  223.1260 C   0  0  0  0  0  0  0  0  0  0  0  0
  140.8680   75.9500  221.8100 C   0  0  0  0  0  0  0  0  0  0  0  0
  141.2430   74.5800  221.3190 C   0  0  0  0  0  0  0  0  0  0  0  0
  139.4700   70.5720  222.5750 C   0  0  0  0  0  0  0  0  0  0  0  0
  138.6630   69.5000  222.8930 C   0  0  0  0  0  0  0  0  0  0  0  0
  138.6670   69.0730  224.2120 C   0  0  0  0  0  0  0  0  0  0  0  0
  139.4370   69.6790  225.1820 C   0  0  0  0  0  0  0  0  0  0  0  0
  139.4510   69.2630  226.5020 C   0  0  0  0  0  0  0  0  0  0  0  0
  140.2350   69.8930  227.4500 C   0  0  0  0  0  0  0  0  0  0  0  0
  140.2670   69.5050  228.7500 F   0  0  0  0  0  0  0  0  0  0  0  0
  141.0340   70.9720  227.0800 C   0  0  0  0  0  0  0  0  0  0  0  0
  141.0190   71.3820  225.7750 C   0  0  0  0  0  0  0  0  0  0  0  0
  140.2350   70.7570  224.8070 C   0  0  0  0  0  0  0  0  0  0  0  0
  140.2210   71.1610  223.5240 N   0  0  0  0  0  0  0  0  0  0  0  0
  141.4690   71.8300  221.4040 H   0  0  0  0  0  0  0  0  0  0  0  0
  140.0264   71.7031  218.7359 H   0  0  0  0  0  0  0  0  0  0  0  0
  140.5144   73.3147  219.3721 H   0  0  0  0  0  0  0  0  0  0  0  0
  144.6615   72.4542  217.8483 H   0  0  0  0  0  0  0  0  0  0  0  0
  144.2164   74.1632  218.0344 H   0  0  0  0  0  0  0  0  0  0  0  0
  146.1248   74.2491  219.3233 H   0  0  0  0  0  0  0  0  0  0  0  0
  146.1030   71.7580  220.4690 H   0  0  0  0  0  0  0  0  0  0  0  0
  145.1708   72.7723  221.6228 H   0  0  0  0  0  0  0  0  0  0  0  0
  145.0250   74.5174  221.3791 H   0  0  0  0  0  0  0  0  0  0  0  0
  142.8864   72.6574  221.3612 H   0  0  0  0  0  0  0  0  0  0  0  0
  143.2989   75.1875  221.5815 H   0  0  0  0  0  0  0  0  0  0  0  0
  141.8317   75.1371  218.8992 H   0  0  0  0  0  0  0  0  0  0  0  0
  143.5761   75.4529  219.0190 H   0  0  0  0  0  0  0  0  0  0  0  0
  142.1212   77.5109  219.0696 H   0  0  0  0  0  0  0  0  0  0  0  0
  143.2066   77.2767  220.5339 H   0  0  0  0  0  0  0  0  0  0  0  0
  140.2646   77.1537  220.2633 H   0  0  0  0  0  0  0  0  0  0  0  0
  141.8786   79.5828  220.0874 H   0  0  0  0  0  0  0  0  0  0  0  0
  142.3788   81.5579  221.5048 H   0  0  0  0  0  0  0  0  0  0  0  0
  142.2406   81.3719  224.0007 H   0  0  0  0  0  0  0  0  0  0  0  0
  141.1242   77.3021  223.6285 H   0  0  0  0  0  0  0  0  0  0  0  0
  139.7860   75.9493  222.0080 H   0  0  0  0  0  0  0  0  0  0  0  0
  141.4951   76.1227  222.6971 H   0  0  0  0  0  0  0  0  0  0  0  0
  140.5784   74.2727  220.4981 H   0  0  0  0  0  0  0  0  0  0  0  0
  141.1477   73.8262  222.1144 H   0  0  0  0  0  0  0  0  0  0  0  0
  138.0421   69.0045  222.1321 H   0  0  0  0  0  0  0  0  0  0  0  0
  138.0329   68.2198  224.4949 H   0  0  0  0  0  0  0  0  0  0  0  0
  138.8236   68.4113  226.8036 H   0  0  0  0  0  0  0  0  0  0  0  0
  141.6643   71.4841  227.8220 H   0  0  0  0  0  0  0  0  0  0  0  0
  141.6477   72.2348  225.4793 H   0  0  0  0  0  0  0  0  0  0  0  0
  1  2  2  0
  2  3  1  0
  3  4  1  0
  4  5  1  0
  5  6  2  0
  5  7  1  0
  7  8  1  0
  8  9  1  0
  9 10  1  0
  9 11  1  0
 11 12  1  0
 12 13  1  0
 13 14  1  0
 14 15  1  0
 15 16  1  0
 16 17  1  0
 17 18  2  0
 18 19  1  0
 19 20  2  0
 20 21  1  0
 21 22  2  0
 16 23  1  0
 23 24  1  0
  2 25  1  0
 25 26  2  0
 26 27  1  0
 27 28  2  0
 28 29  1  0
 29 30  2  0
 30 31  1  0
 30 32  1  0
 32 33  2  0
 33 34  1  0
 34 35  2  0
 12  7  1  0
 24 13  1  0
 35 25  1  0
 22 17  1  0
 34 28  1  0
  3 36  1  0
  4 37  1  0
  4 38  1  0
  8 39  1  0
  8 40  1  0
  9 41  1  6
 10 42  1  0
 11 43  1  0
 11 44  1  0
 12 45  1  1
 13 46  1  1
 14 47  1  0
 14 48  1  0
 15 49  1  0
 15 50  1  0
 16 51  1  6
 18 52  1  0
 19 53  1  0
 20 54  1  0
 22 55  1  0
 23 56  1  0
 23 57  1  0
 24 58  1  0
 24 59  1  0
 26 60  1  0
 27 61  1  0
 29 62  1  0
 32 63  1  0
 33 64  1  0
M  END
>  <smiles>  (69) 
O=C(NCC(=O)N1C[C@H](O)C[C@H]1C1CCC(c2cccnc2)CC1)c1ccc2cc(F)ccc2n1

>  <score_type>  (69) 
oracle

>  <origin>  (69) 
autodockgpu

>  <m_score__min__energy>  (69) 
-10.19

>  <m_primary>  (69) 
energy

>  <rmsd>  (69) 
3.6360503243452964

>  <m_score__min__rmsd>  (69) 
3.6360503243452964

>  <meeko>  (69) 
{"free_energy": -9.01, "intermolecular_energy": -11.1, "internal_energy": -2.0, "cluster_size": 9, "cluster_id": 1, "rank_in_cluster": 4}

>  <energy>  (69) 
-8.49

>  <cluster_rmsd>  (69) 
0.95

>  <cluster>  (69) 
5

$$$$

     RDKit          3D

 64 68  0  0  1  0  0  0  0  0999 V2000
  137.7760   70.2260  221.4450 O   0  0  0  0  0  0  0  0  0  0  0  0
  137.8060   70.8860  222.5270 C   0  0  0  0  0  0  0  0  0  0  0  0
  137.1530   72.1410  222.6260 N   0  0  0  0  0  0  0  0  0  0  0  0
  136.4360   72.7080  221.5050 C   0  0  0  0  0  0  0  0  0  0  0  0
  137.2820   73.7250  220.8210 C   0  0  0  0  0  0  0  0  0  0  0  0
  136.6840   74.6230  220.1740 O   0  0  0  0  0  0  0  0  0  0  0  0
  138.6990   73.6460  220.9240 N   0  0  0  0  0  0  0  0  0  0  0  0
  139.6000   73.0640  219.9180 C   0  0  0  0  0  0  0  0  0  0  0  0
  140.8000   72.5750  220.6530 C   0  0  2  0  0  0  0  0  0  0  0  0
  140.6940   71.1890  220.9030 O   0  0  0  0  0  0  0  0  0  0  0  0
  140.7950   73.2960  221.9820 C   0  0  0  0  0  0  0  0  0  0  0  0
  139.5370   74.1000  221.9960 C   0  0  1  0  0  0  0  0  0  0  0  0
  139.9010   75.5560  221.8780 C   0  0  1  0  0  0  0  0  0  0  0  0
  140.7580   75.8690  220.6810 C   0  0  0  0  0  0  0  0  0  0  0  0
  141.3780   77.2140  220.9320 C   0  0  0  0  0  0  0  0  0  0  0  0
  140.4150   78.2840  221.3440 C   0  0  2  0  0  0  0  0  0  0  0  0
  141.1880   79.2100  222.2240 C   0  0  0  0  0  0  0  0  0  0  0  0
  142.5790   79.1820  222.2690 C   0  0  0  0  0  0  0  0  0  0  0  0
  143.2960   80.0490  223.0920 C   0  0  0  0  0  0  0  0  0  0  0  0
  142.6260   80.9640  223.8870 C   0  0  0  0  0  0  0  0  0  0  0  0
  141.2910   80.9700  223.8250 N   0  0  0  0  0  0  0  0  0  0  0  0
  140.5790   80.1440  223.0390 C   0  0  0  0  0  0  0  0  0  0  0  0
  139.2160   77.8550  222.0920 C   0  0  0  0  0  0  0  0  0  0  0  0
  138.7000   76.4750  221.7970 C   0  0  0  0  0  0  0  0  0  0  0  0
  138.5220   70.3420  223.6830 C   0  0  0  0  0  0  0  0  0  0  0  0
  138.6090   68.9770  223.8590 C   0  0  0  0  0  0  0  0  0  0  0  0
  139.3010   68.5240  224.9720 C   0  0  0  0  0  0  0  0  0  0  0  0
  139.8860   69.3820  225.8780 C   0  0  0  0  0  0  0  0  0  0  0  0
  140.5800   68.9440  226.9920 C   0  0  0  0  0  0  0  0  0  0  0  0
  141.1550   69.8320  227.8810 C   0  0  0  0  0  0  0  0  0  0  0  0
  141.8390   69.4280  228.9820 F   0  0  0  0  0  0  0  0  0  0  0  0
  141.0410   71.2020  227.6610 C   0  0  0  0  0  0  0  0  0  0  0  0
  140.3550   71.6340  226.5580 C   0  0  0  0  0  0  0  0  0  0  0  0
  139.7690   70.7520  225.6530 C   0  0  0  0  0  0  0  0  0  0  0  0
  139.0960   71.1780  224.5690 N   0  0  0  0  0  0  0  0  0  0  0  0
  137.2210   72.6310  223.5570 H   0  0  0  0  0  0  0  0  0  0  0  0
  136.1808   71.9085  220.7938 H   0  0  0  0  0  0  0  0  0  0  0  0
  135.5170   73.1896  221.8705 H   0  0  0  0  0  0  0  0  0  0  0  0
  139.1041   72.2283  219.4026 H   0  0  0  0  0  0  0  0  0  0  0  0
  139.8773   73.8077  219.1564 H   0  0  0  0  0  0  0  0  0  0  0  0
  141.7151   72.7575  220.0705 H   0  0  0  0  0  0  0  0  0  0  0  0
  139.7320   70.9550  220.9060 H   0  0  0  0  0  0  0  0  0  0  0  0
  140.7984   72.5733  222.8113 H   0  0  0  0  0  0  0  0  0  0  0  0
  141.6854   73.9300  222.1052 H   0  0  0  0  0  0  0  0  0  0  0  0
  138.9755   73.9741  222.9335 H   0  0  0  0  0  0  0  0  0  0  0  0
  140.4618   75.7396  222.8063 H   0  0  0  0  0  0  0  0  0  0  0  0
  140.1408   75.9002  219.7710 H   0  0  0  0  0  0  0  0  0  0  0  0
  141.5300   75.0990  220.5357 H   0  0  0  0  0  0  0  0  0  0  0  0
  141.8752   77.5394  220.0063 H   0  0  0  0  0  0  0  0  0  0  0  0
  142.0721   77.0818  221.7750 H   0  0  0  0  0  0  0  0  0  0  0  0
  140.0198   78.7199  220.4146 H   0  0  0  0  0  0  0  0  0  0  0  0
  143.1237   78.4607  221.6421 H   0  0  0  0  0  0  0  0  0  0  0  0
  144.3950   80.0064  223.1100 H   0  0  0  0  0  0  0  0  0  0  0  0
  143.1711   81.6583  224.5434 H   0  0  0  0  0  0  0  0  0  0  0  0
  139.4812   80.2139  223.0451 H   0  0  0  0  0  0  0  0  0  0  0  0
  138.4093   78.5684  221.8679 H   0  0  0  0  0  0  0  0  0  0  0  0
  139.5245   77.8310  223.1476 H   0  0  0  0  0  0  0  0  0  0  0  0
  138.2580   76.4390  220.7904 H   0  0  0  0  0  0  0  0  0  0  0  0
  137.9151   76.1771  222.5078 H   0  0  0  0  0  0  0  0  0  0  0  0
  138.1487   68.2769  223.1463 H   0  0  0  0  0  0  0  0  0  0  0  0
  139.3861   67.4399  225.1379 H   0  0  0  0  0  0  0  0  0  0  0  0
  140.6763   67.8635  227.1742 H   0  0  0  0  0  0  0  0  0  0  0  0
  141.4928   71.9223  228.3589 H   0  0  0  0  0  0  0  0  0  0  0  0
  140.2633   72.7156  226.3801 H   0  0  0  0  0  0  0  0  0  0  0  0
  1  2  2  0
  2  3  1  0
  3  4  1  0
  4  5  1  0
  5  6  2  0
  5  7  1  0
  7  8  1  0
  8  9  1  0
  9 10  1  0
  9 11  1  0
 11 12  1  0
 12 13  1  0
 13 14  1  0
 14 15  1  0
 15 16  1  0
 16 17  1  0
 17 18  2  0
 18 19  1  0
 19 20  2  0
 20 21  1  0
 21 22  2  0
 16 23  1  0
 23 24  1  0
  2 25  1  0
 25 26  2  0
 26 27  1  0
 27 28  2  0
 28 29  1  0
 29 30  2  0
 30 31  1  0
 30 32  1  0
 32 33  2  0
 33 34  1  0
 34 35  2  0
 12  7  1  0
 24 13  1  0
 35 25  1  0
 22 17  1  0
 34 28  1  0
  3 36  1  0
  4 37  1  0
  4 38  1  0
  8 39  1  0
  8 40  1  0
  9 41  1  6
 10 42  1  0
 11 43  1  0
 11 44  1  0
 12 45  1  1
 13 46  1  1
 14 47  1  0
 14 48  1  0
 15 49  1  0
 15 50  1  0
 16 51  1  6
 18 52  1  0
 19 53  1  0
 20 54  1  0
 22 55  1  0
 23 56  1  0
 23 57  1  0
 24 58  1  0
 24 59  1  0
 26 60  1  0
 27 61  1  0
 29 62  1  0
 32 63  1  0
 33 64  1  0
M  END
>  <smiles>  (70) 
O=C(NCC(=O)N1C[C@H](O)C[C@H]1C1CCC(c2cccnc2)CC1)c1ccc2cc(F)ccc2n1

>  <score_type>  (70) 
oracle

>  <origin>  (70) 
autodockgpu

>  <m_score__min__energy>  (70) 
-10.19

>  <m_primary>  (70) 
energy

>  <rmsd>  (70) 
2.699094247028703

>  <m_score__min__rmsd>  (70) 
2.699094247028703

>  <meeko>  (70) 
{"free_energy": -8.08, "intermolecular_energy": -10.17, "internal_energy": -3.21, "cluster_size": 15, "cluster_id": 5, "rank_in_cluster": 15}

>  <energy>  (70) 
-8.29

>  <cluster_rmsd>  (70) 
1.04

>  <cluster>  (70) 
5

$$$$

     RDKit          3D

 64 68  0  0  1  0  0  0  0  0999 V2000
  138.6090   77.0530  220.6850 O   0  0  0  0  0  0  0  0  0  0  0  0
  139.1170   76.0570  221.2820 C   0  0  0  0  0  0  0  0  0  0  0  0
  138.3840   75.3600  222.2770 N   0  0  0  0  0  0  0  0  0  0  0  0
  137.0430   75.7580  222.6420 C   0  0  0  0  0  0  0  0  0  0  0  0
  136.1980   74.5530  222.8720 C   0  0  0  0  0  0  0  0  0  0  0  0
  135.2580   74.6650  223.7010 O   0  0  0  0  0  0  0  0  0  0  0  0
  136.4790   73.3520  222.1630 N   0  0  0  0  0  0  0  0  0  0  0  0
  137.0030   73.2680  220.7910 C   0  0  0  0  0  0  0  0  0  0  0  0
  136.5180   71.9770  220.2280 C   0  0  2  0  0  0  0  0  0  0  0  0
  135.3650   72.1840  219.4400 O   0  0  0  0  0  0  0  0  0  0  0  0
  136.1320   71.1260  221.4160 C   0  0  0  0  0  0  0  0  0  0  0  0
  136.3190   71.9990  222.6130 C   0  0  1  0  0  0  0  0  0  0  0  0
  137.5060   71.4950  223.3890 C   0  0  1  0  0  0  0  0  0  0  0  0
  137.4140   70.0380  223.7550 C   0  0  0  0  0  0  0  0  0  0  0  0
  138.4110   69.8040  224.8540 C   0  0  0  0  0  0  0  0  0  0  0  0
  139.7870   70.3210  224.5760 C   0  0  2  0  0  0  0  0  0  0  0  0
  140.3600   70.6890  225.9050 C   0  0  0  0  0  0  0  0  0  0  0  0
  140.3070   69.8170  226.9890 C   0  0  0  0  0  0  0  0  0  0  0  0
  140.8440   70.1650  228.2270 C   0  0  0  0  0  0  0  0  0  0  0  0
  141.4460   71.4000  228.4000 C   0  0  0  0  0  0  0  0  0  0  0  0
  141.4840   72.2180  227.3440 N   0  0  0  0  0  0  0  0  0  0  0  0
  140.9730   71.9040  226.1410 C   0  0  0  0  0  0  0  0  0  0  0  0
  139.8940   71.5070  223.7010 C   0  0  0  0  0  0  0  0  0  0  0  0
  138.8220   71.6710  222.6610 C   0  0  0  0  0  0  0  0  0  0  0  0
  140.4740   75.6240  220.9370 C   0  0  0  0  0  0  0  0  0  0  0  0
  141.3630   76.5230  220.3860 C   0  0  0  0  0  0  0  0  0  0  0  0
  142.6320   76.0530  220.0800 C   0  0  0  0  0  0  0  0  0  0  0  0
  143.0110   74.7480  220.3100 C   0  0  0  0  0  0  0  0  0  0  0  0
  144.2740   74.2660  220.0120 C   0  0  0  0  0  0  0  0  0  0  0  0
  144.6220   72.9520  220.2550 C   0  0  0  0  0  0  0  0  0  0  0  0
  145.8520   72.4540  219.9710 F   0  0  0  0  0  0  0  0  0  0  0  0
  143.6890   72.0810  220.8140 C   0  0  0  0  0  0  0  0  0  0  0  0
  142.4410   72.5590  221.1090 C   0  0  0  0  0  0  0  0  0  0  0  0
  142.0740   73.8820  220.8700 C   0  0  0  0  0  0  0  0  0  0  0  0
  140.8480   74.3500  221.1610 N   0  0  0  0  0  0  0  0  0  0  0  0
  138.8720   74.5410  222.7280 H   0  0  0  0  0  0  0  0  0  0  0  0
  137.0793   76.3585  223.5629 H   0  0  0  0  0  0  0  0  0  0  0  0
  136.6083   76.3529  221.8252 H   0  0  0  0  0  0  0  0  0  0  0  0
  136.6279   74.1091  220.1894 H   0  0  0  0  0  0  0  0  0  0  0  0
  138.1019   73.3163  220.7826 H   0  0  0  0  0  0  0  0  0  0  0  0
  137.2915   71.5104  219.6003 H   0  0  0  0  0  0  0  0  0  0  0  0
  134.9950   73.0730  219.6730 H   0  0  0  0  0  0  0  0  0  0  0  0
  135.0828   70.8059  221.3343 H   0  0  0  0  0  0  0  0  0  0  0  0
  136.7428   70.2133  221.4785 H   0  0  0  0  0  0  0  0  0  0  0  0
  135.4493   71.9726  223.2860 H   0  0  0  0  0  0  0  0  0  0  0  0
  137.4828   72.1173  224.2957 H   0  0  0  0  0  0  0  0  0  0  0  0
  137.6569   69.4123  222.8835 H   0  0  0  0  0  0  0  0  0  0  0  0
  136.3969   69.7761  224.0818 H   0  0  0  0  0  0  0  0  0  0  0  0
  138.4815   68.7199  225.0264 H   0  0  0  0  0  0  0  0  0  0  0  0
  138.0429   70.3606  225.7285 H   0  0  0  0  0  0  0  0  0  0  0  0
  140.3120   69.5245  224.0283 H   0  0  0  0  0  0  0  0  0  0  0  0
  139.8314   68.8328  226.8657 H   0  0  0  0  0  0  0  0  0  0  0  0
  140.7896   69.4578  229.0678 H   0  0  0  0  0  0  0  0  0  0  0  0
  141.8759   71.6960  229.3683 H   0  0  0  0  0  0  0  0  0  0  0  0
  141.0450   72.6348  225.3220 H   0  0  0  0  0  0  0  0  0  0  0  0
  140.8606   71.4512  223.1789 H   0  0  0  0  0  0  0  0  0  0  0  0
  139.7859   72.3734  224.3701 H   0  0  0  0  0  0  0  0  0  0  0  0
  138.9302   70.9076  221.8765 H   0  0  0  0  0  0  0  0  0  0  0  0
  138.8832   72.6533  222.1698 H   0  0  0  0  0  0  0  0  0  0  0  0
  141.0780   77.5685  220.1971 H   0  0  0  0  0  0  0  0  0  0  0  0
  143.3620   76.7470  219.6379 H   0  0  0  0  0  0  0  0  0  0  0  0
  145.0180   74.9458  219.5712 H   0  0  0  0  0  0  0  0  0  0  0  0
  143.9501   71.0313  221.0140 H   0  0  0  0  0  0  0  0  0  0  0  0
  141.7014   71.8747  221.5504 H   0  0  0  0  0  0  0  0  0  0  0  0
  1  2  2  0
  2  3  1  0
  3  4  1  0
  4  5  1  0
  5  6  2  0
  5  7  1  0
  7  8  1  0
  8  9  1  0
  9 10  1  0
  9 11  1  0
 11 12  1  0
 12 13  1  0
 13 14  1  0
 14 15  1  0
 15 16  1  0
 16 17  1  0
 17 18  2  0
 18 19  1  0
 19 20  2  0
 20 21  1  0
 21 22  2  0
 16 23  1  0
 23 24  1  0
  2 25  1  0
 25 26  2  0
 26 27  1  0
 27 28  2  0
 28 29  1  0
 29 30  2  0
 30 31  1  0
 30 32  1  0
 32 33  2  0
 33 34  1  0
 34 35  2  0
 12  7  1  0
 24 13  1  0
 35 25  1  0
 22 17  1  0
 34 28  1  0
  3 36  1  0
  4 37  1  0
  4 38  1  0
  8 39  1  0
  8 40  1  0
  9 41  1  6
 10 42  1  0
 11 43  1  0
 11 44  1  0
 12 45  1  1
 13 46  1  1
 14 47  1  0
 14 48  1  0
 15 49  1  0
 15 50  1  0
 16 51  1  6
 18 52  1  0
 19 53  1  0
 20 54  1  0
 22 55  1  0
 23 56  1  0
 23 57  1  0
 24 58  1  0
 24 59  1  0
 26 60  1  0
 27 61  1  0
 29 62  1  0
 32 63  1  0
 33 64  1  0
M  END
>  <smiles>  (71) 
O=C(NCC(=O)N1C[C@H](O)C[C@H]1C1CCC(c2cccnc2)CC1)c1ccc2cc(F)ccc2n1

>  <score_type>  (71) 
oracle

>  <origin>  (71) 
autodockgpu

>  <m_score__min__energy>  (71) 
-10.19

>  <m_primary>  (71) 
energy

>  <rmsd>  (71) 
7.043014203150159

>  <m_score__min__rmsd>  (71) 
7.043014203150159

>  <meeko>  (71) 
{"free_energy": -7.68, "intermolecular_energy": -9.77, "internal_energy": -2.55, "cluster_size": 1, "cluster_id": 8, "rank_in_cluster": 1}

>  <energy>  (71) 
-8.27

>  <cluster_rmsd>  (71) 
1.1

>  <cluster>  (71) 
5

$$$$

     RDKit          3D

 64 68  0  0  1  0  0  0  0  0999 V2000
  138.0780   75.4970  221.5340 O   0  0  0  0  0  0  0  0  0  0  0  0
  139.2550   75.7280  221.9450 C   0  0  0  0  0  0  0  0  0  0  0  0
  140.2330   74.7020  221.9500 N   0  0  0  0  0  0  0  0  0  0  0  0
  139.9260   73.3660  221.4890 C   0  0  0  0  0  0  0  0  0  0  0  0
  141.1630   72.5360  221.4720 C   0  0  0  0  0  0  0  0  0  0  0  0
  141.1800   71.5220  222.2170 O   0  0  0  0  0  0  0  0  0  0  0  0
  142.2500   72.9120  220.6340 N   0  0  0  0  0  0  0  0  0  0  0  0
  142.7200   72.1690  219.4550 C   0  0  0  0  0  0  0  0  0  0  0  0
  144.1700   72.4770  219.3090 C   0  0  2  0  0  0  0  0  0  0  0  0
  144.9520   71.4490  219.8780 O   0  0  0  0  0  0  0  0  0  0  0  0
  144.4070   73.7430  220.0980 C   0  0  0  0  0  0  0  0  0  0  0  0
  143.1010   74.0610  220.7480 C   0  0  1  0  0  0  0  0  0  0  0  0
  142.5260   75.2850  220.0870 C   0  0  1  0  0  0  0  0  0  0  0  0
  143.5030   76.0060  219.1980 C   0  0  0  0  0  0  0  0  0  0  0  0
  142.9470   77.3840  218.9720 C   0  0  0  0  0  0  0  0  0  0  0  0
  141.5160   77.4210  218.5360 C   0  0  2  0  0  0  0  0  0  0  0  0
  140.9590   78.6980  219.0750 C   0  0  0  0  0  0  0  0  0  0  0  0
  141.7830   79.7700  219.4070 C   0  0  0  0  0  0  0  0  0  0  0  0
  141.2590   80.9590  219.9090 C   0  0  0  0  0  0  0  0  0  0  0  0
  139.8920   81.0950  220.0880 C   0  0  0  0  0  0  0  0  0  0  0  0
  139.1240   80.0510  219.7620 N   0  0  0  0  0  0  0  0  0  0  0  0
  139.6070   78.8950  219.2760 C   0  0  0  0  0  0  0  0  0  0  0  0
  140.6440   76.3230  219.0010 C   0  0  0  0  0  0  0  0  0  0  0  0
  141.3060   74.9960  219.2380 C   0  0  0  0  0  0  0  0  0  0  0  0
  139.6020   77.0710  222.4190 C   0  0  0  0  0  0  0  0  0  0  0  0
  138.6050   77.9510  222.7850 C   0  0  0  0  0  0  0  0  0  0  0  0
  138.9970   79.2060  223.2250 C   0  0  0  0  0  0  0  0  0  0  0  0
  140.3220   79.5810  223.3010 C   0  0  0  0  0  0  0  0  0  0  0  0
  140.7270   80.8300  223.7390 C   0  0  0  0  0  0  0  0  0  0  0  0
  142.0630   81.1740  223.8040 C   0  0  0  0  0  0  0  0  0  0  0  0
  142.4870   82.3920  224.2280 F   0  0  0  0  0  0  0  0  0  0  0  0
  143.0340   80.2510  223.4230 C   0  0  0  0  0  0  0  0  0  0  0  0
  142.6310   79.0170  222.9920 C   0  0  0  0  0  0  0  0  0  0  0  0
  141.2880   78.6540  222.9200 C   0  0  0  0  0  0  0  0  0  0  0  0
  140.8940   77.4400  222.4960 N   0  0  0  0  0  0  0  0  0  0  0  0
  141.1890   74.9700  222.3050 H   0  0  0  0  0  0  0  0  0  0  0  0
  139.1891   72.9077  222.1650 H   0  0  0  0  0  0  0  0  0  0  0  0
  139.5142   73.4212  220.4705 H   0  0  0  0  0  0  0  0  0  0  0  0
  142.5744   71.0889  219.6040 H   0  0  0  0  0  0  0  0  0  0  0  0
  142.1599   72.4589  218.5538 H   0  0  0  0  0  0  0  0  0  0  0  0
  144.4421   72.5775  218.2479 H   0  0  0  0  0  0  0  0  0  0  0  0
  144.8790   71.5230  220.8630 H   0  0  0  0  0  0  0  0  0  0  0  0
  145.1852   73.5816  220.8585 H   0  0  0  0  0  0  0  0  0  0  0  0
  144.7523   74.5654  219.4542 H   0  0  0  0  0  0  0  0  0  0  0  0
  143.2139   74.2865  221.8187 H   0  0  0  0  0  0  0  0  0  0  0  0
  142.2544   75.9174  220.9451 H   0  0  0  0  0  0  0  0  0  0  0  0
  143.6050   75.4766  218.2392 H   0  0  0  0  0  0  0  0  0  0  0  0
  144.4993   76.0529  219.6618 H   0  0  0  0  0  0  0  0  0  0  0  0
  143.5536   77.8745  218.1964 H   0  0  0  0  0  0  0  0  0  0  0  0
  142.9872   77.8968  219.9443 H   0  0  0  0  0  0  0  0  0  0  0  0
  141.5238   77.3226  217.4404 H   0  0  0  0  0  0  0  0  0  0  0  0
  142.8704   79.6761  219.2700 H   0  0  0  0  0  0  0  0  0  0  0  0
  141.9317   81.7913  220.1637 H   0  0  0  0  0  0  0  0  0  0  0  0
  139.4563   82.0248  220.4825 H   0  0  0  0  0  0  0  0  0  0  0  0
  138.9061   78.0832  219.0315 H   0  0  0  0  0  0  0  0  0  0  0  0
  139.8603   76.1749  218.2434 H   0  0  0  0  0  0  0  0  0  0  0  0
  140.2729   76.6432  219.9858 H   0  0  0  0  0  0  0  0  0  0  0  0
  141.6045   74.5414  218.2818 H   0  0  0  0  0  0  0  0  0  0  0  0
  140.6260   74.2894  219.7364 H   0  0  0  0  0  0  0  0  0  0  0  0
  137.5432   77.6689  222.7301 H   0  0  0  0  0  0  0  0  0  0  0  0
  138.2234   79.9285  223.5242 H   0  0  0  0  0  0  0  0  0  0  0  0
  139.9674   81.5655  224.0423 H   0  0  0  0  0  0  0  0  0  0  0  0
  144.1024   80.5090  223.4678 H   0  0  0  0  0  0  0  0  0  0  0  0
  143.3949   78.2848  222.6914 H   0  0  0  0  0  0  0  0  0  0  0  0
  1  2  2  0
  2  3  1  0
  3  4  1  0
  4  5  1  0
  5  6  2  0
  5  7  1  0
  7  8  1  0
  8  9  1  0
  9 10  1  0
  9 11  1  0
 11 12  1  0
 12 13  1  0
 13 14  1  0
 14 15  1  0
 15 16  1  0
 16 17  1  0
 17 18  2  0
 18 19  1  0
 19 20  2  0
 20 21  1  0
 21 22  2  0
 16 23  1  0
 23 24  1  0
  2 25  1  0
 25 26  2  0
 26 27  1  0
 27 28  2  0
 28 29  1  0
 29 30  2  0
 30 31  1  0
 30 32  1  0
 32 33  2  0
 33 34  1  0
 34 35  2  0
 12  7  1  0
 24 13  1  0
 35 25  1  0
 22 17  1  0
 34 28  1  0
  3 36  1  0
  4 37  1  0
  4 38  1  0
  8 39  1  0
  8 40  1  0
  9 41  1  6
 10 42  1  0
 11 43  1  0
 11 44  1  0
 12 45  1  1
 13 46  1  1
 14 47  1  0
 14 48  1  0
 15 49  1  0
 15 50  1  0
 16 51  1  6
 18 52  1  0
 19 53  1  0
 20 54  1  0
 22 55  1  0
 23 56  1  0
 23 57  1  0
 24 58  1  0
 24 59  1  0
 26 60  1  0
 27 61  1  0
 29 62  1  0
 32 63  1  0
 33 64  1  0
M  END
>  <smiles>  (72) 
O=C(NCC(=O)N1C[C@H](O)C[C@H]1C1CCC(c2cccnc2)CC1)c1ccc2cc(F)ccc2n1

>  <score_type>  (72) 
oracle

>  <origin>  (72) 
autodockgpu

>  <m_score__min__energy>  (72) 
-10.19

>  <m_primary>  (72) 
energy

>  <rmsd>  (72) 
7.687404252697373

>  <m_score__min__rmsd>  (72) 
7.687404252697373

>  <meeko>  (72) 
{"free_energy": -6.92, "intermolecular_energy": -9.01, "internal_energy": -4.11, "cluster_size": 9, "cluster_id": 10, "rank_in_cluster": 1}

>  <energy>  (72) 
-8.21

>  <cluster_rmsd>  (72) 
1.95

>  <cluster>  (72) 
5

$$$$

     RDKit          3D

 64 68  0  0  1  0  0  0  0  0999 V2000
  139.5550   73.6590  222.3990 O   0  0  0  0  0  0  0  0  0  0  0  0
  140.2670   72.6120  222.3380 C   0  0  0  0  0  0  0  0  0  0  0  0
  141.1470   72.3990  221.2460 N   0  0  0  0  0  0  0  0  0  0  0  0
  141.2610   73.3610  220.1720 C   0  0  0  0  0  0  0  0  0  0  0  0
  141.8450   74.6310  220.6860 C   0  0  0  0  0  0  0  0  0  0  0  0
  143.0940   74.6690  220.8280 O   0  0  0  0  0  0  0  0  0  0  0  0
  140.9880   75.7260  220.9890 N   0  0  0  0  0  0  0  0  0  0  0  0
  140.7460   76.2810  222.3290 C   0  0  0  0  0  0  0  0  0  0  0  0
  139.3820   76.8770  222.3030 C   0  0  2  0  0  0  0  0  0  0  0  0
  138.4390   75.9780  222.8470 O   0  0  0  0  0  0  0  0  0  0  0  0
  139.0470   77.0850  220.8430 C   0  0  0  0  0  0  0  0  0  0  0  0
  140.1960   76.5090  220.0840 C   0  0  1  0  0  0  0  0  0  0  0  0
  140.9680   77.6390  219.4570 C   0  0  1  0  0  0  0  0  0  0  0  0
  141.4600   78.6580  220.4500 C   0  0  0  0  0  0  0  0  0  0  0  0
  141.8090   79.8920  219.6680 C   0  0  0  0  0  0  0  0  0  0  0  0
  142.6910   79.6570  218.4810 C   0  0  2  0  0  0  0  0  0  0  0  0
  142.3220   80.7070  217.4860 C   0  0  0  0  0  0  0  0  0  0  0  0
  142.9820   81.9320  217.4390 C   0  0  0  0  0  0  0  0  0  0  0  0
  142.6340   82.9080  216.5080 C   0  0  0  0  0  0  0  0  0  0  0  0
  141.6130   82.6710  215.6020 C   0  0  0  0  0  0  0  0  0  0  0  0
  140.9960   81.4870  215.6690 N   0  0  0  0  0  0  0  0  0  0  0  0
  141.3150   80.5310  216.5580 C   0  0  0  0  0  0  0  0  0  0  0  0
  142.5770   78.3460  217.8110 C   0  0  0  0  0  0  0  0  0  0  0  0
  142.1810   77.1820  218.6750 C   0  0  0  0  0  0  0  0  0  0  0  0
  140.1770   71.6160  223.4100 C   0  0  0  0  0  0  0  0  0  0  0  0
  139.6220   70.3800  223.1550 C   0  0  0  0  0  0  0  0  0  0  0  0
  139.5650   69.4810  224.2100 C   0  0  0  0  0  0  0  0  0  0  0  0
  140.0400   69.7880  225.4680 C   0  0  0  0  0  0  0  0  0  0  0  0
  139.9910   68.9010  226.5290 C   0  0  0  0  0  0  0  0  0  0  0  0
  140.4760   69.2400  227.7770 C   0  0  0  0  0  0  0  0  0  0  0  0
  140.4390   68.3890  228.8340 F   0  0  0  0  0  0  0  0  0  0  0  0
  141.0290   70.5010  227.9850 C   0  0  0  0  0  0  0  0  0  0  0  0
  141.0770   71.3770  226.9350 C   0  0  0  0  0  0  0  0  0  0  0  0
  140.5930   71.0500  225.6700 C   0  0  0  0  0  0  0  0  0  0  0  0
  140.6400   71.9120  224.6390 N   0  0  0  0  0  0  0  0  0  0  0  0
  141.7060   71.5060  221.2650 H   0  0  0  0  0  0  0  0  0  0  0  0
  141.9121   72.9529  219.3849 H   0  0  0  0  0  0  0  0  0  0  0  0
  140.2610   73.5636  219.7609 H   0  0  0  0  0  0  0  0  0  0  0  0
  140.7973   75.4836  223.0850 H   0  0  0  0  0  0  0  0  0  0  0  0
  141.5034   77.0353  222.5885 H   0  0  0  0  0  0  0  0  0  0  0  0
  139.3543   77.8093  222.8861 H   0  0  0  0  0  0  0  0  0  0  0  0
  138.9280   75.1670  223.1370 H   0  0  0  0  0  0  0  0  0  0  0  0
  138.1145   76.5620  220.5843 H   0  0  0  0  0  0  0  0  0  0  0  0
  138.8941   78.1484  220.6070 H   0  0  0  0  0  0  0  0  0  0  0  0
  139.8645   75.8450  219.2721 H   0  0  0  0  0  0  0  0  0  0  0  0
  140.2264   78.0919  218.7825 H   0  0  0  0  0  0  0  0  0  0  0  0
  142.3492   78.2776  220.9741 H   0  0  0  0  0  0  0  0  0  0  0  0
  140.6920   78.8744  221.2072 H   0  0  0  0  0  0  0  0  0  0  0  0
  142.3242   80.5906  220.3437 H   0  0  0  0  0  0  0  0  0  0  0  0
  140.8606   80.2868  219.2747 H   0  0  0  0  0  0  0  0  0  0  0  0
  143.7260   79.6882  218.8521 H   0  0  0  0  0  0  0  0  0  0  0  0
  143.7952   82.1333  218.1519 H   0  0  0  0  0  0  0  0  0  0  0  0
  143.1706   83.8681  216.4921 H   0  0  0  0  0  0  0  0  0  0  0  0
  141.3218   83.4266  214.8575 H   0  0  0  0  0  0  0  0  0  0  0  0
  140.7585   79.5822  216.5460 H   0  0  0  0  0  0  0  0  0  0  0  0
  143.5550   78.1130  217.3646 H   0  0  0  0  0  0  0  0  0  0  0  0
  141.7583   78.4609  217.0854 H   0  0  0  0  0  0  0  0  0  0  0  0
  143.0003   76.9177  219.3598 H   0  0  0  0  0  0  0  0  0  0  0  0
  141.9598   76.2887  218.0724 H   0  0  0  0  0  0  0  0  0  0  0  0
  139.2405   70.1178  222.1572 H   0  0  0  0  0  0  0  0  0  0  0  0
  139.1252   68.4877  224.0371 H   0  0  0  0  0  0  0  0  0  0  0  0
  139.5556   67.9027  226.3749 H   0  0  0  0  0  0  0  0  0  0  0  0
  141.4192   70.7869  228.9729 H   0  0  0  0  0  0  0  0  0  0  0  0
  141.5129   72.3742  227.0951 H   0  0  0  0  0  0  0  0  0  0  0  0
  1  2  2  0
  2  3  1  0
  3  4  1  0
  4  5  1  0
  5  6  2  0
  5  7  1  0
  7  8  1  0
  8  9  1  0
  9 10  1  0
  9 11  1  0
 11 12  1  0
 12 13  1  0
 13 14  1  0
 14 15  1  0
 15 16  1  0
 16 17  1  0
 17 18  2  0
 18 19  1  0
 19 20  2  0
 20 21  1  0
 21 22  2  0
 16 23  1  0
 23 24  1  0
  2 25  1  0
 25 26  2  0
 26 27  1  0
 27 28  2  0
 28 29  1  0
 29 30  2  0
 30 31  1  0
 30 32  1  0
 32 33  2  0
 33 34  1  0
 34 35  2  0
 12  7  1  0
 24 13  1  0
 35 25  1  0
 22 17  1  0
 34 28  1  0
  3 36  1  0
  4 37  1  0
  4 38  1  0
  8 39  1  0
  8 40  1  0
  9 41  1  1
 10 42  1  0
 11 43  1  0
 11 44  1  0
 12 45  1  6
 13 46  1  6
 14 47  1  0
 14 48  1  0
 15 49  1  0
 15 50  1  0
 16 51  1  1
 18 52  1  0
 19 53  1  0
 20 54  1  0
 22 55  1  0
 23 56  1  0
 23 57  1  0
 24 58  1  0
 24 59  1  0
 26 60  1  0
 27 61  1  0
 29 62  1  0
 32 63  1  0
 33 64  1  0
M  END
>  <smiles>  (73) 
O=C(NCC(=O)N1C[C@H](O)C[C@H]1C1CCC(c2cccnc2)CC1)c1ccc2cc(F)ccc2n1

>  <score_type>  (73) 
oracle

>  <origin>  (73) 
autodockgpu

>  <m_score__min__energy>  (73) 
-10.19

>  <m_primary>  (73) 
energy

>  <rmsd>  (73) 
2.7440457855010303

>  <m_score__min__rmsd>  (73) 
2.7440457855010303

>  <meeko>  (73) 
{"free_energy": -8.25, "intermolecular_energy": -10.34, "internal_energy": -2.44, "cluster_size": 1, "cluster_id": 7, "rank_in_cluster": 1}

>  <energy>  (73) 
-8.18

>  <cluster_rmsd>  (73) 
1.13

>  <cluster>  (73) 
5

$$$$

     RDKit          3D

 64 68  0  0  1  0  0  0  0  0999 V2000
  138.1940   75.5330  221.4060 O   0  0  0  0  0  0  0  0  0  0  0  0
  139.3490   75.7410  221.8870 C   0  0  0  0  0  0  0  0  0  0  0  0
  140.3070   74.6980  221.9430 N   0  0  0  0  0  0  0  0  0  0  0  0
  140.0040   73.3690  221.4590 C   0  0  0  0  0  0  0  0  0  0  0  0
  141.2420   72.5410  221.4350 C   0  0  0  0  0  0  0  0  0  0  0  0
  141.2490   71.5060  222.1520 O   0  0  0  0  0  0  0  0  0  0  0  0
  142.3400   72.9400  220.6230 N   0  0  0  0  0  0  0  0  0  0  0  0
  142.8360   72.2230  219.4400 C   0  0  0  0  0  0  0  0  0  0  0  0
  144.2860   72.5440  219.3240 C   0  0  2  0  0  0  0  0  0  0  0  0
  145.0670   71.5120  219.8890 O   0  0  0  0  0  0  0  0  0  0  0  0
  144.5000   73.7980  220.1410 C   0  0  0  0  0  0  0  0  0  0  0  0
  143.1800   74.0930  220.7730 C   0  0  1  0  0  0  0  0  0  0  0  0
  142.6060   75.3240  220.1250 C   0  0  1  0  0  0  0  0  0  0  0  0
  143.5960   76.0760  219.2740 C   0  0  0  0  0  0  0  0  0  0  0  0
  143.0300   77.4510  219.0640 C   0  0  0  0  0  0  0  0  0  0  0  0
  141.6090   77.4820  218.5950 C   0  0  2  0  0  0  0  0  0  0  0  0
  141.0250   78.7410  219.1470 C   0  0  0  0  0  0  0  0  0  0  0  0
  141.8290   79.8100  219.5350 C   0  0  0  0  0  0  0  0  0  0  0  0
  141.2800   80.9820  220.0490 C   0  0  0  0  0  0  0  0  0  0  0  0
  139.9070   81.1040  220.1840 C   0  0  0  0  0  0  0  0  0  0  0  0
  139.1580   80.0640  219.8050 N   0  0  0  0  0  0  0  0  0  0  0  0
  139.6660   78.9240  219.3060 C   0  0  0  0  0  0  0  0  0  0  0  0
  140.7390   76.3650  219.0160 C   0  0  0  0  0  0  0  0  0  0  0  0
  141.4100   75.0400  219.2400 C   0  0  0  0  0  0  0  0  0  0  0  0
  139.6910   77.0760  222.3860 C   0  0  0  0  0  0  0  0  0  0  0  0
  138.6930   77.9320  222.8030 C   0  0  0  0  0  0  0  0  0  0  0  0
  139.0810   79.1800  223.2650 C   0  0  0  0  0  0  0  0  0  0  0  0
  140.4030   79.5720  223.3160 C   0  0  0  0  0  0  0  0  0  0  0  0
  140.8030   80.8140  223.7760 C   0  0  0  0  0  0  0  0  0  0  0  0
  142.1370   81.1740  223.8140 C   0  0  0  0  0  0  0  0  0  0  0  0
  142.5560   82.3860  224.2590 F   0  0  0  0  0  0  0  0  0  0  0  0
  143.1090   80.2750  223.3830 C   0  0  0  0  0  0  0  0  0  0  0  0
  142.7100   79.0470  222.9290 C   0  0  0  0  0  0  0  0  0  0  0  0
  141.3700   78.6680  222.8850 C   0  0  0  0  0  0  0  0  0  0  0  0
  140.9810   77.4610  222.4380 N   0  0  0  0  0  0  0  0  0  0  0  0
  141.2450   74.9470  222.3560 H   0  0  0  0  0  0  0  0  0  0  0  0
  139.2643   72.8991  222.1238 H   0  0  0  0  0  0  0  0  0  0  0  0
  139.5973   73.4400  220.4394 H   0  0  0  0  0  0  0  0  0  0  0  0
  142.6962   71.1393  219.5669 H   0  0  0  0  0  0  0  0  0  0  0  0
  142.2893   72.5258  218.5348 H   0  0  0  0  0  0  0  0  0  0  0  0
  144.5747   72.6650  218.2695 H   0  0  0  0  0  0  0  0  0  0  0  0
  144.9070   71.5110  220.8660 H   0  0  0  0  0  0  0  0  0  0  0  0
  145.2659   73.6283  220.9121 H   0  0  0  0  0  0  0  0  0  0  0  0
  144.8507   74.6350  219.5193 H   0  0  0  0  0  0  0  0  0  0  0  0
  143.2731   74.2990  221.8495 H   0  0  0  0  0  0  0  0  0  0  0  0
  142.3063   75.9337  220.9901 H   0  0  0  0  0  0  0  0  0  0  0  0
  143.7268   75.5684  218.3069 H   0  0  0  0  0  0  0  0  0  0  0  0
  144.5804   76.1244  219.7625 H   0  0  0  0  0  0  0  0  0  0  0  0
  143.6489   77.9645  218.3135 H   0  0  0  0  0  0  0  0  0  0  0  0
  143.0413   77.9431  220.0477 H   0  0  0  0  0  0  0  0  0  0  0  0
  141.6436   77.4072  217.4981 H   0  0  0  0  0  0  0  0  0  0  0  0
  142.9211   79.7267  219.4333 H   0  0  0  0  0  0  0  0  0  0  0  0
  141.9374   81.8117  220.3481 H   0  0  0  0  0  0  0  0  0  0  0  0
  139.4511   82.0203  220.5871 H   0  0  0  0  0  0  0  0  0  0  0  0
  138.9799   78.1145  219.0163 H   0  0  0  0  0  0  0  0  0  0  0  0
  139.9747   76.2250  218.2374 H   0  0  0  0  0  0  0  0  0  0  0  0
  140.3420   76.6598  219.9986 H   0  0  0  0  0  0  0  0  0  0  0  0
  141.7368   74.6099  218.2818 H   0  0  0  0  0  0  0  0  0  0  0  0
  140.7263   74.3150  219.7058 H   0  0  0  0  0  0  0  0  0  0  0  0
  137.6339   77.6367  222.7703 H   0  0  0  0  0  0  0  0  0  0  0  0
  138.3064   79.8839  223.6035 H   0  0  0  0  0  0  0  0  0  0  0  0
  140.0425   81.5309  224.1191 H   0  0  0  0  0  0  0  0  0  0  0  0
  144.1748   80.5459  223.4069 H   0  0  0  0  0  0  0  0  0  0  0  0
  143.4745   78.3339  222.5867 H   0  0  0  0  0  0  0  0  0  0  0  0
  1  2  2  0
  2  3  1  0
  3  4  1  0
  4  5  1  0
  5  6  2  0
  5  7  1  0
  7  8  1  0
  8  9  1  0
  9 10  1  0
  9 11  1  0
 11 12  1  0
 12 13  1  0
 13 14  1  0
 14 15  1  0
 15 16  1  0
 16 17  1  0
 17 18  2  0
 18 19  1  0
 19 20  2  0
 20 21  1  0
 21 22  2  0
 16 23  1  0
 23 24  1  0
  2 25  1  0
 25 26  2  0
 26 27  1  0
 27 28  2  0
 28 29  1  0
 29 30  2  0
 30 31  1  0
 30 32  1  0
 32 33  2  0
 33 34  1  0
 34 35  2  0
 12  7  1  0
 24 13  1  0
 35 25  1  0
 22 17  1  0
 34 28  1  0
  3 36  1  0
  4 37  1  0
  4 38  1  0
  8 39  1  0
  8 40  1  0
  9 41  1  6
 10 42  1  0
 11 43  1  0
 11 44  1  0
 12 45  1  1
 13 46  1  1
 14 47  1  0
 14 48  1  0
 15 49  1  0
 15 50  1  0
 16 51  1  6
 18 52  1  0
 19 53  1  0
 20 54  1  0
 22 55  1  0
 23 56  1  0
 23 57  1  0
 24 58  1  0
 24 59  1  0
 26 60  1  0
 27 61  1  0
 29 62  1  0
 32 63  1  0
 33 64  1  0
M  END
>  <smiles>  (74) 
O=C(NCC(=O)N1C[C@H](O)C[C@H]1C1CCC(c2cccnc2)CC1)c1ccc2cc(F)ccc2n1

>  <score_type>  (74) 
oracle

>  <origin>  (74) 
autodockgpu

>  <m_score__min__energy>  (74) 
-10.19

>  <m_primary>  (74) 
energy

>  <rmsd>  (74) 
7.702909861212528

>  <m_score__min__rmsd>  (74) 
7.702909861212528

>  <meeko>  (74) 
{"free_energy": -6.86, "intermolecular_energy": -8.94, "internal_energy": -4.15, "cluster_size": 9, "cluster_id": 10, "rank_in_cluster": 6}

>  <energy>  (74) 
-8.16

>  <cluster_rmsd>  (74) 
1.15

>  <cluster>  (74) 
5

$$$$

     RDKit          3D

 64 68  0  0  1  0  0  0  0  0999 V2000
  138.0500   75.5620  221.4840 O   0  0  0  0  0  0  0  0  0  0  0  0
  139.2250   75.7690  221.9120 C   0  0  0  0  0  0  0  0  0  0  0  0
  140.1850   74.7250  221.9260 N   0  0  0  0  0  0  0  0  0  0  0  0
  139.8590   73.3970  221.4570 C   0  0  0  0  0  0  0  0  0  0  0  0
  141.0650   72.5250  221.5190 C   0  0  0  0  0  0  0  0  0  0  0  0
  141.0300   71.5590  222.3250 O   0  0  0  0  0  0  0  0  0  0  0  0
  142.1820   72.8090  220.6850 N   0  0  0  0  0  0  0  0  0  0  0  0
  142.6080   72.0160  219.5220 C   0  0  0  0  0  0  0  0  0  0  0  0
  144.0770   72.2180  219.3840 C   0  0  2  0  0  0  0  0  0  0  0  0
  144.7810   71.1470  219.9770 O   0  0  0  0  0  0  0  0  0  0  0  0
  144.3970   73.4780  220.1560 C   0  0  0  0  0  0  0  0  0  0  0  0
  143.1110   73.8970  220.7890 C   0  0  1  0  0  0  0  0  0  0  0  0
  142.6290   75.1470  220.1030 C   0  0  1  0  0  0  0  0  0  0  0  0
  143.6620   75.7850  219.2130 C   0  0  0  0  0  0  0  0  0  0  0  0
  143.2060   77.1940  218.9600 C   0  0  0  0  0  0  0  0  0  0  0  0
  141.7840   77.3240  218.5090 C   0  0  2  0  0  0  0  0  0  0  0  0
  141.3140   78.6450  219.0230 C   0  0  0  0  0  0  0  0  0  0  0  0
  139.9960   78.8440  219.4250 C   0  0  0  0  0  0  0  0  0  0  0  0
  139.5620   80.0780  219.9040 C   0  0  0  0  0  0  0  0  0  0  0  0
  140.4470   81.1400  219.9880 C   0  0  0  0  0  0  0  0  0  0  0  0
  141.7060   80.9230  219.5950 N   0  0  0  0  0  0  0  0  0  0  0  0
  142.1470   79.7410  219.1310 C   0  0  0  0  0  0  0  0  0  0  0  0
  140.8340   76.2970  218.9820 C   0  0  0  0  0  0  0  0  0  0  0  0
  141.4000   74.9300  219.2450 C   0  0  0  0  0  0  0  0  0  0  0  0
  139.5910   77.1040  222.3940 C   0  0  0  0  0  0  0  0  0  0  0  0
  138.6090   77.9740  222.8210 C   0  0  0  0  0  0  0  0  0  0  0  0
  139.0190   79.2230  223.2650 C   0  0  0  0  0  0  0  0  0  0  0  0
  140.3450   79.6000  223.2900 C   0  0  0  0  0  0  0  0  0  0  0  0
  140.7670   80.8410  223.7330 C   0  0  0  0  0  0  0  0  0  0  0  0
  142.1040   81.1870  223.7450 C   0  0  0  0  0  0  0  0  0  0  0  0
  142.5450   82.3980  224.1720 F   0  0  0  0  0  0  0  0  0  0  0  0
  143.0590   80.2740  223.3050 C   0  0  0  0  0  0  0  0  0  0  0  0
  142.6400   79.0470  222.8680 C   0  0  0  0  0  0  0  0  0  0  0  0
  141.2950   78.6820  222.8500 C   0  0  0  0  0  0  0  0  0  0  0  0
  140.8850   77.4750  222.4200 N   0  0  0  0  0  0  0  0  0  0  0  0
  141.1410   74.9740  222.2950 H   0  0  0  0  0  0  0  0  0  0  0  0
  139.0680   72.9705  222.0914 H   0  0  0  0  0  0  0  0  0  0  0  0
  139.5098   73.4572  220.4156 H   0  0  0  0  0  0  0  0  0  0  0  0
  142.3851   70.9514  219.6864 H   0  0  0  0  0  0  0  0  0  0  0  0
  142.0771   72.3307  218.6114 H   0  0  0  0  0  0  0  0  0  0  0  0
  144.3632   72.2809  218.3238 H   0  0  0  0  0  0  0  0  0  0  0  0
  144.8270   71.3180  220.9510 H   0  0  0  0  0  0  0  0  0  0  0  0
  145.1559   73.2746  220.9259 H   0  0  0  0  0  0  0  0  0  0  0  0
  144.8048   74.2636  219.5030 H   0  0  0  0  0  0  0  0  0  0  0  0
  143.2307   74.1310  221.8571 H   0  0  0  0  0  0  0  0  0  0  0  0
  142.3941   75.8098  220.9489 H   0  0  0  0  0  0  0  0  0  0  0  0
  143.7358   75.2346  218.2635 H   0  0  0  0  0  0  0  0  0  0  0  0
  144.6546   75.7703  219.6868 H   0  0  0  0  0  0  0  0  0  0  0  0
  143.8522   77.6282  218.1829 H   0  0  0  0  0  0  0  0  0  0  0  0
  143.2734   77.7185  219.9246 H   0  0  0  0  0  0  0  0  0  0  0  0
  141.7935   77.2081  217.4152 H   0  0  0  0  0  0  0  0  0  0  0  0
  139.2823   78.0092  219.3631 H   0  0  0  0  0  0  0  0  0  0  0  0
  138.5153   80.2091  220.2159 H   0  0  0  0  0  0  0  0  0  0  0  0
  140.1265   82.1231  220.3633 H   0  0  0  0  0  0  0  0  0  0  0  0
  143.2003   79.6442  218.8291 H   0  0  0  0  0  0  0  0  0  0  0  0
  140.0482   76.1922  218.2194 H   0  0  0  0  0  0  0  0  0  0  0  0
  140.4782   76.6574  219.9585 H   0  0  0  0  0  0  0  0  0  0  0  0
  141.6755   74.4415  218.2987 H   0  0  0  0  0  0  0  0  0  0  0  0
  140.6678   74.2795  219.7458 H   0  0  0  0  0  0  0  0  0  0  0  0
  137.5464   77.6896  222.8099 H   0  0  0  0  0  0  0  0  0  0  0  0
  138.2582   79.9387  223.6097 H   0  0  0  0  0  0  0  0  0  0  0  0
  140.0204   81.5688  224.0837 H   0  0  0  0  0  0  0  0  0  0  0  0
  144.1279   80.5338  223.3087 H   0  0  0  0  0  0  0  0  0  0  0  0
  143.3910   78.3232  222.5186 H   0  0  0  0  0  0  0  0  0  0  0  0
  1  2  2  0
  2  3  1  0
  3  4  1  0
  4  5  1  0
  5  6  2  0
  5  7  1  0
  7  8  1  0
  8  9  1  0
  9 10  1  0
  9 11  1  0
 11 12  1  0
 12 13  1  0
 13 14  1  0
 14 15  1  0
 15 16  1  0
 16 17  1  0
 17 18  2  0
 18 19  1  0
 19 20  2  0
 20 21  1  0
 21 22  2  0
 16 23  1  0
 23 24  1  0
  2 25  1  0
 25 26  2  0
 26 27  1  0
 27 28  2  0
 28 29  1  0
 29 30  2  0
 30 31  1  0
 30 32  1  0
 32 33  2  0
 33 34  1  0
 34 35  2  0
 12  7  1  0
 24 13  1  0
 35 25  1  0
 22 17  1  0
 34 28  1  0
  3 36  1  0
  4 37  1  0
  4 38  1  0
  8 39  1  0
  8 40  1  0
  9 41  1  6
 10 42  1  0
 11 43  1  0
 11 44  1  0
 12 45  1  1
 13 46  1  1
 14 47  1  0
 14 48  1  0
 15 49  1  0
 15 50  1  0
 16 51  1  6
 18 52  1  0
 19 53  1  0
 20 54  1  0
 22 55  1  0
 23 56  1  0
 23 57  1  0
 24 58  1  0
 24 59  1  0
 26 60  1  0
 27 61  1  0
 29 62  1  0
 32 63  1  0
 33 64  1  0
M  END
>  <smiles>  (75) 
O=C(NCC(=O)N1C[C@H](O)C[C@H]1C1CCC(c2cccnc2)CC1)c1ccc2cc(F)ccc2n1

>  <score_type>  (75) 
oracle

>  <origin>  (75) 
autodockgpu

>  <m_score__min__energy>  (75) 
-10.19

>  <m_primary>  (75) 
energy

>  <rmsd>  (75) 
7.731673590455123

>  <m_score__min__rmsd>  (75) 
7.731673590455123

>  <meeko>  (75) 
{"free_energy": -6.86, "intermolecular_energy": -8.95, "internal_energy": -4.04, "cluster_size": 9, "cluster_id": 10, "rank_in_cluster": 5}

>  <energy>  (75) 
-8.13

>  <cluster_rmsd>  (75) 
0.86

>  <cluster>  (75) 
5

$$$$

     RDKit          3D

 64 68  0  0  1  0  0  0  0  0999 V2000
  139.3430   70.9180  221.4660 O   0  0  0  0  0  0  0  0  0  0  0  0
  138.9040   71.4280  222.5410 C   0  0  0  0  0  0  0  0  0  0  0  0
  137.8370   72.3620  222.5150 N   0  0  0  0  0  0  0  0  0  0  0  0
  137.2170   72.7630  221.2720 C   0  0  0  0  0  0  0  0  0  0  0  0
  137.8070   74.0470  220.7990 C   0  0  0  0  0  0  0  0  0  0  0  0
  137.0060   74.9810  220.5390 O   0  0  0  0  0  0  0  0  0  0  0  0
  139.2180   74.1640  220.6640 N   0  0  0  0  0  0  0  0  0  0  0  0
  139.9880   73.9030  219.4380 C   0  0  0  0  0  0  0  0  0  0  0  0
  141.3490   73.4820  219.8720 C   0  0  2  0  0  0  0  0  0  0  0  0
  141.4560   72.0750  219.8640 O   0  0  0  0  0  0  0  0  0  0  0  0
  141.4970   73.9600  221.2980 C   0  0  0  0  0  0  0  0  0  0  0  0
  140.1750   74.5520  221.6610 C   0  0  1  0  0  0  0  0  0  0  0  0
  140.3360   76.0440  221.7700 C   0  0  1  0  0  0  0  0  0  0  0  0
  140.8480   76.6900  220.5100 C   0  0  0  0  0  0  0  0  0  0  0  0
  141.3540   78.0510  220.8950 C   0  0  0  0  0  0  0  0  0  0  0  0
  140.4010   78.8700  221.7090 C   0  0  2  0  0  0  0  0  0  0  0  0
  141.2490   79.7380  222.5790 C   0  0  0  0  0  0  0  0  0  0  0  0
  142.6330   79.5920  222.6270 C   0  0  0  0  0  0  0  0  0  0  0  0
  143.4200   80.4040  223.4400 C   0  0  0  0  0  0  0  0  0  0  0  0
  142.8300   81.3830  224.2220 C   0  0  0  0  0  0  0  0  0  0  0  0
  141.5000   81.5020  224.1580 N   0  0  0  0  0  0  0  0  0  0  0  0
  140.7210   80.7300  223.3810 C   0  0  0  0  0  0  0  0  0  0  0  0
  139.4660   78.1360  222.5860 C   0  0  0  0  0  0  0  0  0  0  0  0
  139.0540   76.7660  222.1300 C   0  0  0  0  0  0  0  0  0  0  0  0
  139.5090   71.0440  223.8200 C   0  0  0  0  0  0  0  0  0  0  0  0
  140.3880   71.8990  224.4500 C   0  0  0  0  0  0  0  0  0  0  0  0
  140.9260   71.4790  225.6570 C   0  0  0  0  0  0  0  0  0  0  0  0
  140.6100   70.2620  226.2230 C   0  0  0  0  0  0  0  0  0  0  0  0
  141.1380   69.8310  227.4270 C   0  0  0  0  0  0  0  0  0  0  0  0
  140.7990   68.6050  227.9670 C   0  0  0  0  0  0  0  0  0  0  0  0
  141.3040   68.1580  229.1450 F   0  0  0  0  0  0  0  0  0  0  0  0
  139.9060   67.7760  227.2930 C   0  0  0  0  0  0  0  0  0  0  0  0
  139.3840   68.2040  226.1030 C   0  0  0  0  0  0  0  0  0  0  0  0
  139.7150   69.4370  225.5450 C   0  0  0  0  0  0  0  0  0  0  0  0
  139.2010   69.8570  224.3760 N   0  0  0  0  0  0  0  0  0  0  0  0
  137.5270   72.7420  223.4480 H   0  0  0  0  0  0  0  0  0  0  0  0
  137.3843   71.9840  220.5136 H   0  0  0  0  0  0  0  0  0  0  0  0
  136.1377   72.8999  221.4346 H   0  0  0  0  0  0  0  0  0  0  0  0
  139.5113   73.1022  218.8536 H   0  0  0  0  0  0  0  0  0  0  0  0
  140.0341   74.7981  218.8004 H   0  0  0  0  0  0  0  0  0  0  0  0
  142.1168   73.8950  219.2013 H   0  0  0  0  0  0  0  0  0  0  0  0
  140.6530   71.7080  220.3130 H   0  0  0  0  0  0  0  0  0  0  0  0
  141.7360   73.1170  221.9629 H   0  0  0  0  0  0  0  0  0  0  0  0
  142.3127   74.6909  221.4003 H   0  0  0  0  0  0  0  0  0  0  0  0
  139.8095   74.1873  222.6323 H   0  0  0  0  0  0  0  0  0  0  0  0
  141.0745   76.1475  222.5787 H   0  0  0  0  0  0  0  0  0  0  0  0
  140.0353   76.7822  219.7745 H   0  0  0  0  0  0  0  0  0  0  0  0
  141.6464   76.0866  220.0533 H   0  0  0  0  0  0  0  0  0  0  0  0
  141.5794   78.6056  219.9722 H   0  0  0  0  0  0  0  0  0  0  0  0
  142.2373   77.8841  221.5290 H   0  0  0  0  0  0  0  0  0  0  0  0
  139.7529   79.3946  220.9915 H   0  0  0  0  0  0  0  0  0  0  0  0
  143.1147   78.8192  222.0099 H   0  0  0  0  0  0  0  0  0  0  0  0
  144.5113   80.2676  223.4610 H   0  0  0  0  0  0  0  0  0  0  0  0
  143.4320   82.0368  224.8702 H   0  0  0  0  0  0  0  0  0  0  0  0
  139.6331   80.8930  223.3842 H   0  0  0  0  0  0  0  0  0  0  0  0
  138.5542   78.7434  222.6849 H   0  0  0  0  0  0  0  0  0  0  0  0
  140.0138   77.9768  223.5265 H   0  0  0  0  0  0  0  0  0  0  0  0
  138.3956   76.8372  221.2517 H   0  0  0  0  0  0  0  0  0  0  0  0
  138.4960   76.2312  222.9127 H   0  0  0  0  0  0  0  0  0  0  0  0
  140.6515   72.8736  224.0134 H   0  0  0  0  0  0  0  0  0  0  0  0
  141.6305   72.1408  226.1821 H   0  0  0  0  0  0  0  0  0  0  0  0
  141.8439   70.4792  227.9669 H   0  0  0  0  0  0  0  0  0  0  0  0
  139.6260   66.7969  227.7089 H   0  0  0  0  0  0  0  0  0  0  0  0
  138.6781   67.5517  225.5679 H   0  0  0  0  0  0  0  0  0  0  0  0
  1  2  2  0
  2  3  1  0
  3  4  1  0
  4  5  1  0
  5  6  2  0
  5  7  1  0
  7  8  1  0
  8  9  1  0
  9 10  1  0
  9 11  1  0
 11 12  1  0
 12 13  1  0
 13 14  1  0
 14 15  1  0
 15 16  1  0
 16 17  1  0
 17 18  2  0
 18 19  1  0
 19 20  2  0
 20 21  1  0
 21 22  2  0
 16 23  1  0
 23 24  1  0
  2 25  1  0
 25 26  2  0
 26 27  1  0
 27 28  2  0
 28 29  1  0
 29 30  2  0
 30 31  1  0
 30 32  1  0
 32 33  2  0
 33 34  1  0
 34 35  2  0
 12  7  1  0
 24 13  1  0
 35 25  1  0
 22 17  1  0
 34 28  1  0
  3 36  1  0
  4 37  1  0
  4 38  1  0
  8 39  1  0
  8 40  1  0
  9 41  1  6
 10 42  1  0
 11 43  1  0
 11 44  1  0
 12 45  1  1
 13 46  1  1
 14 47  1  0
 14 48  1  0
 15 49  1  0
 15 50  1  0
 16 51  1  6
 18 52  1  0
 19 53  1  0
 20 54  1  0
 22 55  1  0
 23 56  1  0
 23 57  1  0
 24 58  1  0
 24 59  1  0
 26 60  1  0
 27 61  1  0
 29 62  1  0
 32 63  1  0
 33 64  1  0
M  END
>  <smiles>  (76) 
O=C(NCC(=O)N1C[C@H](O)C[C@H]1C1CCC(c2cccnc2)CC1)c1ccc2cc(F)ccc2n1

>  <score_type>  (76) 
oracle

>  <origin>  (76) 
autodockgpu

>  <m_score__min__energy>  (76) 
-10.19

>  <m_primary>  (76) 
energy

>  <rmsd>  (76) 
3.0377805681508128

>  <m_score__min__rmsd>  (76) 
3.0377805681508128

>  <meeko>  (76) 
{"free_energy": -8.69, "intermolecular_energy": -10.78, "internal_energy": -2.84, "cluster_size": 9, "cluster_id": 1, "rank_in_cluster": 8}

>  <energy>  (76) 
-8.12

>  <cluster_rmsd>  (76) 
1.15

>  <cluster>  (76) 
5

$$$$

     RDKit          3D

 64 68  0  0  1  0  0  0  0  0999 V2000
  137.7250   69.7790  222.0330 O   0  0  0  0  0  0  0  0  0  0  0  0
  137.8440   70.5150  223.0590 C   0  0  0  0  0  0  0  0  0  0  0  0
  137.2130   71.7840  223.1150 N   0  0  0  0  0  0  0  0  0  0  0  0
  136.4200   72.2810  222.0130 C   0  0  0  0  0  0  0  0  0  0  0  0
  137.2330   73.2060  221.1760 C   0  0  0  0  0  0  0  0  0  0  0  0
  136.6060   74.0520  220.4860 O   0  0  0  0  0  0  0  0  0  0  0  0
  138.6520   73.1020  221.1880 N   0  0  0  0  0  0  0  0  0  0  0  0
  139.4730   72.4560  220.1540 C   0  0  0  0  0  0  0  0  0  0  0  0
  140.7110   71.9770  220.8310 C   0  0  2  0  0  0  0  0  0  0  0  0
  140.5980   70.6070  221.1540 O   0  0  0  0  0  0  0  0  0  0  0  0
  140.8080   72.7600  222.1200 C   0  0  0  0  0  0  0  0  0  0  0  0
  139.5680   73.5890  222.1790 C   0  0  1  0  0  0  0  0  0  0  0  0
  139.9480   75.0300  221.9670 C   0  0  1  0  0  0  0  0  0  0  0  0
  140.8080   75.2550  220.7520 C   0  0  0  0  0  0  0  0  0  0  0  0
  141.4440   76.6070  220.9150 C   0  0  0  0  0  0  0  0  0  0  0  0
  140.4940   77.7120  221.2570 C   0  0  2  0  0  0  0  0  0  0  0  0
  141.2780   78.6840  222.0750 C   0  0  0  0  0  0  0  0  0  0  0  0
  141.4330   78.5230  223.4490 C   0  0  0  0  0  0  0  0  0  0  0  0
  142.1660   79.4340  224.2080 C   0  0  0  0  0  0  0  0  0  0  0  0
  142.7600   80.5260  223.5980 C   0  0  0  0  0  0  0  0  0  0  0  0
  142.5950   80.6570  222.2780 N   0  0  0  0  0  0  0  0  0  0  0  0
  141.8930   79.7920  221.5270 C   0  0  0  0  0  0  0  0  0  0  0  0
  139.2900   77.3460  222.0310 C   0  0  0  0  0  0  0  0  0  0  0  0
  138.7580   75.9560  221.8270 C   0  0  0  0  0  0  0  0  0  0  0  0
  138.6400   70.0440  224.1950 C   0  0  0  0  0  0  0  0  0  0  0  0
  138.8440   68.6920  224.3790 C   0  0  0  0  0  0  0  0  0  0  0  0
  139.6060   68.3090  225.4730 C   0  0  0  0  0  0  0  0  0  0  0  0
  140.1480   69.2230  226.3520 C   0  0  0  0  0  0  0  0  0  0  0  0
  140.9110   68.8550  227.4460 C   0  0  0  0  0  0  0  0  0  0  0  0
  141.4400   69.7960  228.3070 C   0  0  0  0  0  0  0  0  0  0  0  0
  142.1910   69.4620  229.3880 F   0  0  0  0  0  0  0  0  0  0  0  0
  141.2080   71.1500  228.0800 C   0  0  0  0  0  0  0  0  0  0  0  0
  140.4530   71.5120  226.9970 C   0  0  0  0  0  0  0  0  0  0  0  0
  139.9130   70.5760  226.1180 C   0  0  0  0  0  0  0  0  0  0  0  0
  139.1720   70.9330  225.0550 N   0  0  0  0  0  0  0  0  0  0  0  0
  137.3570   72.3380  224.0010 H   0  0  0  0  0  0  0  0  0  0  0  0
  136.0818   71.4347  221.3970 H   0  0  0  0  0  0  0  0  0  0  0  0
  135.5503   72.8246  222.4107 H   0  0  0  0  0  0  0  0  0  0  0  0
  138.9293   71.6077  219.7127 H   0  0  0  0  0  0  0  0  0  0  0  0
  139.7116   73.1577  219.3412 H   0  0  0  0  0  0  0  0  0  0  0  0
  141.5881   72.1123  220.1811 H   0  0  0  0  0  0  0  0  0  0  0  0
  139.6350   70.3950  221.2410 H   0  0  0  0  0  0  0  0  0  0  0  0
  140.8552   72.0776  222.9814 H   0  0  0  0  0  0  0  0  0  0  0  0
  141.7153   73.3811  222.1522 H   0  0  0  0  0  0  0  0  0  0  0  0
  139.0689   73.5188  223.1567 H   0  0  0  0  0  0  0  0  0  0  0  0
  140.5111   75.2668  222.8818 H   0  0  0  0  0  0  0  0  0  0  0  0
  140.1906   75.2341  219.8418 H   0  0  0  0  0  0  0  0  0  0  0  0
  141.5711   74.4685  220.6572 H   0  0  0  0  0  0  0  0  0  0  0  0
  141.9437   76.8660  219.9699 H   0  0  0  0  0  0  0  0  0  0  0  0
  142.1376   76.5218  221.7645 H   0  0  0  0  0  0  0  0  0  0  0  0
  140.1032   78.0914  220.3013 H   0  0  0  0  0  0  0  0  0  0  0  0
  140.9675   77.6591  223.9461 H   0  0  0  0  0  0  0  0  0  0  0  0
  142.2727   79.2852  225.2927 H   0  0  0  0  0  0  0  0  0  0  0  0
  143.3443   81.2566  224.1766 H   0  0  0  0  0  0  0  0  0  0  0  0
  141.8058   79.9716  220.4453 H   0  0  0  0  0  0  0  0  0  0  0  0
  138.4914   78.0524  221.7604 H   0  0  0  0  0  0  0  0  0  0  0  0
  139.5989   77.3872  223.0859 H   0  0  0  0  0  0  0  0  0  0  0  0
  138.3143   75.8596  220.8251 H   0  0  0  0  0  0  0  0  0  0  0  0
  137.9709   75.7143  222.5564 H   0  0  0  0  0  0  0  0  0  0  0  0
  138.4202   67.9490  223.6873 H   0  0  0  0  0  0  0  0  0  0  0  0
  139.7844   67.2374  225.6457 H   0  0  0  0  0  0  0  0  0  0  0  0
  141.1006   67.7879  227.6342 H   0  0  0  0  0  0  0  0  0  0  0  0
  141.6224   71.9122  228.7562 H   0  0  0  0  0  0  0  0  0  0  0  0
  140.2660   72.5805  226.8143 H   0  0  0  0  0  0  0  0  0  0  0  0
  1  2  2  0
  2  3  1  0
  3  4  1  0
  4  5  1  0
  5  6  2  0
  5  7  1  0
  7  8  1  0
  8  9  1  0
  9 10  1  0
  9 11  1  0
 11 12  1  0
 12 13  1  0
 13 14  1  0
 14 15  1  0
 15 16  1  0
 16 17  1  0
 17 18  2  0
 18 19  1  0
 19 20  2  0
 20 21  1  0
 21 22  2  0
 16 23  1  0
 23 24  1  0
  2 25  1  0
 25 26  2  0
 26 27  1  0
 27 28  2  0
 28 29  1  0
 29 30  2  0
 30 31  1  0
 30 32  1  0
 32 33  2  0
 33 34  1  0
 34 35  2  0
 12  7  1  0
 24 13  1  0
 35 25  1  0
 22 17  1  0
 34 28  1  0
  3 36  1  0
  4 37  1  0
  4 38  1  0
  8 39  1  0
  8 40  1  0
  9 41  1  6
 10 42  1  0
 11 43  1  0
 11 44  1  0
 12 45  1  1
 13 46  1  1
 14 47  1  0
 14 48  1  0
 15 49  1  0
 15 50  1  0
 16 51  1  6
 18 52  1  0
 19 53  1  0
 20 54  1  0
 22 55  1  0
 23 56  1  0
 23 57  1  0
 24 58  1  0
 24 59  1  0
 26 60  1  0
 27 61  1  0
 29 62  1  0
 32 63  1  0
 33 64  1  0
M  END
>  <smiles>  (77) 
O=C(NCC(=O)N1C[C@H](O)C[C@H]1C1CCC(c2cccnc2)CC1)c1ccc2cc(F)ccc2n1

>  <score_type>  (77) 
oracle

>  <origin>  (77) 
autodockgpu

>  <m_score__min__energy>  (77) 
-10.19

>  <m_primary>  (77) 
energy

>  <rmsd>  (77) 
3.04335578166627

>  <m_score__min__rmsd>  (77) 
3.04335578166627

>  <meeko>  (77) 
{"free_energy": -8.18, "intermolecular_energy": -10.27, "internal_energy": -3.25, "cluster_size": 15, "cluster_id": 5, "rank_in_cluster": 6}

>  <energy>  (77) 
-8.12

>  <cluster_rmsd>  (77) 
1.28

>  <cluster>  (77) 
5

$$$$

     RDKit          3D

 64 68  0  0  1  0  0  0  0  0999 V2000
  138.1640   75.5690  221.3620 O   0  0  0  0  0  0  0  0  0  0  0  0
  139.3180   75.7670  221.8500 C   0  0  0  0  0  0  0  0  0  0  0  0
  140.2690   74.7170  221.9070 N   0  0  0  0  0  0  0  0  0  0  0  0
  139.9590   73.3930  221.4160 C   0  0  0  0  0  0  0  0  0  0  0  0
  141.1920   72.5580  221.3880 C   0  0  0  0  0  0  0  0  0  0  0  0
  141.1800   71.5000  222.0690 O   0  0  0  0  0  0  0  0  0  0  0  0
  142.3080   72.9780  220.6120 N   0  0  0  0  0  0  0  0  0  0  0  0
  142.8520   72.2730  219.4410 C   0  0  0  0  0  0  0  0  0  0  0  0
  144.2990   72.6190  219.3710 C   0  0  2  0  0  0  0  0  0  0  0  0
  145.0790   71.5970  219.9560 O   0  0  0  0  0  0  0  0  0  0  0  0
  144.4670   73.8730  220.1980 C   0  0  0  0  0  0  0  0  0  0  0  0
  143.1240   74.1440  220.7910 C   0  0  1  0  0  0  0  0  0  0  0  0
  142.5500   75.3680  220.1300 C   0  0  1  0  0  0  0  0  0  0  0  0
  143.5460   76.1240  219.2910 C   0  0  0  0  0  0  0  0  0  0  0  0
  142.9730   77.4950  219.0670 C   0  0  0  0  0  0  0  0  0  0  0  0
  141.5590   77.5130  218.5770 C   0  0  2  0  0  0  0  0  0  0  0  0
  140.9570   78.7690  219.1160 C   0  0  0  0  0  0  0  0  0  0  0  0
  141.7470   79.8450  219.5100 C   0  0  0  0  0  0  0  0  0  0  0  0
  141.1810   81.0150  220.0120 C   0  0  0  0  0  0  0  0  0  0  0  0
  139.8060   81.1270  220.1270 C   0  0  0  0  0  0  0  0  0  0  0  0
  139.0700   80.0800  219.7410 N   0  0  0  0  0  0  0  0  0  0  0  0
  139.5940   78.9420  219.2540 C   0  0  0  0  0  0  0  0  0  0  0  0
  140.6910   76.3900  218.9900 C   0  0  0  0  0  0  0  0  0  0  0  0
  141.3700   75.0720  219.2290 C   0  0  0  0  0  0  0  0  0  0  0  0
  139.6670   77.0980  222.3560 C   0  0  0  0  0  0  0  0  0  0  0  0
  138.6750   77.9490  222.7960 C   0  0  0  0  0  0  0  0  0  0  0  0
  139.0690   79.1940  223.2630 C   0  0  0  0  0  0  0  0  0  0  0  0
  140.3910   79.5860  223.2970 C   0  0  0  0  0  0  0  0  0  0  0  0
  140.7980   80.8240  223.7620 C   0  0  0  0  0  0  0  0  0  0  0  0
  142.1310   81.1850  223.7830 C   0  0  0  0  0  0  0  0  0  0  0  0
  142.5570   82.3930  224.2320 F   0  0  0  0  0  0  0  0  0  0  0  0
  143.0970   80.2910  223.3280 C   0  0  0  0  0  0  0  0  0  0  0  0
  142.6930   79.0670  222.8690 C   0  0  0  0  0  0  0  0  0  0  0  0
  141.3520   78.6870  222.8420 C   0  0  0  0  0  0  0  0  0  0  0  0
  140.9570   77.4830  222.3910 N   0  0  0  0  0  0  0  0  0  0  0  0
  141.2060   74.9580  222.3250 H   0  0  0  0  0  0  0  0  0  0  0  0
  139.2163   72.9237  222.0780 H   0  0  0  0  0  0  0  0  0  0  0  0
  139.5534   73.4719  220.3966 H   0  0  0  0  0  0  0  0  0  0  0  0
  142.7268   71.1866  219.5599 H   0  0  0  0  0  0  0  0  0  0  0  0
  142.3280   72.5695  218.5204 H   0  0  0  0  0  0  0  0  0  0  0  0
  144.6182   72.7498  218.3265 H   0  0  0  0  0  0  0  0  0  0  0  0
  145.2490   71.8480  220.8990 H   0  0  0  0  0  0  0  0  0  0  0  0
  145.2121   73.7132  220.9912 H   0  0  0  0  0  0  0  0  0  0  0  0
  144.8220   74.7179  219.5897 H   0  0  0  0  0  0  0  0  0  0  0  0
  143.1810   74.3473  221.8705 H   0  0  0  0  0  0  0  0  0  0  0  0
  142.2329   75.9782  220.9885 H   0  0  0  0  0  0  0  0  0  0  0  0
  143.6946   75.6137  218.3279 H   0  0  0  0  0  0  0  0  0  0  0  0
  144.5226   76.1817  219.7939 H   0  0  0  0  0  0  0  0  0  0  0  0
  143.5992   78.0101  218.3236 H   0  0  0  0  0  0  0  0  0  0  0  0
  142.9664   77.9915  220.0485 H   0  0  0  0  0  0  0  0  0  0  0  0
  141.6105   77.4345  217.4810 H   0  0  0  0  0  0  0  0  0  0  0  0
  142.8410   79.7701  219.4233 H   0  0  0  0  0  0  0  0  0  0  0  0
  141.8276   81.8509  220.3174 H   0  0  0  0  0  0  0  0  0  0  0  0
  139.3377   82.0413  220.5204 H   0  0  0  0  0  0  0  0  0  0  0  0
  138.9185   78.1261  218.9572 H   0  0  0  0  0  0  0  0  0  0  0  0
  139.9394   76.2406  218.2009 H   0  0  0  0  0  0  0  0  0  0  0  0
  140.2765   76.6854  219.9652 H   0  0  0  0  0  0  0  0  0  0  0  0
  141.7144   74.6413  218.2772 H   0  0  0  0  0  0  0  0  0  0  0  0
  140.6854   74.3434  219.6878 H   0  0  0  0  0  0  0  0  0  0  0  0
  137.6158   77.6528  222.7773 H   0  0  0  0  0  0  0  0  0  0  0  0
  138.2992   79.8944  223.6193 H   0  0  0  0  0  0  0  0  0  0  0  0
  140.0425   81.5372  224.1233 H   0  0  0  0  0  0  0  0  0  0  0  0
  144.1627   80.5633  223.3374 H   0  0  0  0  0  0  0  0  0  0  0  0
  143.4529   78.3580  222.5087 H   0  0  0  0  0  0  0  0  0  0  0  0
  1  2  2  0
  2  3  1  0
  3  4  1  0
  4  5  1  0
  5  6  2  0
  5  7  1  0
  7  8  1  0
  8  9  1  0
  9 10  1  0
  9 11  1  0
 11 12  1  0
 12 13  1  0
 13 14  1  0
 14 15  1  0
 15 16  1  0
 16 17  1  0
 17 18  2  0
 18 19  1  0
 19 20  2  0
 20 21  1  0
 21 22  2  0
 16 23  1  0
 23 24  1  0
  2 25  1  0
 25 26  2  0
 26 27  1  0
 27 28  2  0
 28 29  1  0
 29 30  2  0
 30 31  1  0
 30 32  1  0
 32 33  2  0
 33 34  1  0
 34 35  2  0
 12  7  1  0
 24 13  1  0
 35 25  1  0
 22 17  1  0
 34 28  1  0
  3 36  1  0
  4 37  1  0
  4 38  1  0
  8 39  1  0
  8 40  1  0
  9 41  1  6
 10 42  1  0
 11 43  1  0
 11 44  1  0
 12 45  1  1
 13 46  1  1
 14 47  1  0
 14 48  1  0
 15 49  1  0
 15 50  1  0
 16 51  1  6
 18 52  1  0
 19 53  1  0
 20 54  1  0
 22 55  1  0
 23 56  1  0
 23 57  1  0
 24 58  1  0
 24 59  1  0
 26 60  1  0
 27 61  1  0
 29 62  1  0
 32 63  1  0
 33 64  1  0
M  END
>  <smiles>  (78) 
O=C(NCC(=O)N1C[C@H](O)C[C@H]1C1CCC(c2cccnc2)CC1)c1ccc2cc(F)ccc2n1

>  <score_type>  (78) 
oracle

>  <origin>  (78) 
autodockgpu

>  <m_score__min__energy>  (78) 
-10.19

>  <m_primary>  (78) 
energy

>  <rmsd>  (78) 
7.708047364538113

>  <m_score__min__rmsd>  (78) 
7.708047364538113

>  <meeko>  (78) 
{"free_energy": -6.91, "intermolecular_energy": -8.99, "internal_energy": -4.11, "cluster_size": 9, "cluster_id": 10, "rank_in_cluster": 3}

>  <energy>  (78) 
-8.11

>  <cluster_rmsd>  (78) 
1.13

>  <cluster>  (78) 
5

$$$$

     RDKit          3D

 64 68  0  0  1  0  0  0  0  0999 V2000
  139.6810   73.6830  222.6870 O   0  0  0  0  0  0  0  0  0  0  0  0
  140.0410   72.4870  222.4690 C   0  0  0  0  0  0  0  0  0  0  0  0
  140.4510   72.0790  221.1740 N   0  0  0  0  0  0  0  0  0  0  0  0
  140.4720   73.0060  220.0650 C   0  0  0  0  0  0  0  0  0  0  0  0
  141.8380   73.0630  219.4740 C   0  0  0  0  0  0  0  0  0  0  0  0
  142.5940   72.0800  219.6880 O   0  0  0  0  0  0  0  0  0  0  0  0
  142.2270   74.1980  218.7100 N   0  0  0  0  0  0  0  0  0  0  0  0
  141.7700   74.5130  217.3480 C   0  0  0  0  0  0  0  0  0  0  0  0
  142.8550   75.3080  216.7080 C   0  0  2  0  0  0  0  0  0  0  0  0
  143.6680   74.4780  215.9060 O   0  0  0  0  0  0  0  0  0  0  0  0
  143.7000   75.8450  217.8400 C   0  0  0  0  0  0  0  0  0  0  0  0
  143.1220   75.2550  219.0850 C   0  0  1  0  0  0  0  0  0  0  0  0
  142.4420   76.3520  219.8600 C   0  0  1  0  0  0  0  0  0  0  0  0
  141.8140   77.4060  218.9890 C   0  0  0  0  0  0  0  0  0  0  0  0
  141.5730   78.6040  219.8630 C   0  0  0  0  0  0  0  0  0  0  0  0
  140.8650   78.3120  221.1490 C   0  0  2  0  0  0  0  0  0  0  0  0
  141.3660   79.3230  222.1280 C   0  0  0  0  0  0  0  0  0  0  0  0
  141.3080   80.6880  221.8610 C   0  0  0  0  0  0  0  0  0  0  0  0
  141.7760   81.6270  222.7780 C   0  0  0  0  0  0  0  0  0  0  0  0
  142.3120   81.2100  223.9850 C   0  0  0  0  0  0  0  0  0  0  0  0
  142.3570   79.8950  224.2160 N   0  0  0  0  0  0  0  0  0  0  0  0
  141.9110   78.9710  223.3470 C   0  0  0  0  0  0  0  0  0  0  0  0
  141.0750   76.9750  221.7420 C   0  0  0  0  0  0  0  0  0  0  0  0
  141.3500   75.8520  220.7820 C   0  0  0  0  0  0  0  0  0  0  0  0
  140.0330   71.5200  223.5710 C   0  0  0  0  0  0  0  0  0  0  0  0
  139.5320   70.2510  223.3700 C   0  0  0  0  0  0  0  0  0  0  0  0
  139.5520   69.3830  224.4520 C   0  0  0  0  0  0  0  0  0  0  0  0
  140.0490   69.7500  225.6850 C   0  0  0  0  0  0  0  0  0  0  0  0
  140.0760   68.8940  226.7710 C   0  0  0  0  0  0  0  0  0  0  0  0
  140.5810   69.2940  227.9940 C   0  0  0  0  0  0  0  0  0  0  0  0
  140.6180   68.4750  229.0750 F   0  0  0  0  0  0  0  0  0  0  0  0
  141.0770   70.5860  228.1480 C   0  0  0  0  0  0  0  0  0  0  0  0
  141.0490   71.4310  227.0720 C   0  0  0  0  0  0  0  0  0  0  0  0
  140.5440   71.0440  225.8330 C   0  0  0  0  0  0  0  0  0  0  0  0
  140.5180   71.8760  224.7760 N   0  0  0  0  0  0  0  0  0  0  0  0
  140.7370   71.0700  221.0710 H   0  0  0  0  0  0  0  0  0  0  0  0
  139.7571   72.6729  219.2983 H   0  0  0  0  0  0  0  0  0  0  0  0
  140.1929   74.0069  220.4259 H   0  0  0  0  0  0  0  0  0  0  0  0
  141.5948   73.5859  216.7826 H   0  0  0  0  0  0  0  0  0  0  0  0
  140.8247   75.0752  217.3670 H   0  0  0  0  0  0  0  0  0  0  0  0
  142.4334   76.1026  216.0748 H   0  0  0  0  0  0  0  0  0  0  0  0
  143.2870   74.4730  214.9920 H   0  0  0  0  0  0  0  0  0  0  0  0
  144.7481   75.5342  217.7181 H   0  0  0  0  0  0  0  0  0  0  0  0
  143.6927   76.9446  217.8683 H   0  0  0  0  0  0  0  0  0  0  0  0
  143.8950   74.8206  219.7360 H   0  0  0  0  0  0  0  0  0  0  0  0
  143.2688   76.7834  220.4434 H   0  0  0  0  0  0  0  0  0  0  0  0
  140.8618   77.0395  218.5778 H   0  0  0  0  0  0  0  0  0  0  0  0
  142.4688   77.6602  218.1425 H   0  0  0  0  0  0  0  0  0  0  0  0
  140.9669   79.3252  219.2951 H   0  0  0  0  0  0  0  0  0  0  0  0
  142.5654   78.9911  220.1375 H   0  0  0  0  0  0  0  0  0  0  0  0
  139.7886   78.3493  220.9253 H   0  0  0  0  0  0  0  0  0  0  0  0
  140.8839   81.0325  220.9063 H   0  0  0  0  0  0  0  0  0  0  0  0
  141.7197   82.7001  222.5431 H   0  0  0  0  0  0  0  0  0  0  0  0
  142.6860   81.9333  224.7245 H   0  0  0  0  0  0  0  0  0  0  0  0
  141.9822   77.9063  223.6142 H   0  0  0  0  0  0  0  0  0  0  0  0
  140.1694   76.7152  222.3099 H   0  0  0  0  0  0  0  0  0  0  0  0
  141.9858   77.0666  222.3519 H   0  0  0  0  0  0  0  0  0  0  0  0
  140.4443   75.6102  220.2065 H   0  0  0  0  0  0  0  0  0  0  0  0
  141.6546   74.9358  221.3090 H   0  0  0  0  0  0  0  0  0  0  0  0
  139.1334   69.9402  222.3930 H   0  0  0  0  0  0  0  0  0  0  0  0
  139.1570   68.3647  224.3217 H   0  0  0  0  0  0  0  0  0  0  0  0
  139.6867   67.8713  226.6589 H   0  0  0  0  0  0  0  0  0  0  0  0
  141.4828   70.9203  229.1142 H   0  0  0  0  0  0  0  0  0  0  0  0
  141.4394   72.4526  227.1898 H   0  0  0  0  0  0  0  0  0  0  0  0
  1  2  2  0
  2  3  1  0
  3  4  1  0
  4  5  1  0
  5  6  2  0
  5  7  1  0
  7  8  1  0
  8  9  1  0
  9 10  1  0
  9 11  1  0
 11 12  1  0
 12 13  1  0
 13 14  1  0
 14 15  1  0
 15 16  1  0
 16 17  1  0
 17 18  2  0
 18 19  1  0
 19 20  2  0
 20 21  1  0
 21 22  2  0
 16 23  1  0
 23 24  1  0
  2 25  1  0
 25 26  2  0
 26 27  1  0
 27 28  2  0
 28 29  1  0
 29 30  2  0
 30 31  1  0
 30 32  1  0
 32 33  2  0
 33 34  1  0
 34 35  2  0
 12  7  1  0
 24 13  1  0
 35 25  1  0
 22 17  1  0
 34 28  1  0
  3 36  1  0
  4 37  1  0
  4 38  1  0
  8 39  1  0
  8 40  1  0
  9 41  1  6
 10 42  1  0
 11 43  1  0
 11 44  1  0
 12 45  1  1
 13 46  1  1
 14 47  1  0
 14 48  1  0
 15 49  1  0
 15 50  1  0
 16 51  1  6
 18 52  1  0
 19 53  1  0
 20 54  1  0
 22 55  1  0
 23 56  1  0
 23 57  1  0
 24 58  1  0
 24 59  1  0
 26 60  1  0
 27 61  1  0
 29 62  1  0
 32 63  1  0
 33 64  1  0
M  END
>  <smiles>  (79) 
O=C(NCC(=O)N1C[C@H](O)C[C@H]1C1CCC(c2cccnc2)CC1)c1ccc2cc(F)ccc2n1

>  <score_type>  (79) 
oracle

>  <origin>  (79) 
autodockgpu

>  <m_score__min__energy>  (79) 
-10.19

>  <m_primary>  (79) 
energy

>  <rmsd>  (79) 
2.3016805551368256

>  <m_score__min__rmsd>  (79) 
2.3016805551368256

>  <meeko>  (79) 
{"free_energy": -8.83, "intermolecular_energy": -10.92, "internal_energy": -1.84, "cluster_size": 9, "cluster_id": 1, "rank_in_cluster": 6}

>  <energy>  (79) 
-8.1

>  <cluster_rmsd>  (79) 
1.32

>  <cluster>  (79) 
5

$$$$

     RDKit          3D

 64 68  0  0  1  0  0  0  0  0999 V2000
  137.2980   70.0670  222.1380 O   0  0  0  0  0  0  0  0  0  0  0  0
  137.5570   70.5860  223.2660 C   0  0  0  0  0  0  0  0  0  0  0  0
  137.0970   71.8890  223.5860 N   0  0  0  0  0  0  0  0  0  0  0  0
  136.3220   72.6660  222.6430 C   0  0  0  0  0  0  0  0  0  0  0  0
  137.0600   72.7870  221.3550 C   0  0  0  0  0  0  0  0  0  0  0  0
  136.3740   73.0160  220.3250 O   0  0  0  0  0  0  0  0  0  0  0  0
  138.4750   72.6430  221.3380 N   0  0  0  0  0  0  0  0  0  0  0  0
  139.2510   71.9140  220.3240 C   0  0  0  0  0  0  0  0  0  0  0  0
  140.4920   71.4400  220.9970 C   0  0  2  0  0  0  0  0  0  0  0  0
  140.3510   70.0950  221.4010 O   0  0  0  0  0  0  0  0  0  0  0  0
  140.6440   72.2920  222.2360 C   0  0  0  0  0  0  0  0  0  0  0  0
  139.4290   73.1590  222.2770 C   0  0  1  0  0  0  0  0  0  0  0  0
  139.8440   74.5740  221.9730 C   0  0  1  0  0  0  0  0  0  0  0  0
  140.8540   74.6810  220.8620 C   0  0  0  0  0  0  0  0  0  0  0  0
  141.4730   76.0470  220.9690 C   0  0  0  0  0  0  0  0  0  0  0  0
  140.4940   77.1740  221.0740 C   0  0  2  0  0  0  0  0  0  0  0  0
  141.1720   78.2290  221.8850 C   0  0  0  0  0  0  0  0  0  0  0  0
  141.2270   78.1590  223.2740 C   0  0  0  0  0  0  0  0  0  0  0  0
  141.8610   79.1450  224.0250 C   0  0  0  0  0  0  0  0  0  0  0  0
  142.4560   80.2240  223.3930 C   0  0  0  0  0  0  0  0  0  0  0  0
  142.3900   80.2670  222.0590 N   0  0  0  0  0  0  0  0  0  0  0  0
  141.7840   79.3270  221.3140 C   0  0  0  0  0  0  0  0  0  0  0  0
  139.1980   76.8800  221.7190 C   0  0  0  0  0  0  0  0  0  0  0  0
  138.6880   75.4730  221.5880 C   0  0  0  0  0  0  0  0  0  0  0  0
  138.3390   69.8260  224.2460 C   0  0  0  0  0  0  0  0  0  0  0  0
  138.5380   68.4730  224.0670 C   0  0  0  0  0  0  0  0  0  0  0  0
  139.2860   67.8110  225.0280 C   0  0  0  0  0  0  0  0  0  0  0  0
  139.8200   68.4560  226.1240 C   0  0  0  0  0  0  0  0  0  0  0  0
  140.5690   67.8070  227.0890 C   0  0  0  0  0  0  0  0  0  0  0  0
  141.0900   68.4840  228.1750 C   0  0  0  0  0  0  0  0  0  0  0  0
  141.8260   67.8720  229.1370 F   0  0  0  0  0  0  0  0  0  0  0  0
  140.8620   69.8510  228.3120 C   0  0  0  0  0  0  0  0  0  0  0  0
  140.1210   70.4910  227.3560 C   0  0  0  0  0  0  0  0  0  0  0  0
  139.5900   69.8230  226.2550 C   0  0  0  0  0  0  0  0  0  0  0  0
  138.8620   70.4540  225.3160 N   0  0  0  0  0  0  0  0  0  0  0  0
  137.3500   72.2520  224.5420 H   0  0  0  0  0  0  0  0  0  0  0  0
  135.3580   72.1670  222.4651 H   0  0  0  0  0  0  0  0  0  0  0  0
  136.1510   73.6706  223.0571 H   0  0  0  0  0  0  0  0  0  0  0  0
  138.6729   71.0574  219.9471 H   0  0  0  0  0  0  0  0  0  0  0  0
  139.4874   72.5599  219.4656 H   0  0  0  0  0  0  0  0  0  0  0  0
  141.3551   71.5135  220.3190 H   0  0  0  0  0  0  0  0  0  0  0  0
  139.3930   69.9360  221.5960 H   0  0  0  0  0  0  0  0  0  0  0  0
  140.6946   71.6587  223.1340 H   0  0  0  0  0  0  0  0  0  0  0  0
  141.5687   72.8872  222.2104 H   0  0  0  0  0  0  0  0  0  0  0  0
  138.9529   73.1596  223.2686 H   0  0  0  0  0  0  0  0  0  0  0  0
  140.2869   74.9049  222.9240 H   0  0  0  0  0  0  0  0  0  0  0  0
  140.3583   74.5650  219.8869 H   0  0  0  0  0  0  0  0  0  0  0  0
  141.6176   73.8936  220.9451 H   0  0  0  0  0  0  0  0  0  0  0  0
  142.0914   76.2133  220.0746 H   0  0  0  0  0  0  0  0  0  0  0  0
  142.0518   76.0519  221.9044 H   0  0  0  0  0  0  0  0  0  0  0  0
  140.2322   77.4526  220.0426 H   0  0  0  0  0  0  0  0  0  0  0  0
  140.7598   77.3068  223.7891 H   0  0  0  0  0  0  0  0  0  0  0  0
  141.8893   79.0669  225.1219 H   0  0  0  0  0  0  0  0  0  0  0  0
  142.9628   81.0143  223.9663 H   0  0  0  0  0  0  0  0  0  0  0  0
  141.7753   79.4353  220.2194 H   0  0  0  0  0  0  0  0  0  0  0  0
  138.4456   77.5506  221.2783 H   0  0  0  0  0  0  0  0  0  0  0  0
  139.3681   77.0289  222.7955 H   0  0  0  0  0  0  0  0  0  0  0  0
  138.3772   75.2738  220.5518 H   0  0  0  0  0  0  0  0  0  0  0  0
  137.8114   75.3002  222.2297 H   0  0  0  0  0  0  0  0  0  0  0  0
  138.1209   67.9419  223.1987 H   0  0  0  0  0  0  0  0  0  0  0  0
  139.4602   66.7311  224.9123 H   0  0  0  0  0  0  0  0  0  0  0  0
  140.7541   66.7273  226.9896 H   0  0  0  0  0  0  0  0  0  0  0  0
  141.2691   70.4048  229.1708 H   0  0  0  0  0  0  0  0  0  0  0  0
  139.9383   71.5707  227.4606 H   0  0  0  0  0  0  0  0  0  0  0  0
  1  2  2  0
  2  3  1  0
  3  4  1  0
  4  5  1  0
  5  6  2  0
  5  7  1  0
  7  8  1  0
  8  9  1  0
  9 10  1  0
  9 11  1  0
 11 12  1  0
 12 13  1  0
 13 14  1  0
 14 15  1  0
 15 16  1  0
 16 17  1  0
 17 18  2  0
 18 19  1  0
 19 20  2  0
 20 21  1  0
 21 22  2  0
 16 23  1  0
 23 24  1  0
  2 25  1  0
 25 26  2  0
 26 27  1  0
 27 28  2  0
 28 29  1  0
 29 30  2  0
 30 31  1  0
 30 32  1  0
 32 33  2  0
 33 34  1  0
 34 35  2  0
 12  7  1  0
 24 13  1  0
 35 25  1  0
 22 17  1  0
 34 28  1  0
  3 36  1  0
  4 37  1  0
  4 38  1  0
  8 39  1  0
  8 40  1  0
  9 41  1  6
 10 42  1  0
 11 43  1  0
 11 44  1  0
 12 45  1  1
 13 46  1  1
 14 47  1  0
 14 48  1  0
 15 49  1  0
 15 50  1  0
 16 51  1  6
 18 52  1  0
 19 53  1  0
 20 54  1  0
 22 55  1  0
 23 56  1  0
 23 57  1  0
 24 58  1  0
 24 59  1  0
 26 60  1  0
 27 61  1  0
 29 62  1  0
 32 63  1  0
 33 64  1  0
M  END
>  <smiles>  (80) 
O=C(NCC(=O)N1C[C@H](O)C[C@H]1C1CCC(c2cccnc2)CC1)c1ccc2cc(F)ccc2n1

>  <score_type>  (80) 
oracle

>  <origin>  (80) 
autodockgpu

>  <m_score__min__energy>  (80) 
-10.19

>  <m_primary>  (80) 
energy

>  <rmsd>  (80) 
3.3240180819642333

>  <m_score__min__rmsd>  (80) 
3.3240180819642333

>  <meeko>  (80) 
{"free_energy": -8.1, "intermolecular_energy": -10.19, "internal_energy": -3.2, "cluster_size": 15, "cluster_id": 5, "rank_in_cluster": 12}

>  <energy>  (80) 
-8.1

>  <cluster_rmsd>  (80) 
1.07

>  <cluster>  (80) 
5

$$$$

     RDKit          3D

 64 68  0  0  1  0  0  0  0  0999 V2000
  137.9030   70.0520  221.8900 O   0  0  0  0  0  0  0  0  0  0  0  0
  137.9360   70.7360  222.9580 C   0  0  0  0  0  0  0  0  0  0  0  0
  137.2410   71.9680  223.0490 N   0  0  0  0  0  0  0  0  0  0  0  0
  136.4760   72.4860  221.9360 C   0  0  0  0  0  0  0  0  0  0  0  0
  137.2170   73.6010  221.2840 C   0  0  0  0  0  0  0  0  0  0  0  0
  136.5320   74.5610  220.8450 O   0  0  0  0  0  0  0  0  0  0  0  0
  138.6350   73.5410  221.1860 N   0  0  0  0  0  0  0  0  0  0  0  0
  139.3930   73.0010  220.0470 C   0  0  0  0  0  0  0  0  0  0  0  0
  140.6890   72.5110  220.5930 C   0  0  2  0  0  0  0  0  0  0  0  0
  140.6360   71.1180  220.8140 O   0  0  0  0  0  0  0  0  0  0  0  0
  140.8620   73.1950  221.9300 C   0  0  0  0  0  0  0  0  0  0  0  0
  139.6090   73.9790  222.1440 C   0  0  1  0  0  0  0  0  0  0  0  0
  139.9360   75.4430  222.0190 C   0  0  1  0  0  0  0  0  0  0  0  0
  140.6600   75.7940  220.7470 C   0  0  0  0  0  0  0  0  0  0  0  0
  141.2810   77.1450  220.9600 C   0  0  0  0  0  0  0  0  0  0  0  0
  140.3500   78.1890  221.4920 C   0  0  2  0  0  0  0  0  0  0  0  0
  141.1950   79.1120  222.3070 C   0  0  0  0  0  0  0  0  0  0  0  0
  140.6340   80.1300  223.0720 C   0  0  0  0  0  0  0  0  0  0  0  0
  141.4270   80.9880  223.8310 C   0  0  0  0  0  0  0  0  0  0  0  0
  142.8030   80.8390  223.8350 C   0  0  0  0  0  0  0  0  0  0  0  0
  143.3170   79.8540  223.0920 N   0  0  0  0  0  0  0  0  0  0  0  0
  142.5710   79.0140  222.3530 C   0  0  0  0  0  0  0  0  0  0  0  0
  139.2410   77.7240  222.3500 C   0  0  0  0  0  0  0  0  0  0  0  0
  138.7190   76.3410  222.0810 C   0  0  0  0  0  0  0  0  0  0  0  0
  138.7010   70.2410  224.1060 C   0  0  0  0  0  0  0  0  0  0  0  0
  138.8570   68.8840  224.2960 C   0  0  0  0  0  0  0  0  0  0  0  0
  139.5910   68.4790  225.4010 C   0  0  0  0  0  0  0  0  0  0  0  0
  140.1520   69.3770  226.2850 C   0  0  0  0  0  0  0  0  0  0  0  0
  140.8870   68.9860  227.3900 C   0  0  0  0  0  0  0  0  0  0  0  0
  141.4360   69.9120  228.2560 C   0  0  0  0  0  0  0  0  0  0  0  0
  142.1600   69.5560  229.3470 F   0  0  0  0  0  0  0  0  0  0  0  0
  141.2520   71.2720  228.0220 C   0  0  0  0  0  0  0  0  0  0  0  0
  140.5250   71.6560  226.9280 C   0  0  0  0  0  0  0  0  0  0  0  0
  139.9650   70.7360  226.0450 C   0  0  0  0  0  0  0  0  0  0  0  0
  139.2500   71.1150  224.9710 N   0  0  0  0  0  0  0  0  0  0  0  0
  137.3140   72.4790  223.9690 H   0  0  0  0  0  0  0  0  0  0  0  0
  136.3086   71.6825  221.2037 H   0  0  0  0  0  0  0  0  0  0  0  0
  135.5102   72.8614  222.3052 H   0  0  0  0  0  0  0  0  0  0  0  0
  138.8396   72.1722  219.5814 H   0  0  0  0  0  0  0  0  0  0  0  0
  139.5522   73.7694  219.2761 H   0  0  0  0  0  0  0  0  0  0  0  0
  141.5113   72.7240  219.8941 H   0  0  0  0  0  0  0  0  0  0  0  0
  139.6940   70.8770  221.0040 H   0  0  0  0  0  0  0  0  0  0  0  0
  140.9901   72.4499  222.7290 H   0  0  0  0  0  0  0  0  0  0  0  0
  141.7534   73.8393  221.9457 H   0  0  0  0  0  0  0  0  0  0  0  0
  139.1858   73.8194  223.1467 H   0  0  0  0  0  0  0  0  0  0  0  0
  140.5870   75.6191  222.8880 H   0  0  0  0  0  0  0  0  0  0  0  0
  139.9519   75.8310  219.9060 H   0  0  0  0  0  0  0  0  0  0  0  0
  141.4253   75.0410  220.5077 H   0  0  0  0  0  0  0  0  0  0  0  0
  141.6734   77.4969  219.9945 H   0  0  0  0  0  0  0  0  0  0  0  0
  142.0613   77.0093  221.7234 H   0  0  0  0  0  0  0  0  0  0  0  0
  139.8543   78.6361  220.6177 H   0  0  0  0  0  0  0  0  0  0  0  0
  139.5417   80.2600  223.0776 H   0  0  0  0  0  0  0  0  0  0  0  0
  140.9590   81.7848  224.4277 H   0  0  0  0  0  0  0  0  0  0  0  0
  143.4483   81.5051  224.4265 H   0  0  0  0  0  0  0  0  0  0  0  0
  143.0711   78.2272  221.7691 H   0  0  0  0  0  0  0  0  0  0  0  0
  138.4043   78.4271  222.2248 H   0  0  0  0  0  0  0  0  0  0  0  0
  139.6571   77.6850  223.3675 H   0  0  0  0  0  0  0  0  0  0  0  0
  138.1761   76.3163  221.1246 H   0  0  0  0  0  0  0  0  0  0  0  0
  138.0163   76.0155  222.8622 H   0  0  0  0  0  0  0  0  0  0  0  0
  138.4178   68.1536  223.6005 H   0  0  0  0  0  0  0  0  0  0  0  0
  139.7308   67.4025  225.5788 H   0  0  0  0  0  0  0  0  0  0  0  0
  141.0377   67.9137  227.5834 H   0  0  0  0  0  0  0  0  0  0  0  0
  141.6819   72.0221  228.7021 H   0  0  0  0  0  0  0  0  0  0  0  0
  140.3777   72.7296  226.7393 H   0  0  0  0  0  0  0  0  0  0  0  0
  1  2  2  0
  2  3  1  0
  3  4  1  0
  4  5  1  0
  5  6  2  0
  5  7  1  0
  7  8  1  0
  8  9  1  0
  9 10  1  0
  9 11  1  0
 11 12  1  0
 12 13  1  0
 13 14  1  0
 14 15  1  0
 15 16  1  0
 16 17  1  0
 17 18  2  0
 18 19  1  0
 19 20  2  0
 20 21  1  0
 21 22  2  0
 16 23  1  0
 23 24  1  0
  2 25  1  0
 25 26  2  0
 26 27  1  0
 27 28  2  0
 28 29  1  0
 29 30  2  0
 30 31  1  0
 30 32  1  0
 32 33  2  0
 33 34  1  0
 34 35  2  0
 12  7  1  0
 24 13  1  0
 35 25  1  0
 22 17  1  0
 34 28  1  0
  3 36  1  0
  4 37  1  0
  4 38  1  0
  8 39  1  0
  8 40  1  0
  9 41  1  6
 10 42  1  0
 11 43  1  0
 11 44  1  0
 12 45  1  1
 13 46  1  1
 14 47  1  0
 14 48  1  0
 15 49  1  0
 15 50  1  0
 16 51  1  6
 18 52  1  0
 19 53  1  0
 20 54  1  0
 22 55  1  0
 23 56  1  0
 23 57  1  0
 24 58  1  0
 24 59  1  0
 26 60  1  0
 27 61  1  0
 29 62  1  0
 32 63  1  0
 33 64  1  0
M  END
>  <smiles>  (81) 
O=C(NCC(=O)N1C[C@H](O)C[C@H]1C1CCC(c2cccnc2)CC1)c1ccc2cc(F)ccc2n1

>  <score_type>  (81) 
oracle

>  <origin>  (81) 
autodockgpu

>  <m_score__min__energy>  (81) 
-10.19

>  <m_primary>  (81) 
energy

>  <rmsd>  (81) 
2.7925633559608434

>  <m_score__min__rmsd>  (81) 
2.7925633559608434

>  <meeko>  (81) 
{"free_energy": -8.13, "intermolecular_energy": -10.22, "internal_energy": -3.12, "cluster_size": 15, "cluster_id": 5, "rank_in_cluster": 8}

>  <energy>  (81) 
-8.09

>  <cluster_rmsd>  (81) 
1.01

>  <cluster>  (81) 
5

$$$$

     RDKit          3D

 64 68  0  0  1  0  0  0  0  0999 V2000
  139.3980   73.0990  222.3040 O   0  0  0  0  0  0  0  0  0  0  0  0
  139.9330   71.9500  222.2620 C   0  0  0  0  0  0  0  0  0  0  0  0
  140.5800   71.4970  221.0840 N   0  0  0  0  0  0  0  0  0  0  0  0
  140.6510   72.3220  219.8980 C   0  0  0  0  0  0  0  0  0  0  0  0
  141.9370   72.0800  219.1860 C   0  0  0  0  0  0  0  0  0  0  0  0
  141.9440   71.1750  218.3120 O   0  0  0  0  0  0  0  0  0  0  0  0
  143.0800   72.8630  219.5130 N   0  0  0  0  0  0  0  0  0  0  0  0
  144.2130   73.1410  218.6190 C   0  0  0  0  0  0  0  0  0  0  0  0
  145.4000   73.3630  219.4910 C   0  0  2  0  0  0  0  0  0  0  0  0
  146.1690   72.1830  219.5860 O   0  0  0  0  0  0  0  0  0  0  0  0
  144.8520   73.6810  220.8640 C   0  0  0  0  0  0  0  0  0  0  0  0
  143.3710   73.5340  220.7480 C   0  0  1  0  0  0  0  0  0  0  0  0
  142.7490   74.9020  220.8320 C   0  0  1  0  0  0  0  0  0  0  0  0
  142.7640   75.6540  219.5280 C   0  0  0  0  0  0  0  0  0  0  0  0
  142.5250   77.1000  219.8580 C   0  0  0  0  0  0  0  0  0  0  0  0
  141.3480   77.3560  220.7470 C   0  0  2  0  0  0  0  0  0  0  0  0
  141.6890   78.5790  221.5330 C   0  0  0  0  0  0  0  0  0  0  0  0
  141.8130   78.5440  222.9190 C   0  0  0  0  0  0  0  0  0  0  0  0
  142.1330   79.6870  223.6480 C   0  0  0  0  0  0  0  0  0  0  0  0
  142.3350   80.8920  222.9950 C   0  0  0  0  0  0  0  0  0  0  0  0
  142.2100   80.8980  221.6640 N   0  0  0  0  0  0  0  0  0  0  0  0
  141.9030   79.8080  220.9410 C   0  0  0  0  0  0  0  0  0  0  0  0
  140.9890   76.2930  221.7070 C   0  0  0  0  0  0  0  0  0  0  0  0
  141.3080   74.8830  221.2980 C   0  0  0  0  0  0  0  0  0  0  0  0
  139.8800   71.0870  223.4450 C   0  0  0  0  0  0  0  0  0  0  0  0
  139.2300   69.8730  223.3830 C   0  0  0  0  0  0  0  0  0  0  0  0
  139.2160   69.1020  224.5360 C   0  0  0  0  0  0  0  0  0  0  0  0
  139.8190   69.5110  225.7060 C   0  0  0  0  0  0  0  0  0  0  0  0
  139.8130   68.7520  226.8630 C   0  0  0  0  0  0  0  0  0  0  0  0
  140.4280   69.1920  228.0190 C   0  0  0  0  0  0  0  0  0  0  0  0
  140.4350   68.4680  229.1670 F   0  0  0  0  0  0  0  0  0  0  0  0
  141.0730   70.4260  228.0330 C   0  0  0  0  0  0  0  0  0  0  0  0
  141.0780   71.1750  226.8880 C   0  0  0  0  0  0  0  0  0  0  0  0
  140.4630   70.7460  225.7140 C   0  0  0  0  0  0  0  0  0  0  0  0
  140.4700   71.4840  224.5890 N   0  0  0  0  0  0  0  0  0  0  0  0
  141.0010   70.5310  221.1250 H   0  0  0  0  0  0  0  0  0  0  0  0
  139.8126   72.0736  219.2306 H   0  0  0  0  0  0  0  0  0  0  0  0
  140.5936   73.3809  220.1904 H   0  0  0  0  0  0  0  0  0  0  0  0
  144.3879   72.2849  217.9508 H   0  0  0  0  0  0  0  0  0  0  0  0
  144.0141   74.0205  217.9890 H   0  0  0  0  0  0  0  0  0  0  0  0
  146.0360   74.1647  219.0875 H   0  0  0  0  0  0  0  0  0  0  0  0
  145.9990   71.7810  220.4750 H   0  0  0  0  0  0  0  0  0  0  0  0
  145.2507   72.9770  221.6093 H   0  0  0  0  0  0  0  0  0  0  0  0
  145.1366   74.6916  221.1923 H   0  0  0  0  0  0  0  0  0  0  0  0
  142.9491   72.9283  221.5635 H   0  0  0  0  0  0  0  0  0  0  0  0
  143.3850   75.4101  221.5718 H   0  0  0  0  0  0  0  0  0  0  0  0
  141.9689   75.2802  218.8661 H   0  0  0  0  0  0  0  0  0  0  0  0
  143.7237   75.5215  219.0070 H   0  0  0  0  0  0  0  0  0  0  0  0
  142.3663   77.6442  218.9153 H   0  0  0  0  0  0  0  0  0  0  0  0
  143.4115   77.4411  220.4129 H   0  0  0  0  0  0  0  0  0  0  0  0
  140.4727   77.4376  220.0858 H   0  0  0  0  0  0  0  0  0  0  0  0
  141.6550   77.5936  223.4498 H   0  0  0  0  0  0  0  0  0  0  0  0
  142.2253   79.6328  224.7428 H   0  0  0  0  0  0  0  0  0  0  0  0
  142.5882   81.8075  223.5497 H   0  0  0  0  0  0  0  0  0  0  0  0
  141.8199   79.8970  219.8478 H   0  0  0  0  0  0  0  0  0  0  0  0
  139.9046   76.3529  221.8814 H   0  0  0  0  0  0  0  0  0  0  0  0
  141.6069   76.4843  222.5968 H   0  0  0  0  0  0  0  0  0  0  0  0
  140.6456   74.5626  220.4803 H   0  0  0  0  0  0  0  0  0  0  0  0
  141.1618   74.1783  222.1298 H   0  0  0  0  0  0  0  0  0  0  0  0
  138.7430   69.5301  222.4582 H   0  0  0  0  0  0  0  0  0  0  0  0
  138.7048   68.1282  224.5159 H   0  0  0  0  0  0  0  0  0  0  0  0
  139.3067   67.7755  226.8622 H   0  0  0  0  0  0  0  0  0  0  0  0
  141.5679   70.7909  228.9451 H   0  0  0  0  0  0  0  0  0  0  0  0
  141.5858   72.1508  226.8947 H   0  0  0  0  0  0  0  0  0  0  0  0
  1  2  2  0
  2  3  1  0
  3  4  1  0
  4  5  1  0
  5  6  2  0
  5  7  1  0
  7  8  1  0
  8  9  1  0
  9 10  1  0
  9 11  1  0
 11 12  1  0
 12 13  1  0
 13 14  1  0
 14 15  1  0
 15 16  1  0
 16 17  1  0
 17 18  2  0
 18 19  1  0
 19 20  2  0
 20 21  1  0
 21 22  2  0
 16 23  1  0
 23 24  1  0
  2 25  1  0
 25 26  2  0
 26 27  1  0
 27 28  2  0
 28 29  1  0
 29 30  2  0
 30 31  1  0
 30 32  1  0
 32 33  2  0
 33 34  1  0
 34 35  2  0
 12  7  1  0
 24 13  1  0
 35 25  1  0
 22 17  1  0
 34 28  1  0
  3 36  1  0
  4 37  1  0
  4 38  1  0
  8 39  1  0
  8 40  1  0
  9 41  1  6
 10 42  1  0
 11 43  1  0
 11 44  1  0
 12 45  1  1
 13 46  1  1
 14 47  1  0
 14 48  1  0
 15 49  1  0
 15 50  1  0
 16 51  1  6
 18 52  1  0
 19 53  1  0
 20 54  1  0
 22 55  1  0
 23 56  1  0
 23 57  1  0
 24 58  1  0
 24 59  1  0
 26 60  1  0
 27 61  1  0
 29 62  1  0
 32 63  1  0
 33 64  1  0
M  END
>  <smiles>  (82) 
O=C(NCC(=O)N1C[C@H](O)C[C@H]1C1CCC(c2cccnc2)CC1)c1ccc2cc(F)ccc2n1

>  <score_type>  (82) 
oracle

>  <origin>  (82) 
autodockgpu

>  <m_score__min__energy>  (82) 
-10.19

>  <m_primary>  (82) 
energy

>  <rmsd>  (82) 
3.530958211162118

>  <m_score__min__rmsd>  (82) 
3.530958211162118

>  <meeko>  (82) 
{"free_energy": -9.96, "intermolecular_energy": -12.04, "internal_energy": -1.7, "cluster_size": 9, "cluster_id": 1, "rank_in_cluster": 2}

>  <energy>  (82) 
-8.08

>  <cluster_rmsd>  (82) 
0.89

>  <cluster>  (82) 
5

$$$$

     RDKit          3D

 64 68  0  0  1  0  0  0  0  0999 V2000
  137.8820   75.5520  221.8190 O   0  0  0  0  0  0  0  0  0  0  0  0
  139.0970   75.8020  222.0820 C   0  0  0  0  0  0  0  0  0  0  0  0
  140.0810   74.7870  221.9820 N   0  0  0  0  0  0  0  0  0  0  0  0
  139.7370   73.4410  221.5800 C   0  0  0  0  0  0  0  0  0  0  0  0
  140.9370   72.5620  221.6650 C   0  0  0  0  0  0  0  0  0  0  0  0
  140.9200   71.6560  222.5390 O   0  0  0  0  0  0  0  0  0  0  0  0
  142.0280   72.7730  220.7770 N   0  0  0  0  0  0  0  0  0  0  0  0
  142.3490   71.9500  219.6010 C   0  0  0  0  0  0  0  0  0  0  0  0
  143.8190   72.0620  219.3920 C   0  0  2  0  0  0  0  0  0  0  0  0
  144.4840   70.9530  219.9590 O   0  0  0  0  0  0  0  0  0  0  0  0
  144.2510   73.3040  220.1370 C   0  0  0  0  0  0  0  0  0  0  0  0
  143.0250   73.8040  220.8270 C   0  0  1  0  0  0  0  0  0  0  0  0
  142.5870   75.0770  220.1550 C   0  0  1  0  0  0  0  0  0  0  0  0
  143.6650   75.7260  219.3280 C   0  0  0  0  0  0  0  0  0  0  0  0
  143.2360   77.1460  219.0940 C   0  0  0  0  0  0  0  0  0  0  0  0
  141.8370   77.3050  218.5860 C   0  0  2  0  0  0  0  0  0  0  0  0
  141.3580   78.6180  219.1140 C   0  0  0  0  0  0  0  0  0  0  0  0
  142.2000   79.7230  219.1920 C   0  0  0  0  0  0  0  0  0  0  0  0
  141.7490   80.9460  219.6850 C   0  0  0  0  0  0  0  0  0  0  0  0
  140.4380   81.0810  220.1100 C   0  0  0  0  0  0  0  0  0  0  0  0
  139.6500   80.0040  220.0240 N   0  0  0  0  0  0  0  0  0  0  0  0
  140.0640   78.8160  219.5520 C   0  0  0  0  0  0  0  0  0  0  0  0
  140.8550   76.2770  218.9890 C   0  0  0  0  0  0  0  0  0  0  0  0
  141.3940   74.8980  219.2400 C   0  0  0  0  0  0  0  0  0  0  0  0
  139.4810   77.1560  222.4910 C   0  0  0  0  0  0  0  0  0  0  0  0
  138.5090   78.0940  222.7670 C   0  0  0  0  0  0  0  0  0  0  0  0
  138.9370   79.3570  223.1490 C   0  0  0  0  0  0  0  0  0  0  0  0
  140.2720   79.6830  223.2580 C   0  0  0  0  0  0  0  0  0  0  0  0
  140.7120   80.9380  223.6390 C   0  0  0  0  0  0  0  0  0  0  0  0
  142.0590   81.2320  223.7380 C   0  0  0  0  0  0  0  0  0  0  0  0
  142.5170   82.4550  224.1080 F   0  0  0  0  0  0  0  0  0  0  0  0
  143.0040   80.2510  223.4500 C   0  0  0  0  0  0  0  0  0  0  0  0
  142.5660   79.0100  223.0740 C   0  0  0  0  0  0  0  0  0  0  0  0
  141.2130   78.6970  222.9690 C   0  0  0  0  0  0  0  0  0  0  0  0
  140.7840   77.4770  222.5990 N   0  0  0  0  0  0  0  0  0  0  0  0
  141.0700   75.0700  222.2160 H   0  0  0  0  0  0  0  0  0  0  0  0
  138.9521   73.0515  222.2450 H   0  0  0  0  0  0  0  0  0  0  0  0
  139.3728   73.4558  220.5422 H   0  0  0  0  0  0  0  0  0  0  0  0
  142.0704   70.9017  219.7839 H   0  0  0  0  0  0  0  0  0  0  0  0
  141.7950   72.2919  218.7143 H   0  0  0  0  0  0  0  0  0  0  0  0
  144.0579   72.1023  218.3190 H   0  0  0  0  0  0  0  0  0  0  0  0
  144.5720   71.1180  220.9320 H   0  0  0  0  0  0  0  0  0  0  0  0
  145.0323   73.0591  220.8715 H   0  0  0  0  0  0  0  0  0  0  0  0
  144.6735   74.0598  219.4585 H   0  0  0  0  0  0  0  0  0  0  0  0
  143.2098   74.0366  221.8861 H   0  0  0  0  0  0  0  0  0  0  0  0
  142.3228   75.7200  221.0075 H   0  0  0  0  0  0  0  0  0  0  0  0
  143.7741   75.2002  218.3680 H   0  0  0  0  0  0  0  0  0  0  0  0
  144.6358   75.6867  219.8437 H   0  0  0  0  0  0  0  0  0  0  0  0
  143.9200   77.5929  218.3575 H   0  0  0  0  0  0  0  0  0  0  0  0
  143.2672   77.6438  220.0744 H   0  0  0  0  0  0  0  0  0  0  0  0
  141.8943   77.2178  217.4910 H   0  0  0  0  0  0  0  0  0  0  0  0
  143.2437   79.6293  218.8575 H   0  0  0  0  0  0  0  0  0  0  0  0
  142.4348   81.8045  219.7365 H   0  0  0  0  0  0  0  0  0  0  0  0
  140.0598   82.0363  220.5028 H   0  0  0  0  0  0  0  0  0  0  0  0
  139.3522   77.9782  219.5136 H   0  0  0  0  0  0  0  0  0  0  0  0
  140.1029   76.2016  218.1898 H   0  0  0  0  0  0  0  0  0  0  0  0
  140.4594   76.6160  219.9578 H   0  0  0  0  0  0  0  0  0  0  0  0
  141.7046   74.4308  218.2938 H   0  0  0  0  0  0  0  0  0  0  0  0
  140.6337   74.2441  219.6921 H   0  0  0  0  0  0  0  0  0  0  0  0
  137.4391   77.8511  222.6876 H   0  0  0  0  0  0  0  0  0  0  0  0
  138.1836   80.1265  223.3731 H   0  0  0  0  0  0  0  0  0  0  0  0
  139.9730   81.7198  223.8684 H   0  0  0  0  0  0  0  0  0  0  0  0
  144.0798   80.4687  223.5231 H   0  0  0  0  0  0  0  0  0  0  0  0
  143.3094   78.2318  222.8466 H   0  0  0  0  0  0  0  0  0  0  0  0
  1  2  2  0
  2  3  1  0
  3  4  1  0
  4  5  1  0
  5  6  2  0
  5  7  1  0
  7  8  1  0
  8  9  1  0
  9 10  1  0
  9 11  1  0
 11 12  1  0
 12 13  1  0
 13 14  1  0
 14 15  1  0
 15 16  1  0
 16 17  1  0
 17 18  2  0
 18 19  1  0
 19 20  2  0
 20 21  1  0
 21 22  2  0
 16 23  1  0
 23 24  1  0
  2 25  1  0
 25 26  2  0
 26 27  1  0
 27 28  2  0
 28 29  1  0
 29 30  2  0
 30 31  1  0
 30 32  1  0
 32 33  2  0
 33 34  1  0
 34 35  2  0
 12  7  1  0
 24 13  1  0
 35 25  1  0
 22 17  1  0
 34 28  1  0
  3 36  1  0
  4 37  1  0
  4 38  1  0
  8 39  1  0
  8 40  1  0
  9 41  1  6
 10 42  1  0
 11 43  1  0
 11 44  1  0
 12 45  1  1
 13 46  1  1
 14 47  1  0
 14 48  1  0
 15 49  1  0
 15 50  1  0
 16 51  1  6
 18 52  1  0
 19 53  1  0
 20 54  1  0
 22 55  1  0
 23 56  1  0
 23 57  1  0
 24 58  1  0
 24 59  1  0
 26 60  1  0
 27 61  1  0
 29 62  1  0
 32 63  1  0
 33 64  1  0
M  END
>  <smiles>  (83) 
O=C(NCC(=O)N1C[C@H](O)C[C@H]1C1CCC(c2cccnc2)CC1)c1ccc2cc(F)ccc2n1

>  <score_type>  (83) 
oracle

>  <origin>  (83) 
autodockgpu

>  <m_score__min__energy>  (83) 
-10.19

>  <m_primary>  (83) 
energy

>  <rmsd>  (83) 
7.747842815352788

>  <m_score__min__rmsd>  (83) 
7.747842815352788

>  <meeko>  (83) 
{"free_energy": -6.8, "intermolecular_energy": -8.89, "internal_energy": -4.11, "cluster_size": 9, "cluster_id": 10, "rank_in_cluster": 9}

>  <energy>  (83) 
-8.3

>  <cluster_rmsd>  (83) 
0.0

>  <cluster>  (83) 
6

$$$$

     RDKit          3D

 64 68  0  0  1  0  0  0  0  0999 V2000
  141.7530   77.2620  217.4660 O   0  0  0  0  0  0  0  0  0  0  0  0
  141.5700   77.0650  218.7050 C   0  0  0  0  0  0  0  0  0  0  0  0
  141.2170   75.7790  219.1870 N   0  0  0  0  0  0  0  0  0  0  0  0
  141.0540   74.6560  218.2900 C   0  0  0  0  0  0  0  0  0  0  0  0
  142.3830   74.0710  217.9600 C   0  0  0  0  0  0  0  0  0  0  0  0
  142.7410   74.1120  216.7540 O   0  0  0  0  0  0  0  0  0  0  0  0
  143.1780   73.5030  218.9950 N   0  0  0  0  0  0  0  0  0  0  0  0
  144.1860   74.2170  219.7920 C   0  0  0  0  0  0  0  0  0  0  0  0
  145.1900   73.2030  220.2170 C   0  0  2  0  0  0  0  0  0  0  0  0
  146.3100   73.2260  219.3570 O   0  0  0  0  0  0  0  0  0  0  0  0
  144.5110   71.8600  220.0720 C   0  0  0  0  0  0  0  0  0  0  0  0
  143.1730   72.1510  219.4760 C   0  0  1  0  0  0  0  0  0  0  0  0
  142.1210   71.9060  220.5240 C   0  0  1  0  0  0  0  0  0  0  0  0
  141.4580   73.1640  221.0200 C   0  0  0  0  0  0  0  0  0  0  0  0
  140.7820   72.8150  222.3160 C   0  0  0  0  0  0  0  0  0  0  0  0
  139.9160   71.5960  222.2660 C   0  0  2  0  0  0  0  0  0  0  0  0
  139.9680   71.0030  223.6350 C   0  0  0  0  0  0  0  0  0  0  0  0
  140.6910   71.6030  224.6630 C   0  0  0  0  0  0  0  0  0  0  0  0
  140.7360   71.0450  225.9390 C   0  0  0  0  0  0  0  0  0  0  0  0
  140.0530   69.8710  226.2080 C   0  0  0  0  0  0  0  0  0  0  0  0
  139.3660   69.3160  225.2040 N   0  0  0  0  0  0  0  0  0  0  0  0
  139.3080   69.8360  223.9660 C   0  0  0  0  0  0  0  0  0  0  0  0
  140.2990   70.5400  221.3070 C   0  0  0  0  0  0  0  0  0  0  0  0
  141.0080   70.9900  220.0610 C   0  0  0  0  0  0  0  0  0  0  0  0
  141.7270   78.1800  219.6430 C   0  0  0  0  0  0  0  0  0  0  0  0
  141.9030   79.4610  219.1650 C   0  0  0  0  0  0  0  0  0  0  0  0
  142.0460   80.4730  220.1030 C   0  0  0  0  0  0  0  0  0  0  0  0
  142.0160   80.2320  221.4600 C   0  0  0  0  0  0  0  0  0  0  0  0
  142.1560   81.2320  222.4060 C   0  0  0  0  0  0  0  0  0  0  0  0
  142.1210   80.9560  223.7590 C   0  0  0  0  0  0  0  0  0  0  0  0
  142.2570   81.9180  224.7070 F   0  0  0  0  0  0  0  0  0  0  0  0
  141.9400   79.6460  224.1940 C   0  0  0  0  0  0  0  0  0  0  0  0
  141.8010   78.6580  223.2570 C   0  0  0  0  0  0  0  0  0  0  0  0
  141.8340   78.9190  221.8880 C   0  0  0  0  0  0  0  0  0  0  0  0
  141.6970   77.9480  220.9690 N   0  0  0  0  0  0  0  0  0  0  0  0
  141.0820   75.6920  220.2290 H   0  0  0  0  0  0  0  0  0  0  0  0
  140.4292   73.8909  218.7739 H   0  0  0  0  0  0  0  0  0  0  0  0
  140.5711   75.0007  217.3637 H   0  0  0  0  0  0  0  0  0  0  0  0
  144.6681   74.9965  219.1837 H   0  0  0  0  0  0  0  0  0  0  0  0
  143.7272   74.7093  220.6621 H   0  0  0  0  0  0  0  0  0  0  0  0
  145.5325   73.4010  221.2434 H   0  0  0  0  0  0  0  0  0  0  0  0
  146.3710   74.1330  218.9640 H   0  0  0  0  0  0  0  0  0  0  0  0
  145.0934   71.2046  219.4077 H   0  0  0  0  0  0  0  0  0  0  0  0
  144.4231   71.3410  221.0379 H   0  0  0  0  0  0  0  0  0  0  0  0
  142.9480   71.4947  218.6224 H   0  0  0  0  0  0  0  0  0  0  0  0
  142.6948   71.4326  221.3344 H   0  0  0  0  0  0  0  0  0  0  0  0
  140.7157   73.5150  220.2880 H   0  0  0  0  0  0  0  0  0  0  0  0
  142.1941   73.9689  221.1624 H   0  0  0  0  0  0  0  0  0  0  0  0
  140.1548   73.6678  222.6148 H   0  0  0  0  0  0  0  0  0  0  0  0
  141.5858   72.5934  223.0335 H   0  0  0  0  0  0  0  0  0  0  0  0
  138.9262   71.9332  221.9245 H   0  0  0  0  0  0  0  0  0  0  0  0
  141.2377   72.5365  224.4636 H   0  0  0  0  0  0  0  0  0  0  0  0
  141.3150   71.5379  226.7338 H   0  0  0  0  0  0  0  0  0  0  0  0
  140.0747   69.4131  227.2079 H   0  0  0  0  0  0  0  0  0  0  0  0
  138.7186   69.3178  223.1953 H   0  0  0  0  0  0  0  0  0  0  0  0
  139.3803   70.0193  220.9990 H   0  0  0  0  0  0  0  0  0  0  0  0
  141.0242   69.9098  221.8427 H   0  0  0  0  0  0  0  0  0  0  0  0
  140.3150   71.5331  219.4016 H   0  0  0  0  0  0  0  0  0  0  0  0
  141.3997   70.1361  219.4888 H   0  0  0  0  0  0  0  0  0  0  0  0
  141.9289   79.6717  218.0857 H   0  0  0  0  0  0  0  0  0  0  0  0
  142.1885   81.5054  219.7511 H   0  0  0  0  0  0  0  0  0  0  0  0
  142.2985   82.2707  222.0730 H   0  0  0  0  0  0  0  0  0  0  0  0
  141.9094   79.4099  225.2679 H   0  0  0  0  0  0  0  0  0  0  0  0
  141.6582   77.6214  223.5962 H   0  0  0  0  0  0  0  0  0  0  0  0
  1  2  2  0
  2  3  1  0
  3  4  1  0
  4  5  1  0
  5  6  2  0
  5  7  1  0
  7  8  1  0
  8  9  1  0
  9 10  1  0
  9 11  1  0
 11 12  1  0
 12 13  1  0
 13 14  1  0
 14 15  1  0
 15 16  1  0
 16 17  1  0
 17 18  2  0
 18 19  1  0
 19 20  2  0
 20 21  1  0
 21 22  2  0
 16 23  1  0
 23 24  1  0
  2 25  1  0
 25 26  2  0
 26 27  1  0
 27 28  2  0
 28 29  1  0
 29 30  2  0
 30 31  1  0
 30 32  1  0
 32 33  2  0
 33 34  1  0
 34 35  2  0
 12  7  1  0
 24 13  1  0
 35 25  1  0
 22 17  1  0
 34 28  1  0
  3 36  1  0
  4 37  1  0
  4 38  1  0
  8 39  1  0
  8 40  1  0
  9 41  1  1
 10 42  1  0
 11 43  1  0
 11 44  1  0
 12 45  1  6
 13 46  1  1
 14 47  1  0
 14 48  1  0
 15 49  1  0
 15 50  1  0
 16 51  1  6
 18 52  1  0
 19 53  1  0
 20 54  1  0
 22 55  1  0
 23 56  1  0
 23 57  1  0
 24 58  1  0
 24 59  1  0
 26 60  1  0
 27 61  1  0
 29 62  1  0
 32 63  1  0
 33 64  1  0
M  END
>  <smiles>  (84) 
O=C(NCC(=O)N1C[C@H](O)C[C@H]1C1CCC(c2cccnc2)CC1)c1ccc2cc(F)ccc2n1

>  <score_type>  (84) 
oracle

>  <origin>  (84) 
autodockgpu

>  <m_score__min__energy>  (84) 
-10.19

>  <m_primary>  (84) 
energy

>  <rmsd>  (84) 
8.746249468836194

>  <m_score__min__rmsd>  (84) 
8.746249468836194

>  <meeko>  (84) 
{"free_energy": -8.3, "intermolecular_energy": -10.39, "internal_energy": -2.21, "cluster_size": 2, "cluster_id": 6, "rank_in_cluster": 1}

>  <energy>  (84) 
-8.19

>  <cluster_rmsd>  (84) 
0.46

>  <cluster>  (84) 
6

$$$$

     RDKit          3D

 64 68  0  0  1  0  0  0  0  0999 V2000
  139.7900   71.9850  221.5660 O   0  0  0  0  0  0  0  0  0  0  0  0
  139.0430   71.9340  222.5890 C   0  0  0  0  0  0  0  0  0  0  0  0
  137.8760   72.7350  222.6730 N   0  0  0  0  0  0  0  0  0  0  0  0
  137.5000   73.6330  221.6030 C   0  0  0  0  0  0  0  0  0  0  0  0
  138.0330   74.9970  221.8720 C   0  0  0  0  0  0  0  0  0  0  0  0
  137.3310   75.7530  222.5920 O   0  0  0  0  0  0  0  0  0  0  0  0
  139.2860   75.3840  221.3190 N   0  0  0  0  0  0  0  0  0  0  0  0
  139.6510   75.3220  219.8950 C   0  0  0  0  0  0  0  0  0  0  0  0
  141.1290   75.1480  219.8420 C   0  0  2  0  0  0  0  0  0  0  0  0
  141.4590   73.7870  219.6630 O   0  0  0  0  0  0  0  0  0  0  0  0
  141.6470   75.5860  221.1930 C   0  0  0  0  0  0  0  0  0  0  0  0
  140.4350   75.9030  222.0040 C   0  0  1  0  0  0  0  0  0  0  0  0
  140.3730   77.3940  222.2040 C   0  0  1  0  0  0  0  0  0  0  0  0
  139.0520   77.8760  222.7410 C   0  0  0  0  0  0  0  0  0  0  0  0
  138.9920   79.3550  222.4800 C   0  0  0  0  0  0  0  0  0  0  0  0
  140.1980   80.1220  222.9250 C   0  0  2  0  0  0  0  0  0  0  0  0
  140.3140   81.2770  221.9870 C   0  0  0  0  0  0  0  0  0  0  0  0
  141.3580   81.3690  221.0700 C   0  0  0  0  0  0  0  0  0  0  0  0
  141.4620   82.4490  220.1960 C   0  0  0  0  0  0  0  0  0  0  0  0
  140.5160   83.4600  220.2260 C   0  0  0  0  0  0  0  0  0  0  0  0
  139.5250   83.3480  221.1160 N   0  0  0  0  0  0  0  0  0  0  0  0
  139.4040   82.3150  221.9680 C   0  0  0  0  0  0  0  0  0  0  0  0
  141.4890   79.4060  222.9150 C   0  0  0  0  0  0  0  0  0  0  0  0
  141.4350   77.9220  223.1450 C   0  0  0  0  0  0  0  0  0  0  0  0
  139.3930   71.0350  223.6920 C   0  0  0  0  0  0  0  0  0  0  0  0
  139.2070   69.6750  223.5570 C   0  0  0  0  0  0  0  0  0  0  0  0
  139.5570   68.8770  224.6360 C   0  0  0  0  0  0  0  0  0  0  0  0
  140.0720   69.3980  225.8040 C   0  0  0  0  0  0  0  0  0  0  0  0
  140.4270   68.6130  226.8870 C   0  0  0  0  0  0  0  0  0  0  0  0
  140.9410   69.1680  228.0430 C   0  0  0  0  0  0  0  0  0  0  0  0
  141.2950   68.4220  229.1200 F   0  0  0  0  0  0  0  0  0  0  0  0
  141.1110   70.5480  228.1330 C   0  0  0  0  0  0  0  0  0  0  0  0
  140.7600   71.3220  227.0600 C   0  0  0  0  0  0  0  0  0  0  0  0
  140.2410   70.7780  225.8870 C   0  0  0  0  0  0  0  0  0  0  0  0
  139.8960   71.5400  224.8340 N   0  0  0  0  0  0  0  0  0  0  0  0
  137.3040   72.6370  223.5540 H   0  0  0  0  0  0  0  0  0  0  0  0
  137.9127   73.2613  220.6535 H   0  0  0  0  0  0  0  0  0  0  0  0
  136.4028   73.6800  221.5398 H   0  0  0  0  0  0  0  0  0  0  0  0
  139.1509   74.4697  219.4117 H   0  0  0  0  0  0  0  0  0  0  0  0
  139.3397   76.2345  219.3655 H   0  0  0  0  0  0  0  0  0  0  0  0
  141.5600   75.7254  219.0108 H   0  0  0  0  0  0  0  0  0  0  0  0
  140.8270   73.2490  220.2030 H   0  0  0  0  0  0  0  0  0  0  0  0
  142.2233   74.7762  221.6642 H   0  0  0  0  0  0  0  0  0  0  0  0
  142.3192   76.4528  221.1097 H   0  0  0  0  0  0  0  0  0  0  0  0
  140.4684   75.4364  222.9996 H   0  0  0  0  0  0  0  0  0  0  0  0
  140.5353   77.7805  221.1870 H   0  0  0  0  0  0  0  0  0  0  0  0
  138.9875   77.6790  223.8213 H   0  0  0  0  0  0  0  0  0  0  0  0
  138.2140   77.3547  222.2552 H   0  0  0  0  0  0  0  0  0  0  0  0
  138.1156   79.7599  223.0072 H   0  0  0  0  0  0  0  0  0  0  0  0
  138.9359   79.4740  221.3879 H   0  0  0  0  0  0  0  0  0  0  0  0
  140.0318   80.3754  223.9824 H   0  0  0  0  0  0  0  0  0  0  0  0
  142.1161   80.5727  221.0350 H   0  0  0  0  0  0  0  0  0  0  0  0
  142.2966   82.4987  219.4812 H   0  0  0  0  0  0  0  0  0  0  0  0
  140.5777   84.3211  219.5444 H   0  0  0  0  0  0  0  0  0  0  0  0
  138.5567   82.2964  222.6692 H   0  0  0  0  0  0  0  0  0  0  0  0
  142.1198   79.8435  223.7029 H   0  0  0  0  0  0  0  0  0  0  0  0
  141.8815   79.5281  221.8947 H   0  0  0  0  0  0  0  0  0  0  0  0
  141.1627   77.7063  224.1887 H   0  0  0  0  0  0  0  0  0  0  0  0
  142.4105   77.4490  222.9589 H   0  0  0  0  0  0  0  0  0  0  0  0
  138.7982   69.2415  222.6324 H   0  0  0  0  0  0  0  0  0  0  0  0
  139.4187   67.7886  224.5570 H   0  0  0  0  0  0  0  0  0  0  0  0
  140.2970   67.5224  226.8260 H   0  0  0  0  0  0  0  0  0  0  0  0
  141.5185   71.0056  229.0466 H   0  0  0  0  0  0  0  0  0  0  0  0
  140.8923   72.4120  227.1261 H   0  0  0  0  0  0  0  0  0  0  0  0
  1  2  2  0
  2  3  1  0
  3  4  1  0
  4  5  1  0
  5  6  2  0
  5  7  1  0
  7  8  1  0
  8  9  1  0
  9 10  1  0
  9 11  1  0
 11 12  1  0
 12 13  1  0
 13 14  1  0
 14 15  1  0
 15 16  1  0
 16 17  1  0
 17 18  2  0
 18 19  1  0
 19 20  2  0
 20 21  1  0
 21 22  2  0
 16 23  1  0
 23 24  1  0
  2 25  1  0
 25 26  2  0
 26 27  1  0
 27 28  2  0
 28 29  1  0
 29 30  2  0
 30 31  1  0
 30 32  1  0
 32 33  2  0
 33 34  1  0
 34 35  2  0
 12  7  1  0
 24 13  1  0
 35 25  1  0
 22 17  1  0
 34 28  1  0
  3 36  1  0
  4 37  1  0
  4 38  1  0
  8 39  1  0
  8 40  1  0
  9 41  1  6
 10 42  1  0
 11 43  1  0
 11 44  1  0
 12 45  1  1
 13 46  1  6
 14 47  1  0
 14 48  1  0
 15 49  1  0
 15 50  1  0
 16 51  1  1
 18 52  1  0
 19 53  1  0
 20 54  1  0
 22 55  1  0
 23 56  1  0
 23 57  1  0
 24 58  1  0
 24 59  1  0
 26 60  1  0
 27 61  1  0
 29 62  1  0
 32 63  1  0
 33 64  1  0
M  END
>  <smiles>  (85) 
O=C(NCC(=O)N1C[C@H](O)C[C@H]1C1CCC(c2cccnc2)CC1)c1ccc2cc(F)ccc2n1

>  <score_type>  (85) 
oracle

>  <origin>  (85) 
autodockgpu

>  <m_score__min__energy>  (85) 
-10.19

>  <m_primary>  (85) 
energy

>  <rmsd>  (85) 
1.7624340205532822

>  <m_score__min__rmsd>  (85) 
1.7624340205532822

>  <meeko>  (85) 
{"free_energy": -8.21, "intermolecular_energy": -10.3, "internal_energy": -2.51, "cluster_size": 15, "cluster_id": 5, "rank_in_cluster": 5}

>  <energy>  (85) 
-8.25

>  <cluster_rmsd>  (85) 
0.0

>  <cluster>  (85) 
7

$$$$

     RDKit          3D

 64 68  0  0  1  0  0  0  0  0999 V2000
  138.0550   70.4590  221.6300 O   0  0  0  0  0  0  0  0  0  0  0  0
  137.9830   70.9420  222.8000 C   0  0  0  0  0  0  0  0  0  0  0  0
  137.2810   72.1510  223.0400 N   0  0  0  0  0  0  0  0  0  0  0  0
  136.6280   72.8690  221.9680 C   0  0  0  0  0  0  0  0  0  0  0  0
  137.3450   74.1470  221.7010 C   0  0  0  0  0  0  0  0  0  0  0  0
  136.7020   75.2120  221.8910 O   0  0  0  0  0  0  0  0  0  0  0  0
  138.6950   74.1160  221.2530 N   0  0  0  0  0  0  0  0  0  0  0  0
  139.1490   73.6710  219.9270 C   0  0  0  0  0  0  0  0  0  0  0  0
  140.5380   73.1630  220.1000 C   0  0  2  0  0  0  0  0  0  0  0  0
  140.5370   71.7570  220.2250 O   0  0  0  0  0  0  0  0  0  0  0  0
  141.0360   73.7530  221.4000 C   0  0  0  0  0  0  0  0  0  0  0  0
  139.8760   74.4990  221.9720 C   0  0  1  0  0  0  0  0  0  0  0  0
  140.1660   75.9730  221.8790 C   0  0  1  0  0  0  0  0  0  0  0  0
  141.0430   76.3430  220.7120 C   0  0  0  0  0  0  0  0  0  0  0  0
  141.5830   77.7170  220.9940 C   0  0  0  0  0  0  0  0  0  0  0  0
  140.5520   78.7300  221.3850 C   0  0  2  0  0  0  0  0  0  0  0  0
  141.2480   79.6860  222.2970 C   0  0  0  0  0  0  0  0  0  0  0  0
  142.0290   79.2430  223.3610 C   0  0  0  0  0  0  0  0  0  0  0  0
  142.6760   80.1400  224.2080 C   0  0  0  0  0  0  0  0  0  0  0  0
  142.5500   81.5030  224.0030 C   0  0  0  0  0  0  0  0  0  0  0  0
  141.7940   81.9020  222.9750 N   0  0  0  0  0  0  0  0  0  0  0  0
  141.1610   81.0560  222.1450 C   0  0  0  0  0  0  0  0  0  0  0  0
  139.3550   78.2300  222.0900 C   0  0  0  0  0  0  0  0  0  0  0  0
  138.9220   76.8290  221.7680 C   0  0  0  0  0  0  0  0  0  0  0  0
  138.6320   70.2400  223.9110 C   0  0  0  0  0  0  0  0  0  0  0  0
  138.6510   68.8620  223.9360 C   0  0  0  0  0  0  0  0  0  0  0  0
  139.2800   68.2570  225.0140 C   0  0  0  0  0  0  0  0  0  0  0  0
  139.8690   68.9820  226.0280 C   0  0  0  0  0  0  0  0  0  0  0  0
  140.5010   68.3910  227.1080 C   0  0  0  0  0  0  0  0  0  0  0  0
  141.0820   69.1480  228.1070 C   0  0  0  0  0  0  0  0  0  0  0  0
  141.7070   68.5930  229.1770 F   0  0  0  0  0  0  0  0  0  0  0  0
  141.0380   70.5380  228.0370 C   0  0  0  0  0  0  0  0  0  0  0  0
  140.4130   71.1200  226.9680 C   0  0  0  0  0  0  0  0  0  0  0  0
  139.8220   70.3720  225.9520 C   0  0  0  0  0  0  0  0  0  0  0  0
  139.2090   70.9460  224.9020 N   0  0  0  0  0  0  0  0  0  0  0  0
  137.2630   72.4900  224.0380 H   0  0  0  0  0  0  0  0  0  0  0  0
  136.6345   72.2506  221.0583 H   0  0  0  0  0  0  0  0  0  0  0  0
  135.5911   73.0907  222.2606 H   0  0  0  0  0  0  0  0  0  0  0  0
  138.4959   72.8694  219.5517 H   0  0  0  0  0  0  0  0  0  0  0  0
  139.1164   74.4956  219.1997 H   0  0  0  0  0  0  0  0  0  0  0  0
  141.1638   73.4372  219.2379 H   0  0  0  0  0  0  0  0  0  0  0  0
  139.6980   71.4940  220.6800 H   0  0  0  0  0  0  0  0  0  0  0  0
  141.3557   72.9551  222.0864 H   0  0  0  0  0  0  0  0  0  0  0  0
  141.9048   74.4091  221.2431 H   0  0  0  0  0  0  0  0  0  0  0  0
  139.7118   74.2604  223.0332 H   0  0  0  0  0  0  0  0  0  0  0  0
  140.6864   76.1758  222.8266 H   0  0  0  0  0  0  0  0  0  0  0  0
  140.4540   76.3508  219.7830 H   0  0  0  0  0  0  0  0  0  0  0  0
  141.8590   75.6163  220.5851 H   0  0  0  0  0  0  0  0  0  0  0  0
  142.0903   78.0778  220.0871 H   0  0  0  0  0  0  0  0  0  0  0  0
  142.2572   77.6131  221.8570 H   0  0  0  0  0  0  0  0  0  0  0  0
  140.1625   79.1548  220.4481 H   0  0  0  0  0  0  0  0  0  0  0  0
  142.1374   78.1625  223.5364 H   0  0  0  0  0  0  0  0  0  0  0  0
  143.2881   79.7644  225.0412 H   0  0  0  0  0  0  0  0  0  0  0  0
  143.0518   82.2290  224.6596 H   0  0  0  0  0  0  0  0  0  0  0  0
  140.5570   81.4657  221.3220 H   0  0  0  0  0  0  0  0  0  0  0  0
  138.5190   78.9021  221.8463 H   0  0  0  0  0  0  0  0  0  0  0  0
  139.6319   78.2108  223.1544 H   0  0  0  0  0  0  0  0  0  0  0  0
  138.5138   76.7799  220.7477 H   0  0  0  0  0  0  0  0  0  0  0  0
  138.1324   76.4837  222.4516 H   0  0  0  0  0  0  0  0  0  0  0  0
  138.1871   68.2675  223.1352 H   0  0  0  0  0  0  0  0  0  0  0  0
  139.3100   67.1584  225.0617 H   0  0  0  0  0  0  0  0  0  0  0  0
  140.5417   67.2936  227.1725 H   0  0  0  0  0  0  0  0  0  0  0  0
  141.4959   71.1549  228.8242 H   0  0  0  0  0  0  0  0  0  0  0  0
  140.3758   72.2178  226.9086 H   0  0  0  0  0  0  0  0  0  0  0  0
  1  2  2  0
  2  3  1  0
  3  4  1  0
  4  5  1  0
  5  6  2  0
  5  7  1  0
  7  8  1  0
  8  9  1  0
  9 10  1  0
  9 11  1  0
 11 12  1  0
 12 13  1  0
 13 14  1  0
 14 15  1  0
 15 16  1  0
 16 17  1  0
 17 18  2  0
 18 19  1  0
 19 20  2  0
 20 21  1  0
 21 22  2  0
 16 23  1  0
 23 24  1  0
  2 25  1  0
 25 26  2  0
 26 27  1  0
 27 28  2  0
 28 29  1  0
 29 30  2  0
 30 31  1  0
 30 32  1  0
 32 33  2  0
 33 34  1  0
 34 35  2  0
 12  7  1  0
 24 13  1  0
 35 25  1  0
 22 17  1  0
 34 28  1  0
  3 36  1  0
  4 37  1  0
  4 38  1  0
  8 39  1  0
  8 40  1  0
  9 41  1  6
 10 42  1  0
 11 43  1  0
 11 44  1  0
 12 45  1  1
 13 46  1  1
 14 47  1  0
 14 48  1  0
 15 49  1  0
 15 50  1  0
 16 51  1  6
 18 52  1  0
 19 53  1  0
 20 54  1  0
 22 55  1  0
 23 56  1  0
 23 57  1  0
 24 58  1  0
 24 59  1  0
 26 60  1  0
 27 61  1  0
 29 62  1  0
 32 63  1  0
 33 64  1  0
M  END
>  <smiles>  (86) 
O=C(NCC(=O)N1C[C@H](O)C[C@H]1C1CCC(c2cccnc2)CC1)c1ccc2cc(F)ccc2n1

>  <score_type>  (86) 
oracle

>  <origin>  (86) 
autodockgpu

>  <m_score__min__energy>  (86) 
-10.19

>  <m_primary>  (86) 
energy

>  <rmsd>  (86) 
2.346654333637344

>  <m_score__min__rmsd>  (86) 
2.346654333637344

>  <meeko>  (86) 
{"free_energy": -8.49, "intermolecular_energy": -10.58, "internal_energy": -2.74, "cluster_size": 15, "cluster_id": 5, "rank_in_cluster": 2}

>  <energy>  (86) 
-7.68

>  <cluster_rmsd>  (86) 
0.0

>  <cluster>  (86) 
8

$$$$

     RDKit          3D

 64 68  0  0  1  0  0  0  0  0999 V2000
  138.5110   75.1510  221.3670 O   0  0  0  0  0  0  0  0  0  0  0  0
  139.6950   75.4720  221.6880 C   0  0  0  0  0  0  0  0  0  0  0  0
  139.9580   76.7040  222.3380 N   0  0  0  0  0  0  0  0  0  0  0  0
  138.8940   77.6310  222.6560 C   0  0  0  0  0  0  0  0  0  0  0  0
  139.4650   78.8940  223.2000 C   0  0  0  0  0  0  0  0  0  0  0  0
  138.7510   79.5400  224.0120 O   0  0  0  0  0  0  0  0  0  0  0  0
  140.7620   79.3130  222.7930 N   0  0  0  0  0  0  0  0  0  0  0  0
  142.0170   79.0330  223.5070 C   0  0  0  0  0  0  0  0  0  0  0  0
  142.9530   80.1430  223.1750 C   0  0  2  0  0  0  0  0  0  0  0  0
  142.9520   81.1130  224.2000 O   0  0  0  0  0  0  0  0  0  0  0  0
  142.4070   80.7830  221.9190 C   0  0  0  0  0  0  0  0  0  0  0  0
  141.1240   80.0760  221.6330 C   0  0  1  0  0  0  0  0  0  0  0  0
  141.3130   79.2230  220.4070 C   0  0  1  0  0  0  0  0  0  0  0  0
  140.0210   78.7770  219.7770 C   0  0  0  0  0  0  0  0  0  0  0  0
  140.3550   77.6260  218.8710 C   0  0  0  0  0  0  0  0  0  0  0  0
  141.4900   77.8760  217.9280 C   0  0  2  0  0  0  0  0  0  0  0  0
  142.1350   76.5480  217.7050 C   0  0  0  0  0  0  0  0  0  0  0  0
  143.4550   76.4410  217.2750 C   0  0  0  0  0  0  0  0  0  0  0  0
  144.0520   75.1990  217.0700 C   0  0  0  0  0  0  0  0  0  0  0  0
  143.3330   74.0380  217.2940 C   0  0  0  0  0  0  0  0  0  0  0  0
  142.0680   74.1680  217.7060 N   0  0  0  0  0  0  0  0  0  0  0  0
  141.4720   75.3550  217.9110 C   0  0  0  0  0  0  0  0  0  0  0  0
  142.5400   78.8140  218.3750 C   0  0  0  0  0  0  0  0  0  0  0  0
  142.1090   79.9050  219.3140 C   0  0  0  0  0  0  0  0  0  0  0  0
  140.7980   74.5570  221.3820 C   0  0  0  0  0  0  0  0  0  0  0  0
  140.5870   73.1940  221.4040 C   0  0  0  0  0  0  0  0  0  0  0  0
  141.6700   72.3810  221.1060 C   0  0  0  0  0  0  0  0  0  0  0  0
  142.9140   72.8900  220.7960 C   0  0  0  0  0  0  0  0  0  0  0  0
  144.0020   72.0900  220.4950 C   0  0  0  0  0  0  0  0  0  0  0  0
  145.2350   72.6330  220.1880 C   0  0  0  0  0  0  0  0  0  0  0  0
  146.3180   71.8710  219.8910 F   0  0  0  0  0  0  0  0  0  0  0  0
  145.3990   74.0160  220.1780 C   0  0  0  0  0  0  0  0  0  0  0  0
  144.3210   74.8050  220.4750 C   0  0  0  0  0  0  0  0  0  0  0  0
  143.0710   74.2740  220.7860 C   0  0  0  0  0  0  0  0  0  0  0  0
  142.0130   75.0510  221.0780 N   0  0  0  0  0  0  0  0  0  0  0  0
  140.9670   76.9020  222.5740 H   0  0  0  0  0  0  0  0  0  0  0  0
  138.3201   77.8536  221.7443 H   0  0  0  0  0  0  0  0  0  0  0  0
  138.2342   77.1784  223.4108 H   0  0  0  0  0  0  0  0  0  0  0  0
  141.8372   78.9999  224.5917 H   0  0  0  0  0  0  0  0  0  0  0  0
  142.4343   78.0599  223.2086 H   0  0  0  0  0  0  0  0  0  0  0  0
  143.9785   79.7645  223.0524 H   0  0  0  0  0  0  0  0  0  0  0  0
  142.0090   81.3310  224.4100 H   0  0  0  0  0  0  0  0  0  0  0  0
  142.2261   81.8557  222.0822 H   0  0  0  0  0  0  0  0  0  0  0  0
  143.1133   80.6997  221.0798 H   0  0  0  0  0  0  0  0  0  0  0  0
  140.3020   80.7767  221.4247 H   0  0  0  0  0  0  0  0  0  0  0  0
  141.8646   78.3559  220.7992 H   0  0  0  0  0  0  0  0  0  0  0  0
  139.5788   79.6000  219.1964 H   0  0  0  0  0  0  0  0  0  0  0  0
  139.2908   78.4774  220.5432 H   0  0  0  0  0  0  0  0  0  0  0  0
  139.4612   77.3895  218.2750 H   0  0  0  0  0  0  0  0  0  0  0  0
  140.6728   76.8005  219.5248 H   0  0  0  0  0  0  0  0  0  0  0  0
  141.0536   78.3544  217.0388 H   0  0  0  0  0  0  0  0  0  0  0  0
  144.0383   77.3557  217.0934 H   0  0  0  0  0  0  0  0  0  0  0  0
  145.0964   75.1411  216.7296 H   0  0  0  0  0  0  0  0  0  0  0  0
  143.7847   73.0471  217.1391 H   0  0  0  0  0  0  0  0  0  0  0  0
  140.4266   75.3764  218.2525 H   0  0  0  0  0  0  0  0  0  0  0  0
  142.9643   79.2919  217.4797 H   0  0  0  0  0  0  0  0  0  0  0  0
  143.2525   78.2020  218.9474 H   0  0  0  0  0  0  0  0  0  0  0  0
  141.4825   80.6388  218.7858 H   0  0  0  0  0  0  0  0  0  0  0  0
  142.9727   80.4492  219.7237 H   0  0  0  0  0  0  0  0  0  0  0  0
  139.6016   72.7701  221.6476 H   0  0  0  0  0  0  0  0  0  0  0  0
  141.5320   71.2897  221.1172 H   0  0  0  0  0  0  0  0  0  0  0  0
  143.8827   70.9965  220.5002 H   0  0  0  0  0  0  0  0  0  0  0  0
  146.3740   74.4644  219.9366 H   0  0  0  0  0  0  0  0  0  0  0  0
  144.4459   75.8979  220.4680 H   0  0  0  0  0  0  0  0  0  0  0  0
  1  2  2  0
  2  3  1  0
  3  4  1  0
  4  5  1  0
  5  6  2  0
  5  7  1  0
  7  8  1  0
  8  9  1  0
  9 10  1  0
  9 11  1  0
 11 12  1  0
 12 13  1  0
 13 14  1  0
 14 15  1  0
 15 16  1  0
 16 17  1  0
 17 18  2  0
 18 19  1  0
 19 20  2  0
 20 21  1  0
 21 22  2  0
 16 23  1  0
 23 24  1  0
  2 25  1  0
 25 26  2  0
 26 27  1  0
 27 28  2  0
 28 29  1  0
 29 30  2  0
 30 31  1  0
 30 32  1  0
 32 33  2  0
 33 34  1  0
 34 35  2  0
 12  7  1  0
 24 13  1  0
 35 25  1  0
 22 17  1  0
 34 28  1  0
  3 36  1  0
  4 37  1  0
  4 38  1  0
  8 39  1  0
  8 40  1  0
  9 41  1  6
 10 42  1  0
 11 43  1  0
 11 44  1  0
 12 45  1  6
 13 46  1  1
 14 47  1  0
 14 48  1  0
 15 49  1  0
 15 50  1  0
 16 51  1  6
 18 52  1  0
 19 53  1  0
 20 54  1  0
 22 55  1  0
 23 56  1  0
 23 57  1  0
 24 58  1  0
 24 59  1  0
 26 60  1  0
 27 61  1  0
 29 62  1  0
 32 63  1  0
 33 64  1  0
M  END
>  <smiles>  (87) 
O=C(NCC(=O)N1C[C@H](O)C[C@H]1C1CCC(c2cccnc2)CC1)c1ccc2cc(F)ccc2n1

>  <score_type>  (87) 
oracle

>  <origin>  (87) 
autodockgpu

>  <m_score__min__energy>  (87) 
-10.19

>  <m_primary>  (87) 
energy

>  <rmsd>  (87) 
6.48025856241295

>  <m_score__min__rmsd>  (87) 
6.48025856241295

>  <meeko>  (87) 
{"free_energy": -6.51, "intermolecular_energy": -8.6, "internal_energy": -3.94, "cluster_size": 2, "cluster_id": 12, "rank_in_cluster": 1}

>  <energy>  (87) 
-6.96

>  <cluster_rmsd>  (87) 
0.0

>  <cluster>  (87) 
9

$$$$

     RDKit          3D

 64 68  0  0  1  0  0  0  0  0999 V2000
  137.7350   69.9230  221.9510 O   0  0  0  0  0  0  0  0  0  0  0  0
  137.8510   70.6480  222.9840 C   0  0  0  0  0  0  0  0  0  0  0  0
  137.2220   71.9170  223.0520 N   0  0  0  0  0  0  0  0  0  0  0  0
  136.4320   72.4260  221.9520 C   0  0  0  0  0  0  0  0  0  0  0  0
  137.3070   73.1560  220.9930 C   0  0  0  0  0  0  0  0  0  0  0  0
  136.7340   73.8340  220.1010 O   0  0  0  0  0  0  0  0  0  0  0  0
  138.7210   73.0630  221.1190 N   0  0  0  0  0  0  0  0  0  0  0  0
  139.6250   72.4020  220.1660 C   0  0  0  0  0  0  0  0  0  0  0  0
  140.8080   71.9460  220.9480 C   0  0  2  0  0  0  0  0  0  0  0  0
  140.6780   70.5820  221.2890 O   0  0  0  0  0  0  0  0  0  0  0  0
  140.7980   72.7550  222.2250 C   0  0  0  0  0  0  0  0  0  0  0  0
  139.5530   73.5760  222.1690 C   0  0  1  0  0  0  0  0  0  0  0  0
  139.9410   75.0150  221.9590 C   0  0  1  0  0  0  0  0  0  0  0  0
  140.8120   75.2360  220.7510 C   0  0  0  0  0  0  0  0  0  0  0  0
  141.4510   76.5850  220.9180 C   0  0  0  0  0  0  0  0  0  0  0  0
  140.5020   77.6940  221.2500 C   0  0  2  0  0  0  0  0  0  0  0  0
  141.2830   78.6650  222.0740 C   0  0  0  0  0  0  0  0  0  0  0  0
  141.4480   78.4900  223.4450 C   0  0  0  0  0  0  0  0  0  0  0  0
  142.1780   79.3990  224.2090 C   0  0  0  0  0  0  0  0  0  0  0  0
  142.7580   80.5030  223.6070 C   0  0  0  0  0  0  0  0  0  0  0  0
  142.5840   80.6470  222.2900 N   0  0  0  0  0  0  0  0  0  0  0  0
  141.8850   79.7830  221.5330 C   0  0  0  0  0  0  0  0  0  0  0  0
  139.2910   77.3330  222.0140 C   0  0  0  0  0  0  0  0  0  0  0  0
  138.7550   75.9450  221.8070 C   0  0  0  0  0  0  0  0  0  0  0  0
  138.6420   70.1630  224.1190 C   0  0  0  0  0  0  0  0  0  0  0  0
  138.8260   68.8080  224.3010 C   0  0  0  0  0  0  0  0  0  0  0  0
  139.5850   68.4130  225.3920 C   0  0  0  0  0  0  0  0  0  0  0  0
  140.1430   69.3180  226.2710 C   0  0  0  0  0  0  0  0  0  0  0  0
  140.9030   68.9370  227.3620 C   0  0  0  0  0  0  0  0  0  0  0  0
  141.4490   69.8690  228.2230 C   0  0  0  0  0  0  0  0  0  0  0  0
  142.1960   69.5230  229.3020 F   0  0  0  0  0  0  0  0  0  0  0  0
  141.2360   71.2270  227.9980 C   0  0  0  0  0  0  0  0  0  0  0  0
  140.4840   71.6020  226.9170 C   0  0  0  0  0  0  0  0  0  0  0  0
  139.9280   70.6740  226.0390 C   0  0  0  0  0  0  0  0  0  0  0  0
  139.1890   71.0440  224.9780 N   0  0  0  0  0  0  0  0  0  0  0  0
  137.3630   72.4610  223.9440 H   0  0  0  0  0  0  0  0  0  0  0  0
  135.9445   71.5867  221.4344 H   0  0  0  0  0  0  0  0  0  0  0  0
  135.6697   73.1158  222.3431 H   0  0  0  0  0  0  0  0  0  0  0  0
  139.1226   71.5410  219.7009 H   0  0  0  0  0  0  0  0  0  0  0  0
  139.9229   73.0888  219.3600 H   0  0  0  0  0  0  0  0  0  0  0  0
  141.7328   72.0752  220.3666 H   0  0  0  0  0  0  0  0  0  0  0  0
  139.7160   70.3520  221.2530 H   0  0  0  0  0  0  0  0  0  0  0  0
  140.7805   72.0899  223.1010 H   0  0  0  0  0  0  0  0  0  0  0  0
  141.6964   73.3830  222.3165 H   0  0  0  0  0  0  0  0  0  0  0  0
  138.9781   73.5217  223.1053 H   0  0  0  0  0  0  0  0  0  0  0  0
  140.4977   75.2503  222.8781 H   0  0  0  0  0  0  0  0  0  0  0  0
  140.2022   75.2165  219.8357 H   0  0  0  0  0  0  0  0  0  0  0  0
  141.5732   74.4467  220.6634 H   0  0  0  0  0  0  0  0  0  0  0  0
  141.9602   76.8409  219.9772 H   0  0  0  0  0  0  0  0  0  0  0  0
  142.1365   76.4983  221.7739 H   0  0  0  0  0  0  0  0  0  0  0  0
  140.1207   78.0738  220.2906 H   0  0  0  0  0  0  0  0  0  0  0  0
  140.9931   77.6167  223.9354 H   0  0  0  0  0  0  0  0  0  0  0  0
  142.2935   79.2392  225.2912 H   0  0  0  0  0  0  0  0  0  0  0  0
  143.3391   81.2327  224.1900 H   0  0  0  0  0  0  0  0  0  0  0  0
  141.7904   79.9723  220.4536 H   0  0  0  0  0  0  0  0  0  0  0  0
  138.4973   78.0423  221.7364 H   0  0  0  0  0  0  0  0  0  0  0  0
  139.5919   77.3734  223.0713 H   0  0  0  0  0  0  0  0  0  0  0  0
  138.3199   75.8489  220.8013 H   0  0  0  0  0  0  0  0  0  0  0  0
  137.9601   75.7072  222.5292 H   0  0  0  0  0  0  0  0  0  0  0  0
  138.3891   68.0721  223.6099 H   0  0  0  0  0  0  0  0  0  0  0  0
  139.7482   67.3387  225.5629 H   0  0  0  0  0  0  0  0  0  0  0  0
  141.0767   67.8669  227.5484 H   0  0  0  0  0  0  0  0  0  0  0  0
  141.6629   71.9821  228.6744 H   0  0  0  0  0  0  0  0  0  0  0  0
  140.3128   72.6733  226.7354 H   0  0  0  0  0  0  0  0  0  0  0  0
  1  2  2  0
  2  3  1  0
  3  4  1  0
  4  5  1  0
  5  6  2  0
  5  7  1  0
  7  8  1  0
  8  9  1  0
  9 10  1  0
  9 11  1  0
 11 12  1  0
 12 13  1  0
 13 14  1  0
 14 15  1  0
 15 16  1  0
 16 17  1  0
 17 18  2  0
 18 19  1  0
 19 20  2  0
 20 21  1  0
 21 22  2  0
 16 23  1  0
 23 24  1  0
  2 25  1  0
 25 26  2  0
 26 27  1  0
 27 28  2  0
 28 29  1  0
 29 30  2  0
 30 31  1  0
 30 32  1  0
 32 33  2  0
 33 34  1  0
 34 35  2  0
 12  7  1  0
 24 13  1  0
 35 25  1  0
 22 17  1  0
 34 28  1  0
  3 36  1  0
  4 37  1  0
  4 38  1  0
  8 39  1  0
  8 40  1  0
  9 41  1  6
 10 42  1  0
 11 43  1  0
 11 44  1  0
 12 45  1  1
 13 46  1  1
 14 47  1  0
 14 48  1  0
 15 49  1  0
 15 50  1  0
 16 51  1  6
 18 52  1  0
 19 53  1  0
 20 54  1  0
 22 55  1  0
 23 56  1  0
 23 57  1  0
 24 58  1  0
 24 59  1  0
 26 60  1  0
 27 61  1  0
 29 62  1  0
 32 63  1  0
 33 64  1  0
M  END
>  <smiles>  (88) 
O=C(NCC(=O)N1C[C@H](O)C[C@H]1C1CCC(c2cccnc2)CC1)c1ccc2cc(F)ccc2n1

>  <score_type>  (88) 
oracle

>  <origin>  (88) 
autodockgpu

>  <m_score__min__energy>  (88) 
-10.19

>  <m_primary>  (88) 
energy

>  <rmsd>  (88) 
3.058941162711748

>  <m_score__min__rmsd>  (88) 
3.058941162711748

>  <meeko>  (88) 
{"free_energy": -8.11, "intermolecular_energy": -10.2, "internal_energy": -3.31, "cluster_size": 15, "cluster_id": 5, "rank_in_cluster": 11}

>  <energy>  (88) 
-6.92

>  <cluster_rmsd>  (88) 
0.0

>  <cluster>  (88) 
10

$$$$

     RDKit          3D

 64 68  0  0  1  0  0  0  0  0999 V2000
  137.5480   69.8020  221.8760 O   0  0  0  0  0  0  0  0  0  0  0  0
  137.7290   70.5070  222.9140 C   0  0  0  0  0  0  0  0  0  0  0  0
  137.1620   71.8020  223.0170 N   0  0  0  0  0  0  0  0  0  0  0  0
  136.3630   72.3620  221.9490 C   0  0  0  0  0  0  0  0  0  0  0  0
  137.2410   73.0580  220.9680 C   0  0  0  0  0  0  0  0  0  0  0  0
  136.6710   73.7280  220.0670 O   0  0  0  0  0  0  0  0  0  0  0  0
  138.6540   72.9440  221.0830 N   0  0  0  0  0  0  0  0  0  0  0  0
  139.5430   72.2810  220.1160 C   0  0  0  0  0  0  0  0  0  0  0  0
  140.7240   71.7990  220.8850 C   0  0  2  0  0  0  0  0  0  0  0  0
  140.5770   70.4340  221.2110 O   0  0  0  0  0  0  0  0  0  0  0  0
  140.7340   72.5940  222.1710 C   0  0  0  0  0  0  0  0  0  0  0  0
  139.5000   73.4330  222.1330 C   0  0  1  0  0  0  0  0  0  0  0  0
  139.9070   74.8690  221.9370 C   0  0  1  0  0  0  0  0  0  0  0  0
  140.8000   75.0860  220.7440 C   0  0  0  0  0  0  0  0  0  0  0  0
  141.4510   76.4270  220.9280 C   0  0  0  0  0  0  0  0  0  0  0  0
  140.5090   77.5450  221.2500 C   0  0  2  0  0  0  0  0  0  0  0  0
  141.2860   78.5030  222.0920 C   0  0  0  0  0  0  0  0  0  0  0  0
  141.8990   79.6250  221.5420 C   0  0  0  0  0  0  0  0  0  0  0  0
  142.6230   80.5160  222.3320 C   0  0  0  0  0  0  0  0  0  0  0  0
  142.7450   80.2960  223.6930 C   0  0  0  0  0  0  0  0  0  0  0  0
  142.1470   79.2110  224.1960 N   0  0  0  0  0  0  0  0  0  0  0  0
  141.4430   78.3390  223.4540 C   0  0  0  0  0  0  0  0  0  0  0  0
  139.2810   77.1940  221.9930 C   0  0  0  0  0  0  0  0  0  0  0  0
  138.7340   75.8120  221.7700 C   0  0  0  0  0  0  0  0  0  0  0  0
  138.5330   69.9710  224.0160 C   0  0  0  0  0  0  0  0  0  0  0  0
  138.7630   68.6140  224.1050 C   0  0  0  0  0  0  0  0  0  0  0  0
  139.5310   68.1690  225.1700 C   0  0  0  0  0  0  0  0  0  0  0  0
  140.0540   69.0290  226.1130 C   0  0  0  0  0  0  0  0  0  0  0  0
  140.8230   68.5980  227.1800 C   0  0  0  0  0  0  0  0  0  0  0  0
  141.3330   69.4860  228.1080 C   0  0  0  0  0  0  0  0  0  0  0  0
  142.0880   69.0900  229.1640 F   0  0  0  0  0  0  0  0  0  0  0  0
  141.0740   70.8480  227.9760 C   0  0  0  0  0  0  0  0  0  0  0  0
  140.3140   71.2720  226.9200 C   0  0  0  0  0  0  0  0  0  0  0  0
  139.7930   70.3900  225.9760 C   0  0  0  0  0  0  0  0  0  0  0  0
  139.0470   70.8080  224.9380 N   0  0  0  0  0  0  0  0  0  0  0  0
  137.3560   72.3270  223.9110 H   0  0  0  0  0  0  0  0  0  0  0  0
  135.8171   71.5539  221.4402 H   0  0  0  0  0  0  0  0  0  0  0  0
  135.6499   73.0848  222.3721 H   0  0  0  0  0  0  0  0  0  0  0  0
  139.0254   71.4328  219.6441 H   0  0  0  0  0  0  0  0  0  0  0  0
  139.8457   72.9729  219.3162 H   0  0  0  0  0  0  0  0  0  0  0  0
  141.6469   71.9212  220.2991 H   0  0  0  0  0  0  0  0  0  0  0  0
  139.6120   70.2550  221.3380 H   0  0  0  0  0  0  0  0  0  0  0  0
  140.7133   71.9195  223.0397 H   0  0  0  0  0  0  0  0  0  0  0  0
  141.6417   73.2085  222.2629 H   0  0  0  0  0  0  0  0  0  0  0  0
  138.9306   73.3758  223.0724 H   0  0  0  0  0  0  0  0  0  0  0  0
  140.4509   75.0941  222.8663 H   0  0  0  0  0  0  0  0  0  0  0  0
  140.2049   75.0776  219.8189 H   0  0  0  0  0  0  0  0  0  0  0  0
  141.5537   74.2887  220.6647 H   0  0  0  0  0  0  0  0  0  0  0  0
  141.9783   76.6817  219.9968 H   0  0  0  0  0  0  0  0  0  0  0  0
  142.1214   76.3287  221.7945 H   0  0  0  0  0  0  0  0  0  0  0  0
  140.1485   77.9332  220.2860 H   0  0  0  0  0  0  0  0  0  0  0  0
  141.8102   79.8123  220.4617 H   0  0  0  0  0  0  0  0  0  0  0  0
  143.0983   81.3955  221.8731 H   0  0  0  0  0  0  0  0  0  0  0  0
  143.3114   80.9863  224.3353 H   0  0  0  0  0  0  0  0  0  0  0  0
  140.9792   77.4709  223.9452 H   0  0  0  0  0  0  0  0  0  0  0  0
  138.4996   77.9130  221.7058 H   0  0  0  0  0  0  0  0  0  0  0  0
  139.5642   77.2270  223.0554 H   0  0  0  0  0  0  0  0  0  0  0  0
  138.3148   75.7254  220.7567 H   0  0  0  0  0  0  0  0  0  0  0  0
  137.9248   75.5790  222.4778 H   0  0  0  0  0  0  0  0  0  0  0  0
  138.3540   67.9138  223.3617 H   0  0  0  0  0  0  0  0  0  0  0  0
  139.7304   67.0915  225.2664 H   0  0  0  0  0  0  0  0  0  0  0  0
  141.0330   67.5241  227.2919 H   0  0  0  0  0  0  0  0  0  0  0  0
  141.4723   71.5683  228.7058 H   0  0  0  0  0  0  0  0  0  0  0  0
  140.1072   72.3471  226.8128 H   0  0  0  0  0  0  0  0  0  0  0  0
  1  2  2  0
  2  3  1  0
  3  4  1  0
  4  5  1  0
  5  6  2  0
  5  7  1  0
  7  8  1  0
  8  9  1  0
  9 10  1  0
  9 11  1  0
 11 12  1  0
 12 13  1  0
 13 14  1  0
 14 15  1  0
 15 16  1  0
 16 17  1  0
 17 18  2  0
 18 19  1  0
 19 20  2  0
 20 21  1  0
 21 22  2  0
 16 23  1  0
 23 24  1  0
  2 25  1  0
 25 26  2  0
 26 27  1  0
 27 28  2  0
 28 29  1  0
 29 30  2  0
 30 31  1  0
 30 32  1  0
 32 33  2  0
 33 34  1  0
 34 35  2  0
 12  7  1  0
 24 13  1  0
 35 25  1  0
 22 17  1  0
 34 28  1  0
  3 36  1  0
  4 37  1  0
  4 38  1  0
  8 39  1  0
  8 40  1  0
  9 41  1  6
 10 42  1  0
 11 43  1  0
 11 44  1  0
 12 45  1  1
 13 46  1  1
 14 47  1  0
 14 48  1  0
 15 49  1  0
 15 50  1  0
 16 51  1  6
 18 52  1  0
 19 53  1  0
 20 54  1  0
 22 55  1  0
 23 56  1  0
 23 57  1  0
 24 58  1  0
 24 59  1  0
 26 60  1  0
 27 61  1  0
 29 62  1  0
 32 63  1  0
 33 64  1  0
M  END
>  <smiles>  (89) 
O=C(NCC(=O)N1C[C@H](O)C[C@H]1C1CCC(c2cccnc2)CC1)c1ccc2cc(F)ccc2n1

>  <score_type>  (89) 
oracle

>  <origin>  (89) 
autodockgpu

>  <m_score__min__energy>  (89) 
-10.19

>  <m_primary>  (89) 
energy

>  <rmsd>  (89) 
3.0925722319887776

>  <m_score__min__rmsd>  (89) 
3.0925722319887776

>  <meeko>  (89) 
{"free_energy": -8.12, "intermolecular_energy": -10.21, "internal_energy": -3.3, "cluster_size": 15, "cluster_id": 5, "rank_in_cluster": 9}

>  <energy>  (89) 
-6.91

>  <cluster_rmsd>  (89) 
0.29

>  <cluster>  (89) 
10

$$$$

     RDKit          3D

 64 68  0  0  1  0  0  0  0  0999 V2000
  140.0070   70.8070  221.1160 O   0  0  0  0  0  0  0  0  0  0  0  0
  139.8430   71.3660  222.2420 C   0  0  0  0  0  0  0  0  0  0  0  0
  139.7100   72.7750  222.3360 N   0  0  0  0  0  0  0  0  0  0  0  0
  139.7570   73.6160  221.1610 C   0  0  0  0  0  0  0  0  0  0  0  0
  139.8520   75.0480  221.5630 C   0  0  0  0  0  0  0  0  0  0  0  0
  139.4350   75.3470  222.7120 O   0  0  0  0  0  0  0  0  0  0  0  0
  140.3970   75.9980  220.6550 N   0  0  0  0  0  0  0  0  0  0  0  0
  139.9310   76.2380  219.2810 C   0  0  0  0  0  0  0  0  0  0  0  0
  141.1050   76.7410  218.5150 C   0  0  2  0  0  0  0  0  0  0  0  0
  141.7090   75.6900  217.7920 O   0  0  0  0  0  0  0  0  0  0  0  0
  142.0930   77.2340  219.5470 C   0  0  0  0  0  0  0  0  0  0  0  0
  141.4880   76.9050  220.8710 C   0  0  1  0  0  0  0  0  0  0  0  0
  141.0600   78.1890  221.5310 C   0  0  1  0  0  0  0  0  0  0  0  0
  141.4910   78.3010  222.9700 C   0  0  0  0  0  0  0  0  0  0  0  0
  140.6520   79.3800  223.5910 C   0  0  0  0  0  0  0  0  0  0  0  0
  140.6050   80.6630  222.8210 C   0  0  2  0  0  0  0  0  0  0  0  0
  139.2660   81.2600  223.1050 C   0  0  0  0  0  0  0  0  0  0  0  0
  138.7010   82.2170  222.2670 C   0  0  0  0  0  0  0  0  0  0  0  0
  137.4520   82.7710  222.5370 C   0  0  0  0  0  0  0  0  0  0  0  0
  136.7430   82.3720  223.6580 C   0  0  0  0  0  0  0  0  0  0  0  0
  137.3080   81.4520  224.4460 N   0  0  0  0  0  0  0  0  0  0  0  0
  138.5120   80.9040  224.2050 C   0  0  0  0  0  0  0  0  0  0  0  0
  140.7500   80.5700  221.3540 C   0  0  0  0  0  0  0  0  0  0  0  0
  141.5760   79.4290  220.8320 C   0  0  0  0  0  0  0  0  0  0  0  0
  139.7910   70.5440  223.4540 C   0  0  0  0  0  0  0  0  0  0  0  0
  139.1800   69.3080  223.4210 C   0  0  0  0  0  0  0  0  0  0  0  0
  139.1630   68.5780  224.6000 C   0  0  0  0  0  0  0  0  0  0  0  0
  139.7270   69.0470  225.7680 C   0  0  0  0  0  0  0  0  0  0  0  0
  139.7180   68.3290  226.9500 C   0  0  0  0  0  0  0  0  0  0  0  0
  140.2930   68.8280  228.1030 C   0  0  0  0  0  0  0  0  0  0  0  0
  140.2960   68.1450  229.2760 F   0  0  0  0  0  0  0  0  0  0  0  0
  140.8980   70.0820  228.0870 C   0  0  0  0  0  0  0  0  0  0  0  0
  140.9070   70.7900  226.9160 C   0  0  0  0  0  0  0  0  0  0  0  0
  140.3320   70.3010  225.7450 C   0  0  0  0  0  0  0  0  0  0  0  0
  140.3410   70.9990  224.5950 N   0  0  0  0  0  0  0  0  0  0  0  0
  139.5760   73.1670  223.3060 H   0  0  0  0  0  0  0  0  0  0  0  0
  140.6360   73.3483  220.5562 H   0  0  0  0  0  0  0  0  0  0  0  0
  138.8398   73.4661  220.5725 H   0  0  0  0  0  0  0  0  0  0  0  0
  139.5608   75.3022  218.8369 H   0  0  0  0  0  0  0  0  0  0  0  0
  139.1052   76.9645  219.2635 H   0  0  0  0  0  0  0  0  0  0  0  0
  140.8010   77.5245  217.8053 H   0  0  0  0  0  0  0  0  0  0  0  0
  142.6910   75.7930  217.8720 H   0  0  0  0  0  0  0  0  0  0  0  0
  143.0595   76.7222  219.4286 H   0  0  0  0  0  0  0  0  0  0  0  0
  142.2853   78.3121  219.4440 H   0  0  0  0  0  0  0  0  0  0  0  0
  142.2046   76.4103  221.5431 H   0  0  0  0  0  0  0  0  0  0  0  0
  139.9631   78.1401  221.4644 H   0  0  0  0  0  0  0  0  0  0  0  0
  142.5562   78.5698  223.0265 H   0  0  0  0  0  0  0  0  0  0  0  0
  141.3583   77.3449  223.4975 H   0  0  0  0  0  0  0  0  0  0  0  0
  141.0577   79.5958  224.5904 H   0  0  0  0  0  0  0  0  0  0  0  0
  139.6216   78.9955  223.6134 H   0  0  0  0  0  0  0  0  0  0  0  0
  141.4742   81.2525  223.1481 H   0  0  0  0  0  0  0  0  0  0  0  0
  139.2525   82.5426  221.3727 H   0  0  0  0  0  0  0  0  0  0  0  0
  137.0280   83.5264  221.8591 H   0  0  0  0  0  0  0  0  0  0  0  0
  135.7546   82.7953  223.8904 H   0  0  0  0  0  0  0  0  0  0  0  0
  138.9068   80.1515  224.9035 H   0  0  0  0  0  0  0  0  0  0  0  0
  141.2127   81.5047  221.0042 H   0  0  0  0  0  0  0  0  0  0  0  0
  139.7339   80.3916  220.9723 H   0  0  0  0  0  0  0  0  0  0  0  0
  142.6388   79.5868  221.0678 H   0  0  0  0  0  0  0  0  0  0  0  0
  141.4954   79.3392  219.7386 H   0  0  0  0  0  0  0  0  0  0  0  0
  138.7254   68.9177  222.4985 H   0  0  0  0  0  0  0  0  0  0  0  0
  138.6821   67.5887  224.6038 H   0  0  0  0  0  0  0  0  0  0  0  0
  139.2420   67.3376  226.9727 H   0  0  0  0  0  0  0  0  0  0  0  0
  141.3590   70.4948  228.9965 H   0  0  0  0  0  0  0  0  0  0  0  0
  141.3852   71.7804  226.8986 H   0  0  0  0  0  0  0  0  0  0  0  0
  1  2  2  0
  2  3  1  0
  3  4  1  0
  4  5  1  0
  5  6  2  0
  5  7  1  0
  7  8  1  0
  8  9  1  0
  9 10  1  0
  9 11  1  0
 11 12  1  0
 12 13  1  0
 13 14  1  0
 14 15  1  0
 15 16  1  0
 16 17  1  0
 17 18  2  0
 18 19  1  0
 19 20  2  0
 20 21  1  0
 21 22  2  0
 16 23  1  0
 23 24  1  0
  2 25  1  0
 25 26  2  0
 26 27  1  0
 27 28  2  0
 28 29  1  0
 29 30  2  0
 30 31  1  0
 30 32  1  0
 32 33  2  0
 33 34  1  0
 34 35  2  0
 12  7  1  0
 24 13  1  0
 35 25  1  0
 22 17  1  0
 34 28  1  0
  3 36  1  0
  4 37  1  0
  4 38  1  0
  8 39  1  0
  8 40  1  0
  9 41  1  6
 10 42  1  0
 11 43  1  0
 11 44  1  0
 12 45  1  1
 13 46  1  1
 14 47  1  0
 14 48  1  0
 15 49  1  0
 15 50  1  0
 16 51  1  1
 18 52  1  0
 19 53  1  0
 20 54  1  0
 22 55  1  0
 23 56  1  0
 23 57  1  0
 24 58  1  0
 24 59  1  0
 26 60  1  0
 27 61  1  0
 29 62  1  0
 32 63  1  0
 33 64  1  0
M  END
>  <smiles>  (90) 
O=C(NCC(=O)N1C[C@H](O)C[C@H]1C1CCC(c2cccnc2)CC1)c1ccc2cc(F)ccc2n1

>  <score_type>  (90) 
oracle

>  <origin>  (90) 
autodockgpu

>  <m_score__min__energy>  (90) 
-10.19

>  <m_primary>  (90) 
energy

>  <rmsd>  (90) 
1.2701672271758286

>  <m_score__min__rmsd>  (90) 
1.2701672271758286

>  <meeko>  (90) 
{"free_energy": -8.61, "intermolecular_energy": -10.7, "internal_energy": -2.25, "cluster_size": 6, "cluster_id": 2, "rank_in_cluster": 5}

>  <energy>  (90) 
-6.91

>  <cluster_rmsd>  (90) 
0.14

>  <cluster>  (90) 
10

$$$$

     RDKit          3D

 64 68  0  0  1  0  0  0  0  0999 V2000
  137.4060   70.0850  221.8340 O   0  0  0  0  0  0  0  0  0  0  0  0
  137.5790   70.7140  222.9210 C   0  0  0  0  0  0  0  0  0  0  0  0
  137.0420   72.0140  223.0980 N   0  0  0  0  0  0  0  0  0  0  0  0
  136.2840   72.6650  222.0520 C   0  0  0  0  0  0  0  0  0  0  0  0
  137.2010   73.1350  220.9760 C   0  0  0  0  0  0  0  0  0  0  0  0
  136.6680   73.6250  219.9470 O   0  0  0  0  0  0  0  0  0  0  0  0
  138.6080   73.0160  221.1500 N   0  0  0  0  0  0  0  0  0  0  0  0
  139.5260   72.3030  220.2490 C   0  0  0  0  0  0  0  0  0  0  0  0
  140.6730   71.8490  221.0820 C   0  0  2  0  0  0  0  0  0  0  0  0
  140.5030   70.5010  221.4640 O   0  0  0  0  0  0  0  0  0  0  0  0
  140.6430   72.7020  222.3300 C   0  0  0  0  0  0  0  0  0  0  0  0
  139.4190   73.5470  222.2070 C   0  0  1  0  0  0  0  0  0  0  0  0
  139.8450   74.9700  221.9610 C   0  0  1  0  0  0  0  0  0  0  0  0
  140.7740   75.1260  220.7870 C   0  0  0  0  0  0  0  0  0  0  0  0
  141.4330   76.4690  220.9310 C   0  0  0  0  0  0  0  0  0  0  0  0
  140.4920   77.6080  221.1770 C   0  0  2  0  0  0  0  0  0  0  0  0
  141.2550   78.5950  221.9990 C   0  0  0  0  0  0  0  0  0  0  0  0
  141.3910   78.4470  223.3760 C   0  0  0  0  0  0  0  0  0  0  0  0
  142.1040   79.3710  224.1380 C   0  0  0  0  0  0  0  0  0  0  0  0
  142.6950   80.4640  223.5280 C   0  0  0  0  0  0  0  0  0  0  0  0
  142.5480   80.5830  222.2040 N   0  0  0  0  0  0  0  0  0  0  0  0
  141.8660   79.7040  221.4500 C   0  0  0  0  0  0  0  0  0  0  0  0
  139.2400   77.3000  221.8980 C   0  0  0  0  0  0  0  0  0  0  0  0
  138.6870   75.9150  221.7190 C   0  0  0  0  0  0  0  0  0  0  0  0
  138.3410   70.0840  224.0030 C   0  0  0  0  0  0  0  0  0  0  0  0
  138.4530   68.7110  224.0580 C   0  0  0  0  0  0  0  0  0  0  0  0
  139.1870   68.1760  225.1060 C   0  0  0  0  0  0  0  0  0  0  0  0
  139.7900   68.9640  226.0640 C   0  0  0  0  0  0  0  0  0  0  0  0
  140.5260   68.4440  227.1140 C   0  0  0  0  0  0  0  0  0  0  0  0
  141.1160   69.2620  228.0570 C   0  0  0  0  0  0  0  0  0  0  0  0
  141.8420   68.7770  229.0970 F   0  0  0  0  0  0  0  0  0  0  0  0
  140.9750   70.6440  227.9600 C   0  0  0  0  0  0  0  0  0  0  0  0
  140.2480   71.1570  226.9210 C   0  0  0  0  0  0  0  0  0  0  0  0
  139.6460   70.3460  225.9610 C   0  0  0  0  0  0  0  0  0  0  0  0
  138.9310   70.8510  224.9400 N   0  0  0  0  0  0  0  0  0  0  0  0
  137.2260   72.4730  224.0290 H   0  0  0  0  0  0  0  0  0  0  0  0
  135.5607   71.9525  221.6288 H   0  0  0  0  0  0  0  0  0  0  0  0
  135.7516   73.5292  222.4760 H   0  0  0  0  0  0  0  0  0  0  0  0
  139.0188   71.4375  219.7977 H   0  0  0  0  0  0  0  0  0  0  0  0
  139.8642   72.9552  219.4303 H   0  0  0  0  0  0  0  0  0  0  0  0
  141.6177   71.9381  220.5256 H   0  0  0  0  0  0  0  0  0  0  0  0
  139.5330   70.3010  221.4440 H   0  0  0  0  0  0  0  0  0  0  0  0
  140.5840   72.0684  223.2272 H   0  0  0  0  0  0  0  0  0  0  0  0
  141.5523   73.3132  222.4281 H   0  0  0  0  0  0  0  0  0  0  0  0
  138.8149   73.5372  223.1262 H   0  0  0  0  0  0  0  0  0  0  0  0
  140.3632   75.2316  222.8954 H   0  0  0  0  0  0  0  0  0  0  0  0
  140.2060   75.0817  219.8460 H   0  0  0  0  0  0  0  0  0  0  0  0
  141.5217   74.3195  220.7651 H   0  0  0  0  0  0  0  0  0  0  0  0
  141.9888   76.6783  220.0051 H   0  0  0  0  0  0  0  0  0  0  0  0
  142.0782   76.4033  221.8195 H   0  0  0  0  0  0  0  0  0  0  0  0
  140.1620   77.9571  220.1874 H   0  0  0  0  0  0  0  0  0  0  0  0
  140.9262   77.5829  223.8734 H   0  0  0  0  0  0  0  0  0  0  0  0
  142.1971   79.2315  225.2251 H   0  0  0  0  0  0  0  0  0  0  0  0
  143.2631   81.2053  224.1092 H   0  0  0  0  0  0  0  0  0  0  0  0
  141.7928   79.8732  220.3655 H   0  0  0  0  0  0  0  0  0  0  0  0
  138.4742   78.0123  221.5572 H   0  0  0  0  0  0  0  0  0  0  0  0
  139.4925   77.3769  222.9659 H   0  0  0  0  0  0  0  0  0  0  0  0
  138.2967   75.7880  220.6984 H   0  0  0  0  0  0  0  0  0  0  0  0
  137.8555   75.7199  222.4122 H   0  0  0  0  0  0  0  0  0  0  0  0
  137.9799   68.0668  223.3022 H   0  0  0  0  0  0  0  0  0  0  0  0
  139.2921   67.0833  225.1758 H   0  0  0  0  0  0  0  0  0  0  0  0
  140.6438   67.3537  227.1994 H   0  0  0  0  0  0  0  0  0  0  0  0
  141.4386   71.3092  228.7034 H   0  0  0  0  0  0  0  0  0  0  0  0
  140.1346   72.2482  226.8405 H   0  0  0  0  0  0  0  0  0  0  0  0
  1  2  2  0
  2  3  1  0
  3  4  1  0
  4  5  1  0
  5  6  2  0
  5  7  1  0
  7  8  1  0
  8  9  1  0
  9 10  1  0
  9 11  1  0
 11 12  1  0
 12 13  1  0
 13 14  1  0
 14 15  1  0
 15 16  1  0
 16 17  1  0
 17 18  2  0
 18 19  1  0
 19 20  2  0
 20 21  1  0
 21 22  2  0
 16 23  1  0
 23 24  1  0
  2 25  1  0
 25 26  2  0
 26 27  1  0
 27 28  2  0
 28 29  1  0
 29 30  2  0
 30 31  1  0
 30 32  1  0
 32 33  2  0
 33 34  1  0
 34 35  2  0
 12  7  1  0
 24 13  1  0
 35 25  1  0
 22 17  1  0
 34 28  1  0
  3 36  1  0
  4 37  1  0
  4 38  1  0
  8 39  1  0
  8 40  1  0
  9 41  1  6
 10 42  1  0
 11 43  1  0
 11 44  1  0
 12 45  1  1
 13 46  1  1
 14 47  1  0
 14 48  1  0
 15 49  1  0
 15 50  1  0
 16 51  1  6
 18 52  1  0
 19 53  1  0
 20 54  1  0
 22 55  1  0
 23 56  1  0
 23 57  1  0
 24 58  1  0
 24 59  1  0
 26 60  1  0
 27 61  1  0
 29 62  1  0
 32 63  1  0
 33 64  1  0
M  END
>  <smiles>  (91) 
O=C(NCC(=O)N1C[C@H](O)C[C@H]1C1CCC(c2cccnc2)CC1)c1ccc2cc(F)ccc2n1

>  <score_type>  (91) 
oracle

>  <origin>  (91) 
autodockgpu

>  <m_score__min__energy>  (91) 
-10.19

>  <m_primary>  (91) 
energy

>  <rmsd>  (91) 
3.095087685796835

>  <m_score__min__rmsd>  (91) 
3.095087685796835

>  <meeko>  (91) 
{"free_energy": -8.16, "intermolecular_energy": -10.24, "internal_energy": -3.31, "cluster_size": 15, "cluster_id": 5, "rank_in_cluster": 7}

>  <energy>  (91) 
-6.87

>  <cluster_rmsd>  (91) 
0.2

>  <cluster>  (91) 
10

$$$$

     RDKit          3D

 64 68  0  0  1  0  0  0  0  0999 V2000
  141.3340   77.3620  217.3970 O   0  0  0  0  0  0  0  0  0  0  0  0
  141.4190   77.1170  218.6380 C   0  0  0  0  0  0  0  0  0  0  0  0
  141.3130   75.7880  219.1210 N   0  0  0  0  0  0  0  0  0  0  0  0
  141.1050   74.6740  218.2230 C   0  0  0  0  0  0  0  0  0  0  0  0
  142.4050   74.0140  217.9200 C   0  0  0  0  0  0  0  0  0  0  0  0
  142.7480   73.9570  216.7110 O   0  0  0  0  0  0  0  0  0  0  0  0
  143.1910   73.4870  218.9830 N   0  0  0  0  0  0  0  0  0  0  0  0
  144.1830   74.2360  219.7690 C   0  0  0  0  0  0  0  0  0  0  0  0
  145.1890   73.2440  220.2400 C   0  0  2  0  0  0  0  0  0  0  0  0
  146.3190   73.2470  219.3940 O   0  0  0  0  0  0  0  0  0  0  0  0
  144.5220   71.8920  220.1310 C   0  0  0  0  0  0  0  0  0  0  0  0
  143.1900   72.1520  219.5090 C   0  0  1  0  0  0  0  0  0  0  0  0
  142.1260   71.9330  220.5510 C   0  0  1  0  0  0  0  0  0  0  0  0
  141.4600   73.2030  221.0090 C   0  0  0  0  0  0  0  0  0  0  0  0
  140.7700   72.8870  222.3060 C   0  0  0  0  0  0  0  0  0  0  0  0
  139.9020   71.6680  222.2760 C   0  0  2  0  0  0  0  0  0  0  0  0
  139.9390   71.1080  223.6600 C   0  0  0  0  0  0  0  0  0  0  0  0
  139.2210   69.9660  224.0040 C   0  0  0  0  0  0  0  0  0  0  0  0
  139.2590   69.4470  225.2970 C   0  0  0  0  0  0  0  0  0  0  0  0
  140.0220   70.0690  226.2710 C   0  0  0  0  0  0  0  0  0  0  0  0
  140.7010   71.1640  225.9150 N   0  0  0  0  0  0  0  0  0  0  0  0
  140.6790   71.6810  224.6740 C   0  0  0  0  0  0  0  0  0  0  0  0
  140.2950   70.5880  221.3470 C   0  0  0  0  0  0  0  0  0  0  0  0
  141.0170   71.0070  220.0990 C   0  0  0  0  0  0  0  0  0  0  0  0
  141.6310   78.2220  219.5770 C   0  0  0  0  0  0  0  0  0  0  0  0
  141.8230   79.5020  219.1010 C   0  0  0  0  0  0  0  0  0  0  0  0
  142.0180   80.5040  220.0400 C   0  0  0  0  0  0  0  0  0  0  0  0
  142.0220   80.2560  221.3960 C   0  0  0  0  0  0  0  0  0  0  0  0
  142.2140   81.2460  222.3430 C   0  0  0  0  0  0  0  0  0  0  0  0
  142.2130   80.9630  223.6950 C   0  0  0  0  0  0  0  0  0  0  0  0
  142.4000   81.9150  224.6440 F   0  0  0  0  0  0  0  0  0  0  0  0
  142.0140   79.6540  224.1280 C   0  0  0  0  0  0  0  0  0  0  0  0
  141.8230   78.6760  223.1890 C   0  0  0  0  0  0  0  0  0  0  0  0
  141.8220   78.9450  221.8220 C   0  0  0  0  0  0  0  0  0  0  0  0
  141.6350   77.9820  220.9020 N   0  0  0  0  0  0  0  0  0  0  0  0
  141.3940   75.6630  220.1650 H   0  0  0  0  0  0  0  0  0  0  0  0
  140.4287   73.9466  218.6957 H   0  0  0  0  0  0  0  0  0  0  0  0
  140.6608   75.0431  217.2868 H   0  0  0  0  0  0  0  0  0  0  0  0
  144.6670   74.9988  219.1415 H   0  0  0  0  0  0  0  0  0  0  0  0
  143.7093   74.7536  220.6161 H   0  0  0  0  0  0  0  0  0  0  0  0
  145.5167   73.4785  221.2635 H   0  0  0  0  0  0  0  0  0  0  0  0
  146.3800   74.1420  218.9730 H   0  0  0  0  0  0  0  0  0  0  0  0
  145.1178   71.2197  219.4962 H   0  0  0  0  0  0  0  0  0  0  0  0
  144.4254   71.4048  221.1125 H   0  0  0  0  0  0  0  0  0  0  0  0
  142.9810   71.4658  218.6750 H   0  0  0  0  0  0  0  0  0  0  0  0
  142.6902   71.4781  221.3785 H   0  0  0  0  0  0  0  0  0  0  0  0
  140.7259   73.5369  220.2609 H   0  0  0  0  0  0  0  0  0  0  0  0
  142.1959   74.0102  221.1394 H   0  0  0  0  0  0  0  0  0  0  0  0
  140.1413   73.7478  222.5774 H   0  0  0  0  0  0  0  0  0  0  0  0
  141.5656   72.6819  223.0374 H   0  0  0  0  0  0  0  0  0  0  0  0
  138.9163   71.9978  221.9159 H   0  0  0  0  0  0  0  0  0  0  0  0
  138.6109   69.4628  223.2394 H   0  0  0  0  0  0  0  0  0  0  0  0
  138.6828   68.5431  225.5438 H   0  0  0  0  0  0  0  0  0  0  0  0
  140.0676   69.6772  227.2978 H   0  0  0  0  0  0  0  0  0  0  0  0
  141.2672   72.5858  224.4611 H   0  0  0  0  0  0  0  0  0  0  0  0
  139.3795   70.0600  221.0420 H   0  0  0  0  0  0  0  0  0  0  0  0
  141.0140   69.9709  221.9058 H   0  0  0  0  0  0  0  0  0  0  0  0
  140.3315   71.5345  219.4194 H   0  0  0  0  0  0  0  0  0  0  0  0
  141.4139   70.1392  219.5519 H   0  0  0  0  0  0  0  0  0  0  0  0
  141.8216   79.7190  218.0226 H   0  0  0  0  0  0  0  0  0  0  0  0
  142.1753   81.5348  219.6897 H   0  0  0  0  0  0  0  0  0  0  0  0
  142.3712   82.2830  222.0115 H   0  0  0  0  0  0  0  0  0  0  0  0
  142.0104   79.4114  225.2009 H   0  0  0  0  0  0  0  0  0  0  0  0
  141.6647   77.6409  223.5259 H   0  0  0  0  0  0  0  0  0  0  0  0
  1  2  2  0
  2  3  1  0
  3  4  1  0
  4  5  1  0
  5  6  2  0
  5  7  1  0
  7  8  1  0
  8  9  1  0
  9 10  1  0
  9 11  1  0
 11 12  1  0
 12 13  1  0
 13 14  1  0
 14 15  1  0
 15 16  1  0
 16 17  1  0
 17 18  2  0
 18 19  1  0
 19 20  2  0
 20 21  1  0
 21 22  2  0
 16 23  1  0
 23 24  1  0
  2 25  1  0
 25 26  2  0
 26 27  1  0
 27 28  2  0
 28 29  1  0
 29 30  2  0
 30 31  1  0
 30 32  1  0
 32 33  2  0
 33 34  1  0
 34 35  2  0
 12  7  1  0
 24 13  1  0
 35 25  1  0
 22 17  1  0
 34 28  1  0
  3 36  1  0
  4 37  1  0
  4 38  1  0
  8 39  1  0
  8 40  1  0
  9 41  1  1
 10 42  1  0
 11 43  1  0
 11 44  1  0
 12 45  1  6
 13 46  1  1
 14 47  1  0
 14 48  1  0
 15 49  1  0
 15 50  1  0
 16 51  1  6
 18 52  1  0
 19 53  1  0
 20 54  1  0
 22 55  1  0
 23 56  1  0
 23 57  1  0
 24 58  1  0
 24 59  1  0
 26 60  1  0
 27 61  1  0
 29 62  1  0
 32 63  1  0
 33 64  1  0
M  END
>  <smiles>  (92) 
O=C(NCC(=O)N1C[C@H](O)C[C@H]1C1CCC(c2cccnc2)CC1)c1ccc2cc(F)ccc2n1

>  <score_type>  (92) 
oracle

>  <origin>  (92) 
autodockgpu

>  <m_score__min__energy>  (92) 
-10.19

>  <m_primary>  (92) 
energy

>  <rmsd>  (92) 
8.776528205697954

>  <m_score__min__rmsd>  (92) 
8.776528205697954

>  <meeko>  (92) 
{"free_energy": -8.19, "intermolecular_energy": -10.28, "internal_energy": -2.19, "cluster_size": 2, "cluster_id": 6, "rank_in_cluster": 2}

>  <energy>  (92) 
-6.86

>  <cluster_rmsd>  (92) 
0.53

>  <cluster>  (92) 
10

$$$$

     RDKit          3D

 64 68  0  0  1  0  0  0  0  0999 V2000
  138.8610   70.3530  220.2620 O   0  0  0  0  0  0  0  0  0  0  0  0
  139.6550   70.8840  221.0950 C   0  0  0  0  0  0  0  0  0  0  0  0
  140.5690   71.8880  220.6860 N   0  0  0  0  0  0  0  0  0  0  0  0
  140.6270   72.3390  219.3130 C   0  0  0  0  0  0  0  0  0  0  0  0
  141.9980   72.1350  218.7670 C   0  0  0  0  0  0  0  0  0  0  0  0
  142.1220   71.3040  217.8300 O   0  0  0  0  0  0  0  0  0  0  0  0
  143.0880   72.8680  219.3130 N   0  0  0  0  0  0  0  0  0  0  0  0
  144.3050   73.2630  218.5880 C   0  0  0  0  0  0  0  0  0  0  0  0
  145.3900   73.3680  219.6020 C   0  0  2  0  0  0  0  0  0  0  0  0
  146.1630   72.1870  219.6210 O   0  0  0  0  0  0  0  0  0  0  0  0
  144.6980   73.5010  220.9390 C   0  0  0  0  0  0  0  0  0  0  0  0
  143.2390   73.3700  220.6490 C   0  0  1  0  0  0  0  0  0  0  0  0
  142.5910   74.7140  220.8460 C   0  0  1  0  0  0  0  0  0  0  0  0
  142.4980   75.5300  219.5850 C   0  0  0  0  0  0  0  0  0  0  0  0
  142.2470   76.9510  220.0060 C   0  0  0  0  0  0  0  0  0  0  0  0
  141.1280   77.1290  220.9840 C   0  0  2  0  0  0  0  0  0  0  0  0
  141.4940   78.3200  221.8080 C   0  0  0  0  0  0  0  0  0  0  0  0
  141.8380   79.5350  221.2220 C   0  0  0  0  0  0  0  0  0  0  0  0
  142.1780   80.6430  221.9950 C   0  0  0  0  0  0  0  0  0  0  0  0
  142.1790   80.5510  223.3770 C   0  0  0  0  0  0  0  0  0  0  0  0
  141.8450   79.3730  223.9140 N   0  0  0  0  0  0  0  0  0  0  0  0
  141.5140   78.2920  223.1880 C   0  0  0  0  0  0  0  0  0  0  0  0
  140.8630   76.0100  221.9110 C   0  0  0  0  0  0  0  0  0  0  0  0
  141.1870   74.6320  221.4080 C   0  0  0  0  0  0  0  0  0  0  0  0
  139.6230   70.4530  222.4960 C   0  0  0  0  0  0  0  0  0  0  0  0
  138.8910   69.3410  222.8570 C   0  0  0  0  0  0  0  0  0  0  0  0
  138.9010   68.9840  224.1970 C   0  0  0  0  0  0  0  0  0  0  0  0
  139.6060   69.6940  225.1460 C   0  0  0  0  0  0  0  0  0  0  0  0
  139.6250   69.3470  226.4850 C   0  0  0  0  0  0  0  0  0  0  0  0
  140.3420   70.0810  227.4110 C   0  0  0  0  0  0  0  0  0  0  0  0
  140.3770   69.7640  228.7300 F   0  0  0  0  0  0  0  0  0  0  0  0
  141.0670   71.1960  226.9980 C   0  0  0  0  0  0  0  0  0  0  0  0
  141.0470   71.5360  225.6730 C   0  0  0  0  0  0  0  0  0  0  0  0
  140.3290   70.8070  224.7270 C   0  0  0  0  0  0  0  0  0  0  0  0
  140.3110   71.1430  223.4250 N   0  0  0  0  0  0  0  0  0  0  0  0
  141.1960   72.2830  221.4350 H   0  0  0  0  0  0  0  0  0  0  0  0
  139.9062   71.7665  218.7108 H   0  0  0  0  0  0  0  0  0  0  0  0
  140.3785   73.4099  219.2740 H   0  0  0  0  0  0  0  0  0  0  0  0
  144.5616   72.5032  217.8351 H   0  0  0  0  0  0  0  0  0  0  0  0
  144.1605   74.2181  218.0618 H   0  0  0  0  0  0  0  0  0  0  0  0
  146.0523   74.2170  219.3771 H   0  0  0  0  0  0  0  0  0  0  0  0
  146.0220   71.7470  220.4970 H   0  0  0  0  0  0  0  0  0  0  0  0
  145.0269   72.7046  221.6228 H   0  0  0  0  0  0  0  0  0  0  0  0
  144.9325   74.4591  221.4259 H   0  0  0  0  0  0  0  0  0  0  0  0
  142.7436   72.6616  221.3292 H   0  0  0  0  0  0  0  0  0  0  0  0
  143.2639   75.2020  221.5665 H   0  0  0  0  0  0  0  0  0  0  0  0
  141.6685   75.1680  218.9598 H   0  0  0  0  0  0  0  0  0  0  0  0
  143.4222   75.4504  218.9938 H   0  0  0  0  0  0  0  0  0  0  0  0
  142.0110   77.5377  219.1059 H   0  0  0  0  0  0  0  0  0  0  0  0
  143.1608   77.2878  220.5173 H   0  0  0  0  0  0  0  0  0  0  0  0
  140.2074   77.2187  220.3887 H   0  0  0  0  0  0  0  0  0  0  0  0
  141.8414   79.6220  220.1255 H   0  0  0  0  0  0  0  0  0  0  0  0
  142.4459   81.5919  221.5073 H   0  0  0  0  0  0  0  0  0  0  0  0
  142.4440   81.4126  224.0075 H   0  0  0  0  0  0  0  0  0  0  0  0
  141.2517   77.3587  223.7077 H   0  0  0  0  0  0  0  0  0  0  0  0
  139.7924   76.0308  222.1626 H   0  0  0  0  0  0  0  0  0  0  0  0
  141.5363   76.1739  222.7653 H   0  0  0  0  0  0  0  0  0  0  0  0
  140.4771   74.3350  220.6220 H   0  0  0  0  0  0  0  0  0  0  0  0
  141.1165   73.8826  222.2102 H   0  0  0  0  0  0  0  0  0  0  0  0
  138.3235   68.7620  222.1136 H   0  0  0  0  0  0  0  0  0  0  0  0
  138.3254   68.1021  224.5146 H   0  0  0  0  0  0  0  0  0  0  0  0
  139.0566   68.4670  226.8204 H   0  0  0  0  0  0  0  0  0  0  0  0
  141.6435   71.7907  227.7218 H   0  0  0  0  0  0  0  0  0  0  0  0
  141.6180   72.4162  225.3426 H   0  0  0  0  0  0  0  0  0  0  0  0
  1  2  2  0
  2  3  1  0
  3  4  1  0
  4  5  1  0
  5  6  2  0
  5  7  1  0
  7  8  1  0
  8  9  1  0
  9 10  1  0
  9 11  1  0
 11 12  1  0
 12 13  1  0
 13 14  1  0
 14 15  1  0
 15 16  1  0
 16 17  1  0
 17 18  2  0
 18 19  1  0
 19 20  2  0
 20 21  1  0
 21 22  2  0
 16 23  1  0
 23 24  1  0
  2 25  1  0
 25 26  2  0
 26 27  1  0
 27 28  2  0
 28 29  1  0
 29 30  2  0
 30 31  1  0
 30 32  1  0
 32 33  2  0
 33 34  1  0
 34 35  2  0
 12  7  1  0
 24 13  1  0
 35 25  1  0
 22 17  1  0
 34 28  1  0
  3 36  1  0
  4 37  1  0
  4 38  1  0
  8 39  1  0
  8 40  1  0
  9 41  1  6
 10 42  1  0
 11 43  1  0
 11 44  1  0
 12 45  1  1
 13 46  1  1
 14 47  1  0
 14 48  1  0
 15 49  1  0
 15 50  1  0
 16 51  1  6
 18 52  1  0
 19 53  1  0
 20 54  1  0
 22 55  1  0
 23 56  1  0
 23 57  1  0
 24 58  1  0
 24 59  1  0
 26 60  1  0
 27 61  1  0
 29 62  1  0
 32 63  1  0
 33 64  1  0
M  END
>  <smiles>  (93) 
O=C(NCC(=O)N1C[C@H](O)C[C@H]1C1CCC(c2cccnc2)CC1)c1ccc2cc(F)ccc2n1

>  <score_type>  (93) 
oracle

>  <origin>  (93) 
autodockgpu

>  <m_score__min__energy>  (93) 
-10.19

>  <m_primary>  (93) 
energy

>  <rmsd>  (93) 
3.5905814018744535

>  <m_score__min__rmsd>  (93) 
3.5905814018744535

>  <meeko>  (93) 
{"free_energy": -8.95, "intermolecular_energy": -11.04, "internal_energy": -2.09, "cluster_size": 9, "cluster_id": 1, "rank_in_cluster": 5}

>  <energy>  (93) 
-6.86

>  <cluster_rmsd>  (93) 
0.11

>  <cluster>  (93) 
10

$$$$

     RDKit          3D

 64 68  0  0  1  0  0  0  0  0999 V2000
  141.3900   72.2100  221.7420 O   0  0  0  0  0  0  0  0  0  0  0  0
  140.4110   72.3320  222.5380 C   0  0  0  0  0  0  0  0  0  0  0  0
  139.4850   73.3950  222.3870 N   0  0  0  0  0  0  0  0  0  0  0  0
  139.6240   74.3710  221.3290 C   0  0  0  0  0  0  0  0  0  0  0  0
  139.2330   75.7200  221.8250 C   0  0  0  0  0  0  0  0  0  0  0  0
  138.1960   75.7890  222.5350 O   0  0  0  0  0  0  0  0  0  0  0  0
  140.0270   76.8510  221.4860 N   0  0  0  0  0  0  0  0  0  0  0  0
  140.4320   77.2390  220.1270 C   0  0  0  0  0  0  0  0  0  0  0  0
  141.7170   77.9810  220.2610 C   0  0  2  0  0  0  0  0  0  0  0  0
  142.8090   77.1250  220.0040 O   0  0  0  0  0  0  0  0  0  0  0  0
  141.7920   78.4230  221.7040 C   0  0  0  0  0  0  0  0  0  0  0  0
  140.5920   77.8330  222.3670 C   0  0  1  0  0  0  0  0  0  0  0  0
  139.6330   78.9470  222.6940 C   0  0  1  0  0  0  0  0  0  0  0  0
  140.1250   80.3080  222.2790 C   0  0  0  0  0  0  0  0  0  0  0  0
  139.3030   81.3140  223.0340 C   0  0  0  0  0  0  0  0  0  0  0  0
  137.8240   81.1030  222.9570 C   0  0  2  0  0  0  0  0  0  0  0  0
  137.2710   81.6200  224.2450 C   0  0  0  0  0  0  0  0  0  0  0  0
  137.3570   80.8850  225.4230 C   0  0  0  0  0  0  0  0  0  0  0  0
  136.8400   81.3730  226.6220 C   0  0  0  0  0  0  0  0  0  0  0  0
  136.2260   82.6130  226.6590 C   0  0  0  0  0  0  0  0  0  0  0  0
  136.1570   83.2990  225.5140 N   0  0  0  0  0  0  0  0  0  0  0  0
  136.6490   82.8490  224.3460 C   0  0  0  0  0  0  0  0  0  0  0  0
  137.3520   79.7120  222.7960 C   0  0  0  0  0  0  0  0  0  0  0  0
  138.2680   78.7740  222.0620 C   0  0  0  0  0  0  0  0  0  0  0  0
  140.2390   71.3610  223.6220 C   0  0  0  0  0  0  0  0  0  0  0  0
  139.6020   70.1620  223.3770 C   0  0  0  0  0  0  0  0  0  0  0  0
  139.4700   69.2850  224.4430 C   0  0  0  0  0  0  0  0  0  0  0  0
  139.9480   69.5770  225.7030 C   0  0  0  0  0  0  0  0  0  0  0  0
  139.8250   68.7110  226.7750 C   0  0  0  0  0  0  0  0  0  0  0  0
  140.3150   69.0350  228.0260 C   0  0  0  0  0  0  0  0  0  0  0  0
  140.2060   68.2040  229.0940 F   0  0  0  0  0  0  0  0  0  0  0  0
  140.9520   70.2570  228.2240 C   0  0  0  0  0  0  0  0  0  0  0  0
  141.0740   71.1120  227.1620 C   0  0  0  0  0  0  0  0  0  0  0  0
  140.5840   70.8010  225.8950 C   0  0  0  0  0  0  0  0  0  0  0  0
  140.7050   71.6430  224.8530 N   0  0  0  0  0  0  0  0  0  0  0  0
  138.6960   73.4310  223.0860 H   0  0  0  0  0  0  0  0  0  0  0  0
  140.6708   74.3962  220.9920 H   0  0  0  0  0  0  0  0  0  0  0  0
  138.9687   74.0907  220.4911 H   0  0  0  0  0  0  0  0  0  0  0  0
  140.5738   76.3441  219.5032 H   0  0  0  0  0  0  0  0  0  0  0  0
  139.6629   77.8615  219.6465 H   0  0  0  0  0  0  0  0  0  0  0  0
  141.7574   78.8223  219.5535 H   0  0  0  0  0  0  0  0  0  0  0  0
  143.6070   77.5100  220.4470 H   0  0  0  0  0  0  0  0  0  0  0  0
  142.7134   78.0477  222.1732 H   0  0  0  0  0  0  0  0  0  0  0  0
  141.8090   79.5192  221.7937 H   0  0  0  0  0  0  0  0  0  0  0  0
  140.8461   77.3273  223.3103 H   0  0  0  0  0  0  0  0  0  0  0  0
  139.5582   78.8868  223.7898 H   0  0  0  0  0  0  0  0  0  0  0  0
  139.9910   80.4454  221.1959 H   0  0  0  0  0  0  0  0  0  0  0  0
  141.1959   80.4259  222.5012 H   0  0  0  0  0  0  0  0  0  0  0  0
  139.5275   82.3118  222.6291 H   0  0  0  0  0  0  0  0  0  0  0  0
  139.5760   81.2030  224.0938 H   0  0  0  0  0  0  0  0  0  0  0  0
  137.4852   81.6175  222.0457 H   0  0  0  0  0  0  0  0  0  0  0  0
  137.8430   79.8983  225.4080 H   0  0  0  0  0  0  0  0  0  0  0  0
  136.9200   80.7720  227.5398 H   0  0  0  0  0  0  0  0  0  0  0  0
  135.8112   83.0179  227.5939 H   0  0  0  0  0  0  0  0  0  0  0  0
  136.5535   83.4763  223.4475 H   0  0  0  0  0  0  0  0  0  0  0  0
  136.3982   79.7439  222.2490 H   0  0  0  0  0  0  0  0  0  0  0  0
  137.2799   79.3090  223.8170 H   0  0  0  0  0  0  0  0  0  0  0  0
  138.3054   79.0337  220.9937 H   0  0  0  0  0  0  0  0  0  0  0  0
  137.9199   77.7329  222.1317 H   0  0  0  0  0  0  0  0  0  0  0  0
  139.2151   69.9122  222.3780 H   0  0  0  0  0  0  0  0  0  0  0  0
  138.9657   68.3215  224.2775 H   0  0  0  0  0  0  0  0  0  0  0  0
  139.3255   67.7420  226.6282 H   0  0  0  0  0  0  0  0  0  0  0  0
  141.3489   70.5297  229.2130 H   0  0  0  0  0  0  0  0  0  0  0  0
  141.5765   72.0786  227.3140 H   0  0  0  0  0  0  0  0  0  0  0  0
  1  2  2  0
  2  3  1  0
  3  4  1  0
  4  5  1  0
  5  6  2  0
  5  7  1  0
  7  8  1  0
  8  9  1  0
  9 10  1  0
  9 11  1  0
 11 12  1  0
 12 13  1  0
 13 14  1  0
 14 15  1  0
 15 16  1  0
 16 17  1  0
 17 18  2  0
 18 19  1  0
 19 20  2  0
 20 21  1  0
 21 22  2  0
 16 23  1  0
 23 24  1  0
  2 25  1  0
 25 26  2  0
 26 27  1  0
 27 28  2  0
 28 29  1  0
 29 30  2  0
 30 31  1  0
 30 32  1  0
 32 33  2  0
 33 34  1  0
 34 35  2  0
 12  7  1  0
 24 13  1  0
 35 25  1  0
 22 17  1  0
 34 28  1  0
  3 36  1  0
  4 37  1  0
  4 38  1  0
  8 39  1  0
  8 40  1  0
  9 41  1  6
 10 42  1  0
 11 43  1  0
 11 44  1  0
 12 45  1  1
 13 46  1  1
 14 47  1  0
 14 48  1  0
 15 49  1  0
 15 50  1  0
 16 51  1  6
 18 52  1  0
 19 53  1  0
 20 54  1  0
 22 55  1  0
 23 56  1  0
 23 57  1  0
 24 58  1  0
 24 59  1  0
 26 60  1  0
 27 61  1  0
 29 62  1  0
 32 63  1  0
 33 64  1  0
M  END
>  <smiles>  (94) 
O=C(NCC(=O)N1C[C@H](O)C[C@H]1C1CCC(c2cccnc2)CC1)c1ccc2cc(F)ccc2n1

>  <score_type>  (94) 
oracle

>  <origin>  (94) 
autodockgpu

>  <m_score__min__energy>  (94) 
-10.19

>  <m_primary>  (94) 
energy

>  <rmsd>  (94) 
2.263781381876518

>  <m_score__min__rmsd>  (94) 
2.263781381876518

>  <meeko>  (94) 
{"free_energy": -9.47, "intermolecular_energy": -11.56, "internal_energy": -1.82, "cluster_size": 6, "cluster_id": 2, "rank_in_cluster": 2}

>  <energy>  (94) 
-6.84

>  <cluster_rmsd>  (94) 
0.22

>  <cluster>  (94) 
10

$$$$

     RDKit          3D

 64 68  0  0  1  0  0  0  0  0999 V2000
  139.2620   70.9460  221.4570 O   0  0  0  0  0  0  0  0  0  0  0  0
  138.8200   71.4280  222.5430 C   0  0  0  0  0  0  0  0  0  0  0  0
  137.7330   72.3380  222.5420 N   0  0  0  0  0  0  0  0  0  0  0  0
  137.0950   72.7460  221.3100 C   0  0  0  0  0  0  0  0  0  0  0  0
  137.7130   74.0050  220.8090 C   0  0  0  0  0  0  0  0  0  0  0  0
  136.9320   74.9500  220.5240 O   0  0  0  0  0  0  0  0  0  0  0  0
  139.1270   74.0900  220.6750 N   0  0  0  0  0  0  0  0  0  0  0  0
  139.8950   73.7730  219.4620 C   0  0  0  0  0  0  0  0  0  0  0  0
  141.2460   73.3400  219.9140 C   0  0  2  0  0  0  0  0  0  0  0  0
  141.3240   71.9310  219.9520 O   0  0  0  0  0  0  0  0  0  0  0  0
  141.3980   73.8600  221.3250 C   0  0  0  0  0  0  0  0  0  0  0  0
  140.0880   74.4900  221.6630 C   0  0  1  0  0  0  0  0  0  0  0  0
  140.2790   75.9820  221.7240 C   0  0  1  0  0  0  0  0  0  0  0  0
  140.9460   76.5560  220.5030 C   0  0  0  0  0  0  0  0  0  0  0  0
  141.4460   77.9210  220.8830 C   0  0  0  0  0  0  0  0  0  0  0  0
  140.4320   78.7990  221.5470 C   0  0  2  0  0  0  0  0  0  0  0  0
  141.2040   79.6860  222.4690 C   0  0  0  0  0  0  0  0  0  0  0  0
  142.5950   79.6640  222.5080 C   0  0  0  0  0  0  0  0  0  0  0  0
  143.3100   80.4940  223.3690 C   0  0  0  0  0  0  0  0  0  0  0  0
  142.6380   81.3650  224.2100 C   0  0  0  0  0  0  0  0  0  0  0  0
  141.3020   81.3670  224.1520 N   0  0  0  0  0  0  0  0  0  0  0  0
  140.5920   80.5760  223.3300 C   0  0  0  0  0  0  0  0  0  0  0  0
  139.3850   78.1300  222.3450 C   0  0  0  0  0  0  0  0  0  0  0  0
  138.9860   76.7500  221.9060 C   0  0  0  0  0  0  0  0  0  0  0  0
  139.4430   71.0350  223.8110 C   0  0  0  0  0  0  0  0  0  0  0  0
  140.3380   71.8820  224.4300 C   0  0  0  0  0  0  0  0  0  0  0  0
  140.8920   71.4540  225.6270 C   0  0  0  0  0  0  0  0  0  0  0  0
  140.5760   70.2380  226.1940 C   0  0  0  0  0  0  0  0  0  0  0  0
  141.1210   69.7990  227.3880 C   0  0  0  0  0  0  0  0  0  0  0  0
  140.7820   68.5740  227.9290 C   0  0  0  0  0  0  0  0  0  0  0  0
  141.3030   68.1190  229.0970 F   0  0  0  0  0  0  0  0  0  0  0  0
  139.8730   67.7530  227.2680 C   0  0  0  0  0  0  0  0  0  0  0  0
  139.3350   68.1890  226.0870 C   0  0  0  0  0  0  0  0  0  0  0  0
  139.6650   69.4210  225.5280 C   0  0  0  0  0  0  0  0  0  0  0  0
  139.1350   69.8480  224.3680 N   0  0  0  0  0  0  0  0  0  0  0  0
  137.4210   72.6950  223.4830 H   0  0  0  0  0  0  0  0  0  0  0  0
  137.2187   71.9545  220.5562 H   0  0  0  0  0  0  0  0  0  0  0  0
  136.0250   72.9187  221.4975 H   0  0  0  0  0  0  0  0  0  0  0  0
  139.4041   72.9627  218.9031 H   0  0  0  0  0  0  0  0  0  0  0  0
  139.9608   74.6454  218.7953 H   0  0  0  0  0  0  0  0  0  0  0  0
  142.0243   73.7162  219.2337 H   0  0  0  0  0  0  0  0  0  0  0  0
  140.5280   71.5960  220.4370 H   0  0  0  0  0  0  0  0  0  0  0  0
  141.6169   73.0337  222.0174 H   0  0  0  0  0  0  0  0  0  0  0  0
  142.2282   74.5769  221.4077 H   0  0  0  0  0  0  0  0  0  0  0  0
  139.7120   74.1643  222.6441 H   0  0  0  0  0  0  0  0  0  0  0  0
  140.9259   76.1057  222.6050 H   0  0  0  0  0  0  0  0  0  0  0  0
  140.2229   76.6337  219.6777 H   0  0  0  0  0  0  0  0  0  0  0  0
  141.7720   75.9129  220.1653 H   0  0  0  0  0  0  0  0  0  0  0  0
  141.7896   78.4263  219.9683 H   0  0  0  0  0  0  0  0  0  0  0  0
  142.2479   77.7629  221.6192 H   0  0  0  0  0  0  0  0  0  0  0  0
  139.8827   79.3041  220.7388 H   0  0  0  0  0  0  0  0  0  0  0  0
  143.1414   78.9769  221.8452 H   0  0  0  0  0  0  0  0  0  0  0  0
  144.4093   80.4573  223.3807 H   0  0  0  0  0  0  0  0  0  0  0  0
  143.1815   82.0288  224.8984 H   0  0  0  0  0  0  0  0  0  0  0  0
  139.4939   80.6389  223.3431 H   0  0  0  0  0  0  0  0  0  0  0  0
  138.4860   78.7632  222.3146 H   0  0  0  0  0  0  0  0  0  0  0  0
  139.8204   78.0019  223.3470 H   0  0  0  0  0  0  0  0  0  0  0  0
  138.4314   76.7957  220.9572 H   0  0  0  0  0  0  0  0  0  0  0  0
  138.3291   76.2658  222.6436 H   0  0  0  0  0  0  0  0  0  0  0  0
  140.6014   72.8563  223.9926 H   0  0  0  0  0  0  0  0  0  0  0  0
  141.6098   72.1087  226.1428 H   0  0  0  0  0  0  0  0  0  0  0  0
  141.8405   70.4402  227.9183 H   0  0  0  0  0  0  0  0  0  0  0  0
  139.5928   66.7747  227.6856 H   0  0  0  0  0  0  0  0  0  0  0  0
  138.6165   67.5432  225.5610 H   0  0  0  0  0  0  0  0  0  0  0  0
  1  2  2  0
  2  3  1  0
  3  4  1  0
  4  5  1  0
  5  6  2  0
  5  7  1  0
  7  8  1  0
  8  9  1  0
  9 10  1  0
  9 11  1  0
 11 12  1  0
 12 13  1  0
 13 14  1  0
 14 15  1  0
 15 16  1  0
 16 17  1  0
 17 18  2  0
 18 19  1  0
 19 20  2  0
 20 21  1  0
 21 22  2  0
 16 23  1  0
 23 24  1  0
  2 25  1  0
 25 26  2  0
 26 27  1  0
 27 28  2  0
 28 29  1  0
 29 30  2  0
 30 31  1  0
 30 32  1  0
 32 33  2  0
 33 34  1  0
 34 35  2  0
 12  7  1  0
 24 13  1  0
 35 25  1  0
 22 17  1  0
 34 28  1  0
  3 36  1  0
  4 37  1  0
  4 38  1  0
  8 39  1  0
  8 40  1  0
  9 41  1  6
 10 42  1  0
 11 43  1  0
 11 44  1  0
 12 45  1  1
 13 46  1  1
 14 47  1  0
 14 48  1  0
 15 49  1  0
 15 50  1  0
 16 51  1  6
 18 52  1  0
 19 53  1  0
 20 54  1  0
 22 55  1  0
 23 56  1  0
 23 57  1  0
 24 58  1  0
 24 59  1  0
 26 60  1  0
 27 61  1  0
 29 62  1  0
 32 63  1  0
 33 64  1  0
M  END
>  <smiles>  (95) 
O=C(NCC(=O)N1C[C@H](O)C[C@H]1C1CCC(c2cccnc2)CC1)c1ccc2cc(F)ccc2n1

>  <score_type>  (95) 
oracle

>  <origin>  (95) 
autodockgpu

>  <m_score__min__energy>  (95) 
-10.19

>  <m_primary>  (95) 
energy

>  <rmsd>  (95) 
3.0671676547817976

>  <m_score__min__rmsd>  (95) 
3.0671676547817976

>  <meeko>  (95) 
{"free_energy": -8.72, "intermolecular_energy": -10.81, "internal_energy": -2.85, "cluster_size": 9, "cluster_id": 1, "rank_in_cluster": 7}

>  <energy>  (95) 
-6.84

>  <cluster_rmsd>  (95) 
0.58

>  <cluster>  (95) 
10

$$$$

     RDKit          3D

 64 68  0  0  1  0  0  0  0  0999 V2000
  138.7440   70.7520  221.4340 O   0  0  0  0  0  0  0  0  0  0  0  0
  138.4700   71.3530  222.5160 C   0  0  0  0  0  0  0  0  0  0  0  0
  137.4880   72.3760  222.5460 N   0  0  0  0  0  0  0  0  0  0  0  0
  136.7700   72.7670  221.3530 C   0  0  0  0  0  0  0  0  0  0  0  0
  137.5030   73.8560  220.6510 C   0  0  0  0  0  0  0  0  0  0  0  0
  136.8090   74.7120  220.0440 O   0  0  0  0  0  0  0  0  0  0  0  0
  138.9250   73.8880  220.6940 N   0  0  0  0  0  0  0  0  0  0  0  0
  139.8250   73.5070  219.5960 C   0  0  0  0  0  0  0  0  0  0  0  0
  141.0920   73.0420  220.2260 C   0  0  2  0  0  0  0  0  0  0  0  0
  141.1120   71.6340  220.3120 O   0  0  0  0  0  0  0  0  0  0  0  0
  141.0880   73.6020  221.6300 C   0  0  0  0  0  0  0  0  0  0  0  0
  139.7700   74.2870  221.7840 C   0  0  1  0  0  0  0  0  0  0  0  0
  140.0080   75.7730  221.8270 C   0  0  1  0  0  0  0  0  0  0  0  0
  140.4670   76.3490  220.5150 C   0  0  0  0  0  0  0  0  0  0  0  0
  141.0610   77.6960  220.8170 C   0  0  0  0  0  0  0  0  0  0  0  0
  140.2030   78.5880  221.6580 C   0  0  2  0  0  0  0  0  0  0  0  0
  141.1460   79.4410  222.4400 C   0  0  0  0  0  0  0  0  0  0  0  0
  140.6910   80.4710  223.2600 C   0  0  0  0  0  0  0  0  0  0  0  0
  141.5750   81.2640  223.9870 C   0  0  0  0  0  0  0  0  0  0  0  0
  142.9390   81.0360  223.9060 C   0  0  0  0  0  0  0  0  0  0  0  0
  143.3500   80.0420  223.1120 N   0  0  0  0  0  0  0  0  0  0  0  0
  142.5150   79.2650  222.4020 C   0  0  0  0  0  0  0  0  0  0  0  0
  139.2930   77.9320  222.6190 C   0  0  0  0  0  0  0  0  0  0  0  0
  138.7880   76.5680  222.2410 C   0  0  0  0  0  0  0  0  0  0  0  0
  139.1780   70.9830  223.7440 C   0  0  0  0  0  0  0  0  0  0  0  0
  140.1190   71.8360  224.2800 C   0  0  0  0  0  0  0  0  0  0  0  0
  140.7540   71.4280  225.4440 C   0  0  0  0  0  0  0  0  0  0  0  0
  140.4720   70.2260  226.0580 C   0  0  0  0  0  0  0  0  0  0  0  0
  141.0970   69.8080  227.2200 C   0  0  0  0  0  0  0  0  0  0  0  0
  140.7900   68.5970  227.8090 C   0  0  0  0  0  0  0  0  0  0  0  0
  141.3880   68.1630  228.9470 F   0  0  0  0  0  0  0  0  0  0  0  0
  139.8310   67.7690  227.2310 C   0  0  0  0  0  0  0  0  0  0  0  0
  139.2130   68.1850  226.0830 C   0  0  0  0  0  0  0  0  0  0  0  0
  139.5110   69.4030  225.4750 C   0  0  0  0  0  0  0  0  0  0  0  0
  138.9030   69.8100  224.3470 N   0  0  0  0  0  0  0  0  0  0  0  0
  137.3150   72.8290  223.4820 H   0  0  0  0  0  0  0  0  0  0  0  0
  136.6774   71.8996  220.6829 H   0  0  0  0  0  0  0  0  0  0  0  0
  135.7704   73.1287  221.6357 H   0  0  0  0  0  0  0  0  0  0  0  0
  139.3770   72.6969  219.0018 H   0  0  0  0  0  0  0  0  0  0  0  0
  140.0064   74.3551  218.9194 H   0  0  0  0  0  0  0  0  0  0  0  0
  141.9623   73.3691  219.6381 H   0  0  0  0  0  0  0  0  0  0  0  0
  140.2070   71.3340  220.5820 H   0  0  0  0  0  0  0  0  0  0  0  0
  141.1883   72.7917  222.3671 H   0  0  0  0  0  0  0  0  0  0  0  0
  141.9280   74.2926  221.7957 H   0  0  0  0  0  0  0  0  0  0  0  0
  139.2630   74.0062  222.7189 H   0  0  0  0  0  0  0  0  0  0  0  0
  140.8018   75.8682  222.5825 H   0  0  0  0  0  0  0  0  0  0  0  0
  139.6137   76.4564  219.8292 H   0  0  0  0  0  0  0  0  0  0  0  0
  141.2045   75.6915  220.0314 H   0  0  0  0  0  0  0  0  0  0  0  0
  141.2524   78.2071  219.8619 H   0  0  0  0  0  0  0  0  0  0  0  0
  141.9745   77.5070  221.4000 H   0  0  0  0  0  0  0  0  0  0  0  0
  139.5353   79.1194  220.9638 H   0  0  0  0  0  0  0  0  0  0  0  0
  139.6103   80.6620  223.3348 H   0  0  0  0  0  0  0  0  0  0  0  0
  141.1899   82.0722  224.6262 H   0  0  0  0  0  0  0  0  0  0  0  0
  143.6557   81.6486  224.4726 H   0  0  0  0  0  0  0  0  0  0  0  0
  142.9338   78.4660  221.7726 H   0  0  0  0  0  0  0  0  0  0  0  0
  138.4192   78.5868  222.7521 H   0  0  0  0  0  0  0  0  0  0  0  0
  139.8920   77.7786  223.5287 H   0  0  0  0  0  0  0  0  0  0  0  0
  138.0774   76.6415  221.4045 H   0  0  0  0  0  0  0  0  0  0  0  0
  138.2581   76.0879  223.0769 H   0  0  0  0  0  0  0  0  0  0  0  0
  140.3563   72.7993  223.8049 H   0  0  0  0  0  0  0  0  0  0  0  0
  141.5105   72.0878  225.8938 H   0  0  0  0  0  0  0  0  0  0  0  0
  141.8555   70.4549  227.6850 H   0  0  0  0  0  0  0  0  0  0  0  0
  139.5757   66.8013  227.6874 H   0  0  0  0  0  0  0  0  0  0  0  0
  138.4539   67.5347  225.6238 H   0  0  0  0  0  0  0  0  0  0  0  0
  1  2  2  0
  2  3  1  0
  3  4  1  0
  4  5  1  0
  5  6  2  0
  5  7  1  0
  7  8  1  0
  8  9  1  0
  9 10  1  0
  9 11  1  0
 11 12  1  0
 12 13  1  0
 13 14  1  0
 14 15  1  0
 15 16  1  0
 16 17  1  0
 17 18  2  0
 18 19  1  0
 19 20  2  0
 20 21  1  0
 21 22  2  0
 16 23  1  0
 23 24  1  0
  2 25  1  0
 25 26  2  0
 26 27  1  0
 27 28  2  0
 28 29  1  0
 29 30  2  0
 30 31  1  0
 30 32  1  0
 32 33  2  0
 33 34  1  0
 34 35  2  0
 12  7  1  0
 24 13  1  0
 35 25  1  0
 22 17  1  0
 34 28  1  0
  3 36  1  0
  4 37  1  0
  4 38  1  0
  8 39  1  0
  8 40  1  0
  9 41  1  6
 10 42  1  0
 11 43  1  0
 11 44  1  0
 12 45  1  1
 13 46  1  1
 14 47  1  0
 14 48  1  0
 15 49  1  0
 15 50  1  0
 16 51  1  6
 18 52  1  0
 19 53  1  0
 20 54  1  0
 22 55  1  0
 23 56  1  0
 23 57  1  0
 24 58  1  0
 24 59  1  0
 26 60  1  0
 27 61  1  0
 29 62  1  0
 32 63  1  0
 33 64  1  0
M  END
>  <smiles>  (96) 
O=C(NCC(=O)N1C[C@H](O)C[C@H]1C1CCC(c2cccnc2)CC1)c1ccc2cc(F)ccc2n1

>  <score_type>  (96) 
oracle

>  <origin>  (96) 
autodockgpu

>  <m_score__min__energy>  (96) 
-10.19

>  <m_primary>  (96) 
energy

>  <rmsd>  (96) 
3.19627085468801

>  <m_score__min__rmsd>  (96) 
3.19627085468801

>  <meeko>  (96) 
{"free_energy": -8.51, "intermolecular_energy": -10.6, "internal_energy": -2.93, "cluster_size": 15, "cluster_id": 5, "rank_in_cluster": 1}

>  <energy>  (96) 
-6.8

>  <cluster_rmsd>  (96) 
0.35

>  <cluster>  (96) 
10

$$$$

     RDKit          3D

 64 68  0  0  1  0  0  0  0  0999 V2000
  137.7940   70.4010  221.6200 O   0  0  0  0  0  0  0  0  0  0  0  0
  137.8280   70.9660  222.7550 C   0  0  0  0  0  0  0  0  0  0  0  0
  137.2030   72.2240  222.9550 N   0  0  0  0  0  0  0  0  0  0  0  0
  136.5130   72.9010  221.8800 C   0  0  0  0  0  0  0  0  0  0  0  0
  137.4450   73.1330  220.7420 C   0  0  0  0  0  0  0  0  0  0  0  0
  136.9270   73.3520  219.6160 O   0  0  0  0  0  0  0  0  0  0  0  0
  138.8500   73.0990  220.9650 N   0  0  0  0  0  0  0  0  0  0  0  0
  139.8480   72.5090  220.0600 C   0  0  0  0  0  0  0  0  0  0  0  0
  140.9940   72.0820  220.9110 C   0  0  2  0  0  0  0  0  0  0  0  0
  140.9050   70.7040  221.2030 O   0  0  0  0  0  0  0  0  0  0  0  0
  140.8570   72.8490  222.2060 C   0  0  0  0  0  0  0  0  0  0  0  0
  139.5820   73.6150  222.0860 C   0  0  1  0  0  0  0  0  0  0  0  0
  139.9150   75.0760  221.9440 C   0  0  1  0  0  0  0  0  0  0  0  0
  140.6070   75.4150  220.6510 C   0  0  0  0  0  0  0  0  0  0  0  0
  141.2430   76.7630  220.8400 C   0  0  0  0  0  0  0  0  0  0  0  0
  140.3330   77.8170  221.3900 C   0  0  2  0  0  0  0  0  0  0  0  0
  141.2060   78.7380  222.1760 C   0  0  0  0  0  0  0  0  0  0  0  0
  141.8640   79.8090  221.5770 C   0  0  0  0  0  0  0  0  0  0  0  0
  142.6770   80.6660  222.3160 C   0  0  0  0  0  0  0  0  0  0  0  0
  142.8450   80.4630  223.6750 C   0  0  0  0  0  0  0  0  0  0  0  0
  142.2030   79.4280  224.2260 N   0  0  0  0  0  0  0  0  0  0  0  0
  141.4140   78.5890  223.5330 C   0  0  0  0  0  0  0  0  0  0  0  0
  139.2450   77.3650  222.2800 C   0  0  0  0  0  0  0  0  0  0  0  0
  138.7070   75.9840  222.0340 C   0  0  0  0  0  0  0  0  0  0  0  0
  138.5180   70.3080  223.8670 C   0  0  0  0  0  0  0  0  0  0  0  0
  138.5340   68.9310  223.9490 C   0  0  0  0  0  0  0  0  0  0  0  0
  139.2040   68.3680  225.0250 C   0  0  0  0  0  0  0  0  0  0  0  0
  139.8350   69.1310  225.9840 C   0  0  0  0  0  0  0  0  0  0  0  0
  140.5080   68.5820  227.0610 C   0  0  0  0  0  0  0  0  0  0  0  0
  141.1310   69.3770  228.0050 C   0  0  0  0  0  0  0  0  0  0  0  0
  141.7960   68.8640  229.0710 F   0  0  0  0  0  0  0  0  0  0  0  0
  141.0880   70.7630  227.8790 C   0  0  0  0  0  0  0  0  0  0  0  0
  140.4230   71.3040  226.8120 C   0  0  0  0  0  0  0  0  0  0  0  0
  139.7900   70.5170  225.8520 C   0  0  0  0  0  0  0  0  0  0  0  0
  139.1370   71.0500  224.8050 N   0  0  0  0  0  0  0  0  0  0  0  0
  137.2720   72.6300  223.9250 H   0  0  0  0  0  0  0  0  0  0  0  0
  135.6707   72.2805  221.5402 H   0  0  0  0  0  0  0  0  0  0  0  0
  136.1401   73.8697  222.2442 H   0  0  0  0  0  0  0  0  0  0  0  0
  139.4199   71.6414  219.5366 H   0  0  0  0  0  0  0  0  0  0  0  0
  140.1687   73.2332  219.2966 H   0  0  0  0  0  0  0  0  0  0  0  0
  141.9500   72.2708  220.4007 H   0  0  0  0  0  0  0  0  0  0  0  0
  139.9480   70.4830  221.3290 H   0  0  0  0  0  0  0  0  0  0  0  0
  140.8099   72.1564  223.0593 H   0  0  0  0  0  0  0  0  0  0  0  0
  141.7164   73.5137  222.3781 H   0  0  0  0  0  0  0  0  0  0  0  0
  138.9477   73.5054  222.9780 H   0  0  0  0  0  0  0  0  0  0  0  0
  140.5898   75.2517  222.7947 H   0  0  0  0  0  0  0  0  0  0  0  0
  139.8768   75.4526  219.8291 H   0  0  0  0  0  0  0  0  0  0  0  0
  141.3603   74.6553  220.3953 H   0  0  0  0  0  0  0  0  0  0  0  0
  141.6127   77.1066  219.8626 H   0  0  0  0  0  0  0  0  0  0  0  0
  142.0419   76.6260  221.5836 H   0  0  0  0  0  0  0  0  0  0  0  0
  139.8166   78.2623  220.5268 H   0  0  0  0  0  0  0  0  0  0  0  0
  141.7394   79.9821  220.4979 H   0  0  0  0  0  0  0  0  0  0  0  0
  143.1860   81.5049  221.8189 H   0  0  0  0  0  0  0  0  0  0  0  0
  143.4817   81.1272  224.2778 H   0  0  0  0  0  0  0  0  0  0  0  0
  140.9201   77.7604  224.0617 H   0  0  0  0  0  0  0  0  0  0  0  0
  138.4099   78.0729  222.1728 H   0  0  0  0  0  0  0  0  0  0  0  0
  139.6881   77.3296  223.2862 H   0  0  0  0  0  0  0  0  0  0  0  0
  138.1379   75.9575  221.0931 H   0  0  0  0  0  0  0  0  0  0  0  0
  138.0244   75.6684  222.8368 H   0  0  0  0  0  0  0  0  0  0  0  0
  138.0364   68.3059  223.1929 H   0  0  0  0  0  0  0  0  0  0  0  0
  139.2329   67.2722  225.1164 H   0  0  0  0  0  0  0  0  0  0  0  0
  140.5483   67.4880  227.1686 H   0  0  0  0  0  0  0  0  0  0  0  0
  141.5783   71.4097  228.6215 H   0  0  0  0  0  0  0  0  0  0  0  0
  140.3870   72.3985  226.7087 H   0  0  0  0  0  0  0  0  0  0  0  0
  1  2  2  0
  2  3  1  0
  3  4  1  0
  4  5  1  0
  5  6  2  0
  5  7  1  0
  7  8  1  0
  8  9  1  0
  9 10  1  0
  9 11  1  0
 11 12  1  0
 12 13  1  0
 13 14  1  0
 14 15  1  0
 15 16  1  0
 16 17  1  0
 17 18  2  0
 18 19  1  0
 19 20  2  0
 20 21  1  0
 21 22  2  0
 16 23  1  0
 23 24  1  0
  2 25  1  0
 25 26  2  0
 26 27  1  0
 27 28  2  0
 28 29  1  0
 29 30  2  0
 30 31  1  0
 30 32  1  0
 32 33  2  0
 33 34  1  0
 34 35  2  0
 12  7  1  0
 24 13  1  0
 35 25  1  0
 22 17  1  0
 34 28  1  0
  3 36  1  0
  4 37  1  0
  4 38  1  0
  8 39  1  0
  8 40  1  0
  9 41  1  6
 10 42  1  0
 11 43  1  0
 11 44  1  0
 12 45  1  1
 13 46  1  1
 14 47  1  0
 14 48  1  0
 15 49  1  0
 15 50  1  0
 16 51  1  6
 18 52  1  0
 19 53  1  0
 20 54  1  0
 22 55  1  0
 23 56  1  0
 23 57  1  0
 24 58  1  0
 24 59  1  0
 26 60  1  0
 27 61  1  0
 29 62  1  0
 32 63  1  0
 33 64  1  0
M  END
>  <smiles>  (97) 
O=C(NCC(=O)N1C[C@H](O)C[C@H]1C1CCC(c2cccnc2)CC1)c1ccc2cc(F)ccc2n1

>  <score_type>  (97) 
oracle

>  <origin>  (97) 
autodockgpu

>  <m_score__min__energy>  (97) 
-10.19

>  <m_primary>  (97) 
energy

>  <rmsd>  (97) 
2.941748153749521

>  <m_score__min__rmsd>  (97) 
2.941748153749521

>  <meeko>  (97) 
{"free_energy": -8.29, "intermolecular_energy": -10.37, "internal_energy": -3.12, "cluster_size": 15, "cluster_id": 5, "rank_in_cluster": 3}

>  <energy>  (97) 
-6.86

>  <cluster_rmsd>  (97) 
0.0

>  <cluster>  (97) 
11

$$$$

     RDKit          3D

 64 68  0  0  1  0  0  0  0  0999 V2000
  138.8730   70.8220  221.7500 O   0  0  0  0  0  0  0  0  0  0  0  0
  138.4230   71.0480  222.9130 C   0  0  0  0  0  0  0  0  0  0  0  0
  137.4590   72.0650  223.1310 N   0  0  0  0  0  0  0  0  0  0  0  0
  136.9580   72.8730  222.0420 C   0  0  0  0  0  0  0  0  0  0  0  0
  137.7090   74.1580  221.9750 C   0  0  0  0  0  0  0  0  0  0  0  0
  137.2160   75.1400  222.5880 O   0  0  0  0  0  0  0  0  0  0  0  0
  138.9240   74.2250  221.2380 N   0  0  0  0  0  0  0  0  0  0  0  0
  139.0760   73.9360  219.8040 C   0  0  0  0  0  0  0  0  0  0  0  0
  140.4760   73.4670  219.6100 C   0  0  2  0  0  0  0  0  0  0  0  0
  140.5230   72.0560  219.5790 O   0  0  0  0  0  0  0  0  0  0  0  0
  141.2440   73.9380  220.8230 C   0  0  0  0  0  0  0  0  0  0  0  0
  140.2310   74.5780  221.7150 C   0  0  1  0  0  0  0  0  0  0  0  0
  140.4720   76.0640  221.7200 C   0  0  1  0  0  0  0  0  0  0  0  0
  141.3650   76.5340  220.6030 C   0  0  0  0  0  0  0  0  0  0  0  0
  141.8480   77.9050  220.9830 C   0  0  0  0  0  0  0  0  0  0  0  0
  140.7730   78.8570  221.4050 C   0  0  2  0  0  0  0  0  0  0  0  0
  141.4090   79.7780  222.3930 C   0  0  0  0  0  0  0  0  0  0  0  0
  142.7590   79.6780  222.7200 C   0  0  0  0  0  0  0  0  0  0  0  0
  143.3470   80.5400  223.6430 C   0  0  0  0  0  0  0  0  0  0  0  0
  142.5890   81.5230  224.2560 C   0  0  0  0  0  0  0  0  0  0  0  0
  141.2960   81.5980  223.9250 N   0  0  0  0  0  0  0  0  0  0  0  0
  140.7080   80.7780  223.0370 C   0  0  0  0  0  0  0  0  0  0  0  0
  139.5750   78.2750  222.0440 C   0  0  0  0  0  0  0  0  0  0  0  0
  139.2010   76.8820  221.6250 C   0  0  0  0  0  0  0  0  0  0  0  0
  138.9080   70.2470  224.0410 C   0  0  0  0  0  0  0  0  0  0  0  0
  138.7440   68.8770  224.0330 C   0  0  0  0  0  0  0  0  0  0  0  0
  139.2240   68.1750  225.1280 C   0  0  0  0  0  0  0  0  0  0  0  0
  139.8430   68.7980  226.1920 C   0  0  0  0  0  0  0  0  0  0  0  0
  140.3270   68.1090  227.2900 C   0  0  0  0  0  0  0  0  0  0  0  0
  140.9430   68.7640  228.3390 C   0  0  0  0  0  0  0  0  0  0  0  0
  141.4250   68.1130  229.4280 F   0  0  0  0  0  0  0  0  0  0  0  0
  141.0860   70.1490  228.3020 C   0  0  0  0  0  0  0  0  0  0  0  0
  140.6070   70.8280  227.2140 C   0  0  0  0  0  0  0  0  0  0  0  0
  139.9840   70.1830  226.1480 C   0  0  0  0  0  0  0  0  0  0  0  0
  139.5130   70.8520  225.0800 N   0  0  0  0  0  0  0  0  0  0  0  0
  137.1320   72.1930  224.1250 H   0  0  0  0  0  0  0  0  0  0  0  0
  137.0841   72.3273  221.0953 H   0  0  0  0  0  0  0  0  0  0  0  0
  135.8919   73.0856  222.2102 H   0  0  0  0  0  0  0  0  0  0  0  0
  138.3674   73.1524  219.4977 H   0  0  0  0  0  0  0  0  0  0  0  0
  138.8690   74.8287  219.1955 H   0  0  0  0  0  0  0  0  0  0  0  0
  140.8888   73.8529  218.6663 H   0  0  0  0  0  0  0  0  0  0  0  0
  139.9540   71.7180  220.3150 H   0  0  0  0  0  0  0  0  0  0  0  0
  141.7197   73.0862  221.3311 H   0  0  0  0  0  0  0  0  0  0  0  0
  142.0470   74.6385  220.5501 H   0  0  0  0  0  0  0  0  0  0  0  0
  140.3122   74.2270  222.7543 H   0  0  0  0  0  0  0  0  0  0  0  0
  140.9605   76.2261  222.6921 H   0  0  0  0  0  0  0  0  0  0  0  0
  140.8005   76.5790  219.6599 H   0  0  0  0  0  0  0  0  0  0  0  0
  142.2092   75.8444  220.4550 H   0  0  0  0  0  0  0  0  0  0  0  0
  142.3661   78.3377  220.1145 H   0  0  0  0  0  0  0  0  0  0  0  0
  142.5018   77.7705  221.8573 H   0  0  0  0  0  0  0  0  0  0  0  0
  140.3952   79.3253  220.4842 H   0  0  0  0  0  0  0  0  0  0  0  0
  143.3736   78.9025  222.2396 H   0  0  0  0  0  0  0  0  0  0  0  0
  144.4153   80.4394  223.8852 H   0  0  0  0  0  0  0  0  0  0  0  0
  143.0332   82.2150  224.9866 H   0  0  0  0  0  0  0  0  0  0  0  0
  139.6380   80.9073  222.8172 H   0  0  0  0  0  0  0  0  0  0  0  0
  138.7227   78.9323  221.8170 H   0  0  0  0  0  0  0  0  0  0  0  0
  139.8229   78.2004  223.1131 H   0  0  0  0  0  0  0  0  0  0  0  0
  138.8223   76.8819  220.5922 H   0  0  0  0  0  0  0  0  0  0  0  0
  138.4061   76.4683  222.2630 H   0  0  0  0  0  0  0  0  0  0  0  0
  138.2531   68.3634  223.1932 H   0  0  0  0  0  0  0  0  0  0  0  0
  139.1070   67.0814  225.1492 H   0  0  0  0  0  0  0  0  0  0  0  0
  140.2189   67.0150  227.3286 H   0  0  0  0  0  0  0  0  0  0  0  0
  141.5734   70.6857  229.1293 H   0  0  0  0  0  0  0  0  0  0  0  0
  140.7180   71.9219  227.1804 H   0  0  0  0  0  0  0  0  0  0  0  0
  1  2  2  0
  2  3  1  0
  3  4  1  0
  4  5  1  0
  5  6  2  0
  5  7  1  0
  7  8  1  0
  8  9  1  0
  9 10  1  0
  9 11  1  0
 11 12  1  0
 12 13  1  0
 13 14  1  0
 14 15  1  0
 15 16  1  0
 16 17  1  0
 17 18  2  0
 18 19  1  0
 19 20  2  0
 20 21  1  0
 21 22  2  0
 16 23  1  0
 23 24  1  0
  2 25  1  0
 25 26  2  0
 26 27  1  0
 27 28  2  0
 28 29  1  0
 29 30  2  0
 30 31  1  0
 30 32  1  0
 32 33  2  0
 33 34  1  0
 34 35  2  0
 12  7  1  0
 24 13  1  0
 35 25  1  0
 22 17  1  0
 34 28  1  0
  3 36  1  0
  4 37  1  0
  4 38  1  0
  8 39  1  0
  8 40  1  0
  9 41  1  6
 10 42  1  0
 11 43  1  0
 11 44  1  0
 12 45  1  1
 13 46  1  1
 14 47  1  0
 14 48  1  0
 15 49  1  0
 15 50  1  0
 16 51  1  6
 18 52  1  0
 19 53  1  0
 20 54  1  0
 22 55  1  0
 23 56  1  0
 23 57  1  0
 24 58  1  0
 24 59  1  0
 26 60  1  0
 27 61  1  0
 29 62  1  0
 32 63  1  0
 33 64  1  0
M  END
>  <smiles>  (98) 
O=C(NCC(=O)N1C[C@H](O)C[C@H]1C1CCC(c2cccnc2)CC1)c1ccc2cc(F)ccc2n1

>  <score_type>  (98) 
oracle

>  <origin>  (98) 
autodockgpu

>  <m_score__min__energy>  (98) 
-10.19

>  <m_primary>  (98) 
energy

>  <rmsd>  (98) 
2.111131280111365

>  <m_score__min__rmsd>  (98) 
2.111131280111365

>  <meeko>  (98) 
{"free_energy": -8.62, "intermolecular_energy": -10.71, "internal_energy": -2.58, "cluster_size": 9, "cluster_id": 1, "rank_in_cluster": 9}

>  <energy>  (98) 
-6.51

>  <cluster_rmsd>  (98) 
0.0

>  <cluster>  (98) 
12

$$$$

     RDKit          3D

 64 68  0  0  1  0  0  0  0  0999 V2000
  141.3400   72.1410  221.3750 O   0  0  0  0  0  0  0  0  0  0  0  0
  140.4320   72.4140  222.2170 C   0  0  0  0  0  0  0  0  0  0  0  0
  139.6070   73.5540  222.0450 N   0  0  0  0  0  0  0  0  0  0  0  0
  139.7700   74.4390  220.9130 C   0  0  0  0  0  0  0  0  0  0  0  0
  140.8740   75.4040  221.1760 C   0  0  0  0  0  0  0  0  0  0  0  0
  140.9660   75.8610  222.3450 O   0  0  0  0  0  0  0  0  0  0  0  0
  141.7610   75.7620  220.1220 N   0  0  0  0  0  0  0  0  0  0  0  0
  142.5970   76.9710  220.0790 C   0  0  0  0  0  0  0  0  0  0  0  0
  142.8020   77.2960  218.6400 C   0  0  2  0  0  0  0  0  0  0  0  0
  141.8910   78.2910  218.2240 O   0  0  0  0  0  0  0  0  0  0  0  0
  142.4930   76.0260  217.8800 C   0  0  0  0  0  0  0  0  0  0  0  0
  142.0290   75.0470  218.9070 C   0  0  1  0  0  0  0  0  0  0  0  0
  143.0880   73.9900  219.0710 C   0  0  1  0  0  0  0  0  0  0  0  0
  144.0840   73.9550  217.9430 C   0  0  0  0  0  0  0  0  0  0  0  0
  144.7800   72.6250  218.0210 C   0  0  0  0  0  0  0  0  0  0  0  0
  145.3120   72.2720  219.3750 C   0  0  2  0  0  0  0  0  0  0  0  0
  145.2530   70.7830  219.4600 C   0  0  0  0  0  0  0  0  0  0  0  0
  144.0550   70.1120  219.6850 C   0  0  0  0  0  0  0  0  0  0  0  0
  144.0050   68.7210  219.7630 C   0  0  0  0  0  0  0  0  0  0  0  0
  145.1630   67.9770  219.6150 C   0  0  0  0  0  0  0  0  0  0  0  0
  146.3010   68.6450  219.4000 N   0  0  0  0  0  0  0  0  0  0  0  0
  146.3720   69.9850  219.3210 C   0  0  0  0  0  0  0  0  0  0  0  0
  144.5880   72.8150  220.5430 C   0  0  0  0  0  0  0  0  0  0  0  0
  143.8900   74.1310  220.3470 C   0  0  0  0  0  0  0  0  0  0  0  0
  140.2370   71.5390  223.3760 C   0  0  0  0  0  0  0  0  0  0  0  0
  139.5860   70.3330  223.2260 C   0  0  0  0  0  0  0  0  0  0  0  0
  139.4330   69.5490  224.3600 C   0  0  0  0  0  0  0  0  0  0  0  0
  139.9050   69.9380  225.5960 C   0  0  0  0  0  0  0  0  0  0  0  0
  139.7600   69.1660  226.7350 C   0  0  0  0  0  0  0  0  0  0  0  0
  140.2450   69.5860  227.9580 C   0  0  0  0  0  0  0  0  0  0  0  0
  140.1150   68.8490  229.0900 F   0  0  0  0  0  0  0  0  0  0  0  0
  140.8970   70.8120  228.0600 C   0  0  0  0  0  0  0  0  0  0  0  0
  141.0400   71.5740  226.9320 C   0  0  0  0  0  0  0  0  0  0  0  0
  140.5570   71.1650  225.6910 C   0  0  0  0  0  0  0  0  0  0  0  0
  140.6980   71.9160  224.5840 N   0  0  0  0  0  0  0  0  0  0  0  0
  138.8730   73.7160  222.7850 H   0  0  0  0  0  0  0  0  0  0  0  0
  140.0101   73.8458  220.0183 H   0  0  0  0  0  0  0  0  0  0  0  0
  138.8348   74.9952  220.7517 H   0  0  0  0  0  0  0  0  0  0  0  0
  142.0875   77.8030  220.5871 H   0  0  0  0  0  0  0  0  0  0  0  0
  143.5576   76.8073  220.5893 H   0  0  0  0  0  0  0  0  0  0  0  0
  143.8245   77.6620  218.4652 H   0  0  0  0  0  0  0  0  0  0  0  0
  142.0790   79.1110  218.7470 H   0  0  0  0  0  0  0  0  0  0  0  0
  141.7027   76.2061  217.1364 H   0  0  0  0  0  0  0  0  0  0  0  0
  143.3717   75.6554  217.3318 H   0  0  0  0  0  0  0  0  0  0  0  0
  141.1002   74.5399  218.6066 H   0  0  0  0  0  0  0  0  0  0  0  0
  142.5004   73.0603  219.0895 H   0  0  0  0  0  0  0  0  0  0  0  0
  144.8128   74.7712  218.0556 H   0  0  0  0  0  0  0  0  0  0  0  0
  143.5851   74.0836  216.9711 H   0  0  0  0  0  0  0  0  0  0  0  0
  145.6235   72.6385  217.3150 H   0  0  0  0  0  0  0  0  0  0  0  0
  144.0225   71.8650  217.7787 H   0  0  0  0  0  0  0  0  0  0  0  0
  146.3150   72.7189  219.4397 H   0  0  0  0  0  0  0  0  0  0  0  0
  143.1276   70.6915  219.8038 H   0  0  0  0  0  0  0  0  0  0  0  0
  143.0451   68.2145  219.9422 H   0  0  0  0  0  0  0  0  0  0  0  0
  145.1474   66.8786  219.6721 H   0  0  0  0  0  0  0  0  0  0  0  0
  147.3480   70.4592  219.1407 H   0  0  0  0  0  0  0  0  0  0  0  0
  145.3157   72.9409  221.3582 H   0  0  0  0  0  0  0  0  0  0  0  0
  143.7880   72.0897  220.7524 H   0  0  0  0  0  0  0  0  0  0  0  0
  144.6254   74.9431  220.2488 H   0  0  0  0  0  0  0  0  0  0  0  0
  143.2455   74.3775  221.2036 H   0  0  0  0  0  0  0  0  0  0  0  0
  139.2038   70.0061  222.2477 H   0  0  0  0  0  0  0  0  0  0  0  0
  138.9165   68.5820  224.2702 H   0  0  0  0  0  0  0  0  0  0  0  0
  139.2467   68.1956  226.6648 H   0  0  0  0  0  0  0  0  0  0  0  0
  141.2890   71.1609  229.0268 H   0  0  0  0  0  0  0  0  0  0  0  0
  141.5543   72.5434  227.0081 H   0  0  0  0  0  0  0  0  0  0  0  0
  1  2  2  0
  2  3  1  0
  3  4  1  0
  4  5  1  0
  5  6  2  0
  5  7  1  0
  7  8  1  0
  8  9  1  0
  9 10  1  0
  9 11  1  0
 11 12  1  0
 12 13  1  0
 13 14  1  0
 14 15  1  0
 15 16  1  0
 16 17  1  0
 17 18  2  0
 18 19  1  0
 19 20  2  0
 20 21  1  0
 21 22  2  0
 16 23  1  0
 23 24  1  0
  2 25  1  0
 25 26  2  0
 26 27  1  0
 27 28  2  0
 28 29  1  0
 29 30  2  0
 30 31  1  0
 30 32  1  0
 32 33  2  0
 33 34  1  0
 34 35  2  0
 12  7  1  0
 24 13  1  0
 35 25  1  0
 22 17  1  0
 34 28  1  0
  3 36  1  0
  4 37  1  0
  4 38  1  0
  8 39  1  0
  8 40  1  0
  9 41  1  1
 10 42  1  0
 11 43  1  0
 11 44  1  0
 12 45  1  6
 13 46  1  1
 14 47  1  0
 14 48  1  0
 15 49  1  0
 15 50  1  0
 16 51  1  6
 18 52  1  0
 19 53  1  0
 20 54  1  0
 22 55  1  0
 23 56  1  0
 23 57  1  0
 24 58  1  0
 24 59  1  0
 26 60  1  0
 27 61  1  0
 29 62  1  0
 32 63  1  0
 33 64  1  0
M  END
>  <smiles>  (99) 
O=C(NCC(=O)N1C[C@H](O)C[C@H]1C1CCC(c2cccnc2)CC1)c1ccc2cc(F)ccc2n1

>  <score_type>  (99) 
oracle

>  <origin>  (99) 
autodockgpu

>  <m_score__min__energy>  (99) 
-10.19

>  <m_primary>  (99) 
energy

>  <rmsd>  (99) 
2.3367017389546283

>  <m_score__min__rmsd>  (99) 
2.3367017389546283

>  <meeko>  (99) 
{"free_energy": -9.16, "intermolecular_energy": -11.25, "internal_energy": -2.18, "cluster_size": 1, "cluster_id": 3, "rank_in_cluster": 1}

>  <energy>  (99) 
-6.42

>  <cluster_rmsd>  (99) 
0.5

>  <cluster>  (99) 
12

$$$$

     RDKit          3D

 64 68  0  0  1  0  0  0  0  0999 V2000
  137.3110   70.0800  222.0530 O   0  0  0  0  0  0  0  0  0  0  0  0
  137.5540   70.6130  223.1780 C   0  0  0  0  0  0  0  0  0  0  0  0
  137.0770   71.9140  223.4800 N   0  0  0  0  0  0  0  0  0  0  0  0
  136.3030   72.6740  222.5230 C   0  0  0  0  0  0  0  0  0  0  0  0
  137.0800   72.8490  221.2640 C   0  0  0  0  0  0  0  0  0  0  0  0
  136.4270   73.1200  220.2230 O   0  0  0  0  0  0  0  0  0  0  0  0
  138.4960   72.7100  221.2870 N   0  0  0  0  0  0  0  0  0  0  0  0
  139.3020   71.9830  220.2940 C   0  0  0  0  0  0  0  0  0  0  0  0
  140.5260   71.5130  221.0020 C   0  0  2  0  0  0  0  0  0  0  0  0
  140.3770   70.1680  221.4030 O   0  0  0  0  0  0  0  0  0  0  0  0
  140.6410   72.3670  222.2430 C   0  0  0  0  0  0  0  0  0  0  0  0
  139.4230   73.2300  222.2500 C   0  0  1  0  0  0  0  0  0  0  0  0
  139.8410   74.6460  221.9560 C   0  0  1  0  0  0  0  0  0  0  0  0
  140.8140   74.7630  220.8130 C   0  0  0  0  0  0  0  0  0  0  0  0
  141.4500   76.1200  220.9220 C   0  0  0  0  0  0  0  0  0  0  0  0
  140.4870   77.2550  221.0790 C   0  0  2  0  0  0  0  0  0  0  0  0
  141.2040   78.2880  221.8840 C   0  0  0  0  0  0  0  0  0  0  0  0
  141.2770   78.2110  223.2720 C   0  0  0  0  0  0  0  0  0  0  0  0
  141.9480   79.1780  224.0180 C   0  0  0  0  0  0  0  0  0  0  0  0
  142.5600   80.2440  223.3810 C   0  0  0  0  0  0  0  0  0  0  0  0
  142.4750   80.2950  222.0480 N   0  0  0  0  0  0  0  0  0  0  0  0
  141.8340   79.3740  221.3080 C   0  0  0  0  0  0  0  0  0  0  0  0
  139.2110   76.9620  221.7640 C   0  0  0  0  0  0  0  0  0  0  0  0
  138.6820   75.5630  221.6270 C   0  0  0  0  0  0  0  0  0  0  0  0
  138.3340   69.8710  224.1720 C   0  0  0  0  0  0  0  0  0  0  0  0
  138.5190   68.5120  224.0280 C   0  0  0  0  0  0  0  0  0  0  0  0
  139.2670   67.8680  225.0020 C   0  0  0  0  0  0  0  0  0  0  0  0
  139.8140   68.5360  226.0770 C   0  0  0  0  0  0  0  0  0  0  0  0
  140.5630   67.9050  227.0540 C   0  0  0  0  0  0  0  0  0  0  0  0
  141.0960   68.6060  228.1190 C   0  0  0  0  0  0  0  0  0  0  0  0
  141.8330   68.0110  229.0920 F   0  0  0  0  0  0  0  0  0  0  0  0
  140.8830   69.9780  228.2220 C   0  0  0  0  0  0  0  0  0  0  0  0
  140.1420   70.6000  227.2530 C   0  0  0  0  0  0  0  0  0  0  0  0
  139.5970   69.9090  226.1730 C   0  0  0  0  0  0  0  0  0  0  0  0
  138.8700   70.5210  225.2230 N   0  0  0  0  0  0  0  0  0  0  0  0
  137.3180   72.2900  224.4350 H   0  0  0  0  0  0  0  0  0  0  0  0
  135.3681   72.1379  222.3026 H   0  0  0  0  0  0  0  0  0  0  0  0
  136.0746   73.6630  222.9470 H   0  0  0  0  0  0  0  0  0  0  0  0
  138.7372   71.1245  219.9015 H   0  0  0  0  0  0  0  0  0  0  0  0
  139.5597   72.6292  219.4419 H   0  0  0  0  0  0  0  0  0  0  0  0
  141.4078   71.5879  220.3487 H   0  0  0  0  0  0  0  0  0  0  0  0
  139.4100   69.9940  221.5270 H   0  0  0  0  0  0  0  0  0  0  0  0
  140.6691   71.7350  223.1429 H   0  0  0  0  0  0  0  0  0  0  0  0
  141.5641   72.9653  222.2415 H   0  0  0  0  0  0  0  0  0  0  0  0
  138.9207   73.2301  223.2286 H   0  0  0  0  0  0  0  0  0  0  0  0
  140.3191   74.9559  222.8969 H   0  0  0  0  0  0  0  0  0  0  0  0
  140.2843   74.6689  219.8535 H   0  0  0  0  0  0  0  0  0  0  0  0
  141.5720   73.9670  220.8566 H   0  0  0  0  0  0  0  0  0  0  0  0
  142.0397   76.2955  220.0102 H   0  0  0  0  0  0  0  0  0  0  0  0
  142.0597   76.1030  221.8374 H   0  0  0  0  0  0  0  0  0  0  0  0
  140.1926   77.5547  220.0624 H   0  0  0  0  0  0  0  0  0  0  0  0
  140.7949   77.3693  223.7908 H   0  0  0  0  0  0  0  0  0  0  0  0
  141.9915   79.0943  225.1140 H   0  0  0  0  0  0  0  0  0  0  0  0
  143.0953   81.0187  223.9496 H   0  0  0  0  0  0  0  0  0  0  0  0
  141.8105   79.4882  220.2142 H   0  0  0  0  0  0  0  0  0  0  0  0
  138.4507   77.6476  221.3616 H   0  0  0  0  0  0  0  0  0  0  0  0
  139.4204   77.0900  222.8363 H   0  0  0  0  0  0  0  0  0  0  0  0
  138.3333   75.3849  220.5990 H   0  0  0  0  0  0  0  0  0  0  0  0
  137.8265   75.3878  222.2959 H   0  0  0  0  0  0  0  0  0  0  0  0
  138.0913   67.9622  223.1766 H   0  0  0  0  0  0  0  0  0  0  0  0
  139.4300   66.7837  224.9137 H   0  0  0  0  0  0  0  0  0  0  0  0
  140.7382   66.8215  226.9816 H   0  0  0  0  0  0  0  0  0  0  0  0
  141.3009   70.5499  229.0636 H   0  0  0  0  0  0  0  0  0  0  0  0
  139.9709   71.6839  227.3300 H   0  0  0  0  0  0  0  0  0  0  0  0
  1  2  2  0
  2  3  1  0
  3  4  1  0
  4  5  1  0
  5  6  2  0
  5  7  1  0
  7  8  1  0
  8  9  1  0
  9 10  1  0
  9 11  1  0
 11 12  1  0
 12 13  1  0
 13 14  1  0
 14 15  1  0
 15 16  1  0
 16 17  1  0
 17 18  2  0
 18 19  1  0
 19 20  2  0
 20 21  1  0
 21 22  2  0
 16 23  1  0
 23 24  1  0
  2 25  1  0
 25 26  2  0
 26 27  1  0
 27 28  2  0
 28 29  1  0
 29 30  2  0
 30 31  1  0
 30 32  1  0
 32 33  2  0
 33 34  1  0
 34 35  2  0
 12  7  1  0
 24 13  1  0
 35 25  1  0
 22 17  1  0
 34 28  1  0
  3 36  1  0
  4 37  1  0
  4 38  1  0
  8 39  1  0
  8 40  1  0
  9 41  1  6
 10 42  1  0
 11 43  1  0
 11 44  1  0
 12 45  1  1
 13 46  1  1
 14 47  1  0
 14 48  1  0
 15 49  1  0
 15 50  1  0
 16 51  1  6
 18 52  1  0
 19 53  1  0
 20 54  1  0
 22 55  1  0
 23 56  1  0
 23 57  1  0
 24 58  1  0
 24 59  1  0
 26 60  1  0
 27 61  1  0
 29 62  1  0
 32 63  1  0
 33 64  1  0
M  END
>  <smiles>  (100) 
O=C(NCC(=O)N1C[C@H](O)C[C@H]1C1CCC(c2cccnc2)CC1)c1ccc2cc(F)ccc2n1

>  <score_type>  (100) 
oracle

>  <origin>  (100) 
autodockgpu

>  <m_score__min__energy>  (100) 
-10.19

>  <m_primary>  (100) 
energy

>  <rmsd>  (100) 
3.271887980842901

>  <m_score__min__rmsd>  (100) 
3.271887980842901

>  <meeko>  (100) 
{"free_energy": -8.12, "intermolecular_energy": -10.21, "internal_energy": -3.23, "cluster_size": 15, "cluster_id": 5, "rank_in_cluster": 10}

>  <energy>  (100) 
-6.17

>  <cluster_rmsd>  (100) 
0.0

>  <cluster>  (100) 
13

$$$$
