@<TRIPOS>MOLECULE
*****
 63 67 0 0 0
SMALL
GASTEIGER

@<TRIPOS>ATOM
      1 N         138.4100   72.5060  222.5080 N.3     1  UNL1       -0.3259
      2 C         136.9680   72.3420  222.5600 C.3     1  UNL1        0.0229
      3 C         136.4520   71.4700  221.4750 C.3     1  UNL1       -0.0090
      4 C         136.2540   70.1470  222.1570 C.3     1  UNL1        0.1037
      5 C         137.5150   69.4020  222.3650 C.2     1  UNL1        0.2339
      6 O         138.4340   69.6060  221.5150 O.2     1  UNL1       -0.2738
      7 N         137.6580   68.5190  223.4580 N.am    1  UNL1       -0.3082
      8 C         138.8520   67.7490  223.7390 C.3     1  UNL1        0.0540
      9 C         139.4480   68.2470  225.0020 C.ar    1  UNL1        0.0590
     10 C         139.7860   67.4490  226.0680 C.ar    1  UNL1       -0.0382
     11 C         140.3380   68.0430  227.2080 C.ar    1  UNL1       -0.0508
     12 C         140.5250   69.4230  227.2150 C.ar    1  UNL1        0.0004
     13 C         141.0700   70.0730  228.3220 C.ar    1  UNL1       -0.0526
     14 C         141.2410   71.4540  228.2880 C.ar    1  UNL1       -0.0611
     15 C         140.8850   72.2090  227.1910 C.ar    1  UNL1       -0.0597
     16 C         140.3450   71.5720  226.0980 C.ar    1  UNL1       -0.0357
     17 C         140.1790   70.1990  226.1370 C.ar    1  UNL1        0.0713
     18 N         139.6570   69.5950  225.0720 N.ar    1  UNL1       -0.2500
     19 N         135.7660   70.5290  223.4800 N.am    1  UNL1       -0.2871
     20 C         134.7680   69.8150  224.1930 C.2     1  UNL1        0.2334
     21 O         135.1300   68.6780  224.6520 O.2     1  UNL1       -0.2739
     22 C         133.4120   70.3600  224.3810 C.3     1  UNL1        0.0886
     23 N         133.4610   71.7990  224.5430 N.am    1  UNL1       -0.3027
     24 C         133.4010   72.3130  225.8670 C.2     1  UNL1        0.2445
     25 O         133.3070   71.4590  226.7950 O.2     1  UNL1       -0.2702
     26 C         133.4440   73.7370  226.1720 C.ar    1  UNL1        0.0373
     27 C         134.4170   74.5880  225.7080 C.ar    1  UNL1       -0.0490
     28 C         134.3910   75.9300  226.0440 C.ar    1  UNL1       -0.0533
     29 C         133.3830   76.4340  226.8500 C.ar    1  UNL1       -0.0178
     30 C         133.3110   77.7570  227.2130 C.ar    1  UNL1       -0.0540
     31 C         132.2760   78.2160  228.0290 C.ar    1  UNL1       -0.0612
     32 C         131.2910   77.3460  228.4950 C.ar    1  UNL1       -0.0612
     33 C         131.3650   76.0260  228.1320 C.ar    1  UNL1       -0.0540
     34 C         132.3860   75.5910  227.3310 C.ar    1  UNL1       -0.0172
     35 C         132.4600   74.2760  226.9700 C.ar    1  UNL1       -0.0419
     36 C         136.5050   71.7170  223.8270 C.3     1  UNL1        0.0308
     37 H         138.8060   72.9720  223.3550 H       1  UNL1        0.1185
     38 H         138.8790   71.5820  222.3680 H       1  UNL1        0.1185
     39 H         136.5849   73.3685  222.4619 H       1  UNL1        0.0474
     40 H         135.5007   71.8552  221.0792 H       1  UNL1        0.0303
     41 H         137.1311   71.4109  220.6117 H       1  UNL1        0.0303
     42 H         135.5960   69.5004  221.5579 H       1  UNL1        0.0597
     43 H         136.8230   68.4370  224.0970 H       1  UNL1        0.1491
     44 H         138.5910   66.6858  223.8461 H       1  UNL1        0.0527
     45 H         139.5723   67.8571  222.9146 H       1  UNL1        0.0527
     46 H         139.6253   66.3616  226.0259 H       1  UNL1        0.0636
     47 H         140.6182   67.4334  228.0797 H       1  UNL1        0.0625
     48 H         141.3621   69.4995  229.2140 H       1  UNL1        0.0624
     49 H         141.6739   71.9588  229.1642 H       1  UNL1        0.0618
     50 H         141.0299   73.2994  227.1897 H       1  UNL1        0.0618
     51 H         140.0497   72.1453  225.2068 H       1  UNL1        0.0639
     52 H         132.7985   70.1155  223.5013 H       1  UNL1        0.0558
     53 H         132.9722   69.9151  225.2858 H       1  UNL1        0.0558
     54 H         133.5380   72.4610  223.7290 H       1  UNL1        0.1495
     55 H         135.2215   74.2005  225.0656 H       1  UNL1        0.0625
     56 H         135.1767   76.6020  225.6683 H       1  UNL1        0.0624
     57 H         134.0769   78.4617  226.8569 H       1  UNL1        0.0624
     58 H         132.2367   79.2792  228.3085 H       1  UNL1        0.0618
     59 H         130.4754   77.7095  229.1374 H       1  UNL1        0.0618
     60 H         130.6029   75.3157  228.4850 H       1  UNL1        0.0624
     61 H         131.6775   73.5991  227.3435 H       1  UNL1        0.0631
     62 H         135.8563   72.4160  224.3753 H       1  UNL1        0.0480
     63 H         137.3612   71.4663  224.4705 H       1  UNL1        0.0480
@<TRIPOS>BOND
     1     1     2    1
     2     2     3    1
     3     3     4    1
     4     4     5    1
     5     5     6    2
     6     5     7   am
     7     7     8    1
     8     8     9    1
     9     9    10   ar
    10    10    11   ar
    11    11    12   ar
    12    12    13   ar
    13    13    14   ar
    14    14    15   ar
    15    15    16   ar
    16    16    17   ar
    17    17    18   ar
    18     4    19    1
    19    19    20   am
    20    20    21    2
    21    20    22    1
    22    22    23    1
    23    23    24   am
    24    24    25    2
    25    24    26    1
    26    26    27   ar
    27    27    28   ar
    28    28    29   ar
    29    29    30   ar
    30    30    31   ar
    31    31    32   ar
    32    32    33   ar
    33    33    34   ar
    34    34    35   ar
    35    19    36    1
    36    36     2    1
    37    18     9   ar
    38    35    26   ar
    39    17    12   ar
    40    34    29   ar
    41     1    37    1
    42     1    38    1
    43     2    39    1
    44     3    40    1
    45     3    41    1
    46     4    42    1
    47     7    43    1
    48     8    44    1
    49     8    45    1
    50    10    46    1
    51    11    47    1
    52    13    48    1
    53    14    49    1
    54    15    50    1
    55    16    51    1
    56    22    52    1
    57    22    53    1
    58    23    54    1
    59    27    55    1
    60    28    56    1
    61    30    57    1
    62    31    58    1
    63    32    59    1
    64    33    60    1
    65    35    61    1
    66    36    62    1
    67    36    63    1
