@<TRIPOS>MOLECULE
*****
 62 65 0 0 0
SMALL
GASTEIGER

@<TRIPOS>ATOM
      1 C         144.5700   74.3810  216.3220 C.3     1  UNL1        0.0368
      2 O         143.3360   73.8060  216.5040 O.3     1  UNL1       -0.3796
      3 C         142.5820   74.6240  217.3420 C.3     1  UNL1        0.0619
      4 C         141.2480   73.9810  217.6670 C.3     1  UNL1       -0.0107
      5 C         140.5120   75.0370  218.5080 C.3     1  UNL1        0.0178
      6 N         141.2760   75.0010  219.8010 N.am    1  UNL1       -0.2885
      7 C         140.5520   74.5170  220.8790 C.2     1  UNL1        0.2334
      8 O         140.6940   75.2760  221.9590 O.2     1  UNL1       -0.2739
      9 C         139.6890   73.3840  221.0960 C.3     1  UNL1        0.0887
     10 N         139.6050   72.7720  222.3890 N.am    1  UNL1       -0.3015
     11 C         140.0350   71.4010  222.4880 C.2     1  UNL1        0.2628
     12 O         140.4410   70.8850  221.4130 O.2     1  UNL1       -0.2685
     13 C         140.0030   70.6670  223.7440 C.ar    1  UNL1        0.1260
     14 C         139.3410   69.4610  223.7600 C.ar    1  UNL1       -0.0306
     15 C         139.2350   68.6650  224.8870 C.ar    1  UNL1       -0.0503
     16 C         139.8500   69.1630  226.0340 C.ar    1  UNL1        0.0031
     17 C         139.7510   68.3740  227.1680 C.ar    1  UNL1       -0.0173
     18 C         140.3540   68.8510  228.3180 C.ar    1  UNL1        0.1241
     19 F         140.2520   68.0740  229.4210 F       1  UNL1       -0.2055
     20 C         141.0320   70.0710  228.3350 C.ar    1  UNL1       -0.0244
     21 C         141.1110   70.8310  227.1840 C.ar    1  UNL1       -0.0330
     22 C         140.5170   70.3750  226.0270 C.ar    1  UNL1        0.0720
     23 N         140.5800   71.1060  224.8780 N.ar    1  UNL1       -0.2421
     24 C         142.5940   75.5210  219.7020 C.3     1  UNL1        0.1045
     25 C         142.5740   77.0200  219.4370 C.2     1  UNL1        0.2339
     26 O         143.2190   77.5230  218.4870 O.2     1  UNL1       -0.2738
     27 N         141.8200   77.8690  220.2690 N.am    1  UNL1       -0.3097
     28 C         141.7130   79.2950  220.1290 C.3     1  UNL1        0.0369
     29 C         141.8510   80.0530  221.3780 C.ar    1  UNL1       -0.0302
     30 C         142.4920   79.4210  222.4410 C.ar    1  UNL1       -0.0544
     31 C         142.6480   80.0880  223.6360 C.ar    1  UNL1       -0.0261
     32 C         142.1800   81.3810  223.8050 C.ar    1  UNL1        0.1234
     33 F         142.3380   82.0360  224.9950 F       1  UNL1       -0.2055
     34 C         141.5440   82.0190  222.7630 C.ar    1  UNL1       -0.0261
     35 C         141.3970   81.3370  221.5790 C.ar    1  UNL1       -0.0544
     36 C         143.3480   74.7890  218.6170 C.3     1  UNL1        0.0007
     37 H         145.0240   74.5925  217.3014 H       1  UNL1        0.0524
     38 H         145.2165   73.6914  215.7594 H       1  UNL1        0.0524
     39 H         144.4578   75.3196  215.7594 H       1  UNL1        0.0524
     40 H         142.3966   75.5877  216.8451 H       1  UNL1        0.0597
     41 H         140.6889   73.7570  216.7466 H       1  UNL1        0.0305
     42 H         141.3609   73.0246  218.1985 H       1  UNL1        0.0305
     43 H         140.5681   76.0304  218.0390 H       1  UNL1        0.0465
     44 H         139.4365   74.8377  218.6247 H       1  UNL1        0.0465
     45 H         138.6711   73.7082  220.8338 H       1  UNL1        0.0558
     46 H         140.1512   72.5988  220.4797 H       1  UNL1        0.0558
     47 H         139.2560   73.2510  223.2570 H       1  UNL1        0.1496
     48 H         138.8716   69.1114  222.8286 H       1  UNL1        0.0641
     49 H         138.7009   67.7034  224.8780 H       1  UNL1        0.0625
     50 H         139.2174   67.4122  227.1548 H       1  UNL1        0.0653
     51 H         141.5027   70.4267  229.2634 H       1  UNL1        0.0647
     52 H         141.6441   71.7931  227.1910 H       1  UNL1        0.0640
     53 H         143.1092   75.3649  220.6612 H       1  UNL1        0.0597
     54 H         141.2930   77.3880  221.0620 H       1  UNL1        0.1491
     55 H         142.5004   79.6300  219.4378 H       1  UNL1        0.0512
     56 H         140.6954   79.4922  219.7606 H       1  UNL1        0.0512
     57 H         142.8715   78.3949  222.3267 H       1  UNL1        0.0622
     58 H         143.1541   79.5841  224.4726 H       1  UNL1        0.0646
     59 H         141.1645   83.0453  222.8754 H       1  UNL1        0.0646
     60 H         140.8887   81.8450  220.7462 H       1  UNL1        0.0622
     61 H         144.2676   75.3510  218.3967 H       1  UNL1        0.0313
     62 H         143.5481   73.7770  218.9988 H       1  UNL1        0.0313
@<TRIPOS>BOND
     1     1     2    1
     2     2     3    1
     3     3     4    1
     4     4     5    1
     5     5     6    1
     6     6     7   am
     7     7     8    2
     8     7     9    1
     9     9    10    1
    10    10    11   am
    11    11    12    2
    12    11    13    1
    13    13    14   ar
    14    14    15   ar
    15    15    16   ar
    16    16    17   ar
    17    17    18   ar
    18    18    19    1
    19    18    20   ar
    20    20    21   ar
    21    21    22   ar
    22    22    23   ar
    23     6    24    1
    24    24    25    1
    25    25    26    2
    26    25    27   am
    27    27    28    1
    28    28    29    1
    29    29    30   ar
    30    30    31   ar
    31    31    32   ar
    32    32    33    1
    33    32    34   ar
    34    34    35   ar
    35    24    36    1
    36    36     3    1
    37    23    13   ar
    38    35    29   ar
    39    22    16   ar
    40     1    37    1
    41     1    38    1
    42     1    39    1
    43     3    40    1
    44     4    41    1
    45     4    42    1
    46     5    43    1
    47     5    44    1
    48     9    45    1
    49     9    46    1
    50    10    47    1
    51    14    48    1
    52    15    49    1
    53    17    50    1
    54    20    51    1
    55    21    52    1
    56    24    53    1
    57    27    54    1
    58    28    55    1
    59    28    56    1
    60    30    57    1
    61    31    58    1
    62    34    59    1
    63    35    60    1
    64    36    61    1
    65    36    62    1
