
     RDKit          3D

 43 46  0  0  0  0  0  0  0  0999 V2000
  139.8290   74.9750  221.9870 O   0  0  0  0  0  0  0  0  0  0  0  0
  140.4510   75.7740  221.2690 C   0  0  0  0  0  0  0  0  0  0  0  0
  141.7130   75.3540  220.8360 C   0  0  0  0  0  0  0  0  0  0  0  0
  142.2020   74.1190  221.2060 C   0  0  0  0  0  0  0  0  0  0  0  0
  143.4480   73.7040  220.7790 C   0  0  0  0  0  0  0  0  0  0  0  0
  144.2290   74.5160  219.9740 C   0  0  0  0  0  0  0  0  0  0  0  0
  143.7220   75.7450  219.6150 C   0  0  0  0  0  0  0  0  0  0  0  0
  142.4780   76.1760  220.0340 C   0  0  0  0  0  0  0  0  0  0  0  0
  141.9720   77.3560  219.7000 N   0  0  0  0  0  0  0  0  0  0  0  0
  140.7570   77.7480  220.1230 C   0  0  0  0  0  0  0  0  0  0  0  0
  140.3280   79.0880  219.7020 C   0  0  0  0  0  0  0  0  0  0  0  0
  141.0440   80.1520  220.0100 C   0  0  0  0  0  0  0  0  0  0  0  0
  141.5690   80.4420  221.3350 C   0  0  0  0  0  0  0  0  0  0  0  0
  142.3770   79.5320  221.9950 C   0  0  0  0  0  0  0  0  0  0  0  0
  142.8960   79.7620  223.2460 C   0  0  0  0  0  0  0  0  0  0  0  0
  142.5950   80.9700  223.8810 C   0  0  0  0  0  0  0  0  0  0  0  0
  141.8110   81.8540  223.2390 N   0  0  0  0  0  0  0  0  0  0  0  0
  141.3070   81.6200  222.0150 C   0  0  0  0  0  0  0  0  0  0  0  0
  139.9610   76.9960  220.9040 N   0  0  0  0  0  0  0  0  0  0  0  0
  138.6530   77.3880  221.3370 C   0  0  0  0  0  0  0  0  0  0  0  0
  138.6000   78.5300  222.2530 C   0  0  0  0  0  0  0  0  0  0  0  0
  139.5390   78.6080  223.2850 C   0  0  0  0  0  0  0  0  0  0  0  0
  139.5380   79.6660  224.1870 C   0  0  0  0  0  0  0  0  0  0  0  0
  138.6200   80.6790  224.1100 C   0  0  0  0  0  0  0  0  0  0  0  0
  137.6870   80.6180  223.0990 C   0  0  0  0  0  0  0  0  0  0  0  0
  137.6910   79.5590  222.1970 C   0  0  0  0  0  0  0  0  0  0  0  0
  141.5959   73.4603  221.8452 H   0  0  0  0  0  0  0  0  0  0  0  0
  143.8248   72.7160  221.0822 H   0  0  0  0  0  0  0  0  0  0  0  0
  145.2224   74.1899  219.6323 H   0  0  0  0  0  0  0  0  0  0  0  0
  144.3264   76.4042  218.9746 H   0  0  0  0  0  0  0  0  0  0  0  0
  139.3997   79.2055  219.1237 H   0  0  0  0  0  0  0  0  0  0  0  0
  141.2597   80.8720  219.2068 H   0  0  0  0  0  0  0  0  0  0  0  0
  142.6143   78.5814  221.4949 H   0  0  0  0  0  0  0  0  0  0  0  0
  143.5340   79.0123  223.7368 H   0  0  0  0  0  0  0  0  0  0  0  0
  142.9904   81.1926  224.8831 H   0  0  0  0  0  0  0  0  0  0  0  0
  140.6710   82.3826  221.5418 H   0  0  0  0  0  0  0  0  0  0  0  0
  138.0645   77.6444  220.4437 H   0  0  0  0  0  0  0  0  0  0  0  0
  138.2570   76.5322  221.9034 H   0  0  0  0  0  0  0  0  0  0  0  0
  140.2951   77.8154  223.3859 H   0  0  0  0  0  0  0  0  0  0  0  0
  140.2954   79.6899  224.9843 H   0  0  0  0  0  0  0  0  0  0  0  0
  138.6275   81.5111  224.8294 H   0  0  0  0  0  0  0  0  0  0  0  0
  136.9326   81.4129  223.0039 H   0  0  0  0  0  0  0  0  0  0  0  0
  136.9311   79.5446  221.4018 H   0  0  0  0  0  0  0  0  0  0  0  0
  1  2  2  0
  2  3  1  0
  3  4  2  0
  4  5  1  0
  5  6  2  0
  6  7  1  0
  7  8  2  0
  8  9  1  0
  9 10  2  0
 10 11  1  0
 11 12  2  0
 12 13  1  0
 13 14  2  0
 14 15  1  0
 15 16  2  0
 16 17  1  0
 17 18  2  0
 10 19  1  0
 19 20  1  0
 20 21  1  0
 21 22  2  0
 22 23  1  0
 23 24  2  0
 24 25  1  0
 25 26  2  0
 19  2  1  0
 26 21  1  0
  8  3  1  0
 18 13  1  0
  4 27  1  0
  5 28  1  0
  6 29  1  0
  7 30  1  0
 11 31  1  0
 12 32  1  0
 14 33  1  0
 15 34  1  0
 16 35  1  0
 18 36  1  0
 20 37  1  0
 20 38  1  0
 22 39  1  0
 23 40  1  0
 24 41  1  0
 25 42  1  0
 26 43  1  0
M  END
>  <smiles>  (1) 
O=c1c2ccccc2nc(/C=C/c2cccnc2)n1Cc1ccccc1

>  <score_type>  (1) 
oracle

>  <origin>  (1) 
autodockgpu

>  <m_score__min__energy>  (1) 
-7.3499999999999996

>  <m_primary>  (1) 
energy

>  <rmsd>  (1) 
4.3241491687448965

>  <m_score__min__rmsd>  (1) 
4.3241491687448965

>  <meeko>  (1) 
{"free_energy": -6.37, "intermolecular_energy": -7.86, "internal_energy": -2.03, "cluster_size": 10, "cluster_id": 6, "rank_in_cluster": 10}

>  <energy>  (1) 
-7.35

>  <cluster_rmsd>  (1) 
0.0

>  <cluster>  (1) 
1

$$$$

     RDKit          3D

 43 46  0  0  0  0  0  0  0  0999 V2000
  140.1890   71.8910  225.0880 O   0  0  0  0  0  0  0  0  0  0  0  0
  139.6240   70.7870  225.0410 C   0  0  0  0  0  0  0  0  0  0  0  0
  139.9160   69.9040  226.0870 C   0  0  0  0  0  0  0  0  0  0  0  0
  140.7830   70.2760  227.0920 C   0  0  0  0  0  0  0  0  0  0  0  0
  141.0720   69.4050  228.1250 C   0  0  0  0  0  0  0  0  0  0  0  0
  140.4970   68.1460  228.1720 C   0  0  0  0  0  0  0  0  0  0  0  0
  139.6330   67.7950  227.1590 C   0  0  0  0  0  0  0  0  0  0  0  0
  139.3340   68.6540  226.1190 C   0  0  0  0  0  0  0  0  0  0  0  0
  138.5050   68.3340  225.1340 N   0  0  0  0  0  0  0  0  0  0  0  0
  138.2330   69.1920  224.1340 C   0  0  0  0  0  0  0  0  0  0  0  0
  137.3180   68.7020  223.0950 C   0  0  0  0  0  0  0  0  0  0  0  0
  136.0130   68.7360  223.2760 C   0  0  0  0  0  0  0  0  0  0  0  0
  135.3520   69.3310  224.4270 C   0  0  0  0  0  0  0  0  0  0  0  0
  135.3220   70.7050  224.5970 C   0  0  0  0  0  0  0  0  0  0  0  0
  134.7100   71.3130  225.6670 C   0  0  0  0  0  0  0  0  0  0  0  0
  134.0890   70.5080  226.6260 C   0  0  0  0  0  0  0  0  0  0  0  0
  134.1170   69.1740  226.4590 N   0  0  0  0  0  0  0  0  0  0  0  0
  134.7190   68.5880  225.4090 C   0  0  0  0  0  0  0  0  0  0  0  0
  138.7640   70.4240  224.0440 N   0  0  0  0  0  0  0  0  0  0  0  0
  138.4600   71.3580  223.0020 C   0  0  0  0  0  0  0  0  0  0  0  0
  139.6140   71.9710  222.3390 C   0  0  0  0  0  0  0  0  0  0  0  0
  139.6440   73.3600  222.1910 C   0  0  0  0  0  0  0  0  0  0  0  0
  140.7100   74.0000  221.5680 C   0  0  0  0  0  0  0  0  0  0  0  0
  141.7790   73.3040  221.0710 C   0  0  0  0  0  0  0  0  0  0  0  0
  141.7660   71.9330  221.2090 C   0  0  0  0  0  0  0  0  0  0  0  0
  140.6990   71.2960  221.8330 C   0  0  0  0  0  0  0  0  0  0  0  0
  141.2478   71.2727  227.0715 H   0  0  0  0  0  0  0  0  0  0  0  0
  141.7669   69.7152  228.9193 H   0  0  0  0  0  0  0  0  0  0  0  0
  140.7232   67.4488  228.9922 H   0  0  0  0  0  0  0  0  0  0  0  0
  139.1661   66.7992  227.1783 H   0  0  0  0  0  0  0  0  0  0  0  0
  137.7264   68.3021  222.1552 H   0  0  0  0  0  0  0  0  0  0  0  0
  135.3781   68.2818  222.5010 H   0  0  0  0  0  0  0  0  0  0  0  0
  135.8100   71.3384  223.8416 H   0  0  0  0  0  0  0  0  0  0  0  0
  134.7090   72.4085  225.7663 H   0  0  0  0  0  0  0  0  0  0  0  0
  133.5888   70.9555  227.4975 H   0  0  0  0  0  0  0  0  0  0  0  0
  134.7083   67.4910  225.3282 H   0  0  0  0  0  0  0  0  0  0  0  0
  137.8720   70.8303  222.2367 H   0  0  0  0  0  0  0  0  0  0  0  0
  137.9213   72.1842  223.4889 H   0  0  0  0  0  0  0  0  0  0  0  0
  138.8063   73.9603  222.5756 H   0  0  0  0  0  0  0  0  0  0  0  0
  140.6938   75.0957  221.4719 H   0  0  0  0  0  0  0  0  0  0  0  0
  142.6171   73.8200  220.5798 H   0  0  0  0  0  0  0  0  0  0  0  0
  142.6064   71.3377  220.8225 H   0  0  0  0  0  0  0  0  0  0  0  0
  140.7246   70.2002  221.9260 H   0  0  0  0  0  0  0  0  0  0  0  0
  1  2  2  0
  2  3  1  0
  3  4  2  0
  4  5  1  0
  5  6  2  0
  6  7  1  0
  7  8  2  0
  8  9  1  0
  9 10  2  0
 10 11  1  0
 11 12  2  0
 12 13  1  0
 13 14  2  0
 14 15  1  0
 15 16  2  0
 16 17  1  0
 17 18  2  0
 10 19  1  0
 19 20  1  0
 20 21  1  0
 21 22  2  0
 22 23  1  0
 23 24  2  0
 24 25  1  0
 25 26  2  0
 19  2  1  0
 26 21  1  0
  8  3  1  0
 18 13  1  0
  4 27  1  0
  5 28  1  0
  6 29  1  0
  7 30  1  0
 11 31  1  0
 12 32  1  0
 14 33  1  0
 15 34  1  0
 16 35  1  0
 18 36  1  0
 20 37  1  0
 20 38  1  0
 22 39  1  0
 23 40  1  0
 24 41  1  0
 25 42  1  0
 26 43  1  0
M  END
>  <smiles>  (2) 
O=c1c2ccccc2nc(/C=C/c2cccnc2)n1Cc1ccccc1

>  <score_type>  (2) 
oracle

>  <origin>  (2) 
autodockgpu

>  <m_score__min__energy>  (2) 
-7.3499999999999996

>  <m_primary>  (2) 
energy

>  <rmsd>  (2) 
10.124991664425874

>  <m_score__min__rmsd>  (2) 
10.124991664425874

>  <meeko>  (2) 
{"free_energy": -7.05, "intermolecular_energy": -8.54, "internal_energy": -1.48, "cluster_size": 23, "cluster_id": 3, "rank_in_cluster": 19}

>  <energy>  (2) 
-7.32

>  <cluster_rmsd>  (2) 
0.3

>  <cluster>  (2) 
1

$$$$

     RDKit          3D

 43 46  0  0  0  0  0  0  0  0999 V2000
  139.2220   67.4330  225.4120 O   0  0  0  0  0  0  0  0  0  0  0  0
  139.4720   68.5990  225.0690 C   0  0  0  0  0  0  0  0  0  0  0  0
  140.0000   69.4310  226.0630 C   0  0  0  0  0  0  0  0  0  0  0  0
  140.2150   68.9470  227.3360 C   0  0  0  0  0  0  0  0  0  0  0  0
  140.7360   69.7670  228.3180 C   0  0  0  0  0  0  0  0  0  0  0  0
  141.0510   71.0870  228.0440 C   0  0  0  0  0  0  0  0  0  0  0  0
  140.8290   71.5510  226.7670 C   0  0  0  0  0  0  0  0  0  0  0  0
  140.3090   70.7440  225.7740 C   0  0  0  0  0  0  0  0  0  0  0  0
  140.0870   71.1720  224.5380 N   0  0  0  0  0  0  0  0  0  0  0  0
  139.5790   70.3620  223.5910 C   0  0  0  0  0  0  0  0  0  0  0  0
  139.3590   70.9700  222.2720 C   0  0  0  0  0  0  0  0  0  0  0  0
  140.3580   71.5170  221.6080 C   0  0  0  0  0  0  0  0  0  0  0  0
  140.6220   72.9450  221.5370 C   0  0  0  0  0  0  0  0  0  0  0  0
  141.7710   73.4270  220.9340 C   0  0  0  0  0  0  0  0  0  0  0  0
  142.0640   74.7670  220.8420 C   0  0  0  0  0  0  0  0  0  0  0  0
  141.1590   75.6850  221.3820 C   0  0  0  0  0  0  0  0  0  0  0  0
  140.0410   75.2170  221.9670 N   0  0  0  0  0  0  0  0  0  0  0  0
  139.7650   73.9040  222.0520 C   0  0  0  0  0  0  0  0  0  0  0  0
  139.2580   69.0740  223.8060 N   0  0  0  0  0  0  0  0  0  0  0  0
  138.7450   68.1920  222.8010 C   0  0  0  0  0  0  0  0  0  0  0  0
  137.2850   68.1120  222.7080 C   0  0  0  0  0  0  0  0  0  0  0  0
  136.5140   68.9810  223.4830 C   0  0  0  0  0  0  0  0  0  0  0  0
  135.1240   68.9510  223.4400 C   0  0  0  0  0  0  0  0  0  0  0  0
  134.4460   68.0720  222.6400 C   0  0  0  0  0  0  0  0  0  0  0  0
  135.1910   67.2080  221.8680 C   0  0  0  0  0  0  0  0  0  0  0  0
  136.5800   67.2400  221.9120 C   0  0  0  0  0  0  0  0  0  0  0  0
  139.9700   67.9008  227.5712 H   0  0  0  0  0  0  0  0  0  0  0  0
  140.9024   69.3667  229.3290 H   0  0  0  0  0  0  0  0  0  0  0  0
  141.4657   71.7445  228.8223 H   0  0  0  0  0  0  0  0  0  0  0  0
  141.0734   72.5970  226.5301 H   0  0  0  0  0  0  0  0  0  0  0  0
  138.3501   70.9689  221.8337 H   0  0  0  0  0  0  0  0  0  0  0  0
  141.0412   70.8444  221.0687 H   0  0  0  0  0  0  0  0  0  0  0  0
  142.4828   72.7042  220.5087 H   0  0  0  0  0  0  0  0  0  0  0  0
  142.9891   75.1087  220.3547 H   0  0  0  0  0  0  0  0  0  0  0  0
  141.3561   76.7659  221.3300 H   0  0  0  0  0  0  0  0  0  0  0  0
  138.8346   73.5828  222.5432 H   0  0  0  0  0  0  0  0  0  0  0  0
  139.1271   68.5315  221.8270 H   0  0  0  0  0  0  0  0  0  0  0  0
  139.0818   67.1847  223.0872 H   0  0  0  0  0  0  0  0  0  0  0  0
  137.0167   69.7047  224.1415 H   0  0  0  0  0  0  0  0  0  0  0  0
  134.5542   69.6532  224.0663 H   0  0  0  0  0  0  0  0  0  0  0  0
  133.3464   68.0559  222.6143 H   0  0  0  0  0  0  0  0  0  0  0  0
  134.6825   66.4868  221.2113 H   0  0  0  0  0  0  0  0  0  0  0  0
  137.1412   66.5352  221.2809 H   0  0  0  0  0  0  0  0  0  0  0  0
  1  2  2  0
  2  3  1  0
  3  4  2  0
  4  5  1  0
  5  6  2  0
  6  7  1  0
  7  8  2  0
  8  9  1  0
  9 10  2  0
 10 11  1  0
 11 12  2  0
 12 13  1  0
 13 14  2  0
 14 15  1  0
 15 16  2  0
 16 17  1  0
 17 18  2  0
 10 19  1  0
 19 20  1  0
 20 21  1  0
 21 22  2  0
 22 23  1  0
 23 24  2  0
 24 25  1  0
 25 26  2  0
 19  2  1  0
 26 21  1  0
  8  3  1  0
 18 13  1  0
  4 27  1  0
  5 28  1  0
  6 29  1  0
  7 30  1  0
 11 31  1  0
 12 32  1  0
 14 33  1  0
 15 34  1  0
 16 35  1  0
 18 36  1  0
 20 37  1  0
 20 38  1  0
 22 39  1  0
 23 40  1  0
 24 41  1  0
 25 42  1  0
 26 43  1  0
M  END
>  <smiles>  (3) 
O=c1c2ccccc2nc(/C=C/c2cccnc2)n1Cc1ccccc1

>  <score_type>  (3) 
oracle

>  <origin>  (3) 
autodockgpu

>  <m_score__min__energy>  (3) 
-7.3499999999999996

>  <m_primary>  (3) 
energy

>  <rmsd>  (3) 
12.939242910457022

>  <m_score__min__rmsd>  (3) 
12.939242910457022

>  <meeko>  (3) 
{"free_energy": -7.35, "intermolecular_energy": -8.84, "internal_energy": -1.16, "cluster_size": 5, "cluster_id": 1, "rank_in_cluster": 1}

>  <energy>  (3) 
-7.08

>  <cluster_rmsd>  (3) 
0.76

>  <cluster>  (3) 
1

$$$$

     RDKit          3D

 43 46  0  0  0  0  0  0  0  0999 V2000
  139.9560   74.5170  221.8350 O   0  0  0  0  0  0  0  0  0  0  0  0
  140.6920   75.3000  221.2140 C   0  0  0  0  0  0  0  0  0  0  0  0
  141.9500   74.8030  220.8540 C   0  0  0  0  0  0  0  0  0  0  0  0
  142.3130   73.5160  221.1880 C   0  0  0  0  0  0  0  0  0  0  0  0
  143.5540   73.0240  220.8340 C   0  0  0  0  0  0  0  0  0  0  0  0
  144.4560   73.8130  220.1390 C   0  0  0  0  0  0  0  0  0  0  0  0
  144.0740   75.0950  219.8150 C   0  0  0  0  0  0  0  0  0  0  0  0
  142.8370   75.6010  220.1620 C   0  0  0  0  0  0  0  0  0  0  0  0
  142.4500   76.8340  219.8600 N   0  0  0  0  0  0  0  0  0  0  0  0
  141.2380   77.3000  220.2110 C   0  0  0  0  0  0  0  0  0  0  0  0
  140.9480   78.6900  219.8370 C   0  0  0  0  0  0  0  0  0  0  0  0
  141.8150   79.6510  220.0900 C   0  0  0  0  0  0  0  0  0  0  0  0
  141.9600   80.3190  221.3730 C   0  0  0  0  0  0  0  0  0  0  0  0
  142.8550   79.8540  222.3200 C   0  0  0  0  0  0  0  0  0  0  0  0
  143.0280   80.4520  223.5450 C   0  0  0  0  0  0  0  0  0  0  0  0
  142.2640   81.5820  223.8480 C   0  0  0  0  0  0  0  0  0  0  0  0
  141.3940   82.0350  222.9270 N   0  0  0  0  0  0  0  0  0  0  0  0
  141.2330   81.4420  221.7310 C   0  0  0  0  0  0  0  0  0  0  0  0
  140.3280   76.5750  220.8840 N   0  0  0  0  0  0  0  0  0  0  0  0
  139.0230   77.0470  221.2390 C   0  0  0  0  0  0  0  0  0  0  0  0
  138.9820   78.1290  222.2260 C   0  0  0  0  0  0  0  0  0  0  0  0
  140.0630   78.2820  223.0990 C   0  0  0  0  0  0  0  0  0  0  0  0
  140.0800   79.2880  224.0590 C   0  0  0  0  0  0  0  0  0  0  0  0
  139.0460   80.1740  224.1960 C   0  0  0  0  0  0  0  0  0  0  0  0
  137.9730   80.0360  223.3440 C   0  0  0  0  0  0  0  0  0  0  0  0
  137.9570   79.0300  222.3840 C   0  0  0  0  0  0  0  0  0  0  0  0
  141.6092   72.8761  221.7405 H   0  0  0  0  0  0  0  0  0  0  0  0
  143.8292   71.9945  221.1068 H   0  0  0  0  0  0  0  0  0  0  0  0
  145.4462   73.4271  219.8551 H   0  0  0  0  0  0  0  0  0  0  0  0
  144.7761   75.7365  219.2623 H   0  0  0  0  0  0  0  0  0  0  0  0
  139.9970   78.9324  219.3403 H   0  0  0  0  0  0  0  0  0  0  0  0
  142.4763   79.9702  219.2710 H   0  0  0  0  0  0  0  0  0  0  0  0
  143.4560   78.9642  222.0812 H   0  0  0  0  0  0  0  0  0  0  0  0
  143.7511   80.0505  224.2702 H   0  0  0  0  0  0  0  0  0  0  0  0
  142.3714   82.0899  224.8178 H   0  0  0  0  0  0  0  0  0  0  0  0
  140.5056   81.8593  221.0191 H   0  0  0  0  0  0  0  0  0  0  0  0
  138.5339   77.4080  220.3222 H   0  0  0  0  0  0  0  0  0  0  0  0
  138.5151   76.1931  221.7111 H   0  0  0  0  0  0  0  0  0  0  0  0
  140.9172   77.5929  223.0251 H   0  0  0  0  0  0  0  0  0  0  0  0
  140.9494   79.3741  224.7274 H   0  0  0  0  0  0  0  0  0  0  0  0
  139.0711   80.9667  224.9582 H   0  0  0  0  0  0  0  0  0  0  0  0
  137.1212   80.7275  223.4234 H   0  0  0  0  0  0  0  0  0  0  0  0
  137.0832   78.9521  221.7204 H   0  0  0  0  0  0  0  0  0  0  0  0
  1  2  2  0
  2  3  1  0
  3  4  2  0
  4  5  1  0
  5  6  2  0
  6  7  1  0
  7  8  2  0
  8  9  1  0
  9 10  2  0
 10 11  1  0
 11 12  2  0
 12 13  1  0
 13 14  2  0
 14 15  1  0
 15 16  2  0
 16 17  1  0
 17 18  2  0
 10 19  1  0
 19 20  1  0
 20 21  1  0
 21 22  2  0
 22 23  1  0
 23 24  2  0
 24 25  1  0
 25 26  2  0
 19  2  1  0
 26 21  1  0
  8  3  1  0
 18 13  1  0
  4 27  1  0
  5 28  1  0
  6 29  1  0
  7 30  1  0
 11 31  1  0
 12 32  1  0
 14 33  1  0
 15 34  1  0
 16 35  1  0
 18 36  1  0
 20 37  1  0
 20 38  1  0
 22 39  1  0
 23 40  1  0
 24 41  1  0
 25 42  1  0
 26 43  1  0
M  END
>  <smiles>  (4) 
O=c1c2ccccc2nc(/C=C/c2cccnc2)n1Cc1ccccc1

>  <score_type>  (4) 
oracle

>  <origin>  (4) 
autodockgpu

>  <m_score__min__energy>  (4) 
-7.3499999999999996

>  <m_primary>  (4) 
energy

>  <rmsd>  (4) 
4.618025394432923

>  <m_score__min__rmsd>  (4) 
4.618025394432923

>  <meeko>  (4) 
{"free_energy": -6.66, "intermolecular_energy": -8.15, "internal_energy": -1.79, "cluster_size": 10, "cluster_id": 6, "rank_in_cluster": 4}

>  <energy>  (4) 
-6.94

>  <cluster_rmsd>  (4) 
1.89

>  <cluster>  (4) 
1

$$$$

     RDKit          3D

 43 46  0  0  0  0  0  0  0  0999 V2000
  139.5560   67.1010  225.3410 O   0  0  0  0  0  0  0  0  0  0  0  0
  139.3940   68.3170  225.1490 C   0  0  0  0  0  0  0  0  0  0  0  0
  139.9560   69.1690  226.1070 C   0  0  0  0  0  0  0  0  0  0  0  0
  140.6400   68.6500  227.1850 C   0  0  0  0  0  0  0  0  0  0  0  0
  141.1940   69.4900  228.1320 C   0  0  0  0  0  0  0  0  0  0  0  0
  141.0740   70.8650  228.0170 C   0  0  0  0  0  0  0  0  0  0  0  0
  140.3860   71.3620  226.9320 C   0  0  0  0  0  0  0  0  0  0  0  0
  139.8260   70.5360  225.9780 C   0  0  0  0  0  0  0  0  0  0  0  0
  139.1600   70.9960  224.9260 N   0  0  0  0  0  0  0  0  0  0  0  0
  138.6250   70.1660  224.0120 C   0  0  0  0  0  0  0  0  0  0  0  0
  137.8920   70.8050  222.9120 C   0  0  0  0  0  0  0  0  0  0  0  0
  136.5820   70.9500  222.9700 C   0  0  0  0  0  0  0  0  0  0  0  0
  135.6950   70.1410  223.7900 C   0  0  0  0  0  0  0  0  0  0  0  0
  135.2790   70.5800  225.0350 C   0  0  0  0  0  0  0  0  0  0  0  0
  134.4420   69.8520  225.8450 C   0  0  0  0  0  0  0  0  0  0  0  0
  133.9890   68.6110  225.3910 C   0  0  0  0  0  0  0  0  0  0  0  0
  134.3910   68.1840  224.1800 N   0  0  0  0  0  0  0  0  0  0  0  0
  135.2120   68.9040  223.3950 C   0  0  0  0  0  0  0  0  0  0  0  0
  138.7160   68.8260  224.0780 N   0  0  0  0  0  0  0  0  0  0  0  0
  138.1780   67.9320  223.0970 C   0  0  0  0  0  0  0  0  0  0  0  0
  139.0410   67.6530  221.9460 C   0  0  0  0  0  0  0  0  0  0  0  0
  139.2820   66.3230  221.5950 C   0  0  0  0  0  0  0  0  0  0  0  0
  140.0950   65.9950  220.5150 C   0  0  0  0  0  0  0  0  0  0  0  0
  140.6960   66.9540  219.7460 C   0  0  0  0  0  0  0  0  0  0  0  0
  140.4670   68.2710  220.0780 C   0  0  0  0  0  0  0  0  0  0  0  0
  139.6550   68.5970  221.1580 C   0  0  0  0  0  0  0  0  0  0  0  0
  140.7456   67.5603  227.2922 H   0  0  0  0  0  0  0  0  0  0  0  0
  141.7368   69.0615  228.9874 H   0  0  0  0  0  0  0  0  0  0  0  0
  141.5138   71.5382  228.7676 H   0  0  0  0  0  0  0  0  0  0  0  0
  140.2794   72.4513  226.8223 H   0  0  0  0  0  0  0  0  0  0  0  0
  138.4410   71.1667  222.0301 H   0  0  0  0  0  0  0  0  0  0  0  0
  136.1282   71.7399  222.3535 H   0  0  0  0  0  0  0  0  0  0  0  0
  135.6353   71.5574  225.3924 H   0  0  0  0  0  0  0  0  0  0  0  0
  134.1354   70.2374  226.8286 H   0  0  0  0  0  0  0  0  0  0  0  0
  133.3185   67.9965  226.0098 H   0  0  0  0  0  0  0  0  0  0  0  0
  135.5073   68.5008  222.4151 H   0  0  0  0  0  0  0  0  0  0  0  0
  137.9605   66.9757  223.5952 H   0  0  0  0  0  0  0  0  0  0  0  0
  137.2898   68.4364  222.6887 H   0  0  0  0  0  0  0  0  0  0  0  0
  138.8193   65.5180  222.1848 H   0  0  0  0  0  0  0  0  0  0  0  0
  140.2594   64.9348  220.2723 H   0  0  0  0  0  0  0  0  0  0  0  0
  141.3379   66.6834  218.8947 H   0  0  0  0  0  0  0  0  0  0  0  0
  140.9307   69.0718  219.4833 H   0  0  0  0  0  0  0  0  0  0  0  0
  139.4964   69.6599  221.3930 H   0  0  0  0  0  0  0  0  0  0  0  0
  1  2  2  0
  2  3  1  0
  3  4  2  0
  4  5  1  0
  5  6  2  0
  6  7  1  0
  7  8  2  0
  8  9  1  0
  9 10  2  0
 10 11  1  0
 11 12  2  0
 12 13  1  0
 13 14  2  0
 14 15  1  0
 15 16  2  0
 16 17  1  0
 17 18  2  0
 10 19  1  0
 19 20  1  0
 20 21  1  0
 21 22  2  0
 22 23  1  0
 23 24  2  0
 24 25  1  0
 25 26  2  0
 19  2  1  0
 26 21  1  0
  8  3  1  0
 18 13  1  0
  4 27  1  0
  5 28  1  0
  6 29  1  0
  7 30  1  0
 11 31  1  0
 12 32  1  0
 14 33  1  0
 15 34  1  0
 16 35  1  0
 18 36  1  0
 20 37  1  0
 20 38  1  0
 22 39  1  0
 23 40  1  0
 24 41  1  0
 25 42  1  0
 26 43  1  0
M  END
>  <smiles>  (5) 
O=c1c2ccccc2nc(/C=C/c2cccnc2)n1Cc1ccccc1

>  <score_type>  (5) 
oracle

>  <origin>  (5) 
autodockgpu

>  <m_score__min__energy>  (5) 
-7.3499999999999996

>  <m_primary>  (5) 
energy

>  <rmsd>  (5) 
13.029042792247298

>  <m_score__min__rmsd>  (5) 
13.029042792247298

>  <meeko>  (5) 
{"free_energy": -6.89, "intermolecular_energy": -8.38, "internal_energy": -1.53, "cluster_size": 1, "cluster_id": 7, "rank_in_cluster": 1}

>  <energy>  (5) 
-6.85

>  <cluster_rmsd>  (5) 
2.0

>  <cluster>  (5) 
1

$$$$

     RDKit          3D

 43 46  0  0  0  0  0  0  0  0999 V2000
  138.4440   75.6320  222.0110 O   0  0  0  0  0  0  0  0  0  0  0  0
  139.5270   75.1820  221.6040 C   0  0  0  0  0  0  0  0  0  0  0  0
  139.7170   73.8040  221.7640 C   0  0  0  0  0  0  0  0  0  0  0  0
  138.7360   73.0280  222.3430 C   0  0  0  0  0  0  0  0  0  0  0  0
  138.9220   71.6690  222.5010 C   0  0  0  0  0  0  0  0  0  0  0  0
  140.0940   71.0610  222.0840 C   0  0  0  0  0  0  0  0  0  0  0  0
  141.0610   71.8540  221.5080 C   0  0  0  0  0  0  0  0  0  0  0  0
  140.8910   73.2150  221.3420 C   0  0  0  0  0  0  0  0  0  0  0  0
  141.8100   73.9960  220.7910 N   0  0  0  0  0  0  0  0  0  0  0  0
  141.6150   75.3190  220.6430 C   0  0  0  0  0  0  0  0  0  0  0  0
  142.7240   76.0710  220.0410 C   0  0  0  0  0  0  0  0  0  0  0  0
  143.5470   75.4900  219.1900 C   0  0  0  0  0  0  0  0  0  0  0  0
  144.4510   74.4010  219.5230 C   0  0  0  0  0  0  0  0  0  0  0  0
  145.0050   74.2990  220.7880 C   0  0  0  0  0  0  0  0  0  0  0  0
  145.8630   73.2880  221.1510 C   0  0  0  0  0  0  0  0  0  0  0  0
  146.1910   72.3190  220.1990 C   0  0  0  0  0  0  0  0  0  0  0  0
  145.6510   72.4180  218.9700 N   0  0  0  0  0  0  0  0  0  0  0  0
  144.8130   73.4110  218.6250 C   0  0  0  0  0  0  0  0  0  0  0  0
  140.4960   75.9550  221.0300 N   0  0  0  0  0  0  0  0  0  0  0  0
  140.2630   77.3570  220.8520 C   0  0  0  0  0  0  0  0  0  0  0  0
  141.0510   78.2490  221.7070 C   0  0  0  0  0  0  0  0  0  0  0  0
  141.1130   77.9840  223.0770 C   0  0  0  0  0  0  0  0  0  0  0  0
  141.8420   78.7960  223.9390 C   0  0  0  0  0  0  0  0  0  0  0  0
  142.5320   79.8900  223.4910 C   0  0  0  0  0  0  0  0  0  0  0  0
  142.4820   80.1640  222.1420 C   0  0  0  0  0  0  0  0  0  0  0  0
  141.7530   79.3520  221.2810 C   0  0  0  0  0  0  0  0  0  0  0  0
  137.7989   73.4943  222.6814 H   0  0  0  0  0  0  0  0  0  0  0  0
  138.1297   71.0622  222.9637 H   0  0  0  0  0  0  0  0  0  0  0  0
  140.2476   69.9790  222.2089 H   0  0  0  0  0  0  0  0  0  0  0  0
  141.9987   71.3892  221.1692 H   0  0  0  0  0  0  0  0  0  0  0  0
  142.8694   77.1295  220.3027 H   0  0  0  0  0  0  0  0  0  0  0  0
  143.5498   75.8559  218.1527 H   0  0  0  0  0  0  0  0  0  0  0  0
  144.7467   75.0621  221.5370 H   0  0  0  0  0  0  0  0  0  0  0  0
  146.2816   73.2429  222.1672 H   0  0  0  0  0  0  0  0  0  0  0  0
  146.8748   71.4942  220.4483 H   0  0  0  0  0  0  0  0  0  0  0  0
  144.4047   73.4378  217.6039 H   0  0  0  0  0  0  0  0  0  0  0  0
  140.4896   77.6063  219.8049 H   0  0  0  0  0  0  0  0  0  0  0  0
  139.2131   77.5232  221.1349 H   0  0  0  0  0  0  0  0  0  0  0  0
  140.5740   77.1150  223.4824 H   0  0  0  0  0  0  0  0  0  0  0  0
  141.8648   78.5522  225.0114 H   0  0  0  0  0  0  0  0  0  0  0  0
  143.1046   80.5261  224.1820 H   0  0  0  0  0  0  0  0  0  0  0  0
  143.0241   81.0337  221.7423 H   0  0  0  0  0  0  0  0  0  0  0  0
  141.7369   79.6032  220.2102 H   0  0  0  0  0  0  0  0  0  0  0  0
  1  2  2  0
  2  3  1  0
  3  4  2  0
  4  5  1  0
  5  6  2  0
  6  7  1  0
  7  8  2  0
  8  9  1  0
  9 10  2  0
 10 11  1  0
 11 12  2  0
 12 13  1  0
 13 14  2  0
 14 15  1  0
 15 16  2  0
 16 17  1  0
 17 18  2  0
 10 19  1  0
 19 20  1  0
 20 21  1  0
 21 22  2  0
 22 23  1  0
 23 24  2  0
 24 25  1  0
 25 26  2  0
 19  2  1  0
 26 21  1  0
  8  3  1  0
 18 13  1  0
  4 27  1  0
  5 28  1  0
  6 29  1  0
  7 30  1  0
 11 31  1  0
 12 32  1  0
 14 33  1  0
 15 34  1  0
 16 35  1  0
 18 36  1  0
 20 37  1  0
 20 38  1  0
 22 39  1  0
 23 40  1  0
 24 41  1  0
 25 42  1  0
 26 43  1  0
M  END
>  <smiles>  (6) 
O=c1c2ccccc2nc(/C=C/c2cccnc2)n1Cc1ccccc1

>  <score_type>  (6) 
oracle

>  <origin>  (6) 
autodockgpu

>  <m_score__min__energy>  (6) 
-7.3499999999999996

>  <m_primary>  (6) 
energy

>  <rmsd>  (6) 
4.667754368958742

>  <m_score__min__rmsd>  (6) 
4.667754368958742

>  <meeko>  (6) 
{"free_energy": -7.25, "intermolecular_energy": -8.74, "internal_energy": -1.34, "cluster_size": 6, "cluster_id": 2, "rank_in_cluster": 3}

>  <energy>  (6) 
-7.26

>  <cluster_rmsd>  (6) 
0.0

>  <cluster>  (6) 
2

$$$$

     RDKit          3D

 43 46  0  0  0  0  0  0  0  0999 V2000
  140.0110   74.1980  221.8900 O   0  0  0  0  0  0  0  0  0  0  0  0
  140.7160   75.0070  221.2650 C   0  0  0  0  0  0  0  0  0  0  0  0
  141.9770   74.5450  220.8720 C   0  0  0  0  0  0  0  0  0  0  0  0
  142.3770   73.2620  221.1790 C   0  0  0  0  0  0  0  0  0  0  0  0
  143.6220   72.8050  220.7920 C   0  0  0  0  0  0  0  0  0  0  0  0
  144.4900   73.6240  220.0900 C   0  0  0  0  0  0  0  0  0  0  0  0
  144.0710   74.9020  219.7920 C   0  0  0  0  0  0  0  0  0  0  0  0
  142.8300   75.3740  220.1730 C   0  0  0  0  0  0  0  0  0  0  0  0
  142.4090   76.6010  219.8970 N   0  0  0  0  0  0  0  0  0  0  0  0
  141.1940   77.0330  220.2800 C   0  0  0  0  0  0  0  0  0  0  0  0
  140.8630   78.4210  219.9320 C   0  0  0  0  0  0  0  0  0  0  0  0
  141.7420   79.3870  220.1110 C   0  0  0  0  0  0  0  0  0  0  0  0
  141.9050   80.1420  221.3430 C   0  0  0  0  0  0  0  0  0  0  0  0
  142.7360   79.6860  222.3520 C   0  0  0  0  0  0  0  0  0  0  0  0
  142.9220   80.3630  223.5330 C   0  0  0  0  0  0  0  0  0  0  0  0
  142.2410   81.5680  223.7240 C   0  0  0  0  0  0  0  0  0  0  0  0
  141.4340   82.0120  222.7440 N   0  0  0  0  0  0  0  0  0  0  0  0
  141.2580   81.3420  221.5920 C   0  0  0  0  0  0  0  0  0  0  0  0
  140.3150   76.2770  220.9620 N   0  0  0  0  0  0  0  0  0  0  0  0
  139.0070   76.7130  221.3500 C   0  0  0  0  0  0  0  0  0  0  0  0
  138.9600   77.8810  222.2340 C   0  0  0  0  0  0  0  0  0  0  0  0
  137.8290   78.7000  222.2040 C   0  0  0  0  0  0  0  0  0  0  0  0
  137.7270   79.8240  223.0160 C   0  0  0  0  0  0  0  0  0  0  0  0
  138.7250   80.1820  223.8820 C   0  0  0  0  0  0  0  0  0  0  0  0
  139.8470   79.3840  223.9250 C   0  0  0  0  0  0  0  0  0  0  0  0
  139.9470   78.2610  223.1120 C   0  0  0  0  0  0  0  0  0  0  0  0
  141.7002   72.5975  221.7360 H   0  0  0  0  0  0  0  0  0  0  0  0
  143.9271   71.7788  221.0445 H   0  0  0  0  0  0  0  0  0  0  0  0
  145.4827   73.2655  219.7801 H   0  0  0  0  0  0  0  0  0  0  0  0
  144.7457   75.5673  219.2333 H   0  0  0  0  0  0  0  0  0  0  0  0
  139.8716   78.6569  219.5178 H   0  0  0  0  0  0  0  0  0  0  0  0
  142.4001   79.6404  219.2668 H   0  0  0  0  0  0  0  0  0  0  0  0
  143.2723   78.7375  222.2012 H   0  0  0  0  0  0  0  0  0  0  0  0
  143.5915   79.9656  224.3101 H   0  0  0  0  0  0  0  0  0  0  0  0
  142.3622   82.1408  224.6552 H   0  0  0  0  0  0  0  0  0  0  0  0
  140.5838   81.7565  220.8280 H   0  0  0  0  0  0  0  0  0  0  0  0
  138.4482   76.9595  220.4351 H   0  0  0  0  0  0  0  0  0  0  0  0
  138.5749   75.8831  221.9284 H   0  0  0  0  0  0  0  0  0  0  0  0
  137.0015   78.4505  221.5236 H   0  0  0  0  0  0  0  0  0  0  0  0
  136.8192   80.4428  222.9611 H   0  0  0  0  0  0  0  0  0  0  0  0
  138.6343   81.0737  224.5197 H   0  0  0  0  0  0  0  0  0  0  0  0
  140.6707   79.6376  224.6085 H   0  0  0  0  0  0  0  0  0  0  0  0
  140.8582   77.6480  223.1741 H   0  0  0  0  0  0  0  0  0  0  0  0
  1  2  2  0
  2  3  1  0
  3  4  2  0
  4  5  1  0
  5  6  2  0
  6  7  1  0
  7  8  2  0
  8  9  1  0
  9 10  2  0
 10 11  1  0
 11 12  2  0
 12 13  1  0
 13 14  2  0
 14 15  1  0
 15 16  2  0
 16 17  1  0
 17 18  2  0
 10 19  1  0
 19 20  1  0
 20 21  1  0
 21 22  2  0
 22 23  1  0
 23 24  2  0
 24 25  1  0
 25 26  2  0
 19  2  1  0
 26 21  1  0
  8  3  1  0
 18 13  1  0
  4 27  1  0
  5 28  1  0
  6 29  1  0
  7 30  1  0
 11 31  1  0
 12 32  1  0
 14 33  1  0
 15 34  1  0
 16 35  1  0
 18 36  1  0
 20 37  1  0
 20 38  1  0
 22 39  1  0
 23 40  1  0
 24 41  1  0
 25 42  1  0
 26 43  1  0
M  END
>  <smiles>  (7) 
O=c1c2ccccc2nc(/C=C/c2cccnc2)n1Cc1ccccc1

>  <score_type>  (7) 
oracle

>  <origin>  (7) 
autodockgpu

>  <m_score__min__energy>  (7) 
-7.3499999999999996

>  <m_primary>  (7) 
energy

>  <rmsd>  (7) 
4.542220691172963

>  <m_score__min__rmsd>  (7) 
4.542220691172963

>  <meeko>  (7) 
{"free_energy": -6.89, "intermolecular_energy": -8.38, "internal_energy": -1.67, "cluster_size": 10, "cluster_id": 6, "rank_in_cluster": 1}

>  <energy>  (7) 
-7.25

>  <cluster_rmsd>  (7) 
0.06

>  <cluster>  (7) 
2

$$$$

     RDKit          3D

 43 46  0  0  0  0  0  0  0  0999 V2000
  138.5670   75.6910  222.0770 O   0  0  0  0  0  0  0  0  0  0  0  0
  139.6300   75.2440  221.6170 C   0  0  0  0  0  0  0  0  0  0  0  0
  139.8180   73.8620  221.7420 C   0  0  0  0  0  0  0  0  0  0  0  0
  138.8570   73.0800  222.3460 C   0  0  0  0  0  0  0  0  0  0  0  0
  139.0420   71.7170  222.4710 C   0  0  0  0  0  0  0  0  0  0  0  0
  140.1920   71.1110  221.9930 C   0  0  0  0  0  0  0  0  0  0  0  0
  141.1390   71.9110  221.3920 C   0  0  0  0  0  0  0  0  0  0  0  0
  140.9690   73.2750  221.2600 C   0  0  0  0  0  0  0  0  0  0  0  0
  141.8700   74.0630  220.6860 N   0  0  0  0  0  0  0  0  0  0  0  0
  141.6760   75.3890  220.5720 C   0  0  0  0  0  0  0  0  0  0  0  0
  142.7630   76.1470  219.9380 C   0  0  0  0  0  0  0  0  0  0  0  0
  143.6050   75.5550  219.1140 C   0  0  0  0  0  0  0  0  0  0  0  0
  144.4610   74.4340  219.4680 C   0  0  0  0  0  0  0  0  0  0  0  0
  144.9770   74.3100  220.7470 C   0  0  0  0  0  0  0  0  0  0  0  0
  145.7890   73.2690  221.1300 C   0  0  0  0  0  0  0  0  0  0  0  0
  146.1080   72.2920  220.1840 C   0  0  0  0  0  0  0  0  0  0  0  0
  145.6070   72.4110  218.9420 N   0  0  0  0  0  0  0  0  0  0  0  0
  144.8130   73.4340  218.5770 C   0  0  0  0  0  0  0  0  0  0  0  0
  140.5780   76.0230  221.0180 N   0  0  0  0  0  0  0  0  0  0  0  0
  140.3460   77.4290  220.8760 C   0  0  0  0  0  0  0  0  0  0  0  0
  141.0630   78.2930  221.8190 C   0  0  0  0  0  0  0  0  0  0  0  0
  141.7780   79.3840  221.3190 C   0  0  0  0  0  0  0  0  0  0  0  0
  142.4800   80.2370  222.1630 C   0  0  0  0  0  0  0  0  0  0  0  0
  142.5060   80.0520  223.5180 C   0  0  0  0  0  0  0  0  0  0  0  0
  141.8050   78.9810  224.0280 C   0  0  0  0  0  0  0  0  0  0  0  0
  141.1030   78.1290  223.1830 C   0  0  0  0  0  0  0  0  0  0  0  0
  137.9370   73.5443  222.7308 H   0  0  0  0  0  0  0  0  0  0  0  0
  138.2668   71.1055  222.9559 H   0  0  0  0  0  0  0  0  0  0  0  0
  140.3443   70.0259  222.0901 H   0  0  0  0  0  0  0  0  0  0  0  0
  142.0592   71.4488  221.0052 H   0  0  0  0  0  0  0  0  0  0  0  0
  142.8757   77.2199  220.1530 H   0  0  0  0  0  0  0  0  0  0  0  0
  143.6643   75.9367  218.0841 H   0  0  0  0  0  0  0  0  0  0  0  0
  144.7255   75.0802  221.4910 H   0  0  0  0  0  0  0  0  0  0  0  0
  146.1783   73.2068  222.1569 H   0  0  0  0  0  0  0  0  0  0  0  0
  146.7554   71.4432  220.4495 H   0  0  0  0  0  0  0  0  0  0  0  0
  144.4340   73.4771  217.5452 H   0  0  0  0  0  0  0  0  0  0  0  0
  140.6452   77.7192  219.8580 H   0  0  0  0  0  0  0  0  0  0  0  0
  139.2770   77.5781  221.0881 H   0  0  0  0  0  0  0  0  0  0  0  0
  141.7857   79.5720  220.2352 H   0  0  0  0  0  0  0  0  0  0  0  0
  143.0302   81.0848  221.7288 H   0  0  0  0  0  0  0  0  0  0  0  0
  143.0657   80.7329  224.1761 H   0  0  0  0  0  0  0  0  0  0  0  0
  141.8008   78.7986  225.1128 H   0  0  0  0  0  0  0  0  0  0  0  0
  140.5544   77.2849  223.6264 H   0  0  0  0  0  0  0  0  0  0  0  0
  1  2  2  0
  2  3  1  0
  3  4  2  0
  4  5  1  0
  5  6  2  0
  6  7  1  0
  7  8  2  0
  8  9  1  0
  9 10  2  0
 10 11  1  0
 11 12  2  0
 12 13  1  0
 13 14  2  0
 14 15  1  0
 15 16  2  0
 16 17  1  0
 17 18  2  0
 10 19  1  0
 19 20  1  0
 20 21  1  0
 21 22  2  0
 22 23  1  0
 23 24  2  0
 24 25  1  0
 25 26  2  0
 19  2  1  0
 26 21  1  0
  8  3  1  0
 18 13  1  0
  4 27  1  0
  5 28  1  0
  6 29  1  0
  7 30  1  0
 11 31  1  0
 12 32  1  0
 14 33  1  0
 15 34  1  0
 16 35  1  0
 18 36  1  0
 20 37  1  0
 20 38  1  0
 22 39  1  0
 23 40  1  0
 24 41  1  0
 25 42  1  0
 26 43  1  0
M  END
>  <smiles>  (8) 
O=c1c2ccccc2nc(/C=C/c2cccnc2)n1Cc1ccccc1

>  <score_type>  (8) 
oracle

>  <origin>  (8) 
autodockgpu

>  <m_score__min__energy>  (8) 
-7.3499999999999996

>  <m_primary>  (8) 
energy

>  <rmsd>  (8) 
4.956888416753619

>  <m_score__min__rmsd>  (8) 
4.956888416753619

>  <meeko>  (8) 
{"free_energy": -7.24, "intermolecular_energy": -8.73, "internal_energy": -1.33, "cluster_size": 6, "cluster_id": 2, "rank_in_cluster": 5}

>  <energy>  (8) 
-7.25

>  <cluster_rmsd>  (8) 
0.09

>  <cluster>  (8) 
2

$$$$

     RDKit          3D

 43 46  0  0  0  0  0  0  0  0999 V2000
  139.0130   74.0990  222.3500 O   0  0  0  0  0  0  0  0  0  0  0  0
  140.0180   73.8800  221.6540 C   0  0  0  0  0  0  0  0  0  0  0  0
  140.7460   75.0080  221.2590 C   0  0  0  0  0  0  0  0  0  0  0  0
  140.3410   76.2690  221.6400 C   0  0  0  0  0  0  0  0  0  0  0  0
  141.0590   77.3820  221.2500 C   0  0  0  0  0  0  0  0  0  0  0  0
  142.1980   77.2540  220.4720 C   0  0  0  0  0  0  0  0  0  0  0  0
  142.5850   75.9860  220.1020 C   0  0  0  0  0  0  0  0  0  0  0  0
  141.8780   74.8620  220.4830 C   0  0  0  0  0  0  0  0  0  0  0  0
  142.2350   73.6320  220.1370 N   0  0  0  0  0  0  0  0  0  0  0  0
  141.5250   72.5570  220.5240 C   0  0  0  0  0  0  0  0  0  0  0  0
  142.0160   71.2560  220.0500 C   0  0  0  0  0  0  0  0  0  0  0  0
  143.2930   70.9430  220.1460 C   0  0  0  0  0  0  0  0  0  0  0  0
  144.3870   71.9000  220.1000 C   0  0  0  0  0  0  0  0  0  0  0  0
  144.7490   72.6210  221.2250 C   0  0  0  0  0  0  0  0  0  0  0  0
  145.7740   73.5360  221.2300 C   0  0  0  0  0  0  0  0  0  0  0  0
  146.4840   73.7480  220.0460 C   0  0  0  0  0  0  0  0  0  0  0  0
  146.1340   73.0460  218.9530 N   0  0  0  0  0  0  0  0  0  0  0  0
  145.1280   72.1540  218.9570 C   0  0  0  0  0  0  0  0  0  0  0  0
  140.4160   72.6280  221.2800 N   0  0  0  0  0  0  0  0  0  0  0  0
  139.6680   71.4900  221.7240 C   0  0  0  0  0  0  0  0  0  0  0  0
  139.8230   71.1370  223.1370 C   0  0  0  0  0  0  0  0  0  0  0  0
  140.7130   71.8760  223.9210 C   0  0  0  0  0  0  0  0  0  0  0  0
  140.9050   71.5860  225.2670 C   0  0  0  0  0  0  0  0  0  0  0  0
  140.2350   70.5680  225.8890 C   0  0  0  0  0  0  0  0  0  0  0  0
  139.3530   69.8300  225.1320 C   0  0  0  0  0  0  0  0  0  0  0  0
  139.1620   70.1210  223.7860 C   0  0  0  0  0  0  0  0  0  0  0  0
  139.4397   76.3896  222.2589 H   0  0  0  0  0  0  0  0  0  0  0  0
  140.7226   78.3821  221.5607 H   0  0  0  0  0  0  0  0  0  0  0  0
  142.7746   78.1373  220.1600 H   0  0  0  0  0  0  0  0  0  0  0  0
  143.4861   75.8637  219.4831 H   0  0  0  0  0  0  0  0  0  0  0  0
  141.3107   70.5354  219.6104 H   0  0  0  0  0  0  0  0  0  0  0  0
  143.5497   69.8806  220.2699 H   0  0  0  0  0  0  0  0  0  0  0  0
  144.1904   72.4537  222.1577 H   0  0  0  0  0  0  0  0  0  0  0  0
  146.0297   74.0891  222.1458 H   0  0  0  0  0  0  0  0  0  0  0  0
  147.3107   74.4726  220.0081 H   0  0  0  0  0  0  0  0  0  0  0  0
  144.8873   71.6126  218.0302 H   0  0  0  0  0  0  0  0  0  0  0  0
  138.6026   71.6946  221.5422 H   0  0  0  0  0  0  0  0  0  0  0  0
  140.0623   70.6337  221.1572 H   0  0  0  0  0  0  0  0  0  0  0  0
  141.2734   72.7046  223.4635 H   0  0  0  0  0  0  0  0  0  0  0  0
  141.6155   72.1920  225.8483 H   0  0  0  0  0  0  0  0  0  0  0  0
  140.3951   70.3473  226.9547 H   0  0  0  0  0  0  0  0  0  0  0  0
  138.7949   69.0034  225.5960 H   0  0  0  0  0  0  0  0  0  0  0  0
  138.4487   69.5098  223.2135 H   0  0  0  0  0  0  0  0  0  0  0  0
  1  2  2  0
  2  3  1  0
  3  4  2  0
  4  5  1  0
  5  6  2  0
  6  7  1  0
  7  8  2  0
  8  9  1  0
  9 10  2  0
 10 11  1  0
 11 12  2  0
 12 13  1  0
 13 14  2  0
 14 15  1  0
 15 16  2  0
 16 17  1  0
 17 18  2  0
 10 19  1  0
 19 20  1  0
 20 21  1  0
 21 22  2  0
 22 23  1  0
 23 24  2  0
 24 25  1  0
 25 26  2  0
 19  2  1  0
 26 21  1  0
  8  3  1  0
 18 13  1  0
  4 27  1  0
  5 28  1  0
  6 29  1  0
  7 30  1  0
 11 31  1  0
 12 32  1  0
 14 33  1  0
 15 34  1  0
 16 35  1  0
 18 36  1  0
 20 37  1  0
 20 38  1  0
 22 39  1  0
 23 40  1  0
 24 41  1  0
 25 42  1  0
 26 43  1  0
M  END
>  <smiles>  (9) 
O=c1c2ccccc2nc(/C=C/c2cccnc2)n1Cc1ccccc1

>  <score_type>  (9) 
oracle

>  <origin>  (9) 
autodockgpu

>  <m_score__min__energy>  (9) 
-7.3499999999999996

>  <m_primary>  (9) 
energy

>  <rmsd>  (9) 
8.879088187327481

>  <m_score__min__rmsd>  (9) 
8.879088187327481

>  <meeko>  (9) 
{"free_energy": -7.02, "intermolecular_energy": -8.51, "internal_energy": -1.35, "cluster_size": 4, "cluster_id": 5, "rank_in_cluster": 4}

>  <energy>  (9) 
-7.25

>  <cluster_rmsd>  (9) 
0.08

>  <cluster>  (9) 
2

$$$$

     RDKit          3D

 43 46  0  0  0  0  0  0  0  0999 V2000
  140.1060   71.8840  225.0590 O   0  0  0  0  0  0  0  0  0  0  0  0
  139.5510   70.7740  225.0220 C   0  0  0  0  0  0  0  0  0  0  0  0
  139.8620   69.8980  226.0680 C   0  0  0  0  0  0  0  0  0  0  0  0
  140.7360   70.2820  227.0630 C   0  0  0  0  0  0  0  0  0  0  0  0
  141.0430   69.4180  228.0960 C   0  0  0  0  0  0  0  0  0  0  0  0
  140.4810   68.1530  228.1530 C   0  0  0  0  0  0  0  0  0  0  0  0
  139.6110   67.7900  227.1500 C   0  0  0  0  0  0  0  0  0  0  0  0
  139.2930   68.6420  226.1100 C   0  0  0  0  0  0  0  0  0  0  0  0
  138.4580   68.3100  225.1340 N   0  0  0  0  0  0  0  0  0  0  0  0
  138.1680   69.1620  224.1340 C   0  0  0  0  0  0  0  0  0  0  0  0
  137.2480   68.6590  223.1050 C   0  0  0  0  0  0  0  0  0  0  0  0
  135.9460   68.8300  223.2250 C   0  0  0  0  0  0  0  0  0  0  0  0
  135.2870   69.3850  224.3970 C   0  0  0  0  0  0  0  0  0  0  0  0
  135.2570   70.7520  224.6140 C   0  0  0  0  0  0  0  0  0  0  0  0
  134.6470   71.3240  225.7050 C   0  0  0  0  0  0  0  0  0  0  0  0
  134.0300   70.4860  226.6380 C   0  0  0  0  0  0  0  0  0  0  0  0
  134.0580   69.1580  226.4260 N   0  0  0  0  0  0  0  0  0  0  0  0
  134.6580   68.6090  225.3550 C   0  0  0  0  0  0  0  0  0  0  0  0
  138.6850   70.3990  224.0340 N   0  0  0  0  0  0  0  0  0  0  0  0
  138.3630   71.3270  222.9920 C   0  0  0  0  0  0  0  0  0  0  0  0
  139.5020   71.9930  222.3560 C   0  0  0  0  0  0  0  0  0  0  0  0
  140.5380   71.2080  221.8440 C   0  0  0  0  0  0  0  0  0  0  0  0
  141.6470   71.7830  221.2320 C   0  0  0  0  0  0  0  0  0  0  0  0
  141.7780   73.1390  221.1000 C   0  0  0  0  0  0  0  0  0  0  0  0
  140.7640   73.9270  221.5990 C   0  0  0  0  0  0  0  0  0  0  0  0
  139.6570   73.3510  222.2110 C   0  0  0  0  0  0  0  0  0  0  0  0
  141.1916   71.2828  227.0339 H   0  0  0  0  0  0  0  0  0  0  0  0
  141.7420   69.7381  228.8827 H   0  0  0  0  0  0  0  0  0  0  0  0
  140.7223   67.4610  228.9733 H   0  0  0  0  0  0  0  0  0  0  0  0
  139.1544   66.7896  227.1774 H   0  0  0  0  0  0  0  0  0  0  0  0
  137.6494   68.1344  222.2254 H   0  0  0  0  0  0  0  0  0  0  0  0
  135.3121   68.5312  222.3771 H   0  0  0  0  0  0  0  0  0  0  0  0
  135.7437   71.4107  223.8796 H   0  0  0  0  0  0  0  0  0  0  0  0
  134.6445   72.4156  225.8406 H   0  0  0  0  0  0  0  0  0  0  0  0
  133.5325   70.9032  227.5260 H   0  0  0  0  0  0  0  0  0  0  0  0
  134.6486   67.5154  225.2373 H   0  0  0  0  0  0  0  0  0  0  0  0
  137.8130   70.7805  222.2117 H   0  0  0  0  0  0  0  0  0  0  0  0
  137.7809   72.1264  223.4738 H   0  0  0  0  0  0  0  0  0  0  0  0
  140.4755   70.1129  221.9265 H   0  0  0  0  0  0  0  0  0  0  0  0
  142.4414   71.1291  220.8430 H   0  0  0  0  0  0  0  0  0  0  0  0
  142.6594   73.5828  220.6140 H   0  0  0  0  0  0  0  0  0  0  0  0
  140.8311   75.0215  221.5123 H   0  0  0  0  0  0  0  0  0  0  0  0
  138.8680   74.0129  222.5974 H   0  0  0  0  0  0  0  0  0  0  0  0
  1  2  2  0
  2  3  1  0
  3  4  2  0
  4  5  1  0
  5  6  2  0
  6  7  1  0
  7  8  2  0
  8  9  1  0
  9 10  2  0
 10 11  1  0
 11 12  2  0
 12 13  1  0
 13 14  2  0
 14 15  1  0
 15 16  2  0
 16 17  1  0
 17 18  2  0
 10 19  1  0
 19 20  1  0
 20 21  1  0
 21 22  2  0
 22 23  1  0
 23 24  2  0
 24 25  1  0
 25 26  2  0
 19  2  1  0
 26 21  1  0
  8  3  1  0
 18 13  1  0
  4 27  1  0
  5 28  1  0
  6 29  1  0
  7 30  1  0
 11 31  1  0
 12 32  1  0
 14 33  1  0
 15 34  1  0
 16 35  1  0
 18 36  1  0
 20 37  1  0
 20 38  1  0
 22 39  1  0
 23 40  1  0
 24 41  1  0
 25 42  1  0
 26 43  1  0
M  END
>  <smiles>  (10) 
O=c1c2ccccc2nc(/C=C/c2cccnc2)n1Cc1ccccc1

>  <score_type>  (10) 
oracle

>  <origin>  (10) 
autodockgpu

>  <m_score__min__energy>  (10) 
-7.3499999999999996

>  <m_primary>  (10) 
energy

>  <rmsd>  (10) 
10.071816979107911

>  <m_score__min__rmsd>  (10) 
10.071816979107911

>  <meeko>  (10) 
{"free_energy": -7.05, "intermolecular_energy": -8.54, "internal_energy": -1.47, "cluster_size": 23, "cluster_id": 3, "rank_in_cluster": 18}

>  <energy>  (10) 
-7.24

>  <cluster_rmsd>  (10) 
0.09

>  <cluster>  (10) 
2

$$$$

     RDKit          3D

 43 46  0  0  0  0  0  0  0  0999 V2000
  139.0940   74.1810  222.3350 O   0  0  0  0  0  0  0  0  0  0  0  0
  140.1000   73.9710  221.6380 C   0  0  0  0  0  0  0  0  0  0  0  0
  140.8140   75.1050  221.2340 C   0  0  0  0  0  0  0  0  0  0  0  0
  140.3930   76.3630  221.6090 C   0  0  0  0  0  0  0  0  0  0  0  0
  141.0970   77.4830  221.2110 C   0  0  0  0  0  0  0  0  0  0  0  0
  142.2350   77.3640  220.4300 C   0  0  0  0  0  0  0  0  0  0  0  0
  142.6380   76.0990  220.0670 C   0  0  0  0  0  0  0  0  0  0  0  0
  141.9450   74.9690  220.4570 C   0  0  0  0  0  0  0  0  0  0  0  0
  142.3160   73.7410  220.1170 N   0  0  0  0  0  0  0  0  0  0  0  0
  141.6210   72.6590  220.5120 C   0  0  0  0  0  0  0  0  0  0  0  0
  142.1270   71.3620  220.0450 C   0  0  0  0  0  0  0  0  0  0  0  0
  143.3920   71.0310  220.2160 C   0  0  0  0  0  0  0  0  0  0  0  0
  144.5080   71.9620  220.1470 C   0  0  0  0  0  0  0  0  0  0  0  0
  144.9030   72.6820  221.2610 C   0  0  0  0  0  0  0  0  0  0  0  0
  145.9500   73.5720  221.2460 C   0  0  0  0  0  0  0  0  0  0  0  0
  146.6490   73.7570  220.0500 C   0  0  0  0  0  0  0  0  0  0  0  0
  146.2660   73.0560  218.9670 N   0  0  0  0  0  0  0  0  0  0  0  0
  145.2390   72.1880  218.9930 C   0  0  0  0  0  0  0  0  0  0  0  0
  140.5130   72.7210  221.2710 N   0  0  0  0  0  0  0  0  0  0  0  0
  139.7800   71.5770  221.7240 C   0  0  0  0  0  0  0  0  0  0  0  0
  139.9710   71.2120  223.1300 C   0  0  0  0  0  0  0  0  0  0  0  0
  139.3780   70.0410  223.6060 C   0  0  0  0  0  0  0  0  0  0  0  0
  139.5200   69.6440  224.9310 C   0  0  0  0  0  0  0  0  0  0  0  0
  140.2470   70.3770  225.8300 C   0  0  0  0  0  0  0  0  0  0  0  0
  140.8390   71.5340  225.3770 C   0  0  0  0  0  0  0  0  0  0  0  0
  140.6960   71.9300  224.0520 C   0  0  0  0  0  0  0  0  0  0  0  0
  139.4912   76.4756  222.2288 H   0  0  0  0  0  0  0  0  0  0  0  0
  140.7500   78.4807  221.5177 H   0  0  0  0  0  0  0  0  0  0  0  0
  142.7988   78.2526  220.1100 H   0  0  0  0  0  0  0  0  0  0  0  0
  143.5395   75.9840  219.4473 H   0  0  0  0  0  0  0  0  0  0  0  0
  141.4433   70.6587  219.5470 H   0  0  0  0  0  0  0  0  0  0  0  0
  143.6198   69.9755  220.4258 H   0  0  0  0  0  0  0  0  0  0  0  0
  144.3532   72.5350  222.2024 H   0  0  0  0  0  0  0  0  0  0  0  0
  146.2313   74.1257  222.1539 H   0  0  0  0  0  0  0  0  0  0  0  0
  147.4934   74.4599  219.9951 H   0  0  0  0  0  0  0  0  0  0  0  0
  144.9731   71.6441  218.0746 H   0  0  0  0  0  0  0  0  0  0  0  0
  138.7098   71.7797  221.5705 H   0  0  0  0  0  0  0  0  0  0  0  0
  140.1631   70.7269  221.1404 H   0  0  0  0  0  0  0  0  0  0  0  0
  138.7860   69.4193  222.9182 H   0  0  0  0  0  0  0  0  0  0  0  0
  139.0348   68.7154  225.2660 H   0  0  0  0  0  0  0  0  0  0  0  0
  140.3541   70.0533  226.8758 H   0  0  0  0  0  0  0  0  0  0  0  0
  141.4306   72.1509  226.0695 H   0  0  0  0  0  0  0  0  0  0  0  0
  141.1850   72.8599  223.7263 H   0  0  0  0  0  0  0  0  0  0  0  0
  1  2  2  0
  2  3  1  0
  3  4  2  0
  4  5  1  0
  5  6  2  0
  6  7  1  0
  7  8  2  0
  8  9  1  0
  9 10  2  0
 10 11  1  0
 11 12  2  0
 12 13  1  0
 13 14  2  0
 14 15  1  0
 15 16  2  0
 16 17  1  0
 17 18  2  0
 10 19  1  0
 19 20  1  0
 20 21  1  0
 21 22  2  0
 22 23  1  0
 23 24  2  0
 24 25  1  0
 25 26  2  0
 19  2  1  0
 26 21  1  0
  8  3  1  0
 18 13  1  0
  4 27  1  0
  5 28  1  0
  6 29  1  0
  7 30  1  0
 11 31  1  0
 12 32  1  0
 14 33  1  0
 15 34  1  0
 16 35  1  0
 18 36  1  0
 20 37  1  0
 20 38  1  0
 22 39  1  0
 23 40  1  0
 24 41  1  0
 25 42  1  0
 26 43  1  0
M  END
>  <smiles>  (11) 
O=c1c2ccccc2nc(/C=C/c2cccnc2)n1Cc1ccccc1

>  <score_type>  (11) 
oracle

>  <origin>  (11) 
autodockgpu

>  <m_score__min__energy>  (11) 
-7.3499999999999996

>  <m_primary>  (11) 
energy

>  <rmsd>  (11) 
8.649511070772052

>  <m_score__min__rmsd>  (11) 
8.649511070772052

>  <meeko>  (11) 
{"free_energy": -7.13, "intermolecular_energy": -8.62, "internal_energy": -1.43, "cluster_size": 4, "cluster_id": 5, "rank_in_cluster": 3}

>  <energy>  (11) 
-7.24

>  <cluster_rmsd>  (11) 
0.16

>  <cluster>  (11) 
2

$$$$

     RDKit          3D

 43 46  0  0  0  0  0  0  0  0999 V2000
  139.1680   67.7300  225.7260 O   0  0  0  0  0  0  0  0  0  0  0  0
  139.4960   68.8190  225.2280 C   0  0  0  0  0  0  0  0  0  0  0  0
  140.0400   69.7580  226.1130 C   0  0  0  0  0  0  0  0  0  0  0  0
  140.1860   69.4530  227.4490 C   0  0  0  0  0  0  0  0  0  0  0  0
  140.7220   70.3790  228.3230 C   0  0  0  0  0  0  0  0  0  0  0  0
  141.1230   71.6270  227.8750 C   0  0  0  0  0  0  0  0  0  0  0  0
  140.9680   71.9100  226.5360 C   0  0  0  0  0  0  0  0  0  0  0  0
  140.4340   70.9960  225.6500 C   0  0  0  0  0  0  0  0  0  0  0  0
  140.2760   71.2500  224.3570 N   0  0  0  0  0  0  0  0  0  0  0  0
  139.7520   70.3390  223.5180 C   0  0  0  0  0  0  0  0  0  0  0  0
  139.6100   70.7580  222.1170 C   0  0  0  0  0  0  0  0  0  0  0  0
  140.5810   71.4080  221.5070 C   0  0  0  0  0  0  0  0  0  0  0  0
  140.7220   72.8550  221.4820 C   0  0  0  0  0  0  0  0  0  0  0  0
  141.8220   73.4530  220.8920 C   0  0  0  0  0  0  0  0  0  0  0  0
  141.9990   74.8150  220.8420 C   0  0  0  0  0  0  0  0  0  0  0  0
  141.0220   75.6340  221.4140 C   0  0  0  0  0  0  0  0  0  0  0  0
  139.9520   75.0540  221.9870 N   0  0  0  0  0  0  0  0  0  0  0  0
  139.7890   73.7200  222.0300 C   0  0  0  0  0  0  0  0  0  0  0  0
  139.3500   69.1150  223.9030 N   0  0  0  0  0  0  0  0  0  0  0  0
  138.8190   68.1240  223.0150 C   0  0  0  0  0  0  0  0  0  0  0  0
  137.3660   68.1530  222.8240 C   0  0  0  0  0  0  0  0  0  0  0  0
  136.6110   69.0750  223.5530 C   0  0  0  0  0  0  0  0  0  0  0  0
  135.2290   69.1480  223.4160 C   0  0  0  0  0  0  0  0  0  0  0  0
  134.5430   68.3240  222.5650 C   0  0  0  0  0  0  0  0  0  0  0  0
  135.2730   67.4090  221.8380 C   0  0  0  0  0  0  0  0  0  0  0  0
  136.6540   67.3380  221.9760 C   0  0  0  0  0  0  0  0  0  0  0  0
  139.8739   68.4663  227.8218 H   0  0  0  0  0  0  0  0  0  0  0  0
  140.8316   70.1223  229.3870 H   0  0  0  0  0  0  0  0  0  0  0  0
  141.5513   72.3679  228.5662 H   0  0  0  0  0  0  0  0  0  0  0  0
  141.2797   72.8959  226.1606 H   0  0  0  0  0  0  0  0  0  0  0  0
  138.6834   70.5268  221.5712 H   0  0  0  0  0  0  0  0  0  0  0  0
  141.3399   70.8124  220.9784 H   0  0  0  0  0  0  0  0  0  0  0  0
  142.5908   72.8077  220.4419 H   0  0  0  0  0  0  0  0  0  0  0  0
  142.8886   75.2500  220.3631 H   0  0  0  0  0  0  0  0  0  0  0  0
  141.1256   76.7290  221.3962 H   0  0  0  0  0  0  0  0  0  0  0  0
  138.8919   73.3049  222.5126 H   0  0  0  0  0  0  0  0  0  0  0  0
  139.2917   68.2636  222.0316 H   0  0  0  0  0  0  0  0  0  0  0  0
  139.0400   67.1534  223.4832 H   0  0  0  0  0  0  0  0  0  0  0  0
  137.1201   69.7573  224.2497 H   0  0  0  0  0  0  0  0  0  0  0  0
  134.6715   69.8887  224.0081 H   0  0  0  0  0  0  0  0  0  0  0  0
  133.4495   68.3898  222.4652 H   0  0  0  0  0  0  0  0  0  0  0  0
  134.7585   66.7293  221.1428 H   0  0  0  0  0  0  0  0  0  0  0  0
  137.2031   66.5951  221.3789 H   0  0  0  0  0  0  0  0  0  0  0  0
  1  2  2  0
  2  3  1  0
  3  4  2  0
  4  5  1  0
  5  6  2  0
  6  7  1  0
  7  8  2  0
  8  9  1  0
  9 10  2  0
 10 11  1  0
 11 12  2  0
 12 13  1  0
 13 14  2  0
 14 15  1  0
 15 16  2  0
 16 17  1  0
 17 18  2  0
 10 19  1  0
 19 20  1  0
 20 21  1  0
 21 22  2  0
 22 23  1  0
 23 24  2  0
 24 25  1  0
 25 26  2  0
 19  2  1  0
 26 21  1  0
  8  3  1  0
 18 13  1  0
  4 27  1  0
  5 28  1  0
  6 29  1  0
  7 30  1  0
 11 31  1  0
 12 32  1  0
 14 33  1  0
 15 34  1  0
 16 35  1  0
 18 36  1  0
 20 37  1  0
 20 38  1  0
 22 39  1  0
 23 40  1  0
 24 41  1  0
 25 42  1  0
 26 43  1  0
M  END
>  <smiles>  (12) 
O=c1c2ccccc2nc(/C=C/c2cccnc2)n1Cc1ccccc1

>  <score_type>  (12) 
oracle

>  <origin>  (12) 
autodockgpu

>  <m_score__min__energy>  (12) 
-7.3499999999999996

>  <m_primary>  (12) 
energy

>  <rmsd>  (12) 
12.76808884875597

>  <m_score__min__rmsd>  (12) 
12.76808884875597

>  <meeko>  (12) 
{"free_energy": -7.32, "intermolecular_energy": -8.81, "internal_energy": -1.22, "cluster_size": 5, "cluster_id": 1, "rank_in_cluster": 2}

>  <energy>  (12) 
-7.21

>  <cluster_rmsd>  (12) 
0.0

>  <cluster>  (12) 
3

$$$$

     RDKit          3D

 43 46  0  0  0  0  0  0  0  0999 V2000
  138.4670   75.6630  222.0210 O   0  0  0  0  0  0  0  0  0  0  0  0
  139.5520   75.2160  221.6150 C   0  0  0  0  0  0  0  0  0  0  0  0
  139.7430   73.8380  221.7710 C   0  0  0  0  0  0  0  0  0  0  0  0
  138.7610   73.0590  222.3450 C   0  0  0  0  0  0  0  0  0  0  0  0
  138.9490   71.6990  222.5000 C   0  0  0  0  0  0  0  0  0  0  0  0
  140.1230   71.0940  222.0830 C   0  0  0  0  0  0  0  0  0  0  0  0
  141.0900   71.8900  221.5110 C   0  0  0  0  0  0  0  0  0  0  0  0
  140.9180   73.2510  221.3490 C   0  0  0  0  0  0  0  0  0  0  0  0
  141.8380   74.0350  220.8020 N   0  0  0  0  0  0  0  0  0  0  0  0
  141.6410   75.3580  220.6580 C   0  0  0  0  0  0  0  0  0  0  0  0
  142.7500   76.1130  220.0600 C   0  0  0  0  0  0  0  0  0  0  0  0
  143.5730   75.5380  219.2050 C   0  0  0  0  0  0  0  0  0  0  0  0
  144.4430   74.4160  219.5200 C   0  0  0  0  0  0  0  0  0  0  0  0
  144.9990   74.2800  220.7810 C   0  0  0  0  0  0  0  0  0  0  0  0
  145.8260   73.2380  221.1260 C   0  0  0  0  0  0  0  0  0  0  0  0
  146.1190   72.2720  220.1590 C   0  0  0  0  0  0  0  0  0  0  0  0
  145.5780   72.4040  218.9350 N   0  0  0  0  0  0  0  0  0  0  0  0
  144.7700   73.4280  218.6070 C   0  0  0  0  0  0  0  0  0  0  0  0
  140.5210   75.9920  221.0450 N   0  0  0  0  0  0  0  0  0  0  0  0
  140.2860   77.3940  220.8710 C   0  0  0  0  0  0  0  0  0  0  0  0
  141.0170   78.2820  221.7790 C   0  0  0  0  0  0  0  0  0  0  0  0
  141.6910   79.3820  221.2430 C   0  0  0  0  0  0  0  0  0  0  0  0
  142.4050   80.2580  222.0540 C   0  0  0  0  0  0  0  0  0  0  0  0
  142.4830   80.0870  223.4090 C   0  0  0  0  0  0  0  0  0  0  0  0
  141.8230   79.0080  223.9540 C   0  0  0  0  0  0  0  0  0  0  0  0
  141.1100   78.1330  223.1420 C   0  0  0  0  0  0  0  0  0  0  0  0
  137.8222   73.5230  222.6816 H   0  0  0  0  0  0  0  0  0  0  0  0
  138.1571   71.0897  222.9599 H   0  0  0  0  0  0  0  0  0  0  0  0
  140.2780   70.0118  222.2049 H   0  0  0  0  0  0  0  0  0  0  0  0
  142.0289   71.4276  221.1724 H   0  0  0  0  0  0  0  0  0  0  0  0
  142.8956   77.1698  220.3283 H   0  0  0  0  0  0  0  0  0  0  0  0
  143.6037   75.9356  218.1798 H   0  0  0  0  0  0  0  0  0  0  0  0
  144.7681   75.0408  221.5412 H   0  0  0  0  0  0  0  0  0  0  0  0
  146.2476   73.1658  222.1395 H   0  0  0  0  0  0  0  0  0  0  0  0
  146.7775   71.4228  220.3941 H   0  0  0  0  0  0  0  0  0  0  0  0
  144.3589   73.4818  217.5881 H   0  0  0  0  0  0  0  0  0  0  0  0
  140.5684   77.6580  219.8412 H   0  0  0  0  0  0  0  0  0  0  0  0
  139.2205   77.5480  221.0970 H   0  0  0  0  0  0  0  0  0  0  0  0
  141.6564   79.5590  220.1579 H   0  0  0  0  0  0  0  0  0  0  0  0
  142.9216   81.1126  221.5926 H   0  0  0  0  0  0  0  0  0  0  0  0
  143.0519   80.7856  224.0401 H   0  0  0  0  0  0  0  0  0  0  0  0
  141.8602   78.8371  225.0400 H   0  0  0  0  0  0  0  0  0  0  0  0
  140.5964   77.2817  223.6126 H   0  0  0  0  0  0  0  0  0  0  0  0
  1  2  2  0
  2  3  1  0
  3  4  2  0
  4  5  1  0
  5  6  2  0
  6  7  1  0
  7  8  2  0
  8  9  1  0
  9 10  2  0
 10 11  1  0
 11 12  2  0
 12 13  1  0
 13 14  2  0
 14 15  1  0
 15 16  2  0
 16 17  1  0
 17 18  2  0
 10 19  1  0
 19 20  1  0
 20 21  1  0
 21 22  2  0
 22 23  1  0
 23 24  2  0
 24 25  1  0
 25 26  2  0
 19  2  1  0
 26 21  1  0
  8  3  1  0
 18 13  1  0
  4 27  1  0
  5 28  1  0
  6 29  1  0
  7 30  1  0
 11 31  1  0
 12 32  1  0
 14 33  1  0
 15 34  1  0
 16 35  1  0
 18 36  1  0
 20 37  1  0
 20 38  1  0
 22 39  1  0
 23 40  1  0
 24 41  1  0
 25 42  1  0
 26 43  1  0
M  END
>  <smiles>  (13) 
O=c1c2ccccc2nc(/C=C/c2cccnc2)n1Cc1ccccc1

>  <score_type>  (13) 
oracle

>  <origin>  (13) 
autodockgpu

>  <m_score__min__energy>  (13) 
-7.3499999999999996

>  <m_primary>  (13) 
energy

>  <rmsd>  (13) 
4.955638306410159

>  <m_score__min__rmsd>  (13) 
4.955638306410159

>  <meeko>  (13) 
{"free_energy": -7.26, "intermolecular_energy": -8.75, "internal_energy": -1.33, "cluster_size": 6, "cluster_id": 2, "rank_in_cluster": 1}

>  <energy>  (13) 
-7.19

>  <cluster_rmsd>  (13) 
0.18

>  <cluster>  (13) 
3

$$$$

     RDKit          3D

 43 46  0  0  0  0  0  0  0  0999 V2000
  140.2370   71.9610  225.0570 O   0  0  0  0  0  0  0  0  0  0  0  0
  139.6370   70.8770  224.9920 C   0  0  0  0  0  0  0  0  0  0  0  0
  139.9140   69.9600  226.0130 C   0  0  0  0  0  0  0  0  0  0  0  0
  140.8070   70.2800  227.0130 C   0  0  0  0  0  0  0  0  0  0  0  0
  141.0810   69.3760  228.0210 C   0  0  0  0  0  0  0  0  0  0  0  0
  140.4680   68.1350  228.0460 C   0  0  0  0  0  0  0  0  0  0  0  0
  139.5790   67.8360  227.0380 C   0  0  0  0  0  0  0  0  0  0  0  0
  139.2940   68.7280  226.0230 C   0  0  0  0  0  0  0  0  0  0  0  0
  138.4420   68.4580  225.0420 N   0  0  0  0  0  0  0  0  0  0  0  0
  138.1840   69.3480  224.0670 C   0  0  0  0  0  0  0  0  0  0  0  0
  137.2400   68.9120  223.0290 C   0  0  0  0  0  0  0  0  0  0  0  0
  135.9660   68.7270  223.3130 C   0  0  0  0  0  0  0  0  0  0  0  0
  135.2670   69.3450  224.4290 C   0  0  0  0  0  0  0  0  0  0  0  0
  135.2300   70.7220  224.5700 C   0  0  0  0  0  0  0  0  0  0  0  0
  134.5830   71.3510  225.6060 C   0  0  0  0  0  0  0  0  0  0  0  0
  133.9320   70.5660  226.5610 C   0  0  0  0  0  0  0  0  0  0  0  0
  133.9670   69.2280  226.4230 N   0  0  0  0  0  0  0  0  0  0  0  0
  134.6040   68.6210  225.4060 C   0  0  0  0  0  0  0  0  0  0  0  0
  138.7520   70.5650  223.9990 N   0  0  0  0  0  0  0  0  0  0  0  0
  138.4650   71.5330  222.9830 C   0  0  0  0  0  0  0  0  0  0  0  0
  139.6280   72.1130  222.3070 C   0  0  0  0  0  0  0  0  0  0  0  0
  139.6490   73.4890  222.0680 C   0  0  0  0  0  0  0  0  0  0  0  0
  140.7240   74.0960  221.4270 C   0  0  0  0  0  0  0  0  0  0  0  0
  141.8090   73.3800  221.0010 C   0  0  0  0  0  0  0  0  0  0  0  0
  141.8050   72.0210  221.2290 C   0  0  0  0  0  0  0  0  0  0  0  0
  140.7300   71.4160  221.8700 C   0  0  0  0  0  0  0  0  0  0  0  0
  141.3045   71.2611  227.0084 H   0  0  0  0  0  0  0  0  0  0  0  0
  141.7948   69.6455  228.8133 H   0  0  0  0  0  0  0  0  0  0  0  0
  140.6842   67.4111  228.8455 H   0  0  0  0  0  0  0  0  0  0  0  0
  139.0800   66.8557  227.0413 H   0  0  0  0  0  0  0  0  0  0  0  0
  137.6000   68.7381  222.0042 H   0  0  0  0  0  0  0  0  0  0  0  0
  135.3897   68.0566  222.6585 H   0  0  0  0  0  0  0  0  0  0  0  0
  135.7420   71.3405  223.8182 H   0  0  0  0  0  0  0  0  0  0  0  0
  134.5776   72.4484  225.6819 H   0  0  0  0  0  0  0  0  0  0  0  0
  133.4032   71.0310  227.4061 H   0  0  0  0  0  0  0  0  0  0  0  0
  134.5984   67.5225  225.3487 H   0  0  0  0  0  0  0  0  0  0  0  0
  137.8396   71.0461  222.2202 H   0  0  0  0  0  0  0  0  0  0  0  0
  137.9718   72.3699  223.4991 H   0  0  0  0  0  0  0  0  0  0  0  0
  138.7979   74.1053  222.3933 H   0  0  0  0  0  0  0  0  0  0  0  0
  140.7010   75.1827  221.2578 H   0  0  0  0  0  0  0  0  0  0  0  0
  142.6535   73.8709  220.4952 H   0  0  0  0  0  0  0  0  0  0  0  0
  142.6591   71.4101  220.9013 H   0  0  0  0  0  0  0  0  0  0  0  0
  140.7623   70.3290  222.0354 H   0  0  0  0  0  0  0  0  0  0  0  0
  1  2  2  0
  2  3  1  0
  3  4  2  0
  4  5  1  0
  5  6  2  0
  6  7  1  0
  7  8  2  0
  8  9  1  0
  9 10  2  0
 10 11  1  0
 11 12  2  0
 12 13  1  0
 13 14  2  0
 14 15  1  0
 15 16  2  0
 16 17  1  0
 17 18  2  0
 10 19  1  0
 19 20  1  0
 20 21  1  0
 21 22  2  0
 22 23  1  0
 23 24  2  0
 24 25  1  0
 25 26  2  0
 19  2  1  0
 26 21  1  0
  8  3  1  0
 18 13  1  0
  4 27  1  0
  5 28  1  0
  6 29  1  0
  7 30  1  0
 11 31  1  0
 12 32  1  0
 14 33  1  0
 15 34  1  0
 16 35  1  0
 18 36  1  0
 20 37  1  0
 20 38  1  0
 22 39  1  0
 23 40  1  0
 24 41  1  0
 25 42  1  0
 26 43  1  0
M  END
>  <smiles>  (14) 
O=c1c2ccccc2nc(/C=C/c2cccnc2)n1Cc1ccccc1

>  <score_type>  (14) 
oracle

>  <origin>  (14) 
autodockgpu

>  <m_score__min__energy>  (14) 
-7.3499999999999996

>  <m_primary>  (14) 
energy

>  <rmsd>  (14) 
10.032865674297488

>  <m_score__min__rmsd>  (14) 
10.032865674297488

>  <meeko>  (14) 
{"free_energy": -7.08, "intermolecular_energy": -8.57, "internal_energy": -1.42, "cluster_size": 23, "cluster_id": 3, "rank_in_cluster": 9}

>  <energy>  (14) 
-7.19

>  <cluster_rmsd>  (14) 
0.04

>  <cluster>  (14) 
3

$$$$

     RDKit          3D

 43 46  0  0  0  0  0  0  0  0999 V2000
  138.4520   75.6470  222.0070 O   0  0  0  0  0  0  0  0  0  0  0  0
  139.5370   75.1890  221.6150 C   0  0  0  0  0  0  0  0  0  0  0  0
  139.7150   73.8100  221.7800 C   0  0  0  0  0  0  0  0  0  0  0  0
  138.7220   73.0420  222.3480 C   0  0  0  0  0  0  0  0  0  0  0  0
  138.8980   71.6810  222.5110 C   0  0  0  0  0  0  0  0  0  0  0  0
  140.0710   71.0650  222.1090 C   0  0  0  0  0  0  0  0  0  0  0  0
  141.0500   71.8510  221.5440 C   0  0  0  0  0  0  0  0  0  0  0  0
  140.8900   73.2120  221.3740 C   0  0  0  0  0  0  0  0  0  0  0  0
  141.8220   73.9870  220.8330 N   0  0  0  0  0  0  0  0  0  0  0  0
  141.6380   75.3100  220.6800 C   0  0  0  0  0  0  0  0  0  0  0  0
  142.7590   76.0540  220.0900 C   0  0  0  0  0  0  0  0  0  0  0  0
  143.5740   75.4730  219.2320 C   0  0  0  0  0  0  0  0  0  0  0  0
  144.4710   74.3750  219.5550 C   0  0  0  0  0  0  0  0  0  0  0  0
  145.0210   74.2540  220.8200 C   0  0  0  0  0  0  0  0  0  0  0  0
  145.8720   73.2350  221.1720 C   0  0  0  0  0  0  0  0  0  0  0  0
  146.1980   72.2760  220.2090 C   0  0  0  0  0  0  0  0  0  0  0  0
  145.6640   72.3930  218.9800 N   0  0  0  0  0  0  0  0  0  0  0  0
  144.8320   73.3950  218.6450 C   0  0  0  0  0  0  0  0  0  0  0  0
  140.5180   75.9550  221.0520 N   0  0  0  0  0  0  0  0  0  0  0  0
  140.2960   77.3580  220.8680 C   0  0  0  0  0  0  0  0  0  0  0  0
  141.0250   78.2440  221.7790 C   0  0  0  0  0  0  0  0  0  0  0  0
  141.7040   79.3430  221.2470 C   0  0  0  0  0  0  0  0  0  0  0  0
  142.4150   80.2180  222.0600 C   0  0  0  0  0  0  0  0  0  0  0  0
  142.4860   80.0470  223.4160 C   0  0  0  0  0  0  0  0  0  0  0  0
  141.8220   78.9690  223.9580 C   0  0  0  0  0  0  0  0  0  0  0  0
  141.1110   78.0950  223.1430 C   0  0  0  0  0  0  0  0  0  0  0  0
  137.7837   73.5149  222.6736 H   0  0  0  0  0  0  0  0  0  0  0  0
  138.0966   71.0800  222.9655 H   0  0  0  0  0  0  0  0  0  0  0  0
  140.2161   69.9821  222.2369 H   0  0  0  0  0  0  0  0  0  0  0  0
  141.9891   71.3801  221.2178 H   0  0  0  0  0  0  0  0  0  0  0  0
  142.9199   77.1063  220.3669 H   0  0  0  0  0  0  0  0  0  0  0  0
  143.5756   75.8457  218.1971 H   0  0  0  0  0  0  0  0  0  0  0  0
  144.7645   75.0088  221.5780 H   0  0  0  0  0  0  0  0  0  0  0  0
  146.2875   73.1750  222.1887 H   0  0  0  0  0  0  0  0  0  0  0  0
  146.8760   71.4442  220.4507 H   0  0  0  0  0  0  0  0  0  0  0  0
  144.4280   73.4374  217.6228 H   0  0  0  0  0  0  0  0  0  0  0  0
  140.5912   77.6144  219.8398 H   0  0  0  0  0  0  0  0  0  0  0  0
  139.2295   77.5221  221.0816 H   0  0  0  0  0  0  0  0  0  0  0  0
  141.6753   79.5196  220.1616 H   0  0  0  0  0  0  0  0  0  0  0  0
  142.9350   81.0716  221.6007 H   0  0  0  0  0  0  0  0  0  0  0  0
  143.0526   80.7450  224.0498 H   0  0  0  0  0  0  0  0  0  0  0  0
  141.8544   78.7980  225.0441 H   0  0  0  0  0  0  0  0  0  0  0  0
  140.5933   77.2449  223.6114 H   0  0  0  0  0  0  0  0  0  0  0  0
  1  2  2  0
  2  3  1  0
  3  4  2  0
  4  5  1  0
  5  6  2  0
  6  7  1  0
  7  8  2  0
  8  9  1  0
  9 10  2  0
 10 11  1  0
 11 12  2  0
 12 13  1  0
 13 14  2  0
 14 15  1  0
 15 16  2  0
 16 17  1  0
 17 18  2  0
 10 19  1  0
 19 20  1  0
 20 21  1  0
 21 22  2  0
 22 23  1  0
 23 24  2  0
 24 25  1  0
 25 26  2  0
 19  2  1  0
 26 21  1  0
  8  3  1  0
 18 13  1  0
  4 27  1  0
  5 28  1  0
  6 29  1  0
  7 30  1  0
 11 31  1  0
 12 32  1  0
 14 33  1  0
 15 34  1  0
 16 35  1  0
 18 36  1  0
 20 37  1  0
 20 38  1  0
 22 39  1  0
 23 40  1  0
 24 41  1  0
 25 42  1  0
 26 43  1  0
M  END
>  <smiles>  (15) 
O=c1c2ccccc2nc(/C=C/c2cccnc2)n1Cc1ccccc1

>  <score_type>  (15) 
oracle

>  <origin>  (15) 
autodockgpu

>  <m_score__min__energy>  (15) 
-7.3499999999999996

>  <m_primary>  (15) 
energy

>  <rmsd>  (15) 
4.980554323632756

>  <m_score__min__rmsd>  (15) 
4.980554323632756

>  <meeko>  (15) 
{"free_energy": -7.25, "intermolecular_energy": -8.74, "internal_energy": -1.33, "cluster_size": 6, "cluster_id": 2, "rank_in_cluster": 2}

>  <energy>  (15) 
-7.12

>  <cluster_rmsd>  (15) 
0.13

>  <cluster>  (15) 
3

$$$$

     RDKit          3D

 43 46  0  0  0  0  0  0  0  0999 V2000
  140.1480   71.8880  225.0970 O   0  0  0  0  0  0  0  0  0  0  0  0
  139.5910   70.7790  225.0600 C   0  0  0  0  0  0  0  0  0  0  0  0
  139.8950   69.9050  226.1100 C   0  0  0  0  0  0  0  0  0  0  0  0
  140.7660   70.2880  227.1070 C   0  0  0  0  0  0  0  0  0  0  0  0
  141.0670   69.4260  228.1430 C   0  0  0  0  0  0  0  0  0  0  0  0
  140.5010   68.1630  228.2000 C   0  0  0  0  0  0  0  0  0  0  0  0
  139.6340   67.8000  227.1950 C   0  0  0  0  0  0  0  0  0  0  0  0
  139.3230   68.6500  226.1520 C   0  0  0  0  0  0  0  0  0  0  0  0
  138.4900   68.3180  225.1730 N   0  0  0  0  0  0  0  0  0  0  0  0
  138.2060   69.1690  224.1700 C   0  0  0  0  0  0  0  0  0  0  0  0
  137.2890   68.6660  223.1390 C   0  0  0  0  0  0  0  0  0  0  0  0
  135.9860   68.8310  223.2580 C   0  0  0  0  0  0  0  0  0  0  0  0
  135.3270   69.4040  224.4210 C   0  0  0  0  0  0  0  0  0  0  0  0
  135.2940   70.7740  224.6160 C   0  0  0  0  0  0  0  0  0  0  0  0
  134.6840   71.3620  225.6970 C   0  0  0  0  0  0  0  0  0  0  0  0
  134.0680   70.5390  226.6430 C   0  0  0  0  0  0  0  0  0  0  0  0
  134.0990   69.2080  226.4530 N   0  0  0  0  0  0  0  0  0  0  0  0
  134.6990   68.6420  225.3920 C   0  0  0  0  0  0  0  0  0  0  0  0
  138.7270   70.4040  224.0700 N   0  0  0  0  0  0  0  0  0  0  0  0
  138.4110   71.3300  223.0240 C   0  0  0  0  0  0  0  0  0  0  0  0
  139.5570   71.9070  222.3150 C   0  0  0  0  0  0  0  0  0  0  0  0
  140.4070   71.0540  221.6070 C   0  0  0  0  0  0  0  0  0  0  0  0
  141.5110   71.5410  220.9170 C   0  0  0  0  0  0  0  0  0  0  0  0
  141.8190   72.8740  220.8960 C   0  0  0  0  0  0  0  0  0  0  0  0
  140.9900   73.7300  221.5880 C   0  0  0  0  0  0  0  0  0  0  0  0
  139.8860   73.2410  222.2780 C   0  0  0  0  0  0  0  0  0  0  0  0
  141.2247   71.2874  227.0773 H   0  0  0  0  0  0  0  0  0  0  0  0
  141.7639   69.7459  228.9317 H   0  0  0  0  0  0  0  0  0  0  0  0
  140.7372   67.4720  229.0227 H   0  0  0  0  0  0  0  0  0  0  0  0
  139.1741   66.8012  227.2233 H   0  0  0  0  0  0  0  0  0  0  0  0
  137.6934   68.1460  222.2580 H   0  0  0  0  0  0  0  0  0  0  0  0
  135.3521   68.5124  222.4173 H   0  0  0  0  0  0  0  0  0  0  0  0
  135.7788   71.4218  223.8707 H   0  0  0  0  0  0  0  0  0  0  0  0
  134.6806   72.4556  225.8152 H   0  0  0  0  0  0  0  0  0  0  0  0
  133.5688   70.9699  227.5234 H   0  0  0  0  0  0  0  0  0  0  0  0
  134.6911   67.5465  225.2924 H   0  0  0  0  0  0  0  0  0  0  0  0
  137.7868   70.8051  222.2858 H   0  0  0  0  0  0  0  0  0  0  0  0
  137.9073   72.1754  223.5155 H   0  0  0  0  0  0  0  0  0  0  0  0
  140.1982   69.9741  221.5953 H   0  0  0  0  0  0  0  0  0  0  0  0
  142.1552   70.8349  220.3725 H   0  0  0  0  0  0  0  0  0  0  0  0
  142.6957   73.2484  220.3471 H   0  0  0  0  0  0  0  0  0  0  0  0
  141.2033   74.8091  221.5947 H   0  0  0  0  0  0  0  0  0  0  0  0
  139.2469   73.9544  222.8189 H   0  0  0  0  0  0  0  0  0  0  0  0
  1  2  2  0
  2  3  1  0
  3  4  2  0
  4  5  1  0
  5  6  2  0
  6  7  1  0
  7  8  2  0
  8  9  1  0
  9 10  2  0
 10 11  1  0
 11 12  2  0
 12 13  1  0
 13 14  2  0
 14 15  1  0
 15 16  2  0
 16 17  1  0
 17 18  2  0
 10 19  1  0
 19 20  1  0
 20 21  1  0
 21 22  2  0
 22 23  1  0
 23 24  2  0
 24 25  1  0
 25 26  2  0
 19  2  1  0
 26 21  1  0
  8  3  1  0
 18 13  1  0
  4 27  1  0
  5 28  1  0
  6 29  1  0
  7 30  1  0
 11 31  1  0
 12 32  1  0
 14 33  1  0
 15 34  1  0
 16 35  1  0
 18 36  1  0
 20 37  1  0
 20 38  1  0
 22 39  1  0
 23 40  1  0
 24 41  1  0
 25 42  1  0
 26 43  1  0
M  END
>  <smiles>  (16) 
O=c1c2ccccc2nc(/C=C/c2cccnc2)n1Cc1ccccc1

>  <score_type>  (16) 
oracle

>  <origin>  (16) 
autodockgpu

>  <m_score__min__energy>  (16) 
-7.3499999999999996

>  <m_primary>  (16) 
energy

>  <rmsd>  (16) 
10.152891590965782

>  <m_score__min__rmsd>  (16) 
10.152891590965782

>  <meeko>  (16) 
{"free_energy": -7.0, "intermolecular_energy": -8.49, "internal_energy": -1.51, "cluster_size": 23, "cluster_id": 3, "rank_in_cluster": 20}

>  <energy>  (16) 
-7.12

>  <cluster_rmsd>  (16) 
0.14

>  <cluster>  (16) 
3

$$$$

     RDKit          3D

 43 46  0  0  0  0  0  0  0  0999 V2000
  140.1480   71.8760  225.0480 O   0  0  0  0  0  0  0  0  0  0  0  0
  139.5930   70.7650  225.0110 C   0  0  0  0  0  0  0  0  0  0  0  0
  139.8960   69.8940  226.0630 C   0  0  0  0  0  0  0  0  0  0  0  0
  140.7620   70.2820  227.0630 C   0  0  0  0  0  0  0  0  0  0  0  0
  141.0610   69.4220  228.1020 C   0  0  0  0  0  0  0  0  0  0  0  0
  140.4980   68.1580  228.1600 C   0  0  0  0  0  0  0  0  0  0  0  0
  139.6350   67.7910  227.1520 C   0  0  0  0  0  0  0  0  0  0  0  0
  139.3260   68.6380  226.1060 C   0  0  0  0  0  0  0  0  0  0  0  0
  138.4980   68.3020  225.1250 N   0  0  0  0  0  0  0  0  0  0  0  0
  138.2160   69.1500  224.1190 C   0  0  0  0  0  0  0  0  0  0  0  0
  137.3040   68.6430  223.0850 C   0  0  0  0  0  0  0  0  0  0  0  0
  136.0010   68.8140  223.1940 C   0  0  0  0  0  0  0  0  0  0  0  0
  135.3320   69.3550  224.3660 C   0  0  0  0  0  0  0  0  0  0  0  0
  135.2890   70.7200  224.5930 C   0  0  0  0  0  0  0  0  0  0  0  0
  134.6690   71.2790  225.6840 C   0  0  0  0  0  0  0  0  0  0  0  0
  134.0540   70.4300  226.6080 C   0  0  0  0  0  0  0  0  0  0  0  0
  134.0950   69.1040  226.3880 N   0  0  0  0  0  0  0  0  0  0  0  0
  134.7050   68.5670  225.3160 C   0  0  0  0  0  0  0  0  0  0  0  0
  138.7350   70.3860  224.0180 N   0  0  0  0  0  0  0  0  0  0  0  0
  138.4210   71.3100  222.9690 C   0  0  0  0  0  0  0  0  0  0  0  0
  139.5670   71.9480  222.3160 C   0  0  0  0  0  0  0  0  0  0  0  0
  139.5710   73.3380  222.1760 C   0  0  0  0  0  0  0  0  0  0  0  0
  140.6280   74.0010  221.5630 C   0  0  0  0  0  0  0  0  0  0  0  0
  141.7130   73.3280  221.0690 C   0  0  0  0  0  0  0  0  0  0  0  0
  141.7250   71.9560  221.2000 C   0  0  0  0  0  0  0  0  0  0  0  0
  140.6670   71.2960  221.8130 C   0  0  0  0  0  0  0  0  0  0  0  0
  141.2178   71.2827  227.0334 H   0  0  0  0  0  0  0  0  0  0  0  0
  141.7544   69.7450  228.8925 H   0  0  0  0  0  0  0  0  0  0  0  0
  140.7328   67.4693  228.9850 H   0  0  0  0  0  0  0  0  0  0  0  0
  139.1770   66.7913  227.1807 H   0  0  0  0  0  0  0  0  0  0  0  0
  137.7123   68.1151  222.2106 H   0  0  0  0  0  0  0  0  0  0  0  0
  135.3751   68.5266  222.3363 H   0  0  0  0  0  0  0  0  0  0  0  0
  135.7738   71.3881  223.8659 H   0  0  0  0  0  0  0  0  0  0  0  0
  134.6569   72.3696  225.8270 H   0  0  0  0  0  0  0  0  0  0  0  0
  133.5476   70.8373  227.4955 H   0  0  0  0  0  0  0  0  0  0  0  0
  134.7056   67.4741  225.1911 H   0  0  0  0  0  0  0  0  0  0  0  0
  137.8537   70.7663  222.1992 H   0  0  0  0  0  0  0  0  0  0  0  0
  137.8585   72.1251  223.4478 H   0  0  0  0  0  0  0  0  0  0  0  0
  138.7198   73.9201  222.5589 H   0  0  0  0  0  0  0  0  0  0  0  0
  140.5916   75.0967  221.4724 H   0  0  0  0  0  0  0  0  0  0  0  0
  142.5442   73.8623  220.5856 H   0  0  0  0  0  0  0  0  0  0  0  0
  142.5791   71.3788  220.8161 H   0  0  0  0  0  0  0  0  0  0  0  0
  140.7121   70.2003  221.8997 H   0  0  0  0  0  0  0  0  0  0  0  0
  1  2  2  0
  2  3  1  0
  3  4  2  0
  4  5  1  0
  5  6  2  0
  6  7  1  0
  7  8  2  0
  8  9  1  0
  9 10  2  0
 10 11  1  0
 11 12  2  0
 12 13  1  0
 13 14  2  0
 14 15  1  0
 15 16  2  0
 16 17  1  0
 17 18  2  0
 10 19  1  0
 19 20  1  0
 20 21  1  0
 21 22  2  0
 22 23  1  0
 23 24  2  0
 24 25  1  0
 25 26  2  0
 19  2  1  0
 26 21  1  0
  8  3  1  0
 18 13  1  0
  4 27  1  0
  5 28  1  0
  6 29  1  0
  7 30  1  0
 11 31  1  0
 12 32  1  0
 14 33  1  0
 15 34  1  0
 16 35  1  0
 18 36  1  0
 20 37  1  0
 20 38  1  0
 22 39  1  0
 23 40  1  0
 24 41  1  0
 25 42  1  0
 26 43  1  0
M  END
>  <smiles>  (17) 
O=c1c2ccccc2nc(/C=C/c2cccnc2)n1Cc1ccccc1

>  <score_type>  (17) 
oracle

>  <origin>  (17) 
autodockgpu

>  <m_score__min__energy>  (17) 
-7.3499999999999996

>  <m_primary>  (17) 
energy

>  <rmsd>  (17) 
10.11461464491115

>  <m_score__min__rmsd>  (17) 
10.11461464491115

>  <meeko>  (17) 
{"free_energy": -7.08, "intermolecular_energy": -8.57, "internal_energy": -1.47, "cluster_size": 23, "cluster_id": 3, "rank_in_cluster": 10}

>  <energy>  (17) 
-7.11

>  <cluster_rmsd>  (17) 
0.14

>  <cluster>  (17) 
3

$$$$

     RDKit          3D

 43 46  0  0  0  0  0  0  0  0999 V2000
  140.1560   71.8950  225.0550 O   0  0  0  0  0  0  0  0  0  0  0  0
  139.5970   70.7870  225.0150 C   0  0  0  0  0  0  0  0  0  0  0  0
  139.8960   69.9120  226.0650 C   0  0  0  0  0  0  0  0  0  0  0  0
  140.7630   70.2950  227.0670 C   0  0  0  0  0  0  0  0  0  0  0  0
  141.0580   69.4320  228.1040 C   0  0  0  0  0  0  0  0  0  0  0  0
  140.4910   68.1690  228.1580 C   0  0  0  0  0  0  0  0  0  0  0  0
  139.6280   67.8070  227.1490 C   0  0  0  0  0  0  0  0  0  0  0  0
  139.3230   68.6580  226.1040 C   0  0  0  0  0  0  0  0  0  0  0  0
  138.4950   68.3270  225.1220 N   0  0  0  0  0  0  0  0  0  0  0  0
  138.2160   69.1780  224.1180 C   0  0  0  0  0  0  0  0  0  0  0  0
  137.3030   68.6770  223.0820 C   0  0  0  0  0  0  0  0  0  0  0  0
  135.9980   68.8130  223.2110 C   0  0  0  0  0  0  0  0  0  0  0  0
  135.3340   69.3530  224.3870 C   0  0  0  0  0  0  0  0  0  0  0  0
  135.2840   70.7190  224.6110 C   0  0  0  0  0  0  0  0  0  0  0  0
  134.6680   71.2760  225.7060 C   0  0  0  0  0  0  0  0  0  0  0  0
  134.0650   70.4250  226.6360 C   0  0  0  0  0  0  0  0  0  0  0  0
  134.1130   69.0980  226.4180 N   0  0  0  0  0  0  0  0  0  0  0  0
  134.7190   68.5630  225.3440 C   0  0  0  0  0  0  0  0  0  0  0  0
  138.7380   70.4130  224.0210 N   0  0  0  0  0  0  0  0  0  0  0  0
  138.4280   71.3400  222.9740 C   0  0  0  0  0  0  0  0  0  0  0  0
  139.5770   71.9450  222.2950 C   0  0  0  0  0  0  0  0  0  0  0  0
  140.4750   71.1110  221.6230 C   0  0  0  0  0  0  0  0  0  0  0  0
  141.5850   71.6260  220.9630 C   0  0  0  0  0  0  0  0  0  0  0  0
  141.8540   72.9680  220.9390 C   0  0  0  0  0  0  0  0  0  0  0  0
  140.9790   73.8040  221.5970 C   0  0  0  0  0  0  0  0  0  0  0  0
  139.8690   73.2880  222.2560 C   0  0  0  0  0  0  0  0  0  0  0  0
  141.2224   71.2941  227.0400 H   0  0  0  0  0  0  0  0  0  0  0  0
  141.7512   69.7510  228.8963 H   0  0  0  0  0  0  0  0  0  0  0  0
  140.7233   67.4775  228.9813 H   0  0  0  0  0  0  0  0  0  0  0  0
  139.1665   66.8088  227.1752 H   0  0  0  0  0  0  0  0  0  0  0  0
  137.7127   68.1829  222.1887 H   0  0  0  0  0  0  0  0  0  0  0  0
  135.3659   68.4952  222.3687 H   0  0  0  0  0  0  0  0  0  0  0  0
  135.7591   71.3886  223.8789 H   0  0  0  0  0  0  0  0  0  0  0  0
  134.6500   72.3668  225.8471 H   0  0  0  0  0  0  0  0  0  0  0  0
  133.5624   70.8308  227.5263 H   0  0  0  0  0  0  0  0  0  0  0  0
  134.7266   67.4698  225.2221 H   0  0  0  0  0  0  0  0  0  0  0  0
  137.8315   70.8080  222.2183 H   0  0  0  0  0  0  0  0  0  0  0  0
  137.8970   72.1718  223.4599 H   0  0  0  0  0  0  0  0  0  0  0  0
  140.3000   70.0250  221.6162 H   0  0  0  0  0  0  0  0  0  0  0  0
  142.2667   70.9352  220.4452 H   0  0  0  0  0  0  0  0  0  0  0  0
  142.7358   73.3639  220.4140 H   0  0  0  0  0  0  0  0  0  0  0  0
  141.1601   74.8890  221.6010 H   0  0  0  0  0  0  0  0  0  0  0  0
  139.1928   73.9868  222.7702 H   0  0  0  0  0  0  0  0  0  0  0  0
  1  2  2  0
  2  3  1  0
  3  4  2  0
  4  5  1  0
  5  6  2  0
  6  7  1  0
  7  8  2  0
  8  9  1  0
  9 10  2  0
 10 11  1  0
 11 12  2  0
 12 13  1  0
 13 14  2  0
 14 15  1  0
 15 16  2  0
 16 17  1  0
 17 18  2  0
 10 19  1  0
 19 20  1  0
 20 21  1  0
 21 22  2  0
 22 23  1  0
 23 24  2  0
 24 25  1  0
 25 26  2  0
 19  2  1  0
 26 21  1  0
  8  3  1  0
 18 13  1  0
  4 27  1  0
  5 28  1  0
  6 29  1  0
  7 30  1  0
 11 31  1  0
 12 32  1  0
 14 33  1  0
 15 34  1  0
 16 35  1  0
 18 36  1  0
 20 37  1  0
 20 38  1  0
 22 39  1  0
 23 40  1  0
 24 41  1  0
 25 42  1  0
 26 43  1  0
M  END
>  <smiles>  (18) 
O=c1c2ccccc2nc(/C=C/c2cccnc2)n1Cc1ccccc1

>  <score_type>  (18) 
oracle

>  <origin>  (18) 
autodockgpu

>  <m_score__min__energy>  (18) 
-7.3499999999999996

>  <m_primary>  (18) 
energy

>  <rmsd>  (18) 
10.110686494070562

>  <m_score__min__rmsd>  (18) 
10.110686494070562

>  <meeko>  (18) 
{"free_energy": -7.0, "intermolecular_energy": -8.49, "internal_energy": -1.5, "cluster_size": 23, "cluster_id": 3, "rank_in_cluster": 21}

>  <energy>  (18) 
-7.11

>  <cluster_rmsd>  (18) 
0.14

>  <cluster>  (18) 
3

$$$$

     RDKit          3D

 43 46  0  0  0  0  0  0  0  0999 V2000
  139.0830   74.1740  222.3580 O   0  0  0  0  0  0  0  0  0  0  0  0
  140.0700   73.9910  221.6280 C   0  0  0  0  0  0  0  0  0  0  0  0
  140.7710   75.1410  221.2460 C   0  0  0  0  0  0  0  0  0  0  0  0
  140.3590   76.3840  221.6770 C   0  0  0  0  0  0  0  0  0  0  0  0
  141.0500   77.5190  221.3000 C   0  0  0  0  0  0  0  0  0  0  0  0
  142.1660   77.4320  220.4860 C   0  0  0  0  0  0  0  0  0  0  0  0
  142.5620   76.1810  220.0680 C   0  0  0  0  0  0  0  0  0  0  0  0
  141.8820   75.0360  220.4350 C   0  0  0  0  0  0  0  0  0  0  0  0
  142.2460   73.8220  220.0420 N   0  0  0  0  0  0  0  0  0  0  0  0
  141.5640   72.7250  220.4160 C   0  0  0  0  0  0  0  0  0  0  0  0
  142.0590   71.4470  219.8900 C   0  0  0  0  0  0  0  0  0  0  0  0
  143.3060   71.0710  220.0970 C   0  0  0  0  0  0  0  0  0  0  0  0
  144.4540   71.9640  220.0810 C   0  0  0  0  0  0  0  0  0  0  0  0
  144.8390   72.6470  221.2220 C   0  0  0  0  0  0  0  0  0  0  0  0
  145.9160   73.5000  221.2570 C   0  0  0  0  0  0  0  0  0  0  0  0
  146.6550   73.6880  220.0860 C   0  0  0  0  0  0  0  0  0  0  0  0
  146.2810   73.0240  218.9770 N   0  0  0  0  0  0  0  0  0  0  0  0
  145.2260   72.1910  218.9540 C   0  0  0  0  0  0  0  0  0  0  0  0
  140.4760   72.7570  221.2050 N   0  0  0  0  0  0  0  0  0  0  0  0
  139.7570   71.5960  221.6360 C   0  0  0  0  0  0  0  0  0  0  0  0
  139.8850   71.2560  223.0560 C   0  0  0  0  0  0  0  0  0  0  0  0
  139.1230   70.2020  223.5650 C   0  0  0  0  0  0  0  0  0  0  0  0
  139.1990   69.8350  224.9040 C   0  0  0  0  0  0  0  0  0  0  0  0
  140.0200   70.4840  225.7860 C   0  0  0  0  0  0  0  0  0  0  0  0
  140.7800   71.5250  225.2990 C   0  0  0  0  0  0  0  0  0  0  0  0
  140.7030   71.8910  223.9600 C   0  0  0  0  0  0  0  0  0  0  0  0
  139.4746   76.4724  222.3251 H   0  0  0  0  0  0  0  0  0  0  0  0
  140.7092   78.5042  221.6510 H   0  0  0  0  0  0  0  0  0  0  0  0
  142.7189   78.3332  220.1826 H   0  0  0  0  0  0  0  0  0  0  0  0
  143.4475   76.0907  219.4216 H   0  0  0  0  0  0  0  0  0  0  0  0
  141.3825   70.7959  219.3170 H   0  0  0  0  0  0  0  0  0  0  0  0
  143.4913   70.0052  220.2961 H   0  0  0  0  0  0  0  0  0  0  0  0
  144.2560   72.5002  222.1431 H   0  0  0  0  0  0  0  0  0  0  0  0
  146.1900   74.0226  222.1853 H   0  0  0  0  0  0  0  0  0  0  0  0
  147.5229   74.3636  220.0711 H   0  0  0  0  0  0  0  0  0  0  0  0
  144.9695   71.6767  218.0161 H   0  0  0  0  0  0  0  0  0  0  0  0
  138.6905   71.7616  221.4236 H   0  0  0  0  0  0  0  0  0  0  0  0
  140.1974   70.7512  221.0861 H   0  0  0  0  0  0  0  0  0  0  0  0
  138.4489   69.6509  222.8928 H   0  0  0  0  0  0  0  0  0  0  0  0
  138.5816   68.9991  225.2647 H   0  0  0  0  0  0  0  0  0  0  0  0
  140.0712   70.1858  226.8436 H   0  0  0  0  0  0  0  0  0  0  0  0
  141.4536   72.0713  225.9756 H   0  0  0  0  0  0  0  0  0  0  0  0
  141.3252   72.7270  223.6078 H   0  0  0  0  0  0  0  0  0  0  0  0
  1  2  2  0
  2  3  1  0
  3  4  2  0
  4  5  1  0
  5  6  2  0
  6  7  1  0
  7  8  2  0
  8  9  1  0
  9 10  2  0
 10 11  1  0
 11 12  2  0
 12 13  1  0
 13 14  2  0
 14 15  1  0
 15 16  2  0
 16 17  1  0
 17 18  2  0
 10 19  1  0
 19 20  1  0
 20 21  1  0
 21 22  2  0
 22 23  1  0
 23 24  2  0
 24 25  1  0
 25 26  2  0
 19  2  1  0
 26 21  1  0
  8  3  1  0
 18 13  1  0
  4 27  1  0
  5 28  1  0
  6 29  1  0
  7 30  1  0
 11 31  1  0
 12 32  1  0
 14 33  1  0
 15 34  1  0
 16 35  1  0
 18 36  1  0
 20 37  1  0
 20 38  1  0
 22 39  1  0
 23 40  1  0
 24 41  1  0
 25 42  1  0
 26 43  1  0
M  END
>  <smiles>  (19) 
O=c1c2ccccc2nc(/C=C/c2cccnc2)n1Cc1ccccc1

>  <score_type>  (19) 
oracle

>  <origin>  (19) 
autodockgpu

>  <m_score__min__energy>  (19) 
-7.3499999999999996

>  <m_primary>  (19) 
energy

>  <rmsd>  (19) 
8.601036554052047

>  <m_score__min__rmsd>  (19) 
8.601036554052047

>  <meeko>  (19) 
{"free_energy": -7.15, "intermolecular_energy": -8.64, "internal_energy": -1.46, "cluster_size": 4, "cluster_id": 5, "rank_in_cluster": 1}

>  <energy>  (19) 
-7.08

>  <cluster_rmsd>  (19) 
0.17

>  <cluster>  (19) 
3

$$$$

     RDKit          3D

 43 46  0  0  0  0  0  0  0  0999 V2000
  140.1050   71.8840  225.1550 O   0  0  0  0  0  0  0  0  0  0  0  0
  139.5700   70.7640  225.1230 C   0  0  0  0  0  0  0  0  0  0  0  0
  139.9020   69.8960  226.1690 C   0  0  0  0  0  0  0  0  0  0  0  0
  140.7730   70.2980  227.1590 C   0  0  0  0  0  0  0  0  0  0  0  0
  141.1010   69.4420  228.1920 C   0  0  0  0  0  0  0  0  0  0  0  0
  140.5630   68.1680  228.2540 C   0  0  0  0  0  0  0  0  0  0  0  0
  139.6940   67.7870  227.2570 C   0  0  0  0  0  0  0  0  0  0  0  0
  139.3560   68.6300  226.2170 C   0  0  0  0  0  0  0  0  0  0  0  0
  138.5210   68.2810  225.2460 N   0  0  0  0  0  0  0  0  0  0  0  0
  138.2110   69.1250  224.2450 C   0  0  0  0  0  0  0  0  0  0  0  0
  137.2950   68.6040  223.2220 C   0  0  0  0  0  0  0  0  0  0  0  0
  136.0140   68.9160  223.2440 C   0  0  0  0  0  0  0  0  0  0  0  0
  135.3010   69.4100  224.4110 C   0  0  0  0  0  0  0  0  0  0  0  0
  135.2000   70.7680  224.6610 C   0  0  0  0  0  0  0  0  0  0  0  0
  134.5370   71.2820  225.7490 C   0  0  0  0  0  0  0  0  0  0  0  0
  133.9370   70.3930  226.6440 C   0  0  0  0  0  0  0  0  0  0  0  0
  134.0340   69.0740  226.4010 N   0  0  0  0  0  0  0  0  0  0  0  0
  134.6850   68.5800  225.3330 C   0  0  0  0  0  0  0  0  0  0  0  0
  138.7060   70.3710  224.1410 N   0  0  0  0  0  0  0  0  0  0  0  0
  138.3610   71.2910  223.0980 C   0  0  0  0  0  0  0  0  0  0  0  0
  139.4870   71.8870  222.3750 C   0  0  0  0  0  0  0  0  0  0  0  0
  140.3620   71.0450  221.6830 C   0  0  0  0  0  0  0  0  0  0  0  0
  141.4500   71.5510  220.9800 C   0  0  0  0  0  0  0  0  0  0  0  0
  141.7180   72.8920  220.9320 C   0  0  0  0  0  0  0  0  0  0  0  0
  140.8650   73.7360  221.6080 C   0  0  0  0  0  0  0  0  0  0  0  0
  139.7770   73.2290  222.3100 C   0  0  0  0  0  0  0  0  0  0  0  0
  141.2096   71.3071  227.1260 H   0  0  0  0  0  0  0  0  0  0  0  0
  141.7979   69.7765  228.9746 H   0  0  0  0  0  0  0  0  0  0  0  0
  140.8218   67.4820  229.0740 H   0  0  0  0  0  0  0  0  0  0  0  0
  139.2548   66.7790  227.2898 H   0  0  0  0  0  0  0  0  0  0  0  0
  137.6816   67.9467  222.4292 H   0  0  0  0  0  0  0  0  0  0  0  0
  135.4432   68.7937  222.3117 H   0  0  0  0  0  0  0  0  0  0  0  0
  135.6724   71.4677  223.9559 H   0  0  0  0  0  0  0  0  0  0  0  0
  134.4800   72.3684  225.9116 H   0  0  0  0  0  0  0  0  0  0  0  0
  133.3972   70.7637  227.5279 H   0  0  0  0  0  0  0  0  0  0  0  0
  134.7294   67.4905  225.1881 H   0  0  0  0  0  0  0  0  0  0  0  0
  137.7370   70.7548  222.3679 H   0  0  0  0  0  0  0  0  0  0  0  0
  137.8489   72.1279  223.5954 H   0  0  0  0  0  0  0  0  0  0  0  0
  140.1864   69.9592  221.6947 H   0  0  0  0  0  0  0  0  0  0  0  0
  142.1137   70.8538  220.4476 H   0  0  0  0  0  0  0  0  0  0  0  0
  142.5825   73.2814  220.3743 H   0  0  0  0  0  0  0  0  0  0  0  0
  141.0460   74.8209  221.5924 H   0  0  0  0  0  0  0  0  0  0  0  0
  139.1181   73.9343  222.8376 H   0  0  0  0  0  0  0  0  0  0  0  0
  1  2  2  0
  2  3  1  0
  3  4  2  0
  4  5  1  0
  5  6  2  0
  6  7  1  0
  7  8  2  0
  8  9  1  0
  9 10  2  0
 10 11  1  0
 11 12  2  0
 12 13  1  0
 13 14  2  0
 14 15  1  0
 15 16  2  0
 16 17  1  0
 17 18  2  0
 10 19  1  0
 19 20  1  0
 20 21  1  0
 21 22  2  0
 22 23  1  0
 23 24  2  0
 24 25  1  0
 25 26  2  0
 19  2  1  0
 26 21  1  0
  8  3  1  0
 18 13  1  0
  4 27  1  0
  5 28  1  0
  6 29  1  0
  7 30  1  0
 11 31  1  0
 12 32  1  0
 14 33  1  0
 15 34  1  0
 16 35  1  0
 18 36  1  0
 20 37  1  0
 20 38  1  0
 22 39  1  0
 23 40  1  0
 24 41  1  0
 25 42  1  0
 26 43  1  0
M  END
>  <smiles>  (20) 
O=c1c2ccccc2nc(/C=C/c2cccnc2)n1Cc1ccccc1

>  <score_type>  (20) 
oracle

>  <origin>  (20) 
autodockgpu

>  <m_score__min__energy>  (20) 
-7.3499999999999996

>  <m_primary>  (20) 
energy

>  <rmsd>  (20) 
10.174519330160619

>  <m_score__min__rmsd>  (20) 
10.174519330160619

>  <meeko>  (20) 
{"free_energy": -7.06, "intermolecular_energy": -8.55, "internal_energy": -1.48, "cluster_size": 23, "cluster_id": 3, "rank_in_cluster": 13}

>  <energy>  (20) 
-7.08

>  <cluster_rmsd>  (20) 
0.22

>  <cluster>  (20) 
3

$$$$

     RDKit          3D

 43 46  0  0  0  0  0  0  0  0999 V2000
  138.3890   75.6130  221.9440 O   0  0  0  0  0  0  0  0  0  0  0  0
  139.4740   75.1340  221.5760 C   0  0  0  0  0  0  0  0  0  0  0  0
  139.6300   73.7560  221.7640 C   0  0  0  0  0  0  0  0  0  0  0  0
  138.6170   73.0100  222.3280 C   0  0  0  0  0  0  0  0  0  0  0  0
  138.7710   71.6500  222.5140 C   0  0  0  0  0  0  0  0  0  0  0  0
  139.9420   71.0110  222.1400 C   0  0  0  0  0  0  0  0  0  0  0  0
  140.9400   71.7750  221.5780 C   0  0  0  0  0  0  0  0  0  0  0  0
  140.8030   73.1360  221.3850 C   0  0  0  0  0  0  0  0  0  0  0  0
  141.7540   73.8880  220.8470 N   0  0  0  0  0  0  0  0  0  0  0  0
  141.5900   75.2120  220.6720 C   0  0  0  0  0  0  0  0  0  0  0  0
  142.7310   75.9310  220.0880 C   0  0  0  0  0  0  0  0  0  0  0  0
  143.5160   75.3440  219.2070 C   0  0  0  0  0  0  0  0  0  0  0  0
  144.4680   74.2900  219.5180 C   0  0  0  0  0  0  0  0  0  0  0  0
  144.9900   74.1560  220.7930 C   0  0  0  0  0  0  0  0  0  0  0  0
  145.8910   73.1770  221.1350 C   0  0  0  0  0  0  0  0  0  0  0  0
  146.2990   72.2730  220.1500 C   0  0  0  0  0  0  0  0  0  0  0  0
  145.7910   72.4020  218.9110 N   0  0  0  0  0  0  0  0  0  0  0  0
  144.9100   73.3650  218.5860 C   0  0  0  0  0  0  0  0  0  0  0  0
  140.4740   75.8780  221.0170 N   0  0  0  0  0  0  0  0  0  0  0  0
  140.2750   77.2810  220.8090 C   0  0  0  0  0  0  0  0  0  0  0  0
  140.9910   78.1700  221.7270 C   0  0  0  0  0  0  0  0  0  0  0  0
  141.5990   79.3180  221.2120 C   0  0  0  0  0  0  0  0  0  0  0  0
  142.2950   80.1990  222.0330 C   0  0  0  0  0  0  0  0  0  0  0  0
  142.4190   79.9860  223.3800 C   0  0  0  0  0  0  0  0  0  0  0  0
  141.8240   78.8590  223.9040 C   0  0  0  0  0  0  0  0  0  0  0  0
  141.1290   77.9800  223.0810 C   0  0  0  0  0  0  0  0  0  0  0  0
  137.6806   73.5008  222.6317 H   0  0  0  0  0  0  0  0  0  0  0  0
  137.9540   71.0673  222.9645 H   0  0  0  0  0  0  0  0  0  0  0  0
  140.0702   69.9285  222.2873 H   0  0  0  0  0  0  0  0  0  0  0  0
  141.8768   71.2858  221.2728 H   0  0  0  0  0  0  0  0  0  0  0  0
  142.9319   76.9697  220.3893 H   0  0  0  0  0  0  0  0  0  0  0  0
  143.4459   75.6755  218.1605 H   0  0  0  0  0  0  0  0  0  0  0  0
  144.6683   74.8666  221.5686 H   0  0  0  0  0  0  0  0  0  0  0  0
  146.2825   73.1061  222.1605 H   0  0  0  0  0  0  0  0  0  0  0  0
  147.0189   71.4745  220.3826 H   0  0  0  0  0  0  0  0  0  0  0  0
  144.5311   73.4195  217.5548 H   0  0  0  0  0  0  0  0  0  0  0  0
  140.6002   77.5198  219.7857 H   0  0  0  0  0  0  0  0  0  0  0  0
  139.2055   77.4612  220.9924 H   0  0  0  0  0  0  0  0  0  0  0  0
  141.5256   79.5293  220.1350 H   0  0  0  0  0  0  0  0  0  0  0  0
  142.7587   81.0917  221.5879 H   0  0  0  0  0  0  0  0  0  0  0  0
  142.9730   80.6885  224.0200 H   0  0  0  0  0  0  0  0  0  0  0  0
  141.8995   78.6532  224.9819 H   0  0  0  0  0  0  0  0  0  0  0  0
  140.6678   77.0905  223.5351 H   0  0  0  0  0  0  0  0  0  0  0  0
  1  2  2  0
  2  3  1  0
  3  4  2  0
  4  5  1  0
  5  6  2  0
  6  7  1  0
  7  8  2  0
  8  9  1  0
  9 10  2  0
 10 11  1  0
 11 12  2  0
 12 13  1  0
 13 14  2  0
 14 15  1  0
 15 16  2  0
 16 17  1  0
 17 18  2  0
 10 19  1  0
 19 20  1  0
 20 21  1  0
 21 22  2  0
 22 23  1  0
 23 24  2  0
 24 25  1  0
 25 26  2  0
 19  2  1  0
 26 21  1  0
  8  3  1  0
 18 13  1  0
  4 27  1  0
  5 28  1  0
  6 29  1  0
  7 30  1  0
 11 31  1  0
 12 32  1  0
 14 33  1  0
 15 34  1  0
 16 35  1  0
 18 36  1  0
 20 37  1  0
 20 38  1  0
 22 39  1  0
 23 40  1  0
 24 41  1  0
 25 42  1  0
 26 43  1  0
M  END
>  <smiles>  (21) 
O=c1c2ccccc2nc(/C=C/c2cccnc2)n1Cc1ccccc1

>  <score_type>  (21) 
oracle

>  <origin>  (21) 
autodockgpu

>  <m_score__min__energy>  (21) 
-7.3499999999999996

>  <m_primary>  (21) 
energy

>  <rmsd>  (21) 
5.001213441038118

>  <m_score__min__rmsd>  (21) 
5.001213441038118

>  <meeko>  (21) 
{"free_energy": -7.24, "intermolecular_energy": -8.73, "internal_energy": -1.32, "cluster_size": 6, "cluster_id": 2, "rank_in_cluster": 6}

>  <energy>  (21) 
-7.08

>  <cluster_rmsd>  (21) 
0.18

>  <cluster>  (21) 
3

$$$$

     RDKit          3D

 43 46  0  0  0  0  0  0  0  0999 V2000
  140.2000   71.8900  225.0700 O   0  0  0  0  0  0  0  0  0  0  0  0
  139.6300   70.7890  225.0220 C   0  0  0  0  0  0  0  0  0  0  0  0
  139.9180   69.9030  226.0670 C   0  0  0  0  0  0  0  0  0  0  0  0
  140.7870   70.2700  227.0720 C   0  0  0  0  0  0  0  0  0  0  0  0
  141.0720   69.3960  228.1030 C   0  0  0  0  0  0  0  0  0  0  0  0
  140.4920   68.1390  228.1480 C   0  0  0  0  0  0  0  0  0  0  0  0
  139.6260   67.7940  227.1350 C   0  0  0  0  0  0  0  0  0  0  0  0
  139.3310   68.6550  226.0960 C   0  0  0  0  0  0  0  0  0  0  0  0
  138.5000   68.3400  225.1110 N   0  0  0  0  0  0  0  0  0  0  0  0
  138.2320   69.2010  224.1120 C   0  0  0  0  0  0  0  0  0  0  0  0
  137.3150   68.7170  223.0720 C   0  0  0  0  0  0  0  0  0  0  0  0
  136.0090   68.7800  223.2430 C   0  0  0  0  0  0  0  0  0  0  0  0
  135.3530   69.3580  224.4050 C   0  0  0  0  0  0  0  0  0  0  0  0
  135.3090   70.7290  224.5880 C   0  0  0  0  0  0  0  0  0  0  0  0
  134.7010   71.3220  225.6690 C   0  0  0  0  0  0  0  0  0  0  0  0
  134.0990   70.5020  226.6270 C   0  0  0  0  0  0  0  0  0  0  0  0
  134.1410   69.1690  226.4490 N   0  0  0  0  0  0  0  0  0  0  0  0
  134.7390   68.5990  225.3880 C   0  0  0  0  0  0  0  0  0  0  0  0
  138.7680   70.4310  224.0240 N   0  0  0  0  0  0  0  0  0  0  0  0
  138.4690   71.3680  222.9830 C   0  0  0  0  0  0  0  0  0  0  0  0
  139.6260   71.9860  222.3290 C   0  0  0  0  0  0  0  0  0  0  0  0
  139.6510   73.3750  222.1800 C   0  0  0  0  0  0  0  0  0  0  0  0
  140.7200   74.0180  221.5650 C   0  0  0  0  0  0  0  0  0  0  0  0
  141.7950   73.3260  221.0770 C   0  0  0  0  0  0  0  0  0  0  0  0
  141.7860   71.9550  221.2160 C   0  0  0  0  0  0  0  0  0  0  0  0
  140.7170   71.3140  221.8310 C   0  0  0  0  0  0  0  0  0  0  0  0
  141.2563   71.2647  227.0529 H   0  0  0  0  0  0  0  0  0  0  0  0
  141.7680   69.7020  228.8979 H   0  0  0  0  0  0  0  0  0  0  0  0
  140.7161   67.4392  228.9665 H   0  0  0  0  0  0  0  0  0  0  0  0
  139.1538   66.8007  227.1536 H   0  0  0  0  0  0  0  0  0  0  0  0
  137.7220   68.2974  222.1402 H   0  0  0  0  0  0  0  0  0  0  0  0
  135.3698   68.3655  222.4495 H   0  0  0  0  0  0  0  0  0  0  0  0
  135.7825   71.3743  223.8334 H   0  0  0  0  0  0  0  0  0  0  0  0
  134.6887   72.4166  225.7773 H   0  0  0  0  0  0  0  0  0  0  0  0
  133.6019   70.9365  227.5069 H   0  0  0  0  0  0  0  0  0  0  0  0
  134.7407   67.5027  225.2983 H   0  0  0  0  0  0  0  0  0  0  0  0
  137.8870   70.8416  222.2122 H   0  0  0  0  0  0  0  0  0  0  0  0
  137.9258   72.1916  223.4695 H   0  0  0  0  0  0  0  0  0  0  0  0
  138.8077   73.9724  222.5569 H   0  0  0  0  0  0  0  0  0  0  0  0
  140.7008   75.1136  221.4682 H   0  0  0  0  0  0  0  0  0  0  0  0
  142.6350   73.8448  220.5919 H   0  0  0  0  0  0  0  0  0  0  0  0
  142.6320   71.3629  220.8370 H   0  0  0  0  0  0  0  0  0  0  0  0
  140.7452   70.2183  221.9235 H   0  0  0  0  0  0  0  0  0  0  0  0
  1  2  2  0
  2  3  1  0
  3  4  2  0
  4  5  1  0
  5  6  2  0
  6  7  1  0
  7  8  2  0
  8  9  1  0
  9 10  2  0
 10 11  1  0
 11 12  2  0
 12 13  1  0
 13 14  2  0
 14 15  1  0
 15 16  2  0
 16 17  1  0
 17 18  2  0
 10 19  1  0
 19 20  1  0
 20 21  1  0
 21 22  2  0
 22 23  1  0
 23 24  2  0
 24 25  1  0
 25 26  2  0
 19  2  1  0
 26 21  1  0
  8  3  1  0
 18 13  1  0
  4 27  1  0
  5 28  1  0
  6 29  1  0
  7 30  1  0
 11 31  1  0
 12 32  1  0
 14 33  1  0
 15 34  1  0
 16 35  1  0
 18 36  1  0
 20 37  1  0
 20 38  1  0
 22 39  1  0
 23 40  1  0
 24 41  1  0
 25 42  1  0
 26 43  1  0
M  END
>  <smiles>  (22) 
O=c1c2ccccc2nc(/C=C/c2cccnc2)n1Cc1ccccc1

>  <score_type>  (22) 
oracle

>  <origin>  (22) 
autodockgpu

>  <m_score__min__energy>  (22) 
-7.3499999999999996

>  <m_primary>  (22) 
energy

>  <rmsd>  (22) 
10.110588408017128

>  <m_score__min__rmsd>  (22) 
10.110588408017128

>  <meeko>  (22) 
{"free_energy": -7.06, "intermolecular_energy": -8.55, "internal_energy": -1.47, "cluster_size": 23, "cluster_id": 3, "rank_in_cluster": 16}

>  <energy>  (22) 
-7.07

>  <cluster_rmsd>  (22) 
0.2

>  <cluster>  (22) 
3

$$$$

     RDKit          3D

 43 46  0  0  0  0  0  0  0  0999 V2000
  138.9130   67.7200  225.3340 O   0  0  0  0  0  0  0  0  0  0  0  0
  139.1780   68.9070  225.0850 C   0  0  0  0  0  0  0  0  0  0  0  0
  139.8670   69.6040  226.0840 C   0  0  0  0  0  0  0  0  0  0  0  0
  140.2130   68.9750  227.2610 C   0  0  0  0  0  0  0  0  0  0  0  0
  140.8930   69.6610  228.2470 C   0  0  0  0  0  0  0  0  0  0  0  0
  141.2400   70.9910  228.0750 C   0  0  0  0  0  0  0  0  0  0  0  0
  140.8850   71.6000  226.8920 C   0  0  0  0  0  0  0  0  0  0  0  0
  140.2050   70.9280  225.8960 C   0  0  0  0  0  0  0  0  0  0  0  0
  139.8540   71.4970  224.7500 N   0  0  0  0  0  0  0  0  0  0  0  0
  139.1910   70.8160  223.7980 C   0  0  0  0  0  0  0  0  0  0  0  0
  138.8410   71.5730  222.5890 C   0  0  0  0  0  0  0  0  0  0  0  0
  139.4160   72.7320  222.3300 C   0  0  0  0  0  0  0  0  0  0  0  0
  140.7040   72.8890  221.6740 C   0  0  0  0  0  0  0  0  0  0  0  0
  141.5300   71.7990  221.4570 C   0  0  0  0  0  0  0  0  0  0  0  0
  142.7540   71.8980  220.8420 C   0  0  0  0  0  0  0  0  0  0  0  0
  143.1850   73.1560  220.4140 C   0  0  0  0  0  0  0  0  0  0  0  0
  142.3830   74.2150  220.6230 N   0  0  0  0  0  0  0  0  0  0  0  0
  141.1860   74.1080  221.2270 C   0  0  0  0  0  0  0  0  0  0  0  0
  138.8340   69.5260  223.9160 N   0  0  0  0  0  0  0  0  0  0  0  0
  138.1550   68.7800  222.8990 C   0  0  0  0  0  0  0  0  0  0  0  0
  139.0150   68.0580  221.9570 C   0  0  0  0  0  0  0  0  0  0  0  0
  139.0990   66.6670  222.0560 C   0  0  0  0  0  0  0  0  0  0  0  0
  139.9000   65.9270  221.1930 C   0  0  0  0  0  0  0  0  0  0  0  0
  140.6410   66.5210  220.2070 C   0  0  0  0  0  0  0  0  0  0  0  0
  140.5680   67.8920  220.0950 C   0  0  0  0  0  0  0  0  0  0  0  0
  139.7670   68.6300  220.9590 C   0  0  0  0  0  0  0  0  0  0  0  0
  139.9453   67.9193  227.4154 H   0  0  0  0  0  0  0  0  0  0  0  0
  141.1626   69.1454  229.1805 H   0  0  0  0  0  0  0  0  0  0  0  0
  141.7814   71.5426  228.8577 H   0  0  0  0  0  0  0  0  0  0  0  0
  141.1517   72.6556  226.7356 H   0  0  0  0  0  0  0  0  0  0  0  0
  138.0916   71.1695  221.8921 H   0  0  0  0  0  0  0  0  0  0  0  0
  138.8825   73.6453  222.6322 H   0  0  0  0  0  0  0  0  0  0  0  0
  141.1901   70.8081  221.7927 H   0  0  0  0  0  0  0  0  0  0  0  0
  143.3808   71.0069  220.6899 H   0  0  0  0  0  0  0  0  0  0  0  0
  144.1588   73.2776  219.9171 H   0  0  0  0  0  0  0  0  0  0  0  0
  140.5746   75.0113  221.3695 H   0  0  0  0  0  0  0  0  0  0  0  0
  137.5064   68.0439  223.3964 H   0  0  0  0  0  0  0  0  0  0  0  0
  137.6095   69.5221  222.2976 H   0  0  0  0  0  0  0  0  0  0  0  0
  138.5196   66.1463  222.8326 H   0  0  0  0  0  0  0  0  0  0  0  0
  139.9393   64.8335  221.3058 H   0  0  0  0  0  0  0  0  0  0  0  0
  141.2711   65.9258  219.5296 H   0  0  0  0  0  0  0  0  0  0  0  0
  141.1483   68.4072  219.3154 H   0  0  0  0  0  0  0  0  0  0  0  0
  139.7336   69.7228  220.8382 H   0  0  0  0  0  0  0  0  0  0  0  0
  1  2  2  0
  2  3  1  0
  3  4  2  0
  4  5  1  0
  5  6  2  0
  6  7  1  0
  7  8  2  0
  8  9  1  0
  9 10  2  0
 10 11  1  0
 11 12  2  0
 12 13  1  0
 13 14  2  0
 14 15  1  0
 15 16  2  0
 16 17  1  0
 17 18  2  0
 10 19  1  0
 19 20  1  0
 20 21  1  0
 21 22  2  0
 22 23  1  0
 23 24  2  0
 24 25  1  0
 25 26  2  0
 19  2  1  0
 26 21  1  0
  8  3  1  0
 18 13  1  0
  4 27  1  0
  5 28  1  0
  6 29  1  0
  7 30  1  0
 11 31  1  0
 12 32  1  0
 14 33  1  0
 15 34  1  0
 16 35  1  0
 18 36  1  0
 20 37  1  0
 20 38  1  0
 22 39  1  0
 23 40  1  0
 24 41  1  0
 25 42  1  0
 26 43  1  0
M  END
>  <smiles>  (23) 
O=c1c2ccccc2nc(/C=C/c2cccnc2)n1Cc1ccccc1

>  <score_type>  (23) 
oracle

>  <origin>  (23) 
autodockgpu

>  <m_score__min__energy>  (23) 
-7.3499999999999996

>  <m_primary>  (23) 
energy

>  <rmsd>  (23) 
12.895077811817059

>  <m_score__min__rmsd>  (23) 
12.895077811817059

>  <meeko>  (23) 
{"free_energy": -6.94, "intermolecular_energy": -8.43, "internal_energy": -1.48, "cluster_size": 5, "cluster_id": 1, "rank_in_cluster": 4}

>  <energy>  (23) 
-7.06

>  <cluster_rmsd>  (23) 
0.2

>  <cluster>  (23) 
3

$$$$

     RDKit          3D

 43 46  0  0  0  0  0  0  0  0999 V2000
  139.1600   74.0810  222.3950 O   0  0  0  0  0  0  0  0  0  0  0  0
  140.1420   73.9070  221.6550 C   0  0  0  0  0  0  0  0  0  0  0  0
  140.8200   75.0640  221.2530 C   0  0  0  0  0  0  0  0  0  0  0  0
  140.3930   76.3040  221.6760 C   0  0  0  0  0  0  0  0  0  0  0  0
  141.0610   77.4460  221.2800 C   0  0  0  0  0  0  0  0  0  0  0  0
  142.1700   77.3680  220.4540 C   0  0  0  0  0  0  0  0  0  0  0  0
  142.5800   76.1190  220.0430 C   0  0  0  0  0  0  0  0  0  0  0  0
  141.9220   74.9680  220.4300 C   0  0  0  0  0  0  0  0  0  0  0  0
  142.3010   73.7560  220.0440 N   0  0  0  0  0  0  0  0  0  0  0  0
  141.6400   72.6520  220.4380 C   0  0  0  0  0  0  0  0  0  0  0  0
  142.1500   71.3760  219.9180 C   0  0  0  0  0  0  0  0  0  0  0  0
  143.4130   71.0380  220.0850 C   0  0  0  0  0  0  0  0  0  0  0  0
  144.5280   71.9710  220.0800 C   0  0  0  0  0  0  0  0  0  0  0  0
  144.8830   72.6600  221.2270 C   0  0  0  0  0  0  0  0  0  0  0  0
  145.9280   73.5520  221.2720 C   0  0  0  0  0  0  0  0  0  0  0  0
  146.6660   73.7720  220.1070 C   0  0  0  0  0  0  0  0  0  0  0  0
  146.3220   73.1020  218.9920 N   0  0  0  0  0  0  0  0  0  0  0  0
  145.2980   72.2320  218.9580 C   0  0  0  0  0  0  0  0  0  0  0  0
  140.5610   72.6750  221.2390 N   0  0  0  0  0  0  0  0  0  0  0  0
  139.8660   71.5070  221.6900 C   0  0  0  0  0  0  0  0  0  0  0  0
  139.9850   71.2050  223.1190 C   0  0  0  0  0  0  0  0  0  0  0  0
  139.3040   70.0970  223.6300 C   0  0  0  0  0  0  0  0  0  0  0  0
  139.3750   69.7610  224.9780 C   0  0  0  0  0  0  0  0  0  0  0  0
  140.1130   70.4960  225.8660 C   0  0  0  0  0  0  0  0  0  0  0  0
  140.7920   71.5910  225.3790 C   0  0  0  0  0  0  0  0  0  0  0  0
  140.7190   71.9250  224.0310 C   0  0  0  0  0  0  0  0  0  0  0  0
  139.5146   76.3847  222.3332 H   0  0  0  0  0  0  0  0  0  0  0  0
  140.7081   78.4292  221.6247 H   0  0  0  0  0  0  0  0  0  0  0  0
  142.7061   78.2745  220.1364 H   0  0  0  0  0  0  0  0  0  0  0  0
  143.4585   76.0356  219.3863 H   0  0  0  0  0  0  0  0  0  0  0  0
  141.4706   70.6956  219.3837 H   0  0  0  0  0  0  0  0  0  0  0  0
  143.6399   69.9728  220.2394 H   0  0  0  0  0  0  0  0  0  0  0  0
  144.3021   72.4857  222.1447 H   0  0  0  0  0  0  0  0  0  0  0  0
  146.1771   74.0803  222.2041 H   0  0  0  0  0  0  0  0  0  0  0  0
  147.5099   74.4775  220.1010 H   0  0  0  0  0  0  0  0  0  0  0  0
  145.0654   71.7142  218.0158 H   0  0  0  0  0  0  0  0  0  0  0  0
  138.7984   71.6404  221.4612 H   0  0  0  0  0  0  0  0  0  0  0  0
  140.3340   70.6605  221.1662 H   0  0  0  0  0  0  0  0  0  0  0  0
  138.6989   69.4773  222.9519 H   0  0  0  0  0  0  0  0  0  0  0  0
  138.8232   68.8810  225.3400 H   0  0  0  0  0  0  0  0  0  0  0  0
  140.1621   70.2221  226.9302 H   0  0  0  0  0  0  0  0  0  0  0  0
  141.3967   72.2061  226.0616 H   0  0  0  0  0  0  0  0  0  0  0  0
  141.2745   72.8065  223.6783 H   0  0  0  0  0  0  0  0  0  0  0  0
  1  2  2  0
  2  3  1  0
  3  4  2  0
  4  5  1  0
  5  6  2  0
  6  7  1  0
  7  8  2  0
  8  9  1  0
  9 10  2  0
 10 11  1  0
 11 12  2  0
 12 13  1  0
 13 14  2  0
 14 15  1  0
 15 16  2  0
 16 17  1  0
 17 18  2  0
 10 19  1  0
 19 20  1  0
 20 21  1  0
 21 22  2  0
 22 23  1  0
 23 24  2  0
 24 25  1  0
 25 26  2  0
 19  2  1  0
 26 21  1  0
  8  3  1  0
 18 13  1  0
  4 27  1  0
  5 28  1  0
  6 29  1  0
  7 30  1  0
 11 31  1  0
 12 32  1  0
 14 33  1  0
 15 34  1  0
 16 35  1  0
 18 36  1  0
 20 37  1  0
 20 38  1  0
 22 39  1  0
 23 40  1  0
 24 41  1  0
 25 42  1  0
 26 43  1  0
M  END
>  <smiles>  (24) 
O=c1c2ccccc2nc(/C=C/c2cccnc2)n1Cc1ccccc1

>  <score_type>  (24) 
oracle

>  <origin>  (24) 
autodockgpu

>  <m_score__min__energy>  (24) 
-7.3499999999999996

>  <m_primary>  (24) 
energy

>  <rmsd>  (24) 
8.630822862584646

>  <m_score__min__rmsd>  (24) 
8.630822862584646

>  <meeko>  (24) 
{"free_energy": -7.14, "intermolecular_energy": -8.63, "internal_energy": -1.41, "cluster_size": 4, "cluster_id": 5, "rank_in_cluster": 2}

>  <energy>  (24) 
-7.06

>  <cluster_rmsd>  (24) 
0.22

>  <cluster>  (24) 
3

$$$$

     RDKit          3D

 43 46  0  0  0  0  0  0  0  0999 V2000
  139.8400   74.8400  221.9810 O   0  0  0  0  0  0  0  0  0  0  0  0
  140.4630   75.6590  221.2880 C   0  0  0  0  0  0  0  0  0  0  0  0
  141.7260   75.2510  220.8430 C   0  0  0  0  0  0  0  0  0  0  0  0
  142.2130   74.0050  221.1760 C   0  0  0  0  0  0  0  0  0  0  0  0
  143.4590   73.6020  220.7380 C   0  0  0  0  0  0  0  0  0  0  0  0
  144.2410   74.4370  219.9580 C   0  0  0  0  0  0  0  0  0  0  0  0
  143.7350   75.6770  219.6360 C   0  0  0  0  0  0  0  0  0  0  0  0
  142.4910   76.0960  220.0670 C   0  0  0  0  0  0  0  0  0  0  0  0
  141.9870   77.2860  219.7680 N   0  0  0  0  0  0  0  0  0  0  0  0
  140.7720   77.6670  220.2020 C   0  0  0  0  0  0  0  0  0  0  0  0
  140.3450   79.0190  219.8210 C   0  0  0  0  0  0  0  0  0  0  0  0
  141.1270   80.0580  220.0390 C   0  0  0  0  0  0  0  0  0  0  0  0
  141.6190   80.4660  221.3450 C   0  0  0  0  0  0  0  0  0  0  0  0
  142.4620   79.6460  222.0750 C   0  0  0  0  0  0  0  0  0  0  0  0
  142.9530   79.9870  223.3120 C   0  0  0  0  0  0  0  0  0  0  0  0
  142.5830   81.2190  223.8590 C   0  0  0  0  0  0  0  0  0  0  0  0
  141.7650   82.0160  223.1490 N   0  0  0  0  0  0  0  0  0  0  0  0
  141.2890   81.6730  221.9390 C   0  0  0  0  0  0  0  0  0  0  0  0
  139.9750   76.8920  220.9600 N   0  0  0  0  0  0  0  0  0  0  0  0
  138.6670   77.2720  221.4040 C   0  0  0  0  0  0  0  0  0  0  0  0
  138.6120   78.4050  222.3320 C   0  0  0  0  0  0  0  0  0  0  0  0
  139.6600   78.5810  223.2390 C   0  0  0  0  0  0  0  0  0  0  0  0
  139.6630   79.6350  224.1460 C   0  0  0  0  0  0  0  0  0  0  0  0
  138.6450   80.5480  224.1950 C   0  0  0  0  0  0  0  0  0  0  0  0
  137.6040   80.3900  223.3060 C   0  0  0  0  0  0  0  0  0  0  0  0
  137.6030   79.3360  222.4000 C   0  0  0  0  0  0  0  0  0  0  0  0
  141.6054   73.3278  221.7943 H   0  0  0  0  0  0  0  0  0  0  0  0
  143.8350   72.6053  221.0122 H   0  0  0  0  0  0  0  0  0  0  0  0
  145.2342   74.1204  219.6068 H   0  0  0  0  0  0  0  0  0  0  0  0
  144.3403   76.3549  219.0163 H   0  0  0  0  0  0  0  0  0  0  0  0
  139.3626   79.1667  219.3488 H   0  0  0  0  0  0  0  0  0  0  0  0
  141.4292   80.6600  219.1694 H   0  0  0  0  0  0  0  0  0  0  0  0
  142.7523   78.6762  221.6447 H   0  0  0  0  0  0  0  0  0  0  0  0
  143.6218   79.3063  223.8592 H   0  0  0  0  0  0  0  0  0  0  0  0
  142.9524   81.5294  224.8475 H   0  0  0  0  0  0  0  0  0  0  0  0
  140.6215   82.3677  221.4081 H   0  0  0  0  0  0  0  0  0  0  0  0
  138.0722   77.5337  220.5165 H   0  0  0  0  0  0  0  0  0  0  0  0
  138.2793   76.4083  221.9641 H   0  0  0  0  0  0  0  0  0  0  0  0
  140.5002   77.8710  223.2355 H   0  0  0  0  0  0  0  0  0  0  0  0
  140.5073   79.7377  224.8436 H   0  0  0  0  0  0  0  0  0  0  0  0
  138.6571   81.3775  224.9174 H   0  0  0  0  0  0  0  0  0  0  0  0
  136.7671   81.1038  223.3135 H   0  0  0  0  0  0  0  0  0  0  0  0
  136.7554   79.2425  221.7051 H   0  0  0  0  0  0  0  0  0  0  0  0
  1  2  2  0
  2  3  1  0
  3  4  2  0
  4  5  1  0
  5  6  2  0
  6  7  1  0
  7  8  2  0
  8  9  1  0
  9 10  2  0
 10 11  1  0
 11 12  2  0
 12 13  1  0
 13 14  2  0
 14 15  1  0
 15 16  2  0
 16 17  1  0
 17 18  2  0
 10 19  1  0
 19 20  1  0
 20 21  1  0
 21 22  2  0
 22 23  1  0
 23 24  2  0
 24 25  1  0
 25 26  2  0
 19  2  1  0
 26 21  1  0
  8  3  1  0
 18 13  1  0
  4 27  1  0
  5 28  1  0
  6 29  1  0
  7 30  1  0
 11 31  1  0
 12 32  1  0
 14 33  1  0
 15 34  1  0
 16 35  1  0
 18 36  1  0
 20 37  1  0
 20 38  1  0
 22 39  1  0
 23 40  1  0
 24 41  1  0
 25 42  1  0
 26 43  1  0
M  END
>  <smiles>  (25) 
O=c1c2ccccc2nc(/C=C/c2cccnc2)n1Cc1ccccc1

>  <score_type>  (25) 
oracle

>  <origin>  (25) 
autodockgpu

>  <m_score__min__energy>  (25) 
-7.3499999999999996

>  <m_primary>  (25) 
energy

>  <rmsd>  (25) 
4.428334895349583

>  <m_score__min__rmsd>  (25) 
4.428334895349583

>  <meeko>  (25) 
{"free_energy": -6.51, "intermolecular_energy": -8.0, "internal_energy": -1.97, "cluster_size": 10, "cluster_id": 6, "rank_in_cluster": 6}

>  <energy>  (25) 
-7.06

>  <cluster_rmsd>  (25) 
0.26

>  <cluster>  (25) 
3

$$$$

     RDKit          3D

 43 46  0  0  0  0  0  0  0  0999 V2000
  140.3700   72.0120  225.0330 O   0  0  0  0  0  0  0  0  0  0  0  0
  139.7240   70.9530  224.9690 C   0  0  0  0  0  0  0  0  0  0  0  0
  139.9790   70.0180  225.9800 C   0  0  0  0  0  0  0  0  0  0  0  0
  140.8990   70.2940  226.9690 C   0  0  0  0  0  0  0  0  0  0  0  0
  141.1510   69.3720  227.9660 C   0  0  0  0  0  0  0  0  0  0  0  0
  140.4870   68.1570  227.9920 C   0  0  0  0  0  0  0  0  0  0  0  0
  139.5720   67.9020  226.9950 C   0  0  0  0  0  0  0  0  0  0  0  0
  139.3090   68.8130  225.9910 C   0  0  0  0  0  0  0  0  0  0  0  0
  138.4320   68.5850  225.0210 N   0  0  0  0  0  0  0  0  0  0  0  0
  138.1960   69.4930  224.0560 C   0  0  0  0  0  0  0  0  0  0  0  0
  137.2210   69.1040  223.0300 C   0  0  0  0  0  0  0  0  0  0  0  0
  135.9870   68.7790  223.3620 C   0  0  0  0  0  0  0  0  0  0  0  0
  135.2500   69.3550  224.4770 C   0  0  0  0  0  0  0  0  0  0  0  0
  135.1590   70.7270  224.6350 C   0  0  0  0  0  0  0  0  0  0  0  0
  134.4750   71.3180  225.6700 C   0  0  0  0  0  0  0  0  0  0  0  0
  133.8430   70.4950  226.6060 C   0  0  0  0  0  0  0  0  0  0  0  0
  133.9300   69.1620  226.4510 N   0  0  0  0  0  0  0  0  0  0  0  0
  134.6030   68.5940  225.4350 C   0  0  0  0  0  0  0  0  0  0  0  0
  138.8130   70.6850  223.9870 N   0  0  0  0  0  0  0  0  0  0  0  0
  138.5510   71.6720  222.9830 C   0  0  0  0  0  0  0  0  0  0  0  0
  139.7230   72.1790  222.2650 C   0  0  0  0  0  0  0  0  0  0  0  0
  139.8040   73.5470  221.9920 C   0  0  0  0  0  0  0  0  0  0  0  0
  140.8900   74.0870  221.3110 C   0  0  0  0  0  0  0  0  0  0  0  0
  141.9290   73.3090  220.8770 C   0  0  0  0  0  0  0  0  0  0  0  0
  141.8660   71.9580  221.1390 C   0  0  0  0  0  0  0  0  0  0  0  0
  140.7790   71.4200  221.8200 C   0  0  0  0  0  0  0  0  0  0  0  0
  141.4356   71.2543  226.9640 H   0  0  0  0  0  0  0  0  0  0  0  0
  141.8878   69.6055  228.7487 H   0  0  0  0  0  0  0  0  0  0  0  0
  140.6842   67.4192  228.7837 H   0  0  0  0  0  0  0  0  0  0  0  0
  139.0338   66.9427  226.9984 H   0  0  0  0  0  0  0  0  0  0  0  0
  137.5231   69.0834  221.9725 H   0  0  0  0  0  0  0  0  0  0  0  0
  135.4780   68.0178  222.7524 H   0  0  0  0  0  0  0  0  0  0  0  0
  135.6572   71.3742  223.8981 H   0  0  0  0  0  0  0  0  0  0  0  0
  134.4261   72.4133  225.7596 H   0  0  0  0  0  0  0  0  0  0  0  0
  133.2868   70.9278  227.4506 H   0  0  0  0  0  0  0  0  0  0  0  0
  134.6403   67.4970  225.3634 H   0  0  0  0  0  0  0  0  0  0  0  0
  137.8684   71.2280  222.2435 H   0  0  0  0  0  0  0  0  0  0  0  0
  138.1312   72.5370  223.5173 H   0  0  0  0  0  0  0  0  0  0  0  0
  138.9917   74.2109  222.3227 H   0  0  0  0  0  0  0  0  0  0  0  0
  140.9144   75.1693  221.1159 H   0  0  0  0  0  0  0  0  0  0  0  0
  142.7829   73.7463  220.3388 H   0  0  0  0  0  0  0  0  0  0  0  0
  142.6820   71.2993  220.8069 H   0  0  0  0  0  0  0  0  0  0  0  0
  140.7638   70.3369  222.0113 H   0  0  0  0  0  0  0  0  0  0  0  0
  1  2  2  0
  2  3  1  0
  3  4  2  0
  4  5  1  0
  5  6  2  0
  6  7  1  0
  7  8  2  0
  8  9  1  0
  9 10  2  0
 10 11  1  0
 11 12  2  0
 12 13  1  0
 13 14  2  0
 14 15  1  0
 15 16  2  0
 16 17  1  0
 17 18  2  0
 10 19  1  0
 19 20  1  0
 20 21  1  0
 21 22  2  0
 22 23  1  0
 23 24  2  0
 24 25  1  0
 25 26  2  0
 19  2  1  0
 26 21  1  0
  8  3  1  0
 18 13  1  0
  4 27  1  0
  5 28  1  0
  6 29  1  0
  7 30  1  0
 11 31  1  0
 12 32  1  0
 14 33  1  0
 15 34  1  0
 16 35  1  0
 18 36  1  0
 20 37  1  0
 20 38  1  0
 22 39  1  0
 23 40  1  0
 24 41  1  0
 25 42  1  0
 26 43  1  0
M  END
>  <smiles>  (26) 
O=c1c2ccccc2nc(/C=C/c2cccnc2)n1Cc1ccccc1

>  <score_type>  (26) 
oracle

>  <origin>  (26) 
autodockgpu

>  <m_score__min__energy>  (26) 
-7.3499999999999996

>  <m_primary>  (26) 
energy

>  <rmsd>  (26) 
10.007485467070168

>  <m_score__min__rmsd>  (26) 
10.007485467070168

>  <meeko>  (26) 
{"free_energy": -7.06, "intermolecular_energy": -8.55, "internal_energy": -1.39, "cluster_size": 23, "cluster_id": 3, "rank_in_cluster": 14}

>  <energy>  (26) 
-7.06

>  <cluster_rmsd>  (26) 
0.19

>  <cluster>  (26) 
3

$$$$

     RDKit          3D

 43 46  0  0  0  0  0  0  0  0999 V2000
  143.4520   77.1020  219.3640 O   0  0  0  0  0  0  0  0  0  0  0  0
  142.5600   76.5090  219.9920 C   0  0  0  0  0  0  0  0  0  0  0  0
  142.7980   75.1580  220.2660 C   0  0  0  0  0  0  0  0  0  0  0  0
  143.9650   74.5560  219.8480 C   0  0  0  0  0  0  0  0  0  0  0  0
  144.2010   73.2230  220.1190 C   0  0  0  0  0  0  0  0  0  0  0  0
  143.2720   72.4650  220.8130 C   0  0  0  0  0  0  0  0  0  0  0  0
  142.1130   73.0860  221.2220 C   0  0  0  0  0  0  0  0  0  0  0  0
  141.8620   74.4180  220.9590 C   0  0  0  0  0  0  0  0  0  0  0  0
  140.7510   75.0330  221.3440 N   0  0  0  0  0  0  0  0  0  0  0  0
  140.5350   76.3330  221.0740 C   0  0  0  0  0  0  0  0  0  0  0  0
  139.2530   76.8830  221.5350 C   0  0  0  0  0  0  0  0  0  0  0  0
  139.1540   77.4610  222.7160 C   0  0  0  0  0  0  0  0  0  0  0  0
  138.6760   78.8160  222.9380 C   0  0  0  0  0  0  0  0  0  0  0  0
  139.2030   79.5990  223.9500 C   0  0  0  0  0  0  0  0  0  0  0  0
  138.7840   80.8840  224.1980 C   0  0  0  0  0  0  0  0  0  0  0  0
  137.7790   81.4250  223.3920 C   0  0  0  0  0  0  0  0  0  0  0  0
  137.2670   80.6640  222.4080 N   0  0  0  0  0  0  0  0  0  0  0  0
  137.6840   79.4070  222.1730 C   0  0  0  0  0  0  0  0  0  0  0  0
  141.4050   77.1100  220.4050 N   0  0  0  0  0  0  0  0  0  0  0  0
  141.2010   78.5020  220.1360 C   0  0  0  0  0  0  0  0  0  0  0  0
  141.5610   79.4210  221.2200 C   0  0  0  0  0  0  0  0  0  0  0  0
  142.2040   78.9080  222.3490 C   0  0  0  0  0  0  0  0  0  0  0  0
  142.5680   79.7290  223.4110 C   0  0  0  0  0  0  0  0  0  0  0  0
  142.3150   81.0740  223.4030 C   0  0  0  0  0  0  0  0  0  0  0  0
  141.6820   81.5960  222.2960 C   0  0  0  0  0  0  0  0  0  0  0  0
  141.3200   80.7740  221.2360 C   0  0  0  0  0  0  0  0  0  0  0  0
  144.7138   75.1417  219.2945 H   0  0  0  0  0  0  0  0  0  0  0  0
  145.1380   72.7572  219.7798 H   0  0  0  0  0  0  0  0  0  0  0  0
  143.4542   71.4021  221.0302 H   0  0  0  0  0  0  0  0  0  0  0  0
  141.3631   72.5022  221.7760 H   0  0  0  0  0  0  0  0  0  0  0  0
  138.3663   76.8118  220.8880 H   0  0  0  0  0  0  0  0  0  0  0  0
  139.4549   76.8755  223.5973 H   0  0  0  0  0  0  0  0  0  0  0  0
  139.9937   79.1732  224.5851 H   0  0  0  0  0  0  0  0  0  0  0  0
  139.2298   81.4735  225.0127 H   0  0  0  0  0  0  0  0  0  0  0  0
  137.4149   82.4496  223.5583 H   0  0  0  0  0  0  0  0  0  0  0  0
  137.2260   78.8343  221.3531 H   0  0  0  0  0  0  0  0  0  0  0  0
  141.8035   78.7672  219.2547 H   0  0  0  0  0  0  0  0  0  0  0  0
  140.1174   78.6223  219.9900 H   0  0  0  0  0  0  0  0  0  0  0  0
  142.4271   77.8320  222.3992 H   0  0  0  0  0  0  0  0  0  0  0  0
  143.0732   79.2850  224.2814 H   0  0  0  0  0  0  0  0  0  0  0  0
  142.6061   81.7144  224.2487 H   0  0  0  0  0  0  0  0  0  0  0  0
  141.4614   82.6727  222.2511 H   0  0  0  0  0  0  0  0  0  0  0  0
  140.8170   81.2273  220.3691 H   0  0  0  0  0  0  0  0  0  0  0  0
  1  2  2  0
  2  3  1  0
  3  4  2  0
  4  5  1  0
  5  6  2  0
  6  7  1  0
  7  8  2  0
  8  9  1  0
  9 10  2  0
 10 11  1  0
 11 12  2  0
 12 13  1  0
 13 14  2  0
 14 15  1  0
 15 16  2  0
 16 17  1  0
 17 18  2  0
 10 19  1  0
 19 20  1  0
 20 21  1  0
 21 22  2  0
 22 23  1  0
 23 24  2  0
 24 25  1  0
 25 26  2  0
 19  2  1  0
 26 21  1  0
  8  3  1  0
 18 13  1  0
  4 27  1  0
  5 28  1  0
  6 29  1  0
  7 30  1  0
 11 31  1  0
 12 32  1  0
 14 33  1  0
 15 34  1  0
 16 35  1  0
 18 36  1  0
 20 37  1  0
 20 38  1  0
 22 39  1  0
 23 40  1  0
 24 41  1  0
 25 42  1  0
 26 43  1  0
M  END
>  <smiles>  (27) 
O=c1c2ccccc2nc(/C=C/c2cccnc2)n1Cc1ccccc1

>  <score_type>  (27) 
oracle

>  <origin>  (27) 
autodockgpu

>  <m_score__min__energy>  (27) 
-7.3499999999999996

>  <m_primary>  (27) 
energy

>  <rmsd>  (27) 
4.2103833661161225

>  <m_score__min__rmsd>  (27) 
4.2103833661161225

>  <meeko>  (27) 
{"free_energy": -6.44, "intermolecular_energy": -7.93, "internal_energy": -1.88, "cluster_size": 10, "cluster_id": 6, "rank_in_cluster": 8}

>  <energy>  (27) 
-7.06

>  <cluster_rmsd>  (27) 
0.19

>  <cluster>  (27) 
3

$$$$

     RDKit          3D

 43 46  0  0  0  0  0  0  0  0999 V2000
  140.3440   71.9160  225.1350 O   0  0  0  0  0  0  0  0  0  0  0  0
  139.7170   70.8460  225.0760 C   0  0  0  0  0  0  0  0  0  0  0  0
  139.9490   69.9420  226.1200 C   0  0  0  0  0  0  0  0  0  0  0  0
  140.8270   70.2590  227.1340 C   0  0  0  0  0  0  0  0  0  0  0  0
  141.0560   69.3680  228.1640 C   0  0  0  0  0  0  0  0  0  0  0  0
  140.4110   68.1430  228.1980 C   0  0  0  0  0  0  0  0  0  0  0  0
  139.5380   67.8470  227.1760 C   0  0  0  0  0  0  0  0  0  0  0  0
  139.2980   68.7260  226.1380 C   0  0  0  0  0  0  0  0  0  0  0  0
  138.4610   68.4590  225.1440 N   0  0  0  0  0  0  0  0  0  0  0  0
  138.2480   69.3360  224.1460 C   0  0  0  0  0  0  0  0  0  0  0  0
  137.3170   68.9040  223.0960 C   0  0  0  0  0  0  0  0  0  0  0  0
  136.0420   68.7020  223.3670 C   0  0  0  0  0  0  0  0  0  0  0  0
  135.3170   69.3340  224.4570 C   0  0  0  0  0  0  0  0  0  0  0  0
  135.2740   70.7130  224.5780 C   0  0  0  0  0  0  0  0  0  0  0  0
  134.6020   71.3560  225.5890 C   0  0  0  0  0  0  0  0  0  0  0  0
  133.9300   70.5830  226.5390 C   0  0  0  0  0  0  0  0  0  0  0  0
  133.9700   69.2440  226.4220 N   0  0  0  0  0  0  0  0  0  0  0  0
  134.6310   68.6240  225.4290 C   0  0  0  0  0  0  0  0  0  0  0  0
  138.8480   70.5370  224.0690 N   0  0  0  0  0  0  0  0  0  0  0  0
  138.6070   71.4930  223.0300 C   0  0  0  0  0  0  0  0  0  0  0  0
  139.7570   71.8140  222.1790 C   0  0  0  0  0  0  0  0  0  0  0  0
  140.2930   70.8100  221.3690 C   0  0  0  0  0  0  0  0  0  0  0  0
  141.3860   71.0520  220.5430 C   0  0  0  0  0  0  0  0  0  0  0  0
  141.9860   72.2810  220.4830 C   0  0  0  0  0  0  0  0  0  0  0  0
  141.4690   73.2820  221.2750 C   0  0  0  0  0  0  0  0  0  0  0  0
  140.3770   73.0380  222.1000 C   0  0  0  0  0  0  0  0  0  0  0  0
  141.3484   71.2275  227.1228 H   0  0  0  0  0  0  0  0  0  0  0  0
  141.7591   69.6345  228.9669 H   0  0  0  0  0  0  0  0  0  0  0  0
  140.5906   67.4294  229.0156 H   0  0  0  0  0  0  0  0  0  0  0  0
  139.0147   66.8795  227.1862 H   0  0  0  0  0  0  0  0  0  0  0  0
  137.6869   68.7471  222.0720 H   0  0  0  0  0  0  0  0  0  0  0  0
  135.4873   68.0050  222.7216 H   0  0  0  0  0  0  0  0  0  0  0  0
  135.8026   71.3218  223.8297 H   0  0  0  0  0  0  0  0  0  0  0  0
  134.5933   72.4543  225.6491 H   0  0  0  0  0  0  0  0  0  0  0  0
  133.3804   71.0591  227.3644 H   0  0  0  0  0  0  0  0  0  0  0  0
  134.6271   67.5248  225.3872 H   0  0  0  0  0  0  0  0  0  0  0  0
  137.8098   71.0960  222.3844 H   0  0  0  0  0  0  0  0  0  0  0  0
  138.3431   72.4303  223.5417 H   0  0  0  0  0  0  0  0  0  0  0  0
  139.8414   69.8071  221.3846 H   0  0  0  0  0  0  0  0  0  0  0  0
  141.7786   70.2338  219.9214 H   0  0  0  0  0  0  0  0  0  0  0  0
  142.8495   72.4624  219.8262 H   0  0  0  0  0  0  0  0  0  0  0  0
  141.9240   74.2833  221.2546 H   0  0  0  0  0  0  0  0  0  0  0  0
  139.9915   73.8624  222.7179 H   0  0  0  0  0  0  0  0  0  0  0  0
  1  2  2  0
  2  3  1  0
  3  4  2  0
  4  5  1  0
  5  6  2  0
  6  7  1  0
  7  8  2  0
  8  9  1  0
  9 10  2  0
 10 11  1  0
 11 12  2  0
 12 13  1  0
 13 14  2  0
 14 15  1  0
 15 16  2  0
 16 17  1  0
 17 18  2  0
 10 19  1  0
 19 20  1  0
 20 21  1  0
 21 22  2  0
 22 23  1  0
 23 24  2  0
 24 25  1  0
 25 26  2  0
 19  2  1  0
 26 21  1  0
  8  3  1  0
 18 13  1  0
  4 27  1  0
  5 28  1  0
  6 29  1  0
  7 30  1  0
 11 31  1  0
 12 32  1  0
 14 33  1  0
 15 34  1  0
 16 35  1  0
 18 36  1  0
 20 37  1  0
 20 38  1  0
 22 39  1  0
 23 40  1  0
 24 41  1  0
 25 42  1  0
 26 43  1  0
M  END
>  <smiles>  (28) 
O=c1c2ccccc2nc(/C=C/c2cccnc2)n1Cc1ccccc1

>  <score_type>  (28) 
oracle

>  <origin>  (28) 
autodockgpu

>  <m_score__min__energy>  (28) 
-7.3499999999999996

>  <m_primary>  (28) 
energy

>  <rmsd>  (28) 
10.276443127761151

>  <m_score__min__rmsd>  (28) 
10.276443127761151

>  <meeko>  (28) 
{"free_energy": -6.91, "intermolecular_energy": -8.41, "internal_energy": -1.48, "cluster_size": 23, "cluster_id": 3, "rank_in_cluster": 22}

>  <energy>  (28) 
-7.06

>  <cluster_rmsd>  (28) 
0.21

>  <cluster>  (28) 
3

$$$$

     RDKit          3D

 43 46  0  0  0  0  0  0  0  0999 V2000
  139.0760   67.7250  225.7280 O   0  0  0  0  0  0  0  0  0  0  0  0
  139.4390   68.8030  225.2300 C   0  0  0  0  0  0  0  0  0  0  0  0
  139.9830   69.7370  226.1190 C   0  0  0  0  0  0  0  0  0  0  0  0
  140.0940   69.4400  227.4600 C   0  0  0  0  0  0  0  0  0  0  0  0
  140.6310   70.3620  228.3380 C   0  0  0  0  0  0  0  0  0  0  0  0
  141.0670   71.5970  227.8890 C   0  0  0  0  0  0  0  0  0  0  0  0
  140.9480   71.8730  226.5450 C   0  0  0  0  0  0  0  0  0  0  0  0
  140.4130   70.9630  225.6550 C   0  0  0  0  0  0  0  0  0  0  0  0
  140.2880   71.2100  224.3570 N   0  0  0  0  0  0  0  0  0  0  0  0
  139.7630   70.3030  223.5130 C   0  0  0  0  0  0  0  0  0  0  0  0
  139.6600   70.7140  222.1070 C   0  0  0  0  0  0  0  0  0  0  0  0
  138.8370   71.6790  221.7470 C   0  0  0  0  0  0  0  0  0  0  0  0
  139.1320   73.1000  221.8470 C   0  0  0  0  0  0  0  0  0  0  0  0
  138.1130   74.0340  221.9190 C   0  0  0  0  0  0  0  0  0  0  0  0
  138.3420   75.3860  222.0150 C   0  0  0  0  0  0  0  0  0  0  0  0
  139.6640   75.8380  222.0400 C   0  0  0  0  0  0  0  0  0  0  0  0
  140.6540   74.9300  221.9710 N   0  0  0  0  0  0  0  0  0  0  0  0
  140.4200   73.6090  221.8770 C   0  0  0  0  0  0  0  0  0  0  0  0
  139.3270   69.0910  223.8990 N   0  0  0  0  0  0  0  0  0  0  0  0
  138.7940   68.1050  223.0080 C   0  0  0  0  0  0  0  0  0  0  0  0
  137.3430   68.1430  222.8080 C   0  0  0  0  0  0  0  0  0  0  0  0
  136.7650   67.2440  221.9080 C   0  0  0  0  0  0  0  0  0  0  0  0
  135.3940   67.2340  221.6740 C   0  0  0  0  0  0  0  0  0  0  0  0
  134.5470   68.1010  222.3100 C   0  0  0  0  0  0  0  0  0  0  0  0
  135.1000   68.9930  223.2010 C   0  0  0  0  0  0  0  0  0  0  0  0
  136.4710   69.0020  223.4340 C   0  0  0  0  0  0  0  0  0  0  0  0
  139.7531   68.4632  227.8337 H   0  0  0  0  0  0  0  0  0  0  0  0
  140.7130   70.1119  229.4060 H   0  0  0  0  0  0  0  0  0  0  0  0
  141.4950   72.3345  228.5839 H   0  0  0  0  0  0  0  0  0  0  0  0
  141.2897   72.8486  226.1689 H   0  0  0  0  0  0  0  0  0  0  0  0
  140.2758   70.2116  221.3464 H   0  0  0  0  0  0  0  0  0  0  0  0
  137.8565   71.3887  221.3417 H   0  0  0  0  0  0  0  0  0  0  0  0
  137.0724   73.6781  221.8985 H   0  0  0  0  0  0  0  0  0  0  0  0
  137.5036   76.0959  222.0709 H   0  0  0  0  0  0  0  0  0  0  0  0
  139.8900   76.9120  222.1144 H   0  0  0  0  0  0  0  0  0  0  0  0
  141.2723   72.9157  221.8226 H   0  0  0  0  0  0  0  0  0  0  0  0
  139.2734   68.2420  222.0275 H   0  0  0  0  0  0  0  0  0  0  0  0
  139.0051   67.1330  223.4778 H   0  0  0  0  0  0  0  0  0  0  0  0
  137.4077   66.5292  221.3733 H   0  0  0  0  0  0  0  0  0  0  0  0
  134.9789   66.5093  220.9580 H   0  0  0  0  0  0  0  0  0  0  0  0
  133.4643   68.0856  222.1163 H   0  0  0  0  0  0  0  0  0  0  0  0
  134.4518   69.7047  223.7332 H   0  0  0  0  0  0  0  0  0  0  0  0
  136.8764   69.7299  224.1522 H   0  0  0  0  0  0  0  0  0  0  0  0
  1  2  2  0
  2  3  1  0
  3  4  2  0
  4  5  1  0
  5  6  2  0
  6  7  1  0
  7  8  2  0
  8  9  1  0
  9 10  2  0
 10 11  1  0
 11 12  2  0
 12 13  1  0
 13 14  2  0
 14 15  1  0
 15 16  2  0
 16 17  1  0
 17 18  2  0
 10 19  1  0
 19 20  1  0
 20 21  1  0
 21 22  2  0
 22 23  1  0
 23 24  2  0
 24 25  1  0
 25 26  2  0
 19  2  1  0
 26 21  1  0
  8  3  1  0
 18 13  1  0
  4 27  1  0
  5 28  1  0
  6 29  1  0
  7 30  1  0
 11 31  1  0
 12 32  1  0
 14 33  1  0
 15 34  1  0
 16 35  1  0
 18 36  1  0
 20 37  1  0
 20 38  1  0
 22 39  1  0
 23 40  1  0
 24 41  1  0
 25 42  1  0
 26 43  1  0
M  END
>  <smiles>  (29) 
O=c1c2ccccc2nc(/C=C/c2cccnc2)n1Cc1ccccc1

>  <score_type>  (29) 
oracle

>  <origin>  (29) 
autodockgpu

>  <m_score__min__energy>  (29) 
-7.3499999999999996

>  <m_primary>  (29) 
energy

>  <rmsd>  (29) 
12.769543870421307

>  <m_score__min__rmsd>  (29) 
12.769543870421307

>  <meeko>  (29) 
{"free_energy": -7.08, "intermolecular_energy": -8.57, "internal_energy": -1.34, "cluster_size": 5, "cluster_id": 1, "rank_in_cluster": 3}

>  <energy>  (29) 
-7.05

>  <cluster_rmsd>  (29) 
0.17

>  <cluster>  (29) 
3

$$$$

     RDKit          3D

 43 46  0  0  0  0  0  0  0  0999 V2000
  142.5740   75.4500  219.7460 O   0  0  0  0  0  0  0  0  0  0  0  0
  141.7390   74.9790  220.5350 C   0  0  0  0  0  0  0  0  0  0  0  0
  140.9210   75.9080  221.1880 C   0  0  0  0  0  0  0  0  0  0  0  0
  141.0630   77.2570  220.9420 C   0  0  0  0  0  0  0  0  0  0  0  0
  140.2560   78.1740  221.5860 C   0  0  0  0  0  0  0  0  0  0  0  0
  139.2900   77.7590  222.4880 C   0  0  0  0  0  0  0  0  0  0  0  0
  139.1650   76.4070  222.7190 C   0  0  0  0  0  0  0  0  0  0  0  0
  139.9640   75.4770  222.0830 C   0  0  0  0  0  0  0  0  0  0  0  0
  139.8590   74.1710  222.2930 N   0  0  0  0  0  0  0  0  0  0  0  0
  140.6520   73.2880  221.6590 C   0  0  0  0  0  0  0  0  0  0  0  0
  140.4470   71.8750  222.0010 C   0  0  0  0  0  0  0  0  0  0  0  0
  139.5620   71.5250  222.9140 C   0  0  0  0  0  0  0  0  0  0  0  0
  139.8900   71.0960  224.2640 C   0  0  0  0  0  0  0  0  0  0  0  0
  140.6900   71.8740  225.0820 C   0  0  0  0  0  0  0  0  0  0  0  0
  141.0270   71.5120  226.3650 C   0  0  0  0  0  0  0  0  0  0  0  0
  140.5380   70.3020  226.8650 C   0  0  0  0  0  0  0  0  0  0  0  0
  139.7590   69.5460  226.0700 N   0  0  0  0  0  0  0  0  0  0  0  0
  139.4360   69.9090  224.8160 C   0  0  0  0  0  0  0  0  0  0  0  0
  141.6010   73.6410  220.7740 N   0  0  0  0  0  0  0  0  0  0  0  0
  142.4320   72.7110  220.0700 C   0  0  0  0  0  0  0  0  0  0  0  0
  143.8710   72.9850  220.1090 C   0  0  0  0  0  0  0  0  0  0  0  0
  144.5820   73.0180  218.9060 C   0  0  0  0  0  0  0  0  0  0  0  0
  145.9490   73.2690  218.8800 C   0  0  0  0  0  0  0  0  0  0  0  0
  146.6640   73.4960  220.0250 C   0  0  0  0  0  0  0  0  0  0  0  0
  145.9790   73.4680  221.2190 C   0  0  0  0  0  0  0  0  0  0  0  0
  144.6120   73.2160  221.2440 C   0  0  0  0  0  0  0  0  0  0  0  0
  141.8240   77.6052  220.2281 H   0  0  0  0  0  0  0  0  0  0  0  0
  140.3818   79.2472  221.3802 H   0  0  0  0  0  0  0  0  0  0  0  0
  138.6440   78.4854  223.0028 H   0  0  0  0  0  0  0  0  0  0  0  0
  138.4047   76.0567  223.4326 H   0  0  0  0  0  0  0  0  0  0  0  0
  141.0377   71.1002  221.4904 H   0  0  0  0  0  0  0  0  0  0  0  0
  138.4988   71.5602  222.6339 H   0  0  0  0  0  0  0  0  0  0  0  0
  141.0743   72.8263  224.6876 H   0  0  0  0  0  0  0  0  0  0  0  0
  141.6663   72.1594  226.9832 H   0  0  0  0  0  0  0  0  0  0  0  0
  140.7845   69.9749  227.8859 H   0  0  0  0  0  0  0  0  0  0  0  0
  138.7958   69.2475  224.2139 H   0  0  0  0  0  0  0  0  0  0  0  0
  142.2664   71.7142  220.5048 H   0  0  0  0  0  0  0  0  0  0  0  0
  142.1411   72.7918  219.0122 H   0  0  0  0  0  0  0  0  0  0  0  0
  144.0487   72.8417  217.9602 H   0  0  0  0  0  0  0  0  0  0  0  0
  146.4710   73.2857  217.9119 H   0  0  0  0  0  0  0  0  0  0  0  0
  147.7456   73.6935  219.9924 H   0  0  0  0  0  0  0  0  0  0  0  0
  146.5179   73.6465  222.1612 H   0  0  0  0  0  0  0  0  0  0  0  0
  144.0993   73.2007  222.2171 H   0  0  0  0  0  0  0  0  0  0  0  0
  1  2  2  0
  2  3  1  0
  3  4  2  0
  4  5  1  0
  5  6  2  0
  6  7  1  0
  7  8  2  0
  8  9  1  0
  9 10  2  0
 10 11  1  0
 11 12  2  0
 12 13  1  0
 13 14  2  0
 14 15  1  0
 15 16  2  0
 16 17  1  0
 17 18  2  0
 10 19  1  0
 19 20  1  0
 20 21  1  0
 21 22  2  0
 22 23  1  0
 23 24  2  0
 24 25  1  0
 25 26  2  0
 19  2  1  0
 26 21  1  0
  8  3  1  0
 18 13  1  0
  4 27  1  0
  5 28  1  0
  6 29  1  0
  7 30  1  0
 11 31  1  0
 12 32  1  0
 14 33  1  0
 15 34  1  0
 16 35  1  0
 18 36  1  0
 20 37  1  0
 20 38  1  0
 22 39  1  0
 23 40  1  0
 24 41  1  0
 25 42  1  0
 26 43  1  0
M  END
>  <smiles>  (30) 
O=c1c2ccccc2nc(/C=C/c2cccnc2)n1Cc1ccccc1

>  <score_type>  (30) 
oracle

>  <origin>  (30) 
autodockgpu

>  <m_score__min__energy>  (30) 
-7.3499999999999996

>  <m_primary>  (30) 
energy

>  <rmsd>  (30) 
7.996735471073844

>  <m_score__min__rmsd>  (30) 
7.996735471073844

>  <meeko>  (30) 
{"free_energy": -7.16, "intermolecular_energy": -8.65, "internal_energy": -1.11, "cluster_size": 1, "cluster_id": 4, "rank_in_cluster": 1}

>  <energy>  (30) 
-7.05

>  <cluster_rmsd>  (30) 
0.19

>  <cluster>  (30) 
3

$$$$

     RDKit          3D

 43 46  0  0  0  0  0  0  0  0999 V2000
  140.1350   71.8800  225.1400 O   0  0  0  0  0  0  0  0  0  0  0  0
  139.5810   70.7690  225.1070 C   0  0  0  0  0  0  0  0  0  0  0  0
  139.8890   69.9000  226.1600 C   0  0  0  0  0  0  0  0  0  0  0  0
  140.7580   70.2900  227.1560 C   0  0  0  0  0  0  0  0  0  0  0  0
  141.0620   69.4320  228.1950 C   0  0  0  0  0  0  0  0  0  0  0  0
  140.5010   68.1680  228.2570 C   0  0  0  0  0  0  0  0  0  0  0  0
  139.6350   67.7980  227.2530 C   0  0  0  0  0  0  0  0  0  0  0  0
  139.3210   68.6430  226.2070 C   0  0  0  0  0  0  0  0  0  0  0  0
  138.4890   68.3050  225.2290 N   0  0  0  0  0  0  0  0  0  0  0  0
  138.2020   69.1510  224.2230 C   0  0  0  0  0  0  0  0  0  0  0  0
  137.2870   68.6420  223.1940 C   0  0  0  0  0  0  0  0  0  0  0  0
  136.0010   68.9290  223.2350 C   0  0  0  0  0  0  0  0  0  0  0  0
  135.2990   69.4220  224.4100 C   0  0  0  0  0  0  0  0  0  0  0  0
  135.2000   70.7800  224.6610 C   0  0  0  0  0  0  0  0  0  0  0  0
  134.5480   71.2930  225.7560 C   0  0  0  0  0  0  0  0  0  0  0  0
  133.9570   70.4040  226.6570 C   0  0  0  0  0  0  0  0  0  0  0  0
  134.0520   69.0840  226.4130 N   0  0  0  0  0  0  0  0  0  0  0  0
  134.6930   68.5920  225.3380 C   0  0  0  0  0  0  0  0  0  0  0  0
  138.7190   70.3880  224.1190 N   0  0  0  0  0  0  0  0  0  0  0  0
  138.4000   71.3090  223.0700 C   0  0  0  0  0  0  0  0  0  0  0  0
  139.5430   71.9380  222.4030 C   0  0  0  0  0  0  0  0  0  0  0  0
  139.5440   73.3260  222.2380 C   0  0  0  0  0  0  0  0  0  0  0  0
  140.5990   73.9800  221.6100 C   0  0  0  0  0  0  0  0  0  0  0  0
  141.6840   73.3000  221.1260 C   0  0  0  0  0  0  0  0  0  0  0  0
  141.6990   71.9320  221.2820 C   0  0  0  0  0  0  0  0  0  0  0  0
  140.6440   71.2800  221.9090 C   0  0  0  0  0  0  0  0  0  0  0  0
  141.2125   71.2912  227.1234 H   0  0  0  0  0  0  0  0  0  0  0  0
  141.7580   69.7570  228.9824 H   0  0  0  0  0  0  0  0  0  0  0  0
  140.7397   67.4811  229.0823 H   0  0  0  0  0  0  0  0  0  0  0  0
  139.1787   66.7976  227.2850 H   0  0  0  0  0  0  0  0  0  0  0  0
  137.6787   68.0144  222.3800 H   0  0  0  0  0  0  0  0  0  0  0  0
  135.4165   68.7853  222.3143 H   0  0  0  0  0  0  0  0  0  0  0  0
  135.6646   71.4802  223.9512 H   0  0  0  0  0  0  0  0  0  0  0  0
  134.4926   72.3794  225.9196 H   0  0  0  0  0  0  0  0  0  0  0  0
  133.4258   70.7747  227.5461 H   0  0  0  0  0  0  0  0  0  0  0  0
  134.7370   67.5026  225.1922 H   0  0  0  0  0  0  0  0  0  0  0  0
  137.8221   70.7654  222.3081 H   0  0  0  0  0  0  0  0  0  0  0  0
  137.8469   72.1292  223.5511 H   0  0  0  0  0  0  0  0  0  0  0  0
  138.6928   73.9134  222.6126 H   0  0  0  0  0  0  0  0  0  0  0  0
  140.5603   75.0737  221.4993 H   0  0  0  0  0  0  0  0  0  0  0  0
  142.5131   73.8268  220.6309 H   0  0  0  0  0  0  0  0  0  0  0  0
  142.5538   71.3500  220.9069 H   0  0  0  0  0  0  0  0  0  0  0  0
  140.6923   70.1862  222.0149 H   0  0  0  0  0  0  0  0  0  0  0  0
  1  2  2  0
  2  3  1  0
  3  4  2  0
  4  5  1  0
  5  6  2  0
  6  7  1  0
  7  8  2  0
  8  9  1  0
  9 10  2  0
 10 11  1  0
 11 12  2  0
 12 13  1  0
 13 14  2  0
 14 15  1  0
 15 16  2  0
 16 17  1  0
 17 18  2  0
 10 19  1  0
 19 20  1  0
 20 21  1  0
 21 22  2  0
 22 23  1  0
 23 24  2  0
 24 25  1  0
 25 26  2  0
 19  2  1  0
 26 21  1  0
  8  3  1  0
 18 13  1  0
  4 27  1  0
  5 28  1  0
  6 29  1  0
  7 30  1  0
 11 31  1  0
 12 32  1  0
 14 33  1  0
 15 34  1  0
 16 35  1  0
 18 36  1  0
 20 37  1  0
 20 38  1  0
 22 39  1  0
 23 40  1  0
 24 41  1  0
 25 42  1  0
 26 43  1  0
M  END
>  <smiles>  (31) 
O=c1c2ccccc2nc(/C=C/c2cccnc2)n1Cc1ccccc1

>  <score_type>  (31) 
oracle

>  <origin>  (31) 
autodockgpu

>  <m_score__min__energy>  (31) 
-7.3499999999999996

>  <m_primary>  (31) 
energy

>  <rmsd>  (31) 
10.157100357058146

>  <m_score__min__rmsd>  (31) 
10.157100357058146

>  <meeko>  (31) 
{"free_energy": -7.12, "intermolecular_energy": -8.61, "internal_energy": -1.46, "cluster_size": 23, "cluster_id": 3, "rank_in_cluster": 4}

>  <energy>  (31) 
-7.0

>  <cluster_rmsd>  (31) 
0.25

>  <cluster>  (31) 
3

$$$$

     RDKit          3D

 43 46  0  0  0  0  0  0  0  0999 V2000
  140.1990   71.9020  225.0760 O   0  0  0  0  0  0  0  0  0  0  0  0
  139.6250   70.8020  225.0260 C   0  0  0  0  0  0  0  0  0  0  0  0
  139.9110   69.9130  226.0690 C   0  0  0  0  0  0  0  0  0  0  0  0
  140.7830   70.2750  227.0730 C   0  0  0  0  0  0  0  0  0  0  0  0
  141.0660   69.3980  228.1020 C   0  0  0  0  0  0  0  0  0  0  0  0
  140.4810   68.1430  228.1460 C   0  0  0  0  0  0  0  0  0  0  0  0
  139.6130   67.8030  227.1330 C   0  0  0  0  0  0  0  0  0  0  0  0
  139.3190   68.6670  226.0960 C   0  0  0  0  0  0  0  0  0  0  0  0
  138.4860   68.3580  225.1110 N   0  0  0  0  0  0  0  0  0  0  0  0
  138.2200   69.2210  224.1150 C   0  0  0  0  0  0  0  0  0  0  0  0
  137.3000   68.7420  223.0750 C   0  0  0  0  0  0  0  0  0  0  0  0
  135.9960   68.7510  223.2730 C   0  0  0  0  0  0  0  0  0  0  0  0
  135.3380   69.3430  224.4270 C   0  0  0  0  0  0  0  0  0  0  0  0
  135.3000   70.7160  224.5970 C   0  0  0  0  0  0  0  0  0  0  0  0
  134.6900   71.3210  225.6700 C   0  0  0  0  0  0  0  0  0  0  0  0
  134.0800   70.5130  226.6320 C   0  0  0  0  0  0  0  0  0  0  0  0
  134.1160   69.1780  226.4660 N   0  0  0  0  0  0  0  0  0  0  0  0
  134.7150   68.5960  225.4130 C   0  0  0  0  0  0  0  0  0  0  0  0
  138.7600   70.4500  224.0280 N   0  0  0  0  0  0  0  0  0  0  0  0
  138.4630   71.3900  222.9900 C   0  0  0  0  0  0  0  0  0  0  0  0
  139.6210   72.0090  222.3390 C   0  0  0  0  0  0  0  0  0  0  0  0
  139.6450   73.3980  222.1900 C   0  0  0  0  0  0  0  0  0  0  0  0
  140.7140   74.0420  221.5770 C   0  0  0  0  0  0  0  0  0  0  0  0
  141.7920   73.3510  221.0930 C   0  0  0  0  0  0  0  0  0  0  0  0
  141.7850   71.9810  221.2330 C   0  0  0  0  0  0  0  0  0  0  0  0
  140.7150   71.3380  221.8450 C   0  0  0  0  0  0  0  0  0  0  0  0
  141.2563   71.2678  227.0548 H   0  0  0  0  0  0  0  0  0  0  0  0
  141.7645   69.6999  228.8963 H   0  0  0  0  0  0  0  0  0  0  0  0
  140.7028   67.4412  228.9635 H   0  0  0  0  0  0  0  0  0  0  0  0
  139.1381   66.8110  227.1499 H   0  0  0  0  0  0  0  0  0  0  0  0
  137.7029   68.3718  222.1207 H   0  0  0  0  0  0  0  0  0  0  0  0
  135.3606   68.2767  222.5106 H   0  0  0  0  0  0  0  0  0  0  0  0
  135.7799   71.3522  223.8388 H   0  0  0  0  0  0  0  0  0  0  0  0
  134.6825   72.4165  225.7687 H   0  0  0  0  0  0  0  0  0  0  0  0
  133.5813   70.9578  227.5058 H   0  0  0  0  0  0  0  0  0  0  0  0
  134.7103   67.4990  225.3322 H   0  0  0  0  0  0  0  0  0  0  0  0
  137.8813   70.8665  222.2170 H   0  0  0  0  0  0  0  0  0  0  0  0
  137.9201   72.2126  223.4785 H   0  0  0  0  0  0  0  0  0  0  0  0
  138.8005   73.9946  222.5655 H   0  0  0  0  0  0  0  0  0  0  0  0
  140.6929   75.1374  221.4782 H   0  0  0  0  0  0  0  0  0  0  0  0
  142.6327   73.8707  220.6102 H   0  0  0  0  0  0  0  0  0  0  0  0
  142.6335   71.3903  220.8573 H   0  0  0  0  0  0  0  0  0  0  0  0
  140.7449   70.2424  221.9383 H   0  0  0  0  0  0  0  0  0  0  0  0
  1  2  2  0
  2  3  1  0
  3  4  2  0
  4  5  1  0
  5  6  2  0
  6  7  1  0
  7  8  2  0
  8  9  1  0
  9 10  2  0
 10 11  1  0
 11 12  2  0
 12 13  1  0
 13 14  2  0
 14 15  1  0
 15 16  2  0
 16 17  1  0
 17 18  2  0
 10 19  1  0
 19 20  1  0
 20 21  1  0
 21 22  2  0
 22 23  1  0
 23 24  2  0
 24 25  1  0
 25 26  2  0
 19  2  1  0
 26 21  1  0
  8  3  1  0
 18 13  1  0
  4 27  1  0
  5 28  1  0
  6 29  1  0
  7 30  1  0
 11 31  1  0
 12 32  1  0
 14 33  1  0
 15 34  1  0
 16 35  1  0
 18 36  1  0
 20 37  1  0
 20 38  1  0
 22 39  1  0
 23 40  1  0
 24 41  1  0
 25 42  1  0
 26 43  1  0
M  END
>  <smiles>  (32) 
O=c1c2ccccc2nc(/C=C/c2cccnc2)n1Cc1ccccc1

>  <score_type>  (32) 
oracle

>  <origin>  (32) 
autodockgpu

>  <m_score__min__energy>  (32) 
-7.3499999999999996

>  <m_primary>  (32) 
energy

>  <rmsd>  (32) 
10.097291792094987

>  <m_score__min__rmsd>  (32) 
10.097291792094987

>  <meeko>  (32) 
{"free_energy": -7.06, "intermolecular_energy": -8.55, "internal_energy": -1.47, "cluster_size": 23, "cluster_id": 3, "rank_in_cluster": 15}

>  <energy>  (32) 
-7.0

>  <cluster_rmsd>  (32) 
0.23

>  <cluster>  (32) 
3

$$$$

     RDKit          3D

 43 46  0  0  0  0  0  0  0  0999 V2000
  139.9330   74.4690  221.9430 O   0  0  0  0  0  0  0  0  0  0  0  0
  140.5950   75.2810  221.2770 C   0  0  0  0  0  0  0  0  0  0  0  0
  141.8620   74.8490  220.8670 C   0  0  0  0  0  0  0  0  0  0  0  0
  142.3120   73.5900  221.2030 C   0  0  0  0  0  0  0  0  0  0  0  0
  143.5620   73.1640  220.7990 C   0  0  0  0  0  0  0  0  0  0  0  0
  144.3850   73.9900  220.0510 C   0  0  0  0  0  0  0  0  0  0  0  0
  143.9160   75.2430  219.7260 C   0  0  0  0  0  0  0  0  0  0  0  0
  142.6690   75.6850  220.1230 C   0  0  0  0  0  0  0  0  0  0  0  0
  142.2000   76.8880  219.8210 N   0  0  0  0  0  0  0  0  0  0  0  0
  140.9800   77.2910  220.2210 C   0  0  0  0  0  0  0  0  0  0  0  0
  140.5940   78.6560  219.8400 C   0  0  0  0  0  0  0  0  0  0  0  0
  141.4270   79.6630  220.0110 C   0  0  0  0  0  0  0  0  0  0  0  0
  141.7980   80.2220  221.3010 C   0  0  0  0  0  0  0  0  0  0  0  0
  142.6070   79.5160  222.1750 C   0  0  0  0  0  0  0  0  0  0  0  0
  142.9850   80.0020  223.4040 C   0  0  0  0  0  0  0  0  0  0  0  0
  142.5320   81.2670  223.7880 C   0  0  0  0  0  0  0  0  0  0  0  0
  141.7480   81.9540  222.9380 N   0  0  0  0  0  0  0  0  0  0  0  0
  141.3830   81.4690  221.7380 C   0  0  0  0  0  0  0  0  0  0  0  0
  140.1440   76.5270  220.9460 N   0  0  0  0  0  0  0  0  0  0  0  0
  138.8310   76.9310  221.3540 C   0  0  0  0  0  0  0  0  0  0  0  0
  138.7680   78.1070  222.2260 C   0  0  0  0  0  0  0  0  0  0  0  0
  139.8030   78.3210  223.1400 C   0  0  0  0  0  0  0  0  0  0  0  0
  139.7970   79.4170  223.9970 C   0  0  0  0  0  0  0  0  0  0  0  0
  138.7820   80.3350  223.9870 C   0  0  0  0  0  0  0  0  0  0  0  0
  137.7540   80.1390  223.0910 C   0  0  0  0  0  0  0  0  0  0  0  0
  137.7620   79.0430  222.2360 C   0  0  0  0  0  0  0  0  0  0  0  0
  141.6716   72.9208  221.7964 H   0  0  0  0  0  0  0  0  0  0  0  0
  143.9082   72.1569  221.0744 H   0  0  0  0  0  0  0  0  0  0  0  0
  145.3815   73.6554  219.7270 H   0  0  0  0  0  0  0  0  0  0  0  0
  144.5544   75.9131  219.1315 H   0  0  0  0  0  0  0  0  0  0  0  0
  139.5994   78.8397  219.4075 H   0  0  0  0  0  0  0  0  0  0  0  0
  141.8741   80.1133  219.1125 H   0  0  0  0  0  0  0  0  0  0  0  0
  142.9636   78.5205  221.8720 H   0  0  0  0  0  0  0  0  0  0  0  0
  143.6292   79.4089  224.0698 H   0  0  0  0  0  0  0  0  0  0  0  0
  142.8104   81.6915  224.7638 H   0  0  0  0  0  0  0  0  0  0  0  0
  140.7385   82.0781  221.0871 H   0  0  0  0  0  0  0  0  0  0  0  0
  138.2487   77.1516  220.4472 H   0  0  0  0  0  0  0  0  0  0  0  0
  138.4328   76.0960  221.9492 H   0  0  0  0  0  0  0  0  0  0  0  0
  140.6398   77.6083  223.1829 H   0  0  0  0  0  0  0  0  0  0  0  0
  140.6310   79.5493  224.7020 H   0  0  0  0  0  0  0  0  0  0  0  0
  138.7868   81.1977  224.6694 H   0  0  0  0  0  0  0  0  0  0  0  0
  136.9203   80.8555  223.0519 H   0  0  0  0  0  0  0  0  0  0  0  0
  136.9237   78.9192  221.5346 H   0  0  0  0  0  0  0  0  0  0  0  0
  1  2  2  0
  2  3  1  0
  3  4  2  0
  4  5  1  0
  5  6  2  0
  6  7  1  0
  7  8  2  0
  8  9  1  0
  9 10  2  0
 10 11  1  0
 11 12  2  0
 12 13  1  0
 13 14  2  0
 14 15  1  0
 15 16  2  0
 16 17  1  0
 17 18  2  0
 10 19  1  0
 19 20  1  0
 20 21  1  0
 21 22  2  0
 22 23  1  0
 23 24  2  0
 24 25  1  0
 25 26  2  0
 19  2  1  0
 26 21  1  0
  8  3  1  0
 18 13  1  0
  4 27  1  0
  5 28  1  0
  6 29  1  0
  7 30  1  0
 11 31  1  0
 12 32  1  0
 14 33  1  0
 15 34  1  0
 16 35  1  0
 18 36  1  0
 20 37  1  0
 20 38  1  0
 22 39  1  0
 23 40  1  0
 24 41  1  0
 25 42  1  0
 26 43  1  0
M  END
>  <smiles>  (33) 
O=c1c2ccccc2nc(/C=C/c2cccnc2)n1Cc1ccccc1

>  <score_type>  (33) 
oracle

>  <origin>  (33) 
autodockgpu

>  <m_score__min__energy>  (33) 
-7.3499999999999996

>  <m_primary>  (33) 
energy

>  <rmsd>  (33) 
4.565553851991554

>  <m_score__min__rmsd>  (33) 
4.565553851991554

>  <meeko>  (33) 
{"free_energy": -6.65, "intermolecular_energy": -8.15, "internal_energy": -1.86, "cluster_size": 10, "cluster_id": 6, "rank_in_cluster": 5}

>  <energy>  (33) 
-6.91

>  <cluster_rmsd>  (33) 
0.42

>  <cluster>  (33) 
3

$$$$

     RDKit          3D

 43 46  0  0  0  0  0  0  0  0999 V2000
  138.4790   75.6380  222.0240 O   0  0  0  0  0  0  0  0  0  0  0  0
  139.5710   75.2140  221.6120 C   0  0  0  0  0  0  0  0  0  0  0  0
  139.7910   73.8400  221.7650 C   0  0  0  0  0  0  0  0  0  0  0  0
  138.8280   73.0390  222.3410 C   0  0  0  0  0  0  0  0  0  0  0  0
  139.0440   71.6840  222.4920 C   0  0  0  0  0  0  0  0  0  0  0  0
  140.2280   71.1030  222.0680 C   0  0  0  0  0  0  0  0  0  0  0  0
  141.1760   71.9210  221.4940 C   0  0  0  0  0  0  0  0  0  0  0  0
  140.9760   73.2780  221.3370 C   0  0  0  0  0  0  0  0  0  0  0  0
  141.8770   74.0820  220.7870 N   0  0  0  0  0  0  0  0  0  0  0  0
  141.6530   75.4010  220.6470 C   0  0  0  0  0  0  0  0  0  0  0  0
  142.7430   76.1800  220.0460 C   0  0  0  0  0  0  0  0  0  0  0  0
  143.5950   75.6150  219.2120 C   0  0  0  0  0  0  0  0  0  0  0  0
  144.4600   74.4940  219.5450 C   0  0  0  0  0  0  0  0  0  0  0  0
  144.9940   74.3610  220.8150 C   0  0  0  0  0  0  0  0  0  0  0  0
  145.8150   73.3210  221.1770 C   0  0  0  0  0  0  0  0  0  0  0  0
  146.1250   72.3520  220.2180 C   0  0  0  0  0  0  0  0  0  0  0  0
  145.6040   72.4800  218.9850 N   0  0  0  0  0  0  0  0  0  0  0  0
  144.8020   73.5030  218.6400 C   0  0  0  0  0  0  0  0  0  0  0  0
  140.5210   76.0110  221.0410 N   0  0  0  0  0  0  0  0  0  0  0  0
  140.2570   77.4090  220.8700 C   0  0  0  0  0  0  0  0  0  0  0  0
  141.0270   78.3130  221.7290 C   0  0  0  0  0  0  0  0  0  0  0  0
  141.0640   78.0640  223.1030 C   0  0  0  0  0  0  0  0  0  0  0  0
  141.7750   78.8880  223.9690 C   0  0  0  0  0  0  0  0  0  0  0  0
  142.4700   79.9780  223.5210 C   0  0  0  0  0  0  0  0  0  0  0  0
  142.4450   80.2370  222.1680 C   0  0  0  0  0  0  0  0  0  0  0  0
  141.7340   79.4120  221.3040 C   0  0  0  0  0  0  0  0  0  0  0  0
  137.8812   73.4827  222.6825 H   0  0  0  0  0  0  0  0  0  0  0  0
  138.2667   71.0580  222.9546 H   0  0  0  0  0  0  0  0  0  0  0  0
  140.4052   70.0238  222.1858 H   0  0  0  0  0  0  0  0  0  0  0  0
  142.1226   71.4790  221.1497 H   0  0  0  0  0  0  0  0  0  0  0  0
  142.8504   77.2463  220.2938 H   0  0  0  0  0  0  0  0  0  0  0  0
  143.6556   76.0209  218.1914 H   0  0  0  0  0  0  0  0  0  0  0  0
  144.7496   75.1234  221.5693 H   0  0  0  0  0  0  0  0  0  0  0  0
  146.2192   73.2521  222.1977 H   0  0  0  0  0  0  0  0  0  0  0  0
  146.7802   71.5041  220.4665 H   0  0  0  0  0  0  0  0  0  0  0  0
  144.4081   73.5538  217.6142 H   0  0  0  0  0  0  0  0  0  0  0  0
  140.4768   77.6685  219.8239 H   0  0  0  0  0  0  0  0  0  0  0  0
  139.2039   77.5513  221.1543 H   0  0  0  0  0  0  0  0  0  0  0  0
  140.5196   77.1984  223.5084 H   0  0  0  0  0  0  0  0  0  0  0  0
  141.7786   78.6568  225.0444 H   0  0  0  0  0  0  0  0  0  0  0  0
  143.0280   80.6236  224.2152 H   0  0  0  0  0  0  0  0  0  0  0  0
  142.9921   81.1035  221.7682 H   0  0  0  0  0  0  0  0  0  0  0  0
  141.7375   79.6501  220.2301 H   0  0  0  0  0  0  0  0  0  0  0  0
  1  2  2  0
  2  3  1  0
  3  4  2  0
  4  5  1  0
  5  6  2  0
  6  7  1  0
  7  8  2  0
  8  9  1  0
  9 10  2  0
 10 11  1  0
 11 12  2  0
 12 13  1  0
 13 14  2  0
 14 15  1  0
 15 16  2  0
 16 17  1  0
 17 18  2  0
 10 19  1  0
 19 20  1  0
 20 21  1  0
 21 22  2  0
 22 23  1  0
 23 24  2  0
 24 25  1  0
 25 26  2  0
 19  2  1  0
 26 21  1  0
  8  3  1  0
 18 13  1  0
  4 27  1  0
  5 28  1  0
  6 29  1  0
  7 30  1  0
 11 31  1  0
 12 32  1  0
 14 33  1  0
 15 34  1  0
 16 35  1  0
 18 36  1  0
 20 37  1  0
 20 38  1  0
 22 39  1  0
 23 40  1  0
 24 41  1  0
 25 42  1  0
 26 43  1  0
M  END
>  <smiles>  (34) 
O=c1c2ccccc2nc(/C=C/c2cccnc2)n1Cc1ccccc1

>  <score_type>  (34) 
oracle

>  <origin>  (34) 
autodockgpu

>  <m_score__min__energy>  (34) 
-7.3499999999999996

>  <m_primary>  (34) 
energy

>  <rmsd>  (34) 
4.622880431290167

>  <m_score__min__rmsd>  (34) 
4.622880431290167

>  <meeko>  (34) 
{"free_energy": -7.25, "intermolecular_energy": -8.74, "internal_energy": -1.34, "cluster_size": 6, "cluster_id": 2, "rank_in_cluster": 4}

>  <energy>  (34) 
-6.91

>  <cluster_rmsd>  (34) 
0.41

>  <cluster>  (34) 
3

$$$$

     RDKit          3D

 43 46  0  0  0  0  0  0  0  0999 V2000
  140.0800   71.8870  225.0860 O   0  0  0  0  0  0  0  0  0  0  0  0
  139.5350   70.7720  225.0650 C   0  0  0  0  0  0  0  0  0  0  0  0
  139.8700   69.9060  226.1120 C   0  0  0  0  0  0  0  0  0  0  0  0
  140.7550   70.3050  227.0910 C   0  0  0  0  0  0  0  0  0  0  0  0
  141.0860   69.4520  228.1250 C   0  0  0  0  0  0  0  0  0  0  0  0
  140.5370   68.1820  228.1990 C   0  0  0  0  0  0  0  0  0  0  0  0
  139.6550   67.8040  227.2130 C   0  0  0  0  0  0  0  0  0  0  0  0
  139.3130   68.6450  226.1720 C   0  0  0  0  0  0  0  0  0  0  0  0
  138.4660   68.2990  225.2110 N   0  0  0  0  0  0  0  0  0  0  0  0
  138.1530   69.1400  224.2090 C   0  0  0  0  0  0  0  0  0  0  0  0
  137.2220   68.6220  223.1990 C   0  0  0  0  0  0  0  0  0  0  0  0
  135.9440   68.9440  223.2320 C   0  0  0  0  0  0  0  0  0  0  0  0
  135.2430   69.4310  224.4100 C   0  0  0  0  0  0  0  0  0  0  0  0
  135.1390   70.7880  224.6640 C   0  0  0  0  0  0  0  0  0  0  0  0
  134.4870   71.2960  225.7620 C   0  0  0  0  0  0  0  0  0  0  0  0
  133.9030   70.4020  226.6630 C   0  0  0  0  0  0  0  0  0  0  0  0
  134.0030   69.0840  226.4150 N   0  0  0  0  0  0  0  0  0  0  0  0
  134.6440   68.5960  225.3380 C   0  0  0  0  0  0  0  0  0  0  0  0
  138.6570   70.3810  224.0930 N   0  0  0  0  0  0  0  0  0  0  0  0
  138.3100   71.2990  223.0500 C   0  0  0  0  0  0  0  0  0  0  0  0
  139.4340   71.9670  222.3880 C   0  0  0  0  0  0  0  0  0  0  0  0
  140.4670   71.1850  221.8660 C   0  0  0  0  0  0  0  0  0  0  0  0
  141.5610   71.7610  221.2290 C   0  0  0  0  0  0  0  0  0  0  0  0
  141.6790   73.1170  221.0830 C   0  0  0  0  0  0  0  0  0  0  0  0
  140.6690   73.9030  221.5910 C   0  0  0  0  0  0  0  0  0  0  0  0
  139.5760   73.3250  222.2270 C   0  0  0  0  0  0  0  0  0  0  0  0
  141.2005   71.3098  227.0480 H   0  0  0  0  0  0  0  0  0  0  0  0
  141.7936   69.7845  228.8988 H   0  0  0  0  0  0  0  0  0  0  0  0
  140.7980   67.4978  229.0198 H   0  0  0  0  0  0  0  0  0  0  0  0
  139.2079   66.7999  227.2551 H   0  0  0  0  0  0  0  0  0  0  0  0
  137.5950   67.9576  222.4056 H   0  0  0  0  0  0  0  0  0  0  0  0
  135.3663   68.8367  222.3021 H   0  0  0  0  0  0  0  0  0  0  0  0
  135.5992   71.4916  223.9547 H   0  0  0  0  0  0  0  0  0  0  0  0
  134.4263   72.3818  225.9277 H   0  0  0  0  0  0  0  0  0  0  0  0
  133.3734   70.7679  227.5550 H   0  0  0  0  0  0  0  0  0  0  0  0
  134.6936   67.5070  225.1908 H   0  0  0  0  0  0  0  0  0  0  0  0
  137.7492   70.7433  222.2841 H   0  0  0  0  0  0  0  0  0  0  0  0
  137.7317   72.0986  223.5360 H   0  0  0  0  0  0  0  0  0  0  0  0
  140.4141   70.0904  221.9607 H   0  0  0  0  0  0  0  0  0  0  0  0
  142.3530   71.1092  220.8317 H   0  0  0  0  0  0  0  0  0  0  0  0
  142.5489   73.5624  220.5782 H   0  0  0  0  0  0  0  0  0  0  0  0
  140.7273   74.9971  221.4929 H   0  0  0  0  0  0  0  0  0  0  0  0
  138.7883   73.9849  222.6196 H   0  0  0  0  0  0  0  0  0  0  0  0
  1  2  2  0
  2  3  1  0
  3  4  2  0
  4  5  1  0
  5  6  2  0
  6  7  1  0
  7  8  2  0
  8  9  1  0
  9 10  2  0
 10 11  1  0
 11 12  2  0
 12 13  1  0
 13 14  2  0
 14 15  1  0
 15 16  2  0
 16 17  1  0
 17 18  2  0
 10 19  1  0
 19 20  1  0
 20 21  1  0
 21 22  2  0
 22 23  1  0
 23 24  2  0
 24 25  1  0
 25 26  2  0
 19  2  1  0
 26 21  1  0
  8  3  1  0
 18 13  1  0
  4 27  1  0
  5 28  1  0
  6 29  1  0
  7 30  1  0
 11 31  1  0
 12 32  1  0
 14 33  1  0
 15 34  1  0
 16 35  1  0
 18 36  1  0
 20 37  1  0
 20 38  1  0
 22 39  1  0
 23 40  1  0
 24 41  1  0
 25 42  1  0
 26 43  1  0
M  END
>  <smiles>  (35) 
O=c1c2ccccc2nc(/C=C/c2cccnc2)n1Cc1ccccc1

>  <score_type>  (35) 
oracle

>  <origin>  (35) 
autodockgpu

>  <m_score__min__energy>  (35) 
-7.3499999999999996

>  <m_primary>  (35) 
energy

>  <rmsd>  (35) 
10.089567466630788

>  <m_score__min__rmsd>  (35) 
10.089567466630788

>  <meeko>  (35) 
{"free_energy": -7.11, "intermolecular_energy": -8.6, "internal_energy": -1.45, "cluster_size": 23, "cluster_id": 3, "rank_in_cluster": 7}

>  <energy>  (35) 
-7.16

>  <cluster_rmsd>  (35) 
0.0

>  <cluster>  (35) 
4

$$$$

     RDKit          3D

 43 46  0  0  0  0  0  0  0  0999 V2000
  140.2580   71.8850  225.1160 O   0  0  0  0  0  0  0  0  0  0  0  0
  139.6410   70.8080  225.0890 C   0  0  0  0  0  0  0  0  0  0  0  0
  139.9190   69.9160  226.1310 C   0  0  0  0  0  0  0  0  0  0  0  0
  140.8300   70.2500  227.1100 C   0  0  0  0  0  0  0  0  0  0  0  0
  141.1060   69.3700  228.1380 C   0  0  0  0  0  0  0  0  0  0  0  0
  140.4740   68.1390  228.2060 C   0  0  0  0  0  0  0  0  0  0  0  0
  139.5670   67.8260  227.2180 C   0  0  0  0  0  0  0  0  0  0  0  0
  139.2810   68.6940  226.1830 C   0  0  0  0  0  0  0  0  0  0  0  0
  138.4120   68.4100  225.2220 N   0  0  0  0  0  0  0  0  0  0  0  0
  138.1530   69.2770  224.2260 C   0  0  0  0  0  0  0  0  0  0  0  0
  137.1890   68.8270  223.2140 C   0  0  0  0  0  0  0  0  0  0  0  0
  135.9340   69.2310  223.2530 C   0  0  0  0  0  0  0  0  0  0  0  0
  135.2220   69.6090  224.4630 C   0  0  0  0  0  0  0  0  0  0  0  0
  135.0420   70.9410  224.7960 C   0  0  0  0  0  0  0  0  0  0  0  0
  134.3770   71.3470  225.9270 C   0  0  0  0  0  0  0  0  0  0  0  0
  133.8580   70.3700  226.7820 C   0  0  0  0  0  0  0  0  0  0  0  0
  134.0330   69.0760  226.4580 N   0  0  0  0  0  0  0  0  0  0  0  0
  134.6860   68.6890  225.3490 C   0  0  0  0  0  0  0  0  0  0  0  0
  138.7380   70.4830  224.1170 N   0  0  0  0  0  0  0  0  0  0  0  0
  138.4500   71.4270  223.0790 C   0  0  0  0  0  0  0  0  0  0  0  0
  139.6140   72.0000  222.3970 C   0  0  0  0  0  0  0  0  0  0  0  0
  139.6850   73.3870  222.2410 C   0  0  0  0  0  0  0  0  0  0  0  0
  140.7630   73.9890  221.6000 C   0  0  0  0  0  0  0  0  0  0  0  0
  141.8020   73.2570  221.0940 C   0  0  0  0  0  0  0  0  0  0  0  0
  141.7480   71.8880  221.2400 C   0  0  0  0  0  0  0  0  0  0  0  0
  140.6700   71.2880  221.8810 C   0  0  0  0  0  0  0  0  0  0  0  0
  141.3404   71.2237  227.0723 H   0  0  0  0  0  0  0  0  0  0  0  0
  141.8361   69.6497  228.9118 H   0  0  0  0  0  0  0  0  0  0  0  0
  140.6897   67.4344  229.0227 H   0  0  0  0  0  0  0  0  0  0  0  0
  139.0541   66.8536  227.2546 H   0  0  0  0  0  0  0  0  0  0  0  0
  137.5169   68.1458  222.4150 H   0  0  0  0  0  0  0  0  0  0  0  0
  135.3862   69.2859  222.3007 H   0  0  0  0  0  0  0  0  0  0  0  0
  135.4506   71.7096  224.1235 H   0  0  0  0  0  0  0  0  0  0  0  0
  134.2555   72.4162  226.1550 H   0  0  0  0  0  0  0  0  0  0  0  0
  133.3191   70.6528  227.6983 H   0  0  0  0  0  0  0  0  0  0  0  0
  134.7976   67.6149  225.1397 H   0  0  0  0  0  0  0  0  0  0  0  0
  137.8320   70.9198  222.3235 H   0  0  0  0  0  0  0  0  0  0  0  0
  137.9481   72.2715  223.5740 H   0  0  0  0  0  0  0  0  0  0  0  0
  138.8719   74.0156  222.6331 H   0  0  0  0  0  0  0  0  0  0  0  0
  140.7804   75.0840  221.4972 H   0  0  0  0  0  0  0  0  0  0  0  0
  142.6495   73.7435  220.5890 H   0  0  0  0  0  0  0  0  0  0  0  0
  142.5644   71.2647  220.8462 H   0  0  0  0  0  0  0  0  0  0  0  0
  140.6620   70.1925  221.9797 H   0  0  0  0  0  0  0  0  0  0  0  0
  1  2  2  0
  2  3  1  0
  3  4  2  0
  4  5  1  0
  5  6  2  0
  6  7  1  0
  7  8  2  0
  8  9  1  0
  9 10  2  0
 10 11  1  0
 11 12  2  0
 12 13  1  0
 13 14  2  0
 14 15  1  0
 15 16  2  0
 16 17  1  0
 17 18  2  0
 10 19  1  0
 19 20  1  0
 20 21  1  0
 21 22  2  0
 22 23  1  0
 23 24  2  0
 24 25  1  0
 25 26  2  0
 19  2  1  0
 26 21  1  0
  8  3  1  0
 18 13  1  0
  4 27  1  0
  5 28  1  0
  6 29  1  0
  7 30  1  0
 11 31  1  0
 12 32  1  0
 14 33  1  0
 15 34  1  0
 16 35  1  0
 18 36  1  0
 20 37  1  0
 20 38  1  0
 22 39  1  0
 23 40  1  0
 24 41  1  0
 25 42  1  0
 26 43  1  0
M  END
>  <smiles>  (36) 
O=c1c2ccccc2nc(/C=C/c2cccnc2)n1Cc1ccccc1

>  <score_type>  (36) 
oracle

>  <origin>  (36) 
autodockgpu

>  <m_score__min__energy>  (36) 
-7.3499999999999996

>  <m_primary>  (36) 
energy

>  <rmsd>  (36) 
10.14285724343385

>  <m_score__min__rmsd>  (36) 
10.14285724343385

>  <meeko>  (36) 
{"free_energy": -7.19, "intermolecular_energy": -8.68, "internal_energy": -1.41, "cluster_size": 23, "cluster_id": 3, "rank_in_cluster": 3}

>  <energy>  (36) 
-7.15

>  <cluster_rmsd>  (36) 
0.0

>  <cluster>  (36) 
5

$$$$

     RDKit          3D

 43 46  0  0  0  0  0  0  0  0999 V2000
  140.2140   71.8960  225.0720 O   0  0  0  0  0  0  0  0  0  0  0  0
  139.6360   70.7980  225.0220 C   0  0  0  0  0  0  0  0  0  0  0  0
  139.9210   69.9080  226.0640 C   0  0  0  0  0  0  0  0  0  0  0  0
  140.7960   70.2650  227.0670 C   0  0  0  0  0  0  0  0  0  0  0  0
  141.0780   69.3870  228.0950 C   0  0  0  0  0  0  0  0  0  0  0  0
  140.4890   68.1340  228.1390 C   0  0  0  0  0  0  0  0  0  0  0  0
  139.6180   67.7970  227.1270 C   0  0  0  0  0  0  0  0  0  0  0  0
  139.3250   68.6640  226.0920 C   0  0  0  0  0  0  0  0  0  0  0  0
  138.4900   68.3570  225.1080 N   0  0  0  0  0  0  0  0  0  0  0  0
  138.2240   69.2220  224.1130 C   0  0  0  0  0  0  0  0  0  0  0  0
  137.3010   68.7470  223.0740 C   0  0  0  0  0  0  0  0  0  0  0  0
  136.0010   68.7150  223.2930 C   0  0  0  0  0  0  0  0  0  0  0  0
  135.3370   69.3290  224.4320 C   0  0  0  0  0  0  0  0  0  0  0  0
  135.3150   70.7050  224.5850 C   0  0  0  0  0  0  0  0  0  0  0  0
  134.7010   71.3310  225.6430 C   0  0  0  0  0  0  0  0  0  0  0  0
  134.0690   70.5420  226.6080 C   0  0  0  0  0  0  0  0  0  0  0  0
  134.0890   69.2060  226.4580 N   0  0  0  0  0  0  0  0  0  0  0  0
  134.6930   68.6030  225.4200 C   0  0  0  0  0  0  0  0  0  0  0  0
  138.7680   70.4490  224.0260 N   0  0  0  0  0  0  0  0  0  0  0  0
  138.4720   71.3910  222.9890 C   0  0  0  0  0  0  0  0  0  0  0  0
  139.6310   72.0030  222.3330 C   0  0  0  0  0  0  0  0  0  0  0  0
  139.6600   73.3910  222.1810 C   0  0  0  0  0  0  0  0  0  0  0  0
  140.7310   74.0300  221.5650 C   0  0  0  0  0  0  0  0  0  0  0  0
  141.8040   73.3330  221.0780 C   0  0  0  0  0  0  0  0  0  0  0  0
  141.7910   71.9630  221.2210 C   0  0  0  0  0  0  0  0  0  0  0  0
  140.7200   71.3270  221.8370 C   0  0  0  0  0  0  0  0  0  0  0  0
  141.2731   71.2560  227.0487 H   0  0  0  0  0  0  0  0  0  0  0  0
  141.7787   69.6862  228.8884 H   0  0  0  0  0  0  0  0  0  0  0  0
  140.7098   67.4311  228.9558 H   0  0  0  0  0  0  0  0  0  0  0  0
  139.1404   66.8062  227.1432 H   0  0  0  0  0  0  0  0  0  0  0  0
  137.6980   68.4146  222.1035 H   0  0  0  0  0  0  0  0  0  0  0  0
  135.3733   68.1855  222.5611 H   0  0  0  0  0  0  0  0  0  0  0  0
  135.8119   71.3255  223.8247 H   0  0  0  0  0  0  0  0  0  0  0  0
  134.7068   72.4277  225.7284 H   0  0  0  0  0  0  0  0  0  0  0  0
  133.5665   71.0036  227.4708 H   0  0  0  0  0  0  0  0  0  0  0  0
  134.6754   67.5052  225.3534 H   0  0  0  0  0  0  0  0  0  0  0  0
  137.8838   70.8710  222.2186 H   0  0  0  0  0  0  0  0  0  0  0  0
  137.9361   72.2168  223.4798 H   0  0  0  0  0  0  0  0  0  0  0  0
  138.8182   73.9915  222.5563 H   0  0  0  0  0  0  0  0  0  0  0  0
  140.7154   75.1255  221.4664 H   0  0  0  0  0  0  0  0  0  0  0  0
  142.6451   73.8478  220.5907 H   0  0  0  0  0  0  0  0  0  0  0  0
  142.6356   71.3674  220.8443 H   0  0  0  0  0  0  0  0  0  0  0  0
  140.7450   70.2314  221.9321 H   0  0  0  0  0  0  0  0  0  0  0  0
  1  2  2  0
  2  3  1  0
  3  4  2  0
  4  5  1  0
  5  6  2  0
  6  7  1  0
  7  8  2  0
  8  9  1  0
  9 10  2  0
 10 11  1  0
 11 12  2  0
 12 13  1  0
 13 14  2  0
 14 15  1  0
 15 16  2  0
 16 17  1  0
 17 18  2  0
 10 19  1  0
 19 20  1  0
 20 21  1  0
 21 22  2  0
 22 23  1  0
 23 24  2  0
 24 25  1  0
 25 26  2  0
 19  2  1  0
 26 21  1  0
  8  3  1  0
 18 13  1  0
  4 27  1  0
  5 28  1  0
  6 29  1  0
  7 30  1  0
 11 31  1  0
 12 32  1  0
 14 33  1  0
 15 34  1  0
 16 35  1  0
 18 36  1  0
 20 37  1  0
 20 38  1  0
 22 39  1  0
 23 40  1  0
 24 41  1  0
 25 42  1  0
 26 43  1  0
M  END
>  <smiles>  (37) 
O=c1c2ccccc2nc(/C=C/c2cccnc2)n1Cc1ccccc1

>  <score_type>  (37) 
oracle

>  <origin>  (37) 
autodockgpu

>  <m_score__min__energy>  (37) 
-7.3499999999999996

>  <m_primary>  (37) 
energy

>  <rmsd>  (37) 
10.103179839384046

>  <m_score__min__rmsd>  (37) 
10.103179839384046

>  <meeko>  (37) 
{"free_energy": -7.06, "intermolecular_energy": -8.55, "internal_energy": -1.46, "cluster_size": 23, "cluster_id": 3, "rank_in_cluster": 12}

>  <energy>  (37) 
-7.14

>  <cluster_rmsd>  (37) 
0.11

>  <cluster>  (37) 
5

$$$$

     RDKit          3D

 43 46  0  0  0  0  0  0  0  0999 V2000
  140.1640   71.8870  225.0930 O   0  0  0  0  0  0  0  0  0  0  0  0
  139.6040   70.7790  225.0650 C   0  0  0  0  0  0  0  0  0  0  0  0
  139.9080   69.9120  226.1210 C   0  0  0  0  0  0  0  0  0  0  0  0
  140.7800   70.3020  227.1150 C   0  0  0  0  0  0  0  0  0  0  0  0
  141.0800   69.4480  228.1580 C   0  0  0  0  0  0  0  0  0  0  0  0
  140.5120   68.1860  228.2260 C   0  0  0  0  0  0  0  0  0  0  0  0
  139.6430   67.8170  227.2230 C   0  0  0  0  0  0  0  0  0  0  0  0
  139.3330   68.6590  226.1740 C   0  0  0  0  0  0  0  0  0  0  0  0
  138.5000   68.3210  225.1980 N   0  0  0  0  0  0  0  0  0  0  0  0
  138.2170   69.1640  224.1880 C   0  0  0  0  0  0  0  0  0  0  0  0
  137.2980   68.6550  223.1620 C   0  0  0  0  0  0  0  0  0  0  0  0
  136.0040   68.9000  223.2350 C   0  0  0  0  0  0  0  0  0  0  0  0
  135.3220   69.4010  224.4170 C   0  0  0  0  0  0  0  0  0  0  0  0
  135.2640   70.7580  224.6820 C   0  0  0  0  0  0  0  0  0  0  0  0
  134.6300   71.2800  225.7850 C   0  0  0  0  0  0  0  0  0  0  0  0
  134.0170   70.3980  226.6790 C   0  0  0  0  0  0  0  0  0  0  0  0
  134.0720   69.0790  226.4210 N   0  0  0  0  0  0  0  0  0  0  0  0
  134.6950   68.5790  225.3390 C   0  0  0  0  0  0  0  0  0  0  0  0
  138.7400   70.3980  224.0780 N   0  0  0  0  0  0  0  0  0  0  0  0
  138.4250   71.3160  223.0260 C   0  0  0  0  0  0  0  0  0  0  0  0
  139.5710   71.9430  222.3610 C   0  0  0  0  0  0  0  0  0  0  0  0
  139.5860   73.3320  222.2160 C   0  0  0  0  0  0  0  0  0  0  0  0
  140.6440   73.9840  221.5920 C   0  0  0  0  0  0  0  0  0  0  0  0
  141.7190   73.3000  221.0910 C   0  0  0  0  0  0  0  0  0  0  0  0
  141.7200   71.9290  221.2260 C   0  0  0  0  0  0  0  0  0  0  0  0
  140.6610   71.2790  221.8500 C   0  0  0  0  0  0  0  0  0  0  0  0
  141.2401   71.3005  227.0771 H   0  0  0  0  0  0  0  0  0  0  0  0
  141.7778   69.7733  228.9437 H   0  0  0  0  0  0  0  0  0  0  0  0
  140.7474   67.5011  229.0540 H   0  0  0  0  0  0  0  0  0  0  0  0
  139.1812   66.8193  227.2591 H   0  0  0  0  0  0  0  0  0  0  0  0
  137.6931   68.0629  222.3234 H   0  0  0  0  0  0  0  0  0  0  0  0
  135.3973   68.7117  222.3370 H   0  0  0  0  0  0  0  0  0  0  0  0
  135.7474   71.4511  223.9778 H   0  0  0  0  0  0  0  0  0  0  0  0
  134.6060   72.3658  225.9594 H   0  0  0  0  0  0  0  0  0  0  0  0
  133.5006   70.7743  227.5744 H   0  0  0  0  0  0  0  0  0  0  0  0
  134.7070   67.4903  225.1823 H   0  0  0  0  0  0  0  0  0  0  0  0
  137.8494   70.7707  222.2635 H   0  0  0  0  0  0  0  0  0  0  0  0
  137.8706   72.1376  223.5030 H   0  0  0  0  0  0  0  0  0  0  0  0
  138.7430   73.9228  222.6037 H   0  0  0  0  0  0  0  0  0  0  0  0
  140.6164   75.0797  221.4983 H   0  0  0  0  0  0  0  0  0  0  0  0
  142.5508   73.8255  220.5991 H   0  0  0  0  0  0  0  0  0  0  0  0
  142.5659   71.3434  220.8368 H   0  0  0  0  0  0  0  0  0  0  0  0
  140.6970   70.1832  221.9389 H   0  0  0  0  0  0  0  0  0  0  0  0
  1  2  2  0
  2  3  1  0
  3  4  2  0
  4  5  1  0
  5  6  2  0
  6  7  1  0
  7  8  2  0
  8  9  1  0
  9 10  2  0
 10 11  1  0
 11 12  2  0
 12 13  1  0
 13 14  2  0
 14 15  1  0
 15 16  2  0
 16 17  1  0
 17 18  2  0
 10 19  1  0
 19 20  1  0
 20 21  1  0
 21 22  2  0
 22 23  1  0
 23 24  2  0
 24 25  1  0
 25 26  2  0
 19  2  1  0
 26 21  1  0
  8  3  1  0
 18 13  1  0
  4 27  1  0
  5 28  1  0
  6 29  1  0
  7 30  1  0
 11 31  1  0
 12 32  1  0
 14 33  1  0
 15 34  1  0
 16 35  1  0
 18 36  1  0
 20 37  1  0
 20 38  1  0
 22 39  1  0
 23 40  1  0
 24 41  1  0
 25 42  1  0
 26 43  1  0
M  END
>  <smiles>  (38) 
O=c1c2ccccc2nc(/C=C/c2cccnc2)n1Cc1ccccc1

>  <score_type>  (38) 
oracle

>  <origin>  (38) 
autodockgpu

>  <m_score__min__energy>  (38) 
-7.3499999999999996

>  <m_primary>  (38) 
energy

>  <rmsd>  (38) 
10.137866573601784

>  <m_score__min__rmsd>  (38) 
10.137866573601784

>  <meeko>  (38) 
{"free_energy": -7.11, "intermolecular_energy": -8.6, "internal_energy": -1.46, "cluster_size": 23, "cluster_id": 3, "rank_in_cluster": 6}

>  <energy>  (38) 
-7.13

>  <cluster_rmsd>  (38) 
0.14

>  <cluster>  (38) 
5

$$$$

     RDKit          3D

 43 46  0  0  0  0  0  0  0  0999 V2000
  140.2170   71.9080  225.0410 O   0  0  0  0  0  0  0  0  0  0  0  0
  139.6360   70.8120  224.9870 C   0  0  0  0  0  0  0  0  0  0  0  0
  139.9220   69.9150  226.0220 C   0  0  0  0  0  0  0  0  0  0  0  0
  140.8010   70.2650  227.0250 C   0  0  0  0  0  0  0  0  0  0  0  0
  141.0830   69.3810  228.0480 C   0  0  0  0  0  0  0  0  0  0  0  0
  140.4920   68.1290  228.0860 C   0  0  0  0  0  0  0  0  0  0  0  0
  139.6170   67.8000  227.0750 C   0  0  0  0  0  0  0  0  0  0  0  0
  139.3240   68.6720  226.0450 C   0  0  0  0  0  0  0  0  0  0  0  0
  138.4850   68.3730  225.0620 N   0  0  0  0  0  0  0  0  0  0  0  0
  138.2190   69.2440  224.0720 C   0  0  0  0  0  0  0  0  0  0  0  0
  137.2920   68.7770  223.0330 C   0  0  0  0  0  0  0  0  0  0  0  0
  135.9970   68.7000  223.2710 C   0  0  0  0  0  0  0  0  0  0  0  0
  135.3270   69.3090  224.4090 C   0  0  0  0  0  0  0  0  0  0  0  0
  135.2950   70.6850  224.5620 C   0  0  0  0  0  0  0  0  0  0  0  0
  134.6740   71.3070  225.6180 C   0  0  0  0  0  0  0  0  0  0  0  0
  134.0450   70.5140  226.5820 C   0  0  0  0  0  0  0  0  0  0  0  0
  134.0750   69.1770  226.4330 N   0  0  0  0  0  0  0  0  0  0  0  0
  134.6860   68.5780  225.3950 C   0  0  0  0  0  0  0  0  0  0  0  0
  138.7660   70.4700  223.9910 N   0  0  0  0  0  0  0  0  0  0  0  0
  138.4690   71.4190  222.9600 C   0  0  0  0  0  0  0  0  0  0  0  0
  139.6270   72.0380  222.3100 C   0  0  0  0  0  0  0  0  0  0  0  0
  139.6510   73.4270  222.1600 C   0  0  0  0  0  0  0  0  0  0  0  0
  140.7210   74.0710  221.5490 C   0  0  0  0  0  0  0  0  0  0  0  0
  141.7990   73.3810  221.0660 C   0  0  0  0  0  0  0  0  0  0  0  0
  141.7930   72.0110  221.2060 C   0  0  0  0  0  0  0  0  0  0  0  0
  140.7220   71.3680  221.8180 C   0  0  0  0  0  0  0  0  0  0  0  0
  141.2808   71.2547  227.0103 H   0  0  0  0  0  0  0  0  0  0  0  0
  141.7853   69.6748  228.8420 H   0  0  0  0  0  0  0  0  0  0  0  0
  140.7144   67.4205  228.8975 H   0  0  0  0  0  0  0  0  0  0  0  0
  139.1359   66.8109  227.0882 H   0  0  0  0  0  0  0  0  0  0  0  0
  137.6819   68.4884  222.0458 H   0  0  0  0  0  0  0  0  0  0  0  0
  135.3795   68.1346  222.5575 H   0  0  0  0  0  0  0  0  0  0  0  0
  135.7897   71.3088  223.8030 H   0  0  0  0  0  0  0  0  0  0  0  0
  134.6719   72.4037  225.7029 H   0  0  0  0  0  0  0  0  0  0  0  0
  133.5369   70.9726  227.4431 H   0  0  0  0  0  0  0  0  0  0  0  0
  134.6762   67.4801  225.3278 H   0  0  0  0  0  0  0  0  0  0  0  0
  137.8829   70.9031  222.1852 H   0  0  0  0  0  0  0  0  0  0  0  0
  137.9306   72.2401  223.4560 H   0  0  0  0  0  0  0  0  0  0  0  0
  138.8055   74.0235  222.5332 H   0  0  0  0  0  0  0  0  0  0  0  0
  140.7002   75.1664  221.4512 H   0  0  0  0  0  0  0  0  0  0  0  0
  142.6396   73.9013  220.5836 H   0  0  0  0  0  0  0  0  0  0  0  0
  142.6419   71.4205  220.8309 H   0  0  0  0  0  0  0  0  0  0  0  0
  140.7527   70.2725  221.9127 H   0  0  0  0  0  0  0  0  0  0  0  0
  1  2  2  0
  2  3  1  0
  3  4  2  0
  4  5  1  0
  5  6  2  0
  6  7  1  0
  7  8  2  0
  8  9  1  0
  9 10  2  0
 10 11  1  0
 11 12  2  0
 12 13  1  0
 13 14  2  0
 14 15  1  0
 15 16  2  0
 16 17  1  0
 17 18  2  0
 10 19  1  0
 19 20  1  0
 20 21  1  0
 21 22  2  0
 22 23  1  0
 23 24  2  0
 24 25  1  0
 25 26  2  0
 19  2  1  0
 26 21  1  0
  8  3  1  0
 18 13  1  0
  4 27  1  0
  5 28  1  0
  6 29  1  0
  7 30  1  0
 11 31  1  0
 12 32  1  0
 14 33  1  0
 15 34  1  0
 16 35  1  0
 18 36  1  0
 20 37  1  0
 20 38  1  0
 22 39  1  0
 23 40  1  0
 24 41  1  0
 25 42  1  0
 26 43  1  0
M  END
>  <smiles>  (39) 
O=c1c2ccccc2nc(/C=C/c2cccnc2)n1Cc1ccccc1

>  <score_type>  (39) 
oracle

>  <origin>  (39) 
autodockgpu

>  <m_score__min__energy>  (39) 
-7.3499999999999996

>  <m_primary>  (39) 
energy

>  <rmsd>  (39) 
10.066034262866058

>  <m_score__min__rmsd>  (39) 
10.066034262866058

>  <meeko>  (39) 
{"free_energy": -7.06, "intermolecular_energy": -8.55, "internal_energy": -1.45, "cluster_size": 23, "cluster_id": 3, "rank_in_cluster": 17}

>  <energy>  (39) 
-7.02

>  <cluster_rmsd>  (39) 
0.17

>  <cluster>  (39) 
5

$$$$

     RDKit          3D

 43 46  0  0  0  0  0  0  0  0999 V2000
  138.9360   67.6750  225.2470 O   0  0  0  0  0  0  0  0  0  0  0  0
  139.1860   68.8740  225.0440 C   0  0  0  0  0  0  0  0  0  0  0  0
  139.8750   69.5370  226.0660 C   0  0  0  0  0  0  0  0  0  0  0  0
  140.2380   68.8650  227.2130 C   0  0  0  0  0  0  0  0  0  0  0  0
  140.9180   69.5190  228.2220 C   0  0  0  0  0  0  0  0  0  0  0  0
  141.2470   70.8580  228.1020 C   0  0  0  0  0  0  0  0  0  0  0  0
  140.8760   71.5110  226.9480 C   0  0  0  0  0  0  0  0  0  0  0  0
  140.1950   70.8720  225.9300 C   0  0  0  0  0  0  0  0  0  0  0  0
  139.8270   71.4840  224.8120 N   0  0  0  0  0  0  0  0  0  0  0  0
  139.1650   70.8350  223.8370 C   0  0  0  0  0  0  0  0  0  0  0  0
  138.7960   71.6360  222.6630 C   0  0  0  0  0  0  0  0  0  0  0  0
  139.4910   72.7070  222.3340 C   0  0  0  0  0  0  0  0  0  0  0  0
  140.7820   72.6830  221.6630 C   0  0  0  0  0  0  0  0  0  0  0  0
  141.3730   73.8530  221.2170 C   0  0  0  0  0  0  0  0  0  0  0  0
  142.5890   73.8810  220.5790 C   0  0  0  0  0  0  0  0  0  0  0  0
  143.2610   72.6730  220.3720 C   0  0  0  0  0  0  0  0  0  0  0  0
  142.6870   71.5370  220.8070 N   0  0  0  0  0  0  0  0  0  0  0  0
  141.4960   71.5200  221.4300 C   0  0  0  0  0  0  0  0  0  0  0  0
  138.8240   69.5360  223.9050 N   0  0  0  0  0  0  0  0  0  0  0  0
  138.1460   68.8240  222.8640 C   0  0  0  0  0  0  0  0  0  0  0  0
  139.0020   68.0700  221.9440 C   0  0  0  0  0  0  0  0  0  0  0  0
  139.0850   66.6830  222.0890 C   0  0  0  0  0  0  0  0  0  0  0  0
  139.8820   65.9140  221.2490 C   0  0  0  0  0  0  0  0  0  0  0  0
  140.6220   66.4740  220.2430 C   0  0  0  0  0  0  0  0  0  0  0  0
  140.5510   67.8410  220.0860 C   0  0  0  0  0  0  0  0  0  0  0  0
  139.7530   68.6080  220.9270 C   0  0  0  0  0  0  0  0  0  0  0  0
  139.9846   67.8006  227.3259 H   0  0  0  0  0  0  0  0  0  0  0  0
  141.2013   68.9691  229.1316 H   0  0  0  0  0  0  0  0  0  0  0  0
  141.7875   71.3837  228.9029 H   0  0  0  0  0  0  0  0  0  0  0  0
  141.1299   72.5751  226.8330 H   0  0  0  0  0  0  0  0  0  0  0  0
  137.9309   71.3395  222.0517 H   0  0  0  0  0  0  0  0  0  0  0  0
  139.0642   73.6893  222.5848 H   0  0  0  0  0  0  0  0  0  0  0  0
  140.8445   74.8036  221.3811 H   0  0  0  0  0  0  0  0  0  0  0  0
  143.0241   74.8323  220.2387 H   0  0  0  0  0  0  0  0  0  0  0  0
  144.2369   72.6518  219.8649 H   0  0  0  0  0  0  0  0  0  0  0  0
  141.0784   70.5583  221.7629 H   0  0  0  0  0  0  0  0  0  0  0  0
  137.4520   68.1140  223.3376 H   0  0  0  0  0  0  0  0  0  0  0  0
  137.6517   69.5916  222.2504 H   0  0  0  0  0  0  0  0  0  0  0  0
  138.5076   66.1892  222.8845 H   0  0  0  0  0  0  0  0  0  0  0  0
  139.9190   64.8246  221.3970 H   0  0  0  0  0  0  0  0  0  0  0  0
  141.2499   65.8559  219.5845 H   0  0  0  0  0  0  0  0  0  0  0  0
  141.1305   68.3294  219.2887 H   0  0  0  0  0  0  0  0  0  0  0  0
  139.7213   69.6964  220.7710 H   0  0  0  0  0  0  0  0  0  0  0  0
  1  2  2  0
  2  3  1  0
  3  4  2  0
  4  5  1  0
  5  6  2  0
  6  7  1  0
  7  8  2  0
  8  9  1  0
  9 10  2  0
 10 11  1  0
 11 12  2  0
 12 13  1  0
 13 14  2  0
 14 15  1  0
 15 16  2  0
 16 17  1  0
 17 18  2  0
 10 19  1  0
 19 20  1  0
 20 21  1  0
 21 22  2  0
 22 23  1  0
 23 24  2  0
 24 25  1  0
 25 26  2  0
 19  2  1  0
 26 21  1  0
  8  3  1  0
 18 13  1  0
  4 27  1  0
  5 28  1  0
  6 29  1  0
  7 30  1  0
 11 31  1  0
 12 32  1  0
 14 33  1  0
 15 34  1  0
 16 35  1  0
 18 36  1  0
 20 37  1  0
 20 38  1  0
 22 39  1  0
 23 40  1  0
 24 41  1  0
 25 42  1  0
 26 43  1  0
M  END
>  <smiles>  (40) 
O=c1c2ccccc2nc(/C=C/c2cccnc2)n1Cc1ccccc1

>  <score_type>  (40) 
oracle

>  <origin>  (40) 
autodockgpu

>  <m_score__min__energy>  (40) 
-7.3499999999999996

>  <m_primary>  (40) 
energy

>  <rmsd>  (40) 
12.917774108971328

>  <m_score__min__rmsd>  (40) 
12.917774108971328

>  <meeko>  (40) 
{"free_energy": -6.85, "intermolecular_energy": -8.34, "internal_energy": -1.49, "cluster_size": 5, "cluster_id": 1, "rank_in_cluster": 5}

>  <energy>  (40) 
-6.89

>  <cluster_rmsd>  (40) 
0.0

>  <cluster>  (40) 
6

$$$$

     RDKit          3D

 43 46  0  0  0  0  0  0  0  0999 V2000
  139.8500   74.9140  221.9790 O   0  0  0  0  0  0  0  0  0  0  0  0
  140.4750   75.7240  221.2750 C   0  0  0  0  0  0  0  0  0  0  0  0
  141.7410   75.3120  220.8450 C   0  0  0  0  0  0  0  0  0  0  0  0
  142.2300   74.0740  221.2010 C   0  0  0  0  0  0  0  0  0  0  0  0
  143.4800   73.6670  220.7770 C   0  0  0  0  0  0  0  0  0  0  0  0
  144.2640   74.4920  219.9880 C   0  0  0  0  0  0  0  0  0  0  0  0
  143.7570   75.7240  219.6430 C   0  0  0  0  0  0  0  0  0  0  0  0
  142.5090   76.1470  220.0590 C   0  0  0  0  0  0  0  0  0  0  0  0
  142.0030   77.3300  219.7380 N   0  0  0  0  0  0  0  0  0  0  0  0
  140.7840   77.7140  220.1580 C   0  0  0  0  0  0  0  0  0  0  0  0
  140.3550   79.0590  219.7520 C   0  0  0  0  0  0  0  0  0  0  0  0
  141.1070   80.1110  220.0080 C   0  0  0  0  0  0  0  0  0  0  0  0
  141.6210   80.4620  221.3230 C   0  0  0  0  0  0  0  0  0  0  0  0
  142.4510   79.5990  222.0160 C   0  0  0  0  0  0  0  0  0  0  0  0
  142.9610   79.8860  223.2590 C   0  0  0  0  0  0  0  0  0  0  0  0
  142.6250   81.1070  223.8510 C   0  0  0  0  0  0  0  0  0  0  0  0
  141.8200   81.9470  223.1770 N   0  0  0  0  0  0  0  0  0  0  0  0
  141.3260   81.6560  221.9600 C   0  0  0  0  0  0  0  0  0  0  0  0
  139.9850   76.9500  220.9240 N   0  0  0  0  0  0  0  0  0  0  0  0
  138.6740   77.3330  221.3540 C   0  0  0  0  0  0  0  0  0  0  0  0
  138.6110   78.4680  222.2780 C   0  0  0  0  0  0  0  0  0  0  0  0
  139.6180   78.6100  223.2360 C   0  0  0  0  0  0  0  0  0  0  0  0
  139.6120   79.6650  224.1430 C   0  0  0  0  0  0  0  0  0  0  0  0
  138.6240   80.6120  224.1410 C   0  0  0  0  0  0  0  0  0  0  0  0
  137.6240   80.4880  223.2020 C   0  0  0  0  0  0  0  0  0  0  0  0
  137.6320   79.4330  222.2970 C   0  0  0  0  0  0  0  0  0  0  0  0
  141.6209   73.4053  221.8270 H   0  0  0  0  0  0  0  0  0  0  0  0
  143.8571   72.6759  221.0695 H   0  0  0  0  0  0  0  0  0  0  0  0
  145.2602   74.1727  219.6479 H   0  0  0  0  0  0  0  0  0  0  0  0
  144.3645   76.3933  219.0162 H   0  0  0  0  0  0  0  0  0  0  0  0
  139.3962   79.1897  219.2289 H   0  0  0  0  0  0  0  0  0  0  0  0
  141.3645   80.7711  219.1666 H   0  0  0  0  0  0  0  0  0  0  0  0
  142.7149   78.6382  221.5500 H   0  0  0  0  0  0  0  0  0  0  0  0
  143.6184   79.1717  223.7763 H   0  0  0  0  0  0  0  0  0  0  0  0
  143.0105   81.3746  224.8459 H   0  0  0  0  0  0  0  0  0  0  0  0
  140.6717   82.3842  221.4585 H   0  0  0  0  0  0  0  0  0  0  0  0
  138.0884   77.5931  220.4599 H   0  0  0  0  0  0  0  0  0  0  0  0
  138.2799   76.4714  221.9128 H   0  0  0  0  0  0  0  0  0  0  0  0
  140.4329   77.8721  223.2739 H   0  0  0  0  0  0  0  0  0  0  0  0
  140.4235   79.7400  224.8818 H   0  0  0  0  0  0  0  0  0  0  0  0
  138.6283   81.4419  224.8630 H   0  0  0  0  0  0  0  0  0  0  0  0
  136.8125   81.2298  223.1680 H   0  0  0  0  0  0  0  0  0  0  0  0
  136.8167   79.3671  221.5615 H   0  0  0  0  0  0  0  0  0  0  0  0
  1  2  2  0
  2  3  1  0
  3  4  2  0
  4  5  1  0
  5  6  2  0
  6  7  1  0
  7  8  2  0
  8  9  1  0
  9 10  2  0
 10 11  1  0
 11 12  2  0
 12 13  1  0
 13 14  2  0
 14 15  1  0
 15 16  2  0
 16 17  1  0
 17 18  2  0
 10 19  1  0
 19 20  1  0
 20 21  1  0
 21 22  2  0
 22 23  1  0
 23 24  2  0
 24 25  1  0
 25 26  2  0
 19  2  1  0
 26 21  1  0
  8  3  1  0
 18 13  1  0
  4 27  1  0
  5 28  1  0
  6 29  1  0
  7 30  1  0
 11 31  1  0
 12 32  1  0
 14 33  1  0
 15 34  1  0
 16 35  1  0
 18 36  1  0
 20 37  1  0
 20 38  1  0
 22 39  1  0
 23 40  1  0
 24 41  1  0
 25 42  1  0
 26 43  1  0
M  END
>  <smiles>  (41) 
O=c1c2ccccc2nc(/C=C/c2cccnc2)n1Cc1ccccc1

>  <score_type>  (41) 
oracle

>  <origin>  (41) 
autodockgpu

>  <m_score__min__energy>  (41) 
-7.3499999999999996

>  <m_primary>  (41) 
energy

>  <rmsd>  (41) 
4.384851218022742

>  <m_score__min__rmsd>  (41) 
4.384851218022742

>  <meeko>  (41) 
{"free_energy": -6.44, "intermolecular_energy": -7.93, "internal_energy": -2.02, "cluster_size": 10, "cluster_id": 6, "rank_in_cluster": 9}

>  <energy>  (41) 
-6.74

>  <cluster_rmsd>  (41) 
0.38

>  <cluster>  (41) 
6

$$$$

     RDKit          3D

 43 46  0  0  0  0  0  0  0  0999 V2000
  140.1500   71.8770  225.1290 O   0  0  0  0  0  0  0  0  0  0  0  0
  139.5940   70.7680  225.0870 C   0  0  0  0  0  0  0  0  0  0  0  0
  139.9010   69.8900  226.1330 C   0  0  0  0  0  0  0  0  0  0  0  0
  140.7720   70.2700  227.1310 C   0  0  0  0  0  0  0  0  0  0  0  0
  141.0750   69.4040  228.1630 C   0  0  0  0  0  0  0  0  0  0  0  0
  140.5110   68.1400  228.2160 C   0  0  0  0  0  0  0  0  0  0  0  0
  139.6430   67.7800  227.2090 C   0  0  0  0  0  0  0  0  0  0  0  0
  139.3300   68.6340  226.1700 C   0  0  0  0  0  0  0  0  0  0  0  0
  138.4970   68.3050  225.1910 N   0  0  0  0  0  0  0  0  0  0  0  0
  138.2110   69.1590  224.1920 C   0  0  0  0  0  0  0  0  0  0  0  0
  137.2940   68.6600  223.1590 C   0  0  0  0  0  0  0  0  0  0  0  0
  136.0010   68.9080  223.2300 C   0  0  0  0  0  0  0  0  0  0  0  0
  135.3160   69.4040  224.4130 C   0  0  0  0  0  0  0  0  0  0  0  0
  135.2460   70.7610  224.6780 C   0  0  0  0  0  0  0  0  0  0  0  0
  134.6110   71.2780  225.7820 C   0  0  0  0  0  0  0  0  0  0  0  0
  134.0070   70.3910  226.6780 C   0  0  0  0  0  0  0  0  0  0  0  0
  134.0740   69.0730  226.4200 N   0  0  0  0  0  0  0  0  0  0  0  0
  134.6990   68.5780  225.3380 C   0  0  0  0  0  0  0  0  0  0  0  0
  138.7310   70.3960  224.0960 N   0  0  0  0  0  0  0  0  0  0  0  0
  138.4120   71.3260  223.0550 C   0  0  0  0  0  0  0  0  0  0  0  0
  139.5570   71.9510  222.3860 C   0  0  0  0  0  0  0  0  0  0  0  0
  139.5680   73.3400  222.2320 C   0  0  0  0  0  0  0  0  0  0  0  0
  140.6240   73.9900  221.6040 C   0  0  0  0  0  0  0  0  0  0  0  0
  141.7000   73.3060  221.1070 C   0  0  0  0  0  0  0  0  0  0  0  0
  141.7050   71.9360  221.2510 C   0  0  0  0  0  0  0  0  0  0  0  0
  140.6490   71.2880  221.8790 C   0  0  0  0  0  0  0  0  0  0  0  0
  141.2291   71.2702  227.1054 H   0  0  0  0  0  0  0  0  0  0  0  0
  141.7724   69.7216  228.9522 H   0  0  0  0  0  0  0  0  0  0  0  0
  140.7486   67.4461  229.0358 H   0  0  0  0  0  0  0  0  0  0  0  0
  139.1845   66.7804  227.2332 H   0  0  0  0  0  0  0  0  0  0  0  0
  137.6901   68.0732  222.3172 H   0  0  0  0  0  0  0  0  0  0  0  0
  135.3966   68.7265  222.3290 H   0  0  0  0  0  0  0  0  0  0  0  0
  135.7208   71.4582  223.9720 H   0  0  0  0  0  0  0  0  0  0  0  0
  134.5788   72.3636  225.9563 H   0  0  0  0  0  0  0  0  0  0  0  0
  133.4885   70.7629  227.5740 H   0  0  0  0  0  0  0  0  0  0  0  0
  134.7211   67.4892  225.1831 H   0  0  0  0  0  0  0  0  0  0  0  0
  137.8260   70.7916  222.2927 H   0  0  0  0  0  0  0  0  0  0  0  0
  137.8666   72.1467  223.5439 H   0  0  0  0  0  0  0  0  0  0  0  0
  138.7234   73.9311  222.6157 H   0  0  0  0  0  0  0  0  0  0  0  0
  140.5939   75.0850  221.5037 H   0  0  0  0  0  0  0  0  0  0  0  0
  142.5299   73.8306  220.6110 H   0  0  0  0  0  0  0  0  0  0  0  0
  142.5525   71.3502  220.8654 H   0  0  0  0  0  0  0  0  0  0  0  0
  140.6885   70.1929  221.9750 H   0  0  0  0  0  0  0  0  0  0  0  0
  1  2  2  0
  2  3  1  0
  3  4  2  0
  4  5  1  0
  5  6  2  0
  6  7  1  0
  7  8  2  0
  8  9  1  0
  9 10  2  0
 10 11  1  0
 11 12  2  0
 12 13  1  0
 13 14  2  0
 14 15  1  0
 15 16  2  0
 16 17  1  0
 17 18  2  0
 10 19  1  0
 19 20  1  0
 20 21  1  0
 21 22  2  0
 22 23  1  0
 23 24  2  0
 24 25  1  0
 25 26  2  0
 19  2  1  0
 26 21  1  0
  8  3  1  0
 18 13  1  0
  4 27  1  0
  5 28  1  0
  6 29  1  0
  7 30  1  0
 11 31  1  0
 12 32  1  0
 14 33  1  0
 15 34  1  0
 16 35  1  0
 18 36  1  0
 20 37  1  0
 20 38  1  0
 22 39  1  0
 23 40  1  0
 24 41  1  0
 25 42  1  0
 26 43  1  0
M  END
>  <smiles>  (42) 
O=c1c2ccccc2nc(/C=C/c2cccnc2)n1Cc1ccccc1

>  <score_type>  (42) 
oracle

>  <origin>  (42) 
autodockgpu

>  <m_score__min__energy>  (42) 
-7.3499999999999996

>  <m_primary>  (42) 
energy

>  <rmsd>  (42) 
10.1464733984787

>  <m_score__min__rmsd>  (42) 
10.1464733984787

>  <meeko>  (42) 
{"free_energy": -7.12, "intermolecular_energy": -8.61, "internal_energy": -1.47, "cluster_size": 23, "cluster_id": 3, "rank_in_cluster": 5}

>  <energy>  (42) 
-6.7

>  <cluster_rmsd>  (42) 
0.2

>  <cluster>  (42) 
6

$$$$

     RDKit          3D

 43 46  0  0  0  0  0  0  0  0999 V2000
  140.3670   71.9170  225.1820 O   0  0  0  0  0  0  0  0  0  0  0  0
  139.7430   70.8430  225.1750 C   0  0  0  0  0  0  0  0  0  0  0  0
  140.0400   69.9560  226.2160 C   0  0  0  0  0  0  0  0  0  0  0  0
  140.9750   70.2900  227.1720 C   0  0  0  0  0  0  0  0  0  0  0  0
  141.2680   69.4140  228.1990 C   0  0  0  0  0  0  0  0  0  0  0  0
  140.6310   68.1870  228.2880 C   0  0  0  0  0  0  0  0  0  0  0  0
  139.7000   67.8740  227.3240 C   0  0  0  0  0  0  0  0  0  0  0  0
  139.3950   68.7380  226.2900 C   0  0  0  0  0  0  0  0  0  0  0  0
  138.5030   68.4540  225.3510 N   0  0  0  0  0  0  0  0  0  0  0  0
  138.2270   69.3160  224.3560 C   0  0  0  0  0  0  0  0  0  0  0  0
  137.2370   68.8660  223.3690 C   0  0  0  0  0  0  0  0  0  0  0  0
  136.0260   69.3890  223.3420 C   0  0  0  0  0  0  0  0  0  0  0  0
  135.2500   69.7410  224.5210 C   0  0  0  0  0  0  0  0  0  0  0  0
  135.0410   71.0650  224.8650 C   0  0  0  0  0  0  0  0  0  0  0  0
  134.3150   71.4460  225.9680 C   0  0  0  0  0  0  0  0  0  0  0  0
  133.7620   70.4510  226.7780 C   0  0  0  0  0  0  0  0  0  0  0  0
  133.9640   69.1640  226.4420 N   0  0  0  0  0  0  0  0  0  0  0  0
  134.6770   68.8010  225.3610 C   0  0  0  0  0  0  0  0  0  0  0  0
  138.8160   70.5180  224.2260 N   0  0  0  0  0  0  0  0  0  0  0  0
  138.5110   71.4580  223.1900 C   0  0  0  0  0  0  0  0  0  0  0  0
  139.6520   71.9370  222.4060 C   0  0  0  0  0  0  0  0  0  0  0  0
  139.8740   73.3140  222.3150 C   0  0  0  0  0  0  0  0  0  0  0  0
  140.9380   73.8290  221.5840 C   0  0  0  0  0  0  0  0  0  0  0  0
  141.8180   73.0170  220.9200 C   0  0  0  0  0  0  0  0  0  0  0  0
  141.6150   71.6570  221.0000 C   0  0  0  0  0  0  0  0  0  0  0  0
  140.5500   71.1440  221.7320 C   0  0  0  0  0  0  0  0  0  0  0  0
  141.4910   71.2599  227.1168 H   0  0  0  0  0  0  0  0  0  0  0  0
  142.0161   69.6940  228.9553 H   0  0  0  0  0  0  0  0  0  0  0  0
  140.8619   67.4854  229.1031 H   0  0  0  0  0  0  0  0  0  0  0  0
  139.1822   66.9050  227.3785 H   0  0  0  0  0  0  0  0  0  0  0  0
  137.5081   68.0842  222.6442 H   0  0  0  0  0  0  0  0  0  0  0  0
  135.5706   69.5719  222.3576 H   0  0  0  0  0  0  0  0  0  0  0  0
  135.4757   71.8482  224.2266 H   0  0  0  0  0  0  0  0  0  0  0  0
  134.1726   72.5101  226.2076 H   0  0  0  0  0  0  0  0  0  0  0  0
  133.1748   70.7139  227.6702 H   0  0  0  0  0  0  0  0  0  0  0  0
  134.8082   67.7317  225.1387 H   0  0  0  0  0  0  0  0  0  0  0  0
  137.8033   70.9788  222.4975 H   0  0  0  0  0  0  0  0  0  0  0  0
  138.1072   72.3444  223.7011 H   0  0  0  0  0  0  0  0  0  0  0  0
  139.1922   74.0047  222.8329 H   0  0  0  0  0  0  0  0  0  0  0  0
  141.0770   74.9192  221.5376 H   0  0  0  0  0  0  0  0  0  0  0  0
  142.6564   73.4354  220.3438 H   0  0  0  0  0  0  0  0  0  0  0  0
  142.3008   70.9714  220.4807 H   0  0  0  0  0  0  0  0  0  0  0  0
  140.4200   70.0525  221.7737 H   0  0  0  0  0  0  0  0  0  0  0  0
  1  2  2  0
  2  3  1  0
  3  4  2  0
  4  5  1  0
  5  6  2  0
  6  7  1  0
  7  8  2  0
  8  9  1  0
  9 10  2  0
 10 11  1  0
 11 12  2  0
 12 13  1  0
 13 14  2  0
 14 15  1  0
 15 16  2  0
 16 17  1  0
 17 18  2  0
 10 19  1  0
 19 20  1  0
 20 21  1  0
 21 22  2  0
 22 23  1  0
 23 24  2  0
 24 25  1  0
 25 26  2  0
 19  2  1  0
 26 21  1  0
  8  3  1  0
 18 13  1  0
  4 27  1  0
  5 28  1  0
  6 29  1  0
  7 30  1  0
 11 31  1  0
 12 32  1  0
 14 33  1  0
 15 34  1  0
 16 35  1  0
 18 36  1  0
 20 37  1  0
 20 38  1  0
 22 39  1  0
 23 40  1  0
 24 41  1  0
 25 42  1  0
 26 43  1  0
M  END
>  <smiles>  (43) 
O=c1c2ccccc2nc(/C=C/c2cccnc2)n1Cc1ccccc1

>  <score_type>  (43) 
oracle

>  <origin>  (43) 
autodockgpu

>  <m_score__min__energy>  (43) 
-7.3499999999999996

>  <m_primary>  (43) 
energy

>  <rmsd>  (43) 
10.22278705170635

>  <m_score__min__rmsd>  (43) 
10.22278705170635

>  <meeko>  (43) 
{"free_energy": -7.19, "intermolecular_energy": -8.68, "internal_energy": -1.38, "cluster_size": 23, "cluster_id": 3, "rank_in_cluster": 2}

>  <energy>  (43) 
-6.66

>  <cluster_rmsd>  (43) 
0.27

>  <cluster>  (43) 
6

$$$$

     RDKit          3D

 43 46  0  0  0  0  0  0  0  0999 V2000
  140.2370   71.8840  225.1110 O   0  0  0  0  0  0  0  0  0  0  0  0
  139.6330   70.7990  225.0910 C   0  0  0  0  0  0  0  0  0  0  0  0
  139.9290   69.9140  226.1340 C   0  0  0  0  0  0  0  0  0  0  0  0
  140.8420   70.2630  227.1060 C   0  0  0  0  0  0  0  0  0  0  0  0
  141.1360   69.3900  228.1350 C   0  0  0  0  0  0  0  0  0  0  0  0
  140.5200   68.1510  228.2110 C   0  0  0  0  0  0  0  0  0  0  0  0
  139.6110   67.8230  227.2310 C   0  0  0  0  0  0  0  0  0  0  0  0
  139.3070   68.6850  226.1950 C   0  0  0  0  0  0  0  0  0  0  0  0
  138.4350   68.3870  225.2400 N   0  0  0  0  0  0  0  0  0  0  0  0
  138.1590   69.2470  224.2430 C   0  0  0  0  0  0  0  0  0  0  0  0
  137.1930   68.7820  223.2390 C   0  0  0  0  0  0  0  0  0  0  0  0
  135.9460   69.2100  223.2550 C   0  0  0  0  0  0  0  0  0  0  0  0
  135.2190   69.5990  224.4530 C   0  0  0  0  0  0  0  0  0  0  0  0
  135.0410   70.9330  224.7740 C   0  0  0  0  0  0  0  0  0  0  0  0
  134.3610   71.3500  225.8940 C   0  0  0  0  0  0  0  0  0  0  0  0
  133.8260   70.3810  226.7470 C   0  0  0  0  0  0  0  0  0  0  0  0
  133.9980   69.0840  226.4340 N   0  0  0  0  0  0  0  0  0  0  0  0
  134.6650   68.6870  225.3360 C   0  0  0  0  0  0  0  0  0  0  0  0
  138.7280   70.4590  224.1260 N   0  0  0  0  0  0  0  0  0  0  0  0
  138.4220   71.3970  223.0870 C   0  0  0  0  0  0  0  0  0  0  0  0
  139.5740   71.9820  222.3960 C   0  0  0  0  0  0  0  0  0  0  0  0
  139.6120   73.3660  222.2090 C   0  0  0  0  0  0  0  0  0  0  0  0
  140.6770   73.9800  221.5590 C   0  0  0  0  0  0  0  0  0  0  0  0
  141.7350   73.2610  221.0710 C   0  0  0  0  0  0  0  0  0  0  0  0
  141.7140   71.8960  221.2480 C   0  0  0  0  0  0  0  0  0  0  0  0
  140.6480   71.2840  221.8990 C   0  0  0  0  0  0  0  0  0  0  0  0
  141.3395   71.2430  227.0618 H   0  0  0  0  0  0  0  0  0  0  0  0
  141.8675   69.6815  228.9030 H   0  0  0  0  0  0  0  0  0  0  0  0
  140.7502   67.4519  229.0285 H   0  0  0  0  0  0  0  0  0  0  0  0
  139.1110   66.8441  227.2740 H   0  0  0  0  0  0  0  0  0  0  0  0
  137.5134   68.0688  222.4652 H   0  0  0  0  0  0  0  0  0  0  0  0
  135.4174   69.2777  222.2927 H   0  0  0  0  0  0  0  0  0  0  0  0
  135.4629   71.6951  224.1023 H   0  0  0  0  0  0  0  0  0  0  0  0
  134.2409   72.4212  226.1134 H   0  0  0  0  0  0  0  0  0  0  0  0
  133.2764   70.6723  227.6542 H   0  0  0  0  0  0  0  0  0  0  0  0
  134.7733   67.6111  225.1340 H   0  0  0  0  0  0  0  0  0  0  0  0
  137.8053   70.8803  222.3369 H   0  0  0  0  0  0  0  0  0  0  0  0
  137.9134   72.2368  223.5832 H   0  0  0  0  0  0  0  0  0  0  0  0
  138.7820   73.9830  222.5838 H   0  0  0  0  0  0  0  0  0  0  0  0
  140.6692   75.0728  221.4335 H   0  0  0  0  0  0  0  0  0  0  0  0
  142.5715   73.7561  220.5561 H   0  0  0  0  0  0  0  0  0  0  0  0
  142.5471   71.2842  220.8715 H   0  0  0  0  0  0  0  0  0  0  0  0
  140.6656   70.1910  222.0216 H   0  0  0  0  0  0  0  0  0  0  0  0
  1  2  2  0
  2  3  1  0
  3  4  2  0
  4  5  1  0
  5  6  2  0
  6  7  1  0
  7  8  2  0
  8  9  1  0
  9 10  2  0
 10 11  1  0
 11 12  2  0
 12 13  1  0
 13 14  2  0
 14 15  1  0
 15 16  2  0
 16 17  1  0
 17 18  2  0
 10 19  1  0
 19 20  1  0
 20 21  1  0
 21 22  2  0
 22 23  1  0
 23 24  2  0
 24 25  1  0
 25 26  2  0
 19  2  1  0
 26 21  1  0
  8  3  1  0
 18 13  1  0
  4 27  1  0
  5 28  1  0
  6 29  1  0
  7 30  1  0
 11 31  1  0
 12 32  1  0
 14 33  1  0
 15 34  1  0
 16 35  1  0
 18 36  1  0
 20 37  1  0
 20 38  1  0
 22 39  1  0
 23 40  1  0
 24 41  1  0
 25 42  1  0
 26 43  1  0
M  END
>  <smiles>  (44) 
O=c1c2ccccc2nc(/C=C/c2cccnc2)n1Cc1ccccc1

>  <score_type>  (44) 
oracle

>  <origin>  (44) 
autodockgpu

>  <m_score__min__energy>  (44) 
-7.3499999999999996

>  <m_primary>  (44) 
energy

>  <rmsd>  (44) 
10.142369761865003

>  <m_score__min__rmsd>  (44) 
10.142369761865003

>  <meeko>  (44) 
{"free_energy": -7.21, "intermolecular_energy": -8.7, "internal_energy": -1.39, "cluster_size": 23, "cluster_id": 3, "rank_in_cluster": 1}

>  <energy>  (44) 
-6.65

>  <cluster_rmsd>  (44) 
0.32

>  <cluster>  (44) 
6

$$$$

     RDKit          3D

 43 46  0  0  0  0  0  0  0  0999 V2000
  139.9800   74.4280  221.8480 O   0  0  0  0  0  0  0  0  0  0  0  0
  140.6830   75.2210  221.2010 C   0  0  0  0  0  0  0  0  0  0  0  0
  141.9510   74.7550  220.8320 C   0  0  0  0  0  0  0  0  0  0  0  0
  142.3570   73.4860  221.1850 C   0  0  0  0  0  0  0  0  0  0  0  0
  143.6080   73.0260  220.8210 C   0  0  0  0  0  0  0  0  0  0  0  0
  144.4750   73.8280  220.0970 C   0  0  0  0  0  0  0  0  0  0  0  0
  144.0490   75.0910  219.7540 C   0  0  0  0  0  0  0  0  0  0  0  0
  142.8020   75.5670  220.1100 C   0  0  0  0  0  0  0  0  0  0  0  0
  142.3730   76.7810  219.7910 N   0  0  0  0  0  0  0  0  0  0  0  0
  141.1530   77.2160  220.1510 C   0  0  0  0  0  0  0  0  0  0  0  0
  140.8140   78.5890  219.7550 C   0  0  0  0  0  0  0  0  0  0  0  0
  141.6470   79.5830  219.9910 C   0  0  0  0  0  0  0  0  0  0  0  0
  141.8310   80.2190  221.2860 C   0  0  0  0  0  0  0  0  0  0  0  0
  142.5920   79.6160  222.2730 C   0  0  0  0  0  0  0  0  0  0  0  0
  142.7950   80.1780  223.5110 C   0  0  0  0  0  0  0  0  0  0  0  0
  142.2070   81.4150  223.7850 C   0  0  0  0  0  0  0  0  0  0  0  0
  141.4680   82.0020  222.8260 N   0  0  0  0  0  0  0  0  0  0  0  0
  141.2750   81.4440  221.6180 C   0  0  0  0  0  0  0  0  0  0  0  0
  140.2750   76.4770  220.8520 N   0  0  0  0  0  0  0  0  0  0  0  0
  138.9620   76.9160  221.2170 C   0  0  0  0  0  0  0  0  0  0  0  0
  138.9020   78.0370  222.1590 C   0  0  0  0  0  0  0  0  0  0  0  0
  137.8260   78.9240  222.0800 C   0  0  0  0  0  0  0  0  0  0  0  0
  137.7160   80.0080  222.9440 C   0  0  0  0  0  0  0  0  0  0  0  0
  138.6520   80.2590  223.9110 C   0  0  0  0  0  0  0  0  0  0  0  0
  139.7190   79.3930  224.0040 C   0  0  0  0  0  0  0  0  0  0  0  0
  139.8270   78.3100  223.1390 C   0  0  0  0  0  0  0  0  0  0  0  0
  141.6812   72.8357  221.7598 H   0  0  0  0  0  0  0  0  0  0  0  0
  143.9191   72.0111  221.1095 H   0  0  0  0  0  0  0  0  0  0  0  0
  145.4723   73.4669  219.8055 H   0  0  0  0  0  0  0  0  0  0  0  0
  144.7230   75.7422  219.1780 H   0  0  0  0  0  0  0  0  0  0  0  0
  139.8545   78.7901  219.2560 H   0  0  0  0  0  0  0  0  0  0  0  0
  142.2459   79.9584  219.1481 H   0  0  0  0  0  0  0  0  0  0  0  0
  143.0556   78.6422  222.0565 H   0  0  0  0  0  0  0  0  0  0  0  0
  143.4063   79.6654  224.2683 H   0  0  0  0  0  0  0  0  0  0  0  0
  142.3451   81.8986  224.7633 H   0  0  0  0  0  0  0  0  0  0  0  0
  140.6604   81.9731  220.8748 H   0  0  0  0  0  0  0  0  0  0  0  0
  138.4402   77.2198  220.2975 H   0  0  0  0  0  0  0  0  0  0  0  0
  138.4966   76.0651  221.7360 H   0  0  0  0  0  0  0  0  0  0  0  0
  137.0492   78.7617  221.3183 H   0  0  0  0  0  0  0  0  0  0  0  0
  136.8526   80.6828  222.8478 H   0  0  0  0  0  0  0  0  0  0  0  0
  138.5555   81.1202  224.5885 H   0  0  0  0  0  0  0  0  0  0  0  0
  140.4919   79.5596  224.7688 H   0  0  0  0  0  0  0  0  0  0  0  0
  140.6931   77.6400  223.2435 H   0  0  0  0  0  0  0  0  0  0  0  0
  1  2  2  0
  2  3  1  0
  3  4  2  0
  4  5  1  0
  5  6  2  0
  6  7  1  0
  7  8  2  0
  8  9  1  0
  9 10  2  0
 10 11  1  0
 11 12  2  0
 12 13  1  0
 13 14  2  0
 14 15  1  0
 15 16  2  0
 16 17  1  0
 17 18  2  0
 10 19  1  0
 19 20  1  0
 20 21  1  0
 21 22  2  0
 22 23  1  0
 23 24  2  0
 24 25  1  0
 25 26  2  0
 19  2  1  0
 26 21  1  0
  8  3  1  0
 18 13  1  0
  4 27  1  0
  5 28  1  0
  6 29  1  0
  7 30  1  0
 11 31  1  0
 12 32  1  0
 14 33  1  0
 15 34  1  0
 16 35  1  0
 18 36  1  0
 20 37  1  0
 20 38  1  0
 22 39  1  0
 23 40  1  0
 24 41  1  0
 25 42  1  0
 26 43  1  0
M  END
>  <smiles>  (45) 
O=c1c2ccccc2nc(/C=C/c2cccnc2)n1Cc1ccccc1

>  <score_type>  (45) 
oracle

>  <origin>  (45) 
autodockgpu

>  <m_score__min__energy>  (45) 
-7.3499999999999996

>  <m_primary>  (45) 
energy

>  <rmsd>  (45) 
4.473430100047947

>  <m_score__min__rmsd>  (45) 
4.473430100047947

>  <meeko>  (45) 
{"free_energy": -6.7, "intermolecular_energy": -8.19, "internal_energy": -1.84, "cluster_size": 10, "cluster_id": 6, "rank_in_cluster": 3}

>  <energy>  (45) 
-6.51

>  <cluster_rmsd>  (45) 
0.65

>  <cluster>  (45) 
6

$$$$

     RDKit          3D

 43 46  0  0  0  0  0  0  0  0999 V2000
  140.3070   71.8930  225.0940 O   0  0  0  0  0  0  0  0  0  0  0  0
  139.6960   70.8130  225.0440 C   0  0  0  0  0  0  0  0  0  0  0  0
  139.9440   69.9200  226.0920 C   0  0  0  0  0  0  0  0  0  0  0  0
  140.8220   70.2550  227.1010 C   0  0  0  0  0  0  0  0  0  0  0  0
  141.0680   69.3730  228.1360 C   0  0  0  0  0  0  0  0  0  0  0  0
  140.4400   68.1400  228.1800 C   0  0  0  0  0  0  0  0  0  0  0  0
  139.5670   67.8250  227.1630 C   0  0  0  0  0  0  0  0  0  0  0  0
  139.3100   68.6950  226.1210 C   0  0  0  0  0  0  0  0  0  0  0  0
  138.4730   68.4100  225.1320 N   0  0  0  0  0  0  0  0  0  0  0  0
  138.2430   69.2780  224.1310 C   0  0  0  0  0  0  0  0  0  0  0  0
  137.3140   68.8270  223.0870 C   0  0  0  0  0  0  0  0  0  0  0  0
  136.0230   68.7170  223.3360 C   0  0  0  0  0  0  0  0  0  0  0  0
  135.3400   69.3410  224.4580 C   0  0  0  0  0  0  0  0  0  0  0  0
  135.3100   70.7180  224.5960 C   0  0  0  0  0  0  0  0  0  0  0  0
  134.6780   71.3530  225.6370 C   0  0  0  0  0  0  0  0  0  0  0  0
  134.0350   70.5730  226.6020 C   0  0  0  0  0  0  0  0  0  0  0  0
  134.0630   69.2340  226.4670 N   0  0  0  0  0  0  0  0  0  0  0  0
  134.6850   68.6230  225.4450 C   0  0  0  0  0  0  0  0  0  0  0  0
  138.8260   70.4870  224.0430 N   0  0  0  0  0  0  0  0  0  0  0  0
  138.5680   71.4330  222.9990 C   0  0  0  0  0  0  0  0  0  0  0  0
  139.7210   71.8010  222.1730 C   0  0  0  0  0  0  0  0  0  0  0  0
  140.3150   70.8210  221.3740 C   0  0  0  0  0  0  0  0  0  0  0  0
  141.4130   71.1100  220.5710 C   0  0  0  0  0  0  0  0  0  0  0  0
  141.9630   72.3620  220.5230 C   0  0  0  0  0  0  0  0  0  0  0  0
  141.3890   73.3400  221.3040 C   0  0  0  0  0  0  0  0  0  0  0  0
  140.2910   73.0500  222.1060 C   0  0  0  0  0  0  0  0  0  0  0  0
  141.3299   71.2305  227.0820 H   0  0  0  0  0  0  0  0  0  0  0  0
  141.7709   69.6539  228.9341 H   0  0  0  0  0  0  0  0  0  0  0  0
  140.6324   67.4343  229.0015 H   0  0  0  0  0  0  0  0  0  0  0  0
  139.0581   66.8499  227.1807 H   0  0  0  0  0  0  0  0  0  0  0  0
  137.6985   68.5783  222.0869 H   0  0  0  0  0  0  0  0  0  0  0  0
  135.4199   68.1096  222.6452 H   0  0  0  0  0  0  0  0  0  0  0  0
  135.8159   71.3323  223.8366 H   0  0  0  0  0  0  0  0  0  0  0  0
  134.6779   72.4506  225.7095 H   0  0  0  0  0  0  0  0  0  0  0  0
  133.5181   71.0423  227.4520 H   0  0  0  0  0  0  0  0  0  0  0  0
  134.6739   67.5244  225.3906 H   0  0  0  0  0  0  0  0  0  0  0  0
  137.8015   71.0042  222.3368 H   0  0  0  0  0  0  0  0  0  0  0  0
  138.2552   72.3584  223.5048 H   0  0  0  0  0  0  0  0  0  0  0  0
  139.9059   69.7999  221.3802 H   0  0  0  0  0  0  0  0  0  0  0  0
  141.8517   70.3096  219.9571 H   0  0  0  0  0  0  0  0  0  0  0  0
  142.8317   72.5792  219.8840 H   0  0  0  0  0  0  0  0  0  0  0  0
  141.8026   74.3592  221.2933 H   0  0  0  0  0  0  0  0  0  0  0  0
  139.8584   73.8574  222.7151 H   0  0  0  0  0  0  0  0  0  0  0  0
  1  2  2  0
  2  3  1  0
  3  4  2  0
  4  5  1  0
  5  6  2  0
  6  7  1  0
  7  8  2  0
  8  9  1  0
  9 10  2  0
 10 11  1  0
 11 12  2  0
 12 13  1  0
 13 14  2  0
 14 15  1  0
 15 16  2  0
 16 17  1  0
 17 18  2  0
 10 19  1  0
 19 20  1  0
 20 21  1  0
 21 22  2  0
 22 23  1  0
 23 24  2  0
 24 25  1  0
 25 26  2  0
 19  2  1  0
 26 21  1  0
  8  3  1  0
 18 13  1  0
  4 27  1  0
  5 28  1  0
  6 29  1  0
  7 30  1  0
 11 31  1  0
 12 32  1  0
 14 33  1  0
 15 34  1  0
 16 35  1  0
 18 36  1  0
 20 37  1  0
 20 38  1  0
 22 39  1  0
 23 40  1  0
 24 41  1  0
 25 42  1  0
 26 43  1  0
M  END
>  <smiles>  (46) 
O=c1c2ccccc2nc(/C=C/c2cccnc2)n1Cc1ccccc1

>  <score_type>  (46) 
oracle

>  <origin>  (46) 
autodockgpu

>  <m_score__min__energy>  (46) 
-7.3499999999999996

>  <m_primary>  (46) 
energy

>  <rmsd>  (46) 
10.261304989503556

>  <m_score__min__rmsd>  (46) 
10.261304989503556

>  <meeko>  (46) 
{"free_energy": -6.91, "intermolecular_energy": -8.4, "internal_energy": -1.5, "cluster_size": 23, "cluster_id": 3, "rank_in_cluster": 23}

>  <energy>  (46) 
-6.5

>  <cluster_rmsd>  (46) 
0.65

>  <cluster>  (46) 
6

$$$$

     RDKit          3D

 43 46  0  0  0  0  0  0  0  0999 V2000
  140.2120   71.9190  225.0300 O   0  0  0  0  0  0  0  0  0  0  0  0
  139.6240   70.8270  224.9800 C   0  0  0  0  0  0  0  0  0  0  0  0
  139.9050   69.9310  226.0170 C   0  0  0  0  0  0  0  0  0  0  0  0
  140.7880   70.2770  227.0180 C   0  0  0  0  0  0  0  0  0  0  0  0
  141.0660   69.3930  228.0420 C   0  0  0  0  0  0  0  0  0  0  0  0
  140.4660   68.1460  228.0840 C   0  0  0  0  0  0  0  0  0  0  0  0
  139.5870   67.8200  227.0760 C   0  0  0  0  0  0  0  0  0  0  0  0
  139.2980   68.6920  226.0440 C   0  0  0  0  0  0  0  0  0  0  0  0
  138.4560   68.3960  225.0630 N   0  0  0  0  0  0  0  0  0  0  0  0
  138.1940   69.2670  224.0710 C   0  0  0  0  0  0  0  0  0  0  0  0
  137.2620   68.8040  223.0360 C   0  0  0  0  0  0  0  0  0  0  0  0
  135.9650   68.7590  223.2680 C   0  0  0  0  0  0  0  0  0  0  0  0
  135.3100   69.3450  224.4280 C   0  0  0  0  0  0  0  0  0  0  0  0
  135.2720   70.7170  224.6050 C   0  0  0  0  0  0  0  0  0  0  0  0
  134.6660   71.3170  225.6830 C   0  0  0  0  0  0  0  0  0  0  0  0
  134.0610   70.5030  226.6440 C   0  0  0  0  0  0  0  0  0  0  0  0
  134.0960   69.1700  226.4710 N   0  0  0  0  0  0  0  0  0  0  0  0
  134.6920   68.5930  225.4130 C   0  0  0  0  0  0  0  0  0  0  0  0
  138.7490   70.4890  223.9860 N   0  0  0  0  0  0  0  0  0  0  0  0
  138.4580   71.4370  222.9530 C   0  0  0  0  0  0  0  0  0  0  0  0
  139.6190   72.0540  222.3080 C   0  0  0  0  0  0  0  0  0  0  0  0
  139.6390   73.4420  222.1480 C   0  0  0  0  0  0  0  0  0  0  0  0
  140.7120   74.0860  221.5410 C   0  0  0  0  0  0  0  0  0  0  0  0
  141.7960   73.3950  221.0710 C   0  0  0  0  0  0  0  0  0  0  0  0
  141.7930   72.0260  221.2210 C   0  0  0  0  0  0  0  0  0  0  0  0
  140.7190   71.3840  221.8280 C   0  0  0  0  0  0  0  0  0  0  0  0
  141.2742   71.2636  227.0008 H   0  0  0  0  0  0  0  0  0  0  0  0
  141.7725   69.6831  228.8336 H   0  0  0  0  0  0  0  0  0  0  0  0
  140.6848   67.4382  228.8971 H   0  0  0  0  0  0  0  0  0  0  0  0
  139.0993   66.8342  227.0927 H   0  0  0  0  0  0  0  0  0  0  0  0
  137.6501   68.4910  222.0555 H   0  0  0  0  0  0  0  0  0  0  0  0
  135.3324   68.2413  222.5319 H   0  0  0  0  0  0  0  0  0  0  0  0
  135.7488   71.3570  223.8480 H   0  0  0  0  0  0  0  0  0  0  0  0
  134.6575   72.4121  225.7867 H   0  0  0  0  0  0  0  0  0  0  0  0
  133.5669   70.9430  227.5228 H   0  0  0  0  0  0  0  0  0  0  0  0
  134.6887   67.4963  225.3277 H   0  0  0  0  0  0  0  0  0  0  0  0
  137.8750   70.9210  222.1760 H   0  0  0  0  0  0  0  0  0  0  0  0
  137.9183   72.2591  223.4457 H   0  0  0  0  0  0  0  0  0  0  0  0
  138.7881   74.0379  222.5098 H   0  0  0  0  0  0  0  0  0  0  0  0
  140.6888   75.1807  221.4358 H   0  0  0  0  0  0  0  0  0  0  0  0
  142.6387   73.9141  220.5910 H   0  0  0  0  0  0  0  0  0  0  0  0
  142.6470   71.4355  220.8577 H   0  0  0  0  0  0  0  0  0  0  0  0
  140.7513   70.2891  221.9287 H   0  0  0  0  0  0  0  0  0  0  0  0
  1  2  2  0
  2  3  1  0
  3  4  2  0
  4  5  1  0
  5  6  2  0
  6  7  1  0
  7  8  2  0
  8  9  1  0
  9 10  2  0
 10 11  1  0
 11 12  2  0
 12 13  1  0
 13 14  2  0
 14 15  1  0
 15 16  2  0
 16 17  1  0
 17 18  2  0
 10 19  1  0
 19 20  1  0
 20 21  1  0
 21 22  2  0
 22 23  1  0
 23 24  2  0
 24 25  1  0
 25 26  2  0
 19  2  1  0
 26 21  1  0
  8  3  1  0
 18 13  1  0
  4 27  1  0
  5 28  1  0
  6 29  1  0
  7 30  1  0
 11 31  1  0
 12 32  1  0
 14 33  1  0
 15 34  1  0
 16 35  1  0
 18 36  1  0
 20 37  1  0
 20 38  1  0
 22 39  1  0
 23 40  1  0
 24 41  1  0
 25 42  1  0
 26 43  1  0
M  END
>  <smiles>  (47) 
O=c1c2ccccc2nc(/C=C/c2cccnc2)n1Cc1ccccc1

>  <score_type>  (47) 
oracle

>  <origin>  (47) 
autodockgpu

>  <m_score__min__energy>  (47) 
-7.3499999999999996

>  <m_primary>  (47) 
energy

>  <rmsd>  (47) 
10.052547485127214

>  <m_score__min__rmsd>  (47) 
10.052547485127214

>  <meeko>  (47) 
{"free_energy": -7.07, "intermolecular_energy": -8.56, "internal_energy": -1.45, "cluster_size": 23, "cluster_id": 3, "rank_in_cluster": 11}

>  <energy>  (47) 
-6.44

>  <cluster_rmsd>  (47) 
1.65

>  <cluster>  (47) 
6

$$$$

     RDKit          3D

 43 46  0  0  0  0  0  0  0  0999 V2000
  139.9460   74.5530  221.9620 O   0  0  0  0  0  0  0  0  0  0  0  0
  140.6020   75.3670  221.2920 C   0  0  0  0  0  0  0  0  0  0  0  0
  141.8660   74.9370  220.8730 C   0  0  0  0  0  0  0  0  0  0  0  0
  142.3200   73.6780  221.2030 C   0  0  0  0  0  0  0  0  0  0  0  0
  143.5680   73.2530  220.7900 C   0  0  0  0  0  0  0  0  0  0  0  0
  144.3850   74.0810  220.0380 C   0  0  0  0  0  0  0  0  0  0  0  0
  143.9120   75.3340  219.7180 C   0  0  0  0  0  0  0  0  0  0  0  0
  142.6670   75.7740  220.1240 C   0  0  0  0  0  0  0  0  0  0  0  0
  142.1950   76.9780  219.8270 N   0  0  0  0  0  0  0  0  0  0  0  0
  140.9770   77.3780  220.2370 C   0  0  0  0  0  0  0  0  0  0  0  0
  140.5870   78.7430  219.8600 C   0  0  0  0  0  0  0  0  0  0  0  0
  141.4120   79.7550  220.0490 C   0  0  0  0  0  0  0  0  0  0  0  0
  141.7850   80.2880  221.3500 C   0  0  0  0  0  0  0  0  0  0  0  0
  142.5690   79.5510  222.2210 C   0  0  0  0  0  0  0  0  0  0  0  0
  142.9480   80.0110  223.4590 C   0  0  0  0  0  0  0  0  0  0  0  0
  142.5230   81.2820  223.8560 C   0  0  0  0  0  0  0  0  0  0  0  0
  141.7630   81.9990  223.0090 N   0  0  0  0  0  0  0  0  0  0  0  0
  141.3970   81.5390  221.8000 C   0  0  0  0  0  0  0  0  0  0  0  0
  140.1470   76.6130  220.9660 N   0  0  0  0  0  0  0  0  0  0  0  0
  138.8380   77.0150  221.3840 C   0  0  0  0  0  0  0  0  0  0  0  0
  138.7830   78.1440  222.3160 C   0  0  0  0  0  0  0  0  0  0  0  0
  137.6350   78.9390  222.3410 C   0  0  0  0  0  0  0  0  0  0  0  0
  137.5250   80.0260  223.2010 C   0  0  0  0  0  0  0  0  0  0  0  0
  138.5320   80.3700  224.0620 C   0  0  0  0  0  0  0  0  0  0  0  0
  139.6710   79.5960  224.0510 C   0  0  0  0  0  0  0  0  0  0  0  0
  139.7790   78.5090  223.1900 C   0  0  0  0  0  0  0  0  0  0  0  0
  141.6842   73.0070  221.7993 H   0  0  0  0  0  0  0  0  0  0  0  0
  143.9168   72.2457  221.0614 H   0  0  0  0  0  0  0  0  0  0  0  0
  145.3798   73.7483  219.7070 H   0  0  0  0  0  0  0  0  0  0  0  0
  144.5455   76.0058  219.1202 H   0  0  0  0  0  0  0  0  0  0  0  0
  139.5971   78.9233  219.4156 H   0  0  0  0  0  0  0  0  0  0  0  0
  141.8494   80.2300  219.1585 H   0  0  0  0  0  0  0  0  0  0  0  0
  142.9039   78.5512  221.9076 H   0  0  0  0  0  0  0  0  0  0  0  0
  143.5714   79.3934  224.1223 H   0  0  0  0  0  0  0  0  0  0  0  0
  142.8039   81.6869  224.8394 H   0  0  0  0  0  0  0  0  0  0  0  0
  140.7736   82.1723  221.1517 H   0  0  0  0  0  0  0  0  0  0  0  0
  138.2672   77.2916  220.4853 H   0  0  0  0  0  0  0  0  0  0  0  0
  138.4233   76.1560  221.9319 H   0  0  0  0  0  0  0  0  0  0  0  0
  136.8000   78.7001  221.6659 H   0  0  0  0  0  0  0  0  0  0  0  0
  136.6032   80.6261  223.1891 H   0  0  0  0  0  0  0  0  0  0  0  0
  138.4350   81.2327  224.7376 H   0  0  0  0  0  0  0  0  0  0  0  0
  140.5024   79.8395  224.7289 H   0  0  0  0  0  0  0  0  0  0  0  0
  140.7041   77.9141  223.2094 H   0  0  0  0  0  0  0  0  0  0  0  0
  1  2  2  0
  2  3  1  0
  3  4  2  0
  4  5  1  0
  5  6  2  0
  6  7  1  0
  7  8  2  0
  8  9  1  0
  9 10  2  0
 10 11  1  0
 11 12  2  0
 12 13  1  0
 13 14  2  0
 14 15  1  0
 15 16  2  0
 16 17  1  0
 17 18  2  0
 10 19  1  0
 19 20  1  0
 20 21  1  0
 21 22  2  0
 22 23  1  0
 23 24  2  0
 24 25  1  0
 25 26  2  0
 19  2  1  0
 26 21  1  0
  8  3  1  0
 18 13  1  0
  4 27  1  0
  5 28  1  0
  6 29  1  0
  7 30  1  0
 11 31  1  0
 12 32  1  0
 14 33  1  0
 15 34  1  0
 16 35  1  0
 18 36  1  0
 20 37  1  0
 20 38  1  0
 22 39  1  0
 23 40  1  0
 24 41  1  0
 25 42  1  0
 26 43  1  0
M  END
>  <smiles>  (48) 
O=c1c2ccccc2nc(/C=C/c2cccnc2)n1Cc1ccccc1

>  <score_type>  (48) 
oracle

>  <origin>  (48) 
autodockgpu

>  <m_score__min__energy>  (48) 
-7.3499999999999996

>  <m_primary>  (48) 
energy

>  <rmsd>  (48) 
4.390722447164461

>  <m_score__min__rmsd>  (48) 
4.390722447164461

>  <meeko>  (48) 
{"free_energy": -6.74, "intermolecular_energy": -8.23, "internal_energy": -1.83, "cluster_size": 10, "cluster_id": 6, "rank_in_cluster": 2}

>  <energy>  (48) 
-6.44

>  <cluster_rmsd>  (48) 
0.7

>  <cluster>  (48) 
6

$$$$

     RDKit          3D

 43 46  0  0  0  0  0  0  0  0999 V2000
  139.8640   74.8110  221.9740 O   0  0  0  0  0  0  0  0  0  0  0  0
  140.4870   75.6240  221.2710 C   0  0  0  0  0  0  0  0  0  0  0  0
  141.7420   75.2050  220.8170 C   0  0  0  0  0  0  0  0  0  0  0  0
  142.2240   73.9570  221.1510 C   0  0  0  0  0  0  0  0  0  0  0  0
  143.4640   73.5430  220.7030 C   0  0  0  0  0  0  0  0  0  0  0  0
  144.2440   74.3700  219.9120 C   0  0  0  0  0  0  0  0  0  0  0  0
  143.7440   75.6120  219.5900 C   0  0  0  0  0  0  0  0  0  0  0  0
  142.5070   76.0410  220.0300 C   0  0  0  0  0  0  0  0  0  0  0  0
  142.0080   77.2340  219.7310 N   0  0  0  0  0  0  0  0  0  0  0  0
  140.7990   77.6240  220.1740 C   0  0  0  0  0  0  0  0  0  0  0  0
  140.3780   78.9770  219.7910 C   0  0  0  0  0  0  0  0  0  0  0  0
  141.1460   80.0190  220.0430 C   0  0  0  0  0  0  0  0  0  0  0  0
  141.6320   80.3890  221.3630 C   0  0  0  0  0  0  0  0  0  0  0  0
  142.4200   79.5210  222.1000 C   0  0  0  0  0  0  0  0  0  0  0  0
  142.9020   79.8250  223.3500 C   0  0  0  0  0  0  0  0  0  0  0  0
  142.5840   81.0680  223.9020 C   0  0  0  0  0  0  0  0  0  0  0  0
  141.8200   81.9130  223.1860 N   0  0  0  0  0  0  0  0  0  0  0  0
  141.3520   81.6050  221.9640 C   0  0  0  0  0  0  0  0  0  0  0  0
  140.0040   76.8580  220.9420 N   0  0  0  0  0  0  0  0  0  0  0  0
  138.7030   77.2490  221.3960 C   0  0  0  0  0  0  0  0  0  0  0  0
  138.6630   78.3950  222.3070 C   0  0  0  0  0  0  0  0  0  0  0  0
  137.6430   79.3390  222.1550 C   0  0  0  0  0  0  0  0  0  0  0  0
  137.5540   80.4490  222.9870 C   0  0  0  0  0  0  0  0  0  0  0  0
  138.4560   80.6720  223.9920 C   0  0  0  0  0  0  0  0  0  0  0  0
  139.4670   79.7510  224.1570 C   0  0  0  0  0  0  0  0  0  0  0  0
  139.5540   78.6420  223.3240 C   0  0  0  0  0  0  0  0  0  0  0  0
  141.6177   73.2868  221.7780 H   0  0  0  0  0  0  0  0  0  0  0  0
  143.8359   72.5449  220.9779 H   0  0  0  0  0  0  0  0  0  0  0  0
  145.2315   74.0451  219.5524 H   0  0  0  0  0  0  0  0  0  0  0  0
  144.3487   76.2835  218.9627 H   0  0  0  0  0  0  0  0  0  0  0  0
  139.4108   79.1235  219.2880 H   0  0  0  0  0  0  0  0  0  0  0  0
  141.4401   80.6538  219.1941 H   0  0  0  0  0  0  0  0  0  0  0  0
  142.6717   78.5428  221.6644 H   0  0  0  0  0  0  0  0  0  0  0  0
  143.5240   79.1061  223.9034 H   0  0  0  0  0  0  0  0  0  0  0  0
  142.9501   81.3499  224.9002 H   0  0  0  0  0  0  0  0  0  0  0  0
  140.7308   82.3375  221.4277 H   0  0  0  0  0  0  0  0  0  0  0  0
  138.0984   77.4995  220.5119 H   0  0  0  0  0  0  0  0  0  0  0  0
  138.3193   76.3951  221.9735 H   0  0  0  0  0  0  0  0  0  0  0  0
  136.8952   79.2004  221.3603 H   0  0  0  0  0  0  0  0  0  0  0  0
  136.7359   81.1681  222.8334 H   0  0  0  0  0  0  0  0  0  0  0  0
  138.3765   81.5543  224.6441 H   0  0  0  0  0  0  0  0  0  0  0  0
  140.2112   79.8945  224.9542 H   0  0  0  0  0  0  0  0  0  0  0  0
  140.3749   77.9280  223.4863 H   0  0  0  0  0  0  0  0  0  0  0  0
  1  2  2  0
  2  3  1  0
  3  4  2  0
  4  5  1  0
  5  6  2  0
  6  7  1  0
  7  8  2  0
  8  9  1  0
  9 10  2  0
 10 11  1  0
 11 12  2  0
 12 13  1  0
 13 14  2  0
 14 15  1  0
 15 16  2  0
 16 17  1  0
 17 18  2  0
 10 19  1  0
 19 20  1  0
 20 21  1  0
 21 22  2  0
 22 23  1  0
 23 24  2  0
 24 25  1  0
 25 26  2  0
 19  2  1  0
 26 21  1  0
  8  3  1  0
 18 13  1  0
  4 27  1  0
  5 28  1  0
  6 29  1  0
  7 30  1  0
 11 31  1  0
 12 32  1  0
 14 33  1  0
 15 34  1  0
 16 35  1  0
 18 36  1  0
 20 37  1  0
 20 38  1  0
 22 39  1  0
 23 40  1  0
 24 41  1  0
 25 42  1  0
 26 43  1  0
M  END
>  <smiles>  (49) 
O=c1c2ccccc2nc(/C=C/c2cccnc2)n1Cc1ccccc1

>  <score_type>  (49) 
oracle

>  <origin>  (49) 
autodockgpu

>  <m_score__min__energy>  (49) 
-7.3499999999999996

>  <m_primary>  (49) 
energy

>  <rmsd>  (49) 
4.257544043688553

>  <m_score__min__rmsd>  (49) 
4.257544043688553

>  <meeko>  (49) 
{"free_energy": -6.5, "intermolecular_energy": -7.99, "internal_energy": -2.0, "cluster_size": 10, "cluster_id": 6, "rank_in_cluster": 7}

>  <energy>  (49) 
-6.37

>  <cluster_rmsd>  (49) 
0.75

>  <cluster>  (49) 
6

$$$$

     RDKit          3D

 43 46  0  0  0  0  0  0  0  0999 V2000
  140.1500   71.8720  225.0740 O   0  0  0  0  0  0  0  0  0  0  0  0
  139.5910   70.7630  225.0450 C   0  0  0  0  0  0  0  0  0  0  0  0
  139.8900   69.8990  226.1050 C   0  0  0  0  0  0  0  0  0  0  0  0
  140.7560   70.2920  227.1020 C   0  0  0  0  0  0  0  0  0  0  0  0
  141.0510   69.4390  228.1480 C   0  0  0  0  0  0  0  0  0  0  0  0
  140.4840   68.1770  228.2160 C   0  0  0  0  0  0  0  0  0  0  0  0
  139.6210   67.8050  227.2090 C   0  0  0  0  0  0  0  0  0  0  0  0
  139.3160   68.6450  226.1570 C   0  0  0  0  0  0  0  0  0  0  0  0
  138.4880   68.3050  225.1770 N   0  0  0  0  0  0  0  0  0  0  0  0
  138.2100   69.1450  224.1640 C   0  0  0  0  0  0  0  0  0  0  0  0
  137.2970   68.6330  223.1340 C   0  0  0  0  0  0  0  0  0  0  0  0
  135.9960   68.8200  223.2340 C   0  0  0  0  0  0  0  0  0  0  0  0
  135.3230   69.3520  224.4090 C   0  0  0  0  0  0  0  0  0  0  0  0
  135.2670   70.7160  224.6390 C   0  0  0  0  0  0  0  0  0  0  0  0
  134.6430   71.2660  225.7330 C   0  0  0  0  0  0  0  0  0  0  0  0
  134.0380   70.4080  226.6550 C   0  0  0  0  0  0  0  0  0  0  0  0
  134.0910   69.0830  226.4310 N   0  0  0  0  0  0  0  0  0  0  0  0
  134.7040   68.5550  225.3570 C   0  0  0  0  0  0  0  0  0  0  0  0
  138.7320   70.3790  224.0550 N   0  0  0  0  0  0  0  0  0  0  0  0
  138.4220   71.2950  222.9980 C   0  0  0  0  0  0  0  0  0  0  0  0
  139.5710   71.9220  222.3400 C   0  0  0  0  0  0  0  0  0  0  0  0
  139.5940   73.3130  222.2110 C   0  0  0  0  0  0  0  0  0  0  0  0
  140.6560   73.9660  221.5940 C   0  0  0  0  0  0  0  0  0  0  0  0
  141.7250   73.2820  221.0830 C   0  0  0  0  0  0  0  0  0  0  0  0
  141.7190   71.9090  221.2020 C   0  0  0  0  0  0  0  0  0  0  0  0
  140.6570   71.2590  221.8200 C   0  0  0  0  0  0  0  0  0  0  0  0
  141.2152   71.2909  227.0649 H   0  0  0  0  0  0  0  0  0  0  0  0
  141.7447   69.7661  228.9365 H   0  0  0  0  0  0  0  0  0  0  0  0
  140.7153   67.4943  229.0469 H   0  0  0  0  0  0  0  0  0  0  0  0
  139.1602   66.8068  227.2443 H   0  0  0  0  0  0  0  0  0  0  0  0
  137.7033   68.0874  222.2695 H   0  0  0  0  0  0  0  0  0  0  0  0
  135.3742   68.5546  222.3663 H   0  0  0  0  0  0  0  0  0  0  0  0
  135.7439   71.3906  223.9127 H   0  0  0  0  0  0  0  0  0  0  0  0
  134.6204   72.3560  225.8793 H   0  0  0  0  0  0  0  0  0  0  0  0
  133.5294   70.8076  227.5447 H   0  0  0  0  0  0  0  0  0  0  0  0
  134.7139   67.4626  225.2283 H   0  0  0  0  0  0  0  0  0  0  0  0
  137.8525   70.7471  222.2328 H   0  0  0  0  0  0  0  0  0  0  0  0
  137.8627   72.1166  223.4693 H   0  0  0  0  0  0  0  0  0  0  0  0
  138.7546   73.9043  222.6057 H   0  0  0  0  0  0  0  0  0  0  0  0
  140.6358   75.0630  221.5147 H   0  0  0  0  0  0  0  0  0  0  0  0
  142.5586   73.8085  220.5951 H   0  0  0  0  0  0  0  0  0  0  0  0
  142.5610   71.3230  220.8049 H   0  0  0  0  0  0  0  0  0  0  0  0
  140.6871   70.1621  221.8966 H   0  0  0  0  0  0  0  0  0  0  0  0
  1  2  2  0
  2  3  1  0
  3  4  2  0
  4  5  1  0
  5  6  2  0
  6  7  1  0
  7  8  2  0
  8  9  1  0
  9 10  2  0
 10 11  1  0
 11 12  2  0
 12 13  1  0
 13 14  2  0
 14 15  1  0
 15 16  2  0
 16 17  1  0
 17 18  2  0
 10 19  1  0
 19 20  1  0
 20 21  1  0
 21 22  2  0
 22 23  1  0
 23 24  2  0
 24 25  1  0
 25 26  2  0
 19  2  1  0
 26 21  1  0
  8  3  1  0
 18 13  1  0
  4 27  1  0
  5 28  1  0
  6 29  1  0
  7 30  1  0
 11 31  1  0
 12 32  1  0
 14 33  1  0
 15 34  1  0
 16 35  1  0
 18 36  1  0
 20 37  1  0
 20 38  1  0
 22 39  1  0
 23 40  1  0
 24 41  1  0
 25 42  1  0
 26 43  1  0
M  END
>  <smiles>  (50) 
O=c1c2ccccc2nc(/C=C/c2cccnc2)n1Cc1ccccc1

>  <score_type>  (50) 
oracle

>  <origin>  (50) 
autodockgpu

>  <m_score__min__energy>  (50) 
-7.3499999999999996

>  <m_primary>  (50) 
energy

>  <rmsd>  (50) 
10.145410304968605

>  <m_score__min__rmsd>  (50) 
10.145410304968605

>  <meeko>  (50) 
{"free_energy": -7.08, "intermolecular_energy": -8.57, "internal_energy": -1.47, "cluster_size": 23, "cluster_id": 3, "rank_in_cluster": 8}

>  <energy>  (50) 
-6.89

>  <cluster_rmsd>  (50) 
0.0

>  <cluster>  (50) 
7

$$$$
