@<TRIPOS>MOLECULE
*****
 69 73 0 0 0
SMALL
GASTEIGER

@<TRIPOS>ATOM
      1 O         139.9980   70.9610  221.4220 O.2     1  UNL1       -0.2685
      2 C         139.9430   71.4750  222.5710 C.2     1  UNL1        0.2628
      3 N         139.8820   72.9060  222.6120 N.am    1  UNL1       -0.3015
      4 C         139.8890   73.5870  221.3340 C.3     1  UNL1        0.0887
      5 C         139.8860   75.0590  221.4700 C.2     1  UNL1        0.2334
      6 O         139.7350   75.6630  222.5640 O.2     1  UNL1       -0.2739
      7 N         140.0600   75.8380  220.3110 N.am    1  UNL1       -0.2861
      8 C         139.0080   76.5870  219.6690 C.3     1  UNL1        0.0416
      9 C         139.5450   77.0440  218.3330 C.3     1  UNL1        0.0731
     10 O         138.5900   76.8670  217.3230 O.3     1  UNL1       -0.3902
     11 C         140.7330   76.1560  218.1190 C.3     1  UNL1        0.0018
     12 C         141.2850   76.0540  219.5330 C.3     1  UNL1        0.1047
     13 C         141.7910   77.4210  219.9010 C.2     1  UNL1        0.2339
     14 O         142.5340   78.0590  219.0820 O.2     1  UNL1       -0.2738
     15 N         141.4210   77.9480  221.1440 N.am    1  UNL1       -0.3103
     16 C         141.8480   79.2640  221.6140 C.3     1  UNL1        0.0300
     17 C         142.4360   79.0450  222.9750 C.3     1  UNL1       -0.0339
     18 C         142.6390   80.2870  223.7820 C.3     1  UNL1       -0.0513
     19 C         141.4490   81.1740  223.8240 C.3     1  UNL1       -0.0524
     20 C         140.3660   80.8840  222.8440 C.3     1  UNL1       -0.0445
     21 C         140.7700   80.2810  221.5480 C.3     1  UNL1        0.0026
     22 C         141.0450   81.3200  220.4920 C.ar    1  UNL1       -0.0425
     23 C         140.5810   82.6140  220.6470 C.ar    1  UNL1       -0.0582
     24 C         140.8370   83.5760  219.6660 C.ar    1  UNL1       -0.0615
     25 C         141.5610   83.2240  218.5310 C.ar    1  UNL1       -0.0617
     26 C         142.0240   81.9410  218.3740 C.ar    1  UNL1       -0.0615
     27 C         141.7620   81.0020  219.3520 C.ar    1  UNL1       -0.0582
     28 C         139.9420   70.6800  223.7870 C.ar    1  UNL1        0.1260
     29 C         139.3520   69.4310  223.7340 C.ar    1  UNL1       -0.0306
     30 C         139.2980   68.6020  224.8330 C.ar    1  UNL1       -0.0503
     31 C         139.8470   69.0330  226.0040 C.ar    1  UNL1        0.0031
     32 C         139.8220   68.2360  227.1460 C.ar    1  UNL1       -0.0173
     33 C         140.3750   68.6610  228.3430 C.ar    1  UNL1        0.1241
     34 F         140.3190   67.8440  229.4110 F       1  UNL1       -0.2055
     35 C         140.9640   69.9150  228.3820 C.ar    1  UNL1       -0.0244
     36 C         140.9790   70.6900  227.2390 C.ar    1  UNL1       -0.0330
     37 C         140.4370   70.2920  226.0420 C.ar    1  UNL1        0.0720
     38 N         140.4750   71.0840  224.9490 N.ar    1  UNL1       -0.2421
     39 H         139.8340   73.4130  223.5260 H       1  UNL1        0.1496
     40 H         140.7911   73.2869  220.7806 H       1  UNL1        0.0558
     41 H         138.9700   73.3015  220.8012 H       1  UNL1        0.0558
     42 H         138.1244   75.9484  219.5228 H       1  UNL1        0.0490
     43 H         138.7046   77.4461  220.2854 H       1  UNL1        0.0490
     44 H         139.8008   78.1136  218.3112 H       1  UNL1        0.0610
     45 H         138.4440   77.7820  216.9580 H       1  UNL1        0.2098
     46 H         140.4351   75.1709  217.7307 H       1  UNL1        0.0313
     47 H         141.4533   76.5363  217.3798 H       1  UNL1        0.0313
     48 H         142.0709   75.2974  219.6739 H       1  UNL1        0.0597
     49 H         140.8060   77.4180  221.8170 H       1  UNL1        0.1490
     50 H         142.6106   79.7036  220.9543 H       1  UNL1        0.0504
     51 H         141.7620   78.3803  223.5352 H       1  UNL1        0.0283
     52 H         143.4360   78.6164  222.8129 H       1  UNL1        0.0283
     53 H         142.8903   79.9943  224.8122 H       1  UNL1        0.0266
     54 H         143.4464   80.8559  223.2979 H       1  UNL1        0.0266
     55 H         141.0148   81.1022  224.8321 H       1  UNL1        0.0265
     56 H         141.8226   82.1733  223.5559 H       1  UNL1        0.0265
     57 H         139.6598   80.1918  223.3257 H       1  UNL1        0.0272
     58 H         139.9480   81.8673  222.5824 H       1  UNL1        0.0272
     59 H         139.8804   79.7086  221.2463 H       1  UNL1        0.0367
     60 H         140.0084   82.8868  221.5457 H       1  UNL1        0.0620
     61 H         140.4685   84.6049  219.7903 H       1  UNL1        0.0618
     62 H         141.7634   83.9775  217.7556 H       1  UNL1        0.0618
     63 H         142.5982   81.6637  217.4777 H       1  UNL1        0.0618
     64 H         142.1328   79.9747  219.2215 H       1  UNL1        0.0620
     65 H         138.9123   69.0887  222.7856 H       1  UNL1        0.0641
     66 H         138.8217   67.6127  224.7670 H       1  UNL1        0.0625
     67 H         139.3509   67.2432  227.0962 H       1  UNL1        0.0653
     68 H         141.4146   70.2889  229.3132 H       1  UNL1        0.0647
     69 H         141.4518   71.6819  227.2905 H       1  UNL1        0.0640
@<TRIPOS>BOND
     1     1     2    2
     2     2     3   am
     3     3     4    1
     4     4     5    1
     5     5     6    2
     6     5     7   am
     7     7     8    1
     8     8     9    1
     9     9    10    1
    10     9    11    1
    11    11    12    1
    12    12    13    1
    13    13    14    2
    14    13    15   am
    15    15    16    1
    16    16    17    1
    17    17    18    1
    18    18    19    1
    19    19    20    1
    20    20    21    1
    21    21    22    1
    22    22    23   ar
    23    23    24   ar
    24    24    25   ar
    25    25    26   ar
    26    26    27   ar
    27     2    28    1
    28    28    29   ar
    29    29    30   ar
    30    30    31   ar
    31    31    32   ar
    32    32    33   ar
    33    33    34    1
    34    33    35   ar
    35    35    36   ar
    36    36    37   ar
    37    37    38   ar
    38    12     7    1
    39    21    16    1
    40    27    22   ar
    41    38    28   ar
    42    37    31   ar
    43     3    39    1
    44     4    40    1
    45     4    41    1
    46     8    42    1
    47     8    43    1
    48     9    44    1
    49    10    45    1
    50    11    46    1
    51    11    47    1
    52    12    48    1
    53    15    49    1
    54    16    50    1
    55    17    51    1
    56    17    52    1
    57    18    53    1
    58    18    54    1
    59    19    55    1
    60    19    56    1
    61    20    57    1
    62    20    58    1
    63    21    59    1
    64    23    60    1
    65    24    61    1
    66    25    62    1
    67    26    63    1
    68    27    64    1
    69    29    65    1
    70    30    66    1
    71    32    67    1
    72    35    68    1
    73    36    69    1
