
     RDKit          3D

 79 84  0  0  0  0  0  0  0  0999 V2000
  142.7160   81.9720  215.1940 C   0  0  0  0  0  0  0  0  0  0  0  0
  142.4580   82.3200  216.9170 S   0  0  0  0  0  0  0  0  0  0  0  0
  143.6690   83.0800  217.4280 O   0  0  0  0  0  0  0  0  0  0  0  0
  141.2070   83.1670  217.0680 O   0  0  0  0  0  0  0  0  0  0  0  0
  142.3250   80.8650  217.8760 C   0  0  0  0  0  0  0  0  0  0  0  0
  142.5700   79.6050  217.3740 C   0  0  0  0  0  0  0  0  0  0  0  0
  142.4550   78.4750  218.1550 C   0  0  0  0  0  0  0  0  0  0  0  0
  142.0820   78.6420  219.4780 C   0  0  0  0  0  0  0  0  0  0  0  0
  141.9230   77.5070  220.4230 C   0  0  0  0  0  0  0  0  0  0  0  0
  141.7730   76.2130  219.6480 C   0  0  0  0  0  0  0  0  0  0  0  0
  141.7890   75.0920  220.6610 C   0  0  0  0  0  0  0  0  0  0  0  0
  140.7530   75.2900  221.6760 N   0  0  0  0  0  0  0  0  0  0  0  0
  139.7900   74.2810  221.9710 C   0  0  0  0  0  0  0  0  0  0  0  0
  138.5140   74.3780  221.5580 N   0  0  0  0  0  0  0  0  0  0  0  0
  137.5880   73.4290  221.8340 C   0  0  0  0  0  0  0  0  0  0  0  0
  136.2450   73.5510  221.3790 N   0  0  0  0  0  0  0  0  0  0  0  0
  135.2680   74.3710  222.0470 C   0  0  1  0  0  0  0  0  0  0  0  0
  134.1340   73.5730  222.6290 C   0  0  0  0  0  0  0  0  0  0  0  0
  134.4750   72.9940  223.9830 C   0  0  0  0  0  0  0  0  0  0  0  0
  135.0280   74.0430  224.9190 C   0  0  2  0  0  0  0  0  0  0  0  0
  134.3200   74.1710  226.1520 N   0  0  0  0  0  0  0  0  0  0  0  0
  135.0820   75.4040  224.2530 C   0  0  0  0  0  0  0  0  0  0  0  0
  135.9570   75.2620  223.0510 C   0  0  0  0  0  0  0  0  0  0  0  0
  137.9900   72.3490  222.5560 N   0  0  0  0  0  0  0  0  0  0  0  0
  139.2570   72.2150  222.9880 C   0  0  0  0  0  0  0  0  0  0  0  0
  139.6460   71.0710  223.7420 N   0  0  0  0  0  0  0  0  0  0  0  0
  138.8400   69.8900  223.6320 C   0  0  0  0  0  0  0  0  0  0  0  0
  139.1850   68.8030  224.5970 C   0  0  0  0  0  0  0  0  0  0  0  0
  139.7500   69.3050  225.8750 C   0  0  0  0  0  0  0  0  0  0  0  0
  139.4560   68.6210  227.0180 C   0  0  0  0  0  0  0  0  0  0  0  0
  139.9970   69.1100  228.2090 C   0  0  0  0  0  0  0  0  0  0  0  0
  140.7890   70.2310  228.2120 C   0  0  0  0  0  0  0  0  0  0  0  0
  141.0750   70.9080  227.0470 C   0  0  0  0  0  0  0  0  0  0  0  0
  140.5480   70.4350  225.8730 C   0  0  0  0  0  0  0  0  0  0  0  0
  140.8290   71.1330  224.5850 C   0  0  0  0  0  0  0  0  0  0  0  0
  140.1420   73.2050  222.6780 N   0  0  0  0  0  0  0  0  0  0  0  0
  140.7660   76.5670  222.3610 C   0  0  0  0  0  0  0  0  0  0  0  0
  140.7360   77.6690  221.3190 C   0  0  0  0  0  0  0  0  0  0  0  0
  141.8270   79.9120  220.0090 C   0  0  0  0  0  0  0  0  0  0  0  0
  141.9470   81.0320  219.2120 C   0  0  0  0  0  0  0  0  0  0  0  0
  143.3683   81.0922  215.0913 H   0  0  0  0  0  0  0  0  0  0  0  0
  141.7483   81.7692  214.7120 H   0  0  0  0  0  0  0  0  0  0  0  0
  143.1912   82.8391  214.7120 H   0  0  0  0  0  0  0  0  0  0  0  0
  142.8658   79.4981  216.3199 H   0  0  0  0  0  0  0  0  0  0  0  0
  142.6527   77.4750  217.7415 H   0  0  0  0  0  0  0  0  0  0  0  0
  142.8246   77.4856  221.0528 H   0  0  0  0  0  0  0  0  0  0  0  0
  140.8216   76.2106  219.0958 H   0  0  0  0  0  0  0  0  0  0  0  0
  142.5859   76.0950  218.9164 H   0  0  0  0  0  0  0  0  0  0  0  0
  141.6095   74.1375  220.1446 H   0  0  0  0  0  0  0  0  0  0  0  0
  142.7703   75.0815  221.1579 H   0  0  0  0  0  0  0  0  0  0  0  0
  135.9760   73.0160  220.5220 H   0  0  0  0  0  0  0  0  0  0  0  0
  134.7844   75.0178  221.3002 H   0  0  0  0  0  0  0  0  0  0  0  0
  133.8929   72.7482  221.9422 H   0  0  0  0  0  0  0  0  0  0  0  0
  133.2777   74.2510  222.7592 H   0  0  0  0  0  0  0  0  0  0  0  0
  135.2267   72.2017  223.8523 H   0  0  0  0  0  0  0  0  0  0  0  0
  133.5512   72.5936  224.4260 H   0  0  0  0  0  0  0  0  0  0  0  0
  136.0400   73.6842  225.1580 H   0  0  0  0  0  0  0  0  0  0  0  0
  134.3810   73.3310  226.7530 H   0  0  0  0  0  0  0  0  0  0  0  0
  134.4920   75.0520  226.6810 H   0  0  0  0  0  0  0  0  0  0  0  0
  135.5059   76.1473  224.9443 H   0  0  0  0  0  0  0  0  0  0  0  0
  134.0752   75.7451  223.9701 H   0  0  0  0  0  0  0  0  0  0  0  0
  136.9176   74.8136  223.3445 H   0  0  0  0  0  0  0  0  0  0  0  0
  136.1423   76.2508  222.6062 H   0  0  0  0  0  0  0  0  0  0  0  0
  137.7908   70.1752  223.7988 H   0  0  0  0  0  0  0  0  0  0  0  0
  139.0248   69.4819  222.6274 H   0  0  0  0  0  0  0  0  0  0  0  0
  138.2715   68.2323  224.8202 H   0  0  0  0  0  0  0  0  0  0  0  0
  139.9587   68.1816  224.1224 H   0  0  0  0  0  0  0  0  0  0  0  0
  138.8204   67.7233  227.0023 H   0  0  0  0  0  0  0  0  0  0  0  0
  139.7860   68.5908  229.1555 H   0  0  0  0  0  0  0  0  0  0  0  0
  141.2034   70.5959  229.1634 H   0  0  0  0  0  0  0  0  0  0  0  0
  141.7104   71.8058  227.0583 H   0  0  0  0  0  0  0  0  0  0  0  0
  141.0848   72.1842  224.7839 H   0  0  0  0  0  0  0  0  0  0  0  0
  141.6729   70.6449  224.0756 H   0  0  0  0  0  0  0  0  0  0  0  0
  139.8838   76.6479  223.0130 H   0  0  0  0  0  0  0  0  0  0  0  0
  141.6717   76.6554  222.9790 H   0  0  0  0  0  0  0  0  0  0  0  0
  139.8116   77.5952  220.7273 H   0  0  0  0  0  0  0  0  0  0  0  0
  140.7656   78.6530  221.8099 H   0  0  0  0  0  0  0  0  0  0  0  0
  141.5305   80.0172  221.0631 H   0  0  0  0  0  0  0  0  0  0  0  0
  141.7496   82.0348  219.6188 H   0  0  0  0  0  0  0  0  0  0  0  0
  1  2  1  0
  2  3  2  0
  2  4  2  0
  2  5  1  0
  5  6  2  0
  6  7  1  0
  7  8  2  0
  8  9  1  0
  9 10  1  0
 10 11  1  0
 11 12  1  0
 12 13  1  0
 13 14  2  0
 14 15  1  0
 15 16  1  0
 16 17  1  0
 17 18  1  0
 18 19  1  0
 19 20  1  0
 20 21  1  0
 20 22  1  0
 22 23  1  0
 15 24  2  0
 24 25  1  0
 25 26  1  0
 26 27  1  0
 27 28  1  0
 28 29  1  0
 29 30  2  0
 30 31  1  0
 31 32  2  0
 32 33  1  0
 33 34  2  0
 34 35  1  0
 25 36  2  0
 12 37  1  0
 37 38  1  0
  8 39  1  0
 39 40  2  0
 40  5  1  0
 38  9  1  0
 36 13  1  0
 23 17  1  0
 35 26  1  0
 34 29  1  0
  1 41  1  0
  1 42  1  0
  1 43  1  0
  6 44  1  0
  7 45  1  0
  9 46  1  0
 10 47  1  0
 10 48  1  0
 11 49  1  0
 11 50  1  0
 16 51  1  0
 17 52  1  6
 18 53  1  0
 18 54  1  0
 19 55  1  0
 19 56  1  0
 20 57  1  1
 21 58  1  0
 21 59  1  0
 22 60  1  0
 22 61  1  0
 23 62  1  0
 23 63  1  0
 27 64  1  0
 27 65  1  0
 28 66  1  0
 28 67  1  0
 30 68  1  0
 31 69  1  0
 32 70  1  0
 33 71  1  0
 35 72  1  0
 35 73  1  0
 37 74  1  0
 37 75  1  0
 38 76  1  0
 38 77  1  0
 39 78  1  0
 40 79  1  0
M  END
