
     RDKit          3D

 61 65  0  0  0  0  0  0  0  0999 V2000
  138.9860   70.3800  221.3570 O   0  0  0  0  0  0  0  0  0  0  0  0
  139.2740   70.9850  222.4350 C   0  0  0  0  0  0  0  0  0  0  0  0
  139.4340   72.3970  222.4780 N   0  0  0  0  0  0  0  0  0  0  0  0
  139.2700   73.1850  221.2770 C   0  0  0  0  0  0  0  0  0  0  0  0
  139.7540   74.5650  221.4270 C   0  0  0  0  0  0  0  0  0  0  0  0
  139.6620   75.2050  222.5060 O   0  0  0  0  0  0  0  0  0  0  0  0
  140.3490   75.1900  220.2970 N   0  0  0  0  0  0  0  0  0  0  0  0
  139.7450   75.4340  218.9780 C   0  0  0  0  0  0  0  0  0  0  0  0
  140.8750   74.9600  218.0890 C   0  0  2  0  0  0  0  0  0  0  0  0
  140.9670   73.5630  218.1730 O   0  0  0  0  0  0  0  0  0  0  0  0
  142.0730   75.6260  218.7330 C   0  0  0  0  0  0  0  0  0  0  0  0
  141.6900   75.7350  220.1790 C   0  0  1  0  0  0  0  0  0  0  0  0
  141.7380   77.1450  220.6650 C   0  0  0  0  0  0  0  0  0  0  0  0
  142.0410   78.0170  219.8240 O   0  0  0  0  0  0  0  0  0  0  0  0
  141.4450   77.4370  222.0190 N   0  0  0  0  0  0  0  0  0  0  0  0
  141.4510   78.7080  222.6110 C   0  0  0  0  0  0  0  0  0  0  0  0
  142.5570   79.4650  222.9030 C   0  0  0  0  0  0  0  0  0  0  0  0
  142.4880   80.7210  223.4910 C   0  0  0  0  0  0  0  0  0  0  0  0
  141.2710   81.2660  223.8110 C   0  0  0  0  0  0  0  0  0  0  0  0
  140.1510   80.5140  223.5230 C   0  0  0  0  0  0  0  0  0  0  0  0
  138.8370   81.0510  223.8430 C   0  0  0  0  0  0  0  0  0  0  0  0
  138.2090   80.6960  224.9830 N   0  0  0  0  0  0  0  0  0  0  0  0
  136.9980   81.1440  225.3510 C   0  0  0  0  0  0  0  0  0  0  0  0
  136.3630   82.0290  224.4980 C   0  0  0  0  0  0  0  0  0  0  0  0
  136.9950   82.3980  223.3340 C   0  0  0  0  0  0  0  0  0  0  0  0
  138.2180   81.9220  222.9980 N   0  0  0  0  0  0  0  0  0  0  0  0
  140.2240   79.2690  222.9400 C   0  0  0  0  0  0  0  0  0  0  0  0
  139.4480   70.2150  223.6760 C   0  0  0  0  0  0  0  0  0  0  0  0
  139.0430   68.8980  223.7370 C   0  0  0  0  0  0  0  0  0  0  0  0
  139.2200   68.1870  224.9290 C   0  0  0  0  0  0  0  0  0  0  0  0
  139.7950   68.8100  226.0220 C   0  0  0  0  0  0  0  0  0  0  0  0
  139.9920   68.1460  227.2270 C   0  0  0  0  0  0  0  0  0  0  0  0
  140.5730   68.8090  228.2990 C   0  0  0  0  0  0  0  0  0  0  0  0
  140.7550   68.1340  229.4700 F   0  0  0  0  0  0  0  0  0  0  0  0
  140.9740   70.1300  228.2190 C   0  0  0  0  0  0  0  0  0  0  0  0
  140.7670   70.7640  227.0110 C   0  0  0  0  0  0  0  0  0  0  0  0
  140.1890   70.1300  225.9240 C   0  0  0  0  0  0  0  0  0  0  0  0
  140.0070   70.7880  224.7660 N   0  0  0  0  0  0  0  0  0  0  0  0
  139.6750   72.8290  223.4140 H   0  0  0  0  0  0  0  0  0  0  0  0
  139.8303   72.7033  220.4621 H   0  0  0  0  0  0  0  0  0  0  0  0
  138.1928   73.2350  221.0598 H   0  0  0  0  0  0  0  0  0  0  0  0
  138.8308   74.8404  218.8300 H   0  0  0  0  0  0  0  0  0  0  0  0
  139.4142   76.4679  218.8005 H   0  0  0  0  0  0  0  0  0  0  0  0
  140.7653   75.2021  217.0216 H   0  0  0  0  0  0  0  0  0  0  0  0
  141.5530   73.2280  217.4450 H   0  0  0  0  0  0  0  0  0  0  0  0
  142.9757   75.0090  218.6125 H   0  0  0  0  0  0  0  0  0  0  0  0
  142.3102   76.6008  218.2820 H   0  0  0  0  0  0  0  0  0  0  0  0
  142.4032   75.1775  220.8040 H   0  0  0  0  0  0  0  0  0  0  0  0
  141.2050   76.6030  222.6180 H   0  0  0  0  0  0  0  0  0  0  0  0
  143.5487   79.0564  222.6590 H   0  0  0  0  0  0  0  0  0  0  0  0
  143.4118   81.2802  223.7006 H   0  0  0  0  0  0  0  0  0  0  0  0
  141.1914   82.2593  224.2769 H   0  0  0  0  0  0  0  0  0  0  0  0
  136.5298   80.8206  226.2924 H   0  0  0  0  0  0  0  0  0  0  0  0
  135.3696   82.4305  224.7468 H   0  0  0  0  0  0  0  0  0  0  0  0
  136.4919   83.1016  222.6544 H   0  0  0  0  0  0  0  0  0  0  0  0
  139.2988   78.7116  222.7322 H   0  0  0  0  0  0  0  0  0  0  0  0
  138.5873   68.4134  222.8609 H   0  0  0  0  0  0  0  0  0  0  0  0
  138.9029   67.1359  224.9967 H   0  0  0  0  0  0  0  0  0  0  0  0
  139.6872   67.0942  227.3312 H   0  0  0  0  0  0  0  0  0  0  0  0
  141.4338   70.6482  229.0734 H   0  0  0  0  0  0  0  0  0  0  0  0
  141.0735   71.8153  226.9073 H   0  0  0  0  0  0  0  0  0  0  0  0
  1  2  2  0
  2  3  1  0
  3  4  1  0
  4  5  1  0
  5  6  2  0
  5  7  1  0
  7  8  1  0
  8  9  1  0
  9 10  1  0
  9 11  1  0
 11 12  1  0
 12 13  1  0
 13 14  2  0
 13 15  1  0
 15 16  1  0
 16 17  2  0
 17 18  1  0
 18 19  2  0
 19 20  1  0
 20 21  1  0
 21 22  2  0
 22 23  1  0
 23 24  2  0
 24 25  1  0
 25 26  2  0
 20 27  2  0
  2 28  1  0
 28 29  2  0
 29 30  1  0
 30 31  2  0
 31 32  1  0
 32 33  2  0
 33 34  1  0
 33 35  1  0
 35 36  2  0
 36 37  1  0
 37 38  2  0
 12  7  1  0
 27 16  1  0
 38 28  1  0
 26 21  1  0
 37 31  1  0
  3 39  1  0
  4 40  1  0
  4 41  1  0
  8 42  1  0
  8 43  1  0
  9 44  1  6
 10 45  1  0
 11 46  1  0
 11 47  1  0
 12 48  1  1
 15 49  1  0
 17 50  1  0
 18 51  1  0
 19 52  1  0
 23 53  1  0
 24 54  1  0
 25 55  1  0
 27 56  1  0
 29 57  1  0
 30 58  1  0
 32 59  1  0
 35 60  1  0
 36 61  1  0
M  END
