@<TRIPOS>MOLECULE
*****
 63 67 0 0 0
SMALL
GASTEIGER

@<TRIPOS>ATOM
      1 O         141.4260   71.9730  221.7030 O.2     1  UNL1       -0.2685
      2 C         140.4670   72.2420  222.5040 C.2     1  UNL1        0.2628
      3 N         139.6260   73.3400  222.2080 N.am    1  UNL1       -0.3015
      4 C         139.8950   74.1150  220.9930 C.3     1  UNL1        0.0887
      5 C         140.7940   75.2590  221.2870 C.2     1  UNL1        0.2330
      6 O         140.4410   76.0690  222.1810 O.2     1  UNL1       -0.2739
      7 N         141.9970   75.3750  220.5450 N.am    1  UNL1       -0.2959
      8 C         142.9380   74.3280  220.1450 C.3     1  UNL1        0.0151
      9 C         143.2900   74.7370  218.7220 C.3     1  UNL1       -0.0354
     10 C         142.7120   76.1450  218.5310 C.3     1  UNL1       -0.0317
     11 C         142.5990   76.6010  219.9810 C.3     1  UNL1        0.0386
     12 C         141.7150   77.7790  220.1390 C.3     1  UNL1        0.0149
     13 N         142.1970   78.6930  221.0950 N.3     1  UNL1       -0.3103
     14 C         141.8490   78.5910  222.4350 C.3     1  UNL1        0.0213
     15 C         140.6700   79.2680  222.9750 C.ar    1  UNL1       -0.0335
     16 C         140.8380   80.5850  223.4180 C.ar    1  UNL1       -0.0567
     17 C         139.7330   81.2660  223.8860 C.ar    1  UNL1       -0.0508
     18 C         138.4750   80.6940  223.9340 C.ar    1  UNL1        0.0173
     19 C         137.3300   81.4430  224.4370 C.ar    1  UNL1        0.1381
     20 N         137.0840   81.6790  225.7520 N.ar    1  UNL1       -0.2361
     21 C         135.9470   82.4010  225.8960 C.ar    1  UNL1        0.0458
     22 C         135.4860   82.6100  224.6060 C.ar    1  UNL1        0.0216
     23 N         136.3270   82.0260  223.7150 N.ar    1  UNL1       -0.3444
     24 C         138.3020   79.3910  223.4980 C.ar    1  UNL1       -0.0508
     25 C         139.3980   78.6690  223.0150 C.ar    1  UNL1       -0.0567
     26 C         140.2850   71.4030  223.6870 C.ar    1  UNL1        0.1260
     27 C         139.5980   70.2140  223.5860 C.ar    1  UNL1       -0.0306
     28 C         139.3780   69.3650  224.6500 C.ar    1  UNL1       -0.0503
     29 C         139.8760   69.7280  225.8900 C.ar    1  UNL1        0.0031
     30 C         139.6690   68.9030  226.9560 C.ar    1  UNL1       -0.0173
     31 C         140.1770   69.2820  228.2020 C.ar    1  UNL1        0.1241
     32 F         139.9870   68.4800  229.2780 F       1  UNL1       -0.2055
     33 C         140.8690   70.4690  228.3290 C.ar    1  UNL1       -0.0244
     34 C         141.0620   71.2840  227.2300 C.ar    1  UNL1       -0.0330
     35 C         140.5690   70.9360  225.9760 C.ar    1  UNL1        0.0720
     36 N         140.7570   71.7310  224.9030 N.ar    1  UNL1       -0.2421
     37 H         138.8480   73.5660  222.8560 H       1  UNL1        0.1496
     38 H         140.3731   73.4627  220.2474 H       1  UNL1        0.0558
     39 H         138.9425   74.5051  220.6050 H       1  UNL1        0.0558
     40 H         143.8286   74.3246  220.7906 H       1  UNL1        0.0465
     41 H         142.5256   73.3112  220.2225 H       1  UNL1        0.0465
     42 H         144.3816   74.7505  218.5872 H       1  UNL1        0.0281
     43 H         142.8791   74.0298  217.9864 H       1  UNL1        0.0281
     44 H         143.3935   76.7886  217.9553 H       1  UNL1        0.0284
     45 H         141.7689   76.1794  217.9660 H       1  UNL1        0.0284
     46 H         143.5366   76.9373  220.4477 H       1  UNL1        0.0513
     47 H         141.6355   78.2924  219.1694 H       1  UNL1        0.0442
     48 H         140.7366   77.4170  220.4878 H       1  UNL1        0.0442
     49 H         142.8760   79.4030  220.7940 H       1  UNL1        0.1223
     50 H         141.7108   77.5188  222.6383 H       1  UNL1        0.0473
     51 H         142.6736   79.1220  222.9331 H       1  UNL1        0.0473
     52 H         141.8272   81.0656  223.3936 H       1  UNL1        0.0621
     53 H         139.8574   82.3021  224.2337 H       1  UNL1        0.0625
     54 H         135.4886   82.7467  226.8343 H       1  UNL1        0.0845
     55 H         134.5742   83.1664  224.3432 H       1  UNL1        0.0823
     56 H         136.2310   82.0200  222.6610 H       1  UNL1        0.1668
     57 H         137.3059   78.9255  223.5315 H       1  UNL1        0.0625
     58 H         139.2655   77.6340  222.6668 H       1  UNL1        0.0621
     59 H         139.2024   69.9252  222.6011 H       1  UNL1        0.0641
     60 H         138.8221   68.4251  224.5174 H       1  UNL1        0.0625
     61 H         139.1146   67.9603  226.8380 H       1  UNL1        0.0653
     62 H         141.2687   70.7677  229.3093 H       1  UNL1        0.0647
     63 H         141.6164   72.2267  227.3487 H       1  UNL1        0.0640
@<TRIPOS>BOND
     1     1     2    2
     2     2     3   am
     3     3     4    1
     4     4     5    1
     5     5     6    2
     6     5     7   am
     7     7     8    1
     8     8     9    1
     9     9    10    1
    10    10    11    1
    11    11    12    1
    12    12    13    1
    13    13    14    1
    14    14    15    1
    15    15    16   ar
    16    16    17   ar
    17    17    18   ar
    18    18    19    1
    19    19    20   ar
    20    20    21   ar
    21    21    22   ar
    22    22    23   ar
    23    18    24   ar
    24    24    25   ar
    25     2    26    1
    26    26    27   ar
    27    27    28   ar
    28    28    29   ar
    29    29    30   ar
    30    30    31   ar
    31    31    32    1
    32    31    33   ar
    33    33    34   ar
    34    34    35   ar
    35    35    36   ar
    36    11     7    1
    37    25    15   ar
    38    36    26   ar
    39    23    19   ar
    40    35    29   ar
    41     3    37    1
    42     4    38    1
    43     4    39    1
    44     8    40    1
    45     8    41    1
    46     9    42    1
    47     9    43    1
    48    10    44    1
    49    10    45    1
    50    11    46    1
    51    12    47    1
    52    12    48    1
    53    13    49    1
    54    14    50    1
    55    14    51    1
    56    16    52    1
    57    17    53    1
    58    21    54    1
    59    22    55    1
    60    23    56    1
    61    24    57    1
    62    25    58    1
    63    27    59    1
    64    28    60    1
    65    30    61    1
    66    33    62    1
    67    34    63    1
