@<TRIPOS>MOLECULE
*****
 61 65 0 0 0
SMALL
GASTEIGER

@<TRIPOS>ATOM
      1 N         143.3420   68.2090  218.7700 N.am    1  UNL1       -0.3293
      2 C         144.1050   69.0250  219.6830 C.2     1  UNL1        0.2105
      3 O         145.1970   68.5630  220.0740 O.2     1  UNL1       -0.2760
      4 C         143.5230   70.3230  220.0650 C.3     1  UNL1        0.0240
      5 C         142.1090   70.5410  219.5920 C.3     1  UNL1       -0.0407
      6 C         141.2090   70.7760  220.7520 C.3     1  UNL1       -0.0225
      7 C         140.9150   72.2120  220.9860 C.ar    1  UNL1        0.0108
      8 C         141.2520   73.1900  220.0420 C.ar    1  UNL1        0.0376
      9 N         140.9980   74.4830  220.2610 N.ar    1  UNL1       -0.2224
     10 C         140.4030   74.9160  221.4080 C.ar    1  UNL1        0.2198
     11 N         140.1330   76.2910  221.6440 N.pl3   1  UNL1       -0.2950
     12 C         141.1570   77.3070  221.4500 C.3     1  UNL1        0.0192
     13 C         141.2730   78.0160  222.8000 C.3     1  UNL1       -0.0115
     14 C         139.9330   78.6300  223.0680 C.ar    1  UNL1       -0.0412
     15 C         139.9250   79.8850  223.6790 C.ar    1  UNL1       -0.0582
     16 C         138.6870   80.4490  223.9240 C.ar    1  UNL1       -0.0615
     17 C         137.5090   79.8110  223.5850 C.ar    1  UNL1       -0.0614
     18 C         137.5370   78.5540  222.9740 C.ar    1  UNL1       -0.0568
     19 C         138.7610   78.0010  222.7340 C.ar    1  UNL1       -0.0269
     20 C         138.8170   76.6600  222.0810 C.3     1  UNL1        0.0402
     21 N         140.0730   74.0000  222.3220 N.ar    1  UNL1       -0.1991
     22 C         140.3150   72.6660  222.1370 C.ar    1  UNL1        0.1298
     23 N         139.8920   71.8220  223.1970 N.pl3   1  UNL1       -0.3102
     24 C         138.7690   70.9440  223.1670 C.3     1  UNL1        0.0179
     25 C         139.1790   69.5390  223.6210 C.3     1  UNL1       -0.0115
     26 C         139.6690   69.6470  225.0420 C.ar    1  UNL1       -0.0412
     27 C         139.4090   68.6530  225.9690 C.ar    1  UNL1       -0.0582
     28 C         139.8570   68.7620  227.2660 C.ar    1  UNL1       -0.0615
     29 C         140.5770   69.9080  227.5940 C.ar    1  UNL1       -0.0614
     30 C         140.8310   70.9000  226.6550 C.ar    1  UNL1       -0.0568
     31 C         140.3740   70.7850  225.3460 C.ar    1  UNL1       -0.0269
     32 C         140.6860   71.8720  224.4200 C.3     1  UNL1        0.0388
     33 H         143.8790   67.7070  218.0290 H       1  UNL1        0.1449
     34 H         142.3040   68.1210  218.8430 H       1  UNL1        0.1449
     35 H         143.5321   70.3931  221.1627 H       1  UNL1        0.0358
     36 H         144.1368   71.0949  219.5778 H       1  UNL1        0.0358
     37 H         142.0796   71.4162  218.9263 H       1  UNL1        0.0273
     38 H         141.7699   69.6454  219.0508 H       1  UNL1        0.0273
     39 H         140.2600   70.2506  220.5696 H       1  UNL1        0.0315
     40 H         141.7261   70.3994  221.6469 H       1  UNL1        0.0315
     41 H         141.7355   72.8874  219.1014 H       1  UNL1        0.0834
     42 H         142.1151   76.8423  221.1739 H       1  UNL1        0.0468
     43 H         140.8990   78.0035  220.6387 H       1  UNL1        0.0468
     44 H         141.5256   77.2930  223.5896 H       1  UNL1        0.0328
     45 H         142.0664   78.7777  222.7851 H       1  UNL1        0.0328
     46 H         140.8579   80.3998  223.9521 H       1  UNL1        0.0620
     47 H         138.6379   81.4374  224.4042 H       1  UNL1        0.0618
     48 H         136.5442   80.2948  223.7971 H       1  UNL1        0.0618
     49 H         136.6092   78.0316  222.6977 H       1  UNL1        0.0621
     50 H         138.4654   75.9069  222.8015 H       1  UNL1        0.0514
     51 H         138.1805   76.7093  221.1852 H       1  UNL1        0.0514
     52 H         137.9891   71.3295  223.8401 H       1  UNL1        0.0467
     53 H         138.3855   70.8893  222.1375 H       1  UNL1        0.0467
     54 H         138.3139   68.8613  223.5725 H       1  UNL1        0.0328
     55 H         139.9678   69.1359  222.9688 H       1  UNL1        0.0328
     56 H         138.8367   67.7640  225.6654 H       1  UNL1        0.0620
     57 H         139.6551   67.9781  228.0108 H       1  UNL1        0.0618
     58 H         140.9534   70.0307  228.6203 H       1  UNL1        0.0618
     59 H         141.4031   71.7915  226.9516 H       1  UNL1        0.0621
     60 H         140.4924   72.8298  224.9252 H       1  UNL1        0.0513
     61 H         141.7424   71.7671  224.1320 H       1  UNL1        0.0513
@<TRIPOS>BOND
     1     1     2   am
     2     2     3    2
     3     2     4    1
     4     4     5    1
     5     5     6    1
     6     6     7    1
     7     7     8   ar
     8     8     9   ar
     9     9    10   ar
    10    10    11    1
    11    11    12    1
    12    12    13    1
    13    13    14    1
    14    14    15   ar
    15    15    16   ar
    16    16    17   ar
    17    17    18   ar
    18    18    19   ar
    19    19    20    1
    20    10    21   ar
    21    21    22   ar
    22    22    23    1
    23    23    24    1
    24    24    25    1
    25    25    26    1
    26    26    27   ar
    27    27    28   ar
    28    28    29   ar
    29    29    30   ar
    30    30    31   ar
    31    31    32    1
    32    22     7   ar
    33    32    23    1
    34    20    11    1
    35    31    26   ar
    36    19    14   ar
    37     1    33    1
    38     1    34    1
    39     4    35    1
    40     4    36    1
    41     5    37    1
    42     5    38    1
    43     6    39    1
    44     6    40    1
    45     8    41    1
    46    12    42    1
    47    12    43    1
    48    13    44    1
    49    13    45    1
    50    15    46    1
    51    16    47    1
    52    17    48    1
    53    18    49    1
    54    20    50    1
    55    20    51    1
    56    24    52    1
    57    24    53    1
    58    25    54    1
    59    25    55    1
    60    27    56    1
    61    28    57    1
    62    29    58    1
    63    30    59    1
    64    32    60    1
    65    32    61    1
