
     RDKit          3D

 57 61  0  0  0  0  0  0  0  0999 V2000
  142.6290   74.9090  220.7280 O   0  0  0  0  0  0  0  0  0  0  0  0
  141.5210   74.5690  221.2470 C   0  0  0  0  0  0  0  0  0  0  0  0
  141.2660   73.1220  221.3950 C   0  0  0  0  0  0  0  0  0  0  0  0
  139.9330   72.9250  222.0140 C   0  0  0  0  0  0  0  0  0  0  0  0
  139.4660   71.5430  222.2620 C   0  0  0  0  0  0  0  0  0  0  0  0
  138.7120   70.9080  221.2720 C   0  0  0  0  0  0  0  0  0  0  0  0
  138.2540   69.6130  221.4790 C   0  0  0  0  0  0  0  0  0  0  0  0
  138.5430   68.9600  222.6570 C   0  0  0  0  0  0  0  0  0  0  0  0
  139.2950   69.5920  223.6480 C   0  0  0  0  0  0  0  0  0  0  0  0
  139.5540   68.8270  224.8540 C   0  0  0  0  0  0  0  0  0  0  0  0
  139.1970   67.6030  224.8270 O   0  0  0  0  0  0  0  0  0  0  0  0
  140.1690   69.3850  226.0180 N   0  0  0  0  0  0  0  0  0  0  0  0
  140.6250   70.7480  226.2010 C   0  0  0  0  0  0  0  0  0  0  0  0
  140.6400   70.9220  227.6890 C   0  0  0  0  0  0  0  0  0  0  0  0
  140.0920   69.6540  228.3010 C   0  0  0  0  0  0  0  0  0  0  0  0
  140.4370   68.6280  227.2290 C   0  0  0  0  0  0  0  0  0  0  0  0
  139.7480   70.8770  223.4360 C   0  0  0  0  0  0  0  0  0  0  0  0
  139.1420   73.8660  222.3590 N   0  0  0  0  0  0  0  0  0  0  0  0
  139.3900   75.2550  222.2170 C   0  0  0  0  0  0  0  0  0  0  0  0
  138.4890   76.2090  222.6170 C   0  0  0  0  0  0  0  0  0  0  0  0
  138.7770   77.5480  222.4620 C   0  0  0  0  0  0  0  0  0  0  0  0
  139.9850   77.9410  221.8980 C   0  0  0  0  0  0  0  0  0  0  0  0
  140.2720   79.3270  221.7500 N   0  0  0  0  0  0  0  0  0  0  0  0
  140.9650   79.8800  220.6040 C   0  0  0  0  0  0  0  0  0  0  0  0
  142.1790   80.6170  221.1220 C   0  0  0  0  0  0  0  0  0  0  0  0
  141.8170   81.5470  222.2350 C   0  0  0  0  0  0  0  0  0  0  0  0
  141.0990   80.8600  223.3730 C   0  0  0  0  0  0  0  0  0  0  0  0
  139.8430   80.2160  222.8150 C   0  0  0  0  0  0  0  0  0  0  0  0
  140.8940   76.9650  221.4940 C   0  0  0  0  0  0  0  0  0  0  0  0
  140.5980   75.6140  221.6520 C   0  0  0  0  0  0  0  0  0  0  0  0
  141.2875   72.6411  220.4059 H   0  0  0  0  0  0  0  0  0  0  0  0
  142.0410   72.6725  222.0332 H   0  0  0  0  0  0  0  0  0  0  0  0
  138.4819   71.4314  220.3323 H   0  0  0  0  0  0  0  0  0  0  0  0
  137.6604   69.1089  220.7021 H   0  0  0  0  0  0  0  0  0  0  0  0
  138.1789   67.9345  222.8173 H   0  0  0  0  0  0  0  0  0  0  0  0
  141.6321   70.8843  225.7802 H   0  0  0  0  0  0  0  0  0  0  0  0
  139.9839   71.4833  225.6928 H   0  0  0  0  0  0  0  0  0  0  0  0
  141.6696   71.0921  228.0367 H   0  0  0  0  0  0  0  0  0  0  0  0
  140.0302   71.7888  227.9835 H   0  0  0  0  0  0  0  0  0  0  0  0
  140.5876   69.4211  229.2550 H   0  0  0  0  0  0  0  0  0  0  0  0
  139.0215   69.7013  228.5496 H   0  0  0  0  0  0  0  0  0  0  0  0
  141.4920   68.3222  227.2882 H   0  0  0  0  0  0  0  0  0  0  0  0
  139.8738   67.6864  227.3070 H   0  0  0  0  0  0  0  0  0  0  0  0
  140.3426   71.3778  224.2143 H   0  0  0  0  0  0  0  0  0  0  0  0
  137.5314   75.9037  223.0639 H   0  0  0  0  0  0  0  0  0  0  0  0
  138.0494   78.3070  222.7853 H   0  0  0  0  0  0  0  0  0  0  0  0
  141.2768   79.0711  219.9269 H   0  0  0  0  0  0  0  0  0  0  0  0
  140.3072   80.5608  220.0438 H   0  0  0  0  0  0  0  0  0  0  0  0
  142.9120   79.8847  221.4913 H   0  0  0  0  0  0  0  0  0  0  0  0
  142.6022   81.2103  220.2981 H   0  0  0  0  0  0  0  0  0  0  0  0
  142.7397   82.0002  222.6263 H   0  0  0  0  0  0  0  0  0  0  0  0
  141.1304   82.3006  221.8219 H   0  0  0  0  0  0  0  0  0  0  0  0
  141.7491   80.0898  223.8137 H   0  0  0  0  0  0  0  0  0  0  0  0
  140.8395   81.5879  224.1558 H   0  0  0  0  0  0  0  0  0  0  0  0
  139.3273   79.6453  223.6014 H   0  0  0  0  0  0  0  0  0  0  0  0
  139.1405   80.9749  222.4401 H   0  0  0  0  0  0  0  0  0  0  0  0
  141.8532   77.2646  221.0466 H   0  0  0  0  0  0  0  0  0  0  0  0
  1  2  2  0
  2  3  1  0
  3  4  1  0
  4  5  1  0
  5  6  2  0
  6  7  1  0
  7  8  2  0
  8  9  1  0
  9 10  1  0
 10 11  2  0
 10 12  1  0
 12 13  1  0
 13 14  1  0
 14 15  1  0
 15 16  1  0
  9 17  2  0
  4 18  2  0
 18 19  1  0
 19 20  2  0
 20 21  1  0
 21 22  2  0
 22 23  1  0
 23 24  1  0
 24 25  1  0
 25 26  1  0
 26 27  1  0
 27 28  1  0
 22 29  1  0
 29 30  2  0
 30  2  1  0
 17  5  1  0
 30 19  1  0
 16 12  1  0
 28 23  1  0
  3 31  1  0
  3 32  1  0
  6 33  1  0
  7 34  1  0
  8 35  1  0
 13 36  1  0
 13 37  1  0
 14 38  1  0
 14 39  1  0
 15 40  1  0
 15 41  1  0
 16 42  1  0
 16 43  1  0
 17 44  1  0
 20 45  1  0
 21 46  1  0
 24 47  1  0
 24 48  1  0
 25 49  1  0
 25 50  1  0
 26 51  1  0
 26 52  1  0
 27 53  1  0
 27 54  1  0
 28 55  1  0
 28 56  1  0
 29 57  1  0
M  END
>  <smiles>  (1) 
O=C1CC(c2cccc(C(=O)N3CCCC3)c2)=Nc2ccc(N3CCCCC3)cc21

>  <score_type>  (1) 
oracle

>  <origin>  (1) 
autodockgpu

>  <m_score__min__energy>  (1) 
-9.2599999999999998

>  <m_primary>  (1) 
energy

>  <rmsd>  (1) 
6.1197096382196

>  <m_score__min__rmsd>  (1) 
6.1197096382196

>  <meeko>  (1) 
{"free_energy": -8.9, "intermolecular_energy": -9.8, "internal_energy": -0.87, "cluster_size": 50, "cluster_id": 1, "rank_in_cluster": 50}

>  <energy>  (1) 
-9.26

>  <cluster_rmsd>  (1) 
0.0

>  <cluster>  (1) 
1

$$$$

     RDKit          3D

 57 61  0  0  0  0  0  0  0  0999 V2000
  142.7780   74.9890  220.5090 O   0  0  0  0  0  0  0  0  0  0  0  0
  141.7280   74.5890  221.1000 C   0  0  0  0  0  0  0  0  0  0  0  0
  141.5480   73.1290  221.2330 C   0  0  0  0  0  0  0  0  0  0  0  0
  140.2740   72.8600  221.9430 C   0  0  0  0  0  0  0  0  0  0  0  0
  139.8890   71.4530  222.1930 C   0  0  0  0  0  0  0  0  0  0  0  0
  139.4310   70.6880  221.1180 C   0  0  0  0  0  0  0  0  0  0  0  0
  139.0550   69.3660  221.3240 C   0  0  0  0  0  0  0  0  0  0  0  0
  139.1330   68.8160  222.5830 C   0  0  0  0  0  0  0  0  0  0  0  0
  139.5890   69.5780  223.6590 C   0  0  0  0  0  0  0  0  0  0  0  0
  139.6410   68.9150  224.9490 C   0  0  0  0  0  0  0  0  0  0  0  0
  139.1440   67.7410  224.9950 O   0  0  0  0  0  0  0  0  0  0  0  0
  140.2080   69.5150  226.1170 N   0  0  0  0  0  0  0  0  0  0  0  0
  140.8060   70.8320  226.2230 C   0  0  0  0  0  0  0  0  0  0  0  0
  140.7030   71.1510  227.6830 C   0  0  0  0  0  0  0  0  0  0  0  0
  139.9520   70.0200  228.3460 C   0  0  0  0  0  0  0  0  0  0  0  0
  140.2700   68.8600  227.4110 C   0  0  0  0  0  0  0  0  0  0  0  0
  139.9620   70.8890  223.4490 C   0  0  0  0  0  0  0  0  0  0  0  0
  139.4700   73.7570  222.3660 N   0  0  0  0  0  0  0  0  0  0  0  0
  139.6450   75.1590  222.2370 C   0  0  0  0  0  0  0  0  0  0  0  0
  138.7360   76.0630  222.7230 C   0  0  0  0  0  0  0  0  0  0  0  0
  138.9520   77.4160  222.5770 C   0  0  0  0  0  0  0  0  0  0  0  0
  140.0960   77.8740  221.9360 C   0  0  0  0  0  0  0  0  0  0  0  0
  140.3100   79.2750  221.7980 N   0  0  0  0  0  0  0  0  0  0  0  0
  141.0800   79.8620  220.7210 C   0  0  0  0  0  0  0  0  0  0  0  0
  142.1870   80.6780  221.3480 C   0  0  0  0  0  0  0  0  0  0  0  0
  141.6570   81.5910  222.4060 C   0  0  0  0  0  0  0  0  0  0  0  0
  140.8710   80.8690  223.4760 C   0  0  0  0  0  0  0  0  0  0  0  0
  139.7210   80.1430  222.8030 C   0  0  0  0  0  0  0  0  0  0  0  0
  141.0160   76.9490  221.4450 C   0  0  0  0  0  0  0  0  0  0  0  0
  140.7920   75.5830  221.5940 C   0  0  0  0  0  0  0  0  0  0  0  0
  141.5173   72.6691  220.2342 H   0  0  0  0  0  0  0  0  0  0  0  0
  142.3869   72.7024  221.8024 H   0  0  0  0  0  0  0  0  0  0  0  0
  139.3681   71.1299  220.1126 H   0  0  0  0  0  0  0  0  0  0  0  0
  138.6949   68.7590  220.4803 H   0  0  0  0  0  0  0  0  0  0  0  0
  138.8340   67.7694  222.7419 H   0  0  0  0  0  0  0  0  0  0  0  0
  141.8569   70.8131  225.8986 H   0  0  0  0  0  0  0  0  0  0  0  0
  140.3087   71.5790  225.5869 H   0  0  0  0  0  0  0  0  0  0  0  0
  141.7088   71.2399  228.1193 H   0  0  0  0  0  0  0  0  0  0  0  0
  140.1765   72.1050  227.8337 H   0  0  0  0  0  0  0  0  0  0  0  0
  140.3253   69.8309  229.3633 H   0  0  0  0  0  0  0  0  0  0  0  0
  138.8766   70.2101  228.4774 H   0  0  0  0  0  0  0  0  0  0  0  0
  141.2709   68.4476  227.6064 H   0  0  0  0  0  0  0  0  0  0  0  0
  139.5932   67.9989  227.5138 H   0  0  0  0  0  0  0  0  0  0  0  0
  140.3226   71.4928  224.2949 H   0  0  0  0  0  0  0  0  0  0  0  0
  137.8288   75.7060  223.2325 H   0  0  0  0  0  0  0  0  0  0  0  0
  138.2172   78.1347  222.9688 H   0  0  0  0  0  0  0  0  0  0  0  0
  141.5086   79.0694  220.0901 H   0  0  0  0  0  0  0  0  0  0  0  0
  140.4414   80.4959  220.0882 H   0  0  0  0  0  0  0  0  0  0  0  0
  142.9231   79.9963  221.7990 H   0  0  0  0  0  0  0  0  0  0  0  0
  142.6537   81.2909  220.5628 H   0  0  0  0  0  0  0  0  0  0  0  0
  142.5055   82.1045  222.8819 H   0  0  0  0  0  0  0  0  0  0  0  0
  140.9700   82.2961  221.9153 H   0  0  0  0  0  0  0  0  0  0  0  0
  141.5194   80.1449  223.9910 H   0  0  0  0  0  0  0  0  0  0  0  0
  140.4889   81.5851  224.2185 H   0  0  0  0  0  0  0  0  0  0  0  0
  139.1648   79.5464  223.5410 H   0  0  0  0  0  0  0  0  0  0  0  0
  139.0145   80.8535  222.3490 H   0  0  0  0  0  0  0  0  0  0  0  0
  141.9255   77.3009  220.9362 H   0  0  0  0  0  0  0  0  0  0  0  0
  1  2  2  0
  2  3  1  0
  3  4  1  0
  4  5  1  0
  5  6  2  0
  6  7  1  0
  7  8  2  0
  8  9  1  0
  9 10  1  0
 10 11  2  0
 10 12  1  0
 12 13  1  0
 13 14  1  0
 14 15  1  0
 15 16  1  0
  9 17  2  0
  4 18  2  0
 18 19  1  0
 19 20  2  0
 20 21  1  0
 21 22  2  0
 22 23  1  0
 23 24  1  0
 24 25  1  0
 25 26  1  0
 26 27  1  0
 27 28  1  0
 22 29  1  0
 29 30  2  0
 30  2  1  0
 17  5  1  0
 30 19  1  0
 16 12  1  0
 28 23  1  0
  3 31  1  0
  3 32  1  0
  6 33  1  0
  7 34  1  0
  8 35  1  0
 13 36  1  0
 13 37  1  0
 14 38  1  0
 14 39  1  0
 15 40  1  0
 15 41  1  0
 16 42  1  0
 16 43  1  0
 17 44  1  0
 20 45  1  0
 21 46  1  0
 24 47  1  0
 24 48  1  0
 25 49  1  0
 25 50  1  0
 26 51  1  0
 26 52  1  0
 27 53  1  0
 27 54  1  0
 28 55  1  0
 28 56  1  0
 29 57  1  0
M  END
>  <smiles>  (2) 
O=C1CC(c2cccc(C(=O)N3CCCC3)c2)=Nc2ccc(N3CCCCC3)cc21

>  <score_type>  (2) 
oracle

>  <origin>  (2) 
autodockgpu

>  <m_score__min__energy>  (2) 
-9.2599999999999998

>  <m_primary>  (2) 
energy

>  <rmsd>  (2) 
6.153521706798294

>  <m_score__min__rmsd>  (2) 
6.153521706798294

>  <meeko>  (2) 
{"free_energy": -9.18, "intermolecular_energy": -10.07, "internal_energy": -0.88, "cluster_size": 50, "cluster_id": 1, "rank_in_cluster": 28}

>  <energy>  (2) 
-9.26

>  <cluster_rmsd>  (2) 
0.04

>  <cluster>  (2) 
1

$$$$

     RDKit          3D

 57 61  0  0  0  0  0  0  0  0999 V2000
  142.7180   75.1730  220.4240 O   0  0  0  0  0  0  0  0  0  0  0  0
  141.6820   74.7620  221.0340 C   0  0  0  0  0  0  0  0  0  0  0  0
  141.5190   73.3000  221.1680 C   0  0  0  0  0  0  0  0  0  0  0  0
  140.2620   73.0170  221.9010 C   0  0  0  0  0  0  0  0  0  0  0  0
  139.8950   71.6060  222.1550 C   0  0  0  0  0  0  0  0  0  0  0  0
  139.5670   70.7970  221.0650 C   0  0  0  0  0  0  0  0  0  0  0  0
  139.2110   69.4700  221.2740 C   0  0  0  0  0  0  0  0  0  0  0  0
  139.1830   68.9570  222.5510 C   0  0  0  0  0  0  0  0  0  0  0  0
  139.5090   69.7630  223.6420 C   0  0  0  0  0  0  0  0  0  0  0  0
  139.4550   69.1380  224.9510 C   0  0  0  0  0  0  0  0  0  0  0  0
  138.8160   68.0360  225.0180 O   0  0  0  0  0  0  0  0  0  0  0  0
  140.0720   69.6980  226.1130 N   0  0  0  0  0  0  0  0  0  0  0  0
  140.8260   70.9330  226.1970 C   0  0  0  0  0  0  0  0  0  0  0  0
  140.7380   71.3060  227.6440 C   0  0  0  0  0  0  0  0  0  0  0  0
  139.8410   70.2970  228.3220 C   0  0  0  0  0  0  0  0  0  0  0  0
  140.0280   69.0790  227.4270 C   0  0  0  0  0  0  0  0  0  0  0  0
  139.8630   71.0790  223.4290 C   0  0  0  0  0  0  0  0  0  0  0  0
  139.4570   73.9050  222.3410 N   0  0  0  0  0  0  0  0  0  0  0  0
  139.6170   75.3090  222.2110 C   0  0  0  0  0  0  0  0  0  0  0  0
  138.7070   76.2030  222.7170 C   0  0  0  0  0  0  0  0  0  0  0  0
  138.9070   77.5590  222.5700 C   0  0  0  0  0  0  0  0  0  0  0  0
  140.0350   78.0290  221.9080 C   0  0  0  0  0  0  0  0  0  0  0  0
  140.2320   79.4320  221.7690 N   0  0  0  0  0  0  0  0  0  0  0  0
  140.5370   80.0740  220.5060 C   0  0  0  0  0  0  0  0  0  0  0  0
  141.8340   80.8310  220.6860 C   0  0  0  0  0  0  0  0  0  0  0  0
  141.8010   81.6840  221.9130 C   0  0  0  0  0  0  0  0  0  0  0  0
  141.4720   80.9090  223.1670 C   0  0  0  0  0  0  0  0  0  0  0  0
  140.1220   80.2440  222.9680 C   0  0  0  0  0  0  0  0  0  0  0  0
  140.9540   77.1140  221.3970 C   0  0  0  0  0  0  0  0  0  0  0  0
  140.7470   75.7460  221.5480 C   0  0  0  0  0  0  0  0  0  0  0  0
  141.4742   72.8413  220.1692 H   0  0  0  0  0  0  0  0  0  0  0  0
  142.3727   72.8812  221.7210 H   0  0  0  0  0  0  0  0  0  0  0  0
  139.5903   71.2084  220.0451 H   0  0  0  0  0  0  0  0  0  0  0  0
  138.9514   68.8292  220.4184 H   0  0  0  0  0  0  0  0  0  0  0  0
  138.9020   67.9058  222.7121 H   0  0  0  0  0  0  0  0  0  0  0  0
  141.8721   70.7750  225.8958 H   0  0  0  0  0  0  0  0  0  0  0  0
  140.4356   71.7164  225.5308 H   0  0  0  0  0  0  0  0  0  0  0  0
  141.7393   71.2831  228.0988 H   0  0  0  0  0  0  0  0  0  0  0  0
  140.3315   72.3219  227.7571 H   0  0  0  0  0  0  0  0  0  0  0  0
  140.1702   70.0939  229.3517 H   0  0  0  0  0  0  0  0  0  0  0  0
  138.7954   70.6228  228.4253 H   0  0  0  0  0  0  0  0  0  0  0  0
  140.9656   68.5511  227.6555 H   0  0  0  0  0  0  0  0  0  0  0  0
  139.2470   68.3125  227.5389 H   0  0  0  0  0  0  0  0  0  0  0  0
  140.1233   71.7166  224.2867 H   0  0  0  0  0  0  0  0  0  0  0  0
  137.8133   75.8356  223.2426 H   0  0  0  0  0  0  0  0  0  0  0  0
  138.1729   78.2699  222.9772 H   0  0  0  0  0  0  0  0  0  0  0  0
  140.6501   79.3163  219.7166 H   0  0  0  0  0  0  0  0  0  0  0  0
  139.7263   80.7564  220.2110 H   0  0  0  0  0  0  0  0  0  0  0  0
  142.6602   80.1100  220.7733 H   0  0  0  0  0  0  0  0  0  0  0  0
  141.9776   81.4849  219.8132 H   0  0  0  0  0  0  0  0  0  0  0  0
  142.7882   82.1522  222.0401 H   0  0  0  0  0  0  0  0  0  0  0  0
  141.0053   82.4302  221.7714 H   0  0  0  0  0  0  0  0  0  0  0  0
  142.2420   80.1441  223.3457 H   0  0  0  0  0  0  0  0  0  0  0  0
  141.4410   81.5834  224.0355 H   0  0  0  0  0  0  0  0  0  0  0  0
  139.8794   79.6109  223.8342 H   0  0  0  0  0  0  0  0  0  0  0  0
  139.3221   80.9924  222.8682 H   0  0  0  0  0  0  0  0  0  0  0  0
  141.8495   77.4758  220.8705 H   0  0  0  0  0  0  0  0  0  0  0  0
  1  2  2  0
  2  3  1  0
  3  4  1  0
  4  5  1  0
  5  6  2  0
  6  7  1  0
  7  8  2  0
  8  9  1  0
  9 10  1  0
 10 11  2  0
 10 12  1  0
 12 13  1  0
 13 14  1  0
 14 15  1  0
 15 16  1  0
  9 17  2  0
  4 18  2  0
 18 19  1  0
 19 20  2  0
 20 21  1  0
 21 22  2  0
 22 23  1  0
 23 24  1  0
 24 25  1  0
 25 26  1  0
 26 27  1  0
 27 28  1  0
 22 29  1  0
 29 30  2  0
 30  2  1  0
 17  5  1  0
 30 19  1  0
 16 12  1  0
 28 23  1  0
  3 31  1  0
  3 32  1  0
  6 33  1  0
  7 34  1  0
  8 35  1  0
 13 36  1  0
 13 37  1  0
 14 38  1  0
 14 39  1  0
 15 40  1  0
 15 41  1  0
 16 42  1  0
 16 43  1  0
 17 44  1  0
 20 45  1  0
 21 46  1  0
 24 47  1  0
 24 48  1  0
 25 49  1  0
 25 50  1  0
 26 51  1  0
 26 52  1  0
 27 53  1  0
 27 54  1  0
 28 55  1  0
 28 56  1  0
 29 57  1  0
M  END
>  <smiles>  (3) 
O=C1CC(c2cccc(C(=O)N3CCCC3)c2)=Nc2ccc(N3CCCCC3)cc21

>  <score_type>  (3) 
oracle

>  <origin>  (3) 
autodockgpu

>  <m_score__min__energy>  (3) 
-9.2599999999999998

>  <m_primary>  (3) 
energy

>  <rmsd>  (3) 
6.073685001025142

>  <m_score__min__rmsd>  (3) 
6.073685001025142

>  <meeko>  (3) 
{"free_energy": -9.11, "intermolecular_energy": -10.01, "internal_energy": -0.92, "cluster_size": 50, "cluster_id": 1, "rank_in_cluster": 41}

>  <energy>  (3) 
-9.26

>  <cluster_rmsd>  (3) 
0.06

>  <cluster>  (3) 
1

$$$$

     RDKit          3D

 57 61  0  0  0  0  0  0  0  0999 V2000
  142.8510   74.8050  220.4820 O   0  0  0  0  0  0  0  0  0  0  0  0
  141.7800   74.4700  221.0770 C   0  0  0  0  0  0  0  0  0  0  0  0
  141.5180   73.0240  221.2230 C   0  0  0  0  0  0  0  0  0  0  0  0
  140.2310   72.8340  221.9350 C   0  0  0  0  0  0  0  0  0  0  0  0
  139.7670   71.4540  222.1990 C   0  0  0  0  0  0  0  0  0  0  0  0
  139.1460   70.7530  221.1620 C   0  0  0  0  0  0  0  0  0  0  0  0
  138.6930   69.4570  221.3820 C   0  0  0  0  0  0  0  0  0  0  0  0
  138.8560   68.8710  222.6170 C   0  0  0  0  0  0  0  0  0  0  0  0
  139.4740   69.5690  223.6540 C   0  0  0  0  0  0  0  0  0  0  0  0
  139.6060   68.8710  224.9200 C   0  0  0  0  0  0  0  0  0  0  0  0
  139.1590   67.6770  224.9480 O   0  0  0  0  0  0  0  0  0  0  0  0
  140.1960   69.4600  226.0820 N   0  0  0  0  0  0  0  0  0  0  0  0
  140.7430   70.7970  226.2060 C   0  0  0  0  0  0  0  0  0  0  0  0
  140.6870   71.0690  227.6770 C   0  0  0  0  0  0  0  0  0  0  0  0
  140.0100   69.8880  228.3340 C   0  0  0  0  0  0  0  0  0  0  0  0
  140.3360   68.7700  227.3520 C   0  0  0  0  0  0  0  0  0  0  0  0
  139.9230   70.8540  223.4300 C   0  0  0  0  0  0  0  0  0  0  0  0
  139.4790   73.7790  222.3500 N   0  0  0  0  0  0  0  0  0  0  0  0
  139.7340   75.1680  222.2080 C   0  0  0  0  0  0  0  0  0  0  0  0
  138.8770   76.1260  222.6860 C   0  0  0  0  0  0  0  0  0  0  0  0
  139.1690   77.4640  222.5270 C   0  0  0  0  0  0  0  0  0  0  0  0
  140.3370   77.8500  221.8820 C   0  0  0  0  0  0  0  0  0  0  0  0
  140.6300   79.2350  221.7310 N   0  0  0  0  0  0  0  0  0  0  0  0
  141.8250   79.7320  221.0790 C   0  0  0  0  0  0  0  0  0  0  0  0
  142.5430   80.6210  222.0680 C   0  0  0  0  0  0  0  0  0  0  0  0
  141.6130   81.6210  222.6770 C   0  0  0  0  0  0  0  0  0  0  0  0
  140.4040   80.9890  223.3260 C   0  0  0  0  0  0  0  0  0  0  0  0
  139.6710   80.1830  222.2700 C   0  0  0  0  0  0  0  0  0  0  0  0
  141.2020   76.8700  221.3990 C   0  0  0  0  0  0  0  0  0  0  0  0
  140.9020   75.5210  221.5620 C   0  0  0  0  0  0  0  0  0  0  0  0
  141.4612   72.5576  220.2284 H   0  0  0  0  0  0  0  0  0  0  0  0
  142.3316   72.5558  221.7964 H   0  0  0  0  0  0  0  0  0  0  0  0
  139.0162   71.2241  220.1765 H   0  0  0  0  0  0  0  0  0  0  0  0
  138.2043   68.8998  220.5691 H   0  0  0  0  0  0  0  0  0  0  0  0
  138.4964   67.8454  222.7869 H   0  0  0  0  0  0  0  0  0  0  0  0
  141.7797   70.8321  225.8399 H   0  0  0  0  0  0  0  0  0  0  0  0
  140.1892   71.5405  225.6139 H   0  0  0  0  0  0  0  0  0  0  0  0
  141.7053   71.1873  228.0757 H   0  0  0  0  0  0  0  0  0  0  0  0
  140.1290   71.9954  227.8779 H   0  0  0  0  0  0  0  0  0  0  0  0
  140.4319   69.6849  229.3294 H   0  0  0  0  0  0  0  0  0  0  0  0
  138.9340   70.0292  228.5135 H   0  0  0  0  0  0  0  0  0  0  0  0
  141.3595   68.3933  227.4954 H   0  0  0  0  0  0  0  0  0  0  0  0
  139.6987   67.8793  227.4544 H   0  0  0  0  0  0  0  0  0  0  0  0
  140.4123   71.4074  224.2450 H   0  0  0  0  0  0  0  0  0  0  0  0
  137.9516   75.8253  223.1991 H   0  0  0  0  0  0  0  0  0  0  0  0
  138.4760   78.2269  222.9115 H   0  0  0  0  0  0  0  0  0  0  0  0
  142.4728   78.8913  220.7898 H   0  0  0  0  0  0  0  0  0  0  0  0
  141.5661   80.2932  220.1690 H   0  0  0  0  0  0  0  0  0  0  0  0
  142.9699   79.9964  222.8665 H   0  0  0  0  0  0  0  0  0  0  0  0
  143.3351   81.1654  221.5330 H   0  0  0  0  0  0  0  0  0  0  0  0
  142.1628   82.1902  223.4410 H   0  0  0  0  0  0  0  0  0  0  0  0
  141.2486   82.2667  221.8644 H   0  0  0  0  0  0  0  0  0  0  0  0
  140.7232   80.3278  224.1451 H   0  0  0  0  0  0  0  0  0  0  0  0
  139.7437   81.7652  223.7402 H   0  0  0  0  0  0  0  0  0  0  0  0
  138.8222   79.6487  222.7218 H   0  0  0  0  0  0  0  0  0  0  0  0
  139.2715   80.8355  221.4797 H   0  0  0  0  0  0  0  0  0  0  0  0
  142.1288   77.1650  220.8851 H   0  0  0  0  0  0  0  0  0  0  0  0
  1  2  2  0
  2  3  1  0
  3  4  1  0
  4  5  1  0
  5  6  2  0
  6  7  1  0
  7  8  2  0
  8  9  1  0
  9 10  1  0
 10 11  2  0
 10 12  1  0
 12 13  1  0
 13 14  1  0
 14 15  1  0
 15 16  1  0
  9 17  2  0
  4 18  2  0
 18 19  1  0
 19 20  2  0
 20 21  1  0
 21 22  2  0
 22 23  1  0
 23 24  1  0
 24 25  1  0
 25 26  1  0
 26 27  1  0
 27 28  1  0
 22 29  1  0
 29 30  2  0
 30  2  1  0
 17  5  1  0
 30 19  1  0
 16 12  1  0
 28 23  1  0
  3 31  1  0
  3 32  1  0
  6 33  1  0
  7 34  1  0
  8 35  1  0
 13 36  1  0
 13 37  1  0
 14 38  1  0
 14 39  1  0
 15 40  1  0
 15 41  1  0
 16 42  1  0
 16 43  1  0
 17 44  1  0
 20 45  1  0
 21 46  1  0
 24 47  1  0
 24 48  1  0
 25 49  1  0
 25 50  1  0
 26 51  1  0
 26 52  1  0
 27 53  1  0
 27 54  1  0
 28 55  1  0
 28 56  1  0
 29 57  1  0
M  END
>  <smiles>  (4) 
O=C1CC(c2cccc(C(=O)N3CCCC3)c2)=Nc2ccc(N3CCCCC3)cc21

>  <score_type>  (4) 
oracle

>  <origin>  (4) 
autodockgpu

>  <m_score__min__energy>  (4) 
-9.2599999999999998

>  <m_primary>  (4) 
energy

>  <rmsd>  (4) 
6.17258390158828

>  <m_score__min__rmsd>  (4) 
6.17258390158828

>  <meeko>  (4) 
{"free_energy": -9.24, "intermolecular_energy": -10.14, "internal_energy": -0.86, "cluster_size": 50, "cluster_id": 1, "rank_in_cluster": 17}

>  <energy>  (4) 
-9.26

>  <cluster_rmsd>  (4) 
0.03

>  <cluster>  (4) 
1

$$$$

     RDKit          3D

 57 61  0  0  0  0  0  0  0  0999 V2000
  142.8880   74.6720  220.3750 O   0  0  0  0  0  0  0  0  0  0  0  0
  141.8060   74.4470  221.0000 C   0  0  0  0  0  0  0  0  0  0  0  0
  141.4220   73.0340  221.1890 C   0  0  0  0  0  0  0  0  0  0  0  0
  140.1400   72.9740  221.9320 C   0  0  0  0  0  0  0  0  0  0  0  0
  139.5630   71.6470  222.2400 C   0  0  0  0  0  0  0  0  0  0  0  0
  138.6890   71.0710  221.3140 C   0  0  0  0  0  0  0  0  0  0  0  0
  138.1260   69.8290  221.5790 C   0  0  0  0  0  0  0  0  0  0  0  0
  138.4290   69.1700  222.7500 C   0  0  0  0  0  0  0  0  0  0  0  0
  139.3010   69.7430  223.6760 C   0  0  0  0  0  0  0  0  0  0  0  0
  139.5650   68.9770  224.8800 C   0  0  0  0  0  0  0  0  0  0  0  0
  139.1990   67.7550  224.8570 O   0  0  0  0  0  0  0  0  0  0  0  0
  140.1950   69.5300  226.0390 N   0  0  0  0  0  0  0  0  0  0  0  0
  140.6630   70.8900  226.2170 C   0  0  0  0  0  0  0  0  0  0  0  0
  140.6930   71.0640  227.7050 C   0  0  0  0  0  0  0  0  0  0  0  0
  140.1410   69.8000  228.3220 C   0  0  0  0  0  0  0  0  0  0  0  0
  140.4680   68.7710  227.2470 C   0  0  0  0  0  0  0  0  0  0  0  0
  139.8580   70.9770  223.4080 C   0  0  0  0  0  0  0  0  0  0  0  0
  139.4830   73.9910  222.3380 N   0  0  0  0  0  0  0  0  0  0  0  0
  139.8550   75.3480  222.1560 C   0  0  0  0  0  0  0  0  0  0  0  0
  139.0960   76.3890  222.6270 C   0  0  0  0  0  0  0  0  0  0  0  0
  139.5000   77.6920  222.4280 C   0  0  0  0  0  0  0  0  0  0  0  0
  140.6830   77.9590  221.7490 C   0  0  0  0  0  0  0  0  0  0  0  0
  141.0920   79.3090  221.5570 N   0  0  0  0  0  0  0  0  0  0  0  0
  142.2820   79.8750  222.1590 C   0  0  0  0  0  0  0  0  0  0  0  0
  141.8510   81.0790  222.9670 C   0  0  0  0  0  0  0  0  0  0  0  0
  140.9740   81.9860  222.1660 C   0  0  0  0  0  0  0  0  0  0  0  0
  139.7660   81.2870  221.5870 C   0  0  0  0  0  0  0  0  0  0  0  0
  140.2570   80.1470  220.7150 C   0  0  0  0  0  0  0  0  0  0  0  0
  141.4480   76.8950  221.2740 C   0  0  0  0  0  0  0  0  0  0  0  0
  141.0350   75.5820  221.4760 C   0  0  0  0  0  0  0  0  0  0  0  0
  141.3021   72.5507  220.2082 H   0  0  0  0  0  0  0  0  0  0  0  0
  142.2045   72.5105  221.7579 H   0  0  0  0  0  0  0  0  0  0  0  0
  138.4479   71.5988  220.3795 H   0  0  0  0  0  0  0  0  0  0  0  0
  137.4377   69.3714  220.8531 H   0  0  0  0  0  0  0  0  0  0  0  0
  137.9810   68.1867  222.9561 H   0  0  0  0  0  0  0  0  0  0  0  0
  141.6672   71.0187  225.7868 H   0  0  0  0  0  0  0  0  0  0  0  0
  140.0230   71.6301  225.7143 H   0  0  0  0  0  0  0  0  0  0  0  0
  141.7270   71.2264  228.0432 H   0  0  0  0  0  0  0  0  0  0  0  0
  140.0926   71.9355  228.0051 H   0  0  0  0  0  0  0  0  0  0  0  0
  140.6437   69.5633  229.2713 H   0  0  0  0  0  0  0  0  0  0  0  0
  139.0732   69.8556  228.5803 H   0  0  0  0  0  0  0  0  0  0  0  0
  141.5210   68.4568  227.2965 H   0  0  0  0  0  0  0  0  0  0  0  0
  139.8981   67.8338  227.3303 H   0  0  0  0  0  0  0  0  0  0  0  0
  140.5462   71.4317  224.1358 H   0  0  0  0  0  0  0  0  0  0  0  0
  138.1598   76.1830  223.1665 H   0  0  0  0  0  0  0  0  0  0  0  0
  138.8852   78.5216  222.8072 H   0  0  0  0  0  0  0  0  0  0  0  0
  142.7605   79.1333  222.8155 H   0  0  0  0  0  0  0  0  0  0  0  0
  143.0079   80.1659  221.3854 H   0  0  0  0  0  0  0  0  0  0  0  0
  141.2970   80.7359  223.8532 H   0  0  0  0  0  0  0  0  0  0  0  0
  142.7508   81.6385  223.2624 H   0  0  0  0  0  0  0  0  0  0  0  0
  140.6271   82.8018  222.8172 H   0  0  0  0  0  0  0  0  0  0  0  0
  141.5727   82.3578  221.3214 H   0  0  0  0  0  0  0  0  0  0  0  0
  139.1384   80.8919  222.3994 H   0  0  0  0  0  0  0  0  0  0  0  0
  139.1655   81.9913  220.9926 H   0  0  0  0  0  0  0  0  0  0  0  0
  139.4038   79.5684  220.3311 H   0  0  0  0  0  0  0  0  0  0  0  0
  140.8204   80.5248  219.8491 H   0  0  0  0  0  0  0  0  0  0  0  0
  142.3858   77.0951  220.7351 H   0  0  0  0  0  0  0  0  0  0  0  0
  1  2  2  0
  2  3  1  0
  3  4  1  0
  4  5  1  0
  5  6  2  0
  6  7  1  0
  7  8  2  0
  8  9  1  0
  9 10  1  0
 10 11  2  0
 10 12  1  0
 12 13  1  0
 13 14  1  0
 14 15  1  0
 15 16  1  0
  9 17  2  0
  4 18  2  0
 18 19  1  0
 19 20  2  0
 20 21  1  0
 21 22  2  0
 22 23  1  0
 23 24  1  0
 24 25  1  0
 25 26  1  0
 26 27  1  0
 27 28  1  0
 22 29  1  0
 29 30  2  0
 30  2  1  0
 17  5  1  0
 30 19  1  0
 16 12  1  0
 28 23  1  0
  3 31  1  0
  3 32  1  0
  6 33  1  0
  7 34  1  0
  8 35  1  0
 13 36  1  0
 13 37  1  0
 14 38  1  0
 14 39  1  0
 15 40  1  0
 15 41  1  0
 16 42  1  0
 16 43  1  0
 17 44  1  0
 20 45  1  0
 21 46  1  0
 24 47  1  0
 24 48  1  0
 25 49  1  0
 25 50  1  0
 26 51  1  0
 26 52  1  0
 27 53  1  0
 27 54  1  0
 28 55  1  0
 28 56  1  0
 29 57  1  0
M  END
>  <smiles>  (5) 
O=C1CC(c2cccc(C(=O)N3CCCC3)c2)=Nc2ccc(N3CCCCC3)cc21

>  <score_type>  (5) 
oracle

>  <origin>  (5) 
autodockgpu

>  <m_score__min__energy>  (5) 
-9.2599999999999998

>  <m_primary>  (5) 
energy

>  <rmsd>  (5) 
5.958996313845808

>  <m_score__min__rmsd>  (5) 
5.958996313845808

>  <meeko>  (5) 
{"free_energy": -9.17, "intermolecular_energy": -10.06, "internal_energy": -0.88, "cluster_size": 50, "cluster_id": 1, "rank_in_cluster": 30}

>  <energy>  (5) 
-9.26

>  <cluster_rmsd>  (5) 
0.06

>  <cluster>  (5) 
1

$$$$

     RDKit          3D

 57 61  0  0  0  0  0  0  0  0999 V2000
  142.8820   74.8780  220.4100 O   0  0  0  0  0  0  0  0  0  0  0  0
  141.8310   74.5220  221.0290 C   0  0  0  0  0  0  0  0  0  0  0  0
  141.5980   73.0710  221.1740 C   0  0  0  0  0  0  0  0  0  0  0  0
  140.3330   72.8540  221.9180 C   0  0  0  0  0  0  0  0  0  0  0  0
  139.9000   71.4650  222.1850 C   0  0  0  0  0  0  0  0  0  0  0  0
  139.3780   70.7170  221.1270 C   0  0  0  0  0  0  0  0  0  0  0  0
  138.9560   69.4120  221.3490 C   0  0  0  0  0  0  0  0  0  0  0  0
  139.0510   68.8610  222.6080 C   0  0  0  0  0  0  0  0  0  0  0  0
  139.5700   69.6070  223.6660 C   0  0  0  0  0  0  0  0  0  0  0  0
  139.6360   68.9450  224.9560 C   0  0  0  0  0  0  0  0  0  0  0  0
  139.1450   67.7690  225.0070 O   0  0  0  0  0  0  0  0  0  0  0  0
  140.2110   69.5490  226.1180 N   0  0  0  0  0  0  0  0  0  0  0  0
  140.8040   70.8680  226.2190 C   0  0  0  0  0  0  0  0  0  0  0  0
  140.7120   71.1890  227.6790 C   0  0  0  0  0  0  0  0  0  0  0  0
  139.9710   70.0550  228.3490 C   0  0  0  0  0  0  0  0  0  0  0  0
  140.2860   68.8950  227.4130 C   0  0  0  0  0  0  0  0  0  0  0  0
  139.9890   70.9020  223.4400 C   0  0  0  0  0  0  0  0  0  0  0  0
  139.5760   73.7840  222.3560 N   0  0  0  0  0  0  0  0  0  0  0  0
  139.8030   75.1780  222.2160 C   0  0  0  0  0  0  0  0  0  0  0  0
  138.9420   76.1180  222.7210 C   0  0  0  0  0  0  0  0  0  0  0  0
  139.2070   77.4620  222.5620 C   0  0  0  0  0  0  0  0  0  0  0  0
  140.3520   77.8720  221.8900 C   0  0  0  0  0  0  0  0  0  0  0  0
  140.6170   79.2630  221.7400 N   0  0  0  0  0  0  0  0  0  0  0  0
  141.8100   79.7830  221.1020 C   0  0  0  0  0  0  0  0  0  0  0  0
  142.4960   80.6900  222.0990 C   0  0  0  0  0  0  0  0  0  0  0  0
  141.5360   81.6710  222.6930 C   0  0  0  0  0  0  0  0  0  0  0  0
  140.3320   81.0140  223.3270 C   0  0  0  0  0  0  0  0  0  0  0  0
  139.6310   80.1910  222.2630 C   0  0  0  0  0  0  0  0  0  0  0  0
  141.2220   76.9090  221.3800 C   0  0  0  0  0  0  0  0  0  0  0  0
  140.9490   75.5540  221.5420 C   0  0  0  0  0  0  0  0  0  0  0  0
  141.5238   72.6087  220.1786 H   0  0  0  0  0  0  0  0  0  0  0  0
  142.4342   72.6147  221.7241 H   0  0  0  0  0  0  0  0  0  0  0  0
  139.3014   71.1592  220.1227 H   0  0  0  0  0  0  0  0  0  0  0  0
  138.5457   68.8183  220.5188 H   0  0  0  0  0  0  0  0  0  0  0  0
  138.7158   67.8275  222.7798 H   0  0  0  0  0  0  0  0  0  0  0  0
  141.8523   70.8531  225.8861 H   0  0  0  0  0  0  0  0  0  0  0  0
  140.2976   71.6121  225.5866 H   0  0  0  0  0  0  0  0  0  0  0  0
  141.7210   71.2828  228.1070 H   0  0  0  0  0  0  0  0  0  0  0  0
  140.1833   72.1412  227.8332 H   0  0  0  0  0  0  0  0  0  0  0  0
  140.3532   69.8685  229.3635 H   0  0  0  0  0  0  0  0  0  0  0  0
  138.8958   70.2409  228.4885 H   0  0  0  0  0  0  0  0  0  0  0  0
  141.2900   68.4866  227.6008 H   0  0  0  0  0  0  0  0  0  0  0  0
  139.6136   68.0313  227.5222 H   0  0  0  0  0  0  0  0  0  0  0  0
  140.3994   71.4928  224.2722 H   0  0  0  0  0  0  0  0  0  0  0  0
  138.0353   75.7985  223.2556 H   0  0  0  0  0  0  0  0  0  0  0  0
  138.5108   78.2107  222.9678 H   0  0  0  0  0  0  0  0  0  0  0  0
  142.4791   78.9553  220.8240 H   0  0  0  0  0  0  0  0  0  0  0  0
  141.5519   80.3359  220.1868 H   0  0  0  0  0  0  0  0  0  0  0  0
  142.9256   80.0766  222.9047 H   0  0  0  0  0  0  0  0  0  0  0  0
  143.2835   81.2502  221.5735 H   0  0  0  0  0  0  0  0  0  0  0  0
  142.0627   82.2536  223.4631 H   0  0  0  0  0  0  0  0  0  0  0  0
  141.1688   82.3070  221.8740 H   0  0  0  0  0  0  0  0  0  0  0  0
  140.6543   80.3611  224.1516 H   0  0  0  0  0  0  0  0  0  0  0  0
  139.6497   81.7765  223.7308 H   0  0  0  0  0  0  0  0  0  0  0  0
  138.7874   79.6398  222.7041 H   0  0  0  0  0  0  0  0  0  0  0  0
  139.2286   80.8333  221.4658 H   0  0  0  0  0  0  0  0  0  0  0  0
  142.1309   77.2227  220.8456 H   0  0  0  0  0  0  0  0  0  0  0  0
  1  2  2  0
  2  3  1  0
  3  4  1  0
  4  5  1  0
  5  6  2  0
  6  7  1  0
  7  8  2  0
  8  9  1  0
  9 10  1  0
 10 11  2  0
 10 12  1  0
 12 13  1  0
 13 14  1  0
 14 15  1  0
 15 16  1  0
  9 17  2  0
  4 18  2  0
 18 19  1  0
 19 20  2  0
 20 21  1  0
 21 22  2  0
 22 23  1  0
 23 24  1  0
 24 25  1  0
 25 26  1  0
 26 27  1  0
 27 28  1  0
 22 29  1  0
 29 30  2  0
 30  2  1  0
 17  5  1  0
 30 19  1  0
 16 12  1  0
 28 23  1  0
  3 31  1  0
  3 32  1  0
  6 33  1  0
  7 34  1  0
  8 35  1  0
 13 36  1  0
 13 37  1  0
 14 38  1  0
 14 39  1  0
 15 40  1  0
 15 41  1  0
 16 42  1  0
 16 43  1  0
 17 44  1  0
 20 45  1  0
 21 46  1  0
 24 47  1  0
 24 48  1  0
 25 49  1  0
 25 50  1  0
 26 51  1  0
 26 52  1  0
 27 53  1  0
 27 54  1  0
 28 55  1  0
 28 56  1  0
 29 57  1  0
M  END
>  <smiles>  (6) 
O=C1CC(c2cccc(C(=O)N3CCCC3)c2)=Nc2ccc(N3CCCCC3)cc21

>  <score_type>  (6) 
oracle

>  <origin>  (6) 
autodockgpu

>  <m_score__min__energy>  (6) 
-9.2599999999999998

>  <m_primary>  (6) 
energy

>  <rmsd>  (6) 
6.172359580544635

>  <m_score__min__rmsd>  (6) 
6.172359580544635

>  <meeko>  (6) 
{"free_energy": -9.24, "intermolecular_energy": -10.14, "internal_energy": -0.87, "cluster_size": 50, "cluster_id": 1, "rank_in_cluster": 16}

>  <energy>  (6) 
-9.25

>  <cluster_rmsd>  (6) 
0.03

>  <cluster>  (6) 
1

$$$$

     RDKit          3D

 57 61  0  0  0  0  0  0  0  0999 V2000
  142.8540   74.7970  220.1810 O   0  0  0  0  0  0  0  0  0  0  0  0
  141.8190   74.5300  220.8660 C   0  0  0  0  0  0  0  0  0  0  0  0
  141.4800   73.1030  221.0420 C   0  0  0  0  0  0  0  0  0  0  0  0
  140.2500   72.9940  221.8620 C   0  0  0  0  0  0  0  0  0  0  0  0
  139.7240   71.6460  222.1710 C   0  0  0  0  0  0  0  0  0  0  0  0
  139.0600   70.9450  221.1620 C   0  0  0  0  0  0  0  0  0  0  0  0
  138.5490   69.6790  221.4240 C   0  0  0  0  0  0  0  0  0  0  0  0
  138.6970   69.1220  222.6750 C   0  0  0  0  0  0  0  0  0  0  0  0
  139.3590   69.8210  223.6840 C   0  0  0  0  0  0  0  0  0  0  0  0
  139.4710   69.1550  224.9690 C   0  0  0  0  0  0  0  0  0  0  0  0
  138.9600   67.9880  225.0410 O   0  0  0  0  0  0  0  0  0  0  0  0
  140.1100   69.7450  226.1050 N   0  0  0  0  0  0  0  0  0  0  0  0
  140.7320   71.0520  226.1800 C   0  0  0  0  0  0  0  0  0  0  0  0
  140.7140   71.3710  227.6430 C   0  0  0  0  0  0  0  0  0  0  0  0
  139.9830   70.2500  228.3450 C   0  0  0  0  0  0  0  0  0  0  0  0
  140.2320   69.0860  227.3940 C   0  0  0  0  0  0  0  0  0  0  0  0
  139.8650   71.0760  223.4180 C   0  0  0  0  0  0  0  0  0  0  0  0
  139.5970   73.9850  222.3350 N   0  0  0  0  0  0  0  0  0  0  0  0
  139.9250   75.3540  222.1650 C   0  0  0  0  0  0  0  0  0  0  0  0
  139.1740   76.3640  222.7100 C   0  0  0  0  0  0  0  0  0  0  0  0
  139.5350   77.6810  222.5210 C   0  0  0  0  0  0  0  0  0  0  0  0
  140.6660   77.9940  221.7760 C   0  0  0  0  0  0  0  0  0  0  0  0
  141.0310   79.3580  221.5940 N   0  0  0  0  0  0  0  0  0  0  0  0
  142.2240   79.9480  222.1670 C   0  0  0  0  0  0  0  0  0  0  0  0
  141.7870   81.1250  223.0090 C   0  0  0  0  0  0  0  0  0  0  0  0
  140.8590   82.0200  222.2520 C   0  0  0  0  0  0  0  0  0  0  0  0
  139.6530   81.2970  221.7000 C   0  0  0  0  0  0  0  0  0  0  0  0
  140.1460   80.1850  220.7930 C   0  0  0  0  0  0  0  0  0  0  0  0
  141.4230   76.9610  221.2260 C   0  0  0  0  0  0  0  0  0  0  0  0
  141.0540   75.6330  221.4190 C   0  0  0  0  0  0  0  0  0  0  0  0
  141.3091   72.6410  220.0585 H   0  0  0  0  0  0  0  0  0  0  0  0
  142.3088   72.5848  221.5466 H   0  0  0  0  0  0  0  0  0  0  0  0
  138.9418   71.3927  220.1642 H   0  0  0  0  0  0  0  0  0  0  0  0
  138.0265   69.1221  220.6323 H   0  0  0  0  0  0  0  0  0  0  0  0
  138.2908   68.1204  222.8793 H   0  0  0  0  0  0  0  0  0  0  0  0
  141.7632   71.0180  225.7987 H   0  0  0  0  0  0  0  0  0  0  0  0
  140.2112   71.8071  225.5729 H   0  0  0  0  0  0  0  0  0  0  0  0
  141.7434   71.4442  228.0238 H   0  0  0  0  0  0  0  0  0  0  0  0
  140.2115   72.3328  227.8230 H   0  0  0  0  0  0  0  0  0  0  0  0
  140.4079   70.0541  229.3405 H   0  0  0  0  0  0  0  0  0  0  0  0
  138.9192   70.4562  228.5341 H   0  0  0  0  0  0  0  0  0  0  0  0
  141.2354   68.6578  227.5347 H   0  0  0  0  0  0  0  0  0  0  0  0
  139.5490   68.2350  227.5329 H   0  0  0  0  0  0  0  0  0  0  0  0
  140.3882   71.6295  224.2116 H   0  0  0  0  0  0  0  0  0  0  0  0
  138.2786   76.1218  223.3013 H   0  0  0  0  0  0  0  0  0  0  0  0
  138.9270   78.4855  222.9605 H   0  0  0  0  0  0  0  0  0  0  0  0
  142.7444   79.2095  222.7945 H   0  0  0  0  0  0  0  0  0  0  0  0
  142.9154   80.2724  221.3753 H   0  0  0  0  0  0  0  0  0  0  0  0
  141.2722   80.7519  223.9066 H   0  0  0  0  0  0  0  0  0  0  0  0
  142.6801   81.7048  223.2852 H   0  0  0  0  0  0  0  0  0  0  0  0
  140.5109   82.8148  222.9281 H   0  0  0  0  0  0  0  0  0  0  0  0
  141.4194   82.4222  221.3952 H   0  0  0  0  0  0  0  0  0  0  0  0
  139.0631   80.8715  222.5252 H   0  0  0  0  0  0  0  0  0  0  0  0
  139.0148   81.9940  221.1370 H   0  0  0  0  0  0  0  0  0  0  0  0
  139.2969   79.5888  220.4275 H   0  0  0  0  0  0  0  0  0  0  0  0
  140.6696   80.5917  219.9152 H   0  0  0  0  0  0  0  0  0  0  0  0
  142.3197   77.1974  220.6343 H   0  0  0  0  0  0  0  0  0  0  0  0
  1  2  2  0
  2  3  1  0
  3  4  1  0
  4  5  1  0
  5  6  2  0
  6  7  1  0
  7  8  2  0
  8  9  1  0
  9 10  1  0
 10 11  2  0
 10 12  1  0
 12 13  1  0
 13 14  1  0
 14 15  1  0
 15 16  1  0
  9 17  2  0
  4 18  2  0
 18 19  1  0
 19 20  2  0
 20 21  1  0
 21 22  2  0
 22 23  1  0
 23 24  1  0
 24 25  1  0
 25 26  1  0
 26 27  1  0
 27 28  1  0
 22 29  1  0
 29 30  2  0
 30  2  1  0
 17  5  1  0
 30 19  1  0
 16 12  1  0
 28 23  1  0
  3 31  1  0
  3 32  1  0
  6 33  1  0
  7 34  1  0
  8 35  1  0
 13 36  1  0
 13 37  1  0
 14 38  1  0
 14 39  1  0
 15 40  1  0
 15 41  1  0
 16 42  1  0
 16 43  1  0
 17 44  1  0
 20 45  1  0
 21 46  1  0
 24 47  1  0
 24 48  1  0
 25 49  1  0
 25 50  1  0
 26 51  1  0
 26 52  1  0
 27 53  1  0
 27 54  1  0
 28 55  1  0
 28 56  1  0
 29 57  1  0
M  END
>  <smiles>  (7) 
O=C1CC(c2cccc(C(=O)N3CCCC3)c2)=Nc2ccc(N3CCCCC3)cc21

>  <score_type>  (7) 
oracle

>  <origin>  (7) 
autodockgpu

>  <m_score__min__energy>  (7) 
-9.2599999999999998

>  <m_primary>  (7) 
energy

>  <rmsd>  (7) 
5.972784100752359

>  <m_score__min__rmsd>  (7) 
5.972784100752359

>  <meeko>  (7) 
{"free_energy": -9.17, "intermolecular_energy": -10.06, "internal_energy": -0.85, "cluster_size": 50, "cluster_id": 1, "rank_in_cluster": 29}

>  <energy>  (7) 
-9.25

>  <cluster_rmsd>  (7) 
0.03

>  <cluster>  (7) 
1

$$$$

     RDKit          3D

 57 61  0  0  0  0  0  0  0  0999 V2000
  142.7460   75.1630  220.5170 O   0  0  0  0  0  0  0  0  0  0  0  0
  141.7030   74.7420  221.1050 C   0  0  0  0  0  0  0  0  0  0  0  0
  141.5420   73.2780  221.2200 C   0  0  0  0  0  0  0  0  0  0  0  0
  140.2740   72.9830  221.9290 C   0  0  0  0  0  0  0  0  0  0  0  0
  139.9070   71.5690  222.1620 C   0  0  0  0  0  0  0  0  0  0  0  0
  139.5500   70.7850  221.0620 C   0  0  0  0  0  0  0  0  0  0  0  0
  139.1940   69.4550  221.2510 C   0  0  0  0  0  0  0  0  0  0  0  0
  139.1930   68.9150  222.5180 C   0  0  0  0  0  0  0  0  0  0  0  0
  139.5480   69.6960  223.6180 C   0  0  0  0  0  0  0  0  0  0  0  0
  139.5220   69.0420  224.9130 C   0  0  0  0  0  0  0  0  0  0  0  0
  138.8970   67.9310  224.9670 O   0  0  0  0  0  0  0  0  0  0  0  0
  140.1490   69.5860  226.0780 N   0  0  0  0  0  0  0  0  0  0  0  0
  140.8890   70.8290  226.1760 C   0  0  0  0  0  0  0  0  0  0  0  0
  140.8190   71.1710  227.6320 C   0  0  0  0  0  0  0  0  0  0  0  0
  139.9440   70.1360  228.3020 C   0  0  0  0  0  0  0  0  0  0  0  0
  140.1330   68.9390  227.3790 C   0  0  0  0  0  0  0  0  0  0  0  0
  139.9020   71.0150  223.4250 C   0  0  0  0  0  0  0  0  0  0  0  0
  139.4600   73.8640  222.3660 N   0  0  0  0  0  0  0  0  0  0  0  0
  139.6170   75.2700  222.2550 C   0  0  0  0  0  0  0  0  0  0  0  0
  138.6970   76.1550  222.7560 C   0  0  0  0  0  0  0  0  0  0  0  0
  138.8950   77.5140  222.6270 C   0  0  0  0  0  0  0  0  0  0  0  0
  140.0320   77.9940  221.9890 C   0  0  0  0  0  0  0  0  0  0  0  0
  140.2270   79.4000  221.8690 N   0  0  0  0  0  0  0  0  0  0  0  0
  140.5250   80.0590  220.6140 C   0  0  0  0  0  0  0  0  0  0  0  0
  141.8220   80.8150  220.7970 C   0  0  0  0  0  0  0  0  0  0  0  0
  141.7940   81.6510  222.0360 C   0  0  0  0  0  0  0  0  0  0  0  0
  141.4730   80.8570  223.2810 C   0  0  0  0  0  0  0  0  0  0  0  0
  140.1230   80.1940  223.0800 C   0  0  0  0  0  0  0  0  0  0  0  0
  140.9610   77.0870  221.4830 C   0  0  0  0  0  0  0  0  0  0  0  0
  140.7560   75.7180  221.6150 C   0  0  0  0  0  0  0  0  0  0  0  0
  141.5149   72.8305  220.2155 H   0  0  0  0  0  0  0  0  0  0  0  0
  142.3877   72.8555  221.7824 H   0  0  0  0  0  0  0  0  0  0  0  0
  139.5507   71.2185  220.0510 H   0  0  0  0  0  0  0  0  0  0  0  0
  138.9129   68.8332  220.3882 H   0  0  0  0  0  0  0  0  0  0  0  0
  138.9106   67.8618  222.6634 H   0  0  0  0  0  0  0  0  0  0  0  0
  141.9321   70.6906  225.8554 H   0  0  0  0  0  0  0  0  0  0  0  0
  140.4785   71.6209  225.5323 H   0  0  0  0  0  0  0  0  0  0  0  0
  141.8274   71.1510  228.0711 H   0  0  0  0  0  0  0  0  0  0  0  0
  140.4025   72.1793  227.7729 H   0  0  0  0  0  0  0  0  0  0  0  0
  140.2908   69.9158  229.3224 H   0  0  0  0  0  0  0  0  0  0  0  0
  138.8961   70.4462  228.4270 H   0  0  0  0  0  0  0  0  0  0  0  0
  141.0807   68.4188  227.5823 H   0  0  0  0  0  0  0  0  0  0  0  0
  139.3639   68.1600  227.4865 H   0  0  0  0  0  0  0  0  0  0  0  0
  140.1841   71.6333  224.2899 H   0  0  0  0  0  0  0  0  0  0  0  0
  137.7963   75.7791  223.2634 H   0  0  0  0  0  0  0  0  0  0  0  0
  138.1521   78.2183  223.0296 H   0  0  0  0  0  0  0  0  0  0  0  0
  140.6348   79.3121  219.8139 H   0  0  0  0  0  0  0  0  0  0  0  0
  139.7121   80.7447  220.3327 H   0  0  0  0  0  0  0  0  0  0  0  0
  142.6496   80.0941  220.8700 H   0  0  0  0  0  0  0  0  0  0  0  0
  141.9605   81.4807  219.9324 H   0  0  0  0  0  0  0  0  0  0  0  0
  142.7810   82.1193  222.1645 H   0  0  0  0  0  0  0  0  0  0  0  0
  140.9965   82.3979  221.9092 H   0  0  0  0  0  0  0  0  0  0  0  0
  142.2447   80.0903  223.4440 H   0  0  0  0  0  0  0  0  0  0  0  0
  141.4466   81.5185  224.1595 H   0  0  0  0  0  0  0  0  0  0  0  0
  139.8859   79.5480  223.9382 H   0  0  0  0  0  0  0  0  0  0  0  0
  139.3218   80.9430  222.9957 H   0  0  0  0  0  0  0  0  0  0  0  0
  141.8638   77.4570  220.9750 H   0  0  0  0  0  0  0  0  0  0  0  0
  1  2  2  0
  2  3  1  0
  3  4  1  0
  4  5  1  0
  5  6  2  0
  6  7  1  0
  7  8  2  0
  8  9  1  0
  9 10  1  0
 10 11  2  0
 10 12  1  0
 12 13  1  0
 13 14  1  0
 14 15  1  0
 15 16  1  0
  9 17  2  0
  4 18  2  0
 18 19  1  0
 19 20  2  0
 20 21  1  0
 21 22  2  0
 22 23  1  0
 23 24  1  0
 24 25  1  0
 25 26  1  0
 26 27  1  0
 27 28  1  0
 22 29  1  0
 29 30  2  0
 30  2  1  0
 17  5  1  0
 30 19  1  0
 16 12  1  0
 28 23  1  0
  3 31  1  0
  3 32  1  0
  6 33  1  0
  7 34  1  0
  8 35  1  0
 13 36  1  0
 13 37  1  0
 14 38  1  0
 14 39  1  0
 15 40  1  0
 15 41  1  0
 16 42  1  0
 16 43  1  0
 17 44  1  0
 20 45  1  0
 21 46  1  0
 24 47  1  0
 24 48  1  0
 25 49  1  0
 25 50  1  0
 26 51  1  0
 26 52  1  0
 27 53  1  0
 27 54  1  0
 28 55  1  0
 28 56  1  0
 29 57  1  0
M  END
>  <smiles>  (8) 
O=C1CC(c2cccc(C(=O)N3CCCC3)c2)=Nc2ccc(N3CCCCC3)cc21

>  <score_type>  (8) 
oracle

>  <origin>  (8) 
autodockgpu

>  <m_score__min__energy>  (8) 
-9.2599999999999998

>  <m_primary>  (8) 
energy

>  <rmsd>  (8) 
6.102128834921855

>  <m_score__min__rmsd>  (8) 
6.102128834921855

>  <meeko>  (8) 
{"free_energy": -9.1, "intermolecular_energy": -10.0, "internal_energy": -0.92, "cluster_size": 50, "cluster_id": 1, "rank_in_cluster": 43}

>  <energy>  (8) 
-9.25

>  <cluster_rmsd>  (8) 
0.07

>  <cluster>  (8) 
1

$$$$

     RDKit          3D

 57 61  0  0  0  0  0  0  0  0999 V2000
  142.9060   74.7710  220.3610 O   0  0  0  0  0  0  0  0  0  0  0  0
  141.8500   74.4550  220.9920 C   0  0  0  0  0  0  0  0  0  0  0  0
  141.5680   73.0140  221.1490 C   0  0  0  0  0  0  0  0  0  0  0  0
  140.3040   72.8460  221.9050 C   0  0  0  0  0  0  0  0  0  0  0  0
  139.8250   71.4750  222.1850 C   0  0  0  0  0  0  0  0  0  0  0  0
  139.2060   70.7640  221.1550 C   0  0  0  0  0  0  0  0  0  0  0  0
  138.7390   69.4760  221.3900 C   0  0  0  0  0  0  0  0  0  0  0  0
  138.8870   68.9060  222.6340 C   0  0  0  0  0  0  0  0  0  0  0  0
  139.5050   69.6140  223.6650 C   0  0  0  0  0  0  0  0  0  0  0  0
  139.6200   68.9340  224.9420 C   0  0  0  0  0  0  0  0  0  0  0  0
  139.1580   67.7450  224.9860 O   0  0  0  0  0  0  0  0  0  0  0  0
  140.2110   69.5320  226.0990 N   0  0  0  0  0  0  0  0  0  0  0  0
  140.7760   70.8630  226.2050 C   0  0  0  0  0  0  0  0  0  0  0  0
  140.7160   71.1580  227.6730 C   0  0  0  0  0  0  0  0  0  0  0  0
  140.0200   69.9960  228.3430 C   0  0  0  0  0  0  0  0  0  0  0  0
  140.3360   68.8590  227.3800 C   0  0  0  0  0  0  0  0  0  0  0  0
  139.9670   70.8920  223.4260 C   0  0  0  0  0  0  0  0  0  0  0  0
  139.5840   73.8050  222.3460 N   0  0  0  0  0  0  0  0  0  0  0  0
  139.8580   75.1880  222.1940 C   0  0  0  0  0  0  0  0  0  0  0  0
  139.0350   76.1610  222.7020 C   0  0  0  0  0  0  0  0  0  0  0  0
  139.3450   77.4940  222.5330 C   0  0  0  0  0  0  0  0  0  0  0  0
  140.4970   77.8600  221.8470 C   0  0  0  0  0  0  0  0  0  0  0  0
  140.8090   79.2400  221.6850 N   0  0  0  0  0  0  0  0  0  0  0  0
  142.1630   79.7460  221.5910 C   0  0  0  0  0  0  0  0  0  0  0  0
  142.3400   80.7720  222.6870 C   0  0  0  0  0  0  0  0  0  0  0  0
  141.2210   81.7640  222.6900 C   0  0  0  0  0  0  0  0  0  0  0  0
  139.8570   81.1220  222.7920 C   0  0  0  0  0  0  0  0  0  0  0  0
  139.6970   80.1720  221.6190 C   0  0  0  0  0  0  0  0  0  0  0  0
  141.3270   76.8640  221.3340 C   0  0  0  0  0  0  0  0  0  0  0  0
  141.0090   75.5210  221.5070 C   0  0  0  0  0  0  0  0  0  0  0  0
  141.4688   72.5480  220.1575 H   0  0  0  0  0  0  0  0  0  0  0  0
  142.3928   72.5326  221.6949 H   0  0  0  0  0  0  0  0  0  0  0  0
  139.0883   71.2213  220.1615 H   0  0  0  0  0  0  0  0  0  0  0  0
  138.2510   68.9121  220.5814 H   0  0  0  0  0  0  0  0  0  0  0  0
  138.5159   67.8866  222.8163 H   0  0  0  0  0  0  0  0  0  0  0  0
  141.8149   70.8781  225.8439 H   0  0  0  0  0  0  0  0  0  0  0  0
  140.2361   71.6050  225.5985 H   0  0  0  0  0  0  0  0  0  0  0  0
  141.7337   71.2686  228.0755 H   0  0  0  0  0  0  0  0  0  0  0  0
  140.1696   72.0947  227.8574 H   0  0  0  0  0  0  0  0  0  0  0  0
  140.4337   69.8022  229.3436 H   0  0  0  0  0  0  0  0  0  0  0  0
  138.9449   70.1543  228.5139 H   0  0  0  0  0  0  0  0  0  0  0  0
  141.3538   68.4712  227.5341 H   0  0  0  0  0  0  0  0  0  0  0  0
  139.6869   67.9781  227.4927 H   0  0  0  0  0  0  0  0  0  0  0  0
  140.4551   71.4531  224.2365 H   0  0  0  0  0  0  0  0  0  0  0  0
  138.1229   75.8763  223.2470 H   0  0  0  0  0  0  0  0  0  0  0  0
  138.6796   78.2687  222.9417 H   0  0  0  0  0  0  0  0  0  0  0  0
  142.8816   78.9242  221.7259 H   0  0  0  0  0  0  0  0  0  0  0  0
  142.3408   80.1979  220.6040 H   0  0  0  0  0  0  0  0  0  0  0  0
  142.3649   80.2573  223.6588 H   0  0  0  0  0  0  0  0  0  0  0  0
  143.2815   81.3119  222.5077 H   0  0  0  0  0  0  0  0  0  0  0  0
  141.3547   82.4393  223.5480 H   0  0  0  0  0  0  0  0  0  0  0  0
  141.2583   82.3019  221.7312 H   0  0  0  0  0  0  0  0  0  0  0  0
  139.7763   80.5651  223.7372 H   0  0  0  0  0  0  0  0  0  0  0  0
  139.0703   81.8906  222.7714 H   0  0  0  0  0  0  0  0  0  0  0  0
  138.7427   79.6304  221.6967 H   0  0  0  0  0  0  0  0  0  0  0  0
  139.6932   80.7180  220.6641 H   0  0  0  0  0  0  0  0  0  0  0  0
  142.2405   77.1425  220.7882 H   0  0  0  0  0  0  0  0  0  0  0  0
  1  2  2  0
  2  3  1  0
  3  4  1  0
  4  5  1  0
  5  6  2  0
  6  7  1  0
  7  8  2  0
  8  9  1  0
  9 10  1  0
 10 11  2  0
 10 12  1  0
 12 13  1  0
 13 14  1  0
 14 15  1  0
 15 16  1  0
  9 17  2  0
  4 18  2  0
 18 19  1  0
 19 20  2  0
 20 21  1  0
 21 22  2  0
 22 23  1  0
 23 24  1  0
 24 25  1  0
 25 26  1  0
 26 27  1  0
 27 28  1  0
 22 29  1  0
 29 30  2  0
 30  2  1  0
 17  5  1  0
 30 19  1  0
 16 12  1  0
 28 23  1  0
  3 31  1  0
  3 32  1  0
  6 33  1  0
  7 34  1  0
  8 35  1  0
 13 36  1  0
 13 37  1  0
 14 38  1  0
 14 39  1  0
 15 40  1  0
 15 41  1  0
 16 42  1  0
 16 43  1  0
 17 44  1  0
 20 45  1  0
 21 46  1  0
 24 47  1  0
 24 48  1  0
 25 49  1  0
 25 50  1  0
 26 51  1  0
 26 52  1  0
 27 53  1  0
 27 54  1  0
 28 55  1  0
 28 56  1  0
 29 57  1  0
M  END
>  <smiles>  (9) 
O=C1CC(c2cccc(C(=O)N3CCCC3)c2)=Nc2ccc(N3CCCCC3)cc21

>  <score_type>  (9) 
oracle

>  <origin>  (9) 
autodockgpu

>  <m_score__min__energy>  (9) 
-9.2599999999999998

>  <m_primary>  (9) 
energy

>  <rmsd>  (9) 
6.121009914833412

>  <m_score__min__rmsd>  (9) 
6.121009914833412

>  <meeko>  (9) 
{"free_energy": -9.2, "intermolecular_energy": -10.1, "internal_energy": -0.86, "cluster_size": 50, "cluster_id": 1, "rank_in_cluster": 21}

>  <energy>  (9) 
-9.25

>  <cluster_rmsd>  (9) 
0.08

>  <cluster>  (9) 
1

$$$$

     RDKit          3D

 57 61  0  0  0  0  0  0  0  0999 V2000
  142.8490   74.8430  220.4550 O   0  0  0  0  0  0  0  0  0  0  0  0
  141.7860   74.4930  221.0560 C   0  0  0  0  0  0  0  0  0  0  0  0
  141.5450   73.0440  221.2010 C   0  0  0  0  0  0  0  0  0  0  0  0
  140.2650   72.8350  221.9220 C   0  0  0  0  0  0  0  0  0  0  0  0
  139.8210   71.4480  222.1850 C   0  0  0  0  0  0  0  0  0  0  0  0
  139.2610   70.7190  221.1330 C   0  0  0  0  0  0  0  0  0  0  0  0
  138.8290   69.4170  221.3520 C   0  0  0  0  0  0  0  0  0  0  0  0
  138.9510   68.8510  222.6020 C   0  0  0  0  0  0  0  0  0  0  0  0
  139.5080   69.5770  223.6540 C   0  0  0  0  0  0  0  0  0  0  0  0
  139.6000   68.9000  224.9340 C   0  0  0  0  0  0  0  0  0  0  0  0
  139.1370   67.7120  224.9730 O   0  0  0  0  0  0  0  0  0  0  0  0
  140.1690   69.5020  226.1000 N   0  0  0  0  0  0  0  0  0  0  0  0
  140.7310   70.8330  226.2140 C   0  0  0  0  0  0  0  0  0  0  0  0
  140.6430   71.1320  227.6790 C   0  0  0  0  0  0  0  0  0  0  0  0
  139.9350   69.9720  228.3400 C   0  0  0  0  0  0  0  0  0  0  0  0
  140.2700   68.8320  227.3850 C   0  0  0  0  0  0  0  0  0  0  0  0
  139.9370   70.8690  223.4310 C   0  0  0  0  0  0  0  0  0  0  0  0
  139.5040   73.7690  222.3440 N   0  0  0  0  0  0  0  0  0  0  0  0
  139.7390   75.1610  222.2030 C   0  0  0  0  0  0  0  0  0  0  0  0
  138.8730   76.1070  222.6890 C   0  0  0  0  0  0  0  0  0  0  0  0
  139.1470   77.4490  222.5320 C   0  0  0  0  0  0  0  0  0  0  0  0
  140.3050   77.8520  221.8790 C   0  0  0  0  0  0  0  0  0  0  0  0
  140.5790   79.2410  221.7300 N   0  0  0  0  0  0  0  0  0  0  0  0
  141.7950   79.7550  221.1320 C   0  0  0  0  0  0  0  0  0  0  0  0
  142.4470   80.6670  222.1470 C   0  0  0  0  0  0  0  0  0  0  0  0
  141.4690   81.6540  222.7000 C   0  0  0  0  0  0  0  0  0  0  0  0
  140.2410   81.0040  223.2950 C   0  0  0  0  0  0  0  0  0  0  0  0
  139.5760   80.1750  222.2120 C   0  0  0  0  0  0  0  0  0  0  0  0
  141.1800   76.8840  221.3890 C   0  0  0  0  0  0  0  0  0  0  0  0
  140.8990   75.5310  221.5500 C   0  0  0  0  0  0  0  0  0  0  0  0
  141.4876   72.5786  220.2059 H   0  0  0  0  0  0  0  0  0  0  0  0
  142.3690   72.5859  221.7678 H   0  0  0  0  0  0  0  0  0  0  0  0
  139.1626   71.1737  220.1362 H   0  0  0  0  0  0  0  0  0  0  0  0
  138.3892   68.8376  220.5268 H   0  0  0  0  0  0  0  0  0  0  0  0
  138.6069   67.8200  222.7712 H   0  0  0  0  0  0  0  0  0  0  0  0
  141.7767   70.8477  225.8729 H   0  0  0  0  0  0  0  0  0  0  0  0
  140.2021   71.5732  225.5956 H   0  0  0  0  0  0  0  0  0  0  0  0
  141.6529   71.2444  228.1003 H   0  0  0  0  0  0  0  0  0  0  0  0
  140.0925   72.0689  227.8498 H   0  0  0  0  0  0  0  0  0  0  0  0
  140.3303   69.7813  229.3487 H   0  0  0  0  0  0  0  0  0  0  0  0
  138.8570   70.1301  228.4912 H   0  0  0  0  0  0  0  0  0  0  0  0
  141.2849   68.4451  227.5593 H   0  0  0  0  0  0  0  0  0  0  0  0
  139.6192   67.9511  227.4874 H   0  0  0  0  0  0  0  0  0  0  0  0
  140.3775   71.4450  224.2582 H   0  0  0  0  0  0  0  0  0  0  0  0
  137.9547   75.7932  223.2069 H   0  0  0  0  0  0  0  0  0  0  0  0
  138.4476   78.2018  222.9244 H   0  0  0  0  0  0  0  0  0  0  0  0
  142.4719   78.9244  220.8831 H   0  0  0  0  0  0  0  0  0  0  0  0
  141.5707   80.3028  220.2049 H   0  0  0  0  0  0  0  0  0  0  0  0
  142.8460   80.0579  222.9715 H   0  0  0  0  0  0  0  0  0  0  0  0
  143.2540   81.2220  221.6463 H   0  0  0  0  0  0  0  0  0  0  0  0
  141.9694   82.2403  223.4847 H   0  0  0  0  0  0  0  0  0  0  0  0
  141.1329   82.2854  221.8643 H   0  0  0  0  0  0  0  0  0  0  0  0
  140.5318   80.3561  224.1350 H   0  0  0  0  0  0  0  0  0  0  0  0
  139.5466   81.7709  223.6688 H   0  0  0  0  0  0  0  0  0  0  0  0
  138.7163   79.6282  222.6266 H   0  0  0  0  0  0  0  0  0  0  0  0
  139.2032   80.8126  221.3969 H   0  0  0  0  0  0  0  0  0  0  0  0
  142.1000   77.1923  220.8709 H   0  0  0  0  0  0  0  0  0  0  0  0
  1  2  2  0
  2  3  1  0
  3  4  1  0
  4  5  1  0
  5  6  2  0
  6  7  1  0
  7  8  2  0
  8  9  1  0
  9 10  1  0
 10 11  2  0
 10 12  1  0
 12 13  1  0
 13 14  1  0
 14 15  1  0
 15 16  1  0
  9 17  2  0
  4 18  2  0
 18 19  1  0
 19 20  2  0
 20 21  1  0
 21 22  2  0
 22 23  1  0
 23 24  1  0
 24 25  1  0
 25 26  1  0
 26 27  1  0
 27 28  1  0
 22 29  1  0
 29 30  2  0
 30  2  1  0
 17  5  1  0
 30 19  1  0
 16 12  1  0
 28 23  1  0
  3 31  1  0
  3 32  1  0
  6 33  1  0
  7 34  1  0
  8 35  1  0
 13 36  1  0
 13 37  1  0
 14 38  1  0
 14 39  1  0
 15 40  1  0
 15 41  1  0
 16 42  1  0
 16 43  1  0
 17 44  1  0
 20 45  1  0
 21 46  1  0
 24 47  1  0
 24 48  1  0
 25 49  1  0
 25 50  1  0
 26 51  1  0
 26 52  1  0
 27 53  1  0
 27 54  1  0
 28 55  1  0
 28 56  1  0
 29 57  1  0
M  END
>  <smiles>  (10) 
O=C1CC(c2cccc(C(=O)N3CCCC3)c2)=Nc2ccc(N3CCCCC3)cc21

>  <score_type>  (10) 
oracle

>  <origin>  (10) 
autodockgpu

>  <m_score__min__energy>  (10) 
-9.2599999999999998

>  <m_primary>  (10) 
energy

>  <rmsd>  (10) 
6.166720345798196

>  <m_score__min__rmsd>  (10) 
6.166720345798196

>  <meeko>  (10) 
{"free_energy": -9.26, "intermolecular_energy": -10.15, "internal_energy": -0.86, "cluster_size": 50, "cluster_id": 1, "rank_in_cluster": 3}

>  <energy>  (10) 
-9.25

>  <cluster_rmsd>  (10) 
0.07

>  <cluster>  (10) 
1

$$$$

     RDKit          3D

 57 61  0  0  0  0  0  0  0  0999 V2000
  142.7770   75.0320  220.5420 O   0  0  0  0  0  0  0  0  0  0  0  0
  141.7170   74.6400  221.1220 C   0  0  0  0  0  0  0  0  0  0  0  0
  141.5240   73.1810  221.2500 C   0  0  0  0  0  0  0  0  0  0  0  0
  140.2420   72.9210  221.9480 C   0  0  0  0  0  0  0  0  0  0  0  0
  139.8420   71.5180  222.1920 C   0  0  0  0  0  0  0  0  0  0  0  0
  139.3430   70.7730  221.1200 C   0  0  0  0  0  0  0  0  0  0  0  0
  138.9530   69.4550  221.3200 C   0  0  0  0  0  0  0  0  0  0  0  0
  139.0570   68.8870  222.5700 C   0  0  0  0  0  0  0  0  0  0  0  0
  139.5540   69.6290  223.6420 C   0  0  0  0  0  0  0  0  0  0  0  0
  139.6320   68.9490  224.9220 C   0  0  0  0  0  0  0  0  0  0  0  0
  139.1590   67.7640  224.9550 O   0  0  0  0  0  0  0  0  0  0  0  0
  140.1980   69.5440  226.0930 N   0  0  0  0  0  0  0  0  0  0  0  0
  140.7690   70.8710  226.2130 C   0  0  0  0  0  0  0  0  0  0  0  0
  140.6740   71.1670  227.6780 C   0  0  0  0  0  0  0  0  0  0  0  0
  139.9530   70.0120  228.3310 C   0  0  0  0  0  0  0  0  0  0  0  0
  140.2850   68.8710  227.3770 C   0  0  0  0  0  0  0  0  0  0  0  0
  139.9410   70.9370  223.4380 C   0  0  0  0  0  0  0  0  0  0  0  0
  139.4420   73.8250  222.3660 N   0  0  0  0  0  0  0  0  0  0  0  0
  139.6300   75.2250  222.2420 C   0  0  0  0  0  0  0  0  0  0  0  0
  138.7240   76.1360  222.7220 C   0  0  0  0  0  0  0  0  0  0  0  0
  138.9530   77.4880  222.5810 C   0  0  0  0  0  0  0  0  0  0  0  0
  140.1070   77.9370  221.9510 C   0  0  0  0  0  0  0  0  0  0  0  0
  140.3340   79.3370  221.8190 N   0  0  0  0  0  0  0  0  0  0  0  0
  141.0880   79.9230  220.7290 C   0  0  0  0  0  0  0  0  0  0  0  0
  142.2180   80.7210  221.3400 C   0  0  0  0  0  0  0  0  0  0  0  0
  141.7200   81.6330  222.4150 C   0  0  0  0  0  0  0  0  0  0  0  0
  140.9480   80.9120  223.4950 C   0  0  0  0  0  0  0  0  0  0  0  0
  139.7760   80.2040  222.8410 C   0  0  0  0  0  0  0  0  0  0  0  0
  141.0220   77.0050  221.4660 C   0  0  0  0  0  0  0  0  0  0  0  0
  140.7860   75.6410  221.6100 C   0  0  0  0  0  0  0  0  0  0  0  0
  141.4984   72.7236  220.2499 H   0  0  0  0  0  0  0  0  0  0  0  0
  142.3544   72.7463  221.8257 H   0  0  0  0  0  0  0  0  0  0  0  0
  139.2595   71.2284  220.1222 H   0  0  0  0  0  0  0  0  0  0  0  0
  138.5607   68.8644  220.4790 H   0  0  0  0  0  0  0  0  0  0  0  0
  138.7467   67.8430  222.7242 H   0  0  0  0  0  0  0  0  0  0  0  0
  141.8168   70.8789  225.8783 H   0  0  0  0  0  0  0  0  0  0  0  0
  140.2495   71.6164  225.5929 H   0  0  0  0  0  0  0  0  0  0  0  0
  141.6820   71.2702  228.1060 H   0  0  0  0  0  0  0  0  0  0  0  0
  140.1299   72.1078  227.8477 H   0  0  0  0  0  0  0  0  0  0  0  0
  140.3398   69.8164  229.3420 H   0  0  0  0  0  0  0  0  0  0  0  0
  138.8752   70.1785  228.4745 H   0  0  0  0  0  0  0  0  0  0  0  0
  141.2955   68.4755  227.5574 H   0  0  0  0  0  0  0  0  0  0  0  0
  139.6267   67.9951  227.4736 H   0  0  0  0  0  0  0  0  0  0  0  0
  140.3339   71.5244  224.2810 H   0  0  0  0  0  0  0  0  0  0  0  0
  137.8092   75.7857  223.2224 H   0  0  0  0  0  0  0  0  0  0  0  0
  138.2211   78.2123  222.9678 H   0  0  0  0  0  0  0  0  0  0  0  0
  141.4936   79.1302  220.0832 H   0  0  0  0  0  0  0  0  0  0  0  0
  140.4442   80.5688  220.1138 H   0  0  0  0  0  0  0  0  0  0  0  0
  142.9543   80.0270  221.7716 H   0  0  0  0  0  0  0  0  0  0  0  0
  142.6770   81.3337  220.5501 H   0  0  0  0  0  0  0  0  0  0  0  0
  142.5837   82.1334  222.8771 H   0  0  0  0  0  0  0  0  0  0  0  0
  141.0316   82.3498  221.9434 H   0  0  0  0  0  0  0  0  0  0  0  0
  141.5985   80.1767  223.9912 H   0  0  0  0  0  0  0  0  0  0  0  0
  140.5893   81.6269  224.2502 H   0  0  0  0  0  0  0  0  0  0  0  0
  139.2282   79.6086  223.5863 H   0  0  0  0  0  0  0  0  0  0  0  0
  139.0685   80.9256  222.4065 H   0  0  0  0  0  0  0  0  0  0  0  0
  141.9385   77.3501  220.9651 H   0  0  0  0  0  0  0  0  0  0  0  0
  1  2  2  0
  2  3  1  0
  3  4  1  0
  4  5  1  0
  5  6  2  0
  6  7  1  0
  7  8  2  0
  8  9  1  0
  9 10  1  0
 10 11  2  0
 10 12  1  0
 12 13  1  0
 13 14  1  0
 14 15  1  0
 15 16  1  0
  9 17  2  0
  4 18  2  0
 18 19  1  0
 19 20  2  0
 20 21  1  0
 21 22  2  0
 22 23  1  0
 23 24  1  0
 24 25  1  0
 25 26  1  0
 26 27  1  0
 27 28  1  0
 22 29  1  0
 29 30  2  0
 30  2  1  0
 17  5  1  0
 30 19  1  0
 16 12  1  0
 28 23  1  0
  3 31  1  0
  3 32  1  0
  6 33  1  0
  7 34  1  0
  8 35  1  0
 13 36  1  0
 13 37  1  0
 14 38  1  0
 14 39  1  0
 15 40  1  0
 15 41  1  0
 16 42  1  0
 16 43  1  0
 17 44  1  0
 20 45  1  0
 21 46  1  0
 24 47  1  0
 24 48  1  0
 25 49  1  0
 25 50  1  0
 26 51  1  0
 26 52  1  0
 27 53  1  0
 27 54  1  0
 28 55  1  0
 28 56  1  0
 29 57  1  0
M  END
>  <smiles>  (11) 
O=C1CC(c2cccc(C(=O)N3CCCC3)c2)=Nc2ccc(N3CCCCC3)cc21

>  <score_type>  (11) 
oracle

>  <origin>  (11) 
autodockgpu

>  <m_score__min__energy>  (11) 
-9.2599999999999998

>  <m_primary>  (11) 
energy

>  <rmsd>  (11) 
6.157207655808897

>  <m_score__min__rmsd>  (11) 
6.157207655808897

>  <meeko>  (11) 
{"free_energy": -9.17, "intermolecular_energy": -10.06, "internal_energy": -0.88, "cluster_size": 50, "cluster_id": 1, "rank_in_cluster": 31}

>  <energy>  (11) 
-9.25

>  <cluster_rmsd>  (11) 
0.05

>  <cluster>  (11) 
1

$$$$

     RDKit          3D

 57 61  0  0  0  0  0  0  0  0999 V2000
  142.8800   74.8530  220.4120 O   0  0  0  0  0  0  0  0  0  0  0  0
  141.8280   74.4920  221.0270 C   0  0  0  0  0  0  0  0  0  0  0  0
  141.5990   73.0400  221.1670 C   0  0  0  0  0  0  0  0  0  0  0  0
  140.3320   72.8170  221.9060 C   0  0  0  0  0  0  0  0  0  0  0  0
  139.9010   71.4260  222.1670 C   0  0  0  0  0  0  0  0  0  0  0  0
  139.4500   70.6570  221.0910 C   0  0  0  0  0  0  0  0  0  0  0  0
  139.0330   69.3500  221.3070 C   0  0  0  0  0  0  0  0  0  0  0  0
  139.0630   68.8170  222.5760 C   0  0  0  0  0  0  0  0  0  0  0  0
  139.5120   69.5830  223.6520 C   0  0  0  0  0  0  0  0  0  0  0  0
  139.5130   68.9390  224.9530 C   0  0  0  0  0  0  0  0  0  0  0  0
  138.9320   67.8040  225.0150 O   0  0  0  0  0  0  0  0  0  0  0  0
  140.1190   69.5160  226.1130 N   0  0  0  0  0  0  0  0  0  0  0  0
  140.8090   70.7870  226.2010 C   0  0  0  0  0  0  0  0  0  0  0  0
  140.7260   71.1370  227.6550 C   0  0  0  0  0  0  0  0  0  0  0  0
  139.8940   70.0740  228.3330 C   0  0  0  0  0  0  0  0  0  0  0  0
  140.1290   68.8780  227.4180 C   0  0  0  0  0  0  0  0  0  0  0  0
  139.9270   70.8800  223.4330 C   0  0  0  0  0  0  0  0  0  0  0  0
  139.5710   73.7440  222.3460 N   0  0  0  0  0  0  0  0  0  0  0  0
  139.7950   75.1380  222.2110 C   0  0  0  0  0  0  0  0  0  0  0  0
  138.9300   76.0750  222.7160 C   0  0  0  0  0  0  0  0  0  0  0  0
  139.1920   77.4200  222.5630 C   0  0  0  0  0  0  0  0  0  0  0  0
  140.3380   77.8350  221.8960 C   0  0  0  0  0  0  0  0  0  0  0  0
  140.6000   79.2270  221.7510 N   0  0  0  0  0  0  0  0  0  0  0  0
  141.7950   79.7530  221.1240 C   0  0  0  0  0  0  0  0  0  0  0  0
  142.4710   80.6590  222.1280 C   0  0  0  0  0  0  0  0  0  0  0  0
  141.5040   81.6360  222.7170 C   0  0  0  0  0  0  0  0  0  0  0  0
  140.2970   80.9740  223.3410 C   0  0  0  0  0  0  0  0  0  0  0  0
  139.6060   80.1510  222.2700 C   0  0  0  0  0  0  0  0  0  0  0  0
  141.2110   76.8760  221.3850 C   0  0  0  0  0  0  0  0  0  0  0  0
  140.9420   75.5200  221.5420 C   0  0  0  0  0  0  0  0  0  0  0  0
  141.5297   72.5803  220.1701 H   0  0  0  0  0  0  0  0  0  0  0  0
  142.4347   72.5847  221.7187 H   0  0  0  0  0  0  0  0  0  0  0  0
  139.4254   71.0847  220.0779 H   0  0  0  0  0  0  0  0  0  0  0  0
  138.6783   68.7399  220.4632 H   0  0  0  0  0  0  0  0  0  0  0  0
  138.7311   67.7815  222.7424 H   0  0  0  0  0  0  0  0  0  0  0  0
  141.8567   70.6874  225.8808 H   0  0  0  0  0  0  0  0  0  0  0  0
  140.3675   71.5573  225.5516 H   0  0  0  0  0  0  0  0  0  0  0  0
  141.7346   71.1605  228.0935 H   0  0  0  0  0  0  0  0  0  0  0  0
  140.2696   72.1289  227.7885 H   0  0  0  0  0  0  0  0  0  0  0  0
  140.2503   69.8751  229.3545 H   0  0  0  0  0  0  0  0  0  0  0  0
  138.8348   70.3436  228.4571 H   0  0  0  0  0  0  0  0  0  0  0  0
  141.0963   68.3965  227.6241 H   0  0  0  0  0  0  0  0  0  0  0  0
  139.3910   68.0702  227.5317 H   0  0  0  0  0  0  0  0  0  0  0  0
  140.2832   71.4864  224.2788 H   0  0  0  0  0  0  0  0  0  0  0  0
  138.0220   75.7516  223.2461 H   0  0  0  0  0  0  0  0  0  0  0  0
  138.4928   78.1655  222.9696 H   0  0  0  0  0  0  0  0  0  0  0  0
  142.4689   78.9285  220.8481 H   0  0  0  0  0  0  0  0  0  0  0  0
  141.5412   80.3082  220.2090 H   0  0  0  0  0  0  0  0  0  0  0  0
  142.8961   80.0447  222.9355 H   0  0  0  0  0  0  0  0  0  0  0  0
  143.2610   81.2224  221.6099 H   0  0  0  0  0  0  0  0  0  0  0  0
  142.0235   82.2185  223.4922 H   0  0  0  0  0  0  0  0  0  0  0  0
  141.1410   82.2727  221.8967 H   0  0  0  0  0  0  0  0  0  0  0  0
  140.6151   80.3203  224.1665 H   0  0  0  0  0  0  0  0  0  0  0  0
  139.6095   81.7336  223.7414 H   0  0  0  0  0  0  0  0  0  0  0  0
  138.7615   79.5956  222.7039 H   0  0  0  0  0  0  0  0  0  0  0  0
  139.2066   80.7938  221.4717 H   0  0  0  0  0  0  0  0  0  0  0  0
  142.1200   77.1939  220.8533 H   0  0  0  0  0  0  0  0  0  0  0  0
  1  2  2  0
  2  3  1  0
  3  4  1  0
  4  5  1  0
  5  6  2  0
  6  7  1  0
  7  8  2  0
  8  9  1  0
  9 10  1  0
 10 11  2  0
 10 12  1  0
 12 13  1  0
 13 14  1  0
 14 15  1  0
 15 16  1  0
  9 17  2  0
  4 18  2  0
 18 19  1  0
 19 20  2  0
 20 21  1  0
 21 22  2  0
 22 23  1  0
 23 24  1  0
 24 25  1  0
 25 26  1  0
 26 27  1  0
 27 28  1  0
 22 29  1  0
 29 30  2  0
 30  2  1  0
 17  5  1  0
 30 19  1  0
 16 12  1  0
 28 23  1  0
  3 31  1  0
  3 32  1  0
  6 33  1  0
  7 34  1  0
  8 35  1  0
 13 36  1  0
 13 37  1  0
 14 38  1  0
 14 39  1  0
 15 40  1  0
 15 41  1  0
 16 42  1  0
 16 43  1  0
 17 44  1  0
 20 45  1  0
 21 46  1  0
 24 47  1  0
 24 48  1  0
 25 49  1  0
 25 50  1  0
 26 51  1  0
 26 52  1  0
 27 53  1  0
 27 54  1  0
 28 55  1  0
 28 56  1  0
 29 57  1  0
M  END
>  <smiles>  (12) 
O=C1CC(c2cccc(C(=O)N3CCCC3)c2)=Nc2ccc(N3CCCCC3)cc21

>  <score_type>  (12) 
oracle

>  <origin>  (12) 
autodockgpu

>  <m_score__min__energy>  (12) 
-9.2599999999999998

>  <m_primary>  (12) 
energy

>  <rmsd>  (12) 
6.175846093327418

>  <m_score__min__rmsd>  (12) 
6.175846093327418

>  <meeko>  (12) 
{"free_energy": -9.23, "intermolecular_energy": -10.12, "internal_energy": -0.89, "cluster_size": 50, "cluster_id": 1, "rank_in_cluster": 19}

>  <energy>  (12) 
-9.25

>  <cluster_rmsd>  (12) 
0.05

>  <cluster>  (12) 
1

$$$$

     RDKit          3D

 57 61  0  0  0  0  0  0  0  0999 V2000
  142.9020   74.8650  220.4320 O   0  0  0  0  0  0  0  0  0  0  0  0
  141.8440   74.5070  221.0380 C   0  0  0  0  0  0  0  0  0  0  0  0
  141.6130   73.0560  221.1840 C   0  0  0  0  0  0  0  0  0  0  0  0
  140.3390   72.8380  221.9110 C   0  0  0  0  0  0  0  0  0  0  0  0
  139.9060   71.4480  222.1760 C   0  0  0  0  0  0  0  0  0  0  0  0
  139.4160   70.6900  221.1090 C   0  0  0  0  0  0  0  0  0  0  0  0
  138.9950   69.3850  221.3290 C   0  0  0  0  0  0  0  0  0  0  0  0
  139.0600   68.8430  222.5930 C   0  0  0  0  0  0  0  0  0  0  0  0
  139.5470   69.5980  223.6600 C   0  0  0  0  0  0  0  0  0  0  0  0
  139.5820   68.9450  224.9550 C   0  0  0  0  0  0  0  0  0  0  0  0
  139.0560   67.7840  225.0110 O   0  0  0  0  0  0  0  0  0  0  0  0
  140.1640   69.5400  226.1180 N   0  0  0  0  0  0  0  0  0  0  0  0
  140.7940   70.8420  226.2140 C   0  0  0  0  0  0  0  0  0  0  0  0
  140.7000   71.1770  227.6710 C   0  0  0  0  0  0  0  0  0  0  0  0
  139.9200   70.0700  228.3430 C   0  0  0  0  0  0  0  0  0  0  0  0
  140.2090   68.8940  227.4180 C   0  0  0  0  0  0  0  0  0  0  0  0
  139.9650   70.8930  223.4360 C   0  0  0  0  0  0  0  0  0  0  0  0
  139.5740   73.7670  222.3380 N   0  0  0  0  0  0  0  0  0  0  0  0
  139.7990   75.1610  222.1970 C   0  0  0  0  0  0  0  0  0  0  0  0
  138.9290   76.1000  222.6890 C   0  0  0  0  0  0  0  0  0  0  0  0
  139.1930   77.4440  222.5310 C   0  0  0  0  0  0  0  0  0  0  0  0
  140.3450   77.8550  221.8730 C   0  0  0  0  0  0  0  0  0  0  0  0
  140.6090   79.2470  221.7230 N   0  0  0  0  0  0  0  0  0  0  0  0
  141.7980   79.7690  221.0820 C   0  0  0  0  0  0  0  0  0  0  0  0
  142.4870   80.6750  222.0770 C   0  0  0  0  0  0  0  0  0  0  0  0
  141.5290   81.6550  222.6750 C   0  0  0  0  0  0  0  0  0  0  0  0
  140.3270   80.9970  223.3130 C   0  0  0  0  0  0  0  0  0  0  0  0
  139.6230   80.1740  222.2500 C   0  0  0  0  0  0  0  0  0  0  0  0
  141.2240   76.8940  221.3760 C   0  0  0  0  0  0  0  0  0  0  0  0
  140.9520   75.5390  221.5380 C   0  0  0  0  0  0  0  0  0  0  0  0
  141.5536   72.5905  220.1891 H   0  0  0  0  0  0  0  0  0  0  0  0
  142.4428   72.6035  221.7467 H   0  0  0  0  0  0  0  0  0  0  0  0
  139.3640   71.1249  220.0999 H   0  0  0  0  0  0  0  0  0  0  0  0
  138.6092   68.7837  220.4925 H   0  0  0  0  0  0  0  0  0  0  0  0
  138.7260   67.8087  222.7624 H   0  0  0  0  0  0  0  0  0  0  0  0
  141.8440   70.7943  225.8897 H   0  0  0  0  0  0  0  0  0  0  0  0
  140.3142   71.5955  225.5721 H   0  0  0  0  0  0  0  0  0  0  0  0
  141.7078   71.2441  228.1066 H   0  0  0  0  0  0  0  0  0  0  0  0
  140.1988   72.1457  227.8140 H   0  0  0  0  0  0  0  0  0  0  0  0
  140.2878   69.8801  229.3621 H   0  0  0  0  0  0  0  0  0  0  0  0
  138.8496   70.2883  228.4717 H   0  0  0  0  0  0  0  0  0  0  0  0
  141.1990   68.4581  227.6175 H   0  0  0  0  0  0  0  0  0  0  0  0
  139.5108   68.0511  227.5277 H   0  0  0  0  0  0  0  0  0  0  0  0
  140.3508   71.4912  224.2747 H   0  0  0  0  0  0  0  0  0  0  0  0
  138.0161   75.7794  223.2122 H   0  0  0  0  0  0  0  0  0  0  0  0
  138.4901   78.1919  222.9267 H   0  0  0  0  0  0  0  0  0  0  0  0
  142.4669   78.9425  220.8001 H   0  0  0  0  0  0  0  0  0  0  0  0
  141.5355   80.3232  220.1688 H   0  0  0  0  0  0  0  0  0  0  0  0
  142.9196   80.0610  222.8807 H   0  0  0  0  0  0  0  0  0  0  0  0
  143.2725   81.2358  221.5493 H   0  0  0  0  0  0  0  0  0  0  0  0
  142.0583   82.2372  223.4437 H   0  0  0  0  0  0  0  0  0  0  0  0
  141.1587   82.2914  221.8578 H   0  0  0  0  0  0  0  0  0  0  0  0
  140.6522   80.3438  224.1362 H   0  0  0  0  0  0  0  0  0  0  0  0
  139.6456   81.7587  223.7198 H   0  0  0  0  0  0  0  0  0  0  0  0
  138.7813   79.6216  222.6932 H   0  0  0  0  0  0  0  0  0  0  0  0
  139.2174   80.8165  221.4546 H   0  0  0  0  0  0  0  0  0  0  0  0
  142.1387   77.2089  220.8523 H   0  0  0  0  0  0  0  0  0  0  0  0
  1  2  2  0
  2  3  1  0
  3  4  1  0
  4  5  1  0
  5  6  2  0
  6  7  1  0
  7  8  2  0
  8  9  1  0
  9 10  1  0
 10 11  2  0
 10 12  1  0
 12 13  1  0
 13 14  1  0
 14 15  1  0
 15 16  1  0
  9 17  2  0
  4 18  2  0
 18 19  1  0
 19 20  2  0
 20 21  1  0
 21 22  2  0
 22 23  1  0
 23 24  1  0
 24 25  1  0
 25 26  1  0
 26 27  1  0
 27 28  1  0
 22 29  1  0
 29 30  2  0
 30  2  1  0
 17  5  1  0
 30 19  1  0
 16 12  1  0
 28 23  1  0
  3 31  1  0
  3 32  1  0
  6 33  1  0
  7 34  1  0
  8 35  1  0
 13 36  1  0
 13 37  1  0
 14 38  1  0
 14 39  1  0
 15 40  1  0
 15 41  1  0
 16 42  1  0
 16 43  1  0
 17 44  1  0
 20 45  1  0
 21 46  1  0
 24 47  1  0
 24 48  1  0
 25 49  1  0
 25 50  1  0
 26 51  1  0
 26 52  1  0
 27 53  1  0
 27 54  1  0
 28 55  1  0
 28 56  1  0
 29 57  1  0
M  END
>  <smiles>  (13) 
O=C1CC(c2cccc(C(=O)N3CCCC3)c2)=Nc2ccc(N3CCCCC3)cc21

>  <score_type>  (13) 
oracle

>  <origin>  (13) 
autodockgpu

>  <m_score__min__energy>  (13) 
-9.2599999999999998

>  <m_primary>  (13) 
energy

>  <rmsd>  (13) 
6.167359872322728

>  <m_score__min__rmsd>  (13) 
6.167359872322728

>  <meeko>  (13) 
{"free_energy": -9.25, "intermolecular_energy": -10.14, "internal_energy": -0.87, "cluster_size": 50, "cluster_id": 1, "rank_in_cluster": 14}

>  <energy>  (13) 
-9.25

>  <cluster_rmsd>  (13) 
0.08

>  <cluster>  (13) 
1

$$$$

     RDKit          3D

 57 61  0  0  0  0  0  0  0  0999 V2000
  142.9080   74.7290  220.2550 O   0  0  0  0  0  0  0  0  0  0  0  0
  141.8570   74.4610  220.9160 C   0  0  0  0  0  0  0  0  0  0  0  0
  141.5220   73.0330  221.0930 C   0  0  0  0  0  0  0  0  0  0  0  0
  140.2720   72.9220  221.8830 C   0  0  0  0  0  0  0  0  0  0  0  0
  139.7460   71.5730  222.1870 C   0  0  0  0  0  0  0  0  0  0  0  0
  139.0180   70.9050  221.2000 C   0  0  0  0  0  0  0  0  0  0  0  0
  138.5060   69.6400  221.4600 C   0  0  0  0  0  0  0  0  0  0  0  0
  138.7160   69.0490  222.6860 C   0  0  0  0  0  0  0  0  0  0  0  0
  139.4420   69.7150  223.6740 C   0  0  0  0  0  0  0  0  0  0  0  0
  139.6170   69.0160  224.9340 C   0  0  0  0  0  0  0  0  0  0  0  0
  139.2010   67.8100  224.9670 O   0  0  0  0  0  0  0  0  0  0  0  0
  140.2160   69.6150  226.0870 N   0  0  0  0  0  0  0  0  0  0  0  0
  140.7320   70.9640  226.2040 C   0  0  0  0  0  0  0  0  0  0  0  0
  140.7000   71.2290  227.6780 C   0  0  0  0  0  0  0  0  0  0  0  0
  140.0670   70.0300  228.3440 C   0  0  0  0  0  0  0  0  0  0  0  0
  140.4000   68.9240  227.3510 C   0  0  0  0  0  0  0  0  0  0  0  0
  139.9490   70.9700  223.4110 C   0  0  0  0  0  0  0  0  0  0  0  0
  139.6020   73.9120  222.3310 N   0  0  0  0  0  0  0  0  0  0  0  0
  139.9260   75.2820  222.1600 C   0  0  0  0  0  0  0  0  0  0  0  0
  139.1550   76.2920  222.6790 C   0  0  0  0  0  0  0  0  0  0  0  0
  139.5130   77.6090  222.4890 C   0  0  0  0  0  0  0  0  0  0  0  0
  140.6610   77.9230  221.7710 C   0  0  0  0  0  0  0  0  0  0  0  0
  141.0220   79.2880  221.5890 N   0  0  0  0  0  0  0  0  0  0  0  0
  142.2770   79.8490  222.0480 C   0  0  0  0  0  0  0  0  0  0  0  0
  141.9470   81.0070  222.9630 C   0  0  0  0  0  0  0  0  0  0  0  0
  140.9560   81.9330  222.3340 C   0  0  0  0  0  0  0  0  0  0  0  0
  139.6880   81.2370  221.8940 C   0  0  0  0  0  0  0  0  0  0  0  0
  140.0680   80.1470  220.9090 C   0  0  0  0  0  0  0  0  0  0  0  0
  141.4380   76.8910  221.2480 C   0  0  0  0  0  0  0  0  0  0  0  0
  141.0720   75.5630  221.4420 C   0  0  0  0  0  0  0  0  0  0  0  0
  141.3785   72.5636  220.1086 H   0  0  0  0  0  0  0  0  0  0  0  0
  142.3409   72.5231  221.6216 H   0  0  0  0  0  0  0  0  0  0  0  0
  138.8508   71.3783  220.2212 H   0  0  0  0  0  0  0  0  0  0  0  0
  137.9322   69.1098  220.6857 H   0  0  0  0  0  0  0  0  0  0  0  0
  138.3094   68.0469  222.8874 H   0  0  0  0  0  0  0  0  0  0  0  0
  141.7596   71.0261  225.8164 H   0  0  0  0  0  0  0  0  0  0  0  0
  140.1481   71.6957  225.6262 H   0  0  0  0  0  0  0  0  0  0  0  0
  141.7232   71.3712  228.0558 H   0  0  0  0  0  0  0  0  0  0  0  0
  140.1232   72.1403  227.8942 H   0  0  0  0  0  0  0  0  0  0  0  0
  140.5147   69.8341  229.3295 H   0  0  0  0  0  0  0  0  0  0  0  0
  138.9918   70.1437  228.5467 H   0  0  0  0  0  0  0  0  0  0  0  0
  141.4354   68.5725  227.4713 H   0  0  0  0  0  0  0  0  0  0  0  0
  139.7876   68.0172  227.4631 H   0  0  0  0  0  0  0  0  0  0  0  0
  140.5228   71.4973  224.1873 H   0  0  0  0  0  0  0  0  0  0  0  0
  138.2466   76.0488  223.2496 H   0  0  0  0  0  0  0  0  0  0  0  0
  138.8892   78.4132  222.9063 H   0  0  0  0  0  0  0  0  0  0  0  0
  142.8507   79.0877  222.5969 H   0  0  0  0  0  0  0  0  0  0  0  0
  142.8854   80.1879  221.1966 H   0  0  0  0  0  0  0  0  0  0  0  0
  141.5254   80.6141  223.8999 H   0  0  0  0  0  0  0  0  0  0  0  0
  142.8721   81.5696  223.1574 H   0  0  0  0  0  0  0  0  0  0  0  0
  140.6921   82.7117  223.0647 H   0  0  0  0  0  0  0  0  0  0  0  0
  141.4273   82.3545  221.4339 H   0  0  0  0  0  0  0  0  0  0  0  0
  139.1842   80.7934  222.7654 H   0  0  0  0  0  0  0  0  0  0  0  0
  139.0020   81.9558  221.4221 H   0  0  0  0  0  0  0  0  0  0  0  0
  139.1774   79.5702  220.6188 H   0  0  0  0  0  0  0  0  0  0  0  0
  140.5012   80.5738  219.9924 H   0  0  0  0  0  0  0  0  0  0  0  0
  142.3479   77.1284  220.6773 H   0  0  0  0  0  0  0  0  0  0  0  0
  1  2  2  0
  2  3  1  0
  3  4  1  0
  4  5  1  0
  5  6  2  0
  6  7  1  0
  7  8  2  0
  8  9  1  0
  9 10  1  0
 10 11  2  0
 10 12  1  0
 12 13  1  0
 13 14  1  0
 14 15  1  0
 15 16  1  0
  9 17  2  0
  4 18  2  0
 18 19  1  0
 19 20  2  0
 20 21  1  0
 21 22  2  0
 22 23  1  0
 23 24  1  0
 24 25  1  0
 25 26  1  0
 26 27  1  0
 27 28  1  0
 22 29  1  0
 29 30  2  0
 30  2  1  0
 17  5  1  0
 30 19  1  0
 16 12  1  0
 28 23  1  0
  3 31  1  0
  3 32  1  0
  6 33  1  0
  7 34  1  0
  8 35  1  0
 13 36  1  0
 13 37  1  0
 14 38  1  0
 14 39  1  0
 15 40  1  0
 15 41  1  0
 16 42  1  0
 16 43  1  0
 17 44  1  0
 20 45  1  0
 21 46  1  0
 24 47  1  0
 24 48  1  0
 25 49  1  0
 25 50  1  0
 26 51  1  0
 26 52  1  0
 27 53  1  0
 27 54  1  0
 28 55  1  0
 28 56  1  0
 29 57  1  0
M  END
>  <smiles>  (14) 
O=C1CC(c2cccc(C(=O)N3CCCC3)c2)=Nc2ccc(N3CCCCC3)cc21

>  <score_type>  (14) 
oracle

>  <origin>  (14) 
autodockgpu

>  <m_score__min__energy>  (14) 
-9.2599999999999998

>  <m_primary>  (14) 
energy

>  <rmsd>  (14) 
6.000417139597774

>  <m_score__min__rmsd>  (14) 
6.000417139597774

>  <meeko>  (14) 
{"free_energy": -9.2, "intermolecular_energy": -10.1, "internal_energy": -0.86, "cluster_size": 50, "cluster_id": 1, "rank_in_cluster": 22}

>  <energy>  (14) 
-9.25

>  <cluster_rmsd>  (14) 
0.03

>  <cluster>  (14) 
1

$$$$

     RDKit          3D

 57 61  0  0  0  0  0  0  0  0999 V2000
  142.8710   74.8000  220.5620 O   0  0  0  0  0  0  0  0  0  0  0  0
  141.7850   74.4760  221.1340 C   0  0  0  0  0  0  0  0  0  0  0  0
  141.5130   73.0320  221.2880 C   0  0  0  0  0  0  0  0  0  0  0  0
  140.2100   72.8540  221.9730 C   0  0  0  0  0  0  0  0  0  0  0  0
  139.7340   71.4780  222.2370 C   0  0  0  0  0  0  0  0  0  0  0  0
  139.0760   70.7940  221.2130 C   0  0  0  0  0  0  0  0  0  0  0  0
  138.6110   69.5030  221.4340 C   0  0  0  0  0  0  0  0  0  0  0  0
  138.7980   68.9040  222.6600 C   0  0  0  0  0  0  0  0  0  0  0  0
  139.4540   69.5860  223.6850 C   0  0  0  0  0  0  0  0  0  0  0  0
  139.6090   68.8760  224.9410 C   0  0  0  0  0  0  0  0  0  0  0  0
  139.1970   67.6690  224.9560 O   0  0  0  0  0  0  0  0  0  0  0  0
  140.1860   69.4670  226.1100 N   0  0  0  0  0  0  0  0  0  0  0  0
  140.6960   70.8170  226.2490 C   0  0  0  0  0  0  0  0  0  0  0  0
  140.6370   71.0680  227.7240 C   0  0  0  0  0  0  0  0  0  0  0  0
  139.9960   69.8610  228.3680 C   0  0  0  0  0  0  0  0  0  0  0  0
  140.3500   68.7650  227.3710 C   0  0  0  0  0  0  0  0  0  0  0  0
  139.9140   70.8670  223.4600 C   0  0  0  0  0  0  0  0  0  0  0  0
  139.4530   73.8060  222.3620 N   0  0  0  0  0  0  0  0  0  0  0  0
  139.7170   75.1920  222.2130 C   0  0  0  0  0  0  0  0  0  0  0  0
  138.8540   76.1580  222.6640 C   0  0  0  0  0  0  0  0  0  0  0  0
  139.1560   77.4930  222.5000 C   0  0  0  0  0  0  0  0  0  0  0  0
  140.3400   77.8690  221.8780 C   0  0  0  0  0  0  0  0  0  0  0  0
  140.6430   79.2520  221.7220 N   0  0  0  0  0  0  0  0  0  0  0  0
  141.8610   79.7370  221.1060 C   0  0  0  0  0  0  0  0  0  0  0  0
  142.5470   80.6360  222.1100 C   0  0  0  0  0  0  0  0  0  0  0  0
  141.5990   81.6450  222.6740 C   0  0  0  0  0  0  0  0  0  0  0  0
  140.3660   81.0240  223.2880 C   0  0  0  0  0  0  0  0  0  0  0  0
  139.6680   80.2080  222.2150 C   0  0  0  0  0  0  0  0  0  0  0  0
  141.2120   76.8800  221.4230 C   0  0  0  0  0  0  0  0  0  0  0  0
  140.9020   75.5340  221.5910 C   0  0  0  0  0  0  0  0  0  0  0  0
  141.4761   72.5564  220.2968 H   0  0  0  0  0  0  0  0  0  0  0  0
  142.3116   72.5660  221.8838 H   0  0  0  0  0  0  0  0  0  0  0  0
  138.9262   71.2750  220.2351 H   0  0  0  0  0  0  0  0  0  0  0  0
  138.0936   68.9596  220.6297 H   0  0  0  0  0  0  0  0  0  0  0  0
  138.4281   67.8824  222.8319 H   0  0  0  0  0  0  0  0  0  0  0  0
  141.7301   70.8856  225.8804 H   0  0  0  0  0  0  0  0  0  0  0  0
  140.1203   71.5524  225.6678 H   0  0  0  0  0  0  0  0  0  0  0  0
  141.6529   71.2098  228.1212 H   0  0  0  0  0  0  0  0  0  0  0  0
  140.0534   71.9755  227.9382 H   0  0  0  0  0  0  0  0  0  0  0  0
  140.4269   69.6575  229.3594 H   0  0  0  0  0  0  0  0  0  0  0  0
  138.9171   69.9696  228.5527 H   0  0  0  0  0  0  0  0  0  0  0  0
  141.3842   68.4157  227.5063 H   0  0  0  0  0  0  0  0  0  0  0  0
  139.7386   67.8553  227.4641 H   0  0  0  0  0  0  0  0  0  0  0  0
  140.4309   71.4078  224.2664 H   0  0  0  0  0  0  0  0  0  0  0  0
  137.9161   75.8659  223.1591 H   0  0  0  0  0  0  0  0  0  0  0  0
  138.4581   78.2621  222.8624 H   0  0  0  0  0  0  0  0  0  0  0  0
  142.5156   78.8910  220.8496 H   0  0  0  0  0  0  0  0  0  0  0  0
  141.6363   80.2877  220.1806 H   0  0  0  0  0  0  0  0  0  0  0  0
  142.9437   80.0197  222.9302 H   0  0  0  0  0  0  0  0  0  0  0  0
  143.3593   81.1720  221.5973 H   0  0  0  0  0  0  0  0  0  0  0  0
  142.1233   82.2221  223.4499 H   0  0  0  0  0  0  0  0  0  0  0  0
  141.2648   82.2814  221.8413 H   0  0  0  0  0  0  0  0  0  0  0  0
  140.6542   80.3712  224.1251 H   0  0  0  0  0  0  0  0  0  0  0  0
  139.6942   81.8064  223.6707 H   0  0  0  0  0  0  0  0  0  0  0  0
  138.8019   79.6811  222.6419 H   0  0  0  0  0  0  0  0  0  0  0  0
  139.2985   80.8524  221.4037 H   0  0  0  0  0  0  0  0  0  0  0  0
  142.1516   77.1662  220.9278 H   0  0  0  0  0  0  0  0  0  0  0  0
  1  2  2  0
  2  3  1  0
  3  4  1  0
  4  5  1  0
  5  6  2  0
  6  7  1  0
  7  8  2  0
  8  9  1  0
  9 10  1  0
 10 11  2  0
 10 12  1  0
 12 13  1  0
 13 14  1  0
 14 15  1  0
 15 16  1  0
  9 17  2  0
  4 18  2  0
 18 19  1  0
 19 20  2  0
 20 21  1  0
 21 22  2  0
 22 23  1  0
 23 24  1  0
 24 25  1  0
 25 26  1  0
 26 27  1  0
 27 28  1  0
 22 29  1  0
 29 30  2  0
 30  2  1  0
 17  5  1  0
 30 19  1  0
 16 12  1  0
 28 23  1  0
  3 31  1  0
  3 32  1  0
  6 33  1  0
  7 34  1  0
  8 35  1  0
 13 36  1  0
 13 37  1  0
 14 38  1  0
 14 39  1  0
 15 40  1  0
 15 41  1  0
 16 42  1  0
 16 43  1  0
 17 44  1  0
 20 45  1  0
 21 46  1  0
 24 47  1  0
 24 48  1  0
 25 49  1  0
 25 50  1  0
 26 51  1  0
 26 52  1  0
 27 53  1  0
 27 54  1  0
 28 55  1  0
 28 56  1  0
 29 57  1  0
M  END
>  <smiles>  (15) 
O=C1CC(c2cccc(C(=O)N3CCCC3)c2)=Nc2ccc(N3CCCCC3)cc21

>  <score_type>  (15) 
oracle

>  <origin>  (15) 
autodockgpu

>  <m_score__min__energy>  (15) 
-9.2599999999999998

>  <m_primary>  (15) 
energy

>  <rmsd>  (15) 
6.169002628345624

>  <m_score__min__rmsd>  (15) 
6.169002628345624

>  <meeko>  (15) 
{"free_energy": -9.18, "intermolecular_energy": -10.08, "internal_energy": -0.87, "cluster_size": 50, "cluster_id": 1, "rank_in_cluster": 26}

>  <energy>  (15) 
-9.25

>  <cluster_rmsd>  (15) 
0.04

>  <cluster>  (15) 
1

$$$$

     RDKit          3D

 57 61  0  0  0  0  0  0  0  0999 V2000
  142.9210   74.8770  219.6210 O   0  0  0  0  0  0  0  0  0  0  0  0
  141.9790   74.6750  220.4490 C   0  0  0  0  0  0  0  0  0  0  0  0
  141.5860   73.2720  220.6890 C   0  0  0  0  0  0  0  0  0  0  0  0
  140.4800   73.2400  221.6760 C   0  0  0  0  0  0  0  0  0  0  0  0
  139.9250   71.9280  222.0730 C   0  0  0  0  0  0  0  0  0  0  0  0
  139.3120   71.1410  221.0950 C   0  0  0  0  0  0  0  0  0  0  0  0
  138.7760   69.9070  221.4390 C   0  0  0  0  0  0  0  0  0  0  0  0
  138.8480   69.4630  222.7410 C   0  0  0  0  0  0  0  0  0  0  0  0
  139.4590   70.2470  223.7200 C   0  0  0  0  0  0  0  0  0  0  0  0
  139.4920   69.6980  225.0630 C   0  0  0  0  0  0  0  0  0  0  0  0
  138.8240   68.6260  225.2470 O   0  0  0  0  0  0  0  0  0  0  0  0
  140.2210   70.2980  226.1380 N   0  0  0  0  0  0  0  0  0  0  0  0
  141.0200   71.5070  226.0870 C   0  0  0  0  0  0  0  0  0  0  0  0
  141.0640   71.9640  227.5130 C   0  0  0  0  0  0  0  0  0  0  0  0
  140.1920   71.0290  228.3190 C   0  0  0  0  0  0  0  0  0  0  0  0
  140.2650   69.7560  227.4840 C   0  0  0  0  0  0  0  0  0  0  0  0
  139.9910   71.4710  223.3730 C   0  0  0  0  0  0  0  0  0  0  0  0
  139.9600   74.2700  222.2240 N   0  0  0  0  0  0  0  0  0  0  0  0
  140.3410   75.6170  221.9920 C   0  0  0  0  0  0  0  0  0  0  0  0
  139.7350   76.6730  222.6240 C   0  0  0  0  0  0  0  0  0  0  0  0
  140.1420   77.9650  222.3690 C   0  0  0  0  0  0  0  0  0  0  0  0
  141.1720   78.2060  221.4680 C   0  0  0  0  0  0  0  0  0  0  0  0
  141.5870   79.5450  221.2190 N   0  0  0  0  0  0  0  0  0  0  0  0
  142.1810   80.3970  222.2290 C   0  0  0  0  0  0  0  0  0  0  0  0
  141.3310   81.6440  222.3240 C   0  0  0  0  0  0  0  0  0  0  0  0
  141.0770   82.2340  220.9740 C   0  0  0  0  0  0  0  0  0  0  0  0
  140.4570   81.2540  220.0050 C   0  0  0  0  0  0  0  0  0  0  0  0
  141.3920   80.0660  219.8770 C   0  0  0  0  0  0  0  0  0  0  0  0
  141.7820   77.1270  220.8300 C   0  0  0  0  0  0  0  0  0  0  0  0
  141.3670   75.8250  221.0910 C   0  0  0  0  0  0  0  0  0  0  0  0
  141.2509   72.8168  219.7454 H   0  0  0  0  0  0  0  0  0  0  0  0
  142.4463   72.7075  221.0780 H   0  0  0  0  0  0  0  0  0  0  0  0
  139.2541   71.4976  220.0560 H   0  0  0  0  0  0  0  0  0  0  0  0
  138.2937   69.2838  220.6715 H   0  0  0  0  0  0  0  0  0  0  0  0
  138.4216   68.4854  223.0102 H   0  0  0  0  0  0  0  0  0  0  0  0
  142.0318   71.2930  225.7123 H   0  0  0  0  0  0  0  0  0  0  0  0
  140.6023   72.2657  225.4089 H   0  0  0  0  0  0  0  0  0  0  0  0
  142.0980   71.9283  227.8867 H   0  0  0  0  0  0  0  0  0  0  0  0
  140.7027   72.9994  227.5984 H   0  0  0  0  0  0  0  0  0  0  0  0
  140.5974   70.8714  229.3294 H   0  0  0  0  0  0  0  0  0  0  0  0
  139.1698   71.3993  228.4863 H   0  0  0  0  0  0  0  0  0  0  0  0
  141.2005   69.2071  227.6670 H   0  0  0  0  0  0  0  0  0  0  0  0
  139.4712   69.0266  227.7029 H   0  0  0  0  0  0  0  0  0  0  0  0
  140.4742   72.0909  224.1426 H   0  0  0  0  0  0  0  0  0  0  0  0
  138.9194   76.4876  223.3385 H   0  0  0  0  0  0  0  0  0  0  0  0
  139.6507   78.8065  222.8795 H   0  0  0  0  0  0  0  0  0  0  0  0
  142.1959   79.8772  223.1983 H   0  0  0  0  0  0  0  0  0  0  0  0
  143.2172   80.6521  221.9622 H   0  0  0  0  0  0  0  0  0  0  0  0
  140.3680   81.3864  222.7891 H   0  0  0  0  0  0  0  0  0  0  0  0
  141.8708   82.3861  222.9306 H   0  0  0  0  0  0  0  0  0  0  0  0
  140.3965   83.0906  221.0889 H   0  0  0  0  0  0  0  0  0  0  0  0
  142.0506   82.5337  220.5589 H   0  0  0  0  0  0  0  0  0  0  0  0
  139.4800   80.9208  220.3850 H   0  0  0  0  0  0  0  0  0  0  0  0
  140.3067   81.7294  219.0245 H   0  0  0  0  0  0  0  0  0  0  0  0
  140.9419   79.2964  219.2327 H   0  0  0  0  0  0  0  0  0  0  0  0
  142.3494   80.3617  219.4232 H   0  0  0  0  0  0  0  0  0  0  0  0
  142.5980   77.3065  220.1145 H   0  0  0  0  0  0  0  0  0  0  0  0
  1  2  2  0
  2  3  1  0
  3  4  1  0
  4  5  1  0
  5  6  2  0
  6  7  1  0
  7  8  2  0
  8  9  1  0
  9 10  1  0
 10 11  2  0
 10 12  1  0
 12 13  1  0
 13 14  1  0
 14 15  1  0
 15 16  1  0
  9 17  2  0
  4 18  2  0
 18 19  1  0
 19 20  2  0
 20 21  1  0
 21 22  2  0
 22 23  1  0
 23 24  1  0
 24 25  1  0
 25 26  1  0
 26 27  1  0
 27 28  1  0
 22 29  1  0
 29 30  2  0
 30  2  1  0
 17  5  1  0
 30 19  1  0
 16 12  1  0
 28 23  1  0
  3 31  1  0
  3 32  1  0
  6 33  1  0
  7 34  1  0
  8 35  1  0
 13 36  1  0
 13 37  1  0
 14 38  1  0
 14 39  1  0
 15 40  1  0
 15 41  1  0
 16 42  1  0
 16 43  1  0
 17 44  1  0
 20 45  1  0
 21 46  1  0
 24 47  1  0
 24 48  1  0
 25 49  1  0
 25 50  1  0
 26 51  1  0
 26 52  1  0
 27 53  1  0
 27 54  1  0
 28 55  1  0
 28 56  1  0
 29 57  1  0
M  END
>  <smiles>  (16) 
O=C1CC(c2cccc(C(=O)N3CCCC3)c2)=Nc2ccc(N3CCCCC3)cc21

>  <score_type>  (16) 
oracle

>  <origin>  (16) 
autodockgpu

>  <m_score__min__energy>  (16) 
-9.2599999999999998

>  <m_primary>  (16) 
energy

>  <rmsd>  (16) 
5.730982172712821

>  <m_score__min__rmsd>  (16) 
5.730982172712821

>  <meeko>  (16) 
{"free_energy": -9.08, "intermolecular_energy": -9.98, "internal_energy": -0.87, "cluster_size": 50, "cluster_id": 1, "rank_in_cluster": 47}

>  <energy>  (16) 
-9.24

>  <cluster_rmsd>  (16) 
0.04

>  <cluster>  (16) 
1

$$$$

     RDKit          3D

 57 61  0  0  0  0  0  0  0  0999 V2000
  142.8610   74.8870  220.4670 O   0  0  0  0  0  0  0  0  0  0  0  0
  141.8080   74.5050  221.0650 C   0  0  0  0  0  0  0  0  0  0  0  0
  141.6050   73.0490  221.2010 C   0  0  0  0  0  0  0  0  0  0  0  0
  140.3320   72.8010  221.9200 C   0  0  0  0  0  0  0  0  0  0  0  0
  139.9240   71.4020  222.1730 C   0  0  0  0  0  0  0  0  0  0  0  0
  139.5140   70.6220  221.0900 C   0  0  0  0  0  0  0  0  0  0  0  0
  139.1190   69.3060  221.2980 C   0  0  0  0  0  0  0  0  0  0  0  0
  139.1320   68.7760  222.5690 C   0  0  0  0  0  0  0  0  0  0  0  0
  139.5400   69.5530  223.6530 C   0  0  0  0  0  0  0  0  0  0  0  0
  139.5250   68.9110  224.9550 C   0  0  0  0  0  0  0  0  0  0  0  0
  138.9450   67.7760  225.0120 O   0  0  0  0  0  0  0  0  0  0  0  0
  140.1160   69.4900  226.1220 N   0  0  0  0  0  0  0  0  0  0  0  0
  140.8040   70.7630  226.2160 C   0  0  0  0  0  0  0  0  0  0  0  0
  140.7020   71.1140  227.6680 C   0  0  0  0  0  0  0  0  0  0  0  0
  139.8620   70.0510  228.3380 C   0  0  0  0  0  0  0  0  0  0  0  0
  140.1110   68.8550  227.4280 C   0  0  0  0  0  0  0  0  0  0  0  0
  139.9320   70.8580  223.4400 C   0  0  0  0  0  0  0  0  0  0  0  0
  139.5460   73.7120  222.3470 N   0  0  0  0  0  0  0  0  0  0  0  0
  139.7440   75.1110  222.2160 C   0  0  0  0  0  0  0  0  0  0  0  0
  138.8530   76.0300  222.7080 C   0  0  0  0  0  0  0  0  0  0  0  0
  139.0900   77.3800  222.5600 C   0  0  0  0  0  0  0  0  0  0  0  0
  140.2380   77.8180  221.9100 C   0  0  0  0  0  0  0  0  0  0  0  0
  140.4740   79.2150  221.7700 N   0  0  0  0  0  0  0  0  0  0  0  0
  141.5970   79.7640  221.0370 C   0  0  0  0  0  0  0  0  0  0  0  0
  142.3640   80.6560  221.9880 C   0  0  0  0  0  0  0  0  0  0  0  0
  141.4550   81.6110  222.6920 C   0  0  0  0  0  0  0  0  0  0  0  0
  140.3220   80.9250  223.4200 C   0  0  0  0  0  0  0  0  0  0  0  0
  139.5320   80.1190  222.4060 C   0  0  0  0  0  0  0  0  0  0  0  0
  141.1380   76.8770  221.4130 C   0  0  0  0  0  0  0  0  0  0  0  0
  140.8930   75.5160  221.5650 C   0  0  0  0  0  0  0  0  0  0  0  0
  141.5599   72.5887  220.2030 H   0  0  0  0  0  0  0  0  0  0  0  0
  142.4407   72.6097  221.7654 H   0  0  0  0  0  0  0  0  0  0  0  0
  139.5037   71.0476  220.0757 H   0  0  0  0  0  0  0  0  0  0  0  0
  138.7960   68.6877  220.4475 H   0  0  0  0  0  0  0  0  0  0  0  0
  138.8188   67.7339  222.7302 H   0  0  0  0  0  0  0  0  0  0  0  0
  141.8557   70.6643  225.9091 H   0  0  0  0  0  0  0  0  0  0  0  0
  140.3704   71.5319  225.5597 H   0  0  0  0  0  0  0  0  0  0  0  0
  141.7049   71.1389  228.1191 H   0  0  0  0  0  0  0  0  0  0  0  0
  140.2425   72.1054  227.7941 H   0  0  0  0  0  0  0  0  0  0  0  0
  140.2053   69.8543  229.3644 H   0  0  0  0  0  0  0  0  0  0  0  0
  138.8010   70.3192  228.4487 H   0  0  0  0  0  0  0  0  0  0  0  0
  141.0767   68.3761  227.6470 H   0  0  0  0  0  0  0  0  0  0  0  0
  139.3731   68.0461  227.5337 H   0  0  0  0  0  0  0  0  0  0  0  0
  140.2555   71.4733  224.2925 H   0  0  0  0  0  0  0  0  0  0  0  0
  137.9437   75.6879  223.2239 H   0  0  0  0  0  0  0  0  0  0  0  0
  138.3701   78.1111  222.9566 H   0  0  0  0  0  0  0  0  0  0  0  0
  142.2454   78.9512  220.6780 H   0  0  0  0  0  0  0  0  0  0  0  0
  141.2494   80.3349  220.1634 H   0  0  0  0  0  0  0  0  0  0  0  0
  142.8727   80.0291  222.7352 H   0  0  0  0  0  0  0  0  0  0  0  0
  143.0934   81.2377  221.4052 H   0  0  0  0  0  0  0  0  0  0  0  0
  142.0459   82.1821  223.4233 H   0  0  0  0  0  0  0  0  0  0  0  0
  141.0065   82.2612  221.9265 H   0  0  0  0  0  0  0  0  0  0  0  0
  140.7265   80.2567  224.1944 H   0  0  0  0  0  0  0  0  0  0  0  0
  139.6734   81.6695  223.9048 H   0  0  0  0  0  0  0  0  0  0  0  0
  138.7389   79.5475  222.9103 H   0  0  0  0  0  0  0  0  0  0  0  0
  139.0504   80.7751  221.6660 H   0  0  0  0  0  0  0  0  0  0  0  0
  142.0492   77.2131  220.8965 H   0  0  0  0  0  0  0  0  0  0  0  0
  1  2  2  0
  2  3  1  0
  3  4  1  0
  4  5  1  0
  5  6  2  0
  6  7  1  0
  7  8  2  0
  8  9  1  0
  9 10  1  0
 10 11  2  0
 10 12  1  0
 12 13  1  0
 13 14  1  0
 14 15  1  0
 15 16  1  0
  9 17  2  0
  4 18  2  0
 18 19  1  0
 19 20  2  0
 20 21  1  0
 21 22  2  0
 22 23  1  0
 23 24  1  0
 24 25  1  0
 25 26  1  0
 26 27  1  0
 27 28  1  0
 22 29  1  0
 29 30  2  0
 30  2  1  0
 17  5  1  0
 30 19  1  0
 16 12  1  0
 28 23  1  0
  3 31  1  0
  3 32  1  0
  6 33  1  0
  7 34  1  0
  8 35  1  0
 13 36  1  0
 13 37  1  0
 14 38  1  0
 14 39  1  0
 15 40  1  0
 15 41  1  0
 16 42  1  0
 16 43  1  0
 17 44  1  0
 20 45  1  0
 21 46  1  0
 24 47  1  0
 24 48  1  0
 25 49  1  0
 25 50  1  0
 26 51  1  0
 26 52  1  0
 27 53  1  0
 27 54  1  0
 28 55  1  0
 28 56  1  0
 29 57  1  0
M  END
>  <smiles>  (17) 
O=C1CC(c2cccc(C(=O)N3CCCC3)c2)=Nc2ccc(N3CCCCC3)cc21

>  <score_type>  (17) 
oracle

>  <origin>  (17) 
autodockgpu

>  <m_score__min__energy>  (17) 
-9.2599999999999998

>  <m_primary>  (17) 
energy

>  <rmsd>  (17) 
6.176957310543425

>  <m_score__min__rmsd>  (17) 
6.176957310543425

>  <meeko>  (17) 
{"free_energy": -9.22, "intermolecular_energy": -10.11, "internal_energy": -0.89, "cluster_size": 50, "cluster_id": 1, "rank_in_cluster": 20}

>  <energy>  (17) 
-9.24

>  <cluster_rmsd>  (17) 
0.1

>  <cluster>  (17) 
1

$$$$

     RDKit          3D

 57 61  0  0  0  0  0  0  0  0999 V2000
  142.8420   74.1870  220.0510 O   0  0  0  0  0  0  0  0  0  0  0  0
  141.7960   74.1420  220.7700 C   0  0  0  0  0  0  0  0  0  0  0  0
  141.2600   72.8030  221.0890 C   0  0  0  0  0  0  0  0  0  0  0  0
  140.0470   72.9540  221.9290 C   0  0  0  0  0  0  0  0  0  0  0  0
  139.3400   71.7330  222.3740 C   0  0  0  0  0  0  0  0  0  0  0  0
  138.1690   71.3630  221.7090 C   0  0  0  0  0  0  0  0  0  0  0  0
  137.4800   70.2250  222.1100 C   0  0  0  0  0  0  0  0  0  0  0  0
  137.9510   69.4680  223.1590 C   0  0  0  0  0  0  0  0  0  0  0  0
  139.1190   69.8360  223.8260 C   0  0  0  0  0  0  0  0  0  0  0  0
  139.5420   68.9770  224.9170 C   0  0  0  0  0  0  0  0  0  0  0  0
  139.2310   67.7440  224.8120 O   0  0  0  0  0  0  0  0  0  0  0  0
  140.2650   69.4550  226.0550 N   0  0  0  0  0  0  0  0  0  0  0  0
  140.6880   70.8170  226.3170 C   0  0  0  0  0  0  0  0  0  0  0  0
  140.8660   70.8540  227.8040 C   0  0  0  0  0  0  0  0  0  0  0  0
  140.4390   69.5100  228.3480 C   0  0  0  0  0  0  0  0  0  0  0  0
  140.6970   68.6050  227.1510 C   0  0  0  0  0  0  0  0  0  0  0  0
  139.8000   70.9660  223.4240 C   0  0  0  0  0  0  0  0  0  0  0  0
  139.5560   74.0700  222.3080 N   0  0  0  0  0  0  0  0  0  0  0  0
  140.0740   75.3540  222.0010 C   0  0  0  0  0  0  0  0  0  0  0  0
  139.4900   76.5110  222.4510 C   0  0  0  0  0  0  0  0  0  0  0  0
  140.0330   77.7370  222.1290 C   0  0  0  0  0  0  0  0  0  0  0  0
  141.1780   77.8070  221.3460 C   0  0  0  0  0  0  0  0  0  0  0  0
  141.7310   79.0800  221.0260 N   0  0  0  0  0  0  0  0  0  0  0  0
  142.2260   80.0080  222.0230 C   0  0  0  0  0  0  0  0  0  0  0  0
  141.4730   81.3070  221.8440 C   0  0  0  0  0  0  0  0  0  0  0  0
  141.4800   81.7470  220.4150 C   0  0  0  0  0  0  0  0  0  0  0  0
  140.9430   80.6990  219.4680 C   0  0  0  0  0  0  0  0  0  0  0  0
  141.7900   79.4500  219.6230 C   0  0  0  0  0  0  0  0  0  0  0  0
  141.7650   76.6270  220.8920 C   0  0  0  0  0  0  0  0  0  0  0  0
  141.2130   75.3930  221.2200 C   0  0  0  0  0  0  0  0  0  0  0  0
  141.0002   72.2786  220.1576 H   0  0  0  0  0  0  0  0  0  0  0  0
  142.0177   72.2202  221.6332 H   0  0  0  0  0  0  0  0  0  0  0  0
  137.7939   71.9697  220.8716 H   0  0  0  0  0  0  0  0  0  0  0  0
  136.5576   69.9287  221.5890 H   0  0  0  0  0  0  0  0  0  0  0  0
  137.4027   68.5675  223.4729 H   0  0  0  0  0  0  0  0  0  0  0  0
  141.6348   71.0394  225.8030 H   0  0  0  0  0  0  0  0  0  0  0  0
  139.9664   71.5644  225.9554 H   0  0  0  0  0  0  0  0  0  0  0  0
  141.9215   71.0407  228.0511 H   0  0  0  0  0  0  0  0  0  0  0  0
  140.2615   71.6598  228.2459 H   0  0  0  0  0  0  0  0  0  0  0  0
  141.0489   69.2146  229.2145 H   0  0  0  0  0  0  0  0  0  0  0  0
  139.4030   69.4830  228.7169 H   0  0  0  0  0  0  0  0  0  0  0  0
  141.7625   68.3458  227.0641 H   0  0  0  0  0  0  0  0  0  0  0  0
  140.1811   67.6347  227.1997 H   0  0  0  0  0  0  0  0  0  0  0  0
  140.7219   71.2593  223.9475 H   0  0  0  0  0  0  0  0  0  0  0  0
  138.5836   76.4604  223.0721 H   0  0  0  0  0  0  0  0  0  0  0  0
  139.5588   78.6605  222.4927 H   0  0  0  0  0  0  0  0  0  0  0  0
  142.0486   79.6064  223.0316 H   0  0  0  0  0  0  0  0  0  0  0  0
  143.3080   80.1663  221.9035 H   0  0  0  0  0  0  0  0  0  0  0  0
  140.4321   81.1656  222.1702 H   0  0  0  0  0  0  0  0  0  0  0  0
  141.9685   82.0814  222.4480 H   0  0  0  0  0  0  0  0  0  0  0  0
  140.8600   82.6511  220.3243 H   0  0  0  0  0  0  0  0  0  0  0  0
  142.5271   81.9351  220.1355 H   0  0  0  0  0  0  0  0  0  0  0  0
  139.8955   80.4730  219.7162 H   0  0  0  0  0  0  0  0  0  0  0  0
  140.9849   81.0632  218.4309 H   0  0  0  0  0  0  0  0  0  0  0  0
  141.3871   78.6384  218.9992 H   0  0  0  0  0  0  0  0  0  0  0  0
  142.8269   79.6318  219.3040 H   0  0  0  0  0  0  0  0  0  0  0  0
  142.6711   76.6719  220.2700 H   0  0  0  0  0  0  0  0  0  0  0  0
  1  2  2  0
  2  3  1  0
  3  4  1  0
  4  5  1  0
  5  6  2  0
  6  7  1  0
  7  8  2  0
  8  9  1  0
  9 10  1  0
 10 11  2  0
 10 12  1  0
 12 13  1  0
 13 14  1  0
 14 15  1  0
 15 16  1  0
  9 17  2  0
  4 18  2  0
 18 19  1  0
 19 20  2  0
 20 21  1  0
 21 22  2  0
 22 23  1  0
 23 24  1  0
 24 25  1  0
 25 26  1  0
 26 27  1  0
 27 28  1  0
 22 29  1  0
 29 30  2  0
 30  2  1  0
 17  5  1  0
 30 19  1  0
 16 12  1  0
 28 23  1  0
  3 31  1  0
  3 32  1  0
  6 33  1  0
  7 34  1  0
  8 35  1  0
 13 36  1  0
 13 37  1  0
 14 38  1  0
 14 39  1  0
 15 40  1  0
 15 41  1  0
 16 42  1  0
 16 43  1  0
 17 44  1  0
 20 45  1  0
 21 46  1  0
 24 47  1  0
 24 48  1  0
 25 49  1  0
 25 50  1  0
 26 51  1  0
 26 52  1  0
 27 53  1  0
 27 54  1  0
 28 55  1  0
 28 56  1  0
 29 57  1  0
M  END
>  <smiles>  (18) 
O=C1CC(c2cccc(C(=O)N3CCCC3)c2)=Nc2ccc(N3CCCCC3)cc21

>  <score_type>  (18) 
oracle

>  <origin>  (18) 
autodockgpu

>  <m_score__min__energy>  (18) 
-9.2599999999999998

>  <m_primary>  (18) 
energy

>  <rmsd>  (18) 
5.6443111381223146

>  <m_score__min__rmsd>  (18) 
5.6443111381223146

>  <meeko>  (18) 
{"free_energy": -9.01, "intermolecular_energy": -9.9, "internal_energy": -0.97, "cluster_size": 50, "cluster_id": 1, "rank_in_cluster": 49}

>  <energy>  (18) 
-9.23

>  <cluster_rmsd>  (18) 
0.07

>  <cluster>  (18) 
1

$$$$

     RDKit          3D

 57 61  0  0  0  0  0  0  0  0999 V2000
  142.8360   74.8470  220.4420 O   0  0  0  0  0  0  0  0  0  0  0  0
  141.7760   74.4960  221.0480 C   0  0  0  0  0  0  0  0  0  0  0  0
  141.5350   73.0470  221.1930 C   0  0  0  0  0  0  0  0  0  0  0  0
  140.2590   72.8370  221.9190 C   0  0  0  0  0  0  0  0  0  0  0  0
  139.8160   71.4500  222.1830 C   0  0  0  0  0  0  0  0  0  0  0  0
  139.2570   70.7190  221.1320 C   0  0  0  0  0  0  0  0  0  0  0  0
  138.8260   69.4170  221.3510 C   0  0  0  0  0  0  0  0  0  0  0  0
  138.9480   68.8520  222.6010 C   0  0  0  0  0  0  0  0  0  0  0  0
  139.5050   69.5800  223.6530 C   0  0  0  0  0  0  0  0  0  0  0  0
  139.5980   68.9030  224.9330 C   0  0  0  0  0  0  0  0  0  0  0  0
  139.1350   67.7150  224.9730 O   0  0  0  0  0  0  0  0  0  0  0  0
  140.1680   69.5060  226.0990 N   0  0  0  0  0  0  0  0  0  0  0  0
  140.7300   70.8370  226.2110 C   0  0  0  0  0  0  0  0  0  0  0  0
  140.6440   71.1360  227.6760 C   0  0  0  0  0  0  0  0  0  0  0  0
  139.9360   69.9770  228.3380 C   0  0  0  0  0  0  0  0  0  0  0  0
  140.2700   68.8370  227.3840 C   0  0  0  0  0  0  0  0  0  0  0  0
  139.9330   70.8720  223.4290 C   0  0  0  0  0  0  0  0  0  0  0  0
  139.5000   73.7710  222.3450 N   0  0  0  0  0  0  0  0  0  0  0  0
  139.7340   75.1630  222.2050 C   0  0  0  0  0  0  0  0  0  0  0  0
  138.8700   76.1080  222.6960 C   0  0  0  0  0  0  0  0  0  0  0  0
  139.1430   77.4510  222.5380 C   0  0  0  0  0  0  0  0  0  0  0  0
  140.2980   77.8540  221.8810 C   0  0  0  0  0  0  0  0  0  0  0  0
  140.5710   79.2440  221.7310 N   0  0  0  0  0  0  0  0  0  0  0  0
  141.7820   79.7580  221.1260 C   0  0  0  0  0  0  0  0  0  0  0  0
  142.4420   80.6690  222.1370 C   0  0  0  0  0  0  0  0  0  0  0  0
  141.4680   81.6550  222.6980 C   0  0  0  0  0  0  0  0  0  0  0  0
  140.2450   81.0040  223.3010 C   0  0  0  0  0  0  0  0  0  0  0  0
  139.5720   80.1770  222.2220 C   0  0  0  0  0  0  0  0  0  0  0  0
  141.1710   76.8870  221.3850 C   0  0  0  0  0  0  0  0  0  0  0  0
  140.8900   75.5340  221.5460 C   0  0  0  0  0  0  0  0  0  0  0  0
  141.4732   72.5826  220.1978 H   0  0  0  0  0  0  0  0  0  0  0  0
  142.3613   72.5887  221.7562 H   0  0  0  0  0  0  0  0  0  0  0  0
  139.1586   71.1728  220.1348 H   0  0  0  0  0  0  0  0  0  0  0  0
  138.3871   68.8369  220.5258 H   0  0  0  0  0  0  0  0  0  0  0  0
  138.6044   67.8210  222.7710 H   0  0  0  0  0  0  0  0  0  0  0  0
  141.7751   70.8517  225.8683 H   0  0  0  0  0  0  0  0  0  0  0  0
  140.2004   71.5769  225.5929 H   0  0  0  0  0  0  0  0  0  0  0  0
  141.6545   71.2476  228.0960 H   0  0  0  0  0  0  0  0  0  0  0  0
  140.0943   72.0733  227.8474 H   0  0  0  0  0  0  0  0  0  0  0  0
  140.3317   69.7868  229.3466 H   0  0  0  0  0  0  0  0  0  0  0  0
  138.8581   70.1356  228.4897 H   0  0  0  0  0  0  0  0  0  0  0  0
  141.2850   68.4502  227.5577 H   0  0  0  0  0  0  0  0  0  0  0  0
  139.6193   67.9562  227.4875 H   0  0  0  0  0  0  0  0  0  0  0  0
  140.3735   71.4488  224.2556 H   0  0  0  0  0  0  0  0  0  0  0  0
  137.9545   75.7935  223.2185 H   0  0  0  0  0  0  0  0  0  0  0  0
  138.4448   78.2036  222.9330 H   0  0  0  0  0  0  0  0  0  0  0  0
  142.4568   78.9274  220.8716 H   0  0  0  0  0  0  0  0  0  0  0  0
  141.5510   80.3072  220.2013 H   0  0  0  0  0  0  0  0  0  0  0  0
  142.8473   80.0591  222.9578 H   0  0  0  0  0  0  0  0  0  0  0  0
  143.2454   81.2244  221.6310 H   0  0  0  0  0  0  0  0  0  0  0  0
  141.9740   82.2407  223.4797 H   0  0  0  0  0  0  0  0  0  0  0  0
  141.1257   82.2873  221.8655 H   0  0  0  0  0  0  0  0  0  0  0  0
  140.5423   80.3547  224.1376 H   0  0  0  0  0  0  0  0  0  0  0  0
  139.5534   81.7702  223.6813 H   0  0  0  0  0  0  0  0  0  0  0  0
  138.7154   79.6296  222.6422 H   0  0  0  0  0  0  0  0  0  0  0  0
  139.1931   80.8160  221.4107 H   0  0  0  0  0  0  0  0  0  0  0  0
  142.0885   77.1959  220.8626 H   0  0  0  0  0  0  0  0  0  0  0  0
  1  2  2  0
  2  3  1  0
  3  4  1  0
  4  5  1  0
  5  6  2  0
  6  7  1  0
  7  8  2  0
  8  9  1  0
  9 10  1  0
 10 11  2  0
 10 12  1  0
 12 13  1  0
 13 14  1  0
 14 15  1  0
 15 16  1  0
  9 17  2  0
  4 18  2  0
 18 19  1  0
 19 20  2  0
 20 21  1  0
 21 22  2  0
 22 23  1  0
 23 24  1  0
 24 25  1  0
 25 26  1  0
 26 27  1  0
 27 28  1  0
 22 29  1  0
 29 30  2  0
 30  2  1  0
 17  5  1  0
 30 19  1  0
 16 12  1  0
 28 23  1  0
  3 31  1  0
  3 32  1  0
  6 33  1  0
  7 34  1  0
  8 35  1  0
 13 36  1  0
 13 37  1  0
 14 38  1  0
 14 39  1  0
 15 40  1  0
 15 41  1  0
 16 42  1  0
 16 43  1  0
 17 44  1  0
 20 45  1  0
 21 46  1  0
 24 47  1  0
 24 48  1  0
 25 49  1  0
 25 50  1  0
 26 51  1  0
 26 52  1  0
 27 53  1  0
 27 54  1  0
 28 55  1  0
 28 56  1  0
 29 57  1  0
M  END
>  <smiles>  (19) 
O=C1CC(c2cccc(C(=O)N3CCCC3)c2)=Nc2ccc(N3CCCCC3)cc21

>  <score_type>  (19) 
oracle

>  <origin>  (19) 
autodockgpu

>  <m_score__min__energy>  (19) 
-9.2599999999999998

>  <m_primary>  (19) 
energy

>  <rmsd>  (19) 
6.166847136524008

>  <m_score__min__rmsd>  (19) 
6.166847136524008

>  <meeko>  (19) 
{"free_energy": -9.26, "intermolecular_energy": -10.15, "internal_energy": -0.86, "cluster_size": 50, "cluster_id": 1, "rank_in_cluster": 5}

>  <energy>  (19) 
-9.23

>  <cluster_rmsd>  (19) 
0.06

>  <cluster>  (19) 
1

$$$$

     RDKit          3D

 57 61  0  0  0  0  0  0  0  0999 V2000
  142.7350   75.0680  220.5540 O   0  0  0  0  0  0  0  0  0  0  0  0
  141.6740   74.6650  221.1250 C   0  0  0  0  0  0  0  0  0  0  0  0
  141.4940   73.2050  221.2510 C   0  0  0  0  0  0  0  0  0  0  0  0
  140.2080   72.9330  221.9380 C   0  0  0  0  0  0  0  0  0  0  0  0
  139.8200   71.5250  222.1780 C   0  0  0  0  0  0  0  0  0  0  0  0
  139.3370   70.7760  221.1020 C   0  0  0  0  0  0  0  0  0  0  0  0
  138.9580   69.4540  221.2980 C   0  0  0  0  0  0  0  0  0  0  0  0
  139.0570   68.8870  222.5490 C   0  0  0  0  0  0  0  0  0  0  0  0
  139.5370   69.6330  223.6260 C   0  0  0  0  0  0  0  0  0  0  0  0
  139.6100   68.9540  224.9060 C   0  0  0  0  0  0  0  0  0  0  0  0
  139.1320   67.7710  224.9390 O   0  0  0  0  0  0  0  0  0  0  0  0
  140.1770   69.5470  226.0770 N   0  0  0  0  0  0  0  0  0  0  0  0
  140.7550   70.8710  226.1970 C   0  0  0  0  0  0  0  0  0  0  0  0
  140.6590   71.1690  227.6620 C   0  0  0  0  0  0  0  0  0  0  0  0
  139.9310   70.0170  228.3150 C   0  0  0  0  0  0  0  0  0  0  0  0
  140.2590   68.8750  227.3620 C   0  0  0  0  0  0  0  0  0  0  0  0
  139.9130   70.9450  223.4250 C   0  0  0  0  0  0  0  0  0  0  0  0
  139.3960   73.8280  222.3490 N   0  0  0  0  0  0  0  0  0  0  0  0
  139.5720   75.2310  222.2270 C   0  0  0  0  0  0  0  0  0  0  0  0
  138.6530   76.1320  222.7000 C   0  0  0  0  0  0  0  0  0  0  0  0
  138.8710   77.4860  222.5610 C   0  0  0  0  0  0  0  0  0  0  0  0
  140.0260   77.9470  221.9410 C   0  0  0  0  0  0  0  0  0  0  0  0
  140.2410   79.3480  221.8110 N   0  0  0  0  0  0  0  0  0  0  0  0
  140.5320   79.9970  220.5480 C   0  0  0  0  0  0  0  0  0  0  0  0
  141.8420   80.7340  220.7100 C   0  0  0  0  0  0  0  0  0  0  0  0
  141.8440   81.5760  221.9450 C   0  0  0  0  0  0  0  0  0  0  0  0
  141.5270   80.7940  223.1980 C   0  0  0  0  0  0  0  0  0  0  0  0
  140.1650   80.1510  223.0190 C   0  0  0  0  0  0  0  0  0  0  0  0
  140.9540   77.0240  221.4640 C   0  0  0  0  0  0  0  0  0  0  0  0
  140.7300   75.6580  221.6050 C   0  0  0  0  0  0  0  0  0  0  0  0
  141.4814   72.7476  220.2507 H   0  0  0  0  0  0  0  0  0  0  0  0
  142.3235   72.7779  221.8337 H   0  0  0  0  0  0  0  0  0  0  0  0
  139.2572   71.2312  220.1038 H   0  0  0  0  0  0  0  0  0  0  0  0
  138.5786   68.8599  220.4536 H   0  0  0  0  0  0  0  0  0  0  0  0
  138.7559   67.8399  222.7001 H   0  0  0  0  0  0  0  0  0  0  0  0
  141.8035   70.8729  225.8642 H   0  0  0  0  0  0  0  0  0  0  0  0
  140.2406   71.6186  225.5753 H   0  0  0  0  0  0  0  0  0  0  0  0
  141.6668   71.2679  228.0916 H   0  0  0  0  0  0  0  0  0  0  0  0
  140.1192   72.1126  227.8301 H   0  0  0  0  0  0  0  0  0  0  0  0
  140.3154   69.8198  229.3266 H   0  0  0  0  0  0  0  0  0  0  0  0
  138.8538   70.1886  228.4572 H   0  0  0  0  0  0  0  0  0  0  0  0
  141.2674   68.4751  227.5441 H   0  0  0  0  0  0  0  0  0  0  0  0
  139.5961   68.0025  227.4581 H   0  0  0  0  0  0  0  0  0  0  0  0
  140.2922   71.5364  224.2714 H   0  0  0  0  0  0  0  0  0  0  0  0
  137.7375   75.7727  223.1927 H   0  0  0  0  0  0  0  0  0  0  0  0
  138.1290   78.2032  222.9418 H   0  0  0  0  0  0  0  0  0  0  0  0
  140.6199   79.2448  219.7502 H   0  0  0  0  0  0  0  0  0  0  0  0
  139.7257   80.6934  220.2742 H   0  0  0  0  0  0  0  0  0  0  0  0
  142.6596   80.0010  220.7751 H   0  0  0  0  0  0  0  0  0  0  0  0
  141.9782   81.3938  219.8405 H   0  0  0  0  0  0  0  0  0  0  0  0
  142.8401   82.0288  222.0580 H   0  0  0  0  0  0  0  0  0  0  0  0
  141.0568   82.3348  221.8249 H   0  0  0  0  0  0  0  0  0  0  0  0
  142.2889   80.0163  223.3551 H   0  0  0  0  0  0  0  0  0  0  0  0
  141.5221   81.4608  224.0729 H   0  0  0  0  0  0  0  0  0  0  0  0
  139.9294   79.5138  223.8842 H   0  0  0  0  0  0  0  0  0  0  0  0
  139.3743   80.9117  222.9407 H   0  0  0  0  0  0  0  0  0  0  0  0
  141.8717   77.3781  220.9717 H   0  0  0  0  0  0  0  0  0  0  0  0
  1  2  2  0
  2  3  1  0
  3  4  1  0
  4  5  1  0
  5  6  2  0
  6  7  1  0
  7  8  2  0
  8  9  1  0
  9 10  1  0
 10 11  2  0
 10 12  1  0
 12 13  1  0
 13 14  1  0
 14 15  1  0
 15 16  1  0
  9 17  2  0
  4 18  2  0
 18 19  1  0
 19 20  2  0
 20 21  1  0
 21 22  2  0
 22 23  1  0
 23 24  1  0
 24 25  1  0
 25 26  1  0
 26 27  1  0
 27 28  1  0
 22 29  1  0
 29 30  2  0
 30  2  1  0
 17  5  1  0
 30 19  1  0
 16 12  1  0
 28 23  1  0
  3 31  1  0
  3 32  1  0
  6 33  1  0
  7 34  1  0
  8 35  1  0
 13 36  1  0
 13 37  1  0
 14 38  1  0
 14 39  1  0
 15 40  1  0
 15 41  1  0
 16 42  1  0
 16 43  1  0
 17 44  1  0
 20 45  1  0
 21 46  1  0
 24 47  1  0
 24 48  1  0
 25 49  1  0
 25 50  1  0
 26 51  1  0
 26 52  1  0
 27 53  1  0
 27 54  1  0
 28 55  1  0
 28 56  1  0
 29 57  1  0
M  END
>  <smiles>  (20) 
O=C1CC(c2cccc(C(=O)N3CCCC3)c2)=Nc2ccc(N3CCCCC3)cc21

>  <score_type>  (20) 
oracle

>  <origin>  (20) 
autodockgpu

>  <m_score__min__energy>  (20) 
-9.2599999999999998

>  <m_primary>  (20) 
energy

>  <rmsd>  (20) 
6.082665751956581

>  <m_score__min__rmsd>  (20) 
6.082665751956581

>  <meeko>  (20) 
{"free_energy": -9.15, "intermolecular_energy": -10.04, "internal_energy": -0.88, "cluster_size": 50, "cluster_id": 1, "rank_in_cluster": 33}

>  <energy>  (20) 
-9.22

>  <cluster_rmsd>  (20) 
0.12

>  <cluster>  (20) 
1

$$$$

     RDKit          3D

 57 61  0  0  0  0  0  0  0  0999 V2000
  142.8890   74.8450  220.4420 O   0  0  0  0  0  0  0  0  0  0  0  0
  141.8290   74.4960  221.0490 C   0  0  0  0  0  0  0  0  0  0  0  0
  141.5870   73.0460  221.1940 C   0  0  0  0  0  0  0  0  0  0  0  0
  140.3120   72.8380  221.9220 C   0  0  0  0  0  0  0  0  0  0  0  0
  139.8670   71.4520  222.1870 C   0  0  0  0  0  0  0  0  0  0  0  0
  139.3510   70.7050  221.1250 C   0  0  0  0  0  0  0  0  0  0  0  0
  138.9190   69.4030  221.3450 C   0  0  0  0  0  0  0  0  0  0  0  0
  139.0000   68.8530  222.6050 C   0  0  0  0  0  0  0  0  0  0  0  0
  139.5150   69.5970  223.6670 C   0  0  0  0  0  0  0  0  0  0  0  0
  139.5650   68.9370  224.9590 C   0  0  0  0  0  0  0  0  0  0  0  0
  139.0520   67.7700  225.0100 O   0  0  0  0  0  0  0  0  0  0  0  0
  140.1490   69.5320  226.1210 N   0  0  0  0  0  0  0  0  0  0  0  0
  140.7650   70.8400  226.2210 C   0  0  0  0  0  0  0  0  0  0  0  0
  140.6760   71.1640  227.6800 C   0  0  0  0  0  0  0  0  0  0  0  0
  139.9140   70.0460  228.3510 C   0  0  0  0  0  0  0  0  0  0  0  0
  140.2090   68.8780  227.4170 C   0  0  0  0  0  0  0  0  0  0  0  0
  139.9430   70.8890  223.4430 C   0  0  0  0  0  0  0  0  0  0  0  0
  139.5540   73.7730  222.3490 N   0  0  0  0  0  0  0  0  0  0  0  0
  139.7890   75.1650  222.2080 C   0  0  0  0  0  0  0  0  0  0  0  0
  138.9270   76.1110  222.7000 C   0  0  0  0  0  0  0  0  0  0  0  0
  139.2010   77.4530  222.5420 C   0  0  0  0  0  0  0  0  0  0  0  0
  140.3560   77.8550  221.8830 C   0  0  0  0  0  0  0  0  0  0  0  0
  140.6300   79.2450  221.7330 N   0  0  0  0  0  0  0  0  0  0  0  0
  141.8170   79.7570  221.0800 C   0  0  0  0  0  0  0  0  0  0  0  0
  142.5250   80.6560  222.0690 C   0  0  0  0  0  0  0  0  0  0  0  0
  141.5810   81.6430  222.6790 C   0  0  0  0  0  0  0  0  0  0  0  0
  140.3810   80.9940  223.3290 C   0  0  0  0  0  0  0  0  0  0  0  0
  139.6580   80.1790  222.2730 C   0  0  0  0  0  0  0  0  0  0  0  0
  141.2270   76.8870  221.3860 C   0  0  0  0  0  0  0  0  0  0  0  0
  140.9450   75.5340  221.5480 C   0  0  0  0  0  0  0  0  0  0  0  0
  141.5231   72.5818  220.1988 H   0  0  0  0  0  0  0  0  0  0  0  0
  142.4138   72.5863  221.7553 H   0  0  0  0  0  0  0  0  0  0  0  0
  139.2871   71.1458  220.1192 H   0  0  0  0  0  0  0  0  0  0  0  0
  138.5119   68.8109  220.5121 H   0  0  0  0  0  0  0  0  0  0  0  0
  138.6569   67.8218  222.7750 H   0  0  0  0  0  0  0  0  0  0  0  0
  141.8135   70.8061  225.8900 H   0  0  0  0  0  0  0  0  0  0  0  0
  140.2733   71.5922  225.5867 H   0  0  0  0  0  0  0  0  0  0  0  0
  141.6858   71.2401  228.1095 H   0  0  0  0  0  0  0  0  0  0  0  0
  140.1636   72.1256  227.8314 H   0  0  0  0  0  0  0  0  0  0  0  0
  140.2916   69.8546  229.3663 H   0  0  0  0  0  0  0  0  0  0  0  0
  138.8423   70.2518  228.4890 H   0  0  0  0  0  0  0  0  0  0  0  0
  141.2046   68.4509  227.6075 H   0  0  0  0  0  0  0  0  0  0  0  0
  139.5203   68.0272  227.5261 H   0  0  0  0  0  0  0  0  0  0  0  0
  140.3504   71.4780  224.2779 H   0  0  0  0  0  0  0  0  0  0  0  0
  138.0118   75.7975  223.2236 H   0  0  0  0  0  0  0  0  0  0  0  0
  138.5042   78.2063  222.9383 H   0  0  0  0  0  0  0  0  0  0  0  0
  142.4753   78.9248  220.7902 H   0  0  0  0  0  0  0  0  0  0  0  0
  141.5499   80.3147  220.1702 H   0  0  0  0  0  0  0  0  0  0  0  0
  142.9614   80.0373  222.8669 H   0  0  0  0  0  0  0  0  0  0  0  0
  143.3095   81.2111  221.5337 H   0  0  0  0  0  0  0  0  0  0  0  0
  142.1233   82.2198  223.4427 H   0  0  0  0  0  0  0  0  0  0  0  0
  141.2069   82.2834  221.8667 H   0  0  0  0  0  0  0  0  0  0  0  0
  140.7099   80.3366  224.1473 H   0  0  0  0  0  0  0  0  0  0  0  0
  139.7107   81.7608  223.7445 H   0  0  0  0  0  0  0  0  0  0  0  0
  138.8170   79.6327  222.7250 H   0  0  0  0  0  0  0  0  0  0  0  0
  139.2484   80.8263  221.4835 H   0  0  0  0  0  0  0  0  0  0  0  0
  142.1439   77.1948  220.8620 H   0  0  0  0  0  0  0  0  0  0  0  0
  1  2  2  0
  2  3  1  0
  3  4  1  0
  4  5  1  0
  5  6  2  0
  6  7  1  0
  7  8  2  0
  8  9  1  0
  9 10  1  0
 10 11  2  0
 10 12  1  0
 12 13  1  0
 13 14  1  0
 14 15  1  0
 15 16  1  0
  9 17  2  0
  4 18  2  0
 18 19  1  0
 19 20  2  0
 20 21  1  0
 21 22  2  0
 22 23  1  0
 23 24  1  0
 24 25  1  0
 25 26  1  0
 26 27  1  0
 27 28  1  0
 22 29  1  0
 29 30  2  0
 30  2  1  0
 17  5  1  0
 30 19  1  0
 16 12  1  0
 28 23  1  0
  3 31  1  0
  3 32  1  0
  6 33  1  0
  7 34  1  0
  8 35  1  0
 13 36  1  0
 13 37  1  0
 14 38  1  0
 14 39  1  0
 15 40  1  0
 15 41  1  0
 16 42  1  0
 16 43  1  0
 17 44  1  0
 20 45  1  0
 21 46  1  0
 24 47  1  0
 24 48  1  0
 25 49  1  0
 25 50  1  0
 26 51  1  0
 26 52  1  0
 27 53  1  0
 27 54  1  0
 28 55  1  0
 28 56  1  0
 29 57  1  0
M  END
>  <smiles>  (21) 
O=C1CC(c2cccc(C(=O)N3CCCC3)c2)=Nc2ccc(N3CCCCC3)cc21

>  <score_type>  (21) 
oracle

>  <origin>  (21) 
autodockgpu

>  <m_score__min__energy>  (21) 
-9.2599999999999998

>  <m_primary>  (21) 
energy

>  <rmsd>  (21) 
6.172436215153802

>  <m_score__min__rmsd>  (21) 
6.172436215153802

>  <meeko>  (21) 
{"free_energy": -9.25, "intermolecular_energy": -10.15, "internal_energy": -0.87, "cluster_size": 50, "cluster_id": 1, "rank_in_cluster": 6}

>  <energy>  (21) 
-9.2

>  <cluster_rmsd>  (21) 
0.26

>  <cluster>  (21) 
1

$$$$

     RDKit          3D

 57 61  0  0  0  0  0  0  0  0999 V2000
  142.8500   74.8480  220.4650 O   0  0  0  0  0  0  0  0  0  0  0  0
  141.7830   74.5060  221.0630 C   0  0  0  0  0  0  0  0  0  0  0  0
  141.5340   73.0580  221.2130 C   0  0  0  0  0  0  0  0  0  0  0  0
  140.2510   72.8570  221.9290 C   0  0  0  0  0  0  0  0  0  0  0  0
  139.8000   71.4740  222.1960 C   0  0  0  0  0  0  0  0  0  0  0  0
  139.2070   70.7560  221.1540 C   0  0  0  0  0  0  0  0  0  0  0  0
  138.7670   69.4570  221.3770 C   0  0  0  0  0  0  0  0  0  0  0  0
  138.9140   68.8830  222.6200 C   0  0  0  0  0  0  0  0  0  0  0  0
  139.5040   69.5980  223.6620 C   0  0  0  0  0  0  0  0  0  0  0  0
  139.6200   68.9140  224.9360 C   0  0  0  0  0  0  0  0  0  0  0  0
  139.1710   67.7200  224.9730 O   0  0  0  0  0  0  0  0  0  0  0  0
  140.1980   69.5130  226.0990 N   0  0  0  0  0  0  0  0  0  0  0  0
  140.7460   70.8500  226.2150 C   0  0  0  0  0  0  0  0  0  0  0  0
  140.6750   71.1380  227.6830 C   0  0  0  0  0  0  0  0  0  0  0  0
  139.9890   69.9650  228.3450 C   0  0  0  0  0  0  0  0  0  0  0  0
  140.3240   68.8360  227.3780 C   0  0  0  0  0  0  0  0  0  0  0  0
  139.9400   70.8870  223.4350 C   0  0  0  0  0  0  0  0  0  0  0  0
  139.4930   73.7970  222.3440 N   0  0  0  0  0  0  0  0  0  0  0  0
  139.7340   75.1870  222.1990 C   0  0  0  0  0  0  0  0  0  0  0  0
  138.8710   76.1390  222.6780 C   0  0  0  0  0  0  0  0  0  0  0  0
  139.1510   77.4790  222.5160 C   0  0  0  0  0  0  0  0  0  0  0  0
  140.3140   77.8740  221.8670 C   0  0  0  0  0  0  0  0  0  0  0  0
  140.5940   79.2620  221.7130 N   0  0  0  0  0  0  0  0  0  0  0  0
  141.8090   79.7680  221.1060 C   0  0  0  0  0  0  0  0  0  0  0  0
  142.4730   80.6780  222.1150 C   0  0  0  0  0  0  0  0  0  0  0  0
  141.5040   81.6710  222.6720 C   0  0  0  0  0  0  0  0  0  0  0  0
  140.2770   81.0290  223.2770 C   0  0  0  0  0  0  0  0  0  0  0  0
  139.6000   80.2020  222.2000 C   0  0  0  0  0  0  0  0  0  0  0  0
  141.1860   76.9000  221.3830 C   0  0  0  0  0  0  0  0  0  0  0  0
  140.8980   75.5490  221.5490 C   0  0  0  0  0  0  0  0  0  0  0  0
  141.4786   72.5891  220.2195 H   0  0  0  0  0  0  0  0  0  0  0  0
  142.3534   72.5988  221.7855 H   0  0  0  0  0  0  0  0  0  0  0  0
  139.0891   71.2169  220.1622 H   0  0  0  0  0  0  0  0  0  0  0  0
  138.3009   68.8868  220.5600 H   0  0  0  0  0  0  0  0  0  0  0  0
  138.5640   67.8545  222.7921 H   0  0  0  0  0  0  0  0  0  0  0  0
  141.7866   70.8794  225.8596 H   0  0  0  0  0  0  0  0  0  0  0  0
  140.1997   71.5881  225.6094 H   0  0  0  0  0  0  0  0  0  0  0  0
  141.6893   71.2588  228.0912 H   0  0  0  0  0  0  0  0  0  0  0  0
  140.1167   72.0675  227.8683 H   0  0  0  0  0  0  0  0  0  0  0  0
  140.3998   69.7718  229.3470 H   0  0  0  0  0  0  0  0  0  0  0  0
  138.9113   70.1097  228.5114 H   0  0  0  0  0  0  0  0  0  0  0  0
  141.3455   68.4598  227.5360 H   0  0  0  0  0  0  0  0  0  0  0  0
  139.6847   67.9471  227.4831 H   0  0  0  0  0  0  0  0  0  0  0  0
  140.4059   71.4542  224.2543 H   0  0  0  0  0  0  0  0  0  0  0  0
  137.9498   75.8315  223.1946 H   0  0  0  0  0  0  0  0  0  0  0  0
  138.4526   78.2365  222.9012 H   0  0  0  0  0  0  0  0  0  0  0  0
  142.4795   78.9331  220.8541 H   0  0  0  0  0  0  0  0  0  0  0  0
  141.5816   80.3155  220.1794 H   0  0  0  0  0  0  0  0  0  0  0  0
  142.8739   80.0682  222.9381 H   0  0  0  0  0  0  0  0  0  0  0  0
  143.2802   81.2274  221.6084 H   0  0  0  0  0  0  0  0  0  0  0  0
  142.0128   82.2568  223.4517 H   0  0  0  0  0  0  0  0  0  0  0  0
  141.1654   82.3018  221.8369 H   0  0  0  0  0  0  0  0  0  0  0  0
  140.5703   80.3809  224.1160 H   0  0  0  0  0  0  0  0  0  0  0  0
  139.5896   81.8002  223.6547 H   0  0  0  0  0  0  0  0  0  0  0  0
  138.7400   79.6608  222.6214 H   0  0  0  0  0  0  0  0  0  0  0  0
  139.2253   80.8403  221.3863 H   0  0  0  0  0  0  0  0  0  0  0  0
  142.1088   77.2019  220.8659 H   0  0  0  0  0  0  0  0  0  0  0  0
  1  2  2  0
  2  3  1  0
  3  4  1  0
  4  5  1  0
  5  6  2  0
  6  7  1  0
  7  8  2  0
  8  9  1  0
  9 10  1  0
 10 11  2  0
 10 12  1  0
 12 13  1  0
 13 14  1  0
 14 15  1  0
 15 16  1  0
  9 17  2  0
  4 18  2  0
 18 19  1  0
 19 20  2  0
 20 21  1  0
 21 22  2  0
 22 23  1  0
 23 24  1  0
 24 25  1  0
 25 26  1  0
 26 27  1  0
 27 28  1  0
 22 29  1  0
 29 30  2  0
 30  2  1  0
 17  5  1  0
 30 19  1  0
 16 12  1  0
 28 23  1  0
  3 31  1  0
  3 32  1  0
  6 33  1  0
  7 34  1  0
  8 35  1  0
 13 36  1  0
 13 37  1  0
 14 38  1  0
 14 39  1  0
 15 40  1  0
 15 41  1  0
 16 42  1  0
 16 43  1  0
 17 44  1  0
 20 45  1  0
 21 46  1  0
 24 47  1  0
 24 48  1  0
 25 49  1  0
 25 50  1  0
 26 51  1  0
 26 52  1  0
 27 53  1  0
 27 54  1  0
 28 55  1  0
 28 56  1  0
 29 57  1  0
M  END
>  <smiles>  (22) 
O=C1CC(c2cccc(C(=O)N3CCCC3)c2)=Nc2ccc(N3CCCCC3)cc21

>  <score_type>  (22) 
oracle

>  <origin>  (22) 
autodockgpu

>  <m_score__min__energy>  (22) 
-9.2599999999999998

>  <m_primary>  (22) 
energy

>  <rmsd>  (22) 
6.162073272033291

>  <m_score__min__rmsd>  (22) 
6.162073272033291

>  <meeko>  (22) 
{"free_energy": -9.25, "intermolecular_energy": -10.15, "internal_energy": -0.86, "cluster_size": 50, "cluster_id": 1, "rank_in_cluster": 8}

>  <energy>  (22) 
-9.2

>  <cluster_rmsd>  (22) 
0.47

>  <cluster>  (22) 
1

$$$$

     RDKit          3D

 57 61  0  0  0  0  0  0  0  0999 V2000
  142.7300   75.0940  220.4840 O   0  0  0  0  0  0  0  0  0  0  0  0
  141.6830   74.6830  221.0750 C   0  0  0  0  0  0  0  0  0  0  0  0
  141.5130   73.2210  221.1970 C   0  0  0  0  0  0  0  0  0  0  0  0
  140.2430   72.9380  221.9080 C   0  0  0  0  0  0  0  0  0  0  0  0
  139.8670   71.5270  222.1480 C   0  0  0  0  0  0  0  0  0  0  0  0
  139.4180   70.7660  221.0670 C   0  0  0  0  0  0  0  0  0  0  0  0
  139.0510   69.4400  221.2630 C   0  0  0  0  0  0  0  0  0  0  0  0
  139.1300   68.8820  222.5190 C   0  0  0  0  0  0  0  0  0  0  0  0
  139.5760   69.6400  223.6010 C   0  0  0  0  0  0  0  0  0  0  0  0
  139.6290   68.9690  224.8870 C   0  0  0  0  0  0  0  0  0  0  0  0
  139.1290   67.7960  224.9260 O   0  0  0  0  0  0  0  0  0  0  0  0
  140.2020   69.5600  226.0570 N   0  0  0  0  0  0  0  0  0  0  0  0
  140.8030   70.8740  226.1700 C   0  0  0  0  0  0  0  0  0  0  0  0
  140.7050   71.1850  227.6320 C   0  0  0  0  0  0  0  0  0  0  0  0
  139.9520   70.0520  228.2900 C   0  0  0  0  0  0  0  0  0  0  0  0
  140.2640   68.8970  227.3470 C   0  0  0  0  0  0  0  0  0  0  0  0
  139.9400   70.9560  223.4010 C   0  0  0  0  0  0  0  0  0  0  0  0
  139.4350   73.8270  222.3410 N   0  0  0  0  0  0  0  0  0  0  0  0
  139.6010   75.2310  222.2230 C   0  0  0  0  0  0  0  0  0  0  0  0
  138.6880   76.1250  222.7200 C   0  0  0  0  0  0  0  0  0  0  0  0
  138.8950   77.4810  222.5840 C   0  0  0  0  0  0  0  0  0  0  0  0
  140.0350   77.9510  221.9430 C   0  0  0  0  0  0  0  0  0  0  0  0
  140.2400   79.3540  221.8160 N   0  0  0  0  0  0  0  0  0  0  0  0
  140.6050   79.9970  220.5710 C   0  0  0  0  0  0  0  0  0  0  0  0
  141.8930   80.7530  220.8130 C   0  0  0  0  0  0  0  0  0  0  0  0
  141.8010   81.6040  222.0390 C   0  0  0  0  0  0  0  0  0  0  0  0
  141.4120   80.8270  223.2750 C   0  0  0  0  0  0  0  0  0  0  0  0
  140.0730   80.1640  223.0100 C   0  0  0  0  0  0  0  0  0  0  0  0
  140.9580   77.0350  221.4420 C   0  0  0  0  0  0  0  0  0  0  0  0
  140.7430   75.6670  221.5810 C   0  0  0  0  0  0  0  0  0  0  0  0
  141.4827   72.7688  220.1947 H   0  0  0  0  0  0  0  0  0  0  0  0
  142.3562   72.7956  221.7609 H   0  0  0  0  0  0  0  0  0  0  0  0
  139.3550   71.2141  220.0644 H   0  0  0  0  0  0  0  0  0  0  0  0
  138.6973   68.8362  220.4143 H   0  0  0  0  0  0  0  0  0  0  0  0
  138.8395   67.8318  222.6699 H   0  0  0  0  0  0  0  0  0  0  0  0
  141.8530   70.8545  225.8427 H   0  0  0  0  0  0  0  0  0  0  0  0
  140.3052   71.6259  225.5400 H   0  0  0  0  0  0  0  0  0  0  0  0
  141.7122   71.2682  228.0662 H   0  0  0  0  0  0  0  0  0  0  0  0
  140.1822   72.1398  227.7899 H   0  0  0  0  0  0  0  0  0  0  0  0
  140.3272   69.8554  229.3051 H   0  0  0  0  0  0  0  0  0  0  0  0
  138.8775   70.2446  228.4254 H   0  0  0  0  0  0  0  0  0  0  0  0
  141.2637   68.4798  227.5379 H   0  0  0  0  0  0  0  0  0  0  0  0
  139.5841   68.0379  227.4457 H   0  0  0  0  0  0  0  0  0  0  0  0
  140.2929   71.5571  224.2520 H   0  0  0  0  0  0  0  0  0  0  0  0
  137.7852   75.7581  223.2302 H   0  0  0  0  0  0  0  0  0  0  0  0
  138.1569   78.1921  222.9834 H   0  0  0  0  0  0  0  0  0  0  0  0
  140.7548   79.2403  219.7868 H   0  0  0  0  0  0  0  0  0  0  0  0
  139.8097   80.6807  220.2392 H   0  0  0  0  0  0  0  0  0  0  0  0
  142.7139   80.0316  220.9383 H   0  0  0  0  0  0  0  0  0  0  0  0
  142.0790   81.4078  219.9489 H   0  0  0  0  0  0  0  0  0  0  0  0
  142.7810   82.0719  222.2142 H   0  0  0  0  0  0  0  0  0  0  0  0
  141.0128   82.3503  221.8605 H   0  0  0  0  0  0  0  0  0  0  0  0
  142.1720   80.0611  223.4890 H   0  0  0  0  0  0  0  0  0  0  0  0
  141.3403   81.4997  224.1424 H   0  0  0  0  0  0  0  0  0  0  0  0
  139.7884   79.5295  223.8623 H   0  0  0  0  0  0  0  0  0  0  0  0
  139.2795   80.9134  222.8731 H   0  0  0  0  0  0  0  0  0  0  0  0
  141.8637   77.3960  220.9327 H   0  0  0  0  0  0  0  0  0  0  0  0
  1  2  2  0
  2  3  1  0
  3  4  1  0
  4  5  1  0
  5  6  2  0
  6  7  1  0
  7  8  2  0
  8  9  1  0
  9 10  1  0
 10 11  2  0
 10 12  1  0
 12 13  1  0
 13 14  1  0
 14 15  1  0
 15 16  1  0
  9 17  2  0
  4 18  2  0
 18 19  1  0
 19 20  2  0
 20 21  1  0
 21 22  2  0
 22 23  1  0
 23 24  1  0
 24 25  1  0
 25 26  1  0
 26 27  1  0
 27 28  1  0
 22 29  1  0
 29 30  2  0
 30  2  1  0
 17  5  1  0
 30 19  1  0
 16 12  1  0
 28 23  1  0
  3 31  1  0
  3 32  1  0
  6 33  1  0
  7 34  1  0
  8 35  1  0
 13 36  1  0
 13 37  1  0
 14 38  1  0
 14 39  1  0
 15 40  1  0
 15 41  1  0
 16 42  1  0
 16 43  1  0
 17 44  1  0
 20 45  1  0
 21 46  1  0
 24 47  1  0
 24 48  1  0
 25 49  1  0
 25 50  1  0
 26 51  1  0
 26 52  1  0
 27 53  1  0
 27 54  1  0
 28 55  1  0
 28 56  1  0
 29 57  1  0
M  END
>  <smiles>  (23) 
O=C1CC(c2cccc(C(=O)N3CCCC3)c2)=Nc2ccc(N3CCCCC3)cc21

>  <score_type>  (23) 
oracle

>  <origin>  (23) 
autodockgpu

>  <m_score__min__energy>  (23) 
-9.2599999999999998

>  <m_primary>  (23) 
energy

>  <rmsd>  (23) 
6.097987416519849

>  <m_score__min__rmsd>  (23) 
6.097987416519849

>  <meeko>  (23) 
{"free_energy": -9.15, "intermolecular_energy": -10.04, "internal_energy": -0.88, "cluster_size": 50, "cluster_id": 1, "rank_in_cluster": 32}

>  <energy>  (23) 
-9.2

>  <cluster_rmsd>  (23) 
0.14

>  <cluster>  (23) 
1

$$$$

     RDKit          3D

 57 61  0  0  0  0  0  0  0  0999 V2000
  142.7260   75.2140  220.4130 O   0  0  0  0  0  0  0  0  0  0  0  0
  141.6940   74.7960  221.0240 C   0  0  0  0  0  0  0  0  0  0  0  0
  141.5350   73.3330  221.1510 C   0  0  0  0  0  0  0  0  0  0  0  0
  140.2810   73.0430  221.8870 C   0  0  0  0  0  0  0  0  0  0  0  0
  139.9190   71.6300  222.1350 C   0  0  0  0  0  0  0  0  0  0  0  0
  139.5880   70.8270  221.0410 C   0  0  0  0  0  0  0  0  0  0  0  0
  139.2370   69.4980  221.2440 C   0  0  0  0  0  0  0  0  0  0  0  0
  139.2140   68.9780  222.5190 C   0  0  0  0  0  0  0  0  0  0  0  0
  139.5430   69.7780  223.6130 C   0  0  0  0  0  0  0  0  0  0  0  0
  139.4950   69.1460  224.9180 C   0  0  0  0  0  0  0  0  0  0  0  0
  138.8630   68.0390  224.9810 O   0  0  0  0  0  0  0  0  0  0  0  0
  140.1100   69.7040  226.0830 N   0  0  0  0  0  0  0  0  0  0  0  0
  140.8560   70.9440  226.1720 C   0  0  0  0  0  0  0  0  0  0  0  0
  140.7670   71.3090  227.6210 C   0  0  0  0  0  0  0  0  0  0  0  0
  139.8780   70.2900  228.2950 C   0  0  0  0  0  0  0  0  0  0  0  0
  140.0720   69.0780  227.3930 C   0  0  0  0  0  0  0  0  0  0  0  0
  139.8920   71.0970  223.4060 C   0  0  0  0  0  0  0  0  0  0  0  0
  139.4760   73.9270  222.3340 N   0  0  0  0  0  0  0  0  0  0  0  0
  139.6310   75.3320  222.2120 C   0  0  0  0  0  0  0  0  0  0  0  0
  138.7210   76.2210  222.7250 C   0  0  0  0  0  0  0  0  0  0  0  0
  138.9170   77.5780  222.5840 C   0  0  0  0  0  0  0  0  0  0  0  0
  140.0420   78.0550  221.9210 C   0  0  0  0  0  0  0  0  0  0  0  0
  140.2350   79.4590  221.7890 N   0  0  0  0  0  0  0  0  0  0  0  0
  140.5220   80.1100  220.5270 C   0  0  0  0  0  0  0  0  0  0  0  0
  141.8200   80.8670  220.6940 C   0  0  0  0  0  0  0  0  0  0  0  0
  141.8020   81.7120  221.9270 C   0  0  0  0  0  0  0  0  0  0  0  0
  141.4910   80.9280  223.1800 C   0  0  0  0  0  0  0  0  0  0  0  0
  140.1400   80.2630  222.9950 C   0  0  0  0  0  0  0  0  0  0  0  0
  140.9610   77.1440  221.4030 C   0  0  0  0  0  0  0  0  0  0  0  0
  140.7580   75.7750  221.5470 C   0  0  0  0  0  0  0  0  0  0  0  0
  141.4878   72.8794  220.1500 H   0  0  0  0  0  0  0  0  0  0  0  0
  142.3916   72.9135  221.6989 H   0  0  0  0  0  0  0  0  0  0  0  0
  139.6051   71.2448  220.0236 H   0  0  0  0  0  0  0  0  0  0  0  0
  138.9773   68.8608  220.3858 H   0  0  0  0  0  0  0  0  0  0  0  0
  138.9346   67.9256  222.6754 H   0  0  0  0  0  0  0  0  0  0  0  0
  141.9028   70.7945  225.8688 H   0  0  0  0  0  0  0  0  0  0  0  0
  140.4598   71.7281  225.5100 H   0  0  0  0  0  0  0  0  0  0  0  0
  141.7690   71.2910  228.0746 H   0  0  0  0  0  0  0  0  0  0  0  0
  140.3533   72.3213  227.7397 H   0  0  0  0  0  0  0  0  0  0  0  0
  140.2103   70.0836  229.3231 H   0  0  0  0  0  0  0  0  0  0  0  0
  138.8304   70.6079  228.4016 H   0  0  0  0  0  0  0  0  0  0  0  0
  141.0135   68.5552  227.6173 H   0  0  0  0  0  0  0  0  0  0  0  0
  139.2963   68.3057  227.5018 H   0  0  0  0  0  0  0  0  0  0  0  0
  140.1520   71.7312  224.2663 H   0  0  0  0  0  0  0  0  0  0  0  0
  137.8299   75.8489  223.2518 H   0  0  0  0  0  0  0  0  0  0  0  0
  138.1821   78.2848  222.9967 H   0  0  0  0  0  0  0  0  0  0  0  0
  140.6250   79.3580  219.7308 H   0  0  0  0  0  0  0  0  0  0  0  0
  139.7066   80.7937  220.2482 H   0  0  0  0  0  0  0  0  0  0  0  0
  142.6482   80.1466  220.7656 H   0  0  0  0  0  0  0  0  0  0  0  0
  141.9515   81.5264  219.8234 H   0  0  0  0  0  0  0  0  0  0  0  0
  142.7901   82.1810  222.0441 H   0  0  0  0  0  0  0  0  0  0  0  0
  141.0034   82.4579  221.8010 H   0  0  0  0  0  0  0  0  0  0  0  0
  142.2643   80.1628  223.3429 H   0  0  0  0  0  0  0  0  0  0  0  0
  141.4710   81.5964  224.0534 H   0  0  0  0  0  0  0  0  0  0  0  0
  139.9099   79.6238  223.8602 H   0  0  0  0  0  0  0  0  0  0  0  0
  139.3378   81.0110  222.9110 H   0  0  0  0  0  0  0  0  0  0  0  0
  141.8543   77.5104  220.8759 H   0  0  0  0  0  0  0  0  0  0  0  0
  1  2  2  0
  2  3  1  0
  3  4  1  0
  4  5  1  0
  5  6  2  0
  6  7  1  0
  7  8  2  0
  8  9  1  0
  9 10  1  0
 10 11  2  0
 10 12  1  0
 12 13  1  0
 13 14  1  0
 14 15  1  0
 15 16  1  0
  9 17  2  0
  4 18  2  0
 18 19  1  0
 19 20  2  0
 20 21  1  0
 21 22  2  0
 22 23  1  0
 23 24  1  0
 24 25  1  0
 25 26  1  0
 26 27  1  0
 27 28  1  0
 22 29  1  0
 29 30  2  0
 30  2  1  0
 17  5  1  0
 30 19  1  0
 16 12  1  0
 28 23  1  0
  3 31  1  0
  3 32  1  0
  6 33  1  0
  7 34  1  0
  8 35  1  0
 13 36  1  0
 13 37  1  0
 14 38  1  0
 14 39  1  0
 15 40  1  0
 15 41  1  0
 16 42  1  0
 16 43  1  0
 17 44  1  0
 20 45  1  0
 21 46  1  0
 24 47  1  0
 24 48  1  0
 25 49  1  0
 25 50  1  0
 26 51  1  0
 26 52  1  0
 27 53  1  0
 27 54  1  0
 28 55  1  0
 28 56  1  0
 29 57  1  0
M  END
>  <smiles>  (24) 
O=C1CC(c2cccc(C(=O)N3CCCC3)c2)=Nc2ccc(N3CCCCC3)cc21

>  <score_type>  (24) 
oracle

>  <origin>  (24) 
autodockgpu

>  <m_score__min__energy>  (24) 
-9.2599999999999998

>  <m_primary>  (24) 
energy

>  <rmsd>  (24) 
6.077118039637011

>  <m_score__min__rmsd>  (24) 
6.077118039637011

>  <meeko>  (24) 
{"free_energy": -9.11, "intermolecular_energy": -10.0, "internal_energy": -0.92, "cluster_size": 50, "cluster_id": 1, "rank_in_cluster": 42}

>  <energy>  (24) 
-9.19

>  <cluster_rmsd>  (24) 
0.13

>  <cluster>  (24) 
1

$$$$

     RDKit          3D

 57 61  0  0  0  0  0  0  0  0999 V2000
  142.8670   74.6690  220.4550 O   0  0  0  0  0  0  0  0  0  0  0  0
  141.7680   74.4750  221.0620 C   0  0  0  0  0  0  0  0  0  0  0  0
  141.3540   73.0730  221.2680 C   0  0  0  0  0  0  0  0  0  0  0  0
  140.0570   73.0500  221.9860 C   0  0  0  0  0  0  0  0  0  0  0  0
  139.4490   71.7400  222.3060 C   0  0  0  0  0  0  0  0  0  0  0  0
  138.4750   71.2310  221.4440 C   0  0  0  0  0  0  0  0  0  0  0  0
  137.8810   70.0060  221.7220 C   0  0  0  0  0  0  0  0  0  0  0  0
  138.2520   69.2990  222.8440 C   0  0  0  0  0  0  0  0  0  0  0  0
  139.2240   69.8060  223.7070 C   0  0  0  0  0  0  0  0  0  0  0  0
  139.5540   68.9920  224.8620 C   0  0  0  0  0  0  0  0  0  0  0  0
  139.2220   67.7620  224.7940 O   0  0  0  0  0  0  0  0  0  0  0  0
  140.2130   69.5080  226.0230 N   0  0  0  0  0  0  0  0  0  0  0  0
  140.6490   70.8720  226.2490 C   0  0  0  0  0  0  0  0  0  0  0  0
  140.7310   70.9760  227.7410 C   0  0  0  0  0  0  0  0  0  0  0  0
  140.2370   69.6690  228.3170 C   0  0  0  0  0  0  0  0  0  0  0  0
  140.5520   68.7020  227.1820 C   0  0  0  0  0  0  0  0  0  0  0  0
  139.8110   71.0220  223.4260 C   0  0  0  0  0  0  0  0  0  0  0  0
  139.4110   74.0870  222.3600 N   0  0  0  0  0  0  0  0  0  0  0  0
  139.8110   75.4330  222.1610 C   0  0  0  0  0  0  0  0  0  0  0  0
  139.0630   76.4960  222.5970 C   0  0  0  0  0  0  0  0  0  0  0  0
  139.4950   77.7880  222.3840 C   0  0  0  0  0  0  0  0  0  0  0  0
  140.6960   78.0200  221.7240 C   0  0  0  0  0  0  0  0  0  0  0  0
  141.1340   79.3590  221.5160 N   0  0  0  0  0  0  0  0  0  0  0  0
  142.3280   79.9110  222.1240 C   0  0  0  0  0  0  0  0  0  0  0  0
  141.9110   81.1350  222.9080 C   0  0  0  0  0  0  0  0  0  0  0  0
  141.0620   82.0470  222.0820 C   0  0  0  0  0  0  0  0  0  0  0  0
  139.8470   81.3630  221.4990 C   0  0  0  0  0  0  0  0  0  0  0  0
  140.3260   80.1990  220.6510 C   0  0  0  0  0  0  0  0  0  0  0  0
  141.4500   76.9340  221.2840 C   0  0  0  0  0  0  0  0  0  0  0  0
  141.0090   75.6320  221.5020 C   0  0  0  0  0  0  0  0  0  0  0  0
  141.2444   72.5744  220.2936 H   0  0  0  0  0  0  0  0  0  0  0  0
  142.1152   72.5455  221.8615 H   0  0  0  0  0  0  0  0  0  0  0  0
  138.1794   71.7976  220.5487 H   0  0  0  0  0  0  0  0  0  0  0  0
  137.1141   69.6008  221.0455 H   0  0  0  0  0  0  0  0  0  0  0  0
  137.7796   68.3296  223.0609 H   0  0  0  0  0  0  0  0  0  0  0  0
  141.6319   71.0510  225.7887 H   0  0  0  0  0  0  0  0  0  0  0  0
  139.9697   71.6155  225.8066 H   0  0  0  0  0  0  0  0  0  0  0  0
  141.7725   71.1517  228.0483 H   0  0  0  0  0  0  0  0  0  0  0  0
  140.1190   71.8147  228.1044 H   0  0  0  0  0  0  0  0  0  0  0  0
  140.7812   69.4027  229.2351 H   0  0  0  0  0  0  0  0  0  0  0  0
  139.1787   69.6811  228.6167 H   0  0  0  0  0  0  0  0  0  0  0  0
  141.6145   68.4172  227.1782 H   0  0  0  0  0  0  0  0  0  0  0  0
  140.0118   67.7456  227.2406 H   0  0  0  0  0  0  0  0  0  0  0  0
  140.5779   71.4242  224.1042 H   0  0  0  0  0  0  0  0  0  0  0  0
  138.1121   76.3170  223.1201 H   0  0  0  0  0  0  0  0  0  0  0  0
  138.8888   78.6355  222.7366 H   0  0  0  0  0  0  0  0  0  0  0  0
  142.7840   79.1703  222.7974 H   0  0  0  0  0  0  0  0  0  0  0  0
  143.0688   80.1757  221.3551 H   0  0  0  0  0  0  0  0  0  0  0  0
  141.3393   80.8164  223.7921 H   0  0  0  0  0  0  0  0  0  0  0  0
  142.8179   81.6812  223.2066 H   0  0  0  0  0  0  0  0  0  0  0  0
  140.7239   82.8798  222.7161 H   0  0  0  0  0  0  0  0  0  0  0  0
  141.6782   82.3935  221.2392 H   0  0  0  0  0  0  0  0  0  0  0  0
  139.2016   80.9936  222.3096 H   0  0  0  0  0  0  0  0  0  0  0  0
  139.2680   82.0695  220.8862 H   0  0  0  0  0  0  0  0  0  0  0  0
  139.4662   79.6310  220.2661 H   0  0  0  0  0  0  0  0  0  0  0  0
  140.9070   80.5517  219.7861 H   0  0  0  0  0  0  0  0  0  0  0  0
  142.4016   77.1071  220.7600 H   0  0  0  0  0  0  0  0  0  0  0  0
  1  2  2  0
  2  3  1  0
  3  4  1  0
  4  5  1  0
  5  6  2  0
  6  7  1  0
  7  8  2  0
  8  9  1  0
  9 10  1  0
 10 11  2  0
 10 12  1  0
 12 13  1  0
 13 14  1  0
 14 15  1  0
 15 16  1  0
  9 17  2  0
  4 18  2  0
 18 19  1  0
 19 20  2  0
 20 21  1  0
 21 22  2  0
 22 23  1  0
 23 24  1  0
 24 25  1  0
 25 26  1  0
 26 27  1  0
 27 28  1  0
 22 29  1  0
 29 30  2  0
 30  2  1  0
 17  5  1  0
 30 19  1  0
 16 12  1  0
 28 23  1  0
  3 31  1  0
  3 32  1  0
  6 33  1  0
  7 34  1  0
  8 35  1  0
 13 36  1  0
 13 37  1  0
 14 38  1  0
 14 39  1  0
 15 40  1  0
 15 41  1  0
 16 42  1  0
 16 43  1  0
 17 44  1  0
 20 45  1  0
 21 46  1  0
 24 47  1  0
 24 48  1  0
 25 49  1  0
 25 50  1  0
 26 51  1  0
 26 52  1  0
 27 53  1  0
 27 54  1  0
 28 55  1  0
 28 56  1  0
 29 57  1  0
M  END
>  <smiles>  (25) 
O=C1CC(c2cccc(C(=O)N3CCCC3)c2)=Nc2ccc(N3CCCCC3)cc21

>  <score_type>  (25) 
oracle

>  <origin>  (25) 
autodockgpu

>  <m_score__min__energy>  (25) 
-9.2599999999999998

>  <m_primary>  (25) 
energy

>  <rmsd>  (25) 
5.94501771920279

>  <m_score__min__rmsd>  (25) 
5.94501771920279

>  <meeko>  (25) 
{"free_energy": -9.09, "intermolecular_energy": -9.98, "internal_energy": -0.91, "cluster_size": 50, "cluster_id": 1, "rank_in_cluster": 46}

>  <energy>  (25) 
-9.18

>  <cluster_rmsd>  (25) 
0.53

>  <cluster>  (25) 
1

$$$$

     RDKit          3D

 57 61  0  0  0  0  0  0  0  0999 V2000
  142.8780   74.8210  220.4130 O   0  0  0  0  0  0  0  0  0  0  0  0
  141.8240   74.4650  221.0260 C   0  0  0  0  0  0  0  0  0  0  0  0
  141.5900   73.0150  221.1730 C   0  0  0  0  0  0  0  0  0  0  0  0
  140.3210   72.7990  221.9090 C   0  0  0  0  0  0  0  0  0  0  0  0
  139.8860   71.4100  222.1750 C   0  0  0  0  0  0  0  0  0  0  0  0
  139.4010   70.6490  221.1090 C   0  0  0  0  0  0  0  0  0  0  0  0
  138.9790   69.3440  221.3310 C   0  0  0  0  0  0  0  0  0  0  0  0
  139.0390   68.8060  222.5970 C   0  0  0  0  0  0  0  0  0  0  0  0
  139.5220   69.5640  223.6640 C   0  0  0  0  0  0  0  0  0  0  0  0
  139.5520   68.9150  224.9610 C   0  0  0  0  0  0  0  0  0  0  0  0
  139.0070   67.7620  225.0230 O   0  0  0  0  0  0  0  0  0  0  0  0
  140.1490   69.5050  226.1190 N   0  0  0  0  0  0  0  0  0  0  0  0
  140.8000   70.7960  226.2080 C   0  0  0  0  0  0  0  0  0  0  0  0
  140.7170   71.1370  227.6640 C   0  0  0  0  0  0  0  0  0  0  0  0
  139.9230   70.0460  228.3430 C   0  0  0  0  0  0  0  0  0  0  0  0
  140.1880   68.8620  227.4220 C   0  0  0  0  0  0  0  0  0  0  0  0
  139.9410   70.8590  223.4380 C   0  0  0  0  0  0  0  0  0  0  0  0
  139.5610   73.7290  222.3400 N   0  0  0  0  0  0  0  0  0  0  0  0
  139.7870   75.1230  222.1990 C   0  0  0  0  0  0  0  0  0  0  0  0
  138.9230   76.0640  222.6960 C   0  0  0  0  0  0  0  0  0  0  0  0
  139.1880   77.4070  222.5370 C   0  0  0  0  0  0  0  0  0  0  0  0
  140.3370   77.8160  221.8710 C   0  0  0  0  0  0  0  0  0  0  0  0
  140.6020   79.2070  221.7200 N   0  0  0  0  0  0  0  0  0  0  0  0
  141.8080   79.7270  221.1090 C   0  0  0  0  0  0  0  0  0  0  0  0
  142.4680   80.6410  222.1170 C   0  0  0  0  0  0  0  0  0  0  0  0
  141.4920   81.6220  222.6820 C   0  0  0  0  0  0  0  0  0  0  0  0
  140.2750   80.9660  223.2920 C   0  0  0  0  0  0  0  0  0  0  0  0
  139.6010   80.1360  222.2150 C   0  0  0  0  0  0  0  0  0  0  0  0
  141.2100   76.8530  221.3690 C   0  0  0  0  0  0  0  0  0  0  0  0
  140.9370   75.4980  221.5320 C   0  0  0  0  0  0  0  0  0  0  0  0
  141.5222   72.5504  220.1782 H   0  0  0  0  0  0  0  0  0  0  0  0
  142.4226   72.5605  221.7299 H   0  0  0  0  0  0  0  0  0  0  0  0
  139.3534   71.0808  220.0984 H   0  0  0  0  0  0  0  0  0  0  0  0
  138.5967   68.7402  220.4948 H   0  0  0  0  0  0  0  0  0  0  0  0
  138.7041   67.7723  222.7682 H   0  0  0  0  0  0  0  0  0  0  0  0
  141.8478   70.7302  225.8798 H   0  0  0  0  0  0  0  0  0  0  0  0
  140.3301   71.5551  225.5653 H   0  0  0  0  0  0  0  0  0  0  0  0
  141.7275   71.1896  228.0953 H   0  0  0  0  0  0  0  0  0  0  0  0
  140.2314   72.1138  227.8054 H   0  0  0  0  0  0  0  0  0  0  0  0
  140.2925   69.8540  229.3612 H   0  0  0  0  0  0  0  0  0  0  0  0
  138.8569   70.2823  228.4753 H   0  0  0  0  0  0  0  0  0  0  0  0
  141.1711   68.4097  227.6193 H   0  0  0  0  0  0  0  0  0  0  0  0
  139.4761   68.0314  227.5375 H   0  0  0  0  0  0  0  0  0  0  0  0
  140.3239   71.4598  224.2762 H   0  0  0  0  0  0  0  0  0  0  0  0
  138.0127   75.7452  223.2249 H   0  0  0  0  0  0  0  0  0  0  0  0
  138.4892   78.1561  222.9377 H   0  0  0  0  0  0  0  0  0  0  0  0
  142.4857   78.8997  220.8513 H   0  0  0  0  0  0  0  0  0  0  0  0
  141.5702   80.2749  220.1853 H   0  0  0  0  0  0  0  0  0  0  0  0
  142.8798   80.0331  222.9361 H   0  0  0  0  0  0  0  0  0  0  0  0
  143.2666   81.2002  221.6076 H   0  0  0  0  0  0  0  0  0  0  0  0
  141.9990   82.2109  223.4605 H   0  0  0  0  0  0  0  0  0  0  0  0
  141.1422   82.2513  221.8504 H   0  0  0  0  0  0  0  0  0  0  0  0
  140.5793   80.3180  224.1272 H   0  0  0  0  0  0  0  0  0  0  0  0
  139.5820   81.7287  223.6768 H   0  0  0  0  0  0  0  0  0  0  0  0
  138.7482   79.5851  222.6384 H   0  0  0  0  0  0  0  0  0  0  0  0
  139.2164   80.7735  221.4052 H   0  0  0  0  0  0  0  0  0  0  0  0
  142.1221   77.1661  220.8398 H   0  0  0  0  0  0  0  0  0  0  0  0
  1  2  2  0
  2  3  1  0
  3  4  1  0
  4  5  1  0
  5  6  2  0
  6  7  1  0
  7  8  2  0
  8  9  1  0
  9 10  1  0
 10 11  2  0
 10 12  1  0
 12 13  1  0
 13 14  1  0
 14 15  1  0
 15 16  1  0
  9 17  2  0
  4 18  2  0
 18 19  1  0
 19 20  2  0
 20 21  1  0
 21 22  2  0
 22 23  1  0
 23 24  1  0
 24 25  1  0
 25 26  1  0
 26 27  1  0
 27 28  1  0
 22 29  1  0
 29 30  2  0
 30  2  1  0
 17  5  1  0
 30 19  1  0
 16 12  1  0
 28 23  1  0
  3 31  1  0
  3 32  1  0
  6 33  1  0
  7 34  1  0
  8 35  1  0
 13 36  1  0
 13 37  1  0
 14 38  1  0
 14 39  1  0
 15 40  1  0
 15 41  1  0
 16 42  1  0
 16 43  1  0
 17 44  1  0
 20 45  1  0
 21 46  1  0
 24 47  1  0
 24 48  1  0
 25 49  1  0
 25 50  1  0
 26 51  1  0
 26 52  1  0
 27 53  1  0
 27 54  1  0
 28 55  1  0
 28 56  1  0
 29 57  1  0
M  END
>  <smiles>  (26) 
O=C1CC(c2cccc(C(=O)N3CCCC3)c2)=Nc2ccc(N3CCCCC3)cc21

>  <score_type>  (26) 
oracle

>  <origin>  (26) 
autodockgpu

>  <m_score__min__energy>  (26) 
-9.2599999999999998

>  <m_primary>  (26) 
energy

>  <rmsd>  (26) 
6.166181053950846

>  <m_score__min__rmsd>  (26) 
6.166181053950846

>  <meeko>  (26) 
{"free_energy": -9.25, "intermolecular_energy": -10.14, "internal_energy": -0.87, "cluster_size": 50, "cluster_id": 1, "rank_in_cluster": 15}

>  <energy>  (26) 
-9.18

>  <cluster_rmsd>  (26) 
0.13

>  <cluster>  (26) 
1

$$$$

     RDKit          3D

 57 61  0  0  0  0  0  0  0  0999 V2000
  142.7390   75.0780  220.5010 O   0  0  0  0  0  0  0  0  0  0  0  0
  141.6890   74.6700  221.0880 C   0  0  0  0  0  0  0  0  0  0  0  0
  141.5110   73.2090  221.2060 C   0  0  0  0  0  0  0  0  0  0  0  0
  140.2380   72.9300  221.9140 C   0  0  0  0  0  0  0  0  0  0  0  0
  139.8550   71.5210  222.1490 C   0  0  0  0  0  0  0  0  0  0  0  0
  139.3810   70.7710  221.0700 C   0  0  0  0  0  0  0  0  0  0  0  0
  139.0060   69.4470  221.2620 C   0  0  0  0  0  0  0  0  0  0  0  0
  139.1030   68.8780  222.5130 C   0  0  0  0  0  0  0  0  0  0  0  0
  139.5750   69.6250  223.5920 C   0  0  0  0  0  0  0  0  0  0  0  0
  139.6450   68.9430  224.8720 C   0  0  0  0  0  0  0  0  0  0  0  0
  139.1630   67.7620  224.9040 O   0  0  0  0  0  0  0  0  0  0  0  0
  140.2150   69.5320  226.0440 N   0  0  0  0  0  0  0  0  0  0  0  0
  140.7970   70.8550  226.1660 C   0  0  0  0  0  0  0  0  0  0  0  0
  140.7030   71.1510  227.6310 C   0  0  0  0  0  0  0  0  0  0  0  0
  139.9710   70.0010  228.2820 C   0  0  0  0  0  0  0  0  0  0  0  0
  140.2950   68.8580  227.3280 C   0  0  0  0  0  0  0  0  0  0  0  0
  139.9460   70.9390  223.3960 C   0  0  0  0  0  0  0  0  0  0  0  0
  139.4330   73.8220  222.3470 N   0  0  0  0  0  0  0  0  0  0  0  0
  139.6070   75.2250  222.2320 C   0  0  0  0  0  0  0  0  0  0  0  0
  138.6960   76.1220  222.7290 C   0  0  0  0  0  0  0  0  0  0  0  0
  138.9100   77.4780  222.5970 C   0  0  0  0  0  0  0  0  0  0  0  0
  140.0530   77.9440  221.9600 C   0  0  0  0  0  0  0  0  0  0  0  0
  140.2650   79.3470  221.8370 N   0  0  0  0  0  0  0  0  0  0  0  0
  140.6490   79.9900  220.5970 C   0  0  0  0  0  0  0  0  0  0  0  0
  141.9360   80.7400  220.8550 C   0  0  0  0  0  0  0  0  0  0  0  0
  141.8330   81.5910  222.0810 C   0  0  0  0  0  0  0  0  0  0  0  0
  141.4260   80.8140  223.3110 C   0  0  0  0  0  0  0  0  0  0  0  0
  140.0870   80.1560  223.0300 C   0  0  0  0  0  0  0  0  0  0  0  0
  140.9740   77.0250  221.4580 C   0  0  0  0  0  0  0  0  0  0  0  0
  140.7520   75.6580  221.5940 C   0  0  0  0  0  0  0  0  0  0  0  0
  141.4803   72.7596  220.2025 H   0  0  0  0  0  0  0  0  0  0  0  0
  142.3509   72.7781  221.7707 H   0  0  0  0  0  0  0  0  0  0  0  0
  139.3049   71.2270  220.0719 H   0  0  0  0  0  0  0  0  0  0  0  0
  138.6317   68.8531  220.4152 H   0  0  0  0  0  0  0  0  0  0  0  0
  138.8066   67.8291  222.6615 H   0  0  0  0  0  0  0  0  0  0  0  0
  141.8452   70.8546  225.8324 H   0  0  0  0  0  0  0  0  0  0  0  0
  140.2840   71.6050  225.5460 H   0  0  0  0  0  0  0  0  0  0  0  0
  141.7114   71.2452  228.0603 H   0  0  0  0  0  0  0  0  0  0  0  0
  140.1672   72.0965  227.8010 H   0  0  0  0  0  0  0  0  0  0  0  0
  140.3543   69.8014  229.2935 H   0  0  0  0  0  0  0  0  0  0  0  0
  138.8943   70.1764  228.4235 H   0  0  0  0  0  0  0  0  0  0  0  0
  141.3021   68.4544  227.5095 H   0  0  0  0  0  0  0  0  0  0  0  0
  139.6295   67.9874  227.4235 H   0  0  0  0  0  0  0  0  0  0  0  0
  140.3192   71.5302  224.2452 H   0  0  0  0  0  0  0  0  0  0  0  0
  137.7900   75.7579  223.2355 H   0  0  0  0  0  0  0  0  0  0  0  0
  138.1745   78.1916  222.9967 H   0  0  0  0  0  0  0  0  0  0  0  0
  140.8055   79.2333  219.8141 H   0  0  0  0  0  0  0  0  0  0  0  0
  139.8609   80.6776  220.2563 H   0  0  0  0  0  0  0  0  0  0  0  0
  142.7523   80.0151  220.9896 H   0  0  0  0  0  0  0  0  0  0  0  0
  142.1349   81.3947  219.9937 H   0  0  0  0  0  0  0  0  0  0  0  0
  142.8128   82.0546  222.2684 H   0  0  0  0  0  0  0  0  0  0  0  0
  141.0506   82.3412  221.8939 H   0  0  0  0  0  0  0  0  0  0  0  0
  142.1804   80.0448  223.5330 H   0  0  0  0  0  0  0  0  0  0  0  0
  141.3464   81.4863  224.1780 H   0  0  0  0  0  0  0  0  0  0  0  0
  139.7904   79.5215  223.8782 H   0  0  0  0  0  0  0  0  0  0  0  0
  139.2977   80.9083  222.8852 H   0  0  0  0  0  0  0  0  0  0  0  0
  141.8822   77.3831  220.9510 H   0  0  0  0  0  0  0  0  0  0  0  0
  1  2  2  0
  2  3  1  0
  3  4  1  0
  4  5  1  0
  5  6  2  0
  6  7  1  0
  7  8  2  0
  8  9  1  0
  9 10  1  0
 10 11  2  0
 10 12  1  0
 12 13  1  0
 13 14  1  0
 14 15  1  0
 15 16  1  0
  9 17  2  0
  4 18  2  0
 18 19  1  0
 19 20  2  0
 20 21  1  0
 21 22  2  0
 22 23  1  0
 23 24  1  0
 24 25  1  0
 25 26  1  0
 26 27  1  0
 27 28  1  0
 22 29  1  0
 29 30  2  0
 30  2  1  0
 17  5  1  0
 30 19  1  0
 16 12  1  0
 28 23  1  0
  3 31  1  0
  3 32  1  0
  6 33  1  0
  7 34  1  0
  8 35  1  0
 13 36  1  0
 13 37  1  0
 14 38  1  0
 14 39  1  0
 15 40  1  0
 15 41  1  0
 16 42  1  0
 16 43  1  0
 17 44  1  0
 20 45  1  0
 21 46  1  0
 24 47  1  0
 24 48  1  0
 25 49  1  0
 25 50  1  0
 26 51  1  0
 26 52  1  0
 27 53  1  0
 27 54  1  0
 28 55  1  0
 28 56  1  0
 29 57  1  0
M  END
>  <smiles>  (27) 
O=C1CC(c2cccc(C(=O)N3CCCC3)c2)=Nc2ccc(N3CCCCC3)cc21

>  <score_type>  (27) 
oracle

>  <origin>  (27) 
autodockgpu

>  <m_score__min__energy>  (27) 
-9.2599999999999998

>  <m_primary>  (27) 
energy

>  <rmsd>  (27) 
6.108251239760303

>  <m_score__min__rmsd>  (27) 
6.108251239760303

>  <meeko>  (27) 
{"free_energy": -9.14, "intermolecular_energy": -10.04, "internal_energy": -0.88, "cluster_size": 50, "cluster_id": 1, "rank_in_cluster": 35}

>  <energy>  (27) 
-9.18

>  <cluster_rmsd>  (27) 
0.55

>  <cluster>  (27) 
1

$$$$

     RDKit          3D

 57 61  0  0  0  0  0  0  0  0999 V2000
  142.8460   74.1720  219.9690 O   0  0  0  0  0  0  0  0  0  0  0  0
  141.8060   74.1090  220.6960 C   0  0  0  0  0  0  0  0  0  0  0  0
  141.2820   72.7630  221.0010 C   0  0  0  0  0  0  0  0  0  0  0  0
  140.0750   72.8940  221.8530 C   0  0  0  0  0  0  0  0  0  0  0  0
  139.3800   71.6620  222.2880 C   0  0  0  0  0  0  0  0  0  0  0  0
  138.2630   71.2390  221.5640 C   0  0  0  0  0  0  0  0  0  0  0  0
  137.5850   70.0890  221.9530 C   0  0  0  0  0  0  0  0  0  0  0  0
  138.0150   69.3740  223.0480 C   0  0  0  0  0  0  0  0  0  0  0  0
  139.1300   69.7950  223.7730 C   0  0  0  0  0  0  0  0  0  0  0  0
  139.5130   68.9780  224.9100 C   0  0  0  0  0  0  0  0  0  0  0  0
  139.2000   67.7420  224.8410 O   0  0  0  0  0  0  0  0  0  0  0  0
  140.2000   69.4960  226.0520 N   0  0  0  0  0  0  0  0  0  0  0  0
  140.6190   70.8650  226.2760 C   0  0  0  0  0  0  0  0  0  0  0  0
  140.7480   70.9590  227.7660 C   0  0  0  0  0  0  0  0  0  0  0  0
  140.2970   69.6380  228.3460 C   0  0  0  0  0  0  0  0  0  0  0  0
  140.5910   68.6870  227.1930 C   0  0  0  0  0  0  0  0  0  0  0  0
  139.7990   70.9360  223.3820 C   0  0  0  0  0  0  0  0  0  0  0  0
  139.5790   74.0010  222.2510 N   0  0  0  0  0  0  0  0  0  0  0  0
  140.0860   75.2930  221.9570 C   0  0  0  0  0  0  0  0  0  0  0  0
  139.4980   76.4400  222.4270 C   0  0  0  0  0  0  0  0  0  0  0  0
  140.0290   77.6730  222.1170 C   0  0  0  0  0  0  0  0  0  0  0  0
  141.1670   77.7630  221.3250 C   0  0  0  0  0  0  0  0  0  0  0  0
  141.7090   79.0430  221.0180 N   0  0  0  0  0  0  0  0  0  0  0  0
  142.1950   79.9660  222.0240 C   0  0  0  0  0  0  0  0  0  0  0  0
  141.4310   81.2600  221.8570 C   0  0  0  0  0  0  0  0  0  0  0  0
  141.4340   81.7140  220.4330 C   0  0  0  0  0  0  0  0  0  0  0  0
  140.9070   80.6700  219.4750 C   0  0  0  0  0  0  0  0  0  0  0  0
  141.7650   79.4270  219.6180 C   0  0  0  0  0  0  0  0  0  0  0  0
  141.7580   76.5930  220.8510 C   0  0  0  0  0  0  0  0  0  0  0  0
  141.2170   75.3500  221.1670 C   0  0  0  0  0  0  0  0  0  0  0  0
  141.0181   72.2495  220.0647 H   0  0  0  0  0  0  0  0  0  0  0  0
  142.0482   72.1782  221.5310 H   0  0  0  0  0  0  0  0  0  0  0  0
  137.9212   71.8130  220.6901 H   0  0  0  0  0  0  0  0  0  0  0  0
  136.7053   69.7506  221.3859 H   0  0  0  0  0  0  0  0  0  0  0  0
  137.4760   68.4650  223.3532 H   0  0  0  0  0  0  0  0  0  0  0  0
  141.5831   71.0651  225.7856 H   0  0  0  0  0  0  0  0  0  0  0  0
  139.9123   71.5996  225.8626 H   0  0  0  0  0  0  0  0  0  0  0  0
  141.7956   71.1516  228.0408 H   0  0  0  0  0  0  0  0  0  0  0  0
  140.1333   71.7834  228.1566 H   0  0  0  0  0  0  0  0  0  0  0  0
  140.8762   69.3738  229.2430 H   0  0  0  0  0  0  0  0  0  0  0  0
  139.2492   69.6283  228.6807 H   0  0  0  0  0  0  0  0  0  0  0  0
  141.6576   68.4212  227.1519 H   0  0  0  0  0  0  0  0  0  0  0  0
  140.0694   67.7209  227.2609 H   0  0  0  0  0  0  0  0  0  0  0  0
  140.6788   71.2710  223.9510 H   0  0  0  0  0  0  0  0  0  0  0  0
  138.5973   76.3749  223.0551 H   0  0  0  0  0  0  0  0  0  0  0  0
  139.5511   78.5879  222.4973 H   0  0  0  0  0  0  0  0  0  0  0  0
  142.0205   79.5533  223.0286 H   0  0  0  0  0  0  0  0  0  0  0  0
  143.2756   80.1350  221.9065 H   0  0  0  0  0  0  0  0  0  0  0  0
  140.3913   81.1064  222.1817 H   0  0  0  0  0  0  0  0  0  0  0  0
  141.9202   82.0327  222.4682 H   0  0  0  0  0  0  0  0  0  0  0  0
  140.8054   82.6130  220.3511 H   0  0  0  0  0  0  0  0  0  0  0  0
  142.4794   81.9148  220.1557 H   0  0  0  0  0  0  0  0  0  0  0  0
  139.8614   80.4321  219.7203 H   0  0  0  0  0  0  0  0  0  0  0  0
  140.9465   81.0449  218.4416 H   0  0  0  0  0  0  0  0  0  0  0  0
  141.3694   78.6180  218.9864 H   0  0  0  0  0  0  0  0  0  0  0  0
  142.8003   79.6209  219.3009 H   0  0  0  0  0  0  0  0  0  0  0  0
  142.6588   76.6524  220.2224 H   0  0  0  0  0  0  0  0  0  0  0  0
  1  2  2  0
  2  3  1  0
  3  4  1  0
  4  5  1  0
  5  6  2  0
  6  7  1  0
  7  8  2  0
  8  9  1  0
  9 10  1  0
 10 11  2  0
 10 12  1  0
 12 13  1  0
 13 14  1  0
 14 15  1  0
 15 16  1  0
  9 17  2  0
  4 18  2  0
 18 19  1  0
 19 20  2  0
 20 21  1  0
 21 22  2  0
 22 23  1  0
 23 24  1  0
 24 25  1  0
 25 26  1  0
 26 27  1  0
 27 28  1  0
 22 29  1  0
 29 30  2  0
 30  2  1  0
 17  5  1  0
 30 19  1  0
 16 12  1  0
 28 23  1  0
  3 31  1  0
  3 32  1  0
  6 33  1  0
  7 34  1  0
  8 35  1  0
 13 36  1  0
 13 37  1  0
 14 38  1  0
 14 39  1  0
 15 40  1  0
 15 41  1  0
 16 42  1  0
 16 43  1  0
 17 44  1  0
 20 45  1  0
 21 46  1  0
 24 47  1  0
 24 48  1  0
 25 49  1  0
 25 50  1  0
 26 51  1  0
 26 52  1  0
 27 53  1  0
 27 54  1  0
 28 55  1  0
 28 56  1  0
 29 57  1  0
M  END
>  <smiles>  (28) 
O=C1CC(c2cccc(C(=O)N3CCCC3)c2)=Nc2ccc(N3CCCCC3)cc21

>  <score_type>  (28) 
oracle

>  <origin>  (28) 
autodockgpu

>  <m_score__min__energy>  (28) 
-9.2599999999999998

>  <m_primary>  (28) 
energy

>  <rmsd>  (28) 
5.650092754850316

>  <m_score__min__rmsd>  (28) 
5.650092754850316

>  <meeko>  (28) 
{"free_energy": -9.03, "intermolecular_energy": -9.93, "internal_energy": -0.96, "cluster_size": 50, "cluster_id": 1, "rank_in_cluster": 48}

>  <energy>  (28) 
-9.18

>  <cluster_rmsd>  (28) 
0.3

>  <cluster>  (28) 
1

$$$$

     RDKit          3D

 57 61  0  0  0  0  0  0  0  0999 V2000
  142.8060   74.6190  220.2320 O   0  0  0  0  0  0  0  0  0  0  0  0
  141.7510   74.4280  220.9130 C   0  0  0  0  0  0  0  0  0  0  0  0
  141.3280   73.0280  221.1150 C   0  0  0  0  0  0  0  0  0  0  0  0
  140.0860   73.0080  221.9260 C   0  0  0  0  0  0  0  0  0  0  0  0
  139.4800   71.7000  222.2580 C   0  0  0  0  0  0  0  0  0  0  0  0
  138.5350   71.1640  221.3800 C   0  0  0  0  0  0  0  0  0  0  0  0
  137.9430   69.9400  221.6680 C   0  0  0  0  0  0  0  0  0  0  0  0
  138.2870   69.2620  222.8160 C   0  0  0  0  0  0  0  0  0  0  0  0
  139.2290   69.7960  223.6950 C   0  0  0  0  0  0  0  0  0  0  0  0
  139.5320   69.0110  224.8770 C   0  0  0  0  0  0  0  0  0  0  0  0
  139.1910   67.7820  224.8350 O   0  0  0  0  0  0  0  0  0  0  0  0
  140.1740   69.5520  226.0350 N   0  0  0  0  0  0  0  0  0  0  0  0
  140.6170   70.9180  226.2330 C   0  0  0  0  0  0  0  0  0  0  0  0
  140.6730   71.0620  227.7220 C   0  0  0  0  0  0  0  0  0  0  0  0
  140.1590   69.7750  228.3240 C   0  0  0  0  0  0  0  0  0  0  0  0
  140.4860   68.7750  227.2220 C   0  0  0  0  0  0  0  0  0  0  0  0
  139.8150   71.0100  223.4030 C   0  0  0  0  0  0  0  0  0  0  0  0
  139.4890   74.0450  222.3720 N   0  0  0  0  0  0  0  0  0  0  0  0
  139.8990   75.3890  222.1760 C   0  0  0  0  0  0  0  0  0  0  0  0
  139.2040   76.4530  222.6930 C   0  0  0  0  0  0  0  0  0  0  0  0
  139.6430   77.7420  222.4800 C   0  0  0  0  0  0  0  0  0  0  0  0
  140.7960   77.9720  221.7390 C   0  0  0  0  0  0  0  0  0  0  0  0
  141.2430   79.3080  221.5330 N   0  0  0  0  0  0  0  0  0  0  0  0
  142.3350   79.9070  222.2710 C   0  0  0  0  0  0  0  0  0  0  0  0
  141.8010   81.1570  222.9350 C   0  0  0  0  0  0  0  0  0  0  0  0
  141.0620   82.0160  221.9600 C   0  0  0  0  0  0  0  0  0  0  0  0
  139.9460   81.2850  221.2490 C   0  0  0  0  0  0  0  0  0  0  0  0
  140.5510   80.0950  220.5270 C   0  0  0  0  0  0  0  0  0  0  0  0
  141.4960   76.8850  221.2180 C   0  0  0  0  0  0  0  0  0  0  0  0
  141.0480   75.5860  221.4360 C   0  0  0  0  0  0  0  0  0  0  0  0
  141.1386   72.5561  220.1396 H   0  0  0  0  0  0  0  0  0  0  0  0
  142.1209   72.4733  221.6380 H   0  0  0  0  0  0  0  0  0  0  0  0
  138.2605   71.7084  220.4644 H   0  0  0  0  0  0  0  0  0  0  0  0
  137.1996   69.5129  220.9788 H   0  0  0  0  0  0  0  0  0  0  0  0
  137.8162   68.2937  223.0411 H   0  0  0  0  0  0  0  0  0  0  0  0
  141.6095   71.0769  225.7862 H   0  0  0  0  0  0  0  0  0  0  0  0
  139.9515   71.6544  225.7588 H   0  0  0  0  0  0  0  0  0  0  0  0
  141.7101   71.2386  228.0432 H   0  0  0  0  0  0  0  0  0  0  0  0
  140.0610   71.9146  228.0514 H   0  0  0  0  0  0  0  0  0  0  0  0
  140.6849   69.5299  229.2585 H   0  0  0  0  0  0  0  0  0  0  0  0
  139.0956   69.8032  228.6042 H   0  0  0  0  0  0  0  0  0  0  0  0
  141.5460   68.4820  227.2450 H   0  0  0  0  0  0  0  0  0  0  0  0
  139.9371   67.8247  227.2970 H   0  0  0  0  0  0  0  0  0  0  0  0
  140.5597   71.4331  224.0932 H   0  0  0  0  0  0  0  0  0  0  0  0
  138.2912   76.2763  223.2808 H   0  0  0  0  0  0  0  0  0  0  0  0
  139.0800   78.5899  222.8971 H   0  0  0  0  0  0  0  0  0  0  0  0
  142.7035   79.2046  223.0332 H   0  0  0  0  0  0  0  0  0  0  0  0
  143.1703   80.1514  221.5982 H   0  0  0  0  0  0  0  0  0  0  0  0
  141.1179   80.8675  223.7472 H   0  0  0  0  0  0  0  0  0  0  0  0
  142.6521   81.7318  223.3289 H   0  0  0  0  0  0  0  0  0  0  0  0
  140.6304   82.8696  222.5032 H   0  0  0  0  0  0  0  0  0  0  0  0
  141.7835   82.3360  221.1938 H   0  0  0  0  0  0  0  0  0  0  0  0
  139.2010   80.9387  221.9805 H   0  0  0  0  0  0  0  0  0  0  0  0
  139.4466   81.9536  220.5323 H   0  0  0  0  0  0  0  0  0  0  0  0
  139.7594   79.4952  220.0541 H   0  0  0  0  0  0  0  0  0  0  0  0
  141.2404   80.4203  219.7340 H   0  0  0  0  0  0  0  0  0  0  0  0
  142.4098   77.0556  220.6299 H   0  0  0  0  0  0  0  0  0  0  0  0
  1  2  2  0
  2  3  1  0
  3  4  1  0
  4  5  1  0
  5  6  2  0
  6  7  1  0
  7  8  2  0
  8  9  1  0
  9 10  1  0
 10 11  2  0
 10 12  1  0
 12 13  1  0
 13 14  1  0
 14 15  1  0
 15 16  1  0
  9 17  2  0
  4 18  2  0
 18 19  1  0
 19 20  2  0
 20 21  1  0
 21 22  2  0
 22 23  1  0
 23 24  1  0
 24 25  1  0
 25 26  1  0
 26 27  1  0
 27 28  1  0
 22 29  1  0
 29 30  2  0
 30  2  1  0
 17  5  1  0
 30 19  1  0
 16 12  1  0
 28 23  1  0
  3 31  1  0
  3 32  1  0
  6 33  1  0
  7 34  1  0
  8 35  1  0
 13 36  1  0
 13 37  1  0
 14 38  1  0
 14 39  1  0
 15 40  1  0
 15 41  1  0
 16 42  1  0
 16 43  1  0
 17 44  1  0
 20 45  1  0
 21 46  1  0
 24 47  1  0
 24 48  1  0
 25 49  1  0
 25 50  1  0
 26 51  1  0
 26 52  1  0
 27 53  1  0
 27 54  1  0
 28 55  1  0
 28 56  1  0
 29 57  1  0
M  END
>  <smiles>  (29) 
O=C1CC(c2cccc(C(=O)N3CCCC3)c2)=Nc2ccc(N3CCCCC3)cc21

>  <score_type>  (29) 
oracle

>  <origin>  (29) 
autodockgpu

>  <m_score__min__energy>  (29) 
-9.2599999999999998

>  <m_primary>  (29) 
energy

>  <rmsd>  (29) 
5.913428766364719

>  <m_score__min__rmsd>  (29) 
5.913428766364719

>  <meeko>  (29) 
{"free_energy": -9.11, "intermolecular_energy": -10.01, "internal_energy": -0.9, "cluster_size": 50, "cluster_id": 1, "rank_in_cluster": 39}

>  <energy>  (29) 
-9.17

>  <cluster_rmsd>  (29) 
0.51

>  <cluster>  (29) 
1

$$$$

     RDKit          3D

 57 61  0  0  0  0  0  0  0  0999 V2000
  142.8760   74.8600  220.4490 O   0  0  0  0  0  0  0  0  0  0  0  0
  141.8140   74.5090  221.0520 C   0  0  0  0  0  0  0  0  0  0  0  0
  141.5750   73.0590  221.1980 C   0  0  0  0  0  0  0  0  0  0  0  0
  140.2970   72.8490  221.9210 C   0  0  0  0  0  0  0  0  0  0  0  0
  139.8550   71.4620  222.1860 C   0  0  0  0  0  0  0  0  0  0  0  0
  139.3080   70.7260  221.1320 C   0  0  0  0  0  0  0  0  0  0  0  0
  138.8780   69.4230  221.3520 C   0  0  0  0  0  0  0  0  0  0  0  0
  138.9900   68.8630  222.6050 C   0  0  0  0  0  0  0  0  0  0  0  0
  139.5360   69.5960  223.6590 C   0  0  0  0  0  0  0  0  0  0  0  0
  139.6180   68.9240  224.9430 C   0  0  0  0  0  0  0  0  0  0  0  0
  139.1420   67.7410  224.9870 O   0  0  0  0  0  0  0  0  0  0  0  0
  140.1930   69.5250  226.1070 N   0  0  0  0  0  0  0  0  0  0  0  0
  140.7690   70.8510  226.2150 C   0  0  0  0  0  0  0  0  0  0  0  0
  140.6830   71.1570  227.6780 C   0  0  0  0  0  0  0  0  0  0  0  0
  139.9620   70.0080  228.3430 C   0  0  0  0  0  0  0  0  0  0  0  0
  140.2850   68.8610  227.3950 C   0  0  0  0  0  0  0  0  0  0  0  0
  139.9620   70.8880  223.4350 C   0  0  0  0  0  0  0  0  0  0  0  0
  139.5350   73.7820  222.3430 N   0  0  0  0  0  0  0  0  0  0  0  0
  139.7680   75.1750  222.2020 C   0  0  0  0  0  0  0  0  0  0  0  0
  138.9010   76.1190  222.6890 C   0  0  0  0  0  0  0  0  0  0  0  0
  139.1730   77.4620  222.5300 C   0  0  0  0  0  0  0  0  0  0  0  0
  140.3300   77.8660  221.8750 C   0  0  0  0  0  0  0  0  0  0  0  0
  140.6010   79.2560  221.7240 N   0  0  0  0  0  0  0  0  0  0  0  0
  141.8030   79.7710  221.1020 C   0  0  0  0  0  0  0  0  0  0  0  0
  142.4790   80.6790  222.1050 C   0  0  0  0  0  0  0  0  0  0  0  0
  141.5140   81.6640  222.6820 C   0  0  0  0  0  0  0  0  0  0  0  0
  140.3000   81.0130  223.3030 C   0  0  0  0  0  0  0  0  0  0  0  0
  139.6100   80.1890  222.2320 C   0  0  0  0  0  0  0  0  0  0  0  0
  141.2050   76.8990  221.3840 C   0  0  0  0  0  0  0  0  0  0  0  0
  140.9260   75.5460  221.5460 C   0  0  0  0  0  0  0  0  0  0  0  0
  141.5165   72.5932  220.2032 H   0  0  0  0  0  0  0  0  0  0  0  0
  142.4005   72.6021  221.7634 H   0  0  0  0  0  0  0  0  0  0  0  0
  139.2181   71.1760  220.1323 H   0  0  0  0  0  0  0  0  0  0  0  0
  138.4481   68.8388  220.5250 H   0  0  0  0  0  0  0  0  0  0  0  0
  138.6470   67.8319  222.7758 H   0  0  0  0  0  0  0  0  0  0  0  0
  141.8150   70.8532  225.8746 H   0  0  0  0  0  0  0  0  0  0  0  0
  140.2486   71.5939  225.5927 H   0  0  0  0  0  0  0  0  0  0  0  0
  141.6937   71.2601  228.0997 H   0  0  0  0  0  0  0  0  0  0  0  0
  140.1426   72.1005  227.8444 H   0  0  0  0  0  0  0  0  0  0  0  0
  140.3540   69.8177  229.3530 H   0  0  0  0  0  0  0  0  0  0  0  0
  138.8856   70.1786  228.4918 H   0  0  0  0  0  0  0  0  0  0  0  0
  141.2953   68.4637  227.5724 H   0  0  0  0  0  0  0  0  0  0  0  0
  139.6242   67.9880  227.5010 H   0  0  0  0  0  0  0  0  0  0  0  0
  140.3930   71.4686  224.2639 H   0  0  0  0  0  0  0  0  0  0  0  0
  137.9843   75.8039  223.2089 H   0  0  0  0  0  0  0  0  0  0  0  0
  138.4729   78.2143  222.9223 H   0  0  0  0  0  0  0  0  0  0  0  0
  142.4734   78.9407  220.8351 H   0  0  0  0  0  0  0  0  0  0  0  0
  141.5582   80.3228  220.1824 H   0  0  0  0  0  0  0  0  0  0  0  0
  142.8959   80.0670  222.9184 H   0  0  0  0  0  0  0  0  0  0  0  0
  143.2757   81.2347  221.5888 H   0  0  0  0  0  0  0  0  0  0  0  0
  142.0321   82.2486  223.4565 H   0  0  0  0  0  0  0  0  0  0  0  0
  141.1590   82.2970  221.8554 H   0  0  0  0  0  0  0  0  0  0  0  0
  140.6096   80.3615  224.1335 H   0  0  0  0  0  0  0  0  0  0  0  0
  139.6151   81.7787  223.6963 H   0  0  0  0  0  0  0  0  0  0  0  0
  138.7592   79.6414  222.6636 H   0  0  0  0  0  0  0  0  0  0  0  0
  139.2196   80.8302  221.4279 H   0  0  0  0  0  0  0  0  0  0  0  0
  142.1238   77.2082  220.8641 H   0  0  0  0  0  0  0  0  0  0  0  0
  1  2  2  0
  2  3  1  0
  3  4  1  0
  4  5  1  0
  5  6  2  0
  6  7  1  0
  7  8  2  0
  8  9  1  0
  9 10  1  0
 10 11  2  0
 10 12  1  0
 12 13  1  0
 13 14  1  0
 14 15  1  0
 15 16  1  0
  9 17  2  0
  4 18  2  0
 18 19  1  0
 19 20  2  0
 20 21  1  0
 21 22  2  0
 22 23  1  0
 23 24  1  0
 24 25  1  0
 25 26  1  0
 26 27  1  0
 27 28  1  0
 22 29  1  0
 29 30  2  0
 30  2  1  0
 17  5  1  0
 30 19  1  0
 16 12  1  0
 28 23  1  0
  3 31  1  0
  3 32  1  0
  6 33  1  0
  7 34  1  0
  8 35  1  0
 13 36  1  0
 13 37  1  0
 14 38  1  0
 14 39  1  0
 15 40  1  0
 15 41  1  0
 16 42  1  0
 16 43  1  0
 17 44  1  0
 20 45  1  0
 21 46  1  0
 24 47  1  0
 24 48  1  0
 25 49  1  0
 25 50  1  0
 26 51  1  0
 26 52  1  0
 27 53  1  0
 27 54  1  0
 28 55  1  0
 28 56  1  0
 29 57  1  0
M  END
>  <smiles>  (30) 
O=C1CC(c2cccc(C(=O)N3CCCC3)c2)=Nc2ccc(N3CCCCC3)cc21

>  <score_type>  (30) 
oracle

>  <origin>  (30) 
autodockgpu

>  <m_score__min__energy>  (30) 
-9.2599999999999998

>  <m_primary>  (30) 
energy

>  <rmsd>  (30) 
6.1666124661244375

>  <m_score__min__rmsd>  (30) 
6.1666124661244375

>  <meeko>  (30) 
{"free_energy": -9.26, "intermolecular_energy": -10.15, "internal_energy": -0.86, "cluster_size": 50, "cluster_id": 1, "rank_in_cluster": 4}

>  <energy>  (30) 
-9.17

>  <cluster_rmsd>  (30) 
0.57

>  <cluster>  (30) 
1

$$$$

     RDKit          3D

 57 61  0  0  0  0  0  0  0  0999 V2000
  142.8600   74.8390  220.4470 O   0  0  0  0  0  0  0  0  0  0  0  0
  141.8000   74.4880  221.0520 C   0  0  0  0  0  0  0  0  0  0  0  0
  141.5590   73.0380  221.1980 C   0  0  0  0  0  0  0  0  0  0  0  0
  140.2830   72.8290  221.9230 C   0  0  0  0  0  0  0  0  0  0  0  0
  139.8410   71.4420  222.1870 C   0  0  0  0  0  0  0  0  0  0  0  0
  139.2920   70.7070  221.1340 C   0  0  0  0  0  0  0  0  0  0  0  0
  138.8610   69.4040  221.3540 C   0  0  0  0  0  0  0  0  0  0  0  0
  138.9740   68.8430  222.6060 C   0  0  0  0  0  0  0  0  0  0  0  0
  139.5210   69.5750  223.6600 C   0  0  0  0  0  0  0  0  0  0  0  0
  139.6040   68.9030  224.9440 C   0  0  0  0  0  0  0  0  0  0  0  0
  139.1270   67.7200  224.9870 O   0  0  0  0  0  0  0  0  0  0  0  0
  140.1810   69.5030  226.1070 N   0  0  0  0  0  0  0  0  0  0  0  0
  140.7580   70.8280  226.2150 C   0  0  0  0  0  0  0  0  0  0  0  0
  140.6740   71.1340  227.6790 C   0  0  0  0  0  0  0  0  0  0  0  0
  139.9520   69.9850  228.3440 C   0  0  0  0  0  0  0  0  0  0  0  0
  140.2730   68.8380  227.3950 C   0  0  0  0  0  0  0  0  0  0  0  0
  139.9480   70.8680  223.4360 C   0  0  0  0  0  0  0  0  0  0  0  0
  139.5230   73.7620  222.3480 N   0  0  0  0  0  0  0  0  0  0  0  0
  139.7570   75.1550  222.2070 C   0  0  0  0  0  0  0  0  0  0  0  0
  138.8920   76.1000  222.6970 C   0  0  0  0  0  0  0  0  0  0  0  0
  139.1640   77.4420  222.5390 C   0  0  0  0  0  0  0  0  0  0  0  0
  140.3200   77.8460  221.8820 C   0  0  0  0  0  0  0  0  0  0  0  0
  140.5920   79.2350  221.7320 N   0  0  0  0  0  0  0  0  0  0  0  0
  141.7900   79.7500  221.0990 C   0  0  0  0  0  0  0  0  0  0  0  0
  142.4760   80.6540  222.0980 C   0  0  0  0  0  0  0  0  0  0  0  0
  141.5190   81.6400  222.6870 C   0  0  0  0  0  0  0  0  0  0  0  0
  140.3090   80.9900  223.3180 C   0  0  0  0  0  0  0  0  0  0  0  0
  139.6080   80.1690  222.2510 C   0  0  0  0  0  0  0  0  0  0  0  0
  141.1930   76.8790  221.3880 C   0  0  0  0  0  0  0  0  0  0  0  0
  140.9130   75.5250  221.5490 C   0  0  0  0  0  0  0  0  0  0  0  0
  141.4979   72.5727  220.2031 H   0  0  0  0  0  0  0  0  0  0  0  0
  142.3850   72.5800  221.7619 H   0  0  0  0  0  0  0  0  0  0  0  0
  139.2011   71.1574  220.1346 H   0  0  0  0  0  0  0  0  0  0  0  0
  138.4294   68.8208  220.5272 H   0  0  0  0  0  0  0  0  0  0  0  0
  138.6311   67.8118  222.7763 H   0  0  0  0  0  0  0  0  0  0  0  0
  141.8036   70.8295  225.8734 H   0  0  0  0  0  0  0  0  0  0  0  0
  140.2373   71.5715  225.5937 H   0  0  0  0  0  0  0  0  0  0  0  0
  141.6852   71.2357  228.0998 H   0  0  0  0  0  0  0  0  0  0  0  0
  140.1352   72.0783  227.8465 H   0  0  0  0  0  0  0  0  0  0  0  0
  140.3446   69.7936  229.3536 H   0  0  0  0  0  0  0  0  0  0  0  0
  138.8758   70.1567  228.4936 H   0  0  0  0  0  0  0  0  0  0  0  0
  141.2829   68.4394  227.5716 H   0  0  0  0  0  0  0  0  0  0  0  0
  139.6111   67.9658  227.5010 H   0  0  0  0  0  0  0  0  0  0  0  0
  140.3794   71.4484  224.2649 H   0  0  0  0  0  0  0  0  0  0  0  0
  137.9763   75.7852  223.2189 H   0  0  0  0  0  0  0  0  0  0  0  0
  138.4651   78.1942  222.9335 H   0  0  0  0  0  0  0  0  0  0  0  0
  142.4566   78.9194  220.8238 H   0  0  0  0  0  0  0  0  0  0  0  0
  141.5378   80.3041  220.1828 H   0  0  0  0  0  0  0  0  0  0  0  0
  142.8990   80.0390  222.9060 H   0  0  0  0  0  0  0  0  0  0  0  0
  143.2685   81.2098  221.5754 H   0  0  0  0  0  0  0  0  0  0  0  0
  142.0459   82.2211  223.4581 H   0  0  0  0  0  0  0  0  0  0  0  0
  141.1577   82.2763  221.8656 H   0  0  0  0  0  0  0  0  0  0  0  0
  140.6247   80.3364  224.1445 H   0  0  0  0  0  0  0  0  0  0  0  0
  139.6291   81.7561  223.7190 H   0  0  0  0  0  0  0  0  0  0  0  0
  138.7600   79.6222  222.6891 H   0  0  0  0  0  0  0  0  0  0  0  0
  139.2122   80.8128  221.4517 H   0  0  0  0  0  0  0  0  0  0  0  0
  142.1109   77.1880  220.8665 H   0  0  0  0  0  0  0  0  0  0  0  0
  1  2  2  0
  2  3  1  0
  3  4  1  0
  4  5  1  0
  5  6  2  0
  6  7  1  0
  7  8  2  0
  8  9  1  0
  9 10  1  0
 10 11  2  0
 10 12  1  0
 12 13  1  0
 13 14  1  0
 14 15  1  0
 15 16  1  0
  9 17  2  0
  4 18  2  0
 18 19  1  0
 19 20  2  0
 20 21  1  0
 21 22  2  0
 22 23  1  0
 23 24  1  0
 24 25  1  0
 25 26  1  0
 26 27  1  0
 27 28  1  0
 22 29  1  0
 29 30  2  0
 30  2  1  0
 17  5  1  0
 30 19  1  0
 16 12  1  0
 28 23  1  0
  3 31  1  0
  3 32  1  0
  6 33  1  0
  7 34  1  0
  8 35  1  0
 13 36  1  0
 13 37  1  0
 14 38  1  0
 14 39  1  0
 15 40  1  0
 15 41  1  0
 16 42  1  0
 16 43  1  0
 17 44  1  0
 20 45  1  0
 21 46  1  0
 24 47  1  0
 24 48  1  0
 25 49  1  0
 25 50  1  0
 26 51  1  0
 26 52  1  0
 27 53  1  0
 27 54  1  0
 28 55  1  0
 28 56  1  0
 29 57  1  0
M  END
>  <smiles>  (31) 
O=C1CC(c2cccc(C(=O)N3CCCC3)c2)=Nc2ccc(N3CCCCC3)cc21

>  <score_type>  (31) 
oracle

>  <origin>  (31) 
autodockgpu

>  <m_score__min__energy>  (31) 
-9.2599999999999998

>  <m_primary>  (31) 
energy

>  <rmsd>  (31) 
6.169650434067109

>  <m_score__min__rmsd>  (31) 
6.169650434067109

>  <meeko>  (31) 
{"free_energy": -9.26, "intermolecular_energy": -10.15, "internal_energy": -0.86, "cluster_size": 50, "cluster_id": 1, "rank_in_cluster": 2}

>  <energy>  (31) 
-9.17

>  <cluster_rmsd>  (31) 
0.31

>  <cluster>  (31) 
1

$$$$

     RDKit          3D

 57 61  0  0  0  0  0  0  0  0999 V2000
  142.8460   74.9030  220.2280 O   0  0  0  0  0  0  0  0  0  0  0  0
  141.8280   74.5380  220.8940 C   0  0  0  0  0  0  0  0  0  0  0  0
  141.6190   73.0850  221.0560 C   0  0  0  0  0  0  0  0  0  0  0  0
  140.3900   72.8570  221.8540 C   0  0  0  0  0  0  0  0  0  0  0  0
  139.9850   71.4640  222.1450 C   0  0  0  0  0  0  0  0  0  0  0  0
  139.6230   70.6390  221.0780 C   0  0  0  0  0  0  0  0  0  0  0  0
  139.2320   69.3290  221.3210 C   0  0  0  0  0  0  0  0  0  0  0  0
  139.2000   68.8470  222.6110 C   0  0  0  0  0  0  0  0  0  0  0  0
  139.5600   69.6690  223.6790 C   0  0  0  0  0  0  0  0  0  0  0  0
  139.5000   69.0770  225.0030 C   0  0  0  0  0  0  0  0  0  0  0  0
  138.8520   67.9820  225.0970 O   0  0  0  0  0  0  0  0  0  0  0  0
  140.1190   69.6610  226.1520 N   0  0  0  0  0  0  0  0  0  0  0  0
  140.8830   70.8920  226.2060 C   0  0  0  0  0  0  0  0  0  0  0  0
  140.7960   71.3020  227.6430 C   0  0  0  0  0  0  0  0  0  0  0  0
  139.8900   70.3170  228.3450 C   0  0  0  0  0  0  0  0  0  0  0  0
  140.0690   69.0750  227.4800 C   0  0  0  0  0  0  0  0  0  0  0  0
  139.9490   70.9690  223.4320 C   0  0  0  0  0  0  0  0  0  0  0  0
  139.6410   73.7800  222.3210 N   0  0  0  0  0  0  0  0  0  0  0  0
  139.8450   75.1750  222.1650 C   0  0  0  0  0  0  0  0  0  0  0  0
  138.9950   76.1080  222.7020 C   0  0  0  0  0  0  0  0  0  0  0  0
  139.2370   77.4540  222.5270 C   0  0  0  0  0  0  0  0  0  0  0  0
  140.3470   77.8740  221.8040 C   0  0  0  0  0  0  0  0  0  0  0  0
  140.5880   79.2670  221.6360 N   0  0  0  0  0  0  0  0  0  0  0  0
  141.7970   79.8020  221.0420 C   0  0  0  0  0  0  0  0  0  0  0  0
  142.4170   80.7440  222.0490 C   0  0  0  0  0  0  0  0  0  0  0  0
  141.4110   81.7140  222.5780 C   0  0  0  0  0  0  0  0  0  0  0  0
  140.1940   81.0440  223.1720 C   0  0  0  0  0  0  0  0  0  0  0  0
  139.5590   80.1830  222.0960 C   0  0  0  0  0  0  0  0  0  0  0  0
  141.2050   76.9190  221.2610 C   0  0  0  0  0  0  0  0  0  0  0  0
  140.9560   75.5620  221.4410 C   0  0  0  0  0  0  0  0  0  0  0  0
  141.5081   72.6164  220.0670 H   0  0  0  0  0  0  0  0  0  0  0  0
  142.4833   72.6418  221.5722 H   0  0  0  0  0  0  0  0  0  0  0  0
  139.6475   71.0256  220.0485 H   0  0  0  0  0  0  0  0  0  0  0  0
  138.9476   68.6758  220.4829 H   0  0  0  0  0  0  0  0  0  0  0  0
  138.8891   67.8089  222.7999 H   0  0  0  0  0  0  0  0  0  0  0  0
  141.9282   70.7181  225.9105 H   0  0  0  0  0  0  0  0  0  0  0  0
  140.4999   71.6615  225.5196 H   0  0  0  0  0  0  0  0  0  0  0  0
  141.7965   71.2828  228.0998 H   0  0  0  0  0  0  0  0  0  0  0  0
  140.3973   72.3235  227.7299 H   0  0  0  0  0  0  0  0  0  0  0  0
  140.2164   70.1370  229.3799 H   0  0  0  0  0  0  0  0  0  0  0  0
  138.8469   70.6533  228.4389 H   0  0  0  0  0  0  0  0  0  0  0  0
  141.0024   68.5459  227.7226 H   0  0  0  0  0  0  0  0  0  0  0  0
  139.2823   68.3172  227.6098 H   0  0  0  0  0  0  0  0  0  0  0  0
  140.2342   71.6194  224.2721 H   0  0  0  0  0  0  0  0  0  0  0  0
  138.1153   75.7805  223.2755 H   0  0  0  0  0  0  0  0  0  0  0  0
  138.5506   78.1964  222.9602 H   0  0  0  0  0  0  0  0  0  0  0  0
  142.4962   78.9847  220.8116 H   0  0  0  0  0  0  0  0  0  0  0  0
  141.5682   80.3309  220.1050 H   0  0  0  0  0  0  0  0  0  0  0  0
  142.8229   80.1569  222.8860 H   0  0  0  0  0  0  0  0  0  0  0  0
  143.2151   81.3112  221.5475 H   0  0  0  0  0  0  0  0  0  0  0  0
  141.8900   82.3241  223.3580 H   0  0  0  0  0  0  0  0  0  0  0  0
  141.0672   82.3240  221.7296 H   0  0  0  0  0  0  0  0  0  0  0  0
  140.4926   80.4160  224.0243 H   0  0  0  0  0  0  0  0  0  0  0  0
  139.4781   81.7995  223.5280 H   0  0  0  0  0  0  0  0  0  0  0  0
  138.7093   79.6215  222.5116 H   0  0  0  0  0  0  0  0  0  0  0  0
  139.1781   80.7994  221.2684 H   0  0  0  0  0  0  0  0  0  0  0  0
  142.0857   77.2407  220.6858 H   0  0  0  0  0  0  0  0  0  0  0  0
  1  2  2  0
  2  3  1  0
  3  4  1  0
  4  5  1  0
  5  6  2  0
  6  7  1  0
  7  8  2  0
  8  9  1  0
  9 10  1  0
 10 11  2  0
 10 12  1  0
 12 13  1  0
 13 14  1  0
 14 15  1  0
 15 16  1  0
  9 17  2  0
  4 18  2  0
 18 19  1  0
 19 20  2  0
 20 21  1  0
 21 22  2  0
 22 23  1  0
 23 24  1  0
 24 25  1  0
 25 26  1  0
 26 27  1  0
 27 28  1  0
 22 29  1  0
 29 30  2  0
 30  2  1  0
 17  5  1  0
 30 19  1  0
 16 12  1  0
 28 23  1  0
  3 31  1  0
  3 32  1  0
  6 33  1  0
  7 34  1  0
  8 35  1  0
 13 36  1  0
 13 37  1  0
 14 38  1  0
 14 39  1  0
 15 40  1  0
 15 41  1  0
 16 42  1  0
 16 43  1  0
 17 44  1  0
 20 45  1  0
 21 46  1  0
 24 47  1  0
 24 48  1  0
 25 49  1  0
 25 50  1  0
 26 51  1  0
 26 52  1  0
 27 53  1  0
 27 54  1  0
 28 55  1  0
 28 56  1  0
 29 57  1  0
M  END
>  <smiles>  (32) 
O=C1CC(c2cccc(C(=O)N3CCCC3)c2)=Nc2ccc(N3CCCCC3)cc21

>  <score_type>  (32) 
oracle

>  <origin>  (32) 
autodockgpu

>  <m_score__min__energy>  (32) 
-9.2599999999999998

>  <m_primary>  (32) 
energy

>  <rmsd>  (32) 
6.135494443758816

>  <m_score__min__rmsd>  (32) 
6.135494443758816

>  <meeko>  (32) 
{"free_energy": -9.14, "intermolecular_energy": -10.03, "internal_energy": -0.91, "cluster_size": 50, "cluster_id": 1, "rank_in_cluster": 36}

>  <energy>  (32) 
-9.15

>  <cluster_rmsd>  (32) 
0.46

>  <cluster>  (32) 
1

$$$$

     RDKit          3D

 57 61  0  0  0  0  0  0  0  0999 V2000
  142.7620   75.2390  220.4090 O   0  0  0  0  0  0  0  0  0  0  0  0
  141.7320   74.8170  221.0220 C   0  0  0  0  0  0  0  0  0  0  0  0
  141.5790   73.3540  221.1470 C   0  0  0  0  0  0  0  0  0  0  0  0
  140.3270   73.0590  221.8860 C   0  0  0  0  0  0  0  0  0  0  0  0
  139.9700   71.6450  222.1330 C   0  0  0  0  0  0  0  0  0  0  0  0
  139.6730   70.8320  221.0370 C   0  0  0  0  0  0  0  0  0  0  0  0
  139.3280   69.5010  221.2390 C   0  0  0  0  0  0  0  0  0  0  0  0
  139.2770   68.9890  222.5160 C   0  0  0  0  0  0  0  0  0  0  0  0
  139.5710   69.7980  223.6130 C   0  0  0  0  0  0  0  0  0  0  0  0
  139.4960   69.1730  224.9210 C   0  0  0  0  0  0  0  0  0  0  0  0
  138.8360   68.0830  224.9820 O   0  0  0  0  0  0  0  0  0  0  0  0
  140.1140   69.7210  226.0890 N   0  0  0  0  0  0  0  0  0  0  0  0
  140.8900   70.9420  226.1790 C   0  0  0  0  0  0  0  0  0  0  0  0
  140.7970   71.3160  227.6260 C   0  0  0  0  0  0  0  0  0  0  0  0
  139.8760   70.3230  228.2960 C   0  0  0  0  0  0  0  0  0  0  0  0
  140.0480   69.1020  227.4010 C   0  0  0  0  0  0  0  0  0  0  0  0
  139.9150   71.1180  223.4070 C   0  0  0  0  0  0  0  0  0  0  0  0
  139.5200   73.9400  222.3360 N   0  0  0  0  0  0  0  0  0  0  0  0
  139.6700   75.3450  222.2140 C   0  0  0  0  0  0  0  0  0  0  0  0
  138.7580   76.2310  222.7300 C   0  0  0  0  0  0  0  0  0  0  0  0
  138.9490   77.5890  222.5900 C   0  0  0  0  0  0  0  0  0  0  0  0
  140.0700   78.0700  221.9250 C   0  0  0  0  0  0  0  0  0  0  0  0
  140.2590   79.4750  221.7940 N   0  0  0  0  0  0  0  0  0  0  0  0
  140.5460   80.1270  220.5320 C   0  0  0  0  0  0  0  0  0  0  0  0
  141.8410   80.8890  220.7020 C   0  0  0  0  0  0  0  0  0  0  0  0
  141.8170   81.7340  221.9350 C   0  0  0  0  0  0  0  0  0  0  0  0
  141.5070   80.9480  223.1880 C   0  0  0  0  0  0  0  0  0  0  0  0
  140.1590   80.2780  223.0000 C   0  0  0  0  0  0  0  0  0  0  0  0
  140.9920   77.1630  221.4040 C   0  0  0  0  0  0  0  0  0  0  0  0
  140.7940   75.7930  221.5470 C   0  0  0  0  0  0  0  0  0  0  0  0
  141.5310   72.9016  220.1455 H   0  0  0  0  0  0  0  0  0  0  0  0
  142.4385   72.9364  221.6919 H   0  0  0  0  0  0  0  0  0  0  0  0
  139.7120   71.2436  220.0177 H   0  0  0  0  0  0  0  0  0  0  0  0
  139.0956   68.8565  220.3784 H   0  0  0  0  0  0  0  0  0  0  0  0
  139.0026   67.9352  222.6719 H   0  0  0  0  0  0  0  0  0  0  0  0
  141.9354   70.7649  225.8861 H   0  0  0  0  0  0  0  0  0  0  0  0
  140.5198   71.7326  225.5098 H   0  0  0  0  0  0  0  0  0  0  0  0
  141.7940   71.2746  228.0890 H   0  0  0  0  0  0  0  0  0  0  0  0
  140.4083   72.3391  227.7365 H   0  0  0  0  0  0  0  0  0  0  0  0
  140.1931   70.1131  229.3282 H   0  0  0  0  0  0  0  0  0  0  0  0
  138.8358   70.6678  228.3912 H   0  0  0  0  0  0  0  0  0  0  0  0
  140.9739   68.5568  227.6365 H   0  0  0  0  0  0  0  0  0  0  0  0
  139.2523   68.3498  227.5058 H   0  0  0  0  0  0  0  0  0  0  0  0
  140.1485   71.7589  224.2699 H   0  0  0  0  0  0  0  0  0  0  0  0
  137.8693   75.8554  223.2584 H   0  0  0  0  0  0  0  0  0  0  0  0
  138.2128   78.2929  223.0054 H   0  0  0  0  0  0  0  0  0  0  0  0
  140.6536   79.3753  219.7362 H   0  0  0  0  0  0  0  0  0  0  0  0
  139.7286   80.8074  220.2512 H   0  0  0  0  0  0  0  0  0  0  0  0
  142.6717   80.1717  220.7755 H   0  0  0  0  0  0  0  0  0  0  0  0
  141.9720   81.5489  219.8317 H   0  0  0  0  0  0  0  0  0  0  0  0
  142.8028   82.2074  222.0539 H   0  0  0  0  0  0  0  0  0  0  0  0
  141.0154   82.4765  221.8075 H   0  0  0  0  0  0  0  0  0  0  0  0
  142.2830   80.1858  223.3520 H   0  0  0  0  0  0  0  0  0  0  0  0
  141.4831   81.6158  224.0618 H   0  0  0  0  0  0  0  0  0  0  0  0
  139.9297   79.6375  223.8644 H   0  0  0  0  0  0  0  0  0  0  0  0
  139.3543   81.0231  222.9147 H   0  0  0  0  0  0  0  0  0  0  0  0
  141.8830   77.5333  220.8758 H   0  0  0  0  0  0  0  0  0  0  0  0
  1  2  2  0
  2  3  1  0
  3  4  1  0
  4  5  1  0
  5  6  2  0
  6  7  1  0
  7  8  2  0
  8  9  1  0
  9 10  1  0
 10 11  2  0
 10 12  1  0
 12 13  1  0
 13 14  1  0
 14 15  1  0
 15 16  1  0
  9 17  2  0
  4 18  2  0
 18 19  1  0
 19 20  2  0
 20 21  1  0
 21 22  2  0
 22 23  1  0
 23 24  1  0
 24 25  1  0
 25 26  1  0
 26 27  1  0
 27 28  1  0
 22 29  1  0
 29 30  2  0
 30  2  1  0
 17  5  1  0
 30 19  1  0
 16 12  1  0
 28 23  1  0
  3 31  1  0
  3 32  1  0
  6 33  1  0
  7 34  1  0
  8 35  1  0
 13 36  1  0
 13 37  1  0
 14 38  1  0
 14 39  1  0
 15 40  1  0
 15 41  1  0
 16 42  1  0
 16 43  1  0
 17 44  1  0
 20 45  1  0
 21 46  1  0
 24 47  1  0
 24 48  1  0
 25 49  1  0
 25 50  1  0
 26 51  1  0
 26 52  1  0
 27 53  1  0
 27 54  1  0
 28 55  1  0
 28 56  1  0
 29 57  1  0
M  END
>  <smiles>  (33) 
O=C1CC(c2cccc(C(=O)N3CCCC3)c2)=Nc2ccc(N3CCCCC3)cc21

>  <score_type>  (33) 
oracle

>  <origin>  (33) 
autodockgpu

>  <m_score__min__energy>  (33) 
-9.2599999999999998

>  <m_primary>  (33) 
energy

>  <rmsd>  (33) 
6.080942349092043

>  <m_score__min__rmsd>  (33) 
6.080942349092043

>  <meeko>  (33) 
{"free_energy": -9.09, "intermolecular_energy": -9.99, "internal_energy": -0.93, "cluster_size": 50, "cluster_id": 1, "rank_in_cluster": 44}

>  <energy>  (33) 
-9.15

>  <cluster_rmsd>  (33) 
0.47

>  <cluster>  (33) 
1

$$$$

     RDKit          3D

 57 61  0  0  0  0  0  0  0  0999 V2000
  142.8540   74.7110  220.1590 O   0  0  0  0  0  0  0  0  0  0  0  0
  141.8150   74.4740  220.8510 C   0  0  0  0  0  0  0  0  0  0  0  0
  141.4440   73.0580  221.0420 C   0  0  0  0  0  0  0  0  0  0  0  0
  140.2150   72.9850  221.8680 C   0  0  0  0  0  0  0  0  0  0  0  0
  139.6600   71.6520  222.1920 C   0  0  0  0  0  0  0  0  0  0  0  0
  138.8700   71.0110  221.2340 C   0  0  0  0  0  0  0  0  0  0  0  0
  138.3290   69.7610  221.5130 C   0  0  0  0  0  0  0  0  0  0  0  0
  138.5700   69.1610  222.7280 C   0  0  0  0  0  0  0  0  0  0  0  0
  139.3580   69.8000  223.6860 C   0  0  0  0  0  0  0  0  0  0  0  0
  139.5610   69.0920  224.9370 C   0  0  0  0  0  0  0  0  0  0  0  0
  139.1530   67.8840  224.9680 O   0  0  0  0  0  0  0  0  0  0  0  0
  140.1800   69.6850  226.0820 N   0  0  0  0  0  0  0  0  0  0  0  0
  140.6920   71.0360  226.2000 C   0  0  0  0  0  0  0  0  0  0  0  0
  140.6880   71.2890  227.6770 C   0  0  0  0  0  0  0  0  0  0  0  0
  140.0740   70.0810  228.3450 C   0  0  0  0  0  0  0  0  0  0  0  0
  140.3930   68.9850  227.3360 C   0  0  0  0  0  0  0  0  0  0  0  0
  139.8930   71.0390  223.4050 C   0  0  0  0  0  0  0  0  0  0  0  0
  139.5880   73.9940  222.3340 N   0  0  0  0  0  0  0  0  0  0  0  0
  139.9460   75.3550  222.1490 C   0  0  0  0  0  0  0  0  0  0  0  0
  139.2210   76.3870  222.6880 C   0  0  0  0  0  0  0  0  0  0  0  0
  139.6120   77.6930  222.4840 C   0  0  0  0  0  0  0  0  0  0  0  0
  140.7460   77.9720  221.7320 C   0  0  0  0  0  0  0  0  0  0  0  0
  141.1420   79.3260  221.5350 N   0  0  0  0  0  0  0  0  0  0  0  0
  142.2660   79.9350  222.2170 C   0  0  0  0  0  0  0  0  0  0  0  0
  141.7440   81.1500  222.9510 C   0  0  0  0  0  0  0  0  0  0  0  0
  140.9190   82.0150  222.0540 C   0  0  0  0  0  0  0  0  0  0  0  0
  139.7780   81.2730  221.3980 C   0  0  0  0  0  0  0  0  0  0  0  0
  140.3630   80.1210  220.6020 C   0  0  0  0  0  0  0  0  0  0  0  0
  141.4770   76.9170  221.1890 C   0  0  0  0  0  0  0  0  0  0  0  0
  141.0780   75.6000  221.3970 C   0  0  0  0  0  0  0  0  0  0  0  0
  141.2584   72.5908  220.0636 H   0  0  0  0  0  0  0  0  0  0  0  0
  142.2627   72.5258  221.5484 H   0  0  0  0  0  0  0  0  0  0  0  0
  138.6772   71.4929  220.2642 H   0  0  0  0  0  0  0  0  0  0  0  0
  137.7078   69.2511  220.7620 H   0  0  0  0  0  0  0  0  0  0  0  0
  138.1391   68.1724  222.9450 H   0  0  0  0  0  0  0  0  0  0  0  0
  141.7114   71.1062  225.7927 H   0  0  0  0  0  0  0  0  0  0  0  0
  140.0933   71.7695  225.6400 H   0  0  0  0  0  0  0  0  0  0  0  0
  141.7178   71.4332  228.0358 H   0  0  0  0  0  0  0  0  0  0  0  0
  140.1114   72.1957  227.9124 H   0  0  0  0  0  0  0  0  0  0  0  0
  140.5419   69.8790  229.3198 H   0  0  0  0  0  0  0  0  0  0  0  0
  139.0025   70.1874  228.5696 H   0  0  0  0  0  0  0  0  0  0  0  0
  141.4325   68.6384  227.4326 H   0  0  0  0  0  0  0  0  0  0  0  0
  139.7878   68.0739  227.4528 H   0  0  0  0  0  0  0  0  0  0  0  0
  140.5141   71.5454  224.1585 H   0  0  0  0  0  0  0  0  0  0  0  0
  138.3232   76.1715  223.2859 H   0  0  0  0  0  0  0  0  0  0  0  0
  139.0248   78.5159  222.9176 H   0  0  0  0  0  0  0  0  0  0  0  0
  142.7031   79.2225  222.9321 H   0  0  0  0  0  0  0  0  0  0  0  0
  143.0482   80.2211  221.4984 H   0  0  0  0  0  0  0  0  0  0  0  0
  141.1246   80.8183  223.7974 H   0  0  0  0  0  0  0  0  0  0  0  0
  142.6042   81.7377  223.3041 H   0  0  0  0  0  0  0  0  0  0  0  0
  140.5027   82.8405  222.6501 H   0  0  0  0  0  0  0  0  0  0  0  0
  141.5784   82.3772  221.2515 H   0  0  0  0  0  0  0  0  0  0  0  0
  139.0936   80.8856  222.1671 H   0  0  0  0  0  0  0  0  0  0  0  0
  139.2144   81.9471  220.7362 H   0  0  0  0  0  0  0  0  0  0  0  0
  139.5568   79.5128  220.1659 H   0  0  0  0  0  0  0  0  0  0  0  0
  140.9882   80.4874  219.7744 H   0  0  0  0  0  0  0  0  0  0  0  0
  142.3763   77.1268  220.5914 H   0  0  0  0  0  0  0  0  0  0  0  0
  1  2  2  0
  2  3  1  0
  3  4  1  0
  4  5  1  0
  5  6  2  0
  6  7  1  0
  7  8  2  0
  8  9  1  0
  9 10  1  0
 10 11  2  0
 10 12  1  0
 12 13  1  0
 13 14  1  0
 14 15  1  0
 15 16  1  0
  9 17  2  0
  4 18  2  0
 18 19  1  0
 19 20  2  0
 20 21  1  0
 21 22  2  0
 22 23  1  0
 23 24  1  0
 24 25  1  0
 25 26  1  0
 26 27  1  0
 27 28  1  0
 22 29  1  0
 29 30  2  0
 30  2  1  0
 17  5  1  0
 30 19  1  0
 16 12  1  0
 28 23  1  0
  3 31  1  0
  3 32  1  0
  6 33  1  0
  7 34  1  0
  8 35  1  0
 13 36  1  0
 13 37  1  0
 14 38  1  0
 14 39  1  0
 15 40  1  0
 15 41  1  0
 16 42  1  0
 16 43  1  0
 17 44  1  0
 20 45  1  0
 21 46  1  0
 24 47  1  0
 24 48  1  0
 25 49  1  0
 25 50  1  0
 26 51  1  0
 26 52  1  0
 27 53  1  0
 27 54  1  0
 28 55  1  0
 28 56  1  0
 29 57  1  0
M  END
>  <smiles>  (34) 
O=C1CC(c2cccc(C(=O)N3CCCC3)c2)=Nc2ccc(N3CCCCC3)cc21

>  <score_type>  (34) 
oracle

>  <origin>  (34) 
autodockgpu

>  <m_score__min__energy>  (34) 
-9.2599999999999998

>  <m_primary>  (34) 
energy

>  <rmsd>  (34) 
5.928869873014992

>  <m_score__min__rmsd>  (34) 
5.928869873014992

>  <meeko>  (34) 
{"free_energy": -9.18, "intermolecular_energy": -10.07, "internal_energy": -0.87, "cluster_size": 50, "cluster_id": 1, "rank_in_cluster": 27}

>  <energy>  (34) 
-9.14

>  <cluster_rmsd>  (34) 
0.46

>  <cluster>  (34) 
1

$$$$

     RDKit          3D

 57 61  0  0  0  0  0  0  0  0999 V2000
  142.8650   74.7890  220.5430 O   0  0  0  0  0  0  0  0  0  0  0  0
  141.7820   74.4660  221.1210 C   0  0  0  0  0  0  0  0  0  0  0  0
  141.5090   73.0230  221.2770 C   0  0  0  0  0  0  0  0  0  0  0  0
  140.2090   72.8460  221.9670 C   0  0  0  0  0  0  0  0  0  0  0  0
  139.7320   71.4710  222.2350 C   0  0  0  0  0  0  0  0  0  0  0  0
  139.0710   70.7860  221.2130 C   0  0  0  0  0  0  0  0  0  0  0  0
  138.6060   69.4960  221.4380 C   0  0  0  0  0  0  0  0  0  0  0  0
  138.7960   68.8990  222.6640 C   0  0  0  0  0  0  0  0  0  0  0  0
  139.4550   69.5810  223.6870 C   0  0  0  0  0  0  0  0  0  0  0  0
  139.6130   68.8730  224.9430 C   0  0  0  0  0  0  0  0  0  0  0  0
  139.1930   67.6680  224.9630 O   0  0  0  0  0  0  0  0  0  0  0  0
  140.2010   69.4620  226.1070 N   0  0  0  0  0  0  0  0  0  0  0  0
  140.7200   70.8090  226.2400 C   0  0  0  0  0  0  0  0  0  0  0  0
  140.6730   71.0640  227.7150 C   0  0  0  0  0  0  0  0  0  0  0  0
  140.0270   69.8620  228.3650 C   0  0  0  0  0  0  0  0  0  0  0  0
  140.3680   68.7620  227.3680 C   0  0  0  0  0  0  0  0  0  0  0  0
  139.9160   70.8610  223.4580 C   0  0  0  0  0  0  0  0  0  0  0  0
  139.4550   73.8000  222.3590 N   0  0  0  0  0  0  0  0  0  0  0  0
  139.7200   75.1850  222.2090 C   0  0  0  0  0  0  0  0  0  0  0  0
  138.8600   76.1530  222.6620 C   0  0  0  0  0  0  0  0  0  0  0  0
  139.1620   77.4870  222.4960 C   0  0  0  0  0  0  0  0  0  0  0  0
  140.3440   77.8610  221.8680 C   0  0  0  0  0  0  0  0  0  0  0  0
  140.6470   79.2430  221.7100 N   0  0  0  0  0  0  0  0  0  0  0  0
  141.8560   79.7270  221.0750 C   0  0  0  0  0  0  0  0  0  0  0  0
  142.5610   80.6220  222.0680 C   0  0  0  0  0  0  0  0  0  0  0  0
  141.6260   81.6320  222.6500 C   0  0  0  0  0  0  0  0  0  0  0  0
  140.4020   81.0130  223.2840 C   0  0  0  0  0  0  0  0  0  0  0  0
  139.6830   80.2020  222.2220 C   0  0  0  0  0  0  0  0  0  0  0  0
  141.2120   76.8710  221.4110 C   0  0  0  0  0  0  0  0  0  0  0  0
  140.9020   75.5260  221.5800 C   0  0  0  0  0  0  0  0  0  0  0  0
  141.4677   72.5469  220.2862 H   0  0  0  0  0  0  0  0  0  0  0  0
  142.3094   72.5569  221.8703 H   0  0  0  0  0  0  0  0  0  0  0  0
  138.9192   71.2654  220.2346 H   0  0  0  0  0  0  0  0  0  0  0  0
  138.0858   68.9515  220.6362 H   0  0  0  0  0  0  0  0  0  0  0  0
  138.4258   67.8779  222.8379 H   0  0  0  0  0  0  0  0  0  0  0  0
  141.7519   70.8706  225.8640 H   0  0  0  0  0  0  0  0  0  0  0  0
  140.1443   71.5465  225.6615 H   0  0  0  0  0  0  0  0  0  0  0  0
  141.6926   71.1990  228.1052 H   0  0  0  0  0  0  0  0  0  0  0  0
  140.0982   71.9765  227.9317 H   0  0  0  0  0  0  0  0  0  0  0  0
  140.4619   69.6573  229.3544 H   0  0  0  0  0  0  0  0  0  0  0  0
  138.9499   69.9783  228.5555 H   0  0  0  0  0  0  0  0  0  0  0  0
  141.4008   68.4064  227.4979 H   0  0  0  0  0  0  0  0  0  0  0  0
  139.7513   67.8565  227.4666 H   0  0  0  0  0  0  0  0  0  0  0  0
  140.4372   71.4021  224.2615 H   0  0  0  0  0  0  0  0  0  0  0  0
  137.9236   75.8624  223.1608 H   0  0  0  0  0  0  0  0  0  0  0  0
  138.4666   78.2571  222.8611 H   0  0  0  0  0  0  0  0  0  0  0  0
  142.5043   78.8800  220.8059 H   0  0  0  0  0  0  0  0  0  0  0  0
  141.6166   80.2805  220.1550 H   0  0  0  0  0  0  0  0  0  0  0  0
  142.9703   80.0032  222.8801 H   0  0  0  0  0  0  0  0  0  0  0  0
  143.3655   81.1570  221.5421 H   0  0  0  0  0  0  0  0  0  0  0  0
  142.1652   82.2062  223.4179 H   0  0  0  0  0  0  0  0  0  0  0  0
  141.2793   82.2709  221.8244 H   0  0  0  0  0  0  0  0  0  0  0  0
  140.7029   80.3573  224.1144 H   0  0  0  0  0  0  0  0  0  0  0  0
  139.7393   81.7965  223.6802 H   0  0  0  0  0  0  0  0  0  0  0  0
  138.8226   79.6771  222.6628 H   0  0  0  0  0  0  0  0  0  0  0  0
  139.3016   80.8493  221.4185 H   0  0  0  0  0  0  0  0  0  0  0  0
  142.1502   77.1560  220.9124 H   0  0  0  0  0  0  0  0  0  0  0  0
  1  2  2  0
  2  3  1  0
  3  4  1  0
  4  5  1  0
  5  6  2  0
  6  7  1  0
  7  8  2  0
  8  9  1  0
  9 10  1  0
 10 11  2  0
 10 12  1  0
 12 13  1  0
 13 14  1  0
 14 15  1  0
 15 16  1  0
  9 17  2  0
  4 18  2  0
 18 19  1  0
 19 20  2  0
 20 21  1  0
 21 22  2  0
 22 23  1  0
 23 24  1  0
 24 25  1  0
 25 26  1  0
 26 27  1  0
 27 28  1  0
 22 29  1  0
 29 30  2  0
 30  2  1  0
 17  5  1  0
 30 19  1  0
 16 12  1  0
 28 23  1  0
  3 31  1  0
  3 32  1  0
  6 33  1  0
  7 34  1  0
  8 35  1  0
 13 36  1  0
 13 37  1  0
 14 38  1  0
 14 39  1  0
 15 40  1  0
 15 41  1  0
 16 42  1  0
 16 43  1  0
 17 44  1  0
 20 45  1  0
 21 46  1  0
 24 47  1  0
 24 48  1  0
 25 49  1  0
 25 50  1  0
 26 51  1  0
 26 52  1  0
 27 53  1  0
 27 54  1  0
 28 55  1  0
 28 56  1  0
 29 57  1  0
M  END
>  <smiles>  (35) 
O=C1CC(c2cccc(C(=O)N3CCCC3)c2)=Nc2ccc(N3CCCCC3)cc21

>  <score_type>  (35) 
oracle

>  <origin>  (35) 
autodockgpu

>  <m_score__min__energy>  (35) 
-9.2599999999999998

>  <m_primary>  (35) 
energy

>  <rmsd>  (35) 
6.166223587078279

>  <m_score__min__rmsd>  (35) 
6.166223587078279

>  <meeko>  (35) 
{"free_energy": -9.19, "intermolecular_energy": -10.08, "internal_energy": -0.87, "cluster_size": 50, "cluster_id": 1, "rank_in_cluster": 24}

>  <energy>  (35) 
-9.14

>  <cluster_rmsd>  (35) 
0.45

>  <cluster>  (35) 
1

$$$$

     RDKit          3D

 57 61  0  0  0  0  0  0  0  0999 V2000
  142.8640   74.7970  220.5610 O   0  0  0  0  0  0  0  0  0  0  0  0
  141.7780   74.4710  221.1330 C   0  0  0  0  0  0  0  0  0  0  0  0
  141.5080   73.0270  221.2840 C   0  0  0  0  0  0  0  0  0  0  0  0
  140.2040   72.8460  221.9690 C   0  0  0  0  0  0  0  0  0  0  0  0
  139.7290   71.4700  222.2310 C   0  0  0  0  0  0  0  0  0  0  0  0
  139.0670   70.7890  221.2060 C   0  0  0  0  0  0  0  0  0  0  0  0
  138.6030   69.4980  221.4260 C   0  0  0  0  0  0  0  0  0  0  0  0
  138.7950   68.8940  222.6490 C   0  0  0  0  0  0  0  0  0  0  0  0
  139.4550   69.5730  223.6740 C   0  0  0  0  0  0  0  0  0  0  0  0
  139.6150   68.8590  224.9270 C   0  0  0  0  0  0  0  0  0  0  0  0
  139.1990   67.6530  224.9410 O   0  0  0  0  0  0  0  0  0  0  0  0
  140.2010   69.4440  226.0930 N   0  0  0  0  0  0  0  0  0  0  0  0
  140.7160   70.7920  226.2330 C   0  0  0  0  0  0  0  0  0  0  0  0
  140.6670   71.0400  227.7090 C   0  0  0  0  0  0  0  0  0  0  0  0
  140.0250   69.8320  228.3530 C   0  0  0  0  0  0  0  0  0  0  0  0
  140.3700   68.7380  227.3510 C   0  0  0  0  0  0  0  0  0  0  0  0
  139.9150   70.8540  223.4500 C   0  0  0  0  0  0  0  0  0  0  0  0
  139.4470   73.7970  222.3590 N   0  0  0  0  0  0  0  0  0  0  0  0
  139.7100   75.1840  222.2140 C   0  0  0  0  0  0  0  0  0  0  0  0
  138.8460   76.1480  222.6660 C   0  0  0  0  0  0  0  0  0  0  0  0
  139.1470   77.4840  222.5040 C   0  0  0  0  0  0  0  0  0  0  0  0
  140.3310   77.8610  221.8830 C   0  0  0  0  0  0  0  0  0  0  0  0
  140.6320   79.2450  221.7290 N   0  0  0  0  0  0  0  0  0  0  0  0
  141.8500   79.7320  221.1140 C   0  0  0  0  0  0  0  0  0  0  0  0
  142.5360   80.6300  222.1200 C   0  0  0  0  0  0  0  0  0  0  0  0
  141.5870   81.6370  222.6860 C   0  0  0  0  0  0  0  0  0  0  0  0
  140.3550   81.0140  223.2990 C   0  0  0  0  0  0  0  0  0  0  0  0
  139.6570   80.2000  222.2250 C   0  0  0  0  0  0  0  0  0  0  0  0
  141.2030   76.8750  221.4270 C   0  0  0  0  0  0  0  0  0  0  0  0
  140.8940   75.5280  221.5910 C   0  0  0  0  0  0  0  0  0  0  0  0
  141.4718   72.5533  220.2919 H   0  0  0  0  0  0  0  0  0  0  0  0
  142.3071   72.5607  221.8790 H   0  0  0  0  0  0  0  0  0  0  0  0
  138.9140   71.2726  220.2299 H   0  0  0  0  0  0  0  0  0  0  0  0
  138.0815   68.9574  220.6223 H   0  0  0  0  0  0  0  0  0  0  0  0
  138.4263   67.8716  222.8185 H   0  0  0  0  0  0  0  0  0  0  0  0
  141.7481   70.8584  225.8583 H   0  0  0  0  0  0  0  0  0  0  0  0
  140.1386   71.5305  225.6576 H   0  0  0  0  0  0  0  0  0  0  0  0
  141.6858   71.1771  228.1006 H   0  0  0  0  0  0  0  0  0  0  0  0
  140.0886   71.9493  227.9296 H   0  0  0  0  0  0  0  0  0  0  0  0
  140.4604   69.6240  229.3415 H   0  0  0  0  0  0  0  0  0  0  0  0
  138.9474   69.9436  228.5436 H   0  0  0  0  0  0  0  0  0  0  0  0
  141.4039   68.3852  227.4795 H   0  0  0  0  0  0  0  0  0  0  0  0
  139.7564   67.8299  227.4450 H   0  0  0  0  0  0  0  0  0  0  0  0
  140.4374   71.3913  224.2552 H   0  0  0  0  0  0  0  0  0  0  0  0
  137.9082   75.8543  223.1602 H   0  0  0  0  0  0  0  0  0  0  0  0
  138.4485   78.2523  222.8671 H   0  0  0  0  0  0  0  0  0  0  0  0
  142.5051   78.8868  220.8560 H   0  0  0  0  0  0  0  0  0  0  0  0
  141.6249   80.2844  220.1898 H   0  0  0  0  0  0  0  0  0  0  0  0
  142.9335   80.0125  222.9389 H   0  0  0  0  0  0  0  0  0  0  0  0
  143.3478   81.1676  221.6083 H   0  0  0  0  0  0  0  0  0  0  0  0
  142.1109   82.2133  223.4628 H   0  0  0  0  0  0  0  0  0  0  0  0
  141.2520   82.2744  221.8544 H   0  0  0  0  0  0  0  0  0  0  0  0
  140.6440   80.3596  224.1346 H   0  0  0  0  0  0  0  0  0  0  0  0
  139.6829   81.7952  223.6836 H   0  0  0  0  0  0  0  0  0  0  0  0
  138.7914   79.6719  222.6515 H   0  0  0  0  0  0  0  0  0  0  0  0
  139.2870   80.8460  221.4152 H   0  0  0  0  0  0  0  0  0  0  0  0
  142.1429   77.1633  220.9336 H   0  0  0  0  0  0  0  0  0  0  0  0
  1  2  2  0
  2  3  1  0
  3  4  1  0
  4  5  1  0
  5  6  2  0
  6  7  1  0
  7  8  2  0
  8  9  1  0
  9 10  1  0
 10 11  2  0
 10 12  1  0
 12 13  1  0
 13 14  1  0
 14 15  1  0
 15 16  1  0
  9 17  2  0
  4 18  2  0
 18 19  1  0
 19 20  2  0
 20 21  1  0
 21 22  2  0
 22 23  1  0
 23 24  1  0
 24 25  1  0
 25 26  1  0
 26 27  1  0
 27 28  1  0
 22 29  1  0
 29 30  2  0
 30  2  1  0
 17  5  1  0
 30 19  1  0
 16 12  1  0
 28 23  1  0
  3 31  1  0
  3 32  1  0
  6 33  1  0
  7 34  1  0
  8 35  1  0
 13 36  1  0
 13 37  1  0
 14 38  1  0
 14 39  1  0
 15 40  1  0
 15 41  1  0
 16 42  1  0
 16 43  1  0
 17 44  1  0
 20 45  1  0
 21 46  1  0
 24 47  1  0
 24 48  1  0
 25 49  1  0
 25 50  1  0
 26 51  1  0
 26 52  1  0
 27 53  1  0
 27 54  1  0
 28 55  1  0
 28 56  1  0
 29 57  1  0
M  END
>  <smiles>  (36) 
O=C1CC(c2cccc(C(=O)N3CCCC3)c2)=Nc2ccc(N3CCCCC3)cc21

>  <score_type>  (36) 
oracle

>  <origin>  (36) 
autodockgpu

>  <m_score__min__energy>  (36) 
-9.2599999999999998

>  <m_primary>  (36) 
energy

>  <rmsd>  (36) 
6.170944044296749

>  <m_score__min__rmsd>  (36) 
6.170944044296749

>  <meeko>  (36) 
{"free_energy": -9.2, "intermolecular_energy": -10.09, "internal_energy": -0.87, "cluster_size": 50, "cluster_id": 1, "rank_in_cluster": 23}

>  <energy>  (36) 
-9.14

>  <cluster_rmsd>  (36) 
0.17

>  <cluster>  (36) 
1

$$$$

     RDKit          3D

 57 61  0  0  0  0  0  0  0  0999 V2000
  142.8590   74.8520  220.4010 O   0  0  0  0  0  0  0  0  0  0  0  0
  141.8070   74.5000  221.0200 C   0  0  0  0  0  0  0  0  0  0  0  0
  141.5710   73.0500  221.1710 C   0  0  0  0  0  0  0  0  0  0  0  0
  140.3040   72.8390  221.9130 C   0  0  0  0  0  0  0  0  0  0  0  0
  139.8680   71.4520  222.1850 C   0  0  0  0  0  0  0  0  0  0  0  0
  139.3480   70.6990  221.1300 C   0  0  0  0  0  0  0  0  0  0  0  0
  138.9240   69.3960  221.3570 C   0  0  0  0  0  0  0  0  0  0  0  0
  139.0150   68.8510  222.6180 C   0  0  0  0  0  0  0  0  0  0  0  0
  139.5330   69.6010  223.6750 C   0  0  0  0  0  0  0  0  0  0  0  0
  139.5940   68.9450  224.9680 C   0  0  0  0  0  0  0  0  0  0  0  0
  139.0800   67.7790  225.0290 O   0  0  0  0  0  0  0  0  0  0  0  0
  140.1890   69.5440  226.1230 N   0  0  0  0  0  0  0  0  0  0  0  0
  140.8080   70.8510  226.2120 C   0  0  0  0  0  0  0  0  0  0  0  0
  140.7330   71.1820  227.6710 C   0  0  0  0  0  0  0  0  0  0  0  0
  139.9750   70.0670  228.3520 C   0  0  0  0  0  0  0  0  0  0  0  0
  140.2600   68.8960  227.4210 C   0  0  0  0  0  0  0  0  0  0  0  0
  139.9530   70.8940  223.4430 C   0  0  0  0  0  0  0  0  0  0  0  0
  139.5480   73.7720  222.3460 N   0  0  0  0  0  0  0  0  0  0  0  0
  139.7770   75.1650  222.2000 C   0  0  0  0  0  0  0  0  0  0  0  0
  138.9160   76.1090  222.6990 C   0  0  0  0  0  0  0  0  0  0  0  0
  139.1840   77.4510  222.5350 C   0  0  0  0  0  0  0  0  0  0  0  0
  140.3300   77.8560  221.8630 C   0  0  0  0  0  0  0  0  0  0  0  0
  140.5980   79.2460  221.7070 N   0  0  0  0  0  0  0  0  0  0  0  0
  141.8290   79.7640  221.1440 C   0  0  0  0  0  0  0  0  0  0  0  0
  142.4400   80.6920  222.1700 C   0  0  0  0  0  0  0  0  0  0  0  0
  141.4360   81.6760  222.6780 C   0  0  0  0  0  0  0  0  0  0  0  0
  140.1950   81.0230  223.2400 C   0  0  0  0  0  0  0  0  0  0  0  0
  139.5730   80.1770  222.1450 C   0  0  0  0  0  0  0  0  0  0  0  0
  141.2000   76.8900  221.3590 C   0  0  0  0  0  0  0  0  0  0  0  0
  140.9240   75.5360  221.5270 C   0  0  0  0  0  0  0  0  0  0  0  0
  141.4982   72.5833  220.1776 H   0  0  0  0  0  0  0  0  0  0  0  0
  142.4051   72.5946  221.7250 H   0  0  0  0  0  0  0  0  0  0  0  0
  139.2745   71.1361  220.1233 H   0  0  0  0  0  0  0  0  0  0  0  0
  138.5151   68.7990  220.5285 H   0  0  0  0  0  0  0  0  0  0  0  0
  138.6776   67.8188  222.7934 H   0  0  0  0  0  0  0  0  0  0  0  0
  141.8534   70.8137  225.8717 H   0  0  0  0  0  0  0  0  0  0  0  0
  140.3116   71.6013  225.5790 H   0  0  0  0  0  0  0  0  0  0  0  0
  141.7467   71.2581  228.0913 H   0  0  0  0  0  0  0  0  0  0  0  0
  140.2245   72.1454  227.8237 H   0  0  0  0  0  0  0  0  0  0  0  0
  140.3607   69.8786  229.3648 H   0  0  0  0  0  0  0  0  0  0  0  0
  138.9047   70.2750  228.4976 H   0  0  0  0  0  0  0  0  0  0  0  0
  141.2569   68.4686  227.6042 H   0  0  0  0  0  0  0  0  0  0  0  0
  139.5712   68.0466  227.5399 H   0  0  0  0  0  0  0  0  0  0  0  0
  140.3616   71.4886  224.2734 H   0  0  0  0  0  0  0  0  0  0  0  0
  138.0073   75.7935  223.2326 H   0  0  0  0  0  0  0  0  0  0  0  0
  138.4889   78.2027  222.9371 H   0  0  0  0  0  0  0  0  0  0  0  0
  142.5204   78.9366  220.9264 H   0  0  0  0  0  0  0  0  0  0  0  0
  141.6309   80.3003  220.2043 H   0  0  0  0  0  0  0  0  0  0  0  0
  142.8158   80.0953  223.0142 H   0  0  0  0  0  0  0  0  0  0  0  0
  143.2596   81.2478  221.6911 H   0  0  0  0  0  0  0  0  0  0  0  0
  141.9052   82.2763  223.4714 H   0  0  0  0  0  0  0  0  0  0  0  0
  141.1222   82.2938  221.8236 H   0  0  0  0  0  0  0  0  0  0  0  0
  140.4632   80.3867  224.0963 H   0  0  0  0  0  0  0  0  0  0  0  0
  139.4827   81.7880  223.5827 H   0  0  0  0  0  0  0  0  0  0  0  0
  138.7041   79.6280  222.5369 H   0  0  0  0  0  0  0  0  0  0  0  0
  139.2229   80.8028  221.3108 H   0  0  0  0  0  0  0  0  0  0  0  0
  142.1104   77.1999  220.8251 H   0  0  0  0  0  0  0  0  0  0  0  0
  1  2  2  0
  2  3  1  0
  3  4  1  0
  4  5  1  0
  5  6  2  0
  6  7  1  0
  7  8  2  0
  8  9  1  0
  9 10  1  0
 10 11  2  0
 10 12  1  0
 12 13  1  0
 13 14  1  0
 14 15  1  0
 15 16  1  0
  9 17  2  0
  4 18  2  0
 18 19  1  0
 19 20  2  0
 20 21  1  0
 21 22  2  0
 22 23  1  0
 23 24  1  0
 24 25  1  0
 25 26  1  0
 26 27  1  0
 27 28  1  0
 22 29  1  0
 29 30  2  0
 30  2  1  0
 17  5  1  0
 30 19  1  0
 16 12  1  0
 28 23  1  0
  3 31  1  0
  3 32  1  0
  6 33  1  0
  7 34  1  0
  8 35  1  0
 13 36  1  0
 13 37  1  0
 14 38  1  0
 14 39  1  0
 15 40  1  0
 15 41  1  0
 16 42  1  0
 16 43  1  0
 17 44  1  0
 20 45  1  0
 21 46  1  0
 24 47  1  0
 24 48  1  0
 25 49  1  0
 25 50  1  0
 26 51  1  0
 26 52  1  0
 27 53  1  0
 27 54  1  0
 28 55  1  0
 28 56  1  0
 29 57  1  0
M  END
>  <smiles>  (37) 
O=C1CC(c2cccc(C(=O)N3CCCC3)c2)=Nc2ccc(N3CCCCC3)cc21

>  <score_type>  (37) 
oracle

>  <origin>  (37) 
autodockgpu

>  <m_score__min__energy>  (37) 
-9.2599999999999998

>  <m_primary>  (37) 
energy

>  <rmsd>  (37) 
6.158211327451776

>  <m_score__min__rmsd>  (37) 
6.158211327451776

>  <meeko>  (37) 
{"free_energy": -9.25, "intermolecular_energy": -10.14, "internal_energy": -0.87, "cluster_size": 50, "cluster_id": 1, "rank_in_cluster": 12}

>  <energy>  (37) 
-9.13

>  <cluster_rmsd>  (37) 
0.36

>  <cluster>  (37) 
1

$$$$

     RDKit          3D

 57 61  0  0  0  0  0  0  0  0999 V2000
  142.8520   74.8150  220.4620 O   0  0  0  0  0  0  0  0  0  0  0  0
  141.7850   74.4760  221.0610 C   0  0  0  0  0  0  0  0  0  0  0  0
  141.5300   73.0290  221.2090 C   0  0  0  0  0  0  0  0  0  0  0  0
  140.2470   72.8330  221.9260 C   0  0  0  0  0  0  0  0  0  0  0  0
  139.7900   71.4510  222.1910 C   0  0  0  0  0  0  0  0  0  0  0  0
  139.1900   70.7380  221.1500 C   0  0  0  0  0  0  0  0  0  0  0  0
  138.7450   69.4410  221.3720 C   0  0  0  0  0  0  0  0  0  0  0  0
  138.8930   68.8640  222.6130 C   0  0  0  0  0  0  0  0  0  0  0  0
  139.4890   69.5740  223.6550 C   0  0  0  0  0  0  0  0  0  0  0  0
  139.6070   68.8850  224.9270 C   0  0  0  0  0  0  0  0  0  0  0  0
  139.1590   67.6910  224.9600 O   0  0  0  0  0  0  0  0  0  0  0  0
  140.1840   69.4820  226.0910 N   0  0  0  0  0  0  0  0  0  0  0  0
  140.7320   70.8190  226.2110 C   0  0  0  0  0  0  0  0  0  0  0  0
  140.6610   71.1020  227.6800 C   0  0  0  0  0  0  0  0  0  0  0  0
  139.9750   69.9270  228.3380 C   0  0  0  0  0  0  0  0  0  0  0  0
  140.3110   68.8020  227.3680 C   0  0  0  0  0  0  0  0  0  0  0  0
  139.9310   70.8610  223.4290 C   0  0  0  0  0  0  0  0  0  0  0  0
  139.4930   73.7750  222.3440 N   0  0  0  0  0  0  0  0  0  0  0  0
  139.7410   75.1650  222.2010 C   0  0  0  0  0  0  0  0  0  0  0  0
  138.8820   76.1200  222.6830 C   0  0  0  0  0  0  0  0  0  0  0  0
  139.1680   77.4590  222.5240 C   0  0  0  0  0  0  0  0  0  0  0  0
  140.3320   77.8500  221.8730 C   0  0  0  0  0  0  0  0  0  0  0  0
  140.6190   79.2360  221.7210 N   0  0  0  0  0  0  0  0  0  0  0  0
  141.8400   79.7380  221.1250 C   0  0  0  0  0  0  0  0  0  0  0  0
  142.4980   80.6460  222.1390 C   0  0  0  0  0  0  0  0  0  0  0  0
  141.5280   81.6420  222.6880 C   0  0  0  0  0  0  0  0  0  0  0  0
  140.2940   81.0050  223.2820 C   0  0  0  0  0  0  0  0  0  0  0  0
  139.6240   80.1800  222.1990 C   0  0  0  0  0  0  0  0  0  0  0  0
  141.1990   76.8730  221.3870 C   0  0  0  0  0  0  0  0  0  0  0  0
  140.9050   75.5230  221.5500 C   0  0  0  0  0  0  0  0  0  0  0  0
  141.4715   72.5618  220.2149 H   0  0  0  0  0  0  0  0  0  0  0  0
  142.3480   72.5651  221.7798 H   0  0  0  0  0  0  0  0  0  0  0  0
  139.0706   71.2014  220.1595 H   0  0  0  0  0  0  0  0  0  0  0  0
  138.2738   68.8744  220.5553 H   0  0  0  0  0  0  0  0  0  0  0  0
  138.5390   67.8366  222.7839 H   0  0  0  0  0  0  0  0  0  0  0  0
  141.7725   70.8497  225.8556 H   0  0  0  0  0  0  0  0  0  0  0  0
  140.1857   71.5590  225.6077 H   0  0  0  0  0  0  0  0  0  0  0  0
  141.6753   71.2214  228.0886 H   0  0  0  0  0  0  0  0  0  0  0  0
  140.1027   72.0309  227.8684 H   0  0  0  0  0  0  0  0  0  0  0  0
  140.3852   69.7307  229.3396 H   0  0  0  0  0  0  0  0  0  0  0  0
  138.8972   70.0707  228.5044 H   0  0  0  0  0  0  0  0  0  0  0  0
  141.3330   68.4266  227.5247 H   0  0  0  0  0  0  0  0  0  0  0  0
  139.6726   67.9121  227.4707 H   0  0  0  0  0  0  0  0  0  0  0  0
  140.4024   71.4243  224.2478 H   0  0  0  0  0  0  0  0  0  0  0  0
  137.9597   75.8154  223.1993 H   0  0  0  0  0  0  0  0  0  0  0  0
  138.4742   78.2189  222.9128 H   0  0  0  0  0  0  0  0  0  0  0  0
  142.5101   78.9010  220.8791 H   0  0  0  0  0  0  0  0  0  0  0  0
  141.6222   80.2861  220.1965 H   0  0  0  0  0  0  0  0  0  0  0  0
  142.8903   80.0351  222.9654 H   0  0  0  0  0  0  0  0  0  0  0  0
  143.3107   81.1930  221.6387 H   0  0  0  0  0  0  0  0  0  0  0  0
  142.0323   82.2256  223.4723 H   0  0  0  0  0  0  0  0  0  0  0  0
  141.1988   82.2741  221.8501 H   0  0  0  0  0  0  0  0  0  0  0  0
  140.5774   80.3562  224.1238 H   0  0  0  0  0  0  0  0  0  0  0  0
  139.6059   81.7787  223.6534 H   0  0  0  0  0  0  0  0  0  0  0  0
  138.7583   79.6420  222.6127 H   0  0  0  0  0  0  0  0  0  0  0  0
  139.2591   80.8196  221.3818 H   0  0  0  0  0  0  0  0  0  0  0  0
  142.1231   77.1717  220.8704 H   0  0  0  0  0  0  0  0  0  0  0  0
  1  2  2  0
  2  3  1  0
  3  4  1  0
  4  5  1  0
  5  6  2  0
  6  7  1  0
  7  8  2  0
  8  9  1  0
  9 10  1  0
 10 11  2  0
 10 12  1  0
 12 13  1  0
 13 14  1  0
 14 15  1  0
 15 16  1  0
  9 17  2  0
  4 18  2  0
 18 19  1  0
 19 20  2  0
 20 21  1  0
 21 22  2  0
 22 23  1  0
 23 24  1  0
 24 25  1  0
 25 26  1  0
 26 27  1  0
 27 28  1  0
 22 29  1  0
 29 30  2  0
 30  2  1  0
 17  5  1  0
 30 19  1  0
 16 12  1  0
 28 23  1  0
  3 31  1  0
  3 32  1  0
  6 33  1  0
  7 34  1  0
  8 35  1  0
 13 36  1  0
 13 37  1  0
 14 38  1  0
 14 39  1  0
 15 40  1  0
 15 41  1  0
 16 42  1  0
 16 43  1  0
 17 44  1  0
 20 45  1  0
 21 46  1  0
 24 47  1  0
 24 48  1  0
 25 49  1  0
 25 50  1  0
 26 51  1  0
 26 52  1  0
 27 53  1  0
 27 54  1  0
 28 55  1  0
 28 56  1  0
 29 57  1  0
M  END
>  <smiles>  (38) 
O=C1CC(c2cccc(C(=O)N3CCCC3)c2)=Nc2ccc(N3CCCCC3)cc21

>  <score_type>  (38) 
oracle

>  <origin>  (38) 
autodockgpu

>  <m_score__min__energy>  (38) 
-9.2599999999999998

>  <m_primary>  (38) 
energy

>  <rmsd>  (38) 
6.166465214601481

>  <m_score__min__rmsd>  (38) 
6.166465214601481

>  <meeko>  (38) 
{"free_energy": -9.25, "intermolecular_energy": -10.15, "internal_energy": -0.86, "cluster_size": 50, "cluster_id": 1, "rank_in_cluster": 10}

>  <energy>  (38) 
-9.12

>  <cluster_rmsd>  (38) 
0.63

>  <cluster>  (38) 
1

$$$$

     RDKit          3D

 57 61  0  0  0  0  0  0  0  0999 V2000
  142.7480   75.0100  220.6140 O   0  0  0  0  0  0  0  0  0  0  0  0
  141.6760   74.6280  221.1780 C   0  0  0  0  0  0  0  0  0  0  0  0
  141.4690   73.1720  221.3090 C   0  0  0  0  0  0  0  0  0  0  0  0
  140.1730   72.9250  221.9860 C   0  0  0  0  0  0  0  0  0  0  0  0
  139.7580   71.5260  222.2290 C   0  0  0  0  0  0  0  0  0  0  0  0
  139.1870   70.8100  221.1750 C   0  0  0  0  0  0  0  0  0  0  0  0
  138.7810   69.4960  221.3750 C   0  0  0  0  0  0  0  0  0  0  0  0
  138.9410   68.9050  222.6080 C   0  0  0  0  0  0  0  0  0  0  0  0
  139.5100   69.6190  223.6630 C   0  0  0  0  0  0  0  0  0  0  0  0
  139.6430   68.9160  224.9260 C   0  0  0  0  0  0  0  0  0  0  0  0
  139.2050   67.7170  224.9470 O   0  0  0  0  0  0  0  0  0  0  0  0
  140.2250   69.5030  226.0930 N   0  0  0  0  0  0  0  0  0  0  0  0
  140.7620   70.8430  226.2250 C   0  0  0  0  0  0  0  0  0  0  0  0
  140.7000   71.1080  227.6980 C   0  0  0  0  0  0  0  0  0  0  0  0
  140.0290   69.9190  228.3460 C   0  0  0  0  0  0  0  0  0  0  0  0
  140.3670   68.8080  227.3600 C   0  0  0  0  0  0  0  0  0  0  0  0
  139.9120   70.9220  223.4590 C   0  0  0  0  0  0  0  0  0  0  0  0
  139.3730   73.8370  222.3870 N   0  0  0  0  0  0  0  0  0  0  0  0
  139.5750   75.2350  222.2600 C   0  0  0  0  0  0  0  0  0  0  0  0
  138.6680   76.1550  222.7210 C   0  0  0  0  0  0  0  0  0  0  0  0
  138.9100   77.5040  222.5780 C   0  0  0  0  0  0  0  0  0  0  0  0
  140.0780   77.9420  221.9660 C   0  0  0  0  0  0  0  0  0  0  0  0
  140.3190   79.3390  221.8310 N   0  0  0  0  0  0  0  0  0  0  0  0
  141.0260   79.9220  220.7090 C   0  0  0  0  0  0  0  0  0  0  0  0
  142.1960   80.7000  221.2670 C   0  0  0  0  0  0  0  0  0  0  0  0
  141.7660   81.6110  222.3720 C   0  0  0  0  0  0  0  0  0  0  0  0
  141.0390   80.8940  223.4850 C   0  0  0  0  0  0  0  0  0  0  0  0
  139.8260   80.2060  222.8860 C   0  0  0  0  0  0  0  0  0  0  0  0
  140.9950   77.0000  221.5000 C   0  0  0  0  0  0  0  0  0  0  0  0
  140.7450   75.6390  221.6460 C   0  0  0  0  0  0  0  0  0  0  0  0
  141.4569   72.7104  220.3106 H   0  0  0  0  0  0  0  0  0  0  0  0
  142.2858   72.7334  221.9010 H   0  0  0  0  0  0  0  0  0  0  0  0
  139.0591   71.2839  220.1906 H   0  0  0  0  0  0  0  0  0  0  0  0
  138.3314   68.9277  220.5474 H   0  0  0  0  0  0  0  0  0  0  0  0
  138.6186   67.8647  222.7622 H   0  0  0  0  0  0  0  0  0  0  0  0
  141.7994   70.8872  225.8620 H   0  0  0  0  0  0  0  0  0  0  0  0
  140.2044   71.5853  225.6349 H   0  0  0  0  0  0  0  0  0  0  0  0
  141.7163   71.2311  228.1005 H   0  0  0  0  0  0  0  0  0  0  0  0
  140.1358   72.0299  227.9022 H   0  0  0  0  0  0  0  0  0  0  0  0
  140.4482   69.7140  229.3421 H   0  0  0  0  0  0  0  0  0  0  0  0
  138.9512   70.0516  228.5215 H   0  0  0  0  0  0  0  0  0  0  0  0
  141.3931   68.4390  227.5046 H   0  0  0  0  0  0  0  0  0  0  0  0
  139.7369   67.9115  227.4564 H   0  0  0  0  0  0  0  0  0  0  0  0
  140.3616   71.4873  224.2886 H   0  0  0  0  0  0  0  0  0  0  0  0
  137.7423   75.8140  223.2076 H   0  0  0  0  0  0  0  0  0  0  0  0
  138.1771   78.2355  222.9491 H   0  0  0  0  0  0  0  0  0  0  0  0
  141.3876   79.1282  220.0389 H   0  0  0  0  0  0  0  0  0  0  0  0
  140.3614   80.5811  220.1311 H   0  0  0  0  0  0  0  0  0  0  0  0
  142.9435   79.9929  221.6561 H   0  0  0  0  0  0  0  0  0  0  0  0
  142.6226   81.3122  220.4588 H   0  0  0  0  0  0  0  0  0  0  0  0
  142.6592   82.0957  222.7931 H   0  0  0  0  0  0  0  0  0  0  0  0
  141.0650   82.3405  221.9403 H   0  0  0  0  0  0  0  0  0  0  0  0
  141.7031   80.1469  223.9441 H   0  0  0  0  0  0  0  0  0  0  0  0
  140.7284   81.6089  224.2612 H   0  0  0  0  0  0  0  0  0  0  0  0
  139.3086   79.6125  223.6541 H   0  0  0  0  0  0  0  0  0  0  0  0
  139.1078   80.9404  222.4924 H   0  0  0  0  0  0  0  0  0  0  0  0
  141.9227   77.3355  221.0134 H   0  0  0  0  0  0  0  0  0  0  0  0
  1  2  2  0
  2  3  1  0
  3  4  1  0
  4  5  1  0
  5  6  2  0
  6  7  1  0
  7  8  2  0
  8  9  1  0
  9 10  1  0
 10 11  2  0
 10 12  1  0
 12 13  1  0
 13 14  1  0
 14 15  1  0
 15 16  1  0
  9 17  2  0
  4 18  2  0
 18 19  1  0
 19 20  2  0
 20 21  1  0
 21 22  2  0
 22 23  1  0
 23 24  1  0
 24 25  1  0
 25 26  1  0
 26 27  1  0
 27 28  1  0
 22 29  1  0
 29 30  2  0
 30  2  1  0
 17  5  1  0
 30 19  1  0
 16 12  1  0
 28 23  1  0
  3 31  1  0
  3 32  1  0
  6 33  1  0
  7 34  1  0
  8 35  1  0
 13 36  1  0
 13 37  1  0
 14 38  1  0
 14 39  1  0
 15 40  1  0
 15 41  1  0
 16 42  1  0
 16 43  1  0
 17 44  1  0
 20 45  1  0
 21 46  1  0
 24 47  1  0
 24 48  1  0
 25 49  1  0
 25 50  1  0
 26 51  1  0
 26 52  1  0
 27 53  1  0
 27 54  1  0
 28 55  1  0
 28 56  1  0
 29 57  1  0
M  END
>  <smiles>  (39) 
O=C1CC(c2cccc(C(=O)N3CCCC3)c2)=Nc2ccc(N3CCCCC3)cc21

>  <score_type>  (39) 
oracle

>  <origin>  (39) 
autodockgpu

>  <m_score__min__energy>  (39) 
-9.2599999999999998

>  <m_primary>  (39) 
energy

>  <rmsd>  (39) 
6.153671275886821

>  <m_score__min__rmsd>  (39) 
6.153671275886821

>  <meeko>  (39) 
{"free_energy": -9.13, "intermolecular_energy": -10.02, "internal_energy": -0.86, "cluster_size": 50, "cluster_id": 1, "rank_in_cluster": 37}

>  <energy>  (39) 
-9.11

>  <cluster_rmsd>  (39) 
0.62

>  <cluster>  (39) 
1

$$$$

     RDKit          3D

 57 61  0  0  0  0  0  0  0  0999 V2000
  142.8540   74.8270  220.4340 O   0  0  0  0  0  0  0  0  0  0  0  0
  141.7950   74.4790  221.0430 C   0  0  0  0  0  0  0  0  0  0  0  0
  141.5530   73.0300  221.1910 C   0  0  0  0  0  0  0  0  0  0  0  0
  140.2790   72.8230  221.9220 C   0  0  0  0  0  0  0  0  0  0  0  0
  139.8340   71.4380  222.1890 C   0  0  0  0  0  0  0  0  0  0  0  0
  139.2860   70.7000  221.1370 C   0  0  0  0  0  0  0  0  0  0  0  0
  138.8540   69.3990  221.3600 C   0  0  0  0  0  0  0  0  0  0  0  0
  138.9650   68.8410  222.6140 C   0  0  0  0  0  0  0  0  0  0  0  0
  139.5120   69.5750  223.6670 C   0  0  0  0  0  0  0  0  0  0  0  0
  139.5930   68.9060  224.9520 C   0  0  0  0  0  0  0  0  0  0  0  0
  139.1130   67.7250  224.9990 O   0  0  0  0  0  0  0  0  0  0  0  0
  140.1710   69.5080  226.1140 N   0  0  0  0  0  0  0  0  0  0  0  0
  140.7520   70.8320  226.2180 C   0  0  0  0  0  0  0  0  0  0  0  0
  140.6690   71.1420  227.6810 C   0  0  0  0  0  0  0  0  0  0  0  0
  139.9440   69.9970  228.3500 C   0  0  0  0  0  0  0  0  0  0  0  0
  140.2620   68.8460  227.4040 C   0  0  0  0  0  0  0  0  0  0  0  0
  139.9400   70.8670  223.4400 C   0  0  0  0  0  0  0  0  0  0  0  0
  139.5220   73.7590  222.3480 N   0  0  0  0  0  0  0  0  0  0  0  0
  139.7570   75.1510  222.2050 C   0  0  0  0  0  0  0  0  0  0  0  0
  138.8960   76.0980  222.6970 C   0  0  0  0  0  0  0  0  0  0  0  0
  139.1700   77.4390  222.5360 C   0  0  0  0  0  0  0  0  0  0  0  0
  140.3240   77.8400  221.8750 C   0  0  0  0  0  0  0  0  0  0  0  0
  140.5990   79.2290  221.7220 N   0  0  0  0  0  0  0  0  0  0  0  0
  141.7960   79.7410  221.0880 C   0  0  0  0  0  0  0  0  0  0  0  0
  142.4850   80.6460  222.0840 C   0  0  0  0  0  0  0  0  0  0  0  0
  141.5290   81.6340  222.6720 C   0  0  0  0  0  0  0  0  0  0  0  0
  140.3190   80.9870  223.3050 C   0  0  0  0  0  0  0  0  0  0  0  0
  139.6160   80.1650  222.2400 C   0  0  0  0  0  0  0  0  0  0  0  0
  141.1940   76.8710  221.3780 C   0  0  0  0  0  0  0  0  0  0  0  0
  140.9120   75.5180  221.5420 C   0  0  0  0  0  0  0  0  0  0  0  0
  141.4871   72.5641  220.1967 H   0  0  0  0  0  0  0  0  0  0  0  0
  142.3808   72.5713  221.7517 H   0  0  0  0  0  0  0  0  0  0  0  0
  139.1970   71.1475  220.1361 H   0  0  0  0  0  0  0  0  0  0  0  0
  138.4229   68.8139  220.5343 H   0  0  0  0  0  0  0  0  0  0  0  0
  138.6204   67.8107  222.7865 H   0  0  0  0  0  0  0  0  0  0  0  0
  141.7976   70.8295  225.8762 H   0  0  0  0  0  0  0  0  0  0  0  0
  140.2335   71.5753  225.5946 H   0  0  0  0  0  0  0  0  0  0  0  0
  141.6806   71.2422  228.1012 H   0  0  0  0  0  0  0  0  0  0  0  0
  140.1325   72.0881  227.8457 H   0  0  0  0  0  0  0  0  0  0  0  0
  140.3363   69.8077  229.3601 H   0  0  0  0  0  0  0  0  0  0  0  0
  138.8684   70.1720  228.4996 H   0  0  0  0  0  0  0  0  0  0  0  0
  141.2710   68.4454  227.5813 H   0  0  0  0  0  0  0  0  0  0  0  0
  139.5983   67.9756  227.5127 H   0  0  0  0  0  0  0  0  0  0  0  0
  140.3714   71.4492  224.2676 H   0  0  0  0  0  0  0  0  0  0  0  0
  137.9818   75.7857  223.2230 H   0  0  0  0  0  0  0  0  0  0  0  0
  138.4737   78.1931  222.9316 H   0  0  0  0  0  0  0  0  0  0  0  0
  142.4611   78.9089  220.8136 H   0  0  0  0  0  0  0  0  0  0  0  0
  141.5431   80.2943  220.1715 H   0  0  0  0  0  0  0  0  0  0  0  0
  142.9086   80.0322  222.8926 H   0  0  0  0  0  0  0  0  0  0  0  0
  143.2778   81.1996  221.5597 H   0  0  0  0  0  0  0  0  0  0  0  0
  142.0571   82.2161  223.4416 H   0  0  0  0  0  0  0  0  0  0  0  0
  141.1677   82.2688  221.8495 H   0  0  0  0  0  0  0  0  0  0  0  0
  140.6345   80.3345  224.1325 H   0  0  0  0  0  0  0  0  0  0  0  0
  139.6404   81.7547  223.7052 H   0  0  0  0  0  0  0  0  0  0  0  0
  138.7677   79.6199  222.6797 H   0  0  0  0  0  0  0  0  0  0  0  0
  139.2200   80.8077  221.4399 H   0  0  0  0  0  0  0  0  0  0  0  0
  142.1102   77.1779  220.8523 H   0  0  0  0  0  0  0  0  0  0  0  0
  1  2  2  0
  2  3  1  0
  3  4  1  0
  4  5  1  0
  5  6  2  0
  6  7  1  0
  7  8  2  0
  8  9  1  0
  9 10  1  0
 10 11  2  0
 10 12  1  0
 12 13  1  0
 13 14  1  0
 14 15  1  0
 15 16  1  0
  9 17  2  0
  4 18  2  0
 18 19  1  0
 19 20  2  0
 20 21  1  0
 21 22  2  0
 22 23  1  0
 23 24  1  0
 24 25  1  0
 25 26  1  0
 26 27  1  0
 27 28  1  0
 22 29  1  0
 29 30  2  0
 30  2  1  0
 17  5  1  0
 30 19  1  0
 16 12  1  0
 28 23  1  0
  3 31  1  0
  3 32  1  0
  6 33  1  0
  7 34  1  0
  8 35  1  0
 13 36  1  0
 13 37  1  0
 14 38  1  0
 14 39  1  0
 15 40  1  0
 15 41  1  0
 16 42  1  0
 16 43  1  0
 17 44  1  0
 20 45  1  0
 21 46  1  0
 24 47  1  0
 24 48  1  0
 25 49  1  0
 25 50  1  0
 26 51  1  0
 26 52  1  0
 27 53  1  0
 27 54  1  0
 28 55  1  0
 28 56  1  0
 29 57  1  0
M  END
>  <smiles>  (40) 
O=C1CC(c2cccc(C(=O)N3CCCC3)c2)=Nc2ccc(N3CCCCC3)cc21

>  <score_type>  (40) 
oracle

>  <origin>  (40) 
autodockgpu

>  <m_score__min__energy>  (40) 
-9.2599999999999998

>  <m_primary>  (40) 
energy

>  <rmsd>  (40) 
6.166927037943574

>  <m_score__min__rmsd>  (40) 
6.166927037943574

>  <meeko>  (40) 
{"free_energy": -9.25, "intermolecular_energy": -10.15, "internal_energy": -0.87, "cluster_size": 50, "cluster_id": 1, "rank_in_cluster": 7}

>  <energy>  (40) 
-9.11

>  <cluster_rmsd>  (40) 
0.48

>  <cluster>  (40) 
1

$$$$

     RDKit          3D

 57 61  0  0  0  0  0  0  0  0999 V2000
  142.8780   74.8700  220.4260 O   0  0  0  0  0  0  0  0  0  0  0  0
  141.8280   74.5010  221.0370 C   0  0  0  0  0  0  0  0  0  0  0  0
  141.6090   73.0470  221.1770 C   0  0  0  0  0  0  0  0  0  0  0  0
  140.3410   72.8150  221.9100 C   0  0  0  0  0  0  0  0  0  0  0  0
  139.9200   71.4210  222.1700 C   0  0  0  0  0  0  0  0  0  0  0  0
  139.4730   70.6500  221.0940 C   0  0  0  0  0  0  0  0  0  0  0  0
  139.0650   69.3400  221.3090 C   0  0  0  0  0  0  0  0  0  0  0  0
  139.1000   68.8060  222.5780 C   0  0  0  0  0  0  0  0  0  0  0  0
  139.5450   69.5740  223.6540 C   0  0  0  0  0  0  0  0  0  0  0  0
  139.5510   68.9280  224.9540 C   0  0  0  0  0  0  0  0  0  0  0  0
  138.9820   67.7880  225.0150 O   0  0  0  0  0  0  0  0  0  0  0  0
  140.1510   69.5090  226.1150 N   0  0  0  0  0  0  0  0  0  0  0  0
  140.8290   70.7870  226.2040 C   0  0  0  0  0  0  0  0  0  0  0  0
  140.7420   71.1350  227.6590 C   0  0  0  0  0  0  0  0  0  0  0  0
  139.9200   70.0630  228.3350 C   0  0  0  0  0  0  0  0  0  0  0  0
  140.1670   68.8710  227.4190 C   0  0  0  0  0  0  0  0  0  0  0  0
  139.9500   70.8740  223.4350 C   0  0  0  0  0  0  0  0  0  0  0  0
  139.5710   73.7360  222.3460 N   0  0  0  0  0  0  0  0  0  0  0  0
  139.7840   75.1320  222.2120 C   0  0  0  0  0  0  0  0  0  0  0  0
  138.9100   76.0620  222.7140 C   0  0  0  0  0  0  0  0  0  0  0  0
  139.1620   77.4090  222.5610 C   0  0  0  0  0  0  0  0  0  0  0  0
  140.3070   77.8330  221.8980 C   0  0  0  0  0  0  0  0  0  0  0  0
  140.5590   79.2270  221.7540 N   0  0  0  0  0  0  0  0  0  0  0  0
  141.7280   79.7620  221.0870 C   0  0  0  0  0  0  0  0  0  0  0  0
  142.4380   80.6640  222.0720 C   0  0  0  0  0  0  0  0  0  0  0  0
  141.4900   81.6320  222.7030 C   0  0  0  0  0  0  0  0  0  0  0  0
  140.3090   80.9610  223.3670 C   0  0  0  0  0  0  0  0  0  0  0  0
  139.5820   80.1440  222.3150 C   0  0  0  0  0  0  0  0  0  0  0  0
  141.1900   76.8810  221.3910 C   0  0  0  0  0  0  0  0  0  0  0  0
  140.9310   75.5230  221.5470 C   0  0  0  0  0  0  0  0  0  0  0  0
  141.5476   72.5862  220.1801 H   0  0  0  0  0  0  0  0  0  0  0  0
  142.4455   72.5983  221.7329 H   0  0  0  0  0  0  0  0  0  0  0  0
  139.4444   71.0785  220.0813 H   0  0  0  0  0  0  0  0  0  0  0  0
  138.7136   68.7284  220.4650 H   0  0  0  0  0  0  0  0  0  0  0  0
  138.7753   67.7682  222.7439 H   0  0  0  0  0  0  0  0  0  0  0  0
  141.8777   70.6978  225.8841 H   0  0  0  0  0  0  0  0  0  0  0  0
  140.3805   71.5535  225.5549 H   0  0  0  0  0  0  0  0  0  0  0  0
  141.7501   71.1678  228.0980 H   0  0  0  0  0  0  0  0  0  0  0  0
  140.2762   72.1224  227.7936 H   0  0  0  0  0  0  0  0  0  0  0  0
  140.2776   69.8662  229.3565 H   0  0  0  0  0  0  0  0  0  0  0  0
  138.8581   70.3221  228.4587 H   0  0  0  0  0  0  0  0  0  0  0  0
  141.1391   68.3991  227.6249 H   0  0  0  0  0  0  0  0  0  0  0  0
  139.4368   68.0561  227.5318 H   0  0  0  0  0  0  0  0  0  0  0  0
  140.3017   71.4826  224.2811 H   0  0  0  0  0  0  0  0  0  0  0  0
  138.0031   75.7316  223.2415 H   0  0  0  0  0  0  0  0  0  0  0  0
  138.4553   78.1491  222.9645 H   0  0  0  0  0  0  0  0  0  0  0  0
  142.3941   78.9420  220.7805 H   0  0  0  0  0  0  0  0  0  0  0  0
  141.4384   80.3227  220.1861 H   0  0  0  0  0  0  0  0  0  0  0  0
  142.8953   80.0459  222.8586 H   0  0  0  0  0  0  0  0  0  0  0  0
  143.2062   81.2342  221.5292 H   0  0  0  0  0  0  0  0  0  0  0  0
  142.0356   82.2113  223.4624 H   0  0  0  0  0  0  0  0  0  0  0  0
  141.0942   82.2724  221.9010 H   0  0  0  0  0  0  0  0  0  0  0  0
  140.6597   80.3021  224.1750 H   0  0  0  0  0  0  0  0  0  0  0  0
  139.6344   81.7147  223.7994 H   0  0  0  0  0  0  0  0  0  0  0  0
  138.7549   79.5830  222.7746 H   0  0  0  0  0  0  0  0  0  0  0  0
  139.1526   80.7915  221.5364 H   0  0  0  0  0  0  0  0  0  0  0  0
  142.0988   77.2060  220.8634 H   0  0  0  0  0  0  0  0  0  0  0  0
  1  2  2  0
  2  3  1  0
  3  4  1  0
  4  5  1  0
  5  6  2  0
  6  7  1  0
  7  8  2  0
  8  9  1  0
  9 10  1  0
 10 11  2  0
 10 12  1  0
 12 13  1  0
 13 14  1  0
 14 15  1  0
 15 16  1  0
  9 17  2  0
  4 18  2  0
 18 19  1  0
 19 20  2  0
 20 21  1  0
 21 22  2  0
 22 23  1  0
 23 24  1  0
 24 25  1  0
 25 26  1  0
 26 27  1  0
 27 28  1  0
 22 29  1  0
 29 30  2  0
 30  2  1  0
 17  5  1  0
 30 19  1  0
 16 12  1  0
 28 23  1  0
  3 31  1  0
  3 32  1  0
  6 33  1  0
  7 34  1  0
  8 35  1  0
 13 36  1  0
 13 37  1  0
 14 38  1  0
 14 39  1  0
 15 40  1  0
 15 41  1  0
 16 42  1  0
 16 43  1  0
 17 44  1  0
 20 45  1  0
 21 46  1  0
 24 47  1  0
 24 48  1  0
 25 49  1  0
 25 50  1  0
 26 51  1  0
 26 52  1  0
 27 53  1  0
 27 54  1  0
 28 55  1  0
 28 56  1  0
 29 57  1  0
M  END
>  <smiles>  (41) 
O=C1CC(c2cccc(C(=O)N3CCCC3)c2)=Nc2ccc(N3CCCCC3)cc21

>  <score_type>  (41) 
oracle

>  <origin>  (41) 
autodockgpu

>  <m_score__min__energy>  (41) 
-9.2599999999999998

>  <m_primary>  (41) 
energy

>  <rmsd>  (41) 
6.175403337069024

>  <m_score__min__rmsd>  (41) 
6.175403337069024

>  <meeko>  (41) 
{"free_energy": -9.23, "intermolecular_energy": -10.13, "internal_energy": -0.89, "cluster_size": 50, "cluster_id": 1, "rank_in_cluster": 18}

>  <energy>  (41) 
-9.11

>  <cluster_rmsd>  (41) 
0.5

>  <cluster>  (41) 
1

$$$$

     RDKit          3D

 57 61  0  0  0  0  0  0  0  0999 V2000
  142.8800   74.8400  220.4160 O   0  0  0  0  0  0  0  0  0  0  0  0
  141.8240   74.4900  221.0290 C   0  0  0  0  0  0  0  0  0  0  0  0
  141.5830   73.0400  221.1760 C   0  0  0  0  0  0  0  0  0  0  0  0
  140.3120   72.8310  221.9100 C   0  0  0  0  0  0  0  0  0  0  0  0
  139.8710   71.4440  222.1770 C   0  0  0  0  0  0  0  0  0  0  0  0
  139.3450   70.6990  221.1200 C   0  0  0  0  0  0  0  0  0  0  0  0
  138.9160   69.3960  221.3420 C   0  0  0  0  0  0  0  0  0  0  0  0
  139.0090   68.8450  222.6000 C   0  0  0  0  0  0  0  0  0  0  0  0
  139.5320   69.5870  223.6590 C   0  0  0  0  0  0  0  0  0  0  0  0
  139.5950   68.9250  224.9480 C   0  0  0  0  0  0  0  0  0  0  0  0
  139.0890   67.7550  225.0010 O   0  0  0  0  0  0  0  0  0  0  0  0
  140.1820   69.5220  226.1080 N   0  0  0  0  0  0  0  0  0  0  0  0
  140.7910   70.8340  226.2060 C   0  0  0  0  0  0  0  0  0  0  0  0
  140.7100   71.1560  227.6660 C   0  0  0  0  0  0  0  0  0  0  0  0
  139.9580   70.0310  228.3400 C   0  0  0  0  0  0  0  0  0  0  0  0
  140.2540   68.8670  227.4030 C   0  0  0  0  0  0  0  0  0  0  0  0
  139.9580   70.8800  223.4320 C   0  0  0  0  0  0  0  0  0  0  0  0
  139.5560   73.7650  222.3410 N   0  0  0  0  0  0  0  0  0  0  0  0
  139.7890   75.1570  222.1990 C   0  0  0  0  0  0  0  0  0  0  0  0
  138.9290   76.1020  222.6950 C   0  0  0  0  0  0  0  0  0  0  0  0
  139.2000   77.4440  222.5360 C   0  0  0  0  0  0  0  0  0  0  0  0
  140.3510   77.8480  221.8710 C   0  0  0  0  0  0  0  0  0  0  0  0
  140.6230   79.2380  221.7190 N   0  0  0  0  0  0  0  0  0  0  0  0
  141.8260   79.7520  221.0970 C   0  0  0  0  0  0  0  0  0  0  0  0
  142.5010   80.6600  222.1000 C   0  0  0  0  0  0  0  0  0  0  0  0
  141.5360   81.6460  222.6770 C   0  0  0  0  0  0  0  0  0  0  0  0
  140.3210   80.9960  223.2970 C   0  0  0  0  0  0  0  0  0  0  0  0
  139.6320   80.1710  222.2250 C   0  0  0  0  0  0  0  0  0  0  0  0
  141.2210   76.8810  221.3700 C   0  0  0  0  0  0  0  0  0  0  0  0
  140.9410   75.5270  221.5330 C   0  0  0  0  0  0  0  0  0  0  0  0
  141.5145   72.5754  220.1813 H   0  0  0  0  0  0  0  0  0  0  0  0
  142.4127   72.5813  221.7339 H   0  0  0  0  0  0  0  0  0  0  0  0
  139.2704   71.1415  220.1157 H   0  0  0  0  0  0  0  0  0  0  0  0
  138.5019   68.8046  220.5121 H   0  0  0  0  0  0  0  0  0  0  0  0
  138.6687   67.8131  222.7712 H   0  0  0  0  0  0  0  0  0  0  0  0
  141.8374   70.8067  225.8680 H   0  0  0  0  0  0  0  0  0  0  0  0
  140.2903   71.5840  225.5761 H   0  0  0  0  0  0  0  0  0  0  0  0
  141.7221   71.2372  228.0891 H   0  0  0  0  0  0  0  0  0  0  0  0
  140.1938   72.1146  227.8226 H   0  0  0  0  0  0  0  0  0  0  0  0
  140.3427   69.8400  229.3527 H   0  0  0  0  0  0  0  0  0  0  0  0
  138.8859   70.2303  228.4844 H   0  0  0  0  0  0  0  0  0  0  0  0
  141.2534   68.4457  227.5867 H   0  0  0  0  0  0  0  0  0  0  0  0
  139.5710   68.0121  227.5152 H   0  0  0  0  0  0  0  0  0  0  0  0
  140.3726   71.4685  224.2637 H   0  0  0  0  0  0  0  0  0  0  0  0
  138.0169   75.7874  223.2233 H   0  0  0  0  0  0  0  0  0  0  0  0
  138.5041   78.1961  222.9361 H   0  0  0  0  0  0  0  0  0  0  0  0
  142.4963   78.9213  220.8312 H   0  0  0  0  0  0  0  0  0  0  0  0
  141.5824   80.3030  220.1766 H   0  0  0  0  0  0  0  0  0  0  0  0
  142.9174   80.0481  222.9137 H   0  0  0  0  0  0  0  0  0  0  0  0
  143.2976   81.2157  221.5837 H   0  0  0  0  0  0  0  0  0  0  0  0
  142.0540   82.2299  223.4521 H   0  0  0  0  0  0  0  0  0  0  0  0
  141.1821   82.2795  221.8503 H   0  0  0  0  0  0  0  0  0  0  0  0
  140.6292   80.3451  224.1284 H   0  0  0  0  0  0  0  0  0  0  0  0
  139.6359   81.7622  223.6889 H   0  0  0  0  0  0  0  0  0  0  0  0
  138.7806   79.6238  222.6558 H   0  0  0  0  0  0  0  0  0  0  0  0
  139.2428   80.8118  221.4201 H   0  0  0  0  0  0  0  0  0  0  0  0
  142.1353   77.1899  220.8421 H   0  0  0  0  0  0  0  0  0  0  0  0
  1  2  2  0
  2  3  1  0
  3  4  1  0
  4  5  1  0
  5  6  2  0
  6  7  1  0
  7  8  2  0
  8  9  1  0
  9 10  1  0
 10 11  2  0
 10 12  1  0
 12 13  1  0
 13 14  1  0
 14 15  1  0
 15 16  1  0
  9 17  2  0
  4 18  2  0
 18 19  1  0
 19 20  2  0
 20 21  1  0
 21 22  2  0
 22 23  1  0
 23 24  1  0
 24 25  1  0
 25 26  1  0
 26 27  1  0
 27 28  1  0
 22 29  1  0
 29 30  2  0
 30  2  1  0
 17  5  1  0
 30 19  1  0
 16 12  1  0
 28 23  1  0
  3 31  1  0
  3 32  1  0
  6 33  1  0
  7 34  1  0
  8 35  1  0
 13 36  1  0
 13 37  1  0
 14 38  1  0
 14 39  1  0
 15 40  1  0
 15 41  1  0
 16 42  1  0
 16 43  1  0
 17 44  1  0
 20 45  1  0
 21 46  1  0
 24 47  1  0
 24 48  1  0
 25 49  1  0
 25 50  1  0
 26 51  1  0
 26 52  1  0
 27 53  1  0
 27 54  1  0
 28 55  1  0
 28 56  1  0
 29 57  1  0
M  END
>  <smiles>  (42) 
O=C1CC(c2cccc(C(=O)N3CCCC3)c2)=Nc2ccc(N3CCCCC3)cc21

>  <score_type>  (42) 
oracle

>  <origin>  (42) 
autodockgpu

>  <m_score__min__energy>  (42) 
-9.2599999999999998

>  <m_primary>  (42) 
energy

>  <rmsd>  (42) 
6.166856219289982

>  <m_score__min__rmsd>  (42) 
6.166856219289982

>  <meeko>  (42) 
{"free_energy": -9.26, "intermolecular_energy": -10.15, "internal_energy": -0.87, "cluster_size": 50, "cluster_id": 1, "rank_in_cluster": 1}

>  <energy>  (42) 
-9.11

>  <cluster_rmsd>  (42) 
0.51

>  <cluster>  (42) 
1

$$$$

     RDKit          3D

 57 61  0  0  0  0  0  0  0  0999 V2000
  142.8730   74.9040  220.4800 O   0  0  0  0  0  0  0  0  0  0  0  0
  141.8140   74.5320  221.0750 C   0  0  0  0  0  0  0  0  0  0  0  0
  141.5980   73.0780  221.2130 C   0  0  0  0  0  0  0  0  0  0  0  0
  140.3200   72.8420  221.9270 C   0  0  0  0  0  0  0  0  0  0  0  0
  139.8990   71.4470  222.1810 C   0  0  0  0  0  0  0  0  0  0  0  0
  139.4160   70.6920  221.1100 C   0  0  0  0  0  0  0  0  0  0  0  0
  139.0070   69.3810  221.3200 C   0  0  0  0  0  0  0  0  0  0  0  0
  139.0780   68.8310  222.5800 C   0  0  0  0  0  0  0  0  0  0  0  0
  139.5590   69.5820  223.6520 C   0  0  0  0  0  0  0  0  0  0  0  0
  139.6010   68.9200  224.9430 C   0  0  0  0  0  0  0  0  0  0  0  0
  139.0880   67.7530  224.9900 O   0  0  0  0  0  0  0  0  0  0  0  0
  140.1770   69.5140  226.1100 N   0  0  0  0  0  0  0  0  0  0  0  0
  140.7930   70.8220  226.2150 C   0  0  0  0  0  0  0  0  0  0  0  0
  140.6940   71.1450  227.6750 C   0  0  0  0  0  0  0  0  0  0  0  0
  139.9270   70.0250  228.3390 C   0  0  0  0  0  0  0  0  0  0  0  0
  140.2280   68.8590  227.4060 C   0  0  0  0  0  0  0  0  0  0  0  0
  139.9650   70.8830  223.4380 C   0  0  0  0  0  0  0  0  0  0  0  0
  139.5400   73.7610  222.3490 N   0  0  0  0  0  0  0  0  0  0  0  0
  139.7500   75.1580  222.2170 C   0  0  0  0  0  0  0  0  0  0  0  0
  138.8650   76.0850  222.7030 C   0  0  0  0  0  0  0  0  0  0  0  0
  139.1150   77.4330  222.5530 C   0  0  0  0  0  0  0  0  0  0  0  0
  140.2690   77.8600  221.9080 C   0  0  0  0  0  0  0  0  0  0  0  0
  140.5180   79.2550  221.7660 N   0  0  0  0  0  0  0  0  0  0  0  0
  141.6440   79.7930  221.0310 C   0  0  0  0  0  0  0  0  0  0  0  0
  142.4220   80.6780  221.9790 C   0  0  0  0  0  0  0  0  0  0  0  0
  141.5220   81.6420  222.6840 C   0  0  0  0  0  0  0  0  0  0  0  0
  140.3850   80.9680  223.4150 C   0  0  0  0  0  0  0  0  0  0  0  0
  139.5850   80.1680  222.4030 C   0  0  0  0  0  0  0  0  0  0  0  0
  141.1630   76.9100  221.4160 C   0  0  0  0  0  0  0  0  0  0  0  0
  140.9060   75.5510  221.5700 C   0  0  0  0  0  0  0  0  0  0  0  0
  141.5533   72.6161  220.2157 H   0  0  0  0  0  0  0  0  0  0  0  0
  142.4276   72.6329  221.7819 H   0  0  0  0  0  0  0  0  0  0  0  0
  139.3596   71.1336  220.1041 H   0  0  0  0  0  0  0  0  0  0  0  0
  138.6264   68.7823  220.4793 H   0  0  0  0  0  0  0  0  0  0  0  0
  138.7533   67.7926  222.7422 H   0  0  0  0  0  0  0  0  0  0  0  0
  141.8437   70.7879  225.8911 H   0  0  0  0  0  0  0  0  0  0  0  0
  140.3061   71.5749  225.5778 H   0  0  0  0  0  0  0  0  0  0  0  0
  141.7008   71.2207  228.1117 H   0  0  0  0  0  0  0  0  0  0  0  0
  140.1810   72.1065  227.8243 H   0  0  0  0  0  0  0  0  0  0  0  0
  140.2975   69.8319  229.3566 H   0  0  0  0  0  0  0  0  0  0  0  0
  138.8543   70.2307  228.4695 H   0  0  0  0  0  0  0  0  0  0  0  0
  141.2223   68.4316  227.6028 H   0  0  0  0  0  0  0  0  0  0  0  0
  139.5382   68.0084  227.5094 H   0  0  0  0  0  0  0  0  0  0  0  0
  140.3463   71.4783  224.2808 H   0  0  0  0  0  0  0  0  0  0  0  0
  137.9504   75.7520  223.2155 H   0  0  0  0  0  0  0  0  0  0  0  0
  138.3996   78.1711  222.9446 H   0  0  0  0  0  0  0  0  0  0  0  0
  142.2838   78.9739  220.6709 H   0  0  0  0  0  0  0  0  0  0  0  0
  141.2994   80.3672  220.1583 H   0  0  0  0  0  0  0  0  0  0  0  0
  142.9266   80.0471  222.7256 H   0  0  0  0  0  0  0  0  0  0  0  0
  143.1562   81.2520  221.3947 H   0  0  0  0  0  0  0  0  0  0  0  0
  142.1194   82.2089  223.4132 H   0  0  0  0  0  0  0  0  0  0  0  0
  141.0774   82.2945  221.9181 H   0  0  0  0  0  0  0  0  0  0  0  0
  140.7849   80.2968  224.1893 H   0  0  0  0  0  0  0  0  0  0  0  0
  139.7445   81.7190  223.9005 H   0  0  0  0  0  0  0  0  0  0  0  0
  138.7878   79.6041  222.9095 H   0  0  0  0  0  0  0  0  0  0  0  0
  139.1075   80.8276  221.6635 H   0  0  0  0  0  0  0  0  0  0  0  0
  142.0788   77.2373  220.9020 H   0  0  0  0  0  0  0  0  0  0  0  0
  1  2  2  0
  2  3  1  0
  3  4  1  0
  4  5  1  0
  5  6  2  0
  6  7  1  0
  7  8  2  0
  8  9  1  0
  9 10  1  0
 10 11  2  0
 10 12  1  0
 12 13  1  0
 13 14  1  0
 14 15  1  0
 15 16  1  0
  9 17  2  0
  4 18  2  0
 18 19  1  0
 19 20  2  0
 20 21  1  0
 21 22  2  0
 22 23  1  0
 23 24  1  0
 24 25  1  0
 25 26  1  0
 26 27  1  0
 27 28  1  0
 22 29  1  0
 29 30  2  0
 30  2  1  0
 17  5  1  0
 30 19  1  0
 16 12  1  0
 28 23  1  0
  3 31  1  0
  3 32  1  0
  6 33  1  0
  7 34  1  0
  8 35  1  0
 13 36  1  0
 13 37  1  0
 14 38  1  0
 14 39  1  0
 15 40  1  0
 15 41  1  0
 16 42  1  0
 16 43  1  0
 17 44  1  0
 20 45  1  0
 21 46  1  0
 24 47  1  0
 24 48  1  0
 25 49  1  0
 25 50  1  0
 26 51  1  0
 26 52  1  0
 27 53  1  0
 27 54  1  0
 28 55  1  0
 28 56  1  0
 29 57  1  0
M  END
>  <smiles>  (43) 
O=C1CC(c2cccc(C(=O)N3CCCC3)c2)=Nc2ccc(N3CCCCC3)cc21

>  <score_type>  (43) 
oracle

>  <origin>  (43) 
autodockgpu

>  <m_score__min__energy>  (43) 
-9.2599999999999998

>  <m_primary>  (43) 
energy

>  <rmsd>  (43) 
6.177218881339635

>  <m_score__min__rmsd>  (43) 
6.177218881339635

>  <meeko>  (43) 
{"free_energy": -9.25, "intermolecular_energy": -10.14, "internal_energy": -0.87, "cluster_size": 50, "cluster_id": 1, "rank_in_cluster": 13}

>  <energy>  (43) 
-9.1

>  <cluster_rmsd>  (43) 
0.48

>  <cluster>  (43) 
1

$$$$

     RDKit          3D

 57 61  0  0  0  0  0  0  0  0999 V2000
  142.8020   74.6440  220.2120 O   0  0  0  0  0  0  0  0  0  0  0  0
  141.7480   74.4500  220.8940 C   0  0  0  0  0  0  0  0  0  0  0  0
  141.3320   73.0480  221.1020 C   0  0  0  0  0  0  0  0  0  0  0  0
  140.0910   73.0250  221.9130 C   0  0  0  0  0  0  0  0  0  0  0  0
  139.4920   71.7150  222.2500 C   0  0  0  0  0  0  0  0  0  0  0  0
  138.5510   71.1690  221.3730 C   0  0  0  0  0  0  0  0  0  0  0  0
  137.9660   69.9430  221.6670 C   0  0  0  0  0  0  0  0  0  0  0  0
  138.3130   69.2720  222.8180 C   0  0  0  0  0  0  0  0  0  0  0  0
  139.2510   69.8160  223.6960 C   0  0  0  0  0  0  0  0  0  0  0  0
  139.5570   69.0380  224.8820 C   0  0  0  0  0  0  0  0  0  0  0  0
  139.2170   67.8090  224.8480 O   0  0  0  0  0  0  0  0  0  0  0  0
  140.2000   69.5870  226.0360 N   0  0  0  0  0  0  0  0  0  0  0  0
  140.6420   70.9550  226.2240 C   0  0  0  0  0  0  0  0  0  0  0  0
  140.7010   71.1070  227.7130 C   0  0  0  0  0  0  0  0  0  0  0  0
  140.1890   69.8230  228.3230 C   0  0  0  0  0  0  0  0  0  0  0  0
  140.5150   68.8180  227.2260 C   0  0  0  0  0  0  0  0  0  0  0  0
  139.8290   71.0320  223.3990 C   0  0  0  0  0  0  0  0  0  0  0  0
  139.4880   74.0600  222.3550 N   0  0  0  0  0  0  0  0  0  0  0  0
  139.8900   75.4060  222.1540 C   0  0  0  0  0  0  0  0  0  0  0  0
  139.1890   76.4680  222.6660 C   0  0  0  0  0  0  0  0  0  0  0  0
  139.6210   77.7590  222.4480 C   0  0  0  0  0  0  0  0  0  0  0  0
  140.7730   77.9910  221.7060 C   0  0  0  0  0  0  0  0  0  0  0  0
  141.2120   79.3290  221.4940 N   0  0  0  0  0  0  0  0  0  0  0  0
  142.3120   79.9330  222.2190 C   0  0  0  0  0  0  0  0  0  0  0  0
  141.7810   81.1800  222.8890 C   0  0  0  0  0  0  0  0  0  0  0  0
  141.0270   82.0370  221.9240 C   0  0  0  0  0  0  0  0  0  0  0  0
  139.9050   81.3020  221.2270 C   0  0  0  0  0  0  0  0  0  0  0  0
  140.5050   80.1140  220.4980 C   0  0  0  0  0  0  0  0  0  0  0  0
  141.4790   76.9060  221.1900 C   0  0  0  0  0  0  0  0  0  0  0  0
  141.0380   75.6060  221.4130 C   0  0  0  0  0  0  0  0  0  0  0  0
  141.1447   72.5711  220.1286 H   0  0  0  0  0  0  0  0  0  0  0  0
  142.1279   72.4995  221.6271 H   0  0  0  0  0  0  0  0  0  0  0  0
  138.2745   71.7070  220.4542 H   0  0  0  0  0  0  0  0  0  0  0  0
  137.2253   69.5085  220.9796 H   0  0  0  0  0  0  0  0  0  0  0  0
  137.8482   68.3016  223.0467 H   0  0  0  0  0  0  0  0  0  0  0  0
  141.6333   71.1124  225.7739 H   0  0  0  0  0  0  0  0  0  0  0  0
  139.9752   71.6881  225.7465 H   0  0  0  0  0  0  0  0  0  0  0  0
  141.7387   71.2859  228.0311 H   0  0  0  0  0  0  0  0  0  0  0  0
  140.0891   71.9610  228.0391 H   0  0  0  0  0  0  0  0  0  0  0  0
  140.7167   69.5833  229.2579 H   0  0  0  0  0  0  0  0  0  0  0  0
  139.1262   69.8517  228.6051 H   0  0  0  0  0  0  0  0  0  0  0  0
  141.5754   68.5266  227.2486 H   0  0  0  0  0  0  0  0  0  0  0  0
  139.9672   67.8676  227.3073 H   0  0  0  0  0  0  0  0  0  0  0  0
  140.5695   71.4632  224.0887 H   0  0  0  0  0  0  0  0  0  0  0  0
  138.2768   76.2886  223.2540 H   0  0  0  0  0  0  0  0  0  0  0  0
  139.0536   78.6058  222.8615 H   0  0  0  0  0  0  0  0  0  0  0  0
  142.6929   79.2323  222.9765 H   0  0  0  0  0  0  0  0  0  0  0  0
  143.1380   80.1806  221.5361 H   0  0  0  0  0  0  0  0  0  0  0  0
  141.1088   80.8874  223.7091 H   0  0  0  0  0  0  0  0  0  0  0  0
  142.6348   81.7580  223.2724 H   0  0  0  0  0  0  0  0  0  0  0  0
  140.5992   82.8888  222.4730 H   0  0  0  0  0  0  0  0  0  0  0  0
  141.7375   82.3603  221.1490 H   0  0  0  0  0  0  0  0  0  0  0  0
  139.1703   80.9534  221.9677 H   0  0  0  0  0  0  0  0  0  0  0  0
  139.3946   81.9687  220.5163 H   0  0  0  0  0  0  0  0  0  0  0  0
  139.7095   79.5117  220.0350 H   0  0  0  0  0  0  0  0  0  0  0  0
  141.1838   80.4421  219.6970 H   0  0  0  0  0  0  0  0  0  0  0  0
  142.3922   77.0791  220.6017 H   0  0  0  0  0  0  0  0  0  0  0  0
  1  2  2  0
  2  3  1  0
  3  4  1  0
  4  5  1  0
  5  6  2  0
  6  7  1  0
  7  8  2  0
  8  9  1  0
  9 10  1  0
 10 11  2  0
 10 12  1  0
 12 13  1  0
 13 14  1  0
 14 15  1  0
 15 16  1  0
  9 17  2  0
  4 18  2  0
 18 19  1  0
 19 20  2  0
 20 21  1  0
 21 22  2  0
 22 23  1  0
 23 24  1  0
 24 25  1  0
 25 26  1  0
 26 27  1  0
 27 28  1  0
 22 29  1  0
 29 30  2  0
 30  2  1  0
 17  5  1  0
 30 19  1  0
 16 12  1  0
 28 23  1  0
  3 31  1  0
  3 32  1  0
  6 33  1  0
  7 34  1  0
  8 35  1  0
 13 36  1  0
 13 37  1  0
 14 38  1  0
 14 39  1  0
 15 40  1  0
 15 41  1  0
 16 42  1  0
 16 43  1  0
 17 44  1  0
 20 45  1  0
 21 46  1  0
 24 47  1  0
 24 48  1  0
 25 49  1  0
 25 50  1  0
 26 51  1  0
 26 52  1  0
 27 53  1  0
 27 54  1  0
 28 55  1  0
 28 56  1  0
 29 57  1  0
M  END
>  <smiles>  (44) 
O=C1CC(c2cccc(C(=O)N3CCCC3)c2)=Nc2ccc(N3CCCCC3)cc21

>  <score_type>  (44) 
oracle

>  <origin>  (44) 
autodockgpu

>  <m_score__min__energy>  (44) 
-9.2599999999999998

>  <m_primary>  (44) 
energy

>  <rmsd>  (44) 
5.9043556594728015

>  <m_score__min__rmsd>  (44) 
5.9043556594728015

>  <meeko>  (44) 
{"free_energy": -9.12, "intermolecular_energy": -10.02, "internal_energy": -0.9, "cluster_size": 50, "cluster_id": 1, "rank_in_cluster": 38}

>  <energy>  (44) 
-9.09

>  <cluster_rmsd>  (44) 
0.51

>  <cluster>  (44) 
1

$$$$

     RDKit          3D

 57 61  0  0  0  0  0  0  0  0999 V2000
  142.7280   75.1210  220.5100 O   0  0  0  0  0  0  0  0  0  0  0  0
  141.6790   74.7100  221.0960 C   0  0  0  0  0  0  0  0  0  0  0  0
  141.5090   73.2480  221.2200 C   0  0  0  0  0  0  0  0  0  0  0  0
  140.2360   72.9660  221.9250 C   0  0  0  0  0  0  0  0  0  0  0  0
  139.8590   71.5550  222.1660 C   0  0  0  0  0  0  0  0  0  0  0  0
  139.3920   70.7990  221.0880 C   0  0  0  0  0  0  0  0  0  0  0  0
  139.0240   69.4740  221.2850 C   0  0  0  0  0  0  0  0  0  0  0  0
  139.1200   68.9110  222.5380 C   0  0  0  0  0  0  0  0  0  0  0  0
  139.5850   69.6640  223.6160 C   0  0  0  0  0  0  0  0  0  0  0  0
  139.6550   68.9890  224.8990 C   0  0  0  0  0  0  0  0  0  0  0  0
  139.1840   67.8030  224.9330 O   0  0  0  0  0  0  0  0  0  0  0  0
  140.2140   69.5880  226.0710 N   0  0  0  0  0  0  0  0  0  0  0  0
  140.7830   70.9160  226.1900 C   0  0  0  0  0  0  0  0  0  0  0  0
  140.6780   71.2170  227.6540 C   0  0  0  0  0  0  0  0  0  0  0  0
  139.9540   70.0630  228.3060 C   0  0  0  0  0  0  0  0  0  0  0  0
  140.2930   68.9200  227.3580 C   0  0  0  0  0  0  0  0  0  0  0  0
  139.9500   70.9790  223.4150 C   0  0  0  0  0  0  0  0  0  0  0  0
  139.4250   73.8550  222.3520 N   0  0  0  0  0  0  0  0  0  0  0  0
  139.5910   75.2590  222.2320 C   0  0  0  0  0  0  0  0  0  0  0  0
  138.6740   76.1530  222.7220 C   0  0  0  0  0  0  0  0  0  0  0  0
  138.8810   77.5090  222.5850 C   0  0  0  0  0  0  0  0  0  0  0  0
  140.0240   77.9790  221.9490 C   0  0  0  0  0  0  0  0  0  0  0  0
  140.2290   79.3820  221.8200 N   0  0  0  0  0  0  0  0  0  0  0  0
  140.6310   80.0190  220.5830 C   0  0  0  0  0  0  0  0  0  0  0  0
  141.9080   80.7800  220.8610 C   0  0  0  0  0  0  0  0  0  0  0  0
  141.7760   81.6380  222.0780 C   0  0  0  0  0  0  0  0  0  0  0  0
  141.3510   80.8670  223.3060 C   0  0  0  0  0  0  0  0  0  0  0  0
  140.0220   80.1980  223.0040 C   0  0  0  0  0  0  0  0  0  0  0  0
  140.9500   77.0630  221.4540 C   0  0  0  0  0  0  0  0  0  0  0  0
  140.7360   75.6950  221.5940 C   0  0  0  0  0  0  0  0  0  0  0  0
  141.4839   72.7938  220.2185 H   0  0  0  0  0  0  0  0  0  0  0  0
  142.3496   72.8240  221.7889 H   0  0  0  0  0  0  0  0  0  0  0  0
  139.3160   71.2508  220.0879 H   0  0  0  0  0  0  0  0  0  0  0  0
  138.6557   68.8742  220.4396 H   0  0  0  0  0  0  0  0  0  0  0  0
  138.8282   67.8613  222.6896 H   0  0  0  0  0  0  0  0  0  0  0  0
  141.8330   70.9238  225.8622 H   0  0  0  0  0  0  0  0  0  0  0  0
  140.2670   71.6587  225.5638 H   0  0  0  0  0  0  0  0  0  0  0  0
  141.6831   71.3229  228.0883 H   0  0  0  0  0  0  0  0  0  0  0  0
  140.1318   72.1578  227.8171 H   0  0  0  0  0  0  0  0  0  0  0  0
  140.3346   69.8708  229.3200 H   0  0  0  0  0  0  0  0  0  0  0  0
  138.8751   70.2288  228.4422 H   0  0  0  0  0  0  0  0  0  0  0  0
  141.3026   68.5260  227.5464 H   0  0  0  0  0  0  0  0  0  0  0  0
  139.6344   68.0441  227.4532 H   0  0  0  0  0  0  0  0  0  0  0  0
  140.3185   71.5757  224.2624 H   0  0  0  0  0  0  0  0  0  0  0  0
  137.7683   75.7862  223.2271 H   0  0  0  0  0  0  0  0  0  0  0  0
  138.1404   78.2202  222.9797 H   0  0  0  0  0  0  0  0  0  0  0  0
  140.8076   79.2583  219.8083 H   0  0  0  0  0  0  0  0  0  0  0  0
  139.8446   80.6982  220.2222 H   0  0  0  0  0  0  0  0  0  0  0  0
  142.7265   80.0616  221.0163 H   0  0  0  0  0  0  0  0  0  0  0  0
  142.1187   81.4304  219.9993 H   0  0  0  0  0  0  0  0  0  0  0  0
  142.7489   82.1096  222.2806 H   0  0  0  0  0  0  0  0  0  0  0  0
  140.9920   82.3812  221.8708 H   0  0  0  0  0  0  0  0  0  0  0  0
  142.1061   80.1046  223.5479 H   0  0  0  0  0  0  0  0  0  0  0  0
  141.2506   81.5447  224.1666 H   0  0  0  0  0  0  0  0  0  0  0  0
  139.7133   79.5673  223.8507 H   0  0  0  0  0  0  0  0  0  0  0  0
  139.2304   80.9437  222.8390 H   0  0  0  0  0  0  0  0  0  0  0  0
  141.8577   77.4241  220.9484 H   0  0  0  0  0  0  0  0  0  0  0  0
  1  2  2  0
  2  3  1  0
  3  4  1  0
  4  5  1  0
  5  6  2  0
  6  7  1  0
  7  8  2  0
  8  9  1  0
  9 10  1  0
 10 11  2  0
 10 12  1  0
 12 13  1  0
 13 14  1  0
 14 15  1  0
 15 16  1  0
  9 17  2  0
  4 18  2  0
 18 19  1  0
 19 20  2  0
 20 21  1  0
 21 22  2  0
 22 23  1  0
 23 24  1  0
 24 25  1  0
 25 26  1  0
 26 27  1  0
 27 28  1  0
 22 29  1  0
 29 30  2  0
 30  2  1  0
 17  5  1  0
 30 19  1  0
 16 12  1  0
 28 23  1  0
  3 31  1  0
  3 32  1  0
  6 33  1  0
  7 34  1  0
  8 35  1  0
 13 36  1  0
 13 37  1  0
 14 38  1  0
 14 39  1  0
 15 40  1  0
 15 41  1  0
 16 42  1  0
 16 43  1  0
 17 44  1  0
 20 45  1  0
 21 46  1  0
 24 47  1  0
 24 48  1  0
 25 49  1  0
 25 50  1  0
 26 51  1  0
 26 52  1  0
 27 53  1  0
 27 54  1  0
 28 55  1  0
 28 56  1  0
 29 57  1  0
M  END
>  <smiles>  (45) 
O=C1CC(c2cccc(C(=O)N3CCCC3)c2)=Nc2ccc(N3CCCCC3)cc21

>  <score_type>  (45) 
oracle

>  <origin>  (45) 
autodockgpu

>  <m_score__min__energy>  (45) 
-9.2599999999999998

>  <m_primary>  (45) 
energy

>  <rmsd>  (45) 
6.103951638999907

>  <m_score__min__rmsd>  (45) 
6.103951638999907

>  <meeko>  (45) 
{"free_energy": -9.14, "intermolecular_energy": -10.04, "internal_energy": -0.88, "cluster_size": 50, "cluster_id": 1, "rank_in_cluster": 34}

>  <energy>  (45) 
-9.09

>  <cluster_rmsd>  (45) 
0.67

>  <cluster>  (45) 
1

$$$$

     RDKit          3D

 57 61  0  0  0  0  0  0  0  0999 V2000
  142.7630   75.1260  220.5480 O   0  0  0  0  0  0  0  0  0  0  0  0
  141.7140   74.7040  221.1260 C   0  0  0  0  0  0  0  0  0  0  0  0
  141.5550   73.2410  221.2430 C   0  0  0  0  0  0  0  0  0  0  0  0
  140.2810   72.9440  221.9400 C   0  0  0  0  0  0  0  0  0  0  0  0
  139.9150   71.5300  222.1720 C   0  0  0  0  0  0  0  0  0  0  0  0
  139.5300   70.7540  221.0760 C   0  0  0  0  0  0  0  0  0  0  0  0
  139.1740   69.4240  221.2650 C   0  0  0  0  0  0  0  0  0  0  0  0
  139.2000   68.8760  222.5270 C   0  0  0  0  0  0  0  0  0  0  0  0
  139.5820   69.6490  223.6240 C   0  0  0  0  0  0  0  0  0  0  0  0
  139.5830   68.9880  224.9160 C   0  0  0  0  0  0  0  0  0  0  0  0
  139.0130   67.8470  224.9610 O   0  0  0  0  0  0  0  0  0  0  0  0
  140.1780   69.5550  226.0870 N   0  0  0  0  0  0  0  0  0  0  0  0
  140.8560   70.8310  226.1940 C   0  0  0  0  0  0  0  0  0  0  0  0
  140.7630   71.1610  227.6520 C   0  0  0  0  0  0  0  0  0  0  0  0
  139.9370   70.0810  228.3120 C   0  0  0  0  0  0  0  0  0  0  0  0
  140.1880   68.9000  227.3830 C   0  0  0  0  0  0  0  0  0  0  0  0
  139.9360   70.9680  223.4310 C   0  0  0  0  0  0  0  0  0  0  0  0
  139.4600   73.8250  222.3660 N   0  0  0  0  0  0  0  0  0  0  0  0
  139.6150   75.2310  222.2540 C   0  0  0  0  0  0  0  0  0  0  0  0
  138.6880   76.1150  222.7430 C   0  0  0  0  0  0  0  0  0  0  0  0
  138.8850   77.4740  222.6130 C   0  0  0  0  0  0  0  0  0  0  0  0
  140.0270   77.9550  221.9860 C   0  0  0  0  0  0  0  0  0  0  0  0
  140.2210   79.3610  221.8640 N   0  0  0  0  0  0  0  0  0  0  0  0
  140.4930   80.0230  220.6050 C   0  0  0  0  0  0  0  0  0  0  0  0
  141.7940   80.7770  220.7620 C   0  0  0  0  0  0  0  0  0  0  0  0
  141.7920   81.6110  222.0030 C   0  0  0  0  0  0  0  0  0  0  0  0
  141.4970   80.8150  223.2530 C   0  0  0  0  0  0  0  0  0  0  0  0
  140.1420   80.1530  223.0790 C   0  0  0  0  0  0  0  0  0  0  0  0
  140.9640   77.0490  221.4910 C   0  0  0  0  0  0  0  0  0  0  0  0
  140.7600   75.6790  221.6240 C   0  0  0  0  0  0  0  0  0  0  0  0
  141.5389   72.7911  220.2393 H   0  0  0  0  0  0  0  0  0  0  0  0
  142.3959   72.8222  221.8152 H   0  0  0  0  0  0  0  0  0  0  0  0
  139.5087   71.1937  220.0679 H   0  0  0  0  0  0  0  0  0  0  0  0
  138.8711   68.8087  220.4049 H   0  0  0  0  0  0  0  0  0  0  0  0
  138.9180   67.8227  222.6718 H   0  0  0  0  0  0  0  0  0  0  0  0
  141.9060   70.7451  225.8774 H   0  0  0  0  0  0  0  0  0  0  0  0
  140.4108   71.6056  225.5523 H   0  0  0  0  0  0  0  0  0  0  0  0
  141.7692   71.1878  228.0957 H   0  0  0  0  0  0  0  0  0  0  0  0
  140.2971   72.1469  227.7965 H   0  0  0  0  0  0  0  0  0  0  0  0
  140.2898   69.8720  229.3327 H   0  0  0  0  0  0  0  0  0  0  0  0
  138.8747   70.3390  228.4341 H   0  0  0  0  0  0  0  0  0  0  0  0
  141.1590   68.4253  227.5875 H   0  0  0  0  0  0  0  0  0  0  0  0
  139.4575   68.0836  227.4824 H   0  0  0  0  0  0  0  0  0  0  0  0
  140.2393   71.5800  224.2933 H   0  0  0  0  0  0  0  0  0  0  0  0
  137.7826   75.7385  223.2415 H   0  0  0  0  0  0  0  0  0  0  0  0
  138.1366   78.1777  223.0065 H   0  0  0  0  0  0  0  0  0  0  0  0
  140.5849   79.2781  219.8008 H   0  0  0  0  0  0  0  0  0  0  0  0
  139.6751   80.7104  220.3432 H   0  0  0  0  0  0  0  0  0  0  0  0
  142.6222   80.0551  220.8167 H   0  0  0  0  0  0  0  0  0  0  0  0
  141.9157   81.4438  219.8957 H   0  0  0  0  0  0  0  0  0  0  0  0
  142.7816   82.0790  222.1116 H   0  0  0  0  0  0  0  0  0  0  0  0
  140.9921   82.3582  221.8942 H   0  0  0  0  0  0  0  0  0  0  0  0
  142.2715   80.0475  223.3982 H   0  0  0  0  0  0  0  0  0  0  0  0
  141.4897   81.4747  224.1332 H   0  0  0  0  0  0  0  0  0  0  0  0
  139.9223   79.5055  223.9407 H   0  0  0  0  0  0  0  0  0  0  0  0
  139.3395   80.9024  223.0130 H   0  0  0  0  0  0  0  0  0  0  0  0
  141.8712   77.4199  220.9917 H   0  0  0  0  0  0  0  0  0  0  0  0
  1  2  2  0
  2  3  1  0
  3  4  1  0
  4  5  1  0
  5  6  2  0
  6  7  1  0
  7  8  2  0
  8  9  1  0
  9 10  1  0
 10 11  2  0
 10 12  1  0
 12 13  1  0
 13 14  1  0
 14 15  1  0
 15 16  1  0
  9 17  2  0
  4 18  2  0
 18 19  1  0
 19 20  2  0
 20 21  1  0
 21 22  2  0
 22 23  1  0
 23 24  1  0
 24 25  1  0
 25 26  1  0
 26 27  1  0
 27 28  1  0
 22 29  1  0
 29 30  2  0
 30  2  1  0
 17  5  1  0
 30 19  1  0
 16 12  1  0
 28 23  1  0
  3 31  1  0
  3 32  1  0
  6 33  1  0
  7 34  1  0
  8 35  1  0
 13 36  1  0
 13 37  1  0
 14 38  1  0
 14 39  1  0
 15 40  1  0
 15 41  1  0
 16 42  1  0
 16 43  1  0
 17 44  1  0
 20 45  1  0
 21 46  1  0
 24 47  1  0
 24 48  1  0
 25 49  1  0
 25 50  1  0
 26 51  1  0
 26 52  1  0
 27 53  1  0
 27 54  1  0
 28 55  1  0
 28 56  1  0
 29 57  1  0
M  END
>  <smiles>  (46) 
O=C1CC(c2cccc(C(=O)N3CCCC3)c2)=Nc2ccc(N3CCCCC3)cc21

>  <score_type>  (46) 
oracle

>  <origin>  (46) 
autodockgpu

>  <m_score__min__energy>  (46) 
-9.2599999999999998

>  <m_primary>  (46) 
energy

>  <rmsd>  (46) 
6.096878748581211

>  <m_score__min__rmsd>  (46) 
6.096878748581211

>  <meeko>  (46) 
{"free_energy": -9.11, "intermolecular_energy": -10.01, "internal_energy": -0.9, "cluster_size": 50, "cluster_id": 1, "rank_in_cluster": 40}

>  <energy>  (46) 
-9.09

>  <cluster_rmsd>  (46) 
0.64

>  <cluster>  (46) 
1

$$$$

     RDKit          3D

 57 61  0  0  0  0  0  0  0  0999 V2000
  142.8680   74.8660  220.4410 O   0  0  0  0  0  0  0  0  0  0  0  0
  141.8110   74.5050  221.0480 C   0  0  0  0  0  0  0  0  0  0  0  0
  141.5810   73.0530  221.1880 C   0  0  0  0  0  0  0  0  0  0  0  0
  140.3090   72.8320  221.9170 C   0  0  0  0  0  0  0  0  0  0  0  0
  139.8770   71.4410  222.1770 C   0  0  0  0  0  0  0  0  0  0  0  0
  139.3860   70.6860  221.1090 C   0  0  0  0  0  0  0  0  0  0  0  0
  138.9660   69.3790  221.3240 C   0  0  0  0  0  0  0  0  0  0  0  0
  139.0330   68.8330  222.5860 C   0  0  0  0  0  0  0  0  0  0  0  0
  139.5220   69.5850  223.6550 C   0  0  0  0  0  0  0  0  0  0  0  0
  139.5600   68.9270  224.9480 C   0  0  0  0  0  0  0  0  0  0  0  0
  139.0300   67.7670  225.0010 O   0  0  0  0  0  0  0  0  0  0  0  0
  140.1470   69.5170  226.1110 N   0  0  0  0  0  0  0  0  0  0  0  0
  140.7820   70.8170  226.2090 C   0  0  0  0  0  0  0  0  0  0  0  0
  140.6930   71.1470  227.6670 C   0  0  0  0  0  0  0  0  0  0  0  0
  139.9130   70.0400  228.3380 C   0  0  0  0  0  0  0  0  0  0  0  0
  140.1950   68.8670  227.4090 C   0  0  0  0  0  0  0  0  0  0  0  0
  139.9380   70.8810  223.4350 C   0  0  0  0  0  0  0  0  0  0  0  0
  139.5430   73.7590  222.3470 N   0  0  0  0  0  0  0  0  0  0  0  0
  139.7670   75.1530  222.2110 C   0  0  0  0  0  0  0  0  0  0  0  0
  138.8970   76.0900  222.7070 C   0  0  0  0  0  0  0  0  0  0  0  0
  139.1590   77.4350  222.5530 C   0  0  0  0  0  0  0  0  0  0  0  0
  140.3110   77.8490  221.8950 C   0  0  0  0  0  0  0  0  0  0  0  0
  140.5730   79.2410  221.7490 N   0  0  0  0  0  0  0  0  0  0  0  0
  141.7400   79.7670  221.0710 C   0  0  0  0  0  0  0  0  0  0  0  0
  142.4670   80.6610  222.0490 C   0  0  0  0  0  0  0  0  0  0  0  0
  141.5340   81.6370  222.6910 C   0  0  0  0  0  0  0  0  0  0  0  0
  140.3550   80.9760  223.3660 C   0  0  0  0  0  0  0  0  0  0  0  0
  139.6100   80.1660  222.3220 C   0  0  0  0  0  0  0  0  0  0  0  0
  141.1890   76.8900  221.3940 C   0  0  0  0  0  0  0  0  0  0  0  0
  140.9190   75.5340  221.5510 C   0  0  0  0  0  0  0  0  0  0  0  0
  141.5193   72.5919  220.1912 H   0  0  0  0  0  0  0  0  0  0  0  0
  142.4123   72.5980  221.7464 H   0  0  0  0  0  0  0  0  0  0  0  0
  139.3321   71.1245  220.1016 H   0  0  0  0  0  0  0  0  0  0  0  0
  138.5799   68.7805  220.4857 H   0  0  0  0  0  0  0  0  0  0  0  0
  138.6992   67.7982  222.7526 H   0  0  0  0  0  0  0  0  0  0  0  0
  141.8309   70.7668  225.8816 H   0  0  0  0  0  0  0  0  0  0  0  0
  140.3033   71.5743  225.5707 H   0  0  0  0  0  0  0  0  0  0  0  0
  141.7023   71.2105  228.0997 H   0  0  0  0  0  0  0  0  0  0  0  0
  140.1940   72.1161  227.8145 H   0  0  0  0  0  0  0  0  0  0  0  0
  140.2842   69.8458  229.3551 H   0  0  0  0  0  0  0  0  0  0  0  0
  138.8436   70.2607  228.4713 H   0  0  0  0  0  0  0  0  0  0  0  0
  141.1845   68.4277  227.6034 H   0  0  0  0  0  0  0  0  0  0  0  0
  139.4948   68.0258  227.5187 H   0  0  0  0  0  0  0  0  0  0  0  0
  140.3241   71.4765  224.2754 H   0  0  0  0  0  0  0  0  0  0  0  0
  137.9852   75.7668  223.2306 H   0  0  0  0  0  0  0  0  0  0  0  0
  138.4555   78.1810  222.9513 H   0  0  0  0  0  0  0  0  0  0  0  0
  142.3960   78.9418  220.7569 H   0  0  0  0  0  0  0  0  0  0  0  0
  141.4461   80.3314  220.1737 H   0  0  0  0  0  0  0  0  0  0  0  0
  142.9268   80.0380  222.8303 H   0  0  0  0  0  0  0  0  0  0  0  0
  143.2344   81.2252  221.4988 H   0  0  0  0  0  0  0  0  0  0  0  0
  142.0925   82.2106  223.4453 H   0  0  0  0  0  0  0  0  0  0  0  0
  141.1356   82.2819  221.8939 H   0  0  0  0  0  0  0  0  0  0  0  0
  140.7084   80.3136  224.1700 H   0  0  0  0  0  0  0  0  0  0  0  0
  139.6914   81.7354  223.8053 H   0  0  0  0  0  0  0  0  0  0  0  0
  138.7836   79.6115  222.7906 H   0  0  0  0  0  0  0  0  0  0  0  0
  139.1775   80.8178  221.5486 H   0  0  0  0  0  0  0  0  0  0  0  0
  142.1028   77.2074  220.8702 H   0  0  0  0  0  0  0  0  0  0  0  0
  1  2  2  0
  2  3  1  0
  3  4  1  0
  4  5  1  0
  5  6  2  0
  6  7  1  0
  7  8  2  0
  8  9  1  0
  9 10  1  0
 10 11  2  0
 10 12  1  0
 12 13  1  0
 13 14  1  0
 14 15  1  0
 15 16  1  0
  9 17  2  0
  4 18  2  0
 18 19  1  0
 19 20  2  0
 20 21  1  0
 21 22  2  0
 22 23  1  0
 23 24  1  0
 24 25  1  0
 25 26  1  0
 26 27  1  0
 27 28  1  0
 22 29  1  0
 29 30  2  0
 30  2  1  0
 17  5  1  0
 30 19  1  0
 16 12  1  0
 28 23  1  0
  3 31  1  0
  3 32  1  0
  6 33  1  0
  7 34  1  0
  8 35  1  0
 13 36  1  0
 13 37  1  0
 14 38  1  0
 14 39  1  0
 15 40  1  0
 15 41  1  0
 16 42  1  0
 16 43  1  0
 17 44  1  0
 20 45  1  0
 21 46  1  0
 24 47  1  0
 24 48  1  0
 25 49  1  0
 25 50  1  0
 26 51  1  0
 26 52  1  0
 27 53  1  0
 27 54  1  0
 28 55  1  0
 28 56  1  0
 29 57  1  0
M  END
>  <smiles>  (47) 
O=C1CC(c2cccc(C(=O)N3CCCC3)c2)=Nc2ccc(N3CCCCC3)cc21

>  <score_type>  (47) 
oracle

>  <origin>  (47) 
autodockgpu

>  <m_score__min__energy>  (47) 
-9.2599999999999998

>  <m_primary>  (47) 
energy

>  <rmsd>  (47) 
6.174775307338063

>  <m_score__min__rmsd>  (47) 
6.174775307338063

>  <meeko>  (47) 
{"free_energy": -9.25, "intermolecular_energy": -10.15, "internal_energy": -0.87, "cluster_size": 50, "cluster_id": 1, "rank_in_cluster": 11}

>  <energy>  (47) 
-9.08

>  <cluster_rmsd>  (47) 
0.91

>  <cluster>  (47) 
1

$$$$

     RDKit          3D

 57 61  0  0  0  0  0  0  0  0999 V2000
  142.8470   74.8140  220.4690 O   0  0  0  0  0  0  0  0  0  0  0  0
  141.7790   74.4740  221.0670 C   0  0  0  0  0  0  0  0  0  0  0  0
  141.5250   73.0270  221.2160 C   0  0  0  0  0  0  0  0  0  0  0  0
  140.2420   72.8310  221.9320 C   0  0  0  0  0  0  0  0  0  0  0  0
  139.7850   71.4490  222.1970 C   0  0  0  0  0  0  0  0  0  0  0  0
  139.1850   70.7350  221.1570 C   0  0  0  0  0  0  0  0  0  0  0  0
  138.7400   69.4380  221.3790 C   0  0  0  0  0  0  0  0  0  0  0  0
  138.8900   68.8600  222.6200 C   0  0  0  0  0  0  0  0  0  0  0  0
  139.4880   69.5710  223.6610 C   0  0  0  0  0  0  0  0  0  0  0  0
  139.6070   68.8830  224.9330 C   0  0  0  0  0  0  0  0  0  0  0  0
  139.1630   67.6870  224.9660 O   0  0  0  0  0  0  0  0  0  0  0  0
  140.1830   69.4820  226.0980 N   0  0  0  0  0  0  0  0  0  0  0  0
  140.7250   70.8200  226.2180 C   0  0  0  0  0  0  0  0  0  0  0  0
  140.6530   71.1030  227.6870 C   0  0  0  0  0  0  0  0  0  0  0  0
  139.9720   69.9260  228.3440 C   0  0  0  0  0  0  0  0  0  0  0  0
  140.3110   68.8010  227.3740 C   0  0  0  0  0  0  0  0  0  0  0  0
  139.9290   70.8590  223.4350 C   0  0  0  0  0  0  0  0  0  0  0  0
  139.4860   73.7730  222.3470 N   0  0  0  0  0  0  0  0  0  0  0  0
  139.7330   75.1620  222.2040 C   0  0  0  0  0  0  0  0  0  0  0  0
  138.8720   76.1160  222.6830 C   0  0  0  0  0  0  0  0  0  0  0  0
  139.1570   77.4560  222.5230 C   0  0  0  0  0  0  0  0  0  0  0  0
  140.3210   77.8470  221.8740 C   0  0  0  0  0  0  0  0  0  0  0  0
  140.6070   79.2340  221.7210 N   0  0  0  0  0  0  0  0  0  0  0  0
  141.7980   79.7360  221.0680 C   0  0  0  0  0  0  0  0  0  0  0  0
  142.5120   80.6310  222.0560 C   0  0  0  0  0  0  0  0  0  0  0  0
  141.5760   81.6260  222.6630 C   0  0  0  0  0  0  0  0  0  0  0  0
  140.3710   80.9890  223.3130 C   0  0  0  0  0  0  0  0  0  0  0  0
  139.6420   80.1780  222.2580 C   0  0  0  0  0  0  0  0  0  0  0  0
  141.1900   76.8710  221.3890 C   0  0  0  0  0  0  0  0  0  0  0  0
  140.8980   75.5210  221.5530 C   0  0  0  0  0  0  0  0  0  0  0  0
  141.4675   72.5589  220.2223 H   0  0  0  0  0  0  0  0  0  0  0  0
  142.3429   72.5641  221.7877 H   0  0  0  0  0  0  0  0  0  0  0  0
  139.0654   71.1979  220.1664 H   0  0  0  0  0  0  0  0  0  0  0  0
  138.2673   68.8720  220.5628 H   0  0  0  0  0  0  0  0  0  0  0  0
  138.5365   67.8325  222.7914 H   0  0  0  0  0  0  0  0  0  0  0  0
  141.7654   70.8549  225.8625 H   0  0  0  0  0  0  0  0  0  0  0  0
  140.1756   71.5577  225.6148 H   0  0  0  0  0  0  0  0  0  0  0  0
  141.6668   71.2263  228.0957 H   0  0  0  0  0  0  0  0  0  0  0  0
  140.0914   72.0299  227.8756 H   0  0  0  0  0  0  0  0  0  0  0  0
  140.3833   69.7311  229.3454 H   0  0  0  0  0  0  0  0  0  0  0  0
  138.8937   70.0662  228.5101 H   0  0  0  0  0  0  0  0  0  0  0  0
  141.3337   68.4276  227.5310 H   0  0  0  0  0  0  0  0  0  0  0  0
  139.6750   67.9093  227.4761 H   0  0  0  0  0  0  0  0  0  0  0  0
  140.4016   71.4224  224.2531 H   0  0  0  0  0  0  0  0  0  0  0  0
  137.9490   75.8108  223.1977 H   0  0  0  0  0  0  0  0  0  0  0  0
  138.4618   78.2157  222.9097 H   0  0  0  0  0  0  0  0  0  0  0  0
  142.4502   78.8984  220.7798 H   0  0  0  0  0  0  0  0  0  0  0  0
  141.5357   80.2943  220.1572 H   0  0  0  0  0  0  0  0  0  0  0  0
  142.9427   80.0102  222.8555 H   0  0  0  0  0  0  0  0  0  0  0  0
  143.3013   81.1789  221.5205 H   0  0  0  0  0  0  0  0  0  0  0  0
  142.1224   82.1999  223.4259 H   0  0  0  0  0  0  0  0  0  0  0  0
  141.2076   82.2675  221.8489 H   0  0  0  0  0  0  0  0  0  0  0  0
  140.6938   80.3305  224.1329 H   0  0  0  0  0  0  0  0  0  0  0  0
  139.7069   81.7623  223.7266 H   0  0  0  0  0  0  0  0  0  0  0  0
  138.7958   79.6400  222.7102 H   0  0  0  0  0  0  0  0  0  0  0  0
  139.2388   80.8270  221.4667 H   0  0  0  0  0  0  0  0  0  0  0  0
  142.1138   77.1707  220.8726 H   0  0  0  0  0  0  0  0  0  0  0  0
  1  2  2  0
  2  3  1  0
  3  4  1  0
  4  5  1  0
  5  6  2  0
  6  7  1  0
  7  8  2  0
  8  9  1  0
  9 10  1  0
 10 11  2  0
 10 12  1  0
 12 13  1  0
 13 14  1  0
 14 15  1  0
 15 16  1  0
  9 17  2  0
  4 18  2  0
 18 19  1  0
 19 20  2  0
 20 21  1  0
 21 22  2  0
 22 23  1  0
 23 24  1  0
 24 25  1  0
 25 26  1  0
 26 27  1  0
 27 28  1  0
 22 29  1  0
 29 30  2  0
 30  2  1  0
 17  5  1  0
 30 19  1  0
 16 12  1  0
 28 23  1  0
  3 31  1  0
  3 32  1  0
  6 33  1  0
  7 34  1  0
  8 35  1  0
 13 36  1  0
 13 37  1  0
 14 38  1  0
 14 39  1  0
 15 40  1  0
 15 41  1  0
 16 42  1  0
 16 43  1  0
 17 44  1  0
 20 45  1  0
 21 46  1  0
 24 47  1  0
 24 48  1  0
 25 49  1  0
 25 50  1  0
 26 51  1  0
 26 52  1  0
 27 53  1  0
 27 54  1  0
 28 55  1  0
 28 56  1  0
 29 57  1  0
M  END
>  <smiles>  (48) 
O=C1CC(c2cccc(C(=O)N3CCCC3)c2)=Nc2ccc(N3CCCCC3)cc21

>  <score_type>  (48) 
oracle

>  <origin>  (48) 
autodockgpu

>  <m_score__min__energy>  (48) 
-9.2599999999999998

>  <m_primary>  (48) 
energy

>  <rmsd>  (48) 
6.1678013663020375

>  <m_score__min__rmsd>  (48) 
6.1678013663020375

>  <meeko>  (48) 
{"free_energy": -9.25, "intermolecular_energy": -10.15, "internal_energy": -0.86, "cluster_size": 50, "cluster_id": 1, "rank_in_cluster": 9}

>  <energy>  (48) 
-9.03

>  <cluster_rmsd>  (48) 
0.91

>  <cluster>  (48) 
1

$$$$

     RDKit          3D

 57 61  0  0  0  0  0  0  0  0999 V2000
  142.8740   74.6640  220.2440 O   0  0  0  0  0  0  0  0  0  0  0  0
  141.8210   74.4260  220.9120 C   0  0  0  0  0  0  0  0  0  0  0  0
  141.4480   73.0090  221.0950 C   0  0  0  0  0  0  0  0  0  0  0  0
  140.2010   72.9340  221.8940 C   0  0  0  0  0  0  0  0  0  0  0  0
  139.6400   71.6010  222.2050 C   0  0  0  0  0  0  0  0  0  0  0  0
  138.8250   70.9840  221.2530 C   0  0  0  0  0  0  0  0  0  0  0  0
  138.2790   69.7340  221.5200 C   0  0  0  0  0  0  0  0  0  0  0  0
  138.5390   69.1100  222.7190 C   0  0  0  0  0  0  0  0  0  0  0  0
  139.3520   69.7250  223.6720 C   0  0  0  0  0  0  0  0  0  0  0  0
  139.5740   68.9930  224.9050 C   0  0  0  0  0  0  0  0  0  0  0  0
  139.1810   67.7790  224.9140 O   0  0  0  0  0  0  0  0  0  0  0  0
  140.1950   69.5690  226.0580 N   0  0  0  0  0  0  0  0  0  0  0  0
  140.6910   70.9240  226.2020 C   0  0  0  0  0  0  0  0  0  0  0  0
  140.6960   71.1450  227.6830 C   0  0  0  0  0  0  0  0  0  0  0  0
  140.1030   69.9150  228.3300 C   0  0  0  0  0  0  0  0  0  0  0  0
  140.4270   68.8450  227.2960 C   0  0  0  0  0  0  0  0  0  0  0  0
  139.8930   70.9650  223.4020 C   0  0  0  0  0  0  0  0  0  0  0  0
  139.5610   73.9430  222.3450 N   0  0  0  0  0  0  0  0  0  0  0  0
  139.9220   75.3040  222.1690 C   0  0  0  0  0  0  0  0  0  0  0  0
  139.1840   76.3350  222.6900 C   0  0  0  0  0  0  0  0  0  0  0  0
  139.5770   77.6420  222.4960 C   0  0  0  0  0  0  0  0  0  0  0  0
  140.7270   77.9220  221.7690 C   0  0  0  0  0  0  0  0  0  0  0  0
  141.1260   79.2770  221.5810 N   0  0  0  0  0  0  0  0  0  0  0  0
  142.3190   79.8470  222.1730 C   0  0  0  0  0  0  0  0  0  0  0  0
  141.8900   81.0420  222.9940 C   0  0  0  0  0  0  0  0  0  0  0  0
  140.9980   81.9490  222.2090 C   0  0  0  0  0  0  0  0  0  0  0  0
  139.7880   81.2460  221.6400 C   0  0  0  0  0  0  0  0  0  0  0  0
  140.2750   80.1140  220.7540 C   0  0  0  0  0  0  0  0  0  0  0  0
  141.4720   76.8680  221.2420 C   0  0  0  0  0  0  0  0  0  0  0  0
  141.0700   75.5510  221.4410 C   0  0  0  0  0  0  0  0  0  0  0  0
  141.2847   72.5414  220.1128 H   0  0  0  0  0  0  0  0  0  0  0  0
  142.2562   72.4781  221.6194 H   0  0  0  0  0  0  0  0  0  0  0  0
  138.6162   71.4851  220.2963 H   0  0  0  0  0  0  0  0  0  0  0  0
  137.6386   69.2430  220.7725 H   0  0  0  0  0  0  0  0  0  0  0  0
  138.1037   68.1215  222.9271 H   0  0  0  0  0  0  0  0  0  0  0  0
  141.7061   71.0161  225.7883 H   0  0  0  0  0  0  0  0  0  0  0  0
  140.0782   71.6616  225.6631 H   0  0  0  0  0  0  0  0  0  0  0  0
  141.7268   71.2948  228.0365 H   0  0  0  0  0  0  0  0  0  0  0  0
  140.1098   72.0389  227.9424 H   0  0  0  0  0  0  0  0  0  0  0  0
  140.5816   69.6985  229.2964 H   0  0  0  0  0  0  0  0  0  0  0  0
  139.0321   70.0030  228.5653 H   0  0  0  0  0  0  0  0  0  0  0  0
  141.4714   68.5094  227.3770 H   0  0  0  0  0  0  0  0  0  0  0  0
  139.8339   67.9242  227.3983 H   0  0  0  0  0  0  0  0  0  0  0  0
  140.5343   71.4525  224.1511 H   0  0  0  0  0  0  0  0  0  0  0  0
  138.2726   76.1181  223.2664 H   0  0  0  0  0  0  0  0  0  0  0  0
  138.9794   78.4638  222.9173 H   0  0  0  0  0  0  0  0  0  0  0  0
  142.8101   79.1041  222.8187 H   0  0  0  0  0  0  0  0  0  0  0  0
  143.0337   80.1482  221.3929 H   0  0  0  0  0  0  0  0  0  0  0  0
  141.3484   80.6893  223.8841 H   0  0  0  0  0  0  0  0  0  0  0  0
  142.7895   81.6052  223.2833 H   0  0  0  0  0  0  0  0  0  0  0  0
  140.6538   82.7585  222.8694 H   0  0  0  0  0  0  0  0  0  0  0  0
  141.5844   82.3301  221.3599 H   0  0  0  0  0  0  0  0  0  0  0  0
  139.1728   80.8418  222.4574 H   0  0  0  0  0  0  0  0  0  0  0  0
  139.1764   81.9505  221.0573 H   0  0  0  0  0  0  0  0  0  0  0  0
  139.4207   79.5321  220.3776 H   0  0  0  0  0  0  0  0  0  0  0  0
  140.8243   80.5002  219.8828 H   0  0  0  0  0  0  0  0  0  0  0  0
  142.3842   77.0792  220.6647 H   0  0  0  0  0  0  0  0  0  0  0  0
  1  2  2  0
  2  3  1  0
  3  4  1  0
  4  5  1  0
  5  6  2  0
  6  7  1  0
  7  8  2  0
  8  9  1  0
  9 10  1  0
 10 11  2  0
 10 12  1  0
 12 13  1  0
 13 14  1  0
 14 15  1  0
 15 16  1  0
  9 17  2  0
  4 18  2  0
 18 19  1  0
 19 20  2  0
 20 21  1  0
 21 22  2  0
 22 23  1  0
 23 24  1  0
 24 25  1  0
 25 26  1  0
 26 27  1  0
 27 28  1  0
 22 29  1  0
 29 30  2  0
 30  2  1  0
 17  5  1  0
 30 19  1  0
 16 12  1  0
 28 23  1  0
  3 31  1  0
  3 32  1  0
  6 33  1  0
  7 34  1  0
  8 35  1  0
 13 36  1  0
 13 37  1  0
 14 38  1  0
 14 39  1  0
 15 40  1  0
 15 41  1  0
 16 42  1  0
 16 43  1  0
 17 44  1  0
 20 45  1  0
 21 46  1  0
 24 47  1  0
 24 48  1  0
 25 49  1  0
 25 50  1  0
 26 51  1  0
 26 52  1  0
 27 53  1  0
 27 54  1  0
 28 55  1  0
 28 56  1  0
 29 57  1  0
M  END
>  <smiles>  (49) 
O=C1CC(c2cccc(C(=O)N3CCCC3)c2)=Nc2ccc(N3CCCCC3)cc21

>  <score_type>  (49) 
oracle

>  <origin>  (49) 
autodockgpu

>  <m_score__min__energy>  (49) 
-9.2599999999999998

>  <m_primary>  (49) 
energy

>  <rmsd>  (49) 
5.970098362742654

>  <m_score__min__rmsd>  (49) 
5.970098362742654

>  <meeko>  (49) 
{"free_energy": -9.18, "intermolecular_energy": -10.08, "internal_energy": -0.87, "cluster_size": 50, "cluster_id": 1, "rank_in_cluster": 25}

>  <energy>  (49) 
-9.01

>  <cluster_rmsd>  (49) 
0.95

>  <cluster>  (49) 
1

$$$$

     RDKit          3D

 57 61  0  0  0  0  0  0  0  0999 V2000
  142.8180   74.6130  220.2130 O   0  0  0  0  0  0  0  0  0  0  0  0
  141.7590   74.4430  220.8950 C   0  0  0  0  0  0  0  0  0  0  0  0
  141.3180   73.0510  221.1120 C   0  0  0  0  0  0  0  0  0  0  0  0
  140.0750   73.0560  221.9210 C   0  0  0  0  0  0  0  0  0  0  0  0
  139.4510   71.7600  222.2660 C   0  0  0  0  0  0  0  0  0  0  0  0
  138.4680   71.2480  221.4170 C   0  0  0  0  0  0  0  0  0  0  0  0
  137.8590   70.0360  221.7190 C   0  0  0  0  0  0  0  0  0  0  0  0
  138.2250   69.3450  222.8530 C   0  0  0  0  0  0  0  0  0  0  0  0
  139.2060   69.8540  223.7030 C   0  0  0  0  0  0  0  0  0  0  0  0
  139.5310   69.0570  224.8720 C   0  0  0  0  0  0  0  0  0  0  0  0
  139.1990   67.8260  224.8180 O   0  0  0  0  0  0  0  0  0  0  0  0
  140.1820   69.5900  226.0280 N   0  0  0  0  0  0  0  0  0  0  0  0
  140.6160   70.9570  226.2380 C   0  0  0  0  0  0  0  0  0  0  0  0
  140.6890   71.0820  227.7290 C   0  0  0  0  0  0  0  0  0  0  0  0
  140.1930   69.7830  228.3200 C   0  0  0  0  0  0  0  0  0  0  0  0
  140.5150   68.8010  227.2010 C   0  0  0  0  0  0  0  0  0  0  0  0
  139.8080   71.0570  223.3980 C   0  0  0  0  0  0  0  0  0  0  0  0
  139.4910   74.1060  222.3540 N   0  0  0  0  0  0  0  0  0  0  0  0
  139.9170   75.4420  222.1440 C   0  0  0  0  0  0  0  0  0  0  0  0
  139.2350   76.5210  222.6480 C   0  0  0  0  0  0  0  0  0  0  0  0
  139.6910   77.8020  222.4200 C   0  0  0  0  0  0  0  0  0  0  0  0
  140.8480   78.0080  221.6790 C   0  0  0  0  0  0  0  0  0  0  0  0
  141.3120   79.3360  221.4580 N   0  0  0  0  0  0  0  0  0  0  0  0
  142.3860   79.9430  222.2180 C   0  0  0  0  0  0  0  0  0  0  0  0
  141.8410   81.2110  222.8370 C   0  0  0  0  0  0  0  0  0  0  0  0
  141.1400   82.0540  221.8220 C   0  0  0  0  0  0  0  0  0  0  0  0
  140.0410   81.3170  221.0920 C   0  0  0  0  0  0  0  0  0  0  0  0
  140.6580   80.1070  220.4150 C   0  0  0  0  0  0  0  0  0  0  0  0
  141.5350   76.9060  221.1720 C   0  0  0  0  0  0  0  0  0  0  0  0
  141.0700   75.6160  221.4030 C   0  0  0  0  0  0  0  0  0  0  0  0
  141.1239   72.5706  220.1416 H   0  0  0  0  0  0  0  0  0  0  0  0
  142.1030   72.4921  221.6424 H   0  0  0  0  0  0  0  0  0  0  0  0
  138.1767   71.8019  220.5124 H   0  0  0  0  0  0  0  0  0  0  0  0
  137.0846   69.6284  221.0525 H   0  0  0  0  0  0  0  0  0  0  0  0
  137.7406   68.3861  223.0893 H   0  0  0  0  0  0  0  0  0  0  0  0
  141.6016   71.1301  225.7813 H   0  0  0  0  0  0  0  0  0  0  0  0
  139.9389   71.6939  225.7814 H   0  0  0  0  0  0  0  0  0  0  0  0
  141.7285   71.2631  228.0400 H   0  0  0  0  0  0  0  0  0  0  0  0
  140.0740   71.9250  228.0770 H   0  0  0  0  0  0  0  0  0  0  0  0
  140.7322   69.5300  229.2448 H   0  0  0  0  0  0  0  0  0  0  0  0
  139.1330   69.7984  228.6134 H   0  0  0  0  0  0  0  0  0  0  0  0
  141.5777   68.5171  227.2074 H   0  0  0  0  0  0  0  0  0  0  0  0
  139.9749   67.8452  227.2701 H   0  0  0  0  0  0  0  0  0  0  0  0
  140.5828   71.4611  224.0661 H   0  0  0  0  0  0  0  0  0  0  0  0
  138.3196   76.3630  223.2371 H   0  0  0  0  0  0  0  0  0  0  0  0
  139.1380   78.6621  222.8254 H   0  0  0  0  0  0  0  0  0  0  0  0
  142.7242   79.2548  223.0066 H   0  0  0  0  0  0  0  0  0  0  0  0
  143.2445   80.1660  221.5675 H   0  0  0  0  0  0  0  0  0  0  0  0
  141.1305   80.9441  223.6332 H   0  0  0  0  0  0  0  0  0  0  0  0
  142.6842   81.7881  223.2444 H   0  0  0  0  0  0  0  0  0  0  0  0
  140.6987   82.9222  222.3334 H   0  0  0  0  0  0  0  0  0  0  0  0
  141.8876   82.3518  221.0721 H   0  0  0  0  0  0  0  0  0  0  0  0
  139.2704   80.9925  221.8067 H   0  0  0  0  0  0  0  0  0  0  0  0
  139.5703   81.9740  220.3458 H   0  0  0  0  0  0  0  0  0  0  0  0
  139.8763   79.5035  219.9305 H   0  0  0  0  0  0  0  0  0  0  0  0
  141.3746   80.4101  219.6374 H   0  0  0  0  0  0  0  0  0  0  0  0
  142.4524   77.0581  220.5844 H   0  0  0  0  0  0  0  0  0  0  0  0
  1  2  2  0
  2  3  1  0
  3  4  1  0
  4  5  1  0
  5  6  2  0
  6  7  1  0
  7  8  2  0
  8  9  1  0
  9 10  1  0
 10 11  2  0
 10 12  1  0
 12 13  1  0
 13 14  1  0
 14 15  1  0
 15 16  1  0
  9 17  2  0
  4 18  2  0
 18 19  1  0
 19 20  2  0
 20 21  1  0
 21 22  2  0
 22 23  1  0
 23 24  1  0
 24 25  1  0
 25 26  1  0
 26 27  1  0
 27 28  1  0
 22 29  1  0
 29 30  2  0
 30  2  1  0
 17  5  1  0
 30 19  1  0
 16 12  1  0
 28 23  1  0
  3 31  1  0
  3 32  1  0
  6 33  1  0
  7 34  1  0
  8 35  1  0
 13 36  1  0
 13 37  1  0
 14 38  1  0
 14 39  1  0
 15 40  1  0
 15 41  1  0
 16 42  1  0
 16 43  1  0
 17 44  1  0
 20 45  1  0
 21 46  1  0
 24 47  1  0
 24 48  1  0
 25 49  1  0
 25 50  1  0
 26 51  1  0
 26 52  1  0
 27 53  1  0
 27 54  1  0
 28 55  1  0
 28 56  1  0
 29 57  1  0
M  END
>  <smiles>  (50) 
O=C1CC(c2cccc(C(=O)N3CCCC3)c2)=Nc2ccc(N3CCCCC3)cc21

>  <score_type>  (50) 
oracle

>  <origin>  (50) 
autodockgpu

>  <m_score__min__energy>  (50) 
-9.2599999999999998

>  <m_primary>  (50) 
energy

>  <rmsd>  (50) 
5.887544800304076

>  <m_score__min__rmsd>  (50) 
5.887544800304076

>  <meeko>  (50) 
{"free_energy": -9.09, "intermolecular_energy": -9.99, "internal_energy": -0.91, "cluster_size": 50, "cluster_id": 1, "rank_in_cluster": 45}

>  <energy>  (50) 
-8.9

>  <cluster_rmsd>  (50) 
0.49

>  <cluster>  (50) 
1

$$$$
