
     RDKit          3D

 51 54  0  0  0  0  0  0  0  0999 V2000
  137.0200   76.0320  222.0870 O   0  0  0  0  0  0  0  0  0  0  0  0
  138.2620   76.1110  222.2630 C   0  0  0  0  0  0  0  0  0  0  0  0
  139.1380   75.0070  222.1600 N   0  0  0  0  0  0  0  0  0  0  0  0
  138.6410   73.6890  221.8380 C   0  0  0  0  0  0  0  0  0  0  0  0
  139.6490   72.7130  222.2670 C   0  0  0  0  0  0  0  0  0  0  0  0
  140.8630   73.0240  222.3580 O   0  0  0  0  0  0  0  0  0  0  0  0
  139.3190   71.3490  222.6110 N   0  0  0  0  0  0  0  0  0  0  0  0
  139.7510   70.3320  221.7180 C   0  0  0  0  0  0  0  0  0  0  0  0
  138.8370   69.1400  221.6460 C   0  0  0  0  0  0  0  0  0  0  0  0
  138.0270   68.9450  222.8960 C   0  0  0  0  0  0  0  0  0  0  0  0
  137.4430   70.1880  223.4620 C   0  0  0  0  0  0  0  0  0  0  0  0
  138.5710   71.1250  223.8440 C   0  0  1  0  0  0  0  0  0  0  0  0
  139.3880   70.5810  224.9340 C   0  0  0  0  0  0  0  0  0  0  0  0
  140.6230   71.1720  225.2150 C   0  0  0  0  0  0  0  0  0  0  0  0
  141.4290   70.7020  226.2450 C   0  0  0  0  0  0  0  0  0  0  0  0
  141.0480   69.6390  227.0280 C   0  0  0  0  0  0  0  0  0  0  0  0
  139.8370   69.0470  226.7650 C   0  0  0  0  0  0  0  0  0  0  0  0
  139.0380   69.5210  225.7370 C   0  0  0  0  0  0  0  0  0  0  0  0
  138.8400   77.4240  222.5950 C   0  0  0  0  0  0  0  0  0  0  0  0
  138.0630   78.5420  222.7790 C   0  0  0  0  0  0  0  0  0  0  0  0
  138.5860   79.7870  223.0910 C   0  0  0  0  0  0  0  0  0  0  0  0
  139.9570   79.8970  223.2230 C   0  0  0  0  0  0  0  0  0  0  0  0
  140.5840   81.0810  223.5300 C   0  0  0  0  0  0  0  0  0  0  0  0
  141.9440   81.2140  223.6660 C   0  0  0  0  0  0  0  0  0  0  0  0
  142.5810   82.3520  223.9650 F   0  0  0  0  0  0  0  0  0  0  0  0
  142.7190   80.0750  223.4790 C   0  0  0  0  0  0  0  0  0  0  0  0
  142.0860   78.8820  223.1690 C   0  0  0  0  0  0  0  0  0  0  0  0
  140.7160   78.7780  223.0380 C   0  0  0  0  0  0  0  0  0  0  0  0
  140.1830   77.5870  222.7360 N   0  0  0  0  0  0  0  0  0  0  0  0
  140.1760   75.1380  222.3200 H   0  0  0  0  0  0  0  0  0  0  0  0
  137.6941   73.5064  222.3673 H   0  0  0  0  0  0  0  0  0  0  0  0
  138.4564   73.6012  220.7572 H   0  0  0  0  0  0  0  0  0  0  0  0
  139.8279   70.7681  220.7111 H   0  0  0  0  0  0  0  0  0  0  0  0
  140.7150   69.9661  222.1012 H   0  0  0  0  0  0  0  0  0  0  0  0
  138.1479   69.2773  220.7996 H   0  0  0  0  0  0  0  0  0  0  0  0
  139.4686   68.2482  221.5208 H   0  0  0  0  0  0  0  0  0  0  0  0
  137.2026   68.2544  222.6649 H   0  0  0  0  0  0  0  0  0  0  0  0
  138.7205   68.5556  223.6559 H   0  0  0  0  0  0  0  0  0  0  0  0
  136.7997   70.6700  222.7111 H   0  0  0  0  0  0  0  0  0  0  0  0
  136.8387   69.9478  224.3492 H   0  0  0  0  0  0  0  0  0  0  0  0
  138.2000   72.0786  224.2477 H   0  0  0  0  0  0  0  0  0  0  0  0
  140.9634   72.0250  224.6096 H   0  0  0  0  0  0  0  0  0  0  0  0
  142.3945   71.1924  226.4380 H   0  0  0  0  0  0  0  0  0  0  0  0
  141.6931   69.2734  227.8405 H   0  0  0  0  0  0  0  0  0  0  0  0
  139.5003   68.1939  227.3723 H   0  0  0  0  0  0  0  0  0  0  0  0
  138.0740   69.0238  225.5538 H   0  0  0  0  0  0  0  0  0  0  0  0
  136.9724   78.4442  222.6736 H   0  0  0  0  0  0  0  0  0  0  0  0
  137.9306   80.6596  223.2291 H   0  0  0  0  0  0  0  0  0  0  0  0
  139.9595   81.9748  223.6753 H   0  0  0  0  0  0  0  0  0  0  0  0
  143.8138   80.1200  223.5753 H   0  0  0  0  0  0  0  0  0  0  0  0
  142.7002   77.9815  223.0214 H   0  0  0  0  0  0  0  0  0  0  0  0
  1  2  2  0
  2  3  1  0
  3  4  1  0
  4  5  1  0
  5  6  2  0
  5  7  1  0
  7  8  1  0
  8  9  1  0
  9 10  1  0
 10 11  1  0
 11 12  1  0
 12 13  1  0
 13 14  2  0
 14 15  1  0
 15 16  2  0
 16 17  1  0
 17 18  2  0
  2 19  1  0
 19 20  2  0
 20 21  1  0
 21 22  2  0
 22 23  1  0
 23 24  2  0
 24 25  1  0
 24 26  1  0
 26 27  2  0
 27 28  1  0
 28 29  2  0
 12  7  1  0
 18 13  1  0
 29 19  1  0
 28 22  1  0
  3 30  1  0
  4 31  1  0
  4 32  1  0
  8 33  1  0
  8 34  1  0
  9 35  1  0
  9 36  1  0
 10 37  1  0
 10 38  1  0
 11 39  1  0
 11 40  1  0
 12 41  1  1
 14 42  1  0
 15 43  1  0
 16 44  1  0
 17 45  1  0
 18 46  1  0
 20 47  1  0
 21 48  1  0
 23 49  1  0
 26 50  1  0
 27 51  1  0
M  END
>  <smiles>  (1) 
O=C(NCC(=O)N1CCCC[C@H]1c1ccccc1)c1ccc2cc(F)ccc2n1

>  <score_type>  (1) 
oracle

>  <origin>  (1) 
autodockgpu

>  <m_score__min__energy>  (1) 
-9.2400000000000002

>  <m_primary>  (1) 
energy

>  <rmsd>  (1) 
8.519032102130346

>  <m_score__min__rmsd>  (1) 
8.519032102130346

>  <meeko>  (1) 
{"free_energy": -7.98, "intermolecular_energy": -9.47, "internal_energy": -2.13, "cluster_size": 2, "cluster_id": 3, "rank_in_cluster": 1}

>  <energy>  (1) 
-9.24

>  <cluster_rmsd>  (1) 
0.0

>  <cluster>  (1) 
1

$$$$

     RDKit          3D

 51 54  0  0  0  0  0  0  0  0999 V2000
  139.3510   71.2190  221.1240 O   0  0  0  0  0  0  0  0  0  0  0  0
  139.4560   71.7350  222.2660 C   0  0  0  0  0  0  0  0  0  0  0  0
  139.4870   73.1290  222.4930 N   0  0  0  0  0  0  0  0  0  0  0  0
  139.3980   74.0660  221.3960 C   0  0  0  0  0  0  0  0  0  0  0  0
  140.1970   75.2450  221.7480 C   0  0  0  0  0  0  0  0  0  0  0  0
  141.4320   75.1580  221.9590 O   0  0  0  0  0  0  0  0  0  0  0  0
  139.6260   76.5660  221.8720 N   0  0  0  0  0  0  0  0  0  0  0  0
  138.4580   76.6960  222.6710 C   0  0  0  0  0  0  0  0  0  0  0  0
  137.5090   77.7690  222.2130 C   0  0  0  0  0  0  0  0  0  0  0  0
  138.1900   78.8650  221.4420 C   0  0  0  0  0  0  0  0  0  0  0  0
  139.1870   78.4000  220.4460 C   0  0  0  0  0  0  0  0  0  0  0  0
  140.2920   77.6590  221.1720 C   0  0  1  0  0  0  0  0  0  0  0  0
  141.0540   78.5460  222.0580 C   0  0  0  0  0  0  0  0  0  0  0  0
  141.7680   79.6100  221.4980 C   0  0  0  0  0  0  0  0  0  0  0  0
  142.4960   80.4850  222.2950 C   0  0  0  0  0  0  0  0  0  0  0  0
  142.5450   80.3430  223.6600 C   0  0  0  0  0  0  0  0  0  0  0  0
  141.8480   79.3030  224.2250 C   0  0  0  0  0  0  0  0  0  0  0  0
  141.1240   78.4330  223.4260 C   0  0  0  0  0  0  0  0  0  0  0  0
  139.5520   70.8420  223.4320 C   0  0  0  0  0  0  0  0  0  0  0  0
  139.1110   69.5410  223.3970 C   0  0  0  0  0  0  0  0  0  0  0  0
  139.1910   68.6830  224.4840 C   0  0  0  0  0  0  0  0  0  0  0  0
  139.7440   69.1700  225.6520 C   0  0  0  0  0  0  0  0  0  0  0  0
  139.8740   68.4100  226.7890 C   0  0  0  0  0  0  0  0  0  0  0  0
  140.4200   68.8730  227.9610 C   0  0  0  0  0  0  0  0  0  0  0  0
  140.5600   68.1560  229.0830 F   0  0  0  0  0  0  0  0  0  0  0  0
  140.8630   70.1900  227.9830 C   0  0  0  0  0  0  0  0  0  0  0  0
  140.7320   70.9570  226.8360 C   0  0  0  0  0  0  0  0  0  0  0  0
  140.1780   70.4640  225.6720 C   0  0  0  0  0  0  0  0  0  0  0  0
  140.0870   71.2710  224.6060 N   0  0  0  0  0  0  0  0  0  0  0  0
  139.5770   73.5030  223.4790 H   0  0  0  0  0  0  0  0  0  0  0  0
  139.7933   73.6064  220.4781 H   0  0  0  0  0  0  0  0  0  0  0  0
  138.3506   74.3507  221.2176 H   0  0  0  0  0  0  0  0  0  0  0  0
  137.9231   75.7349  222.6576 H   0  0  0  0  0  0  0  0  0  0  0  0
  138.7961   76.9842  223.6773 H   0  0  0  0  0  0  0  0  0  0  0  0
  136.7450   77.3096  221.5686 H   0  0  0  0  0  0  0  0  0  0  0  0
  137.0680   78.2241  223.1121 H   0  0  0  0  0  0  0  0  0  0  0  0
  137.4175   79.4397  220.9100 H   0  0  0  0  0  0  0  0  0  0  0  0
  138.7456   79.4626  222.1797 H   0  0  0  0  0  0  0  0  0  0  0  0
  138.7022   77.7264  219.7241 H   0  0  0  0  0  0  0  0  0  0  0  0
  139.6064   79.2617  219.9059 H   0  0  0  0  0  0  0  0  0  0  0  0
  141.0527   77.2659  220.4815 H   0  0  0  0  0  0  0  0  0  0  0  0
  141.7531   79.7568  220.4079 H   0  0  0  0  0  0  0  0  0  0  0  0
  143.0463   81.3112  221.8212 H   0  0  0  0  0  0  0  0  0  0  0  0
  143.1248   81.0409  224.2820 H   0  0  0  0  0  0  0  0  0  0  0  0
  141.8647   79.1604  225.3156 H   0  0  0  0  0  0  0  0  0  0  0  0
  140.5777   77.6105  223.9108 H   0  0  0  0  0  0  0  0  0  0  0  0
  138.6734   69.1616  222.4618 H   0  0  0  0  0  0  0  0  0  0  0  0
  138.8256   67.6476  224.4178 H   0  0  0  0  0  0  0  0  0  0  0  0
  139.5198   67.3690  226.7589 H   0  0  0  0  0  0  0  0  0  0  0  0
  141.3093   70.6158  228.8938 H   0  0  0  0  0  0  0  0  0  0  0  0
  141.0832   71.9993  226.8541 H   0  0  0  0  0  0  0  0  0  0  0  0
  1  2  2  0
  2  3  1  0
  3  4  1  0
  4  5  1  0
  5  6  2  0
  5  7  1  0
  7  8  1  0
  8  9  1  0
  9 10  1  0
 10 11  1  0
 11 12  1  0
 12 13  1  0
 13 14  2  0
 14 15  1  0
 15 16  2  0
 16 17  1  0
 17 18  2  0
  2 19  1  0
 19 20  2  0
 20 21  1  0
 21 22  2  0
 22 23  1  0
 23 24  2  0
 24 25  1  0
 24 26  1  0
 26 27  2  0
 27 28  1  0
 28 29  2  0
 12  7  1  0
 18 13  1  0
 29 19  1  0
 28 22  1  0
  3 30  1  0
  4 31  1  0
  4 32  1  0
  8 33  1  0
  8 34  1  0
  9 35  1  0
  9 36  1  0
 10 37  1  0
 10 38  1  0
 11 39  1  0
 11 40  1  0
 12 41  1  6
 14 42  1  0
 15 43  1  0
 16 44  1  0
 17 45  1  0
 18 46  1  0
 20 47  1  0
 21 48  1  0
 23 49  1  0
 26 50  1  0
 27 51  1  0
M  END
>  <smiles>  (2) 
O=C(NCC(=O)N1CCCC[C@H]1c1ccccc1)c1ccc2cc(F)ccc2n1

>  <score_type>  (2) 
oracle

>  <origin>  (2) 
autodockgpu

>  <m_score__min__energy>  (2) 
-9.2400000000000002

>  <m_primary>  (2) 
energy

>  <rmsd>  (2) 
2.4885984251745317

>  <m_score__min__rmsd>  (2) 
2.4885984251745317

>  <meeko>  (2) 
{"free_energy": -8.79, "intermolecular_energy": -10.28, "internal_energy": -1.6, "cluster_size": 44, "cluster_id": 1, "rank_in_cluster": 24}

>  <energy>  (2) 
-9.23

>  <cluster_rmsd>  (2) 
0.12

>  <cluster>  (2) 
1

$$$$

     RDKit          3D

 51 54  0  0  0  0  0  0  0  0999 V2000
  138.5910   71.2120  221.4270 O   0  0  0  0  0  0  0  0  0  0  0  0
  139.1180   71.6910  222.4630 C   0  0  0  0  0  0  0  0  0  0  0  0
  139.5020   73.0450  222.5890 N   0  0  0  0  0  0  0  0  0  0  0  0
  139.3060   73.9800  221.5050 C   0  0  0  0  0  0  0  0  0  0  0  0
  140.1420   75.1560  221.7710 C   0  0  0  0  0  0  0  0  0  0  0  0
  141.3770   75.0470  221.9780 O   0  0  0  0  0  0  0  0  0  0  0  0
  139.6110   76.4990  221.8120 N   0  0  0  0  0  0  0  0  0  0  0  0
  138.4300   76.7070  222.5730 C   0  0  0  0  0  0  0  0  0  0  0  0
  137.5270   77.7830  222.0360 C   0  0  0  0  0  0  0  0  0  0  0  0
  138.2600   78.8150  221.2260 C   0  0  0  0  0  0  0  0  0  0  0  0
  139.2650   78.2670  220.2800 C   0  0  0  0  0  0  0  0  0  0  0  0
  140.3280   77.5320  221.0720 C   0  0  1  0  0  0  0  0  0  0  0  0
  141.0970   78.4410  221.9290 C   0  0  0  0  0  0  0  0  0  0  0  0
  141.1250   78.2110  223.3070 C   0  0  0  0  0  0  0  0  0  0  0  0
  141.8480   79.0360  224.1610 C   0  0  0  0  0  0  0  0  0  0  0  0
  142.5630   80.1090  223.6880 C   0  0  0  0  0  0  0  0  0  0  0  0
  142.5460   80.3480  222.3360 C   0  0  0  0  0  0  0  0  0  0  0  0
  141.8240   79.5220  221.4900 C   0  0  0  0  0  0  0  0  0  0  0  0
  139.3480   70.7970  223.6100 C   0  0  0  0  0  0  0  0  0  0  0  0
  138.9770   69.4740  223.5940 C   0  0  0  0  0  0  0  0  0  0  0  0
  139.1840   68.6150  224.6620 C   0  0  0  0  0  0  0  0  0  0  0  0
  139.7950   69.1240  225.7920 C   0  0  0  0  0  0  0  0  0  0  0  0
  140.0500   68.3650  226.9080 C   0  0  0  0  0  0  0  0  0  0  0  0
  140.6550   68.8490  228.0420 C   0  0  0  0  0  0  0  0  0  0  0  0
  140.9170   68.1340  229.1420 F   0  0  0  0  0  0  0  0  0  0  0  0
  141.0270   70.1890  228.0440 C   0  0  0  0  0  0  0  0  0  0  0  0
  140.7700   70.9540  226.9180 C   0  0  0  0  0  0  0  0  0  0  0  0
  140.1580   70.4400  225.7930 C   0  0  0  0  0  0  0  0  0  0  0  0
  139.9450   71.2480  224.7450 N   0  0  0  0  0  0  0  0  0  0  0  0
  139.9410   73.3900  223.4890 H   0  0  0  0  0  0  0  0  0  0  0  0
  139.6037   73.5168  220.5527 H   0  0  0  0  0  0  0  0  0  0  0  0
  138.2471   74.2693  221.4336 H   0  0  0  0  0  0  0  0  0  0  0  0
  137.8650   75.7635  222.5963 H   0  0  0  0  0  0  0  0  0  0  0  0
  138.7535   77.0375  223.5710 H   0  0  0  0  0  0  0  0  0  0  0  0
  136.7638   77.3138  221.3978 H   0  0  0  0  0  0  0  0  0  0  0  0
  137.0804   78.2986  222.8990 H   0  0  0  0  0  0  0  0  0  0  0  0
  137.5187   79.3841  220.6457 H   0  0  0  0  0  0  0  0  0  0  0  0
  138.8172   79.4337  221.9449 H   0  0  0  0  0  0  0  0  0  0  0  0
  138.7759   77.5712  219.5824 H   0  0  0  0  0  0  0  0  0  0  0  0
  139.7242   79.0851  219.7057 H   0  0  0  0  0  0  0  0  0  0  0  0
  141.0915   77.0791  220.4224 H   0  0  0  0  0  0  0  0  0  0  0  0
  140.5645   77.3613  223.7239 H   0  0  0  0  0  0  0  0  0  0  0  0
  141.8474   78.8245  225.2405 H   0  0  0  0  0  0  0  0  0  0  0  0
  143.1317   80.7569  224.3712 H   0  0  0  0  0  0  0  0  0  0  0  0
  143.1079   81.1987  221.9230 H   0  0  0  0  0  0  0  0  0  0  0  0
  141.8329   79.7423  220.4123 H   0  0  0  0  0  0  0  0  0  0  0  0
  138.4922   69.0774  222.6898 H   0  0  0  0  0  0  0  0  0  0  0  0
  138.8718   67.5615  224.6116 H   0  0  0  0  0  0  0  0  0  0  0  0
  139.7519   67.3063  226.8926 H   0  0  0  0  0  0  0  0  0  0  0  0
  141.5162   70.6333  228.9234 H   0  0  0  0  0  0  0  0  0  0  0  0
  141.0656   72.0135  226.9208 H   0  0  0  0  0  0  0  0  0  0  0  0
  1  2  2  0
  2  3  1  0
  3  4  1  0
  4  5  1  0
  5  6  2  0
  5  7  1  0
  7  8  1  0
  8  9  1  0
  9 10  1  0
 10 11  1  0
 11 12  1  0
 12 13  1  0
 13 14  2  0
 14 15  1  0
 15 16  2  0
 16 17  1  0
 17 18  2  0
  2 19  1  0
 19 20  2  0
 20 21  1  0
 21 22  2  0
 22 23  1  0
 23 24  2  0
 24 25  1  0
 24 26  1  0
 26 27  2  0
 27 28  1  0
 28 29  2  0
 12  7  1  0
 18 13  1  0
 29 19  1  0
 28 22  1  0
  3 30  1  0
  4 31  1  0
  4 32  1  0
  8 33  1  0
  8 34  1  0
  9 35  1  0
  9 36  1  0
 10 37  1  0
 10 38  1  0
 11 39  1  0
 11 40  1  0
 12 41  1  6
 14 42  1  0
 15 43  1  0
 16 44  1  0
 17 45  1  0
 18 46  1  0
 20 47  1  0
 21 48  1  0
 23 49  1  0
 26 50  1  0
 27 51  1  0
M  END
>  <smiles>  (3) 
O=C(NCC(=O)N1CCCC[C@H]1c1ccccc1)c1ccc2cc(F)ccc2n1

>  <score_type>  (3) 
oracle

>  <origin>  (3) 
autodockgpu

>  <m_score__min__energy>  (3) 
-9.2400000000000002

>  <m_primary>  (3) 
energy

>  <rmsd>  (3) 
2.4208517129616034

>  <m_score__min__rmsd>  (3) 
2.4208517129616034

>  <meeko>  (3) 
{"free_energy": -8.71, "intermolecular_energy": -10.2, "internal_energy": -1.74, "cluster_size": 44, "cluster_id": 1, "rank_in_cluster": 36}

>  <energy>  (3) 
-9.22

>  <cluster_rmsd>  (3) 
0.21

>  <cluster>  (3) 
1

$$$$

     RDKit          3D

 51 54  0  0  0  0  0  0  0  0999 V2000
  141.2970   72.4300  221.7430 O   0  0  0  0  0  0  0  0  0  0  0  0
  140.2910   72.5060  222.4950 C   0  0  0  0  0  0  0  0  0  0  0  0
  139.2650   73.4640  222.3320 N   0  0  0  0  0  0  0  0  0  0  0  0
  139.3150   74.4360  221.2630 C   0  0  0  0  0  0  0  0  0  0  0  0
  140.1460   75.5570  221.7160 C   0  0  0  0  0  0  0  0  0  0  0  0
  141.3650   75.4030  221.9800 O   0  0  0  0  0  0  0  0  0  0  0  0
  139.6270   76.8950  221.8870 N   0  0  0  0  0  0  0  0  0  0  0  0
  138.4820   77.0460  222.7150 C   0  0  0  0  0  0  0  0  0  0  0  0
  137.5650   78.1650  222.3050 C   0  0  0  0  0  0  0  0  0  0  0  0
  138.2690   79.2550  221.5480 C   0  0  0  0  0  0  0  0  0  0  0  0
  139.2280   78.7800  220.5180 C   0  0  0  0  0  0  0  0  0  0  0  0
  140.3190   77.9800  221.2010 C   0  0  1  0  0  0  0  0  0  0  0  0
  141.1320   78.8150  222.0920 C   0  0  0  0  0  0  0  0  0  0  0  0
  141.6880   79.9960  221.5920 C   0  0  0  0  0  0  0  0  0  0  0  0
  142.4560   80.8280  222.3980 C   0  0  0  0  0  0  0  0  0  0  0  0
  142.7010   80.5250  223.7160 C   0  0  0  0  0  0  0  0  0  0  0  0
  142.1610   79.3680  224.2220 C   0  0  0  0  0  0  0  0  0  0  0  0
  141.3970   78.5430  223.4130 C   0  0  0  0  0  0  0  0  0  0  0  0
  140.1730   71.5480  223.6060 C   0  0  0  0  0  0  0  0  0  0  0  0
  139.5790   70.3180  223.4530 C   0  0  0  0  0  0  0  0  0  0  0  0
  139.4570   69.4010  224.4860 C   0  0  0  0  0  0  0  0  0  0  0  0
  139.9600   69.7510  225.7240 C   0  0  0  0  0  0  0  0  0  0  0  0
  139.8940   68.9220  226.8170 C   0  0  0  0  0  0  0  0  0  0  0  0
  140.3870   69.2480  228.0560 C   0  0  0  0  0  0  0  0  0  0  0  0
  140.3380   68.4610  229.1380 F   0  0  0  0  0  0  0  0  0  0  0  0
  140.9860   70.4950  228.1970 C   0  0  0  0  0  0  0  0  0  0  0  0
  141.0530   71.3310  227.0940 C   0  0  0  0  0  0  0  0  0  0  0  0
  140.5470   70.9760  225.8600 C   0  0  0  0  0  0  0  0  0  0  0  0
  140.6510   71.8430  224.8440 N   0  0  0  0  0  0  0  0  0  0  0  0
  138.4430   73.4770  222.9980 H   0  0  0  0  0  0  0  0  0  0  0  0
  139.7571   73.9815  220.3641 H   0  0  0  0  0  0  0  0  0  0  0  0
  138.3022   74.7846  221.0124 H   0  0  0  0  0  0  0  0  0  0  0  0
  137.9115   76.1059  222.6887 H   0  0  0  0  0  0  0  0  0  0  0  0
  138.8513   77.2940  223.7210 H   0  0  0  0  0  0  0  0  0  0  0  0
  136.7712   77.7510  221.6658 H   0  0  0  0  0  0  0  0  0  0  0  0
  137.1608   78.6123  223.2251 H   0  0  0  0  0  0  0  0  0  0  0  0
  137.5072   79.8710  221.0478 H   0  0  0  0  0  0  0  0  0  0  0  0
  138.8614   79.8127  222.2883 H   0  0  0  0  0  0  0  0  0  0  0  0
  138.7037   78.1440  219.7895 H   0  0  0  0  0  0  0  0  0  0  0  0
  139.6679   79.6396  219.9912 H   0  0  0  0  0  0  0  0  0  0  0  0
  141.0501   77.5768  220.4849 H   0  0  0  0  0  0  0  0  0  0  0  0
  141.5145   80.2719  220.5414 H   0  0  0  0  0  0  0  0  0  0  0  0
  142.8774   81.7501  221.9713 H   0  0  0  0  0  0  0  0  0  0  0  0
  143.3109   81.1888  224.3463 H   0  0  0  0  0  0  0  0  0  0  0  0
  142.3358   79.0955  225.2733 H   0  0  0  0  0  0  0  0  0  0  0  0
  140.9811   77.6232  223.8501 H   0  0  0  0  0  0  0  0  0  0  0  0
  139.1813   70.0481  222.4636 H   0  0  0  0  0  0  0  0  0  0  0  0
  138.9748   68.4256  224.3247 H   0  0  0  0  0  0  0  0  0  0  0  0
  139.4178   67.9383  226.6922 H   0  0  0  0  0  0  0  0  0  0  0  0
  141.3989   70.8119  229.1661 H   0  0  0  0  0  0  0  0  0  0  0  0
  141.5283   72.3166  227.2063 H   0  0  0  0  0  0  0  0  0  0  0  0
  1  2  2  0
  2  3  1  0
  3  4  1  0
  4  5  1  0
  5  6  2  0
  5  7  1  0
  7  8  1  0
  8  9  1  0
  9 10  1  0
 10 11  1  0
 11 12  1  0
 12 13  1  0
 13 14  2  0
 14 15  1  0
 15 16  2  0
 16 17  1  0
 17 18  2  0
  2 19  1  0
 19 20  2  0
 20 21  1  0
 21 22  2  0
 22 23  1  0
 23 24  2  0
 24 25  1  0
 24 26  1  0
 26 27  2  0
 27 28  1  0
 28 29  2  0
 12  7  1  0
 18 13  1  0
 29 19  1  0
 28 22  1  0
  3 30  1  0
  4 31  1  0
  4 32  1  0
  8 33  1  0
  8 34  1  0
  9 35  1  0
  9 36  1  0
 10 37  1  0
 10 38  1  0
 11 39  1  0
 11 40  1  0
 12 41  1  6
 14 42  1  0
 15 43  1  0
 16 44  1  0
 17 45  1  0
 18 46  1  0
 20 47  1  0
 21 48  1  0
 23 49  1  0
 26 50  1  0
 27 51  1  0
M  END
>  <smiles>  (4) 
O=C(NCC(=O)N1CCCC[C@H]1c1ccccc1)c1ccc2cc(F)ccc2n1

>  <score_type>  (4) 
oracle

>  <origin>  (4) 
autodockgpu

>  <m_score__min__energy>  (4) 
-9.2400000000000002

>  <m_primary>  (4) 
energy

>  <rmsd>  (4) 
2.6969816283609083

>  <m_score__min__rmsd>  (4) 
2.6969816283609083

>  <meeko>  (4) 
{"free_energy": -9.24, "intermolecular_energy": -10.73, "internal_energy": -1.36, "cluster_size": 44, "cluster_id": 1, "rank_in_cluster": 1}

>  <energy>  (4) 
-9.14

>  <cluster_rmsd>  (4) 
0.15

>  <cluster>  (4) 
1

$$$$

     RDKit          3D

 51 54  0  0  0  0  0  0  0  0999 V2000
  141.3330   72.4390  221.6760 O   0  0  0  0  0  0  0  0  0  0  0  0
  140.3270   72.5640  222.4210 C   0  0  0  0  0  0  0  0  0  0  0  0
  139.3410   73.5600  222.2400 N   0  0  0  0  0  0  0  0  0  0  0  0
  139.4360   74.5160  221.1610 C   0  0  0  0  0  0  0  0  0  0  0  0
  139.4780   75.8580  221.7530 C   0  0  0  0  0  0  0  0  0  0  0  0
  139.0070   76.0830  222.8960 O   0  0  0  0  0  0  0  0  0  0  0  0
  140.0550   76.9940  221.0720 N   0  0  0  0  0  0  0  0  0  0  0  0
  139.2710   77.6110  220.0600 C   0  0  0  0  0  0  0  0  0  0  0  0
  140.0710   78.2040  218.9330 C   0  0  0  0  0  0  0  0  0  0  0  0
  141.4650   78.5870  219.3400 C   0  0  0  0  0  0  0  0  0  0  0  0
  142.1650   77.5880  220.1860 C   0  0  0  0  0  0  0  0  0  0  0  0
  141.3900   77.4180  221.4780 C   0  0  1  0  0  0  0  0  0  0  0  0
  141.3980   78.6430  222.2850 C   0  0  0  0  0  0  0  0  0  0  0  0
  142.5760   79.3920  222.3670 C   0  0  0  0  0  0  0  0  0  0  0  0
  142.6310   80.5660  223.1090 C   0  0  0  0  0  0  0  0  0  0  0  0
  141.5360   81.0380  223.7910 C   0  0  0  0  0  0  0  0  0  0  0  0
  140.3720   80.3140  223.7190 C   0  0  0  0  0  0  0  0  0  0  0  0
  140.3220   79.1440  222.9780 C   0  0  0  0  0  0  0  0  0  0  0  0
  140.1650   71.6250  223.5430 C   0  0  0  0  0  0  0  0  0  0  0  0
  139.4900   70.4350  223.4110 C   0  0  0  0  0  0  0  0  0  0  0  0
  139.3250   69.5370  224.4550 C   0  0  0  0  0  0  0  0  0  0  0  0
  139.8700   69.8650  225.6810 C   0  0  0  0  0  0  0  0  0  0  0  0
  139.7680   69.0510  226.7840 C   0  0  0  0  0  0  0  0  0  0  0  0
  140.3010   69.3550  228.0120 C   0  0  0  0  0  0  0  0  0  0  0  0
  140.2180   68.5830  229.1020 F   0  0  0  0  0  0  0  0  0  0  0  0
  140.9820   70.5620  228.1320 C   0  0  0  0  0  0  0  0  0  0  0  0
  141.0850   71.3820  227.0190 C   0  0  0  0  0  0  0  0  0  0  0  0
  140.5370   71.0500  225.7970 C   0  0  0  0  0  0  0  0  0  0  0  0
  140.6810   71.8990  224.7710 N   0  0  0  0  0  0  0  0  0  0  0  0
  138.5170   73.6150  222.9020 H   0  0  0  0  0  0  0  0  0  0  0  0
  140.3522   74.3345  220.5799 H   0  0  0  0  0  0  0  0  0  0  0  0
  138.5726   74.4207  220.4861 H   0  0  0  0  0  0  0  0  0  0  0  0
  138.5928   76.8537  219.6399 H   0  0  0  0  0  0  0  0  0  0  0  0
  138.7366   78.4443  220.5396 H   0  0  0  0  0  0  0  0  0  0  0  0
  140.1337   77.4647  218.1209 H   0  0  0  0  0  0  0  0  0  0  0  0
  139.5577   79.1229  218.6135 H   0  0  0  0  0  0  0  0  0  0  0  0
  142.0588   78.7373  218.4263 H   0  0  0  0  0  0  0  0  0  0  0  0
  141.3694   79.4966  219.9512 H   0  0  0  0  0  0  0  0  0  0  0  0
  142.2171   76.6255  219.6561 H   0  0  0  0  0  0  0  0  0  0  0  0
  143.1870   77.9313  220.4040 H   0  0  0  0  0  0  0  0  0  0  0  0
  141.8457   76.6679  222.1412 H   0  0  0  0  0  0  0  0  0  0  0  0
  143.4746   79.0461  221.8351 H   0  0  0  0  0  0  0  0  0  0  0  0
  143.5740   81.1307  223.1511 H   0  0  0  0  0  0  0  0  0  0  0  0
  141.5902   81.9675  224.3768 H   0  0  0  0  0  0  0  0  0  0  0  0
  139.4754   80.6639  224.2516 H   0  0  0  0  0  0  0  0  0  0  0  0
  139.3734   78.5883  222.9427 H   0  0  0  0  0  0  0  0  0  0  0  0
  139.0601   70.1828  222.4304 H   0  0  0  0  0  0  0  0  0  0  0  0
  138.7776   68.5938  224.3112 H   0  0  0  0  0  0  0  0  0  0  0  0
  139.2271   68.0993  226.6762 H   0  0  0  0  0  0  0  0  0  0  0  0
  141.4301   70.8600  229.0914 H   0  0  0  0  0  0  0  0  0  0  0  0
  141.6252   72.3355  227.1138 H   0  0  0  0  0  0  0  0  0  0  0  0
  1  2  2  0
  2  3  1  0
  3  4  1  0
  4  5  1  0
  5  6  2  0
  5  7  1  0
  7  8  1  0
  8  9  1  0
  9 10  1  0
 10 11  1  0
 11 12  1  0
 12 13  1  0
 13 14  2  0
 14 15  1  0
 15 16  2  0
 16 17  1  0
 17 18  2  0
  2 19  1  0
 19 20  2  0
 20 21  1  0
 21 22  2  0
 22 23  1  0
 23 24  2  0
 24 25  1  0
 24 26  1  0
 26 27  2  0
 27 28  1  0
 28 29  2  0
 12  7  1  0
 18 13  1  0
 29 19  1  0
 28 22  1  0
  3 30  1  0
  4 31  1  0
  4 32  1  0
  8 33  1  0
  8 34  1  0
  9 35  1  0
  9 36  1  0
 10 37  1  0
 10 38  1  0
 11 39  1  0
 11 40  1  0
 12 41  1  1
 14 42  1  0
 15 43  1  0
 16 44  1  0
 17 45  1  0
 18 46  1  0
 20 47  1  0
 21 48  1  0
 23 49  1  0
 26 50  1  0
 27 51  1  0
M  END
>  <smiles>  (5) 
O=C(NCC(=O)N1CCCC[C@H]1c1ccccc1)c1ccc2cc(F)ccc2n1

>  <score_type>  (5) 
oracle

>  <origin>  (5) 
autodockgpu

>  <m_score__min__energy>  (5) 
-9.2400000000000002

>  <m_primary>  (5) 
energy

>  <rmsd>  (5) 
1.9497554901746244

>  <m_score__min__rmsd>  (5) 
1.9497554901746244

>  <meeko>  (5) 
{"free_energy": -9.01, "intermolecular_energy": -10.5, "internal_energy": -1.6, "cluster_size": 44, "cluster_id": 1, "rank_in_cluster": 8}

>  <energy>  (5) 
-9.06

>  <cluster_rmsd>  (5) 
0.58

>  <cluster>  (5) 
1

$$$$

     RDKit          3D

 51 54  0  0  0  0  0  0  0  0999 V2000
  140.5330   71.7500  221.0870 O   0  0  0  0  0  0  0  0  0  0  0  0
  140.1240   72.2490  222.1660 C   0  0  0  0  0  0  0  0  0  0  0  0
  139.7510   73.6040  222.3070 N   0  0  0  0  0  0  0  0  0  0  0  0
  139.8200   74.5170  221.1900 C   0  0  0  0  0  0  0  0  0  0  0  0
  139.6020   75.8730  221.7050 C   0  0  0  0  0  0  0  0  0  0  0  0
  138.9620   76.0740  222.7680 O   0  0  0  0  0  0  0  0  0  0  0  0
  140.1020   77.0530  221.0370 N   0  0  0  0  0  0  0  0  0  0  0  0
  139.2460   77.6740  220.0880 C   0  0  0  0  0  0  0  0  0  0  0  0
  139.9640   78.3340  218.9440 C   0  0  0  0  0  0  0  0  0  0  0  0
  141.3630   78.7550  219.2930 C   0  0  0  0  0  0  0  0  0  0  0  0
  142.1410   77.7550  220.0670 C   0  0  0  0  0  0  0  0  0  0  0  0
  141.4410   77.5120  221.3890 C   0  0  1  0  0  0  0  0  0  0  0  0
  141.4470   78.7090  222.2380 C   0  0  0  0  0  0  0  0  0  0  0  0
  142.6540   79.3820  222.4500 C   0  0  0  0  0  0  0  0  0  0  0  0
  142.7110   80.5270  223.2360 C   0  0  0  0  0  0  0  0  0  0  0  0
  141.5880   81.0440  223.8360 C   0  0  0  0  0  0  0  0  0  0  0  0
  140.3950   80.3940  223.6370 C   0  0  0  0  0  0  0  0  0  0  0  0
  140.3440   79.2530  222.8520 C   0  0  0  0  0  0  0  0  0  0  0  0
  140.0280   71.3770  223.3480 C   0  0  0  0  0  0  0  0  0  0  0  0
  139.5480   70.0920  223.2750 C   0  0  0  0  0  0  0  0  0  0  0  0
  139.4480   69.2550  224.3760 C   0  0  0  0  0  0  0  0  0  0  0  0
  139.8550   69.7470  225.6010 C   0  0  0  0  0  0  0  0  0  0  0  0
  139.8010   69.0070  226.7570 C   0  0  0  0  0  0  0  0  0  0  0  0
  140.1990   69.4760  227.9850 C   0  0  0  0  0  0  0  0  0  0  0  0
  140.1590   68.7780  229.1260 F   0  0  0  0  0  0  0  0  0  0  0  0
  140.6840   70.7770  228.0460 C   0  0  0  0  0  0  0  0  0  0  0  0
  140.7380   71.5230  226.8790 C   0  0  0  0  0  0  0  0  0  0  0  0
  140.3290   71.0260  225.6580 C   0  0  0  0  0  0  0  0  0  0  0  0
  140.4140   71.8130  224.5770 N   0  0  0  0  0  0  0  0  0  0  0  0
  139.4140   73.9660  223.2440 H   0  0  0  0  0  0  0  0  0  0  0  0
  140.8097   74.4520  220.7142 H   0  0  0  0  0  0  0  0  0  0  0  0
  139.0569   74.2639  220.4392 H   0  0  0  0  0  0  0  0  0  0  0  0
  138.5745   76.9064  219.6760 H   0  0  0  0  0  0  0  0  0  0  0  0
  138.7085   78.4706  220.6233 H   0  0  0  0  0  0  0  0  0  0  0  0
  140.0106   77.6254  218.1039 H   0  0  0  0  0  0  0  0  0  0  0  0
  139.4022   79.2433  218.6839 H   0  0  0  0  0  0  0  0  0  0  0  0
  141.9028   78.9575  218.3562 H   0  0  0  0  0  0  0  0  0  0  0  0
  141.2672   79.6397  219.9397 H   0  0  0  0  0  0  0  0  0  0  0  0
  142.2003   76.8136  219.5011 H   0  0  0  0  0  0  0  0  0  0  0  0
  143.1597   78.1295  220.2457 H   0  0  0  0  0  0  0  0  0  0  0  0
  141.9571   76.7569  222.0001 H   0  0  0  0  0  0  0  0  0  0  0  0
  143.5750   78.9985  221.9865 H   0  0  0  0  0  0  0  0  0  0  0  0
  143.6778   81.0312  223.3811 H   0  0  0  0  0  0  0  0  0  0  0  0
  141.6431   81.9506  224.4565 H   0  0  0  0  0  0  0  0  0  0  0  0
  139.4762   80.7804  224.1024 H   0  0  0  0  0  0  0  0  0  0  0  0
  139.3717   78.7576  222.7133 H   0  0  0  0  0  0  0  0  0  0  0  0
  139.2273   69.7082  222.2953 H   0  0  0  0  0  0  0  0  0  0  0  0
  139.0570   68.2316  224.2771 H   0  0  0  0  0  0  0  0  0  0  0  0
  139.4164   67.9783  226.6956 H   0  0  0  0  0  0  0  0  0  0  0  0
  141.0185   71.2064  229.0019 H   0  0  0  0  0  0  0  0  0  0  0  0
  141.1223   72.5525  226.9279 H   0  0  0  0  0  0  0  0  0  0  0  0
  1  2  2  0
  2  3  1  0
  3  4  1  0
  4  5  1  0
  5  6  2  0
  5  7  1  0
  7  8  1  0
  8  9  1  0
  9 10  1  0
 10 11  1  0
 11 12  1  0
 12 13  1  0
 13 14  2  0
 14 15  1  0
 15 16  2  0
 16 17  1  0
 17 18  2  0
  2 19  1  0
 19 20  2  0
 20 21  1  0
 21 22  2  0
 22 23  1  0
 23 24  2  0
 24 25  1  0
 24 26  1  0
 26 27  2  0
 27 28  1  0
 28 29  2  0
 12  7  1  0
 18 13  1  0
 29 19  1  0
 28 22  1  0
  3 30  1  0
  4 31  1  0
  4 32  1  0
  8 33  1  0
  8 34  1  0
  9 35  1  0
  9 36  1  0
 10 37  1  0
 10 38  1  0
 11 39  1  0
 11 40  1  0
 12 41  1  1
 14 42  1  0
 15 43  1  0
 16 44  1  0
 17 45  1  0
 18 46  1  0
 20 47  1  0
 21 48  1  0
 23 49  1  0
 26 50  1  0
 27 51  1  0
M  END
>  <smiles>  (6) 
O=C(NCC(=O)N1CCCC[C@H]1c1ccccc1)c1ccc2cc(F)ccc2n1

>  <score_type>  (6) 
oracle

>  <origin>  (6) 
autodockgpu

>  <m_score__min__energy>  (6) 
-9.2400000000000002

>  <m_primary>  (6) 
energy

>  <rmsd>  (6) 
1.9239102253082119

>  <m_score__min__rmsd>  (6) 
1.9239102253082119

>  <meeko>  (6) 
{"free_energy": -8.79, "intermolecular_energy": -10.28, "internal_energy": -2.02, "cluster_size": 44, "cluster_id": 1, "rank_in_cluster": 26}

>  <energy>  (6) 
-9.03

>  <cluster_rmsd>  (6) 
0.26

>  <cluster>  (6) 
1

$$$$

     RDKit          3D

 51 54  0  0  0  0  0  0  0  0999 V2000
  141.1920   72.4870  221.7140 O   0  0  0  0  0  0  0  0  0  0  0  0
  140.1760   72.5410  222.4540 C   0  0  0  0  0  0  0  0  0  0  0  0
  139.1300   73.4730  222.2760 N   0  0  0  0  0  0  0  0  0  0  0  0
  139.1680   74.4430  221.2050 C   0  0  0  0  0  0  0  0  0  0  0  0
  140.0990   75.5060  221.5970 C   0  0  0  0  0  0  0  0  0  0  0  0
  141.1170   75.2610  222.2920 O   0  0  0  0  0  0  0  0  0  0  0  0
  139.9130   76.8880  221.2160 N   0  0  0  0  0  0  0  0  0  0  0  0
  138.5880   77.4010  221.2650 C   0  0  0  0  0  0  0  0  0  0  0  0
  138.2940   78.4540  220.2330 C   0  0  0  0  0  0  0  0  0  0  0  0
  139.5210   79.1920  219.7800 C   0  0  0  0  0  0  0  0  0  0  0  0
  140.7060   78.3350  219.5240 C   0  0  0  0  0  0  0  0  0  0  0  0
  141.0940   77.6440  220.8150 C   0  0  1  0  0  0  0  0  0  0  0  0
  141.5520   78.5990  221.8300 C   0  0  0  0  0  0  0  0  0  0  0  0
  141.3930   78.2790  223.1820 C   0  0  0  0  0  0  0  0  0  0  0  0
  141.8210   79.1440  224.1820 C   0  0  0  0  0  0  0  0  0  0  0  0
  142.4150   80.3470  223.8860 C   0  0  0  0  0  0  0  0  0  0  0  0
  142.5780   80.6760  222.5630 C   0  0  0  0  0  0  0  0  0  0  0  0
  142.1500   79.8090  221.5700 C   0  0  0  0  0  0  0  0  0  0  0  0
  140.0680   71.5840  223.5670 C   0  0  0  0  0  0  0  0  0  0  0  0
  139.4240   70.3770  223.4360 C   0  0  0  0  0  0  0  0  0  0  0  0
  139.3110   69.4610  224.4710 C   0  0  0  0  0  0  0  0  0  0  0  0
  139.8760   69.7890  225.6890 C   0  0  0  0  0  0  0  0  0  0  0  0
  139.8240   68.9590  226.7820 C   0  0  0  0  0  0  0  0  0  0  0  0
  140.3780   69.2630  228.0010 C   0  0  0  0  0  0  0  0  0  0  0  0
  140.3440   68.4750  229.0820 F   0  0  0  0  0  0  0  0  0  0  0  0
  141.0270   70.4870  228.1200 C   0  0  0  0  0  0  0  0  0  0  0  0
  141.0790   71.3240  227.0170 C   0  0  0  0  0  0  0  0  0  0  0  0
  140.5120   70.9910  225.8030 C   0  0  0  0  0  0  0  0  0  0  0  0
  140.6060   71.8570  224.7850 N   0  0  0  0  0  0  0  0  0  0  0  0
  138.2990   73.4690  222.9330 H   0  0  0  0  0  0  0  0  0  0  0  0
  139.5159   73.9637  220.2780 H   0  0  0  0  0  0  0  0  0  0  0  0
  138.1649   74.8572  221.0255 H   0  0  0  0  0  0  0  0  0  0  0  0
  137.8891   76.5652  221.1133 H   0  0  0  0  0  0  0  0  0  0  0  0
  138.4723   77.8818  222.2476 H   0  0  0  0  0  0  0  0  0  0  0  0
  137.8341   77.9693  219.3592 H   0  0  0  0  0  0  0  0  0  0  0  0
  137.6207   79.1898  220.6970 H   0  0  0  0  0  0  0  0  0  0  0  0
  139.2759   79.7235  218.8487 H   0  0  0  0  0  0  0  0  0  0  0  0
  139.7988   79.8649  220.6046 H   0  0  0  0  0  0  0  0  0  0  0  0
  140.4603   77.5821  218.7606 H   0  0  0  0  0  0  0  0  0  0  0  0
  141.5427   78.9508  219.1625 H   0  0  0  0  0  0  0  0  0  0  0  0
  141.9547   76.9716  220.6841 H   0  0  0  0  0  0  0  0  0  0  0  0
  140.9205   77.3251  223.4591 H   0  0  0  0  0  0  0  0  0  0  0  0
  141.6809   78.8588  225.2351 H   0  0  0  0  0  0  0  0  0  0  0  0
  142.7497   81.0257  224.6844 H   0  0  0  0  0  0  0  0  0  0  0  0
  143.0501   81.6313  222.2901 H   0  0  0  0  0  0  0  0  0  0  0  0
  142.2963   80.1042  220.5205 H   0  0  0  0  0  0  0  0  0  0  0  0
  138.9765   70.1254  222.4631 H   0  0  0  0  0  0  0  0  0  0  0  0
  138.7884   68.5038  224.3272 H   0  0  0  0  0  0  0  0  0  0  0  0
  139.3080   67.9935  226.6745 H   0  0  0  0  0  0  0  0  0  0  0  0
  141.4904   70.7852  229.0720 H   0  0  0  0  0  0  0  0  0  0  0  0
  141.5924   72.2922  227.1124 H   0  0  0  0  0  0  0  0  0  0  0  0
  1  2  2  0
  2  3  1  0
  3  4  1  0
  4  5  1  0
  5  6  2  0
  5  7  1  0
  7  8  1  0
  8  9  1  0
  9 10  1  0
 10 11  1  0
 11 12  1  0
 12 13  1  0
 13 14  2  0
 14 15  1  0
 15 16  2  0
 16 17  1  0
 17 18  2  0
  2 19  1  0
 19 20  2  0
 20 21  1  0
 21 22  2  0
 22 23  1  0
 23 24  2  0
 24 25  1  0
 24 26  1  0
 26 27  2  0
 27 28  1  0
 28 29  2  0
 12  7  1  0
 18 13  1  0
 29 19  1  0
 28 22  1  0
  3 30  1  0
  4 31  1  0
  4 32  1  0
  8 33  1  0
  8 34  1  0
  9 35  1  0
  9 36  1  0
 10 37  1  0
 10 38  1  0
 11 39  1  0
 11 40  1  0
 12 41  1  6
 14 42  1  0
 15 43  1  0
 16 44  1  0
 17 45  1  0
 18 46  1  0
 20 47  1  0
 21 48  1  0
 23 49  1  0
 26 50  1  0
 27 51  1  0
M  END
>  <smiles>  (7) 
O=C(NCC(=O)N1CCCC[C@H]1c1ccccc1)c1ccc2cc(F)ccc2n1

>  <score_type>  (7) 
oracle

>  <origin>  (7) 
autodockgpu

>  <m_score__min__energy>  (7) 
-9.2400000000000002

>  <m_primary>  (7) 
energy

>  <rmsd>  (7) 
2.0571998870190344

>  <m_score__min__rmsd>  (7) 
2.0571998870190344

>  <meeko>  (7) 
{"free_energy": -9.06, "intermolecular_energy": -10.55, "internal_energy": -1.31, "cluster_size": 44, "cluster_id": 1, "rank_in_cluster": 5}

>  <energy>  (7) 
-9.01

>  <cluster_rmsd>  (7) 
1.11

>  <cluster>  (7) 
1

$$$$

     RDKit          3D

 51 54  0  0  0  0  0  0  0  0999 V2000
  138.1940   71.2470  221.6230 O   0  0  0  0  0  0  0  0  0  0  0  0
  138.8770   71.6980  222.5780 C   0  0  0  0  0  0  0  0  0  0  0  0
  139.3530   73.0270  222.6370 N   0  0  0  0  0  0  0  0  0  0  0  0
  139.0730   73.9680  221.5770 C   0  0  0  0  0  0  0  0  0  0  0  0
  139.9980   75.0970  221.7250 C   0  0  0  0  0  0  0  0  0  0  0  0
  141.2110   74.9170  221.9980 O   0  0  0  0  0  0  0  0  0  0  0  0
  139.5830   76.4720  221.5670 N   0  0  0  0  0  0  0  0  0  0  0  0
  138.2900   76.8190  222.0440 C   0  0  0  0  0  0  0  0  0  0  0  0
  137.6120   77.9080  221.2610 C   0  0  0  0  0  0  0  0  0  0  0  0
  138.5810   78.8210  220.5640 C   0  0  0  0  0  0  0  0  0  0  0  0
  139.7120   78.1340  219.8910 C   0  0  0  0  0  0  0  0  0  0  0  0
  140.5220   77.3930  220.9350 C   0  0  1  0  0  0  0  0  0  0  0  0
  141.1680   78.3120  221.8790 C   0  0  0  0  0  0  0  0  0  0  0  0
  141.8090   79.4510  221.3820 C   0  0  0  0  0  0  0  0  0  0  0  0
  142.4260   80.3580  222.2350 C   0  0  0  0  0  0  0  0  0  0  0  0
  142.4330   80.1760  223.5960 C   0  0  0  0  0  0  0  0  0  0  0  0
  141.8080   79.0610  224.1000 C   0  0  0  0  0  0  0  0  0  0  0  0
  141.1940   78.1600  223.2450 C   0  0  0  0  0  0  0  0  0  0  0  0
  139.2020   70.7960  223.6940 C   0  0  0  0  0  0  0  0  0  0  0  0
  138.9030   69.4550  223.6640 C   0  0  0  0  0  0  0  0  0  0  0  0
  139.1990   68.5880  224.7050 C   0  0  0  0  0  0  0  0  0  0  0  0
  139.8250   69.1080  225.8210 C   0  0  0  0  0  0  0  0  0  0  0  0
  140.1660   68.3430  226.9100 C   0  0  0  0  0  0  0  0  0  0  0  0
  140.7880   68.8380  228.0300 C   0  0  0  0  0  0  0  0  0  0  0  0
  141.1310   68.1170  229.1030 F   0  0  0  0  0  0  0  0  0  0  0  0
  141.0850   70.1950  228.0470 C   0  0  0  0  0  0  0  0  0  0  0  0
  140.7420   70.9680  226.9490 C   0  0  0  0  0  0  0  0  0  0  0  0
  140.1160   70.4420  225.8370 C   0  0  0  0  0  0  0  0  0  0  0  0
  139.8170   71.2560  224.8160 N   0  0  0  0  0  0  0  0  0  0  0  0
  139.9250   73.3480  223.4690 H   0  0  0  0  0  0  0  0  0  0  0  0
  139.2234   73.4865  220.5995 H   0  0  0  0  0  0  0  0  0  0  0  0
  138.0306   74.3145  221.6357 H   0  0  0  0  0  0  0  0  0  0  0  0
  137.6561   75.9209  222.0045 H   0  0  0  0  0  0  0  0  0  0  0  0
  138.4246   77.2037  223.0657 H   0  0  0  0  0  0  0  0  0  0  0  0
  136.9623   77.4434  220.5047 H   0  0  0  0  0  0  0  0  0  0  0  0
  137.0398   78.5189  221.9748 H   0  0  0  0  0  0  0  0  0  0  0  0
  138.0269   79.3919  219.8043 H   0  0  0  0  0  0  0  0  0  0  0  0
  139.0254   79.4546  221.3457 H   0  0  0  0  0  0  0  0  0  0  0  0
  139.3231   77.4206  219.1495 H   0  0  0  0  0  0  0  0  0  0  0  0
  140.3470   78.8720  219.3789 H   0  0  0  0  0  0  0  0  0  0  0  0
  141.3641   76.8403  220.4930 H   0  0  0  0  0  0  0  0  0  0  0  0
  141.8251   79.6321  220.2971 H   0  0  0  0  0  0  0  0  0  0  0  0
  142.9209   81.2435  221.8095 H   0  0  0  0  0  0  0  0  0  0  0  0
  142.9239   80.9006  224.2623 H   0  0  0  0  0  0  0  0  0  0  0  0
  141.7950   78.8831  225.1855 H   0  0  0  0  0  0  0  0  0  0  0  0
  140.7023   77.2781  223.6815 H   0  0  0  0  0  0  0  0  0  0  0  0
  138.4047   69.0497  222.7710 H   0  0  0  0  0  0  0  0  0  0  0  0
  138.9433   67.5199  224.6439 H   0  0  0  0  0  0  0  0  0  0  0  0
  139.9265   67.2697  226.8833 H   0  0  0  0  0  0  0  0  0  0  0  0
  141.5836   70.6480  228.9166 H   0  0  0  0  0  0  0  0  0  0  0  0
  140.9778   72.0423  226.9643 H   0  0  0  0  0  0  0  0  0  0  0  0
  1  2  2  0
  2  3  1  0
  3  4  1  0
  4  5  1  0
  5  6  2  0
  5  7  1  0
  7  8  1  0
  8  9  1  0
  9 10  1  0
 10 11  1  0
 11 12  1  0
 12 13  1  0
 13 14  2  0
 14 15  1  0
 15 16  2  0
 16 17  1  0
 17 18  2  0
  2 19  1  0
 19 20  2  0
 20 21  1  0
 21 22  2  0
 22 23  1  0
 23 24  2  0
 24 25  1  0
 24 26  1  0
 26 27  2  0
 27 28  1  0
 28 29  2  0
 12  7  1  0
 18 13  1  0
 29 19  1  0
 28 22  1  0
  3 30  1  0
  4 31  1  0
  4 32  1  0
  8 33  1  0
  8 34  1  0
  9 35  1  0
  9 36  1  0
 10 37  1  0
 10 38  1  0
 11 39  1  0
 11 40  1  0
 12 41  1  6
 14 42  1  0
 15 43  1  0
 16 44  1  0
 17 45  1  0
 18 46  1  0
 20 47  1  0
 21 48  1  0
 23 49  1  0
 26 50  1  0
 27 51  1  0
M  END
>  <smiles>  (8) 
O=C(NCC(=O)N1CCCC[C@H]1c1ccccc1)c1ccc2cc(F)ccc2n1

>  <score_type>  (8) 
oracle

>  <origin>  (8) 
autodockgpu

>  <m_score__min__energy>  (8) 
-9.2400000000000002

>  <m_primary>  (8) 
energy

>  <rmsd>  (8) 
2.1691419966503176

>  <m_score__min__rmsd>  (8) 
2.1691419966503176

>  <meeko>  (8) 
{"free_energy": -8.57, "intermolecular_energy": -10.06, "internal_energy": -1.85, "cluster_size": 44, "cluster_id": 1, "rank_in_cluster": 39}

>  <energy>  (8) 
-9.01

>  <cluster_rmsd>  (8) 
1.08

>  <cluster>  (8) 
1

$$$$

     RDKit          3D

 51 54  0  0  0  0  0  0  0  0999 V2000
  138.0100   71.3090  221.7140 O   0  0  0  0  0  0  0  0  0  0  0  0
  138.7680   71.7060  222.6360 C   0  0  0  0  0  0  0  0  0  0  0  0
  139.3340   73.0000  222.6780 N   0  0  0  0  0  0  0  0  0  0  0  0
  139.0660   73.9660  221.6370 C   0  0  0  0  0  0  0  0  0  0  0  0
  140.2390   74.8390  221.5240 C   0  0  0  0  0  0  0  0  0  0  0  0
  141.3630   74.4840  221.9590 O   0  0  0  0  0  0  0  0  0  0  0  0
  140.1830   76.1480  220.9140 N   0  0  0  0  0  0  0  0  0  0  0  0
  138.9820   76.4990  220.2400 C   0  0  0  0  0  0  0  0  0  0  0  0
  139.1760   77.4110  219.0610 C   0  0  0  0  0  0  0  0  0  0  0  0
  140.4190   78.2490  219.1650 C   0  0  0  0  0  0  0  0  0  0  0  0
  141.6230   77.5220  219.6390 C   0  0  0  0  0  0  0  0  0  0  0  0
  141.3580   77.0020  221.0380 C   0  0  1  0  0  0  0  0  0  0  0  0
  141.1920   78.0940  222.0040 C   0  0  0  0  0  0  0  0  0  0  0  0
  142.2170   79.0340  222.1460 C   0  0  0  0  0  0  0  0  0  0  0  0
  142.1030   80.0930  223.0390 C   0  0  0  0  0  0  0  0  0  0  0  0
  140.9840   80.2600  223.8170 C   0  0  0  0  0  0  0  0  0  0  0  0
  139.9680   79.3450  223.6890 C   0  0  0  0  0  0  0  0  0  0  0  0
  140.0870   78.2910  222.7970 C   0  0  0  0  0  0  0  0  0  0  0  0
  139.0860   70.7750  223.7310 C   0  0  0  0  0  0  0  0  0  0  0  0
  138.7390   69.4460  223.6880 C   0  0  0  0  0  0  0  0  0  0  0  0
  139.0280   68.5530  224.7080 C   0  0  0  0  0  0  0  0  0  0  0  0
  139.6990   69.0330  225.8160 C   0  0  0  0  0  0  0  0  0  0  0  0
  140.0370   68.2380  226.8850 C   0  0  0  0  0  0  0  0  0  0  0  0
  140.7040   68.6930  227.9960 C   0  0  0  0  0  0  0  0  0  0  0  0
  141.0470   67.9430  229.0500 F   0  0  0  0  0  0  0  0  0  0  0  0
  141.0510   70.0390  228.0270 C   0  0  0  0  0  0  0  0  0  0  0  0
  140.7100   70.8400  226.9480 C   0  0  0  0  0  0  0  0  0  0  0  0
  140.0380   70.3550  225.8450 C   0  0  0  0  0  0  0  0  0  0  0  0
  139.7450   71.1960  224.8440 N   0  0  0  0  0  0  0  0  0  0  0  0
  139.9660   73.2750  223.4820 H   0  0  0  0  0  0  0  0  0  0  0  0
  138.8910   73.4486  220.6822 H   0  0  0  0  0  0  0  0  0  0  0  0
  138.1699   74.5555  221.8808 H   0  0  0  0  0  0  0  0  0  0  0  0
  138.5039   75.5742  219.8847 H   0  0  0  0  0  0  0  0  0  0  0  0
  138.3644   77.0496  220.9648 H   0  0  0  0  0  0  0  0  0  0  0  0
  139.2421   76.7974  218.1504 H   0  0  0  0  0  0  0  0  0  0  0  0
  138.3175   78.0981  219.0319 H   0  0  0  0  0  0  0  0  0  0  0  0
  140.6382   78.6608  218.1688 H   0  0  0  0  0  0  0  0  0  0  0  0
  140.2084   79.0225  219.9182 H   0  0  0  0  0  0  0  0  0  0  0  0
  141.8356   76.6791  218.9650 H   0  0  0  0  0  0  0  0  0  0  0  0
  142.4897   78.1993  219.6491 H   0  0  0  0  0  0  0  0  0  0  0  0
  142.2080   76.4293  221.4373 H   0  0  0  0  0  0  0  0  0  0  0  0
  143.1298   78.9338  221.5404 H   0  0  0  0  0  0  0  0  0  0  0  0
  142.9289   80.8145  223.1245 H   0  0  0  0  0  0  0  0  0  0  0  0
  140.9038   81.1011  224.5214 H   0  0  0  0  0  0  0  0  0  0  0  0
  139.0568   79.4490  224.2964 H   0  0  0  0  0  0  0  0  0  0  0  0
  139.2548   77.5758  222.7198 H   0  0  0  0  0  0  0  0  0  0  0  0
  138.2060   69.0727  222.8011 H   0  0  0  0  0  0  0  0  0  0  0  0
  138.7324   67.4958  224.6374 H   0  0  0  0  0  0  0  0  0  0  0  0
  139.7569   67.1749  226.8486 H   0  0  0  0  0  0  0  0  0  0  0  0
  141.5858   70.4603  228.8910 H   0  0  0  0  0  0  0  0  0  0  0  0
  140.9862   71.9045  226.9723 H   0  0  0  0  0  0  0  0  0  0  0  0
  1  2  2  0
  2  3  1  0
  3  4  1  0
  4  5  1  0
  5  6  2  0
  5  7  1  0
  7  8  1  0
  8  9  1  0
  9 10  1  0
 10 11  1  0
 11 12  1  0
 12 13  1  0
 13 14  2  0
 14 15  1  0
 15 16  2  0
 16 17  1  0
 17 18  2  0
  2 19  1  0
 19 20  2  0
 20 21  1  0
 21 22  2  0
 22 23  1  0
 23 24  2  0
 24 25  1  0
 24 26  1  0
 26 27  2  0
 27 28  1  0
 28 29  2  0
 12  7  1  0
 18 13  1  0
 29 19  1  0
 28 22  1  0
  3 30  1  0
  4 31  1  0
  4 32  1  0
  8 33  1  0
  8 34  1  0
  9 35  1  0
  9 36  1  0
 10 37  1  0
 10 38  1  0
 11 39  1  0
 11 40  1  0
 12 41  1  1
 14 42  1  0
 15 43  1  0
 16 44  1  0
 17 45  1  0
 18 46  1  0
 20 47  1  0
 21 48  1  0
 23 49  1  0
 26 50  1  0
 27 51  1  0
M  END
>  <smiles>  (9) 
O=C(NCC(=O)N1CCCC[C@H]1c1ccccc1)c1ccc2cc(F)ccc2n1

>  <score_type>  (9) 
oracle

>  <origin>  (9) 
autodockgpu

>  <m_score__min__energy>  (9) 
-9.2400000000000002

>  <m_primary>  (9) 
energy

>  <rmsd>  (9) 
1.4421877447258271

>  <m_score__min__rmsd>  (9) 
1.4421877447258271

>  <meeko>  (9) 
{"free_energy": -8.18, "intermolecular_energy": -9.68, "internal_energy": -1.96, "cluster_size": 44, "cluster_id": 1, "rank_in_cluster": 43}

>  <energy>  (9) 
-8.99

>  <cluster_rmsd>  (9) 
1.11

>  <cluster>  (9) 
1

$$$$

     RDKit          3D

 51 54  0  0  0  0  0  0  0  0999 V2000
  139.4530   71.3630  221.0970 O   0  0  0  0  0  0  0  0  0  0  0  0
  139.5150   71.8900  222.2370 C   0  0  0  0  0  0  0  0  0  0  0  0
  139.5110   73.2860  222.4520 N   0  0  0  0  0  0  0  0  0  0  0  0
  139.4340   74.2120  221.3450 C   0  0  0  0  0  0  0  0  0  0  0  0
  140.2520   75.3820  221.6810 C   0  0  0  0  0  0  0  0  0  0  0  0
  141.4820   75.2740  221.9190 O   0  0  0  0  0  0  0  0  0  0  0  0
  139.7090   76.7190  221.7610 N   0  0  0  0  0  0  0  0  0  0  0  0
  138.4980   76.8850  222.4850 C   0  0  0  0  0  0  0  0  0  0  0  0
  137.6080   77.9780  221.9620 C   0  0  0  0  0  0  0  0  0  0  0  0
  138.3630   79.0490  221.2260 C   0  0  0  0  0  0  0  0  0  0  0  0
  139.4070   78.5500  220.2960 C   0  0  0  0  0  0  0  0  0  0  0  0
  140.4450   77.7870  221.0940 C   0  0  1  0  0  0  0  0  0  0  0  0
  141.1740   78.6630  222.0190 C   0  0  0  0  0  0  0  0  0  0  0  0
  141.8490   79.7750  221.5070 C   0  0  0  0  0  0  0  0  0  0  0  0
  142.5450   80.6420  222.3420 C   0  0  0  0  0  0  0  0  0  0  0  0
  142.5990   80.4430  223.7000 C   0  0  0  0  0  0  0  0  0  0  0  0
  141.9410   79.3540  224.2180 C   0  0  0  0  0  0  0  0  0  0  0  0
  141.2490   78.4940  223.3810 C   0  0  0  0  0  0  0  0  0  0  0  0
  139.5960   71.0090  223.4130 C   0  0  0  0  0  0  0  0  0  0  0  0
  139.1480   69.7100  223.3880 C   0  0  0  0  0  0  0  0  0  0  0  0
  139.2150   68.8630  224.4840 C   0  0  0  0  0  0  0  0  0  0  0  0
  139.7600   69.3600  225.6520 C   0  0  0  0  0  0  0  0  0  0  0  0
  139.8760   68.6110  226.7980 C   0  0  0  0  0  0  0  0  0  0  0  0
  140.4140   69.0830  227.9700 C   0  0  0  0  0  0  0  0  0  0  0  0
  140.5400   68.3780  229.1000 F   0  0  0  0  0  0  0  0  0  0  0  0
  140.8640   70.3990  227.9820 C   0  0  0  0  0  0  0  0  0  0  0  0
  140.7470   71.1540  226.8250 C   0  0  0  0  0  0  0  0  0  0  0  0
  140.2000   70.6520  225.6620 C   0  0  0  0  0  0  0  0  0  0  0  0
  140.1230   71.4480  224.5870 N   0  0  0  0  0  0  0  0  0  0  0  0
  139.5660   73.6710  223.4370 H   0  0  0  0  0  0  0  0  0  0  0  0
  139.8196   73.7358  220.4314 H   0  0  0  0  0  0  0  0  0  0  0  0
  138.3907   74.5113  221.1665 H   0  0  0  0  0  0  0  0  0  0  0  0
  137.9401   75.9378  222.4446 H   0  0  0  0  0  0  0  0  0  0  0  0
  138.7804   77.1722  223.5086 H   0  0  0  0  0  0  0  0  0  0  0  0
  136.8727   77.5328  221.2756 H   0  0  0  0  0  0  0  0  0  0  0  0
  137.1257   78.4526  222.8293 H   0  0  0  0  0  0  0  0  0  0  0  0
  137.6396   79.6383  220.6434 H   0  0  0  0  0  0  0  0  0  0  0  0
  138.8880   79.6387  221.9919 H   0  0  0  0  0  0  0  0  0  0  0  0
  138.9500   77.8831  219.5501 H   0  0  0  0  0  0  0  0  0  0  0  0
  139.8812   79.3958  219.7767 H   0  0  0  0  0  0  0  0  0  0  0  0
  141.2353   77.3672  220.4543 H   0  0  0  0  0  0  0  0  0  0  0  0
  141.8292   79.9675  220.4242 H   0  0  0  0  0  0  0  0  0  0  0  0
  143.0645   81.5075  221.9048 H   0  0  0  0  0  0  0  0  0  0  0  0
  143.1521   81.1344  224.3527 H   0  0  0  0  0  0  0  0  0  0  0  0
  141.9637   79.1642  225.3013 H   0  0  0  0  0  0  0  0  0  0  0  0
  140.7333   77.6320  223.8292 H   0  0  0  0  0  0  0  0  0  0  0  0
  138.7154   69.3234  222.4534 H   0  0  0  0  0  0  0  0  0  0  0  0
  138.8459   67.8284  224.4252 H   0  0  0  0  0  0  0  0  0  0  0  0
  139.5166   67.5716  226.7754 H   0  0  0  0  0  0  0  0  0  0  0  0
  141.3043   70.8325  228.8920 H   0  0  0  0  0  0  0  0  0  0  0  0
  141.1044   72.1943  226.8346 H   0  0  0  0  0  0  0  0  0  0  0  0
  1  2  2  0
  2  3  1  0
  3  4  1  0
  4  5  1  0
  5  6  2  0
  5  7  1  0
  7  8  1  0
  8  9  1  0
  9 10  1  0
 10 11  1  0
 11 12  1  0
 12 13  1  0
 13 14  2  0
 14 15  1  0
 15 16  2  0
 16 17  1  0
 17 18  2  0
  2 19  1  0
 19 20  2  0
 20 21  1  0
 21 22  2  0
 22 23  1  0
 23 24  2  0
 24 25  1  0
 24 26  1  0
 26 27  2  0
 27 28  1  0
 28 29  2  0
 12  7  1  0
 18 13  1  0
 29 19  1  0
 28 22  1  0
  3 30  1  0
  4 31  1  0
  4 32  1  0
  8 33  1  0
  8 34  1  0
  9 35  1  0
  9 36  1  0
 10 37  1  0
 10 38  1  0
 11 39  1  0
 11 40  1  0
 12 41  1  6
 14 42  1  0
 15 43  1  0
 16 44  1  0
 17 45  1  0
 18 46  1  0
 20 47  1  0
 21 48  1  0
 23 49  1  0
 26 50  1  0
 27 51  1  0
M  END
>  <smiles>  (10) 
O=C(NCC(=O)N1CCCC[C@H]1c1ccccc1)c1ccc2cc(F)ccc2n1

>  <score_type>  (10) 
oracle

>  <origin>  (10) 
autodockgpu

>  <m_score__min__energy>  (10) 
-9.2400000000000002

>  <m_primary>  (10) 
energy

>  <rmsd>  (10) 
2.433833418608169

>  <m_score__min__rmsd>  (10) 
2.433833418608169

>  <meeko>  (10) 
{"free_energy": -8.79, "intermolecular_energy": -10.28, "internal_energy": -1.6, "cluster_size": 44, "cluster_id": 1, "rank_in_cluster": 25}

>  <energy>  (10) 
-8.98

>  <cluster_rmsd>  (10) 
0.65

>  <cluster>  (10) 
1

$$$$

     RDKit          3D

 51 54  0  0  0  0  0  0  0  0999 V2000
  140.3880   71.8160  221.0460 O   0  0  0  0  0  0  0  0  0  0  0  0
  140.0290   72.3030  222.1480 C   0  0  0  0  0  0  0  0  0  0  0  0
  139.6640   73.6570  222.3220 N   0  0  0  0  0  0  0  0  0  0  0  0
  139.6830   74.5830  221.2120 C   0  0  0  0  0  0  0  0  0  0  0  0
  139.5630   75.9390  221.7580 C   0  0  0  0  0  0  0  0  0  0  0  0
  138.9910   76.1530  222.8570 O   0  0  0  0  0  0  0  0  0  0  0  0
  140.0850   77.1040  221.0810 N   0  0  0  0  0  0  0  0  0  0  0  0
  139.2540   77.7130  220.1030 C   0  0  0  0  0  0  0  0  0  0  0  0
  140.0020   78.3480  218.9630 C   0  0  0  0  0  0  0  0  0  0  0  0
  141.3960   78.7660  219.3360 C   0  0  0  0  0  0  0  0  0  0  0  0
  142.1500   77.7750  220.1440 C   0  0  0  0  0  0  0  0  0  0  0  0
  141.4190   77.5600  221.4550 C   0  0  1  0  0  0  0  0  0  0  0  0
  141.4150   78.7720  222.2820 C   0  0  0  0  0  0  0  0  0  0  0  0
  142.6320   79.3900  222.5840 C   0  0  0  0  0  0  0  0  0  0  0  0
  142.6800   80.5460  223.3540 C   0  0  0  0  0  0  0  0  0  0  0  0
  141.5390   81.1280  223.8500 C   0  0  0  0  0  0  0  0  0  0  0  0
  140.3360   80.5330  223.5620 C   0  0  0  0  0  0  0  0  0  0  0  0
  140.2930   79.3810  222.7940 C   0  0  0  0  0  0  0  0  0  0  0  0
  139.9860   71.4190  223.3240 C   0  0  0  0  0  0  0  0  0  0  0  0
  139.5570   70.1160  223.2460 C   0  0  0  0  0  0  0  0  0  0  0  0
  139.5080   69.2660  224.3410 C   0  0  0  0  0  0  0  0  0  0  0  0
  139.9120   69.7650  225.5640 C   0  0  0  0  0  0  0  0  0  0  0  0
  139.9060   69.0130  226.7150 C   0  0  0  0  0  0  0  0  0  0  0  0
  140.3030   69.4870  227.9410 C   0  0  0  0  0  0  0  0  0  0  0  0
  140.3080   68.7790  229.0760 F   0  0  0  0  0  0  0  0  0  0  0  0
  140.7350   70.8070  228.0060 C   0  0  0  0  0  0  0  0  0  0  0  0
  140.7420   71.5640  226.8460 C   0  0  0  0  0  0  0  0  0  0  0  0
  140.3350   71.0610  225.6260 C   0  0  0  0  0  0  0  0  0  0  0  0
  140.3720   71.8590  224.5510 N   0  0  0  0  0  0  0  0  0  0  0  0
  139.3710   74.0090  223.2760 H   0  0  0  0  0  0  0  0  0  0  0  0
  140.6286   74.4846  220.6586 H   0  0  0  0  0  0  0  0  0  0  0  0
  138.8535   74.3720  220.5210 H   0  0  0  0  0  0  0  0  0  0  0  0
  138.5864   76.9424  219.6901 H   0  0  0  0  0  0  0  0  0  0  0  0
  138.7099   78.5222  220.6120 H   0  0  0  0  0  0  0  0  0  0  0  0
  140.0623   77.6242  218.1369 H   0  0  0  0  0  0  0  0  0  0  0  0
  139.4524   79.2560  218.6741 H   0  0  0  0  0  0  0  0  0  0  0  0
  141.9578   78.9489  218.4081 H   0  0  0  0  0  0  0  0  0  0  0  0
  141.2916   79.6621  219.9653 H   0  0  0  0  0  0  0  0  0  0  0  0
  142.2152   76.8234  219.5961 H   0  0  0  0  0  0  0  0  0  0  0  0
  143.1672   78.1458  220.3383 H   0  0  0  0  0  0  0  0  0  0  0  0
  141.9157   76.8124  222.0910 H   0  0  0  0  0  0  0  0  0  0  0  0
  143.5681   78.9536  222.2055 H   0  0  0  0  0  0  0  0  0  0  0  0
  143.6553   81.0059  223.5715 H   0  0  0  0  0  0  0  0  0  0  0  0
  141.5878   82.0426  224.4592 H   0  0  0  0  0  0  0  0  0  0  0  0
  139.4023   80.9728  223.9426 H   0  0  0  0  0  0  0  0  0  0  0  0
  139.3120   78.9304  222.5829 H   0  0  0  0  0  0  0  0  0  0  0  0
  139.2369   69.7281  222.2677 H   0  0  0  0  0  0  0  0  0  0  0  0
  139.1586   68.2280  224.2387 H   0  0  0  0  0  0  0  0  0  0  0  0
  139.5629   67.9699  226.6498 H   0  0  0  0  0  0  0  0  0  0  0  0
  141.0651   71.2421  228.9609 H   0  0  0  0  0  0  0  0  0  0  0  0
  141.0855   72.6077  226.8987 H   0  0  0  0  0  0  0  0  0  0  0  0
  1  2  2  0
  2  3  1  0
  3  4  1  0
  4  5  1  0
  5  6  2  0
  5  7  1  0
  7  8  1  0
  8  9  1  0
  9 10  1  0
 10 11  1  0
 11 12  1  0
 12 13  1  0
 13 14  2  0
 14 15  1  0
 15 16  2  0
 16 17  1  0
 17 18  2  0
  2 19  1  0
 19 20  2  0
 20 21  1  0
 21 22  2  0
 22 23  1  0
 23 24  2  0
 24 25  1  0
 24 26  1  0
 26 27  2  0
 27 28  1  0
 28 29  2  0
 12  7  1  0
 18 13  1  0
 29 19  1  0
 28 22  1  0
  3 30  1  0
  4 31  1  0
  4 32  1  0
  8 33  1  0
  8 34  1  0
  9 35  1  0
  9 36  1  0
 10 37  1  0
 10 38  1  0
 11 39  1  0
 11 40  1  0
 12 41  1  1
 14 42  1  0
 15 43  1  0
 16 44  1  0
 17 45  1  0
 18 46  1  0
 20 47  1  0
 21 48  1  0
 23 49  1  0
 26 50  1  0
 27 51  1  0
M  END
>  <smiles>  (11) 
O=C(NCC(=O)N1CCCC[C@H]1c1ccccc1)c1ccc2cc(F)ccc2n1

>  <score_type>  (11) 
oracle

>  <origin>  (11) 
autodockgpu

>  <m_score__min__energy>  (11) 
-9.2400000000000002

>  <m_primary>  (11) 
energy

>  <rmsd>  (11) 
1.93456964767428

>  <m_score__min__rmsd>  (11) 
1.93456964767428

>  <meeko>  (11) 
{"free_energy": -8.78, "intermolecular_energy": -10.27, "internal_energy": -2.02, "cluster_size": 44, "cluster_id": 1, "rank_in_cluster": 27}

>  <energy>  (11) 
-8.97

>  <cluster_rmsd>  (11) 
1.08

>  <cluster>  (11) 
1

$$$$

     RDKit          3D

 51 54  0  0  0  0  0  0  0  0999 V2000
  140.2810   71.7960  221.0360 O   0  0  0  0  0  0  0  0  0  0  0  0
  139.9910   72.3000  222.1510 C   0  0  0  0  0  0  0  0  0  0  0  0
  139.6840   73.6670  222.3340 N   0  0  0  0  0  0  0  0  0  0  0  0
  139.6850   74.5870  221.2190 C   0  0  0  0  0  0  0  0  0  0  0  0
  139.5650   75.9450  221.7600 C   0  0  0  0  0  0  0  0  0  0  0  0
  138.9880   76.1650  222.8550 O   0  0  0  0  0  0  0  0  0  0  0  0
  140.0950   77.1060  221.0820 N   0  0  0  0  0  0  0  0  0  0  0  0
  139.2740   77.7120  220.0940 C   0  0  0  0  0  0  0  0  0  0  0  0
  140.0320   78.3410  218.9580 C   0  0  0  0  0  0  0  0  0  0  0  0
  141.4230   78.7590  219.3400 C   0  0  0  0  0  0  0  0  0  0  0  0
  142.1690   77.7700  220.1600 C   0  0  0  0  0  0  0  0  0  0  0  0
  141.4270   77.5630  221.4650 C   0  0  1  0  0  0  0  0  0  0  0  0
  141.4170   78.7780  222.2870 C   0  0  0  0  0  0  0  0  0  0  0  0
  142.6310   79.3990  222.5910 C   0  0  0  0  0  0  0  0  0  0  0  0
  142.6750   80.5590  223.3560 C   0  0  0  0  0  0  0  0  0  0  0  0
  141.5310   81.1410  223.8440 C   0  0  0  0  0  0  0  0  0  0  0  0
  140.3290   80.5430  223.5540 C   0  0  0  0  0  0  0  0  0  0  0  0
  140.2920   79.3870  222.7910 C   0  0  0  0  0  0  0  0  0  0  0  0
  139.9710   71.4220  223.3320 C   0  0  0  0  0  0  0  0  0  0  0  0
  139.5480   70.1160  223.2680 C   0  0  0  0  0  0  0  0  0  0  0  0
  139.5200   69.2720  224.3680 C   0  0  0  0  0  0  0  0  0  0  0  0
  139.9400   69.7800  225.5830 C   0  0  0  0  0  0  0  0  0  0  0  0
  139.9550   69.0350  226.7370 C   0  0  0  0  0  0  0  0  0  0  0  0
  140.3680   69.5190  227.9550 C   0  0  0  0  0  0  0  0  0  0  0  0
  140.3950   68.8170  229.0940 F   0  0  0  0  0  0  0  0  0  0  0  0
  140.7940   70.8410  228.0060 C   0  0  0  0  0  0  0  0  0  0  0  0
  140.7790   71.5920  226.8410 C   0  0  0  0  0  0  0  0  0  0  0  0
  140.3570   71.0790  225.6310 C   0  0  0  0  0  0  0  0  0  0  0  0
  140.3730   71.8720  224.5510 N   0  0  0  0  0  0  0  0  0  0  0  0
  139.4480   74.0320  223.2990 H   0  0  0  0  0  0  0  0  0  0  0  0
  140.6242   74.4904  220.6546 H   0  0  0  0  0  0  0  0  0  0  0  0
  138.8485   74.3684  220.5389 H   0  0  0  0  0  0  0  0  0  0  0  0
  138.6090   76.9405  219.6786 H   0  0  0  0  0  0  0  0  0  0  0  0
  138.7272   78.5245  220.5949 H   0  0  0  0  0  0  0  0  0  0  0  0
  140.0981   77.6135  218.1356 H   0  0  0  0  0  0  0  0  0  0  0  0
  139.4859   79.2485  218.6610 H   0  0  0  0  0  0  0  0  0  0  0  0
  141.9927   78.9362  218.4159 H   0  0  0  0  0  0  0  0  0  0  0  0
  141.3151   79.6588  219.9635 H   0  0  0  0  0  0  0  0  0  0  0  0
  142.2372   76.8155  219.6175 H   0  0  0  0  0  0  0  0  0  0  0  0
  143.1852   78.1400  220.3611 H   0  0  0  0  0  0  0  0  0  0  0  0
  141.9182   76.8184  222.1086 H   0  0  0  0  0  0  0  0  0  0  0  0
  143.5692   78.9621  222.2182 H   0  0  0  0  0  0  0  0  0  0  0  0
  143.6487   81.0213  223.5754 H   0  0  0  0  0  0  0  0  0  0  0  0
  141.5759   82.0586  224.4490 H   0  0  0  0  0  0  0  0  0  0  0  0
  139.3930   80.9831  223.9286 H   0  0  0  0  0  0  0  0  0  0  0  0
  139.3128   78.9334  222.5776 H   0  0  0  0  0  0  0  0  0  0  0  0
  139.2154   69.7208  222.2968 H   0  0  0  0  0  0  0  0  0  0  0  0
  139.1746   68.2316  224.2766 H   0  0  0  0  0  0  0  0  0  0  0  0
  139.6166   67.9898  226.6829 H   0  0  0  0  0  0  0  0  0  0  0  0
  141.1367   71.2831  228.9532 H   0  0  0  0  0  0  0  0  0  0  0  0
  141.1167   72.6381  226.8824 H   0  0  0  0  0  0  0  0  0  0  0  0
  1  2  2  0
  2  3  1  0
  3  4  1  0
  4  5  1  0
  5  6  2  0
  5  7  1  0
  7  8  1  0
  8  9  1  0
  9 10  1  0
 10 11  1  0
 11 12  1  0
 12 13  1  0
 13 14  2  0
 14 15  1  0
 15 16  2  0
 16 17  1  0
 17 18  2  0
  2 19  1  0
 19 20  2  0
 20 21  1  0
 21 22  2  0
 22 23  1  0
 23 24  2  0
 24 25  1  0
 24 26  1  0
 26 27  2  0
 27 28  1  0
 28 29  2  0
 12  7  1  0
 18 13  1  0
 29 19  1  0
 28 22  1  0
  3 30  1  0
  4 31  1  0
  4 32  1  0
  8 33  1  0
  8 34  1  0
  9 35  1  0
  9 36  1  0
 10 37  1  0
 10 38  1  0
 11 39  1  0
 11 40  1  0
 12 41  1  1
 14 42  1  0
 15 43  1  0
 16 44  1  0
 17 45  1  0
 18 46  1  0
 20 47  1  0
 21 48  1  0
 23 49  1  0
 26 50  1  0
 27 51  1  0
M  END
>  <smiles>  (12) 
O=C(NCC(=O)N1CCCC[C@H]1c1ccccc1)c1ccc2cc(F)ccc2n1

>  <score_type>  (12) 
oracle

>  <origin>  (12) 
autodockgpu

>  <m_score__min__energy>  (12) 
-9.2400000000000002

>  <m_primary>  (12) 
energy

>  <rmsd>  (12) 
1.9361695621413402

>  <m_score__min__rmsd>  (12) 
1.9361695621413402

>  <meeko>  (12) 
{"free_energy": -8.77, "intermolecular_energy": -10.26, "internal_energy": -2.03, "cluster_size": 44, "cluster_id": 1, "rank_in_cluster": 28}

>  <energy>  (12) 
-8.96

>  <cluster_rmsd>  (12) 
1.09

>  <cluster>  (12) 
1

$$$$

     RDKit          3D

 51 54  0  0  0  0  0  0  0  0999 V2000
  140.3570   71.7650  221.0330 O   0  0  0  0  0  0  0  0  0  0  0  0
  140.0320   72.2670  222.1400 C   0  0  0  0  0  0  0  0  0  0  0  0
  139.7020   73.6300  222.3120 N   0  0  0  0  0  0  0  0  0  0  0  0
  139.7200   74.5490  221.1970 C   0  0  0  0  0  0  0  0  0  0  0  0
  139.5900   75.9080  221.7340 C   0  0  0  0  0  0  0  0  0  0  0  0
  139.0080   76.1260  222.8260 O   0  0  0  0  0  0  0  0  0  0  0  0
  140.1150   77.0700  221.0550 N   0  0  0  0  0  0  0  0  0  0  0  0
  139.2830   77.6830  220.0800 C   0  0  0  0  0  0  0  0  0  0  0  0
  140.0290   78.3150  218.9380 C   0  0  0  0  0  0  0  0  0  0  0  0
  141.4260   78.7280  219.3050 C   0  0  0  0  0  0  0  0  0  0  0  0
  142.1780   77.7330  220.1110 C   0  0  0  0  0  0  0  0  0  0  0  0
  141.4520   77.5210  221.4240 C   0  0  1  0  0  0  0  0  0  0  0  0
  141.4550   78.7330  222.2510 C   0  0  0  0  0  0  0  0  0  0  0  0
  142.6690   79.3820  222.4960 C   0  0  0  0  0  0  0  0  0  0  0  0
  142.7240   80.5390  223.2640 C   0  0  0  0  0  0  0  0  0  0  0  0
  141.5930   81.0920  223.8130 C   0  0  0  0  0  0  0  0  0  0  0  0
  140.3920   80.4660  223.5810 C   0  0  0  0  0  0  0  0  0  0  0  0
  140.3430   79.3130  222.8150 C   0  0  0  0  0  0  0  0  0  0  0  0
  139.9930   71.3900  223.3210 C   0  0  0  0  0  0  0  0  0  0  0  0
  139.5760   70.0830  223.2510 C   0  0  0  0  0  0  0  0  0  0  0  0
  139.5300   69.2400  224.3510 C   0  0  0  0  0  0  0  0  0  0  0  0
  139.9260   69.7510  225.5730 C   0  0  0  0  0  0  0  0  0  0  0  0
  139.9220   69.0070  226.7280 C   0  0  0  0  0  0  0  0  0  0  0  0
  140.3100   69.4930  227.9520 C   0  0  0  0  0  0  0  0  0  0  0  0
  140.3180   68.7930  229.0930 F   0  0  0  0  0  0  0  0  0  0  0  0
  140.7310   70.8170  228.0100 C   0  0  0  0  0  0  0  0  0  0  0  0
  140.7350   71.5660  226.8440 C   0  0  0  0  0  0  0  0  0  0  0  0
  140.3370   71.0510  225.6270 C   0  0  0  0  0  0  0  0  0  0  0  0
  140.3710   71.8420  224.5470 N   0  0  0  0  0  0  0  0  0  0  0  0
  139.4370   73.9930  223.2710 H   0  0  0  0  0  0  0  0  0  0  0  0
  140.6683   74.4527  220.6480 H   0  0  0  0  0  0  0  0  0  0  0  0
  138.8944   74.3289  220.5043 H   0  0  0  0  0  0  0  0  0  0  0  0
  138.6107   76.9153  219.6693 H   0  0  0  0  0  0  0  0  0  0  0  0
  138.7443   78.4944  220.5913 H   0  0  0  0  0  0  0  0  0  0  0  0
  140.0834   77.5910  218.1117 H   0  0  0  0  0  0  0  0  0  0  0  0
  139.4818   79.2253  218.6518 H   0  0  0  0  0  0  0  0  0  0  0  0
  141.9851   78.9079  218.3749 H   0  0  0  0  0  0  0  0  0  0  0  0
  141.3286   79.6256  219.9334 H   0  0  0  0  0  0  0  0  0  0  0  0
  142.2366   76.7811  219.5628 H   0  0  0  0  0  0  0  0  0  0  0  0
  143.1974   78.0995  220.3019 H   0  0  0  0  0  0  0  0  0  0  0  0
  141.9488   76.7719  222.0581 H   0  0  0  0  0  0  0  0  0  0  0  0
  143.5970   78.9695  222.0734 H   0  0  0  0  0  0  0  0  0  0  0  0
  143.6965   81.0234  223.4363 H   0  0  0  0  0  0  0  0  0  0  0  0
  141.6470   82.0079  224.4198 H   0  0  0  0  0  0  0  0  0  0  0  0
  139.4662   80.8820  224.0051 H   0  0  0  0  0  0  0  0  0  0  0  0
  139.3651   78.8372  222.6495 H   0  0  0  0  0  0  0  0  0  0  0  0
  139.2632   69.6856  222.2742 H   0  0  0  0  0  0  0  0  0  0  0  0
  139.1895   68.1985  224.2544 H   0  0  0  0  0  0  0  0  0  0  0  0
  139.5883   67.9605  226.6686 H   0  0  0  0  0  0  0  0  0  0  0  0
  141.0546   71.2612  228.9629 H   0  0  0  0  0  0  0  0  0  0  0  0
  141.0688   72.6131  226.8904 H   0  0  0  0  0  0  0  0  0  0  0  0
  1  2  2  0
  2  3  1  0
  3  4  1  0
  4  5  1  0
  5  6  2  0
  5  7  1  0
  7  8  1  0
  8  9  1  0
  9 10  1  0
 10 11  1  0
 11 12  1  0
 12 13  1  0
 13 14  2  0
 14 15  1  0
 15 16  2  0
 16 17  1  0
 17 18  2  0
  2 19  1  0
 19 20  2  0
 20 21  1  0
 21 22  2  0
 22 23  1  0
 23 24  2  0
 24 25  1  0
 24 26  1  0
 26 27  2  0
 27 28  1  0
 28 29  2  0
 12  7  1  0
 18 13  1  0
 29 19  1  0
 28 22  1  0
  3 30  1  0
  4 31  1  0
  4 32  1  0
  8 33  1  0
  8 34  1  0
  9 35  1  0
  9 36  1  0
 10 37  1  0
 10 38  1  0
 11 39  1  0
 11 40  1  0
 12 41  1  1
 14 42  1  0
 15 43  1  0
 16 44  1  0
 17 45  1  0
 18 46  1  0
 20 47  1  0
 21 48  1  0
 23 49  1  0
 26 50  1  0
 27 51  1  0
M  END
>  <smiles>  (13) 
O=C(NCC(=O)N1CCCC[C@H]1c1ccccc1)c1ccc2cc(F)ccc2n1

>  <score_type>  (13) 
oracle

>  <origin>  (13) 
autodockgpu

>  <m_score__min__energy>  (13) 
-9.2400000000000002

>  <m_primary>  (13) 
energy

>  <rmsd>  (13) 
1.916341454327076

>  <m_score__min__rmsd>  (13) 
1.916341454327076

>  <meeko>  (13) 
{"free_energy": -8.76, "intermolecular_energy": -10.25, "internal_energy": -2.04, "cluster_size": 44, "cluster_id": 1, "rank_in_cluster": 29}

>  <energy>  (13) 
-8.94

>  <cluster_rmsd>  (13) 
1.1

>  <cluster>  (13) 
1

$$$$

     RDKit          3D

 51 54  0  0  0  0  0  0  0  0999 V2000
  141.2860   72.3550  221.5900 O   0  0  0  0  0  0  0  0  0  0  0  0
  140.3310   72.5110  222.3930 C   0  0  0  0  0  0  0  0  0  0  0  0
  139.3780   73.5480  222.2800 N   0  0  0  0  0  0  0  0  0  0  0  0
  139.4490   74.5130  221.2060 C   0  0  0  0  0  0  0  0  0  0  0  0
  140.2170   75.6650  221.6900 C   0  0  0  0  0  0  0  0  0  0  0  0
  141.4360   75.5640  221.9780 O   0  0  0  0  0  0  0  0  0  0  0  0
  139.6330   76.9750  221.8640 N   0  0  0  0  0  0  0  0  0  0  0  0
  138.4900   77.0700  222.7040 C   0  0  0  0  0  0  0  0  0  0  0  0
  137.5140   78.1400  222.3030 C   0  0  0  0  0  0  0  0  0  0  0  0
  138.1540   79.2630  221.5360 C   0  0  0  0  0  0  0  0  0  0  0  0
  139.1230   78.8350  220.4970 C   0  0  0  0  0  0  0  0  0  0  0  0
  140.2610   78.0930  221.1680 C   0  0  1  0  0  0  0  0  0  0  0  0
  141.0400   78.9700  222.0490 C   0  0  0  0  0  0  0  0  0  0  0  0
  141.3920   78.5110  223.3220 C   0  0  0  0  0  0  0  0  0  0  0  0
  142.1390   79.2980  224.1900 C   0  0  0  0  0  0  0  0  0  0  0  0
  142.5620   80.5560  223.8360 C   0  0  0  0  0  0  0  0  0  0  0  0
  142.2250   81.0210  222.5890 C   0  0  0  0  0  0  0  0  0  0  0  0
  141.4800   80.2320  221.7280 C   0  0  0  0  0  0  0  0  0  0  0  0
  140.1960   71.5660  223.5130 C   0  0  0  0  0  0  0  0  0  0  0  0
  139.5800   70.3460  223.3720 C   0  0  0  0  0  0  0  0  0  0  0  0
  139.4410   69.4400  224.4130 C   0  0  0  0  0  0  0  0  0  0  0  0
  139.9520   69.7930  225.6480 C   0  0  0  0  0  0  0  0  0  0  0  0
  139.8710   68.9750  226.7490 C   0  0  0  0  0  0  0  0  0  0  0  0
  140.3710   69.3040  227.9850 C   0  0  0  0  0  0  0  0  0  0  0  0
  140.3080   68.5280  229.0740 F   0  0  0  0  0  0  0  0  0  0  0  0
  140.9930   70.5410  228.1140 C   0  0  0  0  0  0  0  0  0  0  0  0
  141.0740   71.3650  227.0030 C   0  0  0  0  0  0  0  0  0  0  0  0
  140.5610   71.0080  225.7720 C   0  0  0  0  0  0  0  0  0  0  0  0
  140.6800   71.8630  224.7480 N   0  0  0  0  0  0  0  0  0  0  0  0
  138.5960   73.6270  222.9890 H   0  0  0  0  0  0  0  0  0  0  0  0
  139.9515   74.0674  220.3348 H   0  0  0  0  0  0  0  0  0  0  0  0
  138.4390   74.8245  220.9013 H   0  0  0  0  0  0  0  0  0  0  0  0
  137.9672   76.1024  222.6848 H   0  0  0  0  0  0  0  0  0  0  0  0
  138.8571   77.3384  223.7056 H   0  0  0  0  0  0  0  0  0  0  0  0
  136.7349   77.6853  221.6735 H   0  0  0  0  0  0  0  0  0  0  0  0
  137.0983   78.5684  223.2270 H   0  0  0  0  0  0  0  0  0  0  0  0
  137.3566   79.8389  221.0436 H   0  0  0  0  0  0  0  0  0  0  0  0
  138.7259   79.8514  222.2686 H   0  0  0  0  0  0  0  0  0  0  0  0
  138.6231   78.1716  219.7759 H   0  0  0  0  0  0  0  0  0  0  0  0
  139.5128   79.7147  219.9638 H   0  0  0  0  0  0  0  0  0  0  0  0
  141.0033   77.7264  220.4437 H   0  0  0  0  0  0  0  0  0  0  0  0
  141.0717   77.5086  223.6422 H   0  0  0  0  0  0  0  0  0  0  0  0
  142.3977   78.9043  225.1840 H   0  0  0  0  0  0  0  0  0  0  0  0
  143.1525   81.1719  224.5302 H   0  0  0  0  0  0  0  0  0  0  0  0
  142.5478   82.0238  222.2724 H   0  0  0  0  0  0  0  0  0  0  0  0
  141.2276   80.6361  220.7366 H   0  0  0  0  0  0  0  0  0  0  0  0
  139.1773   70.0744  222.3850 H   0  0  0  0  0  0  0  0  0  0  0  0
  138.9405   68.4723  224.2608 H   0  0  0  0  0  0  0  0  0  0  0  0
  139.3766   67.9992  226.6336 H   0  0  0  0  0  0  0  0  0  0  0  0
  141.4127   70.8593  229.0797 H   0  0  0  0  0  0  0  0  0  0  0  0
  141.5669   72.3430  227.1060 H   0  0  0  0  0  0  0  0  0  0  0  0
  1  2  2  0
  2  3  1  0
  3  4  1  0
  4  5  1  0
  5  6  2  0
  5  7  1  0
  7  8  1  0
  8  9  1  0
  9 10  1  0
 10 11  1  0
 11 12  1  0
 12 13  1  0
 13 14  2  0
 14 15  1  0
 15 16  2  0
 16 17  1  0
 17 18  2  0
  2 19  1  0
 19 20  2  0
 20 21  1  0
 21 22  2  0
 22 23  1  0
 23 24  2  0
 24 25  1  0
 24 26  1  0
 26 27  2  0
 27 28  1  0
 28 29  2  0
 12  7  1  0
 18 13  1  0
 29 19  1  0
 28 22  1  0
  3 30  1  0
  4 31  1  0
  4 32  1  0
  8 33  1  0
  8 34  1  0
  9 35  1  0
  9 36  1  0
 10 37  1  0
 10 38  1  0
 11 39  1  0
 11 40  1  0
 12 41  1  6
 14 42  1  0
 15 43  1  0
 16 44  1  0
 17 45  1  0
 18 46  1  0
 20 47  1  0
 21 48  1  0
 23 49  1  0
 26 50  1  0
 27 51  1  0
M  END
>  <smiles>  (14) 
O=C(NCC(=O)N1CCCC[C@H]1c1ccccc1)c1ccc2cc(F)ccc2n1

>  <score_type>  (14) 
oracle

>  <origin>  (14) 
autodockgpu

>  <m_score__min__energy>  (14) 
-9.2400000000000002

>  <m_primary>  (14) 
energy

>  <rmsd>  (14) 
2.7230492399052157

>  <m_score__min__rmsd>  (14) 
2.7230492399052157

>  <meeko>  (14) 
{"free_energy": -9.14, "intermolecular_energy": -10.63, "internal_energy": -1.37, "cluster_size": 44, "cluster_id": 1, "rank_in_cluster": 4}

>  <energy>  (14) 
-8.94

>  <cluster_rmsd>  (14) 
1.09

>  <cluster>  (14) 
1

$$$$

     RDKit          3D

 51 54  0  0  0  0  0  0  0  0999 V2000
  141.3170   72.4620  221.7730 O   0  0  0  0  0  0  0  0  0  0  0  0
  140.2870   72.4900  222.4940 C   0  0  0  0  0  0  0  0  0  0  0  0
  139.2250   73.4010  222.3030 N   0  0  0  0  0  0  0  0  0  0  0  0
  139.2630   74.3800  221.2390 C   0  0  0  0  0  0  0  0  0  0  0  0
  140.0900   75.5030  221.6940 C   0  0  0  0  0  0  0  0  0  0  0  0
  141.3060   75.3490  221.9730 O   0  0  0  0  0  0  0  0  0  0  0  0
  139.5710   76.8420  221.8490 N   0  0  0  0  0  0  0  0  0  0  0  0
  138.4370   77.0060  222.6900 C   0  0  0  0  0  0  0  0  0  0  0  0
  137.5120   78.1160  222.2730 C   0  0  0  0  0  0  0  0  0  0  0  0
  138.2040   79.1940  221.4880 C   0  0  0  0  0  0  0  0  0  0  0  0
  139.1490   78.7030  220.4530 C   0  0  0  0  0  0  0  0  0  0  0  0
  140.2510   77.9170  221.1340 C   0  0  1  0  0  0  0  0  0  0  0  0
  141.0740   78.7690  222.0000 C   0  0  0  0  0  0  0  0  0  0  0  0
  141.1600   78.4670  223.3620 C   0  0  0  0  0  0  0  0  0  0  0  0
  141.9360   79.2360  224.2220 C   0  0  0  0  0  0  0  0  0  0  0  0
  142.6480   80.3200  223.7710 C   0  0  0  0  0  0  0  0  0  0  0  0
  142.5740   80.6290  222.4350 C   0  0  0  0  0  0  0  0  0  0  0  0
  141.8000   79.8600  221.5830 C   0  0  0  0  0  0  0  0  0  0  0  0
  140.1780   71.5220  223.5980 C   0  0  0  0  0  0  0  0  0  0  0  0
  139.5930   70.2890  223.4370 C   0  0  0  0  0  0  0  0  0  0  0  0
  139.4790   69.3630  224.4630 C   0  0  0  0  0  0  0  0  0  0  0  0
  139.9840   69.7080  225.7020 C   0  0  0  0  0  0  0  0  0  0  0  0
  139.9260   68.8700  226.7900 C   0  0  0  0  0  0  0  0  0  0  0  0
  140.4200   69.1900  228.0300 C   0  0  0  0  0  0  0  0  0  0  0  0
  140.3790   68.3950  229.1060 F   0  0  0  0  0  0  0  0  0  0  0  0
  141.0110   70.4400  228.1790 C   0  0  0  0  0  0  0  0  0  0  0  0
  141.0690   71.2850  227.0820 C   0  0  0  0  0  0  0  0  0  0  0  0
  140.5620   70.9350  225.8470 C   0  0  0  0  0  0  0  0  0  0  0  0
  140.6580   71.8110  224.8370 N   0  0  0  0  0  0  0  0  0  0  0  0
  138.3830   73.3750  222.9440 H   0  0  0  0  0  0  0  0  0  0  0  0
  139.7025   73.9335  220.3349 H   0  0  0  0  0  0  0  0  0  0  0  0
  138.2468   74.7241  220.9962 H   0  0  0  0  0  0  0  0  0  0  0  0
  137.8680   76.0646  222.6884 H   0  0  0  0  0  0  0  0  0  0  0  0
  138.8198   77.2728  223.6861 H   0  0  0  0  0  0  0  0  0  0  0  0
  136.7107   77.6896  221.6516 H   0  0  0  0  0  0  0  0  0  0  0  0
  137.1188   78.5783  223.1904 H   0  0  0  0  0  0  0  0  0  0  0  0
  137.4345   79.8007  220.9883 H   0  0  0  0  0  0  0  0  0  0  0  0
  138.8059   79.7647  222.2105 H   0  0  0  0  0  0  0  0  0  0  0  0
  138.6157   78.0536  219.7432 H   0  0  0  0  0  0  0  0  0  0  0  0
  139.5797   79.5541  219.9051 H   0  0  0  0  0  0  0  0  0  0  0  0
  140.9727   77.5032  220.4143 H   0  0  0  0  0  0  0  0  0  0  0  0
  140.6039   77.6057  223.7606 H   0  0  0  0  0  0  0  0  0  0  0  0
  141.9806   78.9698  225.2884 H   0  0  0  0  0  0  0  0  0  0  0  0
  143.2591   80.9226  224.4590 H   0  0  0  0  0  0  0  0  0  0  0  0
  143.1319   81.4909  222.0403 H   0  0  0  0  0  0  0  0  0  0  0  0
  141.7638   80.1355  220.5187 H   0  0  0  0  0  0  0  0  0  0  0  0
  139.1959   70.0236  222.4461 H   0  0  0  0  0  0  0  0  0  0  0  0
  139.0022   68.3859  224.2959 H   0  0  0  0  0  0  0  0  0  0  0  0
  139.4557   67.8843  226.6592 H   0  0  0  0  0  0  0  0  0  0  0  0
  141.4247   70.7522  229.1493 H   0  0  0  0  0  0  0  0  0  0  0  0
  141.5374   72.2732  227.2003 H   0  0  0  0  0  0  0  0  0  0  0  0
  1  2  2  0
  2  3  1  0
  3  4  1  0
  4  5  1  0
  5  6  2  0
  5  7  1  0
  7  8  1  0
  8  9  1  0
  9 10  1  0
 10 11  1  0
 11 12  1  0
 12 13  1  0
 13 14  2  0
 14 15  1  0
 15 16  2  0
 16 17  1  0
 17 18  2  0
  2 19  1  0
 19 20  2  0
 20 21  1  0
 21 22  2  0
 22 23  1  0
 23 24  2  0
 24 25  1  0
 24 26  1  0
 26 27  2  0
 27 28  1  0
 28 29  2  0
 12  7  1  0
 18 13  1  0
 29 19  1  0
 28 22  1  0
  3 30  1  0
  4 31  1  0
  4 32  1  0
  8 33  1  0
  8 34  1  0
  9 35  1  0
  9 36  1  0
 10 37  1  0
 10 38  1  0
 11 39  1  0
 11 40  1  0
 12 41  1  6
 14 42  1  0
 15 43  1  0
 16 44  1  0
 17 45  1  0
 18 46  1  0
 20 47  1  0
 21 48  1  0
 23 49  1  0
 26 50  1  0
 27 51  1  0
M  END
>  <smiles>  (15) 
O=C(NCC(=O)N1CCCC[C@H]1c1ccccc1)c1ccc2cc(F)ccc2n1

>  <score_type>  (15) 
oracle

>  <origin>  (15) 
autodockgpu

>  <m_score__min__energy>  (15) 
-9.2400000000000002

>  <m_primary>  (15) 
energy

>  <rmsd>  (15) 
2.6734644445337903

>  <m_score__min__rmsd>  (15) 
2.6734644445337903

>  <meeko>  (15) 
{"free_energy": -9.23, "intermolecular_energy": -10.73, "internal_energy": -1.33, "cluster_size": 44, "cluster_id": 1, "rank_in_cluster": 2}

>  <energy>  (15) 
-8.94

>  <cluster_rmsd>  (15) 
1.11

>  <cluster>  (15) 
1

$$$$

     RDKit          3D

 51 54  0  0  0  0  0  0  0  0999 V2000
  141.1950   72.0860  221.3850 O   0  0  0  0  0  0  0  0  0  0  0  0
  140.3990   72.4460  222.2900 C   0  0  0  0  0  0  0  0  0  0  0  0
  139.6950   73.6710  222.2680 N   0  0  0  0  0  0  0  0  0  0  0  0
  139.8530   74.6030  221.1750 C   0  0  0  0  0  0  0  0  0  0  0  0
  139.6220   75.9530  221.7010 C   0  0  0  0  0  0  0  0  0  0  0  0
  138.9800   76.1390  222.7650 O   0  0  0  0  0  0  0  0  0  0  0  0
  140.1110   77.1420  221.0420 N   0  0  0  0  0  0  0  0  0  0  0  0
  139.2480   77.7630  220.1000 C   0  0  0  0  0  0  0  0  0  0  0  0
  139.9580   78.4390  218.9600 C   0  0  0  0  0  0  0  0  0  0  0  0
  141.3540   78.8700  219.3110 C   0  0  0  0  0  0  0  0  0  0  0  0
  142.1420   77.8700  220.0750 C   0  0  0  0  0  0  0  0  0  0  0  0
  141.4460   77.6100  221.3960 C   0  0  1  0  0  0  0  0  0  0  0  0
  141.4430   78.8000  222.2550 C   0  0  0  0  0  0  0  0  0  0  0  0
  142.6640   79.3780  222.6160 C   0  0  0  0  0  0  0  0  0  0  0  0
  142.7140   80.5120  223.4180 C   0  0  0  0  0  0  0  0  0  0  0  0
  141.5720   81.1110  223.8880 C   0  0  0  0  0  0  0  0  0  0  0  0
  140.3640   80.5550  223.5420 C   0  0  0  0  0  0  0  0  0  0  0  0
  140.3200   79.4250  222.7430 C   0  0  0  0  0  0  0  0  0  0  0  0
  140.1880   71.5460  223.4350 C   0  0  0  0  0  0  0  0  0  0  0  0
  139.5290   70.3470  223.3140 C   0  0  0  0  0  0  0  0  0  0  0  0
  139.3180   69.4850  224.3790 C   0  0  0  0  0  0  0  0  0  0  0  0
  139.7990   69.8610  225.6190 C   0  0  0  0  0  0  0  0  0  0  0  0
  139.6480   69.0860  226.7430 C   0  0  0  0  0  0  0  0  0  0  0  0
  140.1180   69.4390  227.9850 C   0  0  0  0  0  0  0  0  0  0  0  0
  139.9860   68.7050  229.0960 F   0  0  0  0  0  0  0  0  0  0  0  0
  140.7830   70.6540  228.0940 C   0  0  0  0  0  0  0  0  0  0  0  0
  140.9360   71.4350  226.9590 C   0  0  0  0  0  0  0  0  0  0  0  0
  140.4520   71.0550  225.7240 C   0  0  0  0  0  0  0  0  0  0  0  0
  140.6410   71.8680  224.6760 N   0  0  0  0  0  0  0  0  0  0  0  0
  139.0380   73.9180  223.0600 H   0  0  0  0  0  0  0  0  0  0  0  0
  140.8711   74.5301  220.7651 H   0  0  0  0  0  0  0  0  0  0  0  0
  139.1384   74.3764  220.3700 H   0  0  0  0  0  0  0  0  0  0  0  0
  138.5826   76.9928  219.6829 H   0  0  0  0  0  0  0  0  0  0  0  0
  138.7045   78.5503  220.6429 H   0  0  0  0  0  0  0  0  0  0  0  0
  140.0098   77.7378  218.1141 H   0  0  0  0  0  0  0  0  0  0  0  0
  139.3874   79.3450  218.7078 H   0  0  0  0  0  0  0  0  0  0  0  0
  141.8907   79.0859  218.3754 H   0  0  0  0  0  0  0  0  0  0  0  0
  141.2511   79.7480  219.9656 H   0  0  0  0  0  0  0  0  0  0  0  0
  142.2084   76.9340  219.5010 H   0  0  0  0  0  0  0  0  0  0  0  0
  143.1579   78.2514  220.2551 H   0  0  0  0  0  0  0  0  0  0  0  0
  141.9695   76.8545  222.0003 H   0  0  0  0  0  0  0  0  0  0  0  0
  143.6017   78.9271  222.2589 H   0  0  0  0  0  0  0  0  0  0  0  0
  143.6923   80.9397  223.6824 H   0  0  0  0  0  0  0  0  0  0  0  0
  141.6223   82.0085  224.5221 H   0  0  0  0  0  0  0  0  0  0  0  0
  139.4287   81.0092  223.9010 H   0  0  0  0  0  0  0  0  0  0  0  0
  139.3361   79.0059  222.4855 H   0  0  0  0  0  0  0  0  0  0  0  0
  139.1500   70.0564  222.3231 H   0  0  0  0  0  0  0  0  0  0  0  0
  138.7850   68.5326  224.2416 H   0  0  0  0  0  0  0  0  0  0  0  0
  139.1198   68.1263  226.6429 H   0  0  0  0  0  0  0  0  0  0  0  0
  141.1807   70.9900  229.0630 H   0  0  0  0  0  0  0  0  0  0  0  0
  141.4643   72.3959  227.0464 H   0  0  0  0  0  0  0  0  0  0  0  0
  1  2  2  0
  2  3  1  0
  3  4  1  0
  4  5  1  0
  5  6  2  0
  5  7  1  0
  7  8  1  0
  8  9  1  0
  9 10  1  0
 10 11  1  0
 11 12  1  0
 12 13  1  0
 13 14  2  0
 14 15  1  0
 15 16  2  0
 16 17  1  0
 17 18  2  0
  2 19  1  0
 19 20  2  0
 20 21  1  0
 21 22  2  0
 22 23  1  0
 23 24  2  0
 24 25  1  0
 24 26  1  0
 26 27  2  0
 27 28  1  0
 28 29  2  0
 12  7  1  0
 18 13  1  0
 29 19  1  0
 28 22  1  0
  3 30  1  0
  4 31  1  0
  4 32  1  0
  8 33  1  0
  8 34  1  0
  9 35  1  0
  9 36  1  0
 10 37  1  0
 10 38  1  0
 11 39  1  0
 11 40  1  0
 12 41  1  1
 14 42  1  0
 15 43  1  0
 16 44  1  0
 17 45  1  0
 18 46  1  0
 20 47  1  0
 21 48  1  0
 23 49  1  0
 26 50  1  0
 27 51  1  0
M  END
>  <smiles>  (16) 
O=C(NCC(=O)N1CCCC[C@H]1c1ccccc1)c1ccc2cc(F)ccc2n1

>  <score_type>  (16) 
oracle

>  <origin>  (16) 
autodockgpu

>  <m_score__min__energy>  (16) 
-9.2400000000000002

>  <m_primary>  (16) 
energy

>  <rmsd>  (16) 
2.021459425685983

>  <m_score__min__rmsd>  (16) 
2.021459425685983

>  <meeko>  (16) 
{"free_energy": -8.99, "intermolecular_energy": -10.48, "internal_energy": -1.89, "cluster_size": 44, "cluster_id": 1, "rank_in_cluster": 9}

>  <energy>  (16) 
-8.92

>  <cluster_rmsd>  (16) 
1.11

>  <cluster>  (16) 
1

$$$$

     RDKit          3D

 51 54  0  0  0  0  0  0  0  0999 V2000
  141.2570   72.0290  221.4090 O   0  0  0  0  0  0  0  0  0  0  0  0
  140.4540   72.3990  222.3040 C   0  0  0  0  0  0  0  0  0  0  0  0
  139.7580   73.6290  222.2680 N   0  0  0  0  0  0  0  0  0  0  0  0
  139.9340   74.5540  221.1720 C   0  0  0  0  0  0  0  0  0  0  0  0
  139.6410   75.9010  221.6720 C   0  0  0  0  0  0  0  0  0  0  0  0
  138.9880   76.0780  222.7310 O   0  0  0  0  0  0  0  0  0  0  0  0
  140.0760   77.0990  220.9910 N   0  0  0  0  0  0  0  0  0  0  0  0
  139.1460   77.7230  220.1160 C   0  0  0  0  0  0  0  0  0  0  0  0
  139.7730   78.4120  218.9350 C   0  0  0  0  0  0  0  0  0  0  0  0
  141.1870   78.8480  219.1920 C   0  0  0  0  0  0  0  0  0  0  0  0
  142.0310   77.8470  219.8920 C   0  0  0  0  0  0  0  0  0  0  0  0
  141.4300   77.5720  221.2550 C   0  0  1  0  0  0  0  0  0  0  0  0
  141.4800   78.7550  222.1220 C   0  0  0  0  0  0  0  0  0  0  0  0
  140.3260   79.1360  222.8140 C   0  0  0  0  0  0  0  0  0  0  0  0
  140.3250   80.2410  223.6570 C   0  0  0  0  0  0  0  0  0  0  0  0
  141.4510   81.0040  223.8440 C   0  0  0  0  0  0  0  0  0  0  0  0
  142.5930   80.6420  223.1720 C   0  0  0  0  0  0  0  0  0  0  0  0
  142.5890   79.5400  222.3330 C   0  0  0  0  0  0  0  0  0  0  0  0
  140.2250   71.5080  223.4520 C   0  0  0  0  0  0  0  0  0  0  0  0
  139.5330   70.3260  223.3370 C   0  0  0  0  0  0  0  0  0  0  0  0
  139.3060   69.4720  224.4050 C   0  0  0  0  0  0  0  0  0  0  0  0
  139.8030   69.8370  225.6410 C   0  0  0  0  0  0  0  0  0  0  0  0
  139.6380   69.0690  226.7680 C   0  0  0  0  0  0  0  0  0  0  0  0
  140.1230   69.4110  228.0070 C   0  0  0  0  0  0  0  0  0  0  0  0
  139.9780   68.6830  229.1200 F   0  0  0  0  0  0  0  0  0  0  0  0
  140.8210   70.6090  228.1100 C   0  0  0  0  0  0  0  0  0  0  0  0
  140.9880   71.3840  226.9730 C   0  0  0  0  0  0  0  0  0  0  0  0
  140.4880   71.0140  225.7410 C   0  0  0  0  0  0  0  0  0  0  0  0
  140.6930   71.8200  224.6910 N   0  0  0  0  0  0  0  0  0  0  0  0
  139.0950   73.8850  223.0530 H   0  0  0  0  0  0  0  0  0  0  0  0
  140.9703   74.5078  220.8059 H   0  0  0  0  0  0  0  0  0  0  0  0
  139.2611   74.2976  220.3405 H   0  0  0  0  0  0  0  0  0  0  0  0
  138.4570   76.9526  219.7395 H   0  0  0  0  0  0  0  0  0  0  0  0
  138.6370   78.5027  220.7016 H   0  0  0  0  0  0  0  0  0  0  0  0
  139.7700   77.7176  218.0819 H   0  0  0  0  0  0  0  0  0  0  0  0
  139.1820   79.3169  218.7303 H   0  0  0  0  0  0  0  0  0  0  0  0
  141.6567   79.0738  218.2233 H   0  0  0  0  0  0  0  0  0  0  0  0
  141.1250   79.7206  219.8589 H   0  0  0  0  0  0  0  0  0  0  0  0
  142.0629   76.9160  219.3070 H   0  0  0  0  0  0  0  0  0  0  0  0
  143.0546   78.2337  220.0051 H   0  0  0  0  0  0  0  0  0  0  0  0
  141.9983   76.8145  221.8147 H   0  0  0  0  0  0  0  0  0  0  0  0
  139.4030   78.5509  222.6889 H   0  0  0  0  0  0  0  0  0  0  0  0
  139.3997   80.5108  224.1872 H   0  0  0  0  0  0  0  0  0  0  0  0
  141.4390   81.8783  224.5114 H   0  0  0  0  0  0  0  0  0  0  0  0
  143.5141   81.2294  223.3007 H   0  0  0  0  0  0  0  0  0  0  0  0
  143.5204   79.2796  221.8088 H   0  0  0  0  0  0  0  0  0  0  0  0
  139.1401   70.0439  222.3491 H   0  0  0  0  0  0  0  0  0  0  0  0
  138.7478   68.5335  224.2724 H   0  0  0  0  0  0  0  0  0  0  0  0
  139.0843   68.1233  226.6726 H   0  0  0  0  0  0  0  0  0  0  0  0
  141.2332   70.9358  229.0761 H   0  0  0  0  0  0  0  0  0  0  0  0
  141.5409   72.3313  227.0559 H   0  0  0  0  0  0  0  0  0  0  0  0
  1  2  2  0
  2  3  1  0
  3  4  1  0
  4  5  1  0
  5  6  2  0
  5  7  1  0
  7  8  1  0
  8  9  1  0
  9 10  1  0
 10 11  1  0
 11 12  1  0
 12 13  1  0
 13 14  2  0
 14 15  1  0
 15 16  2  0
 16 17  1  0
 17 18  2  0
  2 19  1  0
 19 20  2  0
 20 21  1  0
 21 22  2  0
 22 23  1  0
 23 24  2  0
 24 25  1  0
 24 26  1  0
 26 27  2  0
 27 28  1  0
 28 29  2  0
 12  7  1  0
 18 13  1  0
 29 19  1  0
 28 22  1  0
  3 30  1  0
  4 31  1  0
  4 32  1  0
  8 33  1  0
  8 34  1  0
  9 35  1  0
  9 36  1  0
 10 37  1  0
 10 38  1  0
 11 39  1  0
 11 40  1  0
 12 41  1  1
 14 42  1  0
 15 43  1  0
 16 44  1  0
 17 45  1  0
 18 46  1  0
 20 47  1  0
 21 48  1  0
 23 49  1  0
 26 50  1  0
 27 51  1  0
M  END
>  <smiles>  (17) 
O=C(NCC(=O)N1CCCC[C@H]1c1ccccc1)c1ccc2cc(F)ccc2n1

>  <score_type>  (17) 
oracle

>  <origin>  (17) 
autodockgpu

>  <m_score__min__energy>  (17) 
-9.2400000000000002

>  <m_primary>  (17) 
energy

>  <rmsd>  (17) 
1.9882325474939453

>  <m_score__min__rmsd>  (17) 
1.9882325474939453

>  <meeko>  (17) 
{"free_energy": -8.94, "intermolecular_energy": -10.43, "internal_energy": -1.9, "cluster_size": 44, "cluster_id": 1, "rank_in_cluster": 14}

>  <energy>  (17) 
-8.91

>  <cluster_rmsd>  (17) 
1.09

>  <cluster>  (17) 
1

$$$$

     RDKit          3D

 51 54  0  0  0  0  0  0  0  0999 V2000
  140.2850   71.7310  221.0400 O   0  0  0  0  0  0  0  0  0  0  0  0
  139.9710   72.2330  222.1490 C   0  0  0  0  0  0  0  0  0  0  0  0
  139.6380   73.5950  222.3230 N   0  0  0  0  0  0  0  0  0  0  0  0
  139.6380   74.5120  221.2060 C   0  0  0  0  0  0  0  0  0  0  0  0
  139.5570   75.8740  221.7450 C   0  0  0  0  0  0  0  0  0  0  0  0
  139.0090   76.1070  222.8520 O   0  0  0  0  0  0  0  0  0  0  0  0
  140.0920   77.0220  221.0500 N   0  0  0  0  0  0  0  0  0  0  0  0
  139.2540   77.6480  220.0890 C   0  0  0  0  0  0  0  0  0  0  0  0
  139.9900   78.2600  218.9300 C   0  0  0  0  0  0  0  0  0  0  0  0
  141.4030   78.6450  219.2680 C   0  0  0  0  0  0  0  0  0  0  0  0
  142.1500   77.6380  220.0630 C   0  0  0  0  0  0  0  0  0  0  0  0
  141.4450   77.4470  221.3910 C   0  0  1  0  0  0  0  0  0  0  0  0
  141.4900   78.6610  222.2130 C   0  0  0  0  0  0  0  0  0  0  0  0
  140.3180   79.1000  222.8370 C   0  0  0  0  0  0  0  0  0  0  0  0
  140.3110   80.2370  223.6350 C   0  0  0  0  0  0  0  0  0  0  0  0
  141.4490   80.9770  223.8430 C   0  0  0  0  0  0  0  0  0  0  0  0
  142.6080   80.5590  223.2370 C   0  0  0  0  0  0  0  0  0  0  0  0
  142.6100   79.4240  222.4430 C   0  0  0  0  0  0  0  0  0  0  0  0
  139.9500   71.3580  223.3330 C   0  0  0  0  0  0  0  0  0  0  0  0
  139.5240   70.0530  223.2720 C   0  0  0  0  0  0  0  0  0  0  0  0
  139.4950   69.2120  224.3750 C   0  0  0  0  0  0  0  0  0  0  0  0
  139.9170   69.7220  225.5880 C   0  0  0  0  0  0  0  0  0  0  0  0
  139.9310   68.9810  226.7440 C   0  0  0  0  0  0  0  0  0  0  0  0
  140.3460   69.4660  227.9600 C   0  0  0  0  0  0  0  0  0  0  0  0
  140.3720   68.7680  229.1010 F   0  0  0  0  0  0  0  0  0  0  0  0
  140.7750   70.7880  228.0070 C   0  0  0  0  0  0  0  0  0  0  0  0
  140.7610   71.5350  226.8400 C   0  0  0  0  0  0  0  0  0  0  0  0
  140.3370   71.0200  225.6320 C   0  0  0  0  0  0  0  0  0  0  0  0
  140.3540   71.8100  224.5500 N   0  0  0  0  0  0  0  0  0  0  0  0
  139.3820   73.9590  223.2840 H   0  0  0  0  0  0  0  0  0  0  0  0
  140.5644   74.3939  220.6247 H   0  0  0  0  0  0  0  0  0  0  0  0
  138.7844   74.3097  220.5423 H   0  0  0  0  0  0  0  0  0  0  0  0
  138.5582   76.8927  219.6948 H   0  0  0  0  0  0  0  0  0  0  0  0
  138.7423   78.4724  220.6073 H   0  0  0  0  0  0  0  0  0  0  0  0
  140.0128   77.5320  218.1057 H   0  0  0  0  0  0  0  0  0  0  0  0
  139.4563   79.1805  218.6508 H   0  0  0  0  0  0  0  0  0  0  0  0
  141.9473   78.8097  218.3264 H   0  0  0  0  0  0  0  0  0  0  0  0
  141.3366   79.5466  219.8947 H   0  0  0  0  0  0  0  0  0  0  0  0
  142.1780   76.6829  219.5181 H   0  0  0  0  0  0  0  0  0  0  0  0
  143.1806   77.9834  220.2321 H   0  0  0  0  0  0  0  0  0  0  0  0
  141.9383   76.6904  222.0189 H   0  0  0  0  0  0  0  0  0  0  0  0
  139.3852   78.5350  222.6934 H   0  0  0  0  0  0  0  0  0  0  0  0
  139.3712   80.5523  224.1118 H   0  0  0  0  0  0  0  0  0  0  0  0
  141.4325   81.8768  224.4755 H   0  0  0  0  0  0  0  0  0  0  0  0
  143.5384   81.1275  223.3826 H   0  0  0  0  0  0  0  0  0  0  0  0
  143.5560   79.1177  221.9726 H   0  0  0  0  0  0  0  0  0  0  0  0
  139.1899   69.6561  222.3020 H   0  0  0  0  0  0  0  0  0  0  0  0
  139.1471   68.1722  224.2868 H   0  0  0  0  0  0  0  0  0  0  0  0
  139.5894   67.9366  226.6930 H   0  0  0  0  0  0  0  0  0  0  0  0
  141.1189   71.2323  228.9527 H   0  0  0  0  0  0  0  0  0  0  0  0
  141.1015   72.5803  226.8780 H   0  0  0  0  0  0  0  0  0  0  0  0
  1  2  2  0
  2  3  1  0
  3  4  1  0
  4  5  1  0
  5  6  2  0
  5  7  1  0
  7  8  1  0
  8  9  1  0
  9 10  1  0
 10 11  1  0
 11 12  1  0
 12 13  1  0
 13 14  2  0
 14 15  1  0
 15 16  2  0
 16 17  1  0
 17 18  2  0
  2 19  1  0
 19 20  2  0
 20 21  1  0
 21 22  2  0
 22 23  1  0
 23 24  2  0
 24 25  1  0
 24 26  1  0
 26 27  2  0
 27 28  1  0
 28 29  2  0
 12  7  1  0
 18 13  1  0
 29 19  1  0
 28 22  1  0
  3 30  1  0
  4 31  1  0
  4 32  1  0
  8 33  1  0
  8 34  1  0
  9 35  1  0
  9 36  1  0
 10 37  1  0
 10 38  1  0
 11 39  1  0
 11 40  1  0
 12 41  1  1
 14 42  1  0
 15 43  1  0
 16 44  1  0
 17 45  1  0
 18 46  1  0
 20 47  1  0
 21 48  1  0
 23 49  1  0
 26 50  1  0
 27 51  1  0
M  END
>  <smiles>  (18) 
O=C(NCC(=O)N1CCCC[C@H]1c1ccccc1)c1ccc2cc(F)ccc2n1

>  <score_type>  (18) 
oracle

>  <origin>  (18) 
autodockgpu

>  <m_score__min__energy>  (18) 
-9.2400000000000002

>  <m_primary>  (18) 
energy

>  <rmsd>  (18) 
1.8721033444463342

>  <m_score__min__rmsd>  (18) 
1.8721033444463342

>  <meeko>  (18) 
{"free_energy": -8.75, "intermolecular_energy": -10.24, "internal_energy": -2.03, "cluster_size": 44, "cluster_id": 1, "rank_in_cluster": 31}

>  <energy>  (18) 
-8.9

>  <cluster_rmsd>  (18) 
1.1

>  <cluster>  (18) 
1

$$$$

     RDKit          3D

 51 54  0  0  0  0  0  0  0  0999 V2000
  141.3190   72.2510  221.5510 O   0  0  0  0  0  0  0  0  0  0  0  0
  140.3150   72.4350  222.2850 C   0  0  0  0  0  0  0  0  0  0  0  0
  139.3580   73.4490  222.0600 N   0  0  0  0  0  0  0  0  0  0  0  0
  139.4820   74.3570  220.9430 C   0  0  0  0  0  0  0  0  0  0  0  0
  140.5740   75.2890  221.2420 C   0  0  0  0  0  0  0  0  0  0  0  0
  140.6370   75.8900  222.3440 O   0  0  0  0  0  0  0  0  0  0  0  0
  141.6360   75.5750  220.3050 N   0  0  0  0  0  0  0  0  0  0  0  0
  142.1290   76.9070  220.2690 C   0  0  0  0  0  0  0  0  0  0  0  0
  142.6040   77.3550  218.9150 C   0  0  0  0  0  0  0  0  0  0  0  0
  143.0470   76.2170  218.0410 C   0  0  0  0  0  0  0  0  0  0  0  0
  142.1550   75.0300  218.0640 C   0  0  0  0  0  0  0  0  0  0  0  0
  142.1180   74.4770  219.4750 C   0  0  1  0  0  0  0  0  0  0  0  0
  143.4240   73.9550  219.8910 C   0  0  0  0  0  0  0  0  0  0  0  0
  143.7040   72.5990  219.6990 C   0  0  0  0  0  0  0  0  0  0  0  0
  144.9300   72.0570  220.0660 C   0  0  0  0  0  0  0  0  0  0  0  0
  145.9160   72.8290  220.6310 C   0  0  0  0  0  0  0  0  0  0  0  0
  145.6560   74.1630  220.8270 C   0  0  0  0  0  0  0  0  0  0  0  0
  144.4320   74.6970  220.4590 C   0  0  0  0  0  0  0  0  0  0  0  0
  140.1240   71.5470  223.4440 C   0  0  0  0  0  0  0  0  0  0  0  0
  139.4200   70.3700  223.3570 C   0  0  0  0  0  0  0  0  0  0  0  0
  139.2270   69.5200  224.4360 C   0  0  0  0  0  0  0  0  0  0  0  0
  139.7740   69.8840  225.6510 C   0  0  0  0  0  0  0  0  0  0  0  0
  139.6470   69.1190  226.7850 C   0  0  0  0  0  0  0  0  0  0  0  0
  140.1810   69.4600  228.0030 C   0  0  0  0  0  0  0  0  0  0  0  0
  140.0740   68.7350  229.1230 F   0  0  0  0  0  0  0  0  0  0  0  0
  140.8920   70.6520  228.0770 C   0  0  0  0  0  0  0  0  0  0  0  0
  141.0210   71.4240  226.9320 C   0  0  0  0  0  0  0  0  0  0  0  0
  140.4710   71.0550  225.7210 C   0  0  0  0  0  0  0  0  0  0  0  0
  140.6410   71.8580  224.6620 N   0  0  0  0  0  0  0  0  0  0  0  0
  138.5330   73.5530  222.7150 H   0  0  0  0  0  0  0  0  0  0  0  0
  139.7113   73.7936  220.0265 H   0  0  0  0  0  0  0  0  0  0  0  0
  138.5410   74.9050  220.7870 H   0  0  0  0  0  0  0  0  0  0  0  0
  141.3223   77.5816  220.5915 H   0  0  0  0  0  0  0  0  0  0  0  0
  143.0038   76.9370  220.9352 H   0  0  0  0  0  0  0  0  0  0  0  0
  141.7805   77.8830  218.4119 H   0  0  0  0  0  0  0  0  0  0  0  0
  143.4758   78.0072  219.0720 H   0  0  0  0  0  0  0  0  0  0  0  0
  143.1030   76.5829  217.0051 H   0  0  0  0  0  0  0  0  0  0  0  0
  144.0175   75.8826  218.4364 H   0  0  0  0  0  0  0  0  0  0  0  0
  141.1409   75.3230  217.7546 H   0  0  0  0  0  0  0  0  0  0  0  0
  142.5328   74.2638  217.3710 H   0  0  0  0  0  0  0  0  0  0  0  0
  141.4507   73.6071  219.5641 H   0  0  0  0  0  0  0  0  0  0  0  0
  142.9395   71.9486  219.2489 H   0  0  0  0  0  0  0  0  0  0  0  0
  145.1151   70.9854  219.9003 H   0  0  0  0  0  0  0  0  0  0  0  0
  146.8839   72.3920  220.9175 H   0  0  0  0  0  0  0  0  0  0  0  0
  146.4227   74.8101  221.2780 H   0  0  0  0  0  0  0  0  0  0  0  0
  144.2578   75.7696  220.6301 H   0  0  0  0  0  0  0  0  0  0  0  0
  138.9888   70.0884  222.3850 H   0  0  0  0  0  0  0  0  0  0  0  0
  138.6565   68.5858  224.3276 H   0  0  0  0  0  0  0  0  0  0  0  0
  139.0838   68.1769  226.7128 H   0  0  0  0  0  0  0  0  0  0  0  0
  141.3439   70.9770  229.0258 H   0  0  0  0  0  0  0  0  0  0  0  0
  141.5837   72.3673  226.9913 H   0  0  0  0  0  0  0  0  0  0  0  0
  1  2  2  0
  2  3  1  0
  3  4  1  0
  4  5  1  0
  5  6  2  0
  5  7  1  0
  7  8  1  0
  8  9  1  0
  9 10  1  0
 10 11  1  0
 11 12  1  0
 12 13  1  0
 13 14  2  0
 14 15  1  0
 15 16  2  0
 16 17  1  0
 17 18  2  0
  2 19  1  0
 19 20  2  0
 20 21  1  0
 21 22  2  0
 22 23  1  0
 23 24  2  0
 24 25  1  0
 24 26  1  0
 26 27  2  0
 27 28  1  0
 28 29  2  0
 12  7  1  0
 18 13  1  0
 29 19  1  0
 28 22  1  0
  3 30  1  0
  4 31  1  0
  4 32  1  0
  8 33  1  0
  8 34  1  0
  9 35  1  0
  9 36  1  0
 10 37  1  0
 10 38  1  0
 11 39  1  0
 11 40  1  0
 12 41  1  6
 14 42  1  0
 15 43  1  0
 16 44  1  0
 17 45  1  0
 18 46  1  0
 20 47  1  0
 21 48  1  0
 23 49  1  0
 26 50  1  0
 27 51  1  0
M  END
>  <smiles>  (19) 
O=C(NCC(=O)N1CCCC[C@H]1c1ccccc1)c1ccc2cc(F)ccc2n1

>  <score_type>  (19) 
oracle

>  <origin>  (19) 
autodockgpu

>  <m_score__min__energy>  (19) 
-9.2400000000000002

>  <m_primary>  (19) 
energy

>  <rmsd>  (19) 
2.2257611738231327

>  <m_score__min__rmsd>  (19) 
2.2257611738231327

>  <meeko>  (19) 
{"free_energy": -8.86, "intermolecular_energy": -10.35, "internal_energy": -1.69, "cluster_size": 4, "cluster_id": 2, "rank_in_cluster": 3}

>  <energy>  (19) 
-8.89

>  <cluster_rmsd>  (19) 
1.1

>  <cluster>  (19) 
1

$$$$

     RDKit          3D

 51 54  0  0  0  0  0  0  0  0999 V2000
  141.3280   72.1300  221.3910 O   0  0  0  0  0  0  0  0  0  0  0  0
  140.4210   72.4180  222.2130 C   0  0  0  0  0  0  0  0  0  0  0  0
  139.5760   73.5420  222.0820 N   0  0  0  0  0  0  0  0  0  0  0  0
  139.7090   74.4490  220.9650 C   0  0  0  0  0  0  0  0  0  0  0  0
  140.8990   75.2750  221.1980 C   0  0  0  0  0  0  0  0  0  0  0  0
  141.0950   75.8440  222.3020 O   0  0  0  0  0  0  0  0  0  0  0  0
  141.9120   75.4870  220.1900 N   0  0  0  0  0  0  0  0  0  0  0  0
  142.4410   76.8000  220.0670 C   0  0  0  0  0  0  0  0  0  0  0  0
  142.8500   77.1750  218.6700 C   0  0  0  0  0  0  0  0  0  0  0  0
  143.2070   75.9860  217.8230 C   0  0  0  0  0  0  0  0  0  0  0  0
  142.2830   74.8300  217.9490 C   0  0  0  0  0  0  0  0  0  0  0  0
  142.3120   74.3390  219.3830 C   0  0  1  0  0  0  0  0  0  0  0  0
  143.6250   73.7940  219.7470 C   0  0  0  0  0  0  0  0  0  0  0  0
  144.5120   74.5930  220.4740 C   0  0  0  0  0  0  0  0  0  0  0  0
  145.7620   74.1190  220.8530 C   0  0  0  0  0  0  0  0  0  0  0  0
  146.1780   72.8510  220.5310 C   0  0  0  0  0  0  0  0  0  0  0  0
  145.3180   72.0530  219.8170 C   0  0  0  0  0  0  0  0  0  0  0  0
  144.0730   72.5310  219.4410 C   0  0  0  0  0  0  0  0  0  0  0  0
  140.2270   71.5380  223.3770 C   0  0  0  0  0  0  0  0  0  0  0  0
  139.5650   70.3370  223.2870 C   0  0  0  0  0  0  0  0  0  0  0  0
  139.3700   69.4940  224.3700 C   0  0  0  0  0  0  0  0  0  0  0  0
  139.8710   69.8900  225.5950 C   0  0  0  0  0  0  0  0  0  0  0  0
  139.7380   69.1350  226.7350 C   0  0  0  0  0  0  0  0  0  0  0  0
  140.2270   69.5080  227.9630 C   0  0  0  0  0  0  0  0  0  0  0  0
  140.1120   68.7940  229.0880 F   0  0  0  0  0  0  0  0  0  0  0  0
  140.8950   70.7250  228.0410 C   0  0  0  0  0  0  0  0  0  0  0  0
  141.0310   71.4860  226.8910 C   0  0  0  0  0  0  0  0  0  0  0  0
  140.5270   71.0850  225.6700 C   0  0  0  0  0  0  0  0  0  0  0  0
  140.7000   71.8800  224.6050 N   0  0  0  0  0  0  0  0  0  0  0  0
  138.8290   73.7310  222.8090 H   0  0  0  0  0  0  0  0  0  0  0  0
  139.8261   73.8787  220.0317 H   0  0  0  0  0  0  0  0  0  0  0  0
  138.8136   75.0815  220.8746 H   0  0  0  0  0  0  0  0  0  0  0  0
  141.6743   77.5130  220.4044 H   0  0  0  0  0  0  0  0  0  0  0  0
  143.3534   76.8302  220.6806 H   0  0  0  0  0  0  0  0  0  0  0  0
  142.0152   77.7081  218.1916 H   0  0  0  0  0  0  0  0  0  0  0  0
  143.7486   77.8046  218.7483 H   0  0  0  0  0  0  0  0  0  0  0  0
  143.2134   76.3055  216.7704 H   0  0  0  0  0  0  0  0  0  0  0  0
  144.1883   75.6374  218.1775 H   0  0  0  0  0  0  0  0  0  0  0  0
  141.2617   75.1419  217.6851 H   0  0  0  0  0  0  0  0  0  0  0  0
  142.5969   74.0234  217.2701 H   0  0  0  0  0  0  0  0  0  0  0  0
  141.6256   73.4954  219.5482 H   0  0  0  0  0  0  0  0  0  0  0  0
  144.2152   75.6153  220.7511 H   0  0  0  0  0  0  0  0  0  0  0  0
  146.4343   74.7756  221.4247 H   0  0  0  0  0  0  0  0  0  0  0  0
  147.1697   72.4853  220.8355 H   0  0  0  0  0  0  0  0  0  0  0  0
  145.6186   71.0310  219.5427 H   0  0  0  0  0  0  0  0  0  0  0  0
  143.4095   71.8661  218.8686 H   0  0  0  0  0  0  0  0  0  0  0  0
  139.1704   70.0295  222.3073 H   0  0  0  0  0  0  0  0  0  0  0  0
  138.8335   68.5403  224.2576 H   0  0  0  0  0  0  0  0  0  0  0  0
  139.2080   68.1740  226.6597 H   0  0  0  0  0  0  0  0  0  0  0  0
  141.3078   71.0771  228.9979 H   0  0  0  0  0  0  0  0  0  0  0  0
  141.5615   72.4476  226.9535 H   0  0  0  0  0  0  0  0  0  0  0  0
  1  2  2  0
  2  3  1  0
  3  4  1  0
  4  5  1  0
  5  6  2  0
  5  7  1  0
  7  8  1  0
  8  9  1  0
  9 10  1  0
 10 11  1  0
 11 12  1  0
 12 13  1  0
 13 14  2  0
 14 15  1  0
 15 16  2  0
 16 17  1  0
 17 18  2  0
  2 19  1  0
 19 20  2  0
 20 21  1  0
 21 22  2  0
 22 23  1  0
 23 24  2  0
 24 25  1  0
 24 26  1  0
 26 27  2  0
 27 28  1  0
 28 29  2  0
 12  7  1  0
 18 13  1  0
 29 19  1  0
 28 22  1  0
  3 30  1  0
  4 31  1  0
  4 32  1  0
  8 33  1  0
  8 34  1  0
  9 35  1  0
  9 36  1  0
 10 37  1  0
 10 38  1  0
 11 39  1  0
 11 40  1  0
 12 41  1  6
 14 42  1  0
 15 43  1  0
 16 44  1  0
 17 45  1  0
 18 46  1  0
 20 47  1  0
 21 48  1  0
 23 49  1  0
 26 50  1  0
 27 51  1  0
M  END
>  <smiles>  (20) 
O=C(NCC(=O)N1CCCC[C@H]1c1ccccc1)c1ccc2cc(F)ccc2n1

>  <score_type>  (20) 
oracle

>  <origin>  (20) 
autodockgpu

>  <m_score__min__energy>  (20) 
-9.2400000000000002

>  <m_primary>  (20) 
energy

>  <rmsd>  (20) 
2.3161013869155025

>  <m_score__min__rmsd>  (20) 
2.3161013869155025

>  <meeko>  (20) 
{"free_energy": -8.87, "intermolecular_energy": -10.36, "internal_energy": -1.67, "cluster_size": 4, "cluster_id": 2, "rank_in_cluster": 2}

>  <energy>  (20) 
-8.89

>  <cluster_rmsd>  (20) 
1.11

>  <cluster>  (20) 
1

$$$$

     RDKit          3D

 51 54  0  0  0  0  0  0  0  0999 V2000
  141.1840   71.9980  221.3300 O   0  0  0  0  0  0  0  0  0  0  0  0
  140.4810   72.4250  222.2820 C   0  0  0  0  0  0  0  0  0  0  0  0
  139.9000   73.7130  222.3070 N   0  0  0  0  0  0  0  0  0  0  0  0
  140.0850   74.6370  221.2100 C   0  0  0  0  0  0  0  0  0  0  0  0
  139.6890   75.9700  221.6760 C   0  0  0  0  0  0  0  0  0  0  0  0
  138.9730   76.1200  222.6980 O   0  0  0  0  0  0  0  0  0  0  0  0
  140.0900   77.1840  221.0020 N   0  0  0  0  0  0  0  0  0  0  0  0
  139.1140   77.8320  220.1980 C   0  0  0  0  0  0  0  0  0  0  0  0
  139.6750   78.5500  219.0020 C   0  0  0  0  0  0  0  0  0  0  0  0
  141.1030   78.9760  219.1890 C   0  0  0  0  0  0  0  0  0  0  0  0
  141.9820   77.9550  219.8140 C   0  0  0  0  0  0  0  0  0  0  0  0
  141.4580   77.6470  221.2020 C   0  0  1  0  0  0  0  0  0  0  0  0
  141.5610   78.8070  222.0950 C   0  0  0  0  0  0  0  0  0  0  0  0
  140.3940   79.3380  222.6520 C   0  0  0  0  0  0  0  0  0  0  0  0
  140.4390   80.4280  223.5120 C   0  0  0  0  0  0  0  0  0  0  0  0
  141.6270   81.0280  223.8510 C   0  0  0  0  0  0  0  0  0  0  0  0
  142.7830   80.5180  223.3120 C   0  0  0  0  0  0  0  0  0  0  0  0
  142.7320   79.4310  222.4540 C   0  0  0  0  0  0  0  0  0  0  0  0
  140.2500   71.5400  223.4340 C   0  0  0  0  0  0  0  0  0  0  0  0
  139.5950   70.3380  223.3150 C   0  0  0  0  0  0  0  0  0  0  0  0
  139.3660   69.4880  224.3870 C   0  0  0  0  0  0  0  0  0  0  0  0
  139.8230   69.8800  225.6310 C   0  0  0  0  0  0  0  0  0  0  0  0
  139.6520   69.1190  226.7610 C   0  0  0  0  0  0  0  0  0  0  0  0
  140.0980   69.4870  228.0070 C   0  0  0  0  0  0  0  0  0  0  0  0
  139.9470   68.7670  229.1240 F   0  0  0  0  0  0  0  0  0  0  0  0
  140.7600   70.7050  228.1140 C   0  0  0  0  0  0  0  0  0  0  0  0
  140.9320   71.4730  226.9730 C   0  0  0  0  0  0  0  0  0  0  0  0
  140.4720   71.0760  225.7330 C   0  0  0  0  0  0  0  0  0  0  0  0
  140.6790   71.8770  224.6790 N   0  0  0  0  0  0  0  0  0  0  0  0
  139.3180   74.0160  223.1380 H   0  0  0  0  0  0  0  0  0  0  0  0
  141.1411   74.6464  220.9025 H   0  0  0  0  0  0  0  0  0  0  0  0
  139.4753   74.3349  220.3458 H   0  0  0  0  0  0  0  0  0  0  0  0
  138.4022   77.0729  219.8415 H   0  0  0  0  0  0  0  0  0  0  0  0
  138.6415   78.5971  220.8316 H   0  0  0  0  0  0  0  0  0  0  0  0
  139.6207   77.8782  218.1327 H   0  0  0  0  0  0  0  0  0  0  0  0
  139.0767   79.4613  218.8551 H   0  0  0  0  0  0  0  0  0  0  0  0
  141.5175   79.2256  218.2011 H   0  0  0  0  0  0  0  0  0  0  0  0
  141.0824   79.8312  219.8805 H   0  0  0  0  0  0  0  0  0  0  0  0
  141.9769   77.0392  219.2047 H   0  0  0  0  0  0  0  0  0  0  0  0
  143.0120   78.3358  219.8781 H   0  0  0  0  0  0  0  0  0  0  0  0
  142.0544   76.8748  221.7099 H   0  0  0  0  0  0  0  0  0  0  0  0
  139.4227   78.8846  222.4049 H   0  0  0  0  0  0  0  0  0  0  0  0
  139.5007   80.8199  223.9315 H   0  0  0  0  0  0  0  0  0  0  0  0
  141.6520   81.8905  224.5332 H   0  0  0  0  0  0  0  0  0  0  0  0
  143.7523   80.9739  223.5622 H   0  0  0  0  0  0  0  0  0  0  0  0
  143.6762   79.0482  222.0393 H   0  0  0  0  0  0  0  0  0  0  0  0
  139.2346   70.0349  222.3209 H   0  0  0  0  0  0  0  0  0  0  0  0
  138.8377   68.5328  224.2513 H   0  0  0  0  0  0  0  0  0  0  0  0
  139.1266   68.1576  226.6627 H   0  0  0  0  0  0  0  0  0  0  0  0
  141.1401   71.0526  229.0859 H   0  0  0  0  0  0  0  0  0  0  0  0
  141.4555   72.4366  227.0587 H   0  0  0  0  0  0  0  0  0  0  0  0
  1  2  2  0
  2  3  1  0
  3  4  1  0
  4  5  1  0
  5  6  2  0
  5  7  1  0
  7  8  1  0
  8  9  1  0
  9 10  1  0
 10 11  1  0
 11 12  1  0
 12 13  1  0
 13 14  2  0
 14 15  1  0
 15 16  2  0
 16 17  1  0
 17 18  2  0
  2 19  1  0
 19 20  2  0
 20 21  1  0
 21 22  2  0
 22 23  1  0
 23 24  2  0
 24 25  1  0
 24 26  1  0
 26 27  2  0
 27 28  1  0
 28 29  2  0
 12  7  1  0
 18 13  1  0
 29 19  1  0
 28 22  1  0
  3 30  1  0
  4 31  1  0
  4 32  1  0
  8 33  1  0
  8 34  1  0
  9 35  1  0
  9 36  1  0
 10 37  1  0
 10 38  1  0
 11 39  1  0
 11 40  1  0
 12 41  1  1
 14 42  1  0
 15 43  1  0
 16 44  1  0
 17 45  1  0
 18 46  1  0
 20 47  1  0
 21 48  1  0
 23 49  1  0
 26 50  1  0
 27 51  1  0
M  END
>  <smiles>  (21) 
O=C(NCC(=O)N1CCCC[C@H]1c1ccccc1)c1ccc2cc(F)ccc2n1

>  <score_type>  (21) 
oracle

>  <origin>  (21) 
autodockgpu

>  <m_score__min__energy>  (21) 
-9.2400000000000002

>  <m_primary>  (21) 
energy

>  <rmsd>  (21) 
2.0512636223436655

>  <m_score__min__rmsd>  (21) 
2.0512636223436655

>  <meeko>  (21) 
{"free_energy": -8.89, "intermolecular_energy": -10.38, "internal_energy": -1.92, "cluster_size": 44, "cluster_id": 1, "rank_in_cluster": 19}

>  <energy>  (21) 
-8.88

>  <cluster_rmsd>  (21) 
1.14

>  <cluster>  (21) 
1

$$$$

     RDKit          3D

 51 54  0  0  0  0  0  0  0  0999 V2000
  141.3660   72.2070  221.4790 O   0  0  0  0  0  0  0  0  0  0  0  0
  140.4170   72.4610  222.2640 C   0  0  0  0  0  0  0  0  0  0  0  0
  139.5420   73.5590  222.1010 N   0  0  0  0  0  0  0  0  0  0  0  0
  139.6920   74.4740  220.9930 C   0  0  0  0  0  0  0  0  0  0  0  0
  140.9030   75.2680  221.2280 C   0  0  0  0  0  0  0  0  0  0  0  0
  141.1270   75.8050  222.3420 O   0  0  0  0  0  0  0  0  0  0  0  0
  141.9070   75.4820  220.2110 N   0  0  0  0  0  0  0  0  0  0  0  0
  142.3810   76.8110  220.0370 C   0  0  0  0  0  0  0  0  0  0  0  0
  142.7730   77.1480  218.6250 C   0  0  0  0  0  0  0  0  0  0  0  0
  143.1790   75.9440  217.8240 C   0  0  0  0  0  0  0  0  0  0  0  0
  142.3040   74.7560  217.9960 C   0  0  0  0  0  0  0  0  0  0  0  0
  142.3540   74.3220  219.4480 C   0  0  1  0  0  0  0  0  0  0  0  0
  143.6880   73.8460  219.8300 C   0  0  0  0  0  0  0  0  0  0  0  0
  144.0680   72.5460  219.4820 C   0  0  0  0  0  0  0  0  0  0  0  0
  145.3240   72.0520  219.8100 C   0  0  0  0  0  0  0  0  0  0  0  0
  146.2420   72.8150  220.4890 C   0  0  0  0  0  0  0  0  0  0  0  0
  145.8840   74.0940  220.8380 C   0  0  0  0  0  0  0  0  0  0  0  0
  144.6300   74.5820  220.5080 C   0  0  0  0  0  0  0  0  0  0  0  0
  140.2030   71.5710  223.4160 C   0  0  0  0  0  0  0  0  0  0  0  0
  139.5200   70.3840  223.3090 C   0  0  0  0  0  0  0  0  0  0  0  0
  139.3070   69.5310  224.3810 C   0  0  0  0  0  0  0  0  0  0  0  0
  139.8110   69.9040  225.6130 C   0  0  0  0  0  0  0  0  0  0  0  0
  139.6590   69.1370  226.7430 C   0  0  0  0  0  0  0  0  0  0  0  0
  140.1510   69.4860  227.9770 C   0  0  0  0  0  0  0  0  0  0  0  0
  140.0200   68.7600  229.0930 F   0  0  0  0  0  0  0  0  0  0  0  0
  140.8410   70.6890  228.0710 C   0  0  0  0  0  0  0  0  0  0  0  0
  140.9940   71.4620  226.9310 C   0  0  0  0  0  0  0  0  0  0  0  0
  140.4870   71.0850  225.7040 C   0  0  0  0  0  0  0  0  0  0  0  0
  140.6780   71.8900  224.6500 N   0  0  0  0  0  0  0  0  0  0  0  0
  138.7610   73.7210  222.7960 H   0  0  0  0  0  0  0  0  0  0  0  0
  139.7903   73.9108  220.0532 H   0  0  0  0  0  0  0  0  0  0  0  0
  138.8121   75.1294  220.9140 H   0  0  0  0  0  0  0  0  0  0  0  0
  141.5856   77.5040  220.3485 H   0  0  0  0  0  0  0  0  0  0  0  0
  143.2915   76.9033  220.6474 H   0  0  0  0  0  0  0  0  0  0  0  0
  141.9161   77.6265  218.1283 H   0  0  0  0  0  0  0  0  0  0  0  0
  143.6445   77.8171  218.6769 H   0  0  0  0  0  0  0  0  0  0  0  0
  143.1718   76.2228  216.7600 H   0  0  0  0  0  0  0  0  0  0  0  0
  144.1741   75.6506  218.1897 H   0  0  0  0  0  0  0  0  0  0  0  0
  141.2705   75.0147  217.7223 H   0  0  0  0  0  0  0  0  0  0  0  0
  142.6510   73.9377  217.3479 H   0  0  0  0  0  0  0  0  0  0  0  0
  141.7033   73.4577  219.6468 H   0  0  0  0  0  0  0  0  0  0  0  0
  143.3596   71.9032  218.9388 H   0  0  0  0  0  0  0  0  0  0  0  0
  145.5898   71.0250  219.5189 H   0  0  0  0  0  0  0  0  0  0  0  0
  147.2337   72.4140  220.7455 H   0  0  0  0  0  0  0  0  0  0  0  0
  146.5953   74.7333  221.3814 H   0  0  0  0  0  0  0  0  0  0  0  0
  144.3755   75.6105  220.8036 H   0  0  0  0  0  0  0  0  0  0  0  0
  139.1226   70.0961  222.3245 H   0  0  0  0  0  0  0  0  0  0  0  0
  138.7549   68.5880  224.2553 H   0  0  0  0  0  0  0  0  0  0  0  0
  139.1109   68.1874  226.6540 H   0  0  0  0  0  0  0  0  0  0  0  0
  141.2581   71.0215  229.0330 H   0  0  0  0  0  0  0  0  0  0  0  0
  141.5410   72.4133  227.0071 H   0  0  0  0  0  0  0  0  0  0  0  0
  1  2  2  0
  2  3  1  0
  3  4  1  0
  4  5  1  0
  5  6  2  0
  5  7  1  0
  7  8  1  0
  8  9  1  0
  9 10  1  0
 10 11  1  0
 11 12  1  0
 12 13  1  0
 13 14  2  0
 14 15  1  0
 15 16  2  0
 16 17  1  0
 17 18  2  0
  2 19  1  0
 19 20  2  0
 20 21  1  0
 21 22  2  0
 22 23  1  0
 23 24  2  0
 24 25  1  0
 24 26  1  0
 26 27  2  0
 27 28  1  0
 28 29  2  0
 12  7  1  0
 18 13  1  0
 29 19  1  0
 28 22  1  0
  3 30  1  0
  4 31  1  0
  4 32  1  0
  8 33  1  0
  8 34  1  0
  9 35  1  0
  9 36  1  0
 10 37  1  0
 10 38  1  0
 11 39  1  0
 11 40  1  0
 12 41  1  6
 14 42  1  0
 15 43  1  0
 16 44  1  0
 17 45  1  0
 18 46  1  0
 20 47  1  0
 21 48  1  0
 23 49  1  0
 26 50  1  0
 27 51  1  0
M  END
>  <smiles>  (22) 
O=C(NCC(=O)N1CCCC[C@H]1c1ccccc1)c1ccc2cc(F)ccc2n1

>  <score_type>  (22) 
oracle

>  <origin>  (22) 
autodockgpu

>  <m_score__min__energy>  (22) 
-9.2400000000000002

>  <m_primary>  (22) 
energy

>  <rmsd>  (22) 
2.3144428248543445

>  <m_score__min__rmsd>  (22) 
2.3144428248543445

>  <meeko>  (22) 
{"free_energy": -8.87, "intermolecular_energy": -10.37, "internal_energy": -1.72, "cluster_size": 4, "cluster_id": 2, "rank_in_cluster": 1}

>  <energy>  (22) 
-8.86

>  <cluster_rmsd>  (22) 
1.14

>  <cluster>  (22) 
1

$$$$

     RDKit          3D

 51 54  0  0  0  0  0  0  0  0999 V2000
  140.8440   71.9190  221.2500 O   0  0  0  0  0  0  0  0  0  0  0  0
  140.1220   72.2820  222.2150 C   0  0  0  0  0  0  0  0  0  0  0  0
  139.4040   73.4980  222.2390 N   0  0  0  0  0  0  0  0  0  0  0  0
  139.4590   74.4190  221.1260 C   0  0  0  0  0  0  0  0  0  0  0  0
  140.2710   75.5690  221.5360 C   0  0  0  0  0  0  0  0  0  0  0  0
  141.5190   75.4790  221.6560 O   0  0  0  0  0  0  0  0  0  0  0  0
  139.7010   76.8650  221.8260 N   0  0  0  0  0  0  0  0  0  0  0  0
  138.6000   76.9040  222.7230 C   0  0  0  0  0  0  0  0  0  0  0  0
  137.6100   77.9990  222.4410 C   0  0  0  0  0  0  0  0  0  0  0  0
  138.2170   79.1700  221.7220 C   0  0  0  0  0  0  0  0  0  0  0  0
  139.1350   78.8130  220.6110 C   0  0  0  0  0  0  0  0  0  0  0  0
  140.3000   78.0260  221.1770 C   0  0  1  0  0  0  0  0  0  0  0  0
  141.1230   78.8410  222.0770 C   0  0  0  0  0  0  0  0  0  0  0  0
  141.7320   79.9970  221.5780 C   0  0  0  0  0  0  0  0  0  0  0  0
  142.5120   80.8090  222.3920 C   0  0  0  0  0  0  0  0  0  0  0  0
  142.7180   80.5120  223.7170 C   0  0  0  0  0  0  0  0  0  0  0  0
  142.1270   79.3810  224.2230 C   0  0  0  0  0  0  0  0  0  0  0  0
  141.3500   78.5750  223.4070 C   0  0  0  0  0  0  0  0  0  0  0  0
  140.0190   71.3940  223.3840 C   0  0  0  0  0  0  0  0  0  0  0  0
  139.4260   70.1560  223.3150 C   0  0  0  0  0  0  0  0  0  0  0  0
  139.3180   69.3040  224.4040 C   0  0  0  0  0  0  0  0  0  0  0  0
  139.8350   69.7320  225.6120 C   0  0  0  0  0  0  0  0  0  0  0  0
  139.7830   68.9710  226.7550 C   0  0  0  0  0  0  0  0  0  0  0  0
  140.2890   69.3750  227.9660 C   0  0  0  0  0  0  0  0  0  0  0  0
  140.2540   68.6560  229.0950 F   0  0  0  0  0  0  0  0  0  0  0  0
  140.8870   70.6290  228.0230 C   0  0  0  0  0  0  0  0  0  0  0  0
  140.9390   71.3950  226.8690 C   0  0  0  0  0  0  0  0  0  0  0  0
  140.4200   70.9630  225.6650 C   0  0  0  0  0  0  0  0  0  0  0  0
  140.5110   71.7650  224.5960 N   0  0  0  0  0  0  0  0  0  0  0  0
  138.8130   73.7480  223.0810 H   0  0  0  0  0  0  0  0  0  0  0  0
  139.9186   73.9275  220.2559 H   0  0  0  0  0  0  0  0  0  0  0  0
  138.4462   74.7440  220.8456 H   0  0  0  0  0  0  0  0  0  0  0  0
  138.0734   75.9401  222.6639 H   0  0  0  0  0  0  0  0  0  0  0  0
  139.0149   77.1045  223.7219 H   0  0  0  0  0  0  0  0  0  0  0  0
  136.8005   77.5879  221.8199 H   0  0  0  0  0  0  0  0  0  0  0  0
  137.2397   78.3646  223.4101 H   0  0  0  0  0  0  0  0  0  0  0  0
  137.3993   79.7781  221.3078 H   0  0  0  0  0  0  0  0  0  0  0  0
  138.8252   79.7070  222.4648 H   0  0  0  0  0  0  0  0  0  0  0  0
  138.5995   78.2006  219.8706 H   0  0  0  0  0  0  0  0  0  0  0  0
  139.5028   79.7264  220.1206 H   0  0  0  0  0  0  0  0  0  0  0  0
  141.0055   77.7076  220.3954 H   0  0  0  0  0  0  0  0  0  0  0  0
  141.5908   80.2683  220.5214 H   0  0  0  0  0  0  0  0  0  0  0  0
  142.9754   81.7108  221.9653 H   0  0  0  0  0  0  0  0  0  0  0  0
  143.3378   81.1607  224.3534 H   0  0  0  0  0  0  0  0  0  0  0  0
  142.2709   79.1137  225.2803 H   0  0  0  0  0  0  0  0  0  0  0  0
  140.8912   77.6764  223.8453 H   0  0  0  0  0  0  0  0  0  0  0  0
  139.0171   69.8248  222.3490 H   0  0  0  0  0  0  0  0  0  0  0  0
  138.8364   68.3196  224.3093 H   0  0  0  0  0  0  0  0  0  0  0  0
  139.3084   67.9804  226.6965 H   0  0  0  0  0  0  0  0  0  0  0  0
  141.3106   71.0058  228.9656 H   0  0  0  0  0  0  0  0  0  0  0  0
  141.4127   72.3867  226.9144 H   0  0  0  0  0  0  0  0  0  0  0  0
  1  2  2  0
  2  3  1  0
  3  4  1  0
  4  5  1  0
  5  6  2  0
  5  7  1  0
  7  8  1  0
  8  9  1  0
  9 10  1  0
 10 11  1  0
 11 12  1  0
 12 13  1  0
 13 14  2  0
 14 15  1  0
 15 16  2  0
 16 17  1  0
 17 18  2  0
  2 19  1  0
 19 20  2  0
 20 21  1  0
 21 22  2  0
 22 23  1  0
 23 24  2  0
 24 25  1  0
 24 26  1  0
 26 27  2  0
 27 28  1  0
 28 29  2  0
 12  7  1  0
 18 13  1  0
 29 19  1  0
 28 22  1  0
  3 30  1  0
  4 31  1  0
  4 32  1  0
  8 33  1  0
  8 34  1  0
  9 35  1  0
  9 36  1  0
 10 37  1  0
 10 38  1  0
 11 39  1  0
 11 40  1  0
 12 41  1  6
 14 42  1  0
 15 43  1  0
 16 44  1  0
 17 45  1  0
 18 46  1  0
 20 47  1  0
 21 48  1  0
 23 49  1  0
 26 50  1  0
 27 51  1  0
M  END
>  <smiles>  (23) 
O=C(NCC(=O)N1CCCC[C@H]1c1ccccc1)c1ccc2cc(F)ccc2n1

>  <score_type>  (23) 
oracle

>  <origin>  (23) 
autodockgpu

>  <m_score__min__energy>  (23) 
-9.2400000000000002

>  <m_primary>  (23) 
energy

>  <rmsd>  (23) 
2.677482244067146

>  <m_score__min__rmsd>  (23) 
2.677482244067146

>  <meeko>  (23) 
{"free_energy": -9.03, "intermolecular_energy": -10.52, "internal_energy": -1.39, "cluster_size": 44, "cluster_id": 1, "rank_in_cluster": 6}

>  <energy>  (23) 
-8.83

>  <cluster_rmsd>  (23) 
1.14

>  <cluster>  (23) 
1

$$$$

     RDKit          3D

 51 54  0  0  0  0  0  0  0  0999 V2000
  141.2020   72.0640  221.3690 O   0  0  0  0  0  0  0  0  0  0  0  0
  140.4200   72.4430  222.2790 C   0  0  0  0  0  0  0  0  0  0  0  0
  139.7380   73.6800  222.2570 N   0  0  0  0  0  0  0  0  0  0  0  0
  139.9030   74.6040  221.1580 C   0  0  0  0  0  0  0  0  0  0  0  0
  139.6310   75.9540  221.6630 C   0  0  0  0  0  0  0  0  0  0  0  0
  138.9780   76.1370  222.7210 O   0  0  0  0  0  0  0  0  0  0  0  0
  140.0880   77.1470  220.9890 N   0  0  0  0  0  0  0  0  0  0  0  0
  139.1740   77.7860  220.1090 C   0  0  0  0  0  0  0  0  0  0  0  0
  139.8180   78.4700  218.9350 C   0  0  0  0  0  0  0  0  0  0  0  0
  141.2370   78.8860  219.2030 C   0  0  0  0  0  0  0  0  0  0  0  0
  142.0620   77.8700  219.9060 C   0  0  0  0  0  0  0  0  0  0  0  0
  141.4470   77.6000  221.2650 C   0  0  1  0  0  0  0  0  0  0  0  0
  141.5070   78.7800  222.1360 C   0  0  0  0  0  0  0  0  0  0  0  0
  140.3370   79.2180  222.7620 C   0  0  0  0  0  0  0  0  0  0  0  0
  140.3430   80.3230  223.6060 C   0  0  0  0  0  0  0  0  0  0  0  0
  141.4950   81.0280  223.8580 C   0  0  0  0  0  0  0  0  0  0  0  0
  142.6530   80.6090  223.2500 C   0  0  0  0  0  0  0  0  0  0  0  0
  142.6410   79.5080  222.4100 C   0  0  0  0  0  0  0  0  0  0  0  0
  140.2030   71.5530  223.4310 C   0  0  0  0  0  0  0  0  0  0  0  0
  139.5270   70.3620  223.3200 C   0  0  0  0  0  0  0  0  0  0  0  0
  139.3100   69.5090  224.3920 C   0  0  0  0  0  0  0  0  0  0  0  0
  139.8030   69.8860  225.6270 C   0  0  0  0  0  0  0  0  0  0  0  0
  139.6470   69.1200  226.7560 C   0  0  0  0  0  0  0  0  0  0  0  0
  140.1280   69.4740  227.9930 C   0  0  0  0  0  0  0  0  0  0  0  0
  139.9930   68.7480  229.1100 F   0  0  0  0  0  0  0  0  0  0  0  0
  140.8110   70.6800  228.0920 C   0  0  0  0  0  0  0  0  0  0  0  0
  140.9680   71.4530  226.9520 C   0  0  0  0  0  0  0  0  0  0  0  0
  140.4720   71.0720  225.7210 C   0  0  0  0  0  0  0  0  0  0  0  0
  140.6660   71.8760  224.6680 N   0  0  0  0  0  0  0  0  0  0  0  0
  139.0920   73.9430  223.0540 H   0  0  0  0  0  0  0  0  0  0  0  0
  140.9322   74.5485  220.7737 H   0  0  0  0  0  0  0  0  0  0  0  0
  139.2130   74.3539  220.3386 H   0  0  0  0  0  0  0  0  0  0  0  0
  138.4776   77.0261  219.7250 H   0  0  0  0  0  0  0  0  0  0  0  0
  138.6719   78.5711  220.6934 H   0  0  0  0  0  0  0  0  0  0  0  0
  139.8112   77.7785  218.0796 H   0  0  0  0  0  0  0  0  0  0  0  0
  139.2408   79.3836  218.7295 H   0  0  0  0  0  0  0  0  0  0  0  0
  141.7165   79.1081  218.2382 H   0  0  0  0  0  0  0  0  0  0  0  0
  141.1830   79.7577  219.8718 H   0  0  0  0  0  0  0  0  0  0  0  0
  142.0842   76.9403  219.3185 H   0  0  0  0  0  0  0  0  0  0  0  0
  143.0904   78.2410  220.0271 H   0  0  0  0  0  0  0  0  0  0  0  0
  142.0007   76.8334  221.8270 H   0  0  0  0  0  0  0  0  0  0  0  0
  139.3947   78.6792  222.5840 H   0  0  0  0  0  0  0  0  0  0  0  0
  139.4038   80.6400  224.0829 H   0  0  0  0  0  0  0  0  0  0  0  0
  141.4900   81.9016  224.5265 H   0  0  0  0  0  0  0  0  0  0  0  0
  143.5936   81.1500  223.4309 H   0  0  0  0  0  0  0  0  0  0  0  0
  143.5860   79.2004  221.9383 H   0  0  0  0  0  0  0  0  0  0  0  0
  139.1389   70.0707  222.3328 H   0  0  0  0  0  0  0  0  0  0  0  0
  138.7633   68.5632  224.2634 H   0  0  0  0  0  0  0  0  0  0  0  0
  139.1051   68.1671  226.6644 H   0  0  0  0  0  0  0  0  0  0  0  0
  141.2195   71.0151  229.0568 H   0  0  0  0  0  0  0  0  0  0  0  0
  141.5090   72.4075  227.0312 H   0  0  0  0  0  0  0  0  0  0  0  0
  1  2  2  0
  2  3  1  0
  3  4  1  0
  4  5  1  0
  5  6  2  0
  5  7  1  0
  7  8  1  0
  8  9  1  0
  9 10  1  0
 10 11  1  0
 11 12  1  0
 12 13  1  0
 13 14  2  0
 14 15  1  0
 15 16  2  0
 16 17  1  0
 17 18  2  0
  2 19  1  0
 19 20  2  0
 20 21  1  0
 21 22  2  0
 22 23  1  0
 23 24  2  0
 24 25  1  0
 24 26  1  0
 26 27  2  0
 27 28  1  0
 28 29  2  0
 12  7  1  0
 18 13  1  0
 29 19  1  0
 28 22  1  0
  3 30  1  0
  4 31  1  0
  4 32  1  0
  8 33  1  0
  8 34  1  0
  9 35  1  0
  9 36  1  0
 10 37  1  0
 10 38  1  0
 11 39  1  0
 11 40  1  0
 12 41  1  1
 14 42  1  0
 15 43  1  0
 16 44  1  0
 17 45  1  0
 18 46  1  0
 20 47  1  0
 21 48  1  0
 23 49  1  0
 26 50  1  0
 27 51  1  0
M  END
>  <smiles>  (24) 
O=C(NCC(=O)N1CCCC[C@H]1c1ccccc1)c1ccc2cc(F)ccc2n1

>  <score_type>  (24) 
oracle

>  <origin>  (24) 
autodockgpu

>  <m_score__min__energy>  (24) 
-9.2400000000000002

>  <m_primary>  (24) 
energy

>  <rmsd>  (24) 
2.009185643576506

>  <m_score__min__rmsd>  (24) 
2.009185643576506

>  <meeko>  (24) 
{"free_energy": -8.94, "intermolecular_energy": -10.43, "internal_energy": -1.9, "cluster_size": 44, "cluster_id": 1, "rank_in_cluster": 13}

>  <energy>  (24) 
-8.79

>  <cluster_rmsd>  (24) 
0.7

>  <cluster>  (24) 
1

$$$$

     RDKit          3D

 51 54  0  0  0  0  0  0  0  0999 V2000
  141.4280   72.2350  221.4420 O   0  0  0  0  0  0  0  0  0  0  0  0
  140.5930   72.5520  222.3280 C   0  0  0  0  0  0  0  0  0  0  0  0
  139.8820   73.7730  222.3300 N   0  0  0  0  0  0  0  0  0  0  0  0
  140.0800   74.7530  221.2860 C   0  0  0  0  0  0  0  0  0  0  0  0
  139.1880   75.8850  221.5600 C   0  0  0  0  0  0  0  0  0  0  0  0
  138.1420   75.7430  222.2430 O   0  0  0  0  0  0  0  0  0  0  0  0
  139.4470   77.2200  221.0720 N   0  0  0  0  0  0  0  0  0  0  0  0
  138.3260   78.0740  220.8920 C   0  0  0  0  0  0  0  0  0  0  0  0
  138.4710   79.0580  219.7650 C   0  0  0  0  0  0  0  0  0  0  0  0
  139.9030   79.3880  219.4540 C   0  0  0  0  0  0  0  0  0  0  0  0
  140.8210   78.2220  219.4290 C   0  0  0  0  0  0  0  0  0  0  0  0
  140.8340   77.5840  220.8040 C   0  0  1  0  0  0  0  0  0  0  0  0
  141.4120   78.4770  221.8140 C   0  0  0  0  0  0  0  0  0  0  0  0
  141.1870   78.2040  223.1670 C   0  0  0  0  0  0  0  0  0  0  0  0
  141.7220   79.0120  224.1630 C   0  0  0  0  0  0  0  0  0  0  0  0
  142.4920   80.1090  223.8620 C   0  0  0  0  0  0  0  0  0  0  0  0
  142.7230   80.3900  222.5380 C   0  0  0  0  0  0  0  0  0  0  0  0
  142.1870   79.5810  221.5490 C   0  0  0  0  0  0  0  0  0  0  0  0
  140.3400   71.6020  223.4230 C   0  0  0  0  0  0  0  0  0  0  0  0
  139.6760   70.4150  223.2260 C   0  0  0  0  0  0  0  0  0  0  0  0
  139.4260   69.5070  224.2430 C   0  0  0  0  0  0  0  0  0  0  0  0
  139.8720   69.8210  225.5130 C   0  0  0  0  0  0  0  0  0  0  0  0
  139.6810   68.9960  226.5950 C   0  0  0  0  0  0  0  0  0  0  0  0
  140.1150   69.2860  227.8650 C   0  0  0  0  0  0  0  0  0  0  0  0
  139.9440   68.5030  228.9370 F   0  0  0  0  0  0  0  0  0  0  0  0
  140.7860   70.4890  228.0510 C   0  0  0  0  0  0  0  0  0  0  0  0
  140.9790   71.3210  226.9590 C   0  0  0  0  0  0  0  0  0  0  0  0
  140.5300   71.0030  225.6940 C   0  0  0  0  0  0  0  0  0  0  0  0
  140.7570   71.8620  224.6910 N   0  0  0  0  0  0  0  0  0  0  0  0
  139.1920   73.9820  223.1040 H   0  0  0  0  0  0  0  0  0  0  0  0
  141.1263   75.0925  221.2848 H   0  0  0  0  0  0  0  0  0  0  0  0
  139.8564   74.3166  220.3013 H   0  0  0  0  0  0  0  0  0  0  0  0
  137.4447   77.4473  220.6906 H   0  0  0  0  0  0  0  0  0  0  0  0
  138.2295   78.6649  221.8148 H   0  0  0  0  0  0  0  0  0  0  0  0
  138.0064   78.6303  218.8644 H   0  0  0  0  0  0  0  0  0  0  0  0
  137.9790   79.9908  220.0776 H   0  0  0  0  0  0  0  0  0  0  0  0
  139.9359   79.8702  218.4659 H   0  0  0  0  0  0  0  0  0  0  0  0
  140.2535   80.0397  220.2679 H   0  0  0  0  0  0  0  0  0  0  0  0
  140.4709   77.4912  218.6852 H   0  0  0  0  0  0  0  0  0  0  0  0
  141.8356   78.5496  219.1583 H   0  0  0  0  0  0  0  0  0  0  0  0
  141.4790   76.6938  220.8437 H   0  0  0  0  0  0  0  0  0  0  0  0
  140.5754   77.3339  223.4479 H   0  0  0  0  0  0  0  0  0  0  0  0
  141.5243   78.7674  225.2171 H   0  0  0  0  0  0  0  0  0  0  0  0
  142.9108   80.7430  224.6574 H   0  0  0  0  0  0  0  0  0  0  0  0
  143.3359   81.2606  222.2614 H   0  0  0  0  0  0  0  0  0  0  0  0
  142.3920   79.8351  220.4986 H   0  0  0  0  0  0  0  0  0  0  0  0
  139.3258   70.1737  222.2115 H   0  0  0  0  0  0  0  0  0  0  0  0
  138.8900   68.5669  224.0457 H   0  0  0  0  0  0  0  0  0  0  0  0
  139.1488   68.0468  226.4343 H   0  0  0  0  0  0  0  0  0  0  0  0
  141.1570   70.7755  229.0461 H   0  0  0  0  0  0  0  0  0  0  0  0
  141.5112   72.2722  227.1071 H   0  0  0  0  0  0  0  0  0  0  0  0
  1  2  2  0
  2  3  1  0
  3  4  1  0
  4  5  1  0
  5  6  2  0
  5  7  1  0
  7  8  1  0
  8  9  1  0
  9 10  1  0
 10 11  1  0
 11 12  1  0
 12 13  1  0
 13 14  2  0
 14 15  1  0
 15 16  2  0
 16 17  1  0
 17 18  2  0
  2 19  1  0
 19 20  2  0
 20 21  1  0
 21 22  2  0
 22 23  1  0
 23 24  2  0
 24 25  1  0
 24 26  1  0
 26 27  2  0
 27 28  1  0
 28 29  2  0
 12  7  1  0
 18 13  1  0
 29 19  1  0
 28 22  1  0
  3 30  1  0
  4 31  1  0
  4 32  1  0
  8 33  1  0
  8 34  1  0
  9 35  1  0
  9 36  1  0
 10 37  1  0
 10 38  1  0
 11 39  1  0
 11 40  1  0
 12 41  1  6
 14 42  1  0
 15 43  1  0
 16 44  1  0
 17 45  1  0
 18 46  1  0
 20 47  1  0
 21 48  1  0
 23 49  1  0
 26 50  1  0
 27 51  1  0
M  END
>  <smiles>  (25) 
O=C(NCC(=O)N1CCCC[C@H]1c1ccccc1)c1ccc2cc(F)ccc2n1

>  <score_type>  (25) 
oracle

>  <origin>  (25) 
autodockgpu

>  <m_score__min__energy>  (25) 
-9.2400000000000002

>  <m_primary>  (25) 
energy

>  <rmsd>  (25) 
2.2843982923115207

>  <m_score__min__rmsd>  (25) 
2.2843982923115207

>  <meeko>  (25) 
{"free_energy": -8.52, "intermolecular_energy": -10.01, "internal_energy": -1.87, "cluster_size": 44, "cluster_id": 1, "rank_in_cluster": 41}

>  <energy>  (25) 
-8.79

>  <cluster_rmsd>  (25) 
0.62

>  <cluster>  (25) 
1

$$$$

     RDKit          3D

 51 54  0  0  0  0  0  0  0  0999 V2000
  140.7060   71.8770  221.1090 O   0  0  0  0  0  0  0  0  0  0  0  0
  140.1590   72.3360  222.1440 C   0  0  0  0  0  0  0  0  0  0  0  0
  139.6470   73.6500  222.2390 N   0  0  0  0  0  0  0  0  0  0  0  0
  139.7260   74.5640  221.1220 C   0  0  0  0  0  0  0  0  0  0  0  0
  139.5660   75.9250  221.6450 C   0  0  0  0  0  0  0  0  0  0  0  0
  138.9550   76.1440  222.7210 O   0  0  0  0  0  0  0  0  0  0  0  0
  140.0920   77.0880  220.9690 N   0  0  0  0  0  0  0  0  0  0  0  0
  139.2460   77.7270  220.0220 C   0  0  0  0  0  0  0  0  0  0  0  0
  139.9740   78.3640  218.8710 C   0  0  0  0  0  0  0  0  0  0  0  0
  141.3860   78.7500  219.2100 C   0  0  0  0  0  0  0  0  0  0  0  0
  142.1420   77.7340  219.9840 C   0  0  0  0  0  0  0  0  0  0  0  0
  141.4440   77.5150  221.3110 C   0  0  1  0  0  0  0  0  0  0  0  0
  141.4860   78.7140  222.1550 C   0  0  0  0  0  0  0  0  0  0  0  0
  140.2960   79.1890  222.7150 C   0  0  0  0  0  0  0  0  0  0  0  0
  140.2840   80.3150  223.5300 C   0  0  0  0  0  0  0  0  0  0  0  0
  141.4350   81.0060  223.8190 C   0  0  0  0  0  0  0  0  0  0  0  0
  142.6120   80.5520  223.2760 C   0  0  0  0  0  0  0  0  0  0  0  0
  142.6190   79.4300  222.4640 C   0  0  0  0  0  0  0  0  0  0  0  0
  140.0440   71.4620  223.3220 C   0  0  0  0  0  0  0  0  0  0  0  0
  139.5280   70.1900  223.2440 C   0  0  0  0  0  0  0  0  0  0  0  0
  139.4100   69.3510  224.3410 C   0  0  0  0  0  0  0  0  0  0  0  0
  139.8350   69.8260  225.5670 C   0  0  0  0  0  0  0  0  0  0  0  0
  139.7660   69.0810  226.7200 C   0  0  0  0  0  0  0  0  0  0  0  0
  140.1820   69.5320  227.9480 C   0  0  0  0  0  0  0  0  0  0  0  0
  140.1280   68.8300  229.0860 F   0  0  0  0  0  0  0  0  0  0  0  0
  140.7020   70.8200  228.0130 C   0  0  0  0  0  0  0  0  0  0  0  0
  140.7720   71.5700  226.8500 C   0  0  0  0  0  0  0  0  0  0  0  0
  140.3450   71.0900  225.6290 C   0  0  0  0  0  0  0  0  0  0  0  0
  140.4470   71.8800  224.5520 N   0  0  0  0  0  0  0  0  0  0  0  0
  139.1970   73.9790  223.1390 H   0  0  0  0  0  0  0  0  0  0  0  0
  140.7031   74.4659  220.6264 H   0  0  0  0  0  0  0  0  0  0  0  0
  138.9401   74.3402  220.3857 H   0  0  0  0  0  0  0  0  0  0  0  0
  138.5528   76.9750  219.6171 H   0  0  0  0  0  0  0  0  0  0  0  0
  138.7319   78.5390  220.5571 H   0  0  0  0  0  0  0  0  0  0  0  0
  139.9970   77.6513  218.0334 H   0  0  0  0  0  0  0  0  0  0  0  0
  139.4344   79.2866  218.6109 H   0  0  0  0  0  0  0  0  0  0  0  0
  141.9254   78.9340  218.2691 H   0  0  0  0  0  0  0  0  0  0  0  0
  141.3171   79.6398  219.8530 H   0  0  0  0  0  0  0  0  0  0  0  0
  142.1736   76.7889  219.4221 H   0  0  0  0  0  0  0  0  0  0  0  0
  143.1710   78.0830  220.1552 H   0  0  0  0  0  0  0  0  0  0  0  0
  141.9445   76.7499  221.9226 H   0  0  0  0  0  0  0  0  0  0  0  0
  139.3529   78.6624  222.5069 H   0  0  0  0  0  0  0  0  0  0  0  0
  139.3296   80.6609  223.9536 H   0  0  0  0  0  0  0  0  0  0  0  0
  141.4149   81.8957  224.4655 H   0  0  0  0  0  0  0  0  0  0  0  0
  143.5528   81.0816  223.4868 H   0  0  0  0  0  0  0  0  0  0  0  0
  143.5792   79.0946  222.0451 H   0  0  0  0  0  0  0  0  0  0  0  0
  139.1926   69.8203  222.2638 H   0  0  0  0  0  0  0  0  0  0  0  0
  138.9912   68.3390  224.2388 H   0  0  0  0  0  0  0  0  0  0  0  0
  139.3531   68.0635  226.6549 H   0  0  0  0  0  0  0  0  0  0  0  0
  141.0512   71.2357  228.9697 H   0  0  0  0  0  0  0  0  0  0  0  0
  141.1844   72.5884  226.9023 H   0  0  0  0  0  0  0  0  0  0  0  0
  1  2  2  0
  2  3  1  0
  3  4  1  0
  4  5  1  0
  5  6  2  0
  5  7  1  0
  7  8  1  0
  8  9  1  0
  9 10  1  0
 10 11  1  0
 11 12  1  0
 12 13  1  0
 13 14  2  0
 14 15  1  0
 15 16  2  0
 16 17  1  0
 17 18  2  0
  2 19  1  0
 19 20  2  0
 20 21  1  0
 21 22  2  0
 22 23  1  0
 23 24  2  0
 24 25  1  0
 24 26  1  0
 26 27  2  0
 27 28  1  0
 28 29  2  0
 12  7  1  0
 18 13  1  0
 29 19  1  0
 28 22  1  0
  3 30  1  0
  4 31  1  0
  4 32  1  0
  8 33  1  0
  8 34  1  0
  9 35  1  0
  9 36  1  0
 10 37  1  0
 10 38  1  0
 11 39  1  0
 11 40  1  0
 12 41  1  1
 14 42  1  0
 15 43  1  0
 16 44  1  0
 17 45  1  0
 18 46  1  0
 20 47  1  0
 21 48  1  0
 23 49  1  0
 26 50  1  0
 27 51  1  0
M  END
>  <smiles>  (26) 
O=C(NCC(=O)N1CCCC[C@H]1c1ccccc1)c1ccc2cc(F)ccc2n1

>  <score_type>  (26) 
oracle

>  <origin>  (26) 
autodockgpu

>  <m_score__min__energy>  (26) 
-9.2400000000000002

>  <m_primary>  (26) 
energy

>  <rmsd>  (26) 
1.9202906565172793

>  <m_score__min__rmsd>  (26) 
1.9202906565172793

>  <meeko>  (26) 
{"free_energy": -8.86, "intermolecular_energy": -10.35, "internal_energy": -1.96, "cluster_size": 44, "cluster_id": 1, "rank_in_cluster": 22}

>  <energy>  (26) 
-8.79

>  <cluster_rmsd>  (26) 
1.14

>  <cluster>  (26) 
1

$$$$

     RDKit          3D

 51 54  0  0  0  0  0  0  0  0999 V2000
  141.3380   72.5290  221.7400 O   0  0  0  0  0  0  0  0  0  0  0  0
  140.3240   72.5920  222.4810 C   0  0  0  0  0  0  0  0  0  0  0  0
  139.2920   73.5420  222.3130 N   0  0  0  0  0  0  0  0  0  0  0  0
  139.3440   74.5210  221.2510 C   0  0  0  0  0  0  0  0  0  0  0  0
  139.5200   75.8410  221.8660 C   0  0  0  0  0  0  0  0  0  0  0  0
  139.1950   76.0530  223.0610 O   0  0  0  0  0  0  0  0  0  0  0  0
  140.0700   76.9690  221.1510 N   0  0  0  0  0  0  0  0  0  0  0  0
  139.2720   77.5360  220.1210 C   0  0  0  0  0  0  0  0  0  0  0  0
  140.0580   78.1130  218.9760 C   0  0  0  0  0  0  0  0  0  0  0  0
  141.4430   78.5410  219.3700 C   0  0  0  0  0  0  0  0  0  0  0  0
  142.1660   77.5850  220.2460 C   0  0  0  0  0  0  0  0  0  0  0  0
  141.3950   77.4360  221.5430 C   0  0  1  0  0  0  0  0  0  0  0  0
  141.3740   78.6850  222.3120 C   0  0  0  0  0  0  0  0  0  0  0  0
  142.5780   79.3550  222.5470 C   0  0  0  0  0  0  0  0  0  0  0  0
  142.6110   80.5480  223.2600 C   0  0  0  0  0  0  0  0  0  0  0  0
  141.4660   81.1160  223.7630 C   0  0  0  0  0  0  0  0  0  0  0  0
  140.2750   80.4700  223.5390 C   0  0  0  0  0  0  0  0  0  0  0  0
  140.2480   79.2820  222.8280 C   0  0  0  0  0  0  0  0  0  0  0  0
  140.2030   71.6270  223.5860 C   0  0  0  0  0  0  0  0  0  0  0  0
  139.5890   70.4070  223.4290 C   0  0  0  0  0  0  0  0  0  0  0  0
  139.4640   69.4830  224.4560 C   0  0  0  0  0  0  0  0  0  0  0  0
  139.9840   69.8160  225.6920 C   0  0  0  0  0  0  0  0  0  0  0  0
  139.9170   68.9790  226.7790 C   0  0  0  0  0  0  0  0  0  0  0  0
  140.4260   69.2880  228.0160 C   0  0  0  0  0  0  0  0  0  0  0  0
  140.3760   68.4940  229.0920 F   0  0  0  0  0  0  0  0  0  0  0  0
  141.0450   70.5250  228.1610 C   0  0  0  0  0  0  0  0  0  0  0  0
  141.1130   71.3690  227.0640 C   0  0  0  0  0  0  0  0  0  0  0  0
  140.5900   71.0310  225.8320 C   0  0  0  0  0  0  0  0  0  0  0  0
  140.6970   71.9040  224.8220 N   0  0  0  0  0  0  0  0  0  0  0  0
  138.4620   73.5450  222.9710 H   0  0  0  0  0  0  0  0  0  0  0  0
  140.1904   74.3037  220.5829 H   0  0  0  0  0  0  0  0  0  0  0  0
  138.4180   74.4939  220.6579 H   0  0  0  0  0  0  0  0  0  0  0  0
  138.6120   76.7504  219.7245 H   0  0  0  0  0  0  0  0  0  0  0  0
  138.7180   78.3708  220.5751 H   0  0  0  0  0  0  0  0  0  0  0  0
  140.1380   77.3509  218.1868 H   0  0  0  0  0  0  0  0  0  0  0  0
  139.5233   79.0095  218.6292 H   0  0  0  0  0  0  0  0  0  0  0  0
  142.0331   78.6768  218.4517 H   0  0  0  0  0  0  0  0  0  0  0  0
  141.3263   79.4666  219.9527 H   0  0  0  0  0  0  0  0  0  0  0  0
  142.2410   76.6083  219.7456 H   0  0  0  0  0  0  0  0  0  0  0  0
  143.1795   77.9591  220.4531 H   0  0  0  0  0  0  0  0  0  0  0  0
  141.8681   76.7171  222.2281 H   0  0  0  0  0  0  0  0  0  0  0  0
  143.5165   78.9306  222.1608 H   0  0  0  0  0  0  0  0  0  0  0  0
  143.5764   81.0487  223.4251 H   0  0  0  0  0  0  0  0  0  0  0  0
  141.5019   82.0592  224.3278 H   0  0  0  0  0  0  0  0  0  0  0  0
  139.3385   80.8981  223.9260 H   0  0  0  0  0  0  0  0  0  0  0  0
  139.2767   78.7911  222.6680 H   0  0  0  0  0  0  0  0  0  0  0  0
  139.1771   70.1513  222.4416 H   0  0  0  0  0  0  0  0  0  0  0  0
  138.9666   68.5157  224.2916 H   0  0  0  0  0  0  0  0  0  0  0  0
  139.4263   68.0029  226.6507 H   0  0  0  0  0  0  0  0  0  0  0  0
  141.4725   70.8277  229.1282 H   0  0  0  0  0  0  0  0  0  0  0  0
  141.6031   72.3470  227.1795 H   0  0  0  0  0  0  0  0  0  0  0  0
  1  2  2  0
  2  3  1  0
  3  4  1  0
  4  5  1  0
  5  6  2  0
  5  7  1  0
  7  8  1  0
  8  9  1  0
  9 10  1  0
 10 11  1  0
 11 12  1  0
 12 13  1  0
 13 14  2  0
 14 15  1  0
 15 16  2  0
 16 17  1  0
 17 18  2  0
  2 19  1  0
 19 20  2  0
 20 21  1  0
 21 22  2  0
 22 23  1  0
 23 24  2  0
 24 25  1  0
 24 26  1  0
 26 27  2  0
 27 28  1  0
 28 29  2  0
 12  7  1  0
 18 13  1  0
 29 19  1  0
 28 22  1  0
  3 30  1  0
  4 31  1  0
  4 32  1  0
  8 33  1  0
  8 34  1  0
  9 35  1  0
  9 36  1  0
 10 37  1  0
 10 38  1  0
 11 39  1  0
 11 40  1  0
 12 41  1  1
 14 42  1  0
 15 43  1  0
 16 44  1  0
 17 45  1  0
 18 46  1  0
 20 47  1  0
 21 48  1  0
 23 49  1  0
 26 50  1  0
 27 51  1  0
M  END
>  <smiles>  (27) 
O=C(NCC(=O)N1CCCC[C@H]1c1ccccc1)c1ccc2cc(F)ccc2n1

>  <score_type>  (27) 
oracle

>  <origin>  (27) 
autodockgpu

>  <m_score__min__energy>  (27) 
-9.2400000000000002

>  <m_primary>  (27) 
energy

>  <rmsd>  (27) 
1.9424934147753634

>  <m_score__min__rmsd>  (27) 
1.9424934147753634

>  <meeko>  (27) 
{"free_energy": -8.97, "intermolecular_energy": -10.46, "internal_energy": -1.55, "cluster_size": 44, "cluster_id": 1, "rank_in_cluster": 11}

>  <energy>  (27) 
-8.78

>  <cluster_rmsd>  (27) 
1.15

>  <cluster>  (27) 
1

$$$$

     RDKit          3D

 51 54  0  0  0  0  0  0  0  0999 V2000
  140.1460   71.7630  220.9950 O   0  0  0  0  0  0  0  0  0  0  0  0
  139.9360   72.2830  222.1210 C   0  0  0  0  0  0  0  0  0  0  0  0
  139.6830   73.6600  222.3100 N   0  0  0  0  0  0  0  0  0  0  0  0
  139.6500   74.5730  221.1900 C   0  0  0  0  0  0  0  0  0  0  0  0
  139.5420   75.9350  221.7250 C   0  0  0  0  0  0  0  0  0  0  0  0
  138.9510   76.1660  222.8100 O   0  0  0  0  0  0  0  0  0  0  0  0
  140.1000   77.0850  221.0520 N   0  0  0  0  0  0  0  0  0  0  0  0
  139.2920   77.7160  220.0670 C   0  0  0  0  0  0  0  0  0  0  0  0
  140.0640   78.3320  218.9340 C   0  0  0  0  0  0  0  0  0  0  0  0
  141.4660   78.7140  219.3180 C   0  0  0  0  0  0  0  0  0  0  0  0
  142.1870   77.7040  220.1320 C   0  0  0  0  0  0  0  0  0  0  0  0
  141.4420   77.5080  221.4360 C   0  0  1  0  0  0  0  0  0  0  0  0
  141.4610   78.7190  222.2640 C   0  0  0  0  0  0  0  0  0  0  0  0
  142.6700   79.3990  222.4400 C   0  0  0  0  0  0  0  0  0  0  0  0
  142.7400   80.5580  223.2050 C   0  0  0  0  0  0  0  0  0  0  0  0
  141.6280   81.0810  223.8190 C   0  0  0  0  0  0  0  0  0  0  0  0
  140.4330   80.4250  223.6560 C   0  0  0  0  0  0  0  0  0  0  0  0
  140.3700   79.2710  222.8920 C   0  0  0  0  0  0  0  0  0  0  0  0
  139.9560   71.4140  223.3080 C   0  0  0  0  0  0  0  0  0  0  0  0
  139.5700   70.0960  223.2580 C   0  0  0  0  0  0  0  0  0  0  0  0
  139.5800   69.2590  224.3640 C   0  0  0  0  0  0  0  0  0  0  0  0
  140.0000   69.7880  225.5700 C   0  0  0  0  0  0  0  0  0  0  0  0
  140.0510   69.0520  226.7290 C   0  0  0  0  0  0  0  0  0  0  0  0
  140.4650   69.5550  227.9380 C   0  0  0  0  0  0  0  0  0  0  0  0
  140.5250   68.8640  229.0810 F   0  0  0  0  0  0  0  0  0  0  0  0
  140.8540   70.8900  227.9740 C   0  0  0  0  0  0  0  0  0  0  0  0
  140.8030   71.6320  226.8050 C   0  0  0  0  0  0  0  0  0  0  0  0
  140.3810   71.0980  225.6040 C   0  0  0  0  0  0  0  0  0  0  0  0
  140.3600   71.8830  224.5180 N   0  0  0  0  0  0  0  0  0  0  0  0
  139.5150   74.0390  223.2840 H   0  0  0  0  0  0  0  0  0  0  0  0
  140.5731   74.4748  220.5998 H   0  0  0  0  0  0  0  0  0  0  0  0
  138.7947   74.3481  220.5359 H   0  0  0  0  0  0  0  0  0  0  0  0
  138.6083   76.9628  219.6484 H   0  0  0  0  0  0  0  0  0  0  0  0
  138.7650   78.5387  220.5724 H   0  0  0  0  0  0  0  0  0  0  0  0
  140.1119   77.6075  218.1077 H   0  0  0  0  0  0  0  0  0  0  0  0
  139.5401   79.2540  218.6418 H   0  0  0  0  0  0  0  0  0  0  0  0
  142.0397   78.8817  218.3946 H   0  0  0  0  0  0  0  0  0  0  0  0
  141.3803   79.6130  219.9460 H   0  0  0  0  0  0  0  0  0  0  0  0
  142.2316   76.7510  219.5845 H   0  0  0  0  0  0  0  0  0  0  0  0
  143.2118   78.0487  220.3345 H   0  0  0  0  0  0  0  0  0  0  0  0
  141.9162   76.7488  222.0754 H   0  0  0  0  0  0  0  0  0  0  0  0
  143.5825   79.0100  221.9646 H   0  0  0  0  0  0  0  0  0  0  0  0
  143.7079   81.0677  223.3212 H   0  0  0  0  0  0  0  0  0  0  0  0
  141.6931   81.9979  224.4232 H   0  0  0  0  0  0  0  0  0  0  0  0
  139.5228   80.8169  224.1335 H   0  0  0  0  0  0  0  0  0  0  0  0
  139.3966   78.7706  222.7823 H   0  0  0  0  0  0  0  0  0  0  0  0
  139.2368   69.6847  222.2937 H   0  0  0  0  0  0  0  0  0  0  0  0
  139.2640   68.2084  224.2840 H   0  0  0  0  0  0  0  0  0  0  0  0
  139.7419   67.9972  226.6860 H   0  0  0  0  0  0  0  0  0  0  0  0
  141.1960   71.3484  228.9136 H   0  0  0  0  0  0  0  0  0  0  0  0
  141.1107   72.6877  226.8351 H   0  0  0  0  0  0  0  0  0  0  0  0
  1  2  2  0
  2  3  1  0
  3  4  1  0
  4  5  1  0
  5  6  2  0
  5  7  1  0
  7  8  1  0
  8  9  1  0
  9 10  1  0
 10 11  1  0
 11 12  1  0
 12 13  1  0
 13 14  2  0
 14 15  1  0
 15 16  2  0
 16 17  1  0
 17 18  2  0
  2 19  1  0
 19 20  2  0
 20 21  1  0
 21 22  2  0
 22 23  1  0
 23 24  2  0
 24 25  1  0
 24 26  1  0
 26 27  2  0
 27 28  1  0
 28 29  2  0
 12  7  1  0
 18 13  1  0
 29 19  1  0
 28 22  1  0
  3 30  1  0
  4 31  1  0
  4 32  1  0
  8 33  1  0
  8 34  1  0
  9 35  1  0
  9 36  1  0
 10 37  1  0
 10 38  1  0
 11 39  1  0
 11 40  1  0
 12 41  1  1
 14 42  1  0
 15 43  1  0
 16 44  1  0
 17 45  1  0
 18 46  1  0
 20 47  1  0
 21 48  1  0
 23 49  1  0
 26 50  1  0
 27 51  1  0
M  END
>  <smiles>  (28) 
O=C(NCC(=O)N1CCCC[C@H]1c1ccccc1)c1ccc2cc(F)ccc2n1

>  <score_type>  (28) 
oracle

>  <origin>  (28) 
autodockgpu

>  <m_score__min__energy>  (28) 
-9.2400000000000002

>  <m_primary>  (28) 
energy

>  <rmsd>  (28) 
1.918287232657623

>  <m_score__min__rmsd>  (28) 
1.918287232657623

>  <meeko>  (28) 
{"free_energy": -8.73, "intermolecular_energy": -10.23, "internal_energy": -2.04, "cluster_size": 44, "cluster_id": 1, "rank_in_cluster": 32}

>  <energy>  (28) 
-8.77

>  <cluster_rmsd>  (28) 
1.16

>  <cluster>  (28) 
1

$$$$

     RDKit          3D

 51 54  0  0  0  0  0  0  0  0999 V2000
  140.2370   71.7500  221.0160 O   0  0  0  0  0  0  0  0  0  0  0  0
  139.9740   72.2480  222.1400 C   0  0  0  0  0  0  0  0  0  0  0  0
  139.6910   73.6180  222.3400 N   0  0  0  0  0  0  0  0  0  0  0  0
  139.6880   74.5480  221.2340 C   0  0  0  0  0  0  0  0  0  0  0  0
  139.6020   75.9040  221.7890 C   0  0  0  0  0  0  0  0  0  0  0  0
  139.0650   76.1210  222.9040 O   0  0  0  0  0  0  0  0  0  0  0  0
  140.1210   77.0640  221.1010 N   0  0  0  0  0  0  0  0  0  0  0  0
  139.2930   77.6550  220.1090 C   0  0  0  0  0  0  0  0  0  0  0  0
  140.0450   78.2820  218.9680 C   0  0  0  0  0  0  0  0  0  0  0  0
  141.4330   78.7150  219.3460 C   0  0  0  0  0  0  0  0  0  0  0  0
  142.1880   77.7400  220.1720 C   0  0  0  0  0  0  0  0  0  0  0  0
  141.4490   77.5350  221.4800 C   0  0  1  0  0  0  0  0  0  0  0  0
  141.4280   78.7570  222.2920 C   0  0  0  0  0  0  0  0  0  0  0  0
  142.6350   79.4070  222.5680 C   0  0  0  0  0  0  0  0  0  0  0  0
  142.6680   80.5730  223.3230 C   0  0  0  0  0  0  0  0  0  0  0  0
  141.5210   81.1350  223.8290 C   0  0  0  0  0  0  0  0  0  0  0  0
  140.3280   80.5080  223.5660 C   0  0  0  0  0  0  0  0  0  0  0  0
  140.3010   79.3460  222.8130 C   0  0  0  0  0  0  0  0  0  0  0  0
  139.9600   71.3610  223.3140 C   0  0  0  0  0  0  0  0  0  0  0  0
  139.5510   70.0510  223.2380 C   0  0  0  0  0  0  0  0  0  0  0  0
  139.5290   69.1980  224.3310 C   0  0  0  0  0  0  0  0  0  0  0  0
  139.9410   69.7000  225.5510 C   0  0  0  0  0  0  0  0  0  0  0  0
  139.9610   68.9460  226.6990 C   0  0  0  0  0  0  0  0  0  0  0  0
  140.3650   69.4230  227.9210 C   0  0  0  0  0  0  0  0  0  0  0  0
  140.3960   68.7120  229.0550 F   0  0  0  0  0  0  0  0  0  0  0  0
  140.7770   70.7490  227.9850 C   0  0  0  0  0  0  0  0  0  0  0  0
  140.7580   71.5090  226.8260 C   0  0  0  0  0  0  0  0  0  0  0  0
  140.3440   71.0020  225.6110 C   0  0  0  0  0  0  0  0  0  0  0  0
  140.3540   71.8040  224.5370 N   0  0  0  0  0  0  0  0  0  0  0  0
  139.4780   73.9790  223.3120 H   0  0  0  0  0  0  0  0  0  0  0  0
  140.6149   74.4400  220.6516 H   0  0  0  0  0  0  0  0  0  0  0  0
  138.8352   74.3504  220.5678 H   0  0  0  0  0  0  0  0  0  0  0  0
  138.6348   76.8743  219.7000 H   0  0  0  0  0  0  0  0  0  0  0  0
  138.7385   78.4659  220.6040 H   0  0  0  0  0  0  0  0  0  0  0  0
  140.1170   77.5490  218.1510 H   0  0  0  0  0  0  0  0  0  0  0  0
  139.4910   79.1826  218.6647 H   0  0  0  0  0  0  0  0  0  0  0  0
  142.0004   78.8903  218.4201 H   0  0  0  0  0  0  0  0  0  0  0  0
  141.3174   79.6182  219.9631 H   0  0  0  0  0  0  0  0  0  0  0  0
  142.2648   76.7823  219.6363 H   0  0  0  0  0  0  0  0  0  0  0  0
  143.2006   78.1214  220.3697 H   0  0  0  0  0  0  0  0  0  0  0  0
  141.9473   76.7995  222.1287 H   0  0  0  0  0  0  0  0  0  0  0  0
  143.5752   78.9877  222.1804 H   0  0  0  0  0  0  0  0  0  0  0  0
  143.6356   81.0577  223.5203 H   0  0  0  0  0  0  0  0  0  0  0  0
  141.5572   82.0582  224.4260 H   0  0  0  0  0  0  0  0  0  0  0  0
  139.3898   80.9305  223.9550 H   0  0  0  0  0  0  0  0  0  0  0  0
  139.3277   78.8702  222.6222 H   0  0  0  0  0  0  0  0  0  0  0  0
  139.2253   69.6603  222.2627 H   0  0  0  0  0  0  0  0  0  0  0  0
  139.1943   68.1550  224.2303 H   0  0  0  0  0  0  0  0  0  0  0  0
  139.6338   67.8977  226.6352 H   0  0  0  0  0  0  0  0  0  0  0  0
  141.1116   71.1868  228.9370 H   0  0  0  0  0  0  0  0  0  0  0  0
  141.0859   72.5578  226.8766 H   0  0  0  0  0  0  0  0  0  0  0  0
  1  2  2  0
  2  3  1  0
  3  4  1  0
  4  5  1  0
  5  6  2  0
  5  7  1  0
  7  8  1  0
  8  9  1  0
  9 10  1  0
 10 11  1  0
 11 12  1  0
 12 13  1  0
 13 14  2  0
 14 15  1  0
 15 16  2  0
 16 17  1  0
 17 18  2  0
  2 19  1  0
 19 20  2  0
 20 21  1  0
 21 22  2  0
 22 23  1  0
 23 24  2  0
 24 25  1  0
 24 26  1  0
 26 27  2  0
 27 28  1  0
 28 29  2  0
 12  7  1  0
 18 13  1  0
 29 19  1  0
 28 22  1  0
  3 30  1  0
  4 31  1  0
  4 32  1  0
  8 33  1  0
  8 34  1  0
  9 35  1  0
  9 36  1  0
 10 37  1  0
 10 38  1  0
 11 39  1  0
 11 40  1  0
 12 41  1  1
 14 42  1  0
 15 43  1  0
 16 44  1  0
 17 45  1  0
 18 46  1  0
 20 47  1  0
 21 48  1  0
 23 49  1  0
 26 50  1  0
 27 51  1  0
M  END
>  <smiles>  (29) 
O=C(NCC(=O)N1CCCC[C@H]1c1ccccc1)c1ccc2cc(F)ccc2n1

>  <score_type>  (29) 
oracle

>  <origin>  (29) 
autodockgpu

>  <m_score__min__energy>  (29) 
-9.2400000000000002

>  <m_primary>  (29) 
energy

>  <rmsd>  (29) 
1.9102686758648793

>  <m_score__min__rmsd>  (29) 
1.9102686758648793

>  <meeko>  (29) 
{"free_energy": -8.73, "intermolecular_energy": -10.23, "internal_energy": -2.04, "cluster_size": 44, "cluster_id": 1, "rank_in_cluster": 33}

>  <energy>  (29) 
-8.76

>  <cluster_rmsd>  (29) 
1.15

>  <cluster>  (29) 
1

$$$$

     RDKit          3D

 51 54  0  0  0  0  0  0  0  0999 V2000
  140.6630   71.8440  221.1030 O   0  0  0  0  0  0  0  0  0  0  0  0
  140.1960   72.3300  222.1650 C   0  0  0  0  0  0  0  0  0  0  0  0
  139.7910   73.6770  222.2950 N   0  0  0  0  0  0  0  0  0  0  0  0
  139.8920   74.5970  221.1850 C   0  0  0  0  0  0  0  0  0  0  0  0
  139.6310   75.9470  221.6970 C   0  0  0  0  0  0  0  0  0  0  0  0
  138.9780   76.1300  222.7550 O   0  0  0  0  0  0  0  0  0  0  0  0
  140.0990   77.1400  221.0290 N   0  0  0  0  0  0  0  0  0  0  0  0
  139.2140   77.7560  220.1040 C   0  0  0  0  0  0  0  0  0  0  0  0
  139.8980   78.4370  218.9520 C   0  0  0  0  0  0  0  0  0  0  0  0
  141.2980   78.8760  219.2750 C   0  0  0  0  0  0  0  0  0  0  0  0
  142.1060   77.8810  220.0230 C   0  0  0  0  0  0  0  0  0  0  0  0
  141.4390   77.6160  221.3570 C   0  0  1  0  0  0  0  0  0  0  0  0
  141.4450   78.8050  222.2170 C   0  0  0  0  0  0  0  0  0  0  0  0
  142.6690   79.3950  222.5470 C   0  0  0  0  0  0  0  0  0  0  0  0
  142.7280   80.5290  223.3480 C   0  0  0  0  0  0  0  0  0  0  0  0
  141.5920   81.1160  223.8480 C   0  0  0  0  0  0  0  0  0  0  0  0
  140.3810   80.5480  223.5320 C   0  0  0  0  0  0  0  0  0  0  0  0
  140.3280   79.4180  222.7330 C   0  0  0  0  0  0  0  0  0  0  0  0
  140.0640   71.4510  223.3380 C   0  0  0  0  0  0  0  0  0  0  0  0
  139.5400   70.1840  223.2500 C   0  0  0  0  0  0  0  0  0  0  0  0
  139.4060   69.3400  224.3420 C   0  0  0  0  0  0  0  0  0  0  0  0
  139.8220   69.8070  225.5740 C   0  0  0  0  0  0  0  0  0  0  0  0
  139.7370   69.0580  226.7230 C   0  0  0  0  0  0  0  0  0  0  0  0
  140.1440   69.5010  227.9570 C   0  0  0  0  0  0  0  0  0  0  0  0
  140.0740   68.7950  229.0920 F   0  0  0  0  0  0  0  0  0  0  0  0
  140.6730   70.7850  228.0330 C   0  0  0  0  0  0  0  0  0  0  0  0
  140.7590   71.5400  226.8740 C   0  0  0  0  0  0  0  0  0  0  0  0
  140.3400   71.0680  225.6460 C   0  0  0  0  0  0  0  0  0  0  0  0
  140.4580   71.8620  224.5730 N   0  0  0  0  0  0  0  0  0  0  0  0
  139.4050   74.0280  223.2160 H   0  0  0  0  0  0  0  0  0  0  0  0
  140.9015   74.5501  220.7506 H   0  0  0  0  0  0  0  0  0  0  0  0
  139.1653   74.3357  220.4017 H   0  0  0  0  0  0  0  0  0  0  0  0
  138.5458   76.9818  219.6988 H   0  0  0  0  0  0  0  0  0  0  0  0
  138.6754   78.5392  220.6576 H   0  0  0  0  0  0  0  0  0  0  0  0
  139.9372   77.7369  218.1045 H   0  0  0  0  0  0  0  0  0  0  0  0
  139.3175   79.3403  218.7129 H   0  0  0  0  0  0  0  0  0  0  0  0
  141.8148   79.0946  218.3289 H   0  0  0  0  0  0  0  0  0  0  0  0
  141.2033   79.7538  219.9312 H   0  0  0  0  0  0  0  0  0  0  0  0
  142.1665   76.9456  219.4473 H   0  0  0  0  0  0  0  0  0  0  0  0
  143.1227   78.2690  220.1834 H   0  0  0  0  0  0  0  0  0  0  0  0
  141.9799   76.8637  221.9498 H   0  0  0  0  0  0  0  0  0  0  0  0
  143.6017   78.9537  222.1658 H   0  0  0  0  0  0  0  0  0  0  0  0
  143.7083   80.9669  223.5872 H   0  0  0  0  0  0  0  0  0  0  0  0
  141.6493   82.0131  224.4819 H   0  0  0  0  0  0  0  0  0  0  0  0
  139.4506   80.9925  223.9150 H   0  0  0  0  0  0  0  0  0  0  0  0
  139.3422   78.9893  222.4995 H   0  0  0  0  0  0  0  0  0  0  0  0
  139.2106   69.8214  222.2651 H   0  0  0  0  0  0  0  0  0  0  0  0
  138.9821   68.3310  224.2310 H   0  0  0  0  0  0  0  0  0  0  0  0
  139.3181   68.0435  226.6496 H   0  0  0  0  0  0  0  0  0  0  0  0
  141.0166   71.1935  228.9948 H   0  0  0  0  0  0  0  0  0  0  0  0
  141.1776   72.5554  226.9348 H   0  0  0  0  0  0  0  0  0  0  0  0
  1  2  2  0
  2  3  1  0
  3  4  1  0
  4  5  1  0
  5  6  2  0
  5  7  1  0
  7  8  1  0
  8  9  1  0
  9 10  1  0
 10 11  1  0
 11 12  1  0
 12 13  1  0
 13 14  2  0
 14 15  1  0
 15 16  2  0
 16 17  1  0
 17 18  2  0
  2 19  1  0
 19 20  2  0
 20 21  1  0
 21 22  2  0
 22 23  1  0
 23 24  2  0
 24 25  1  0
 24 26  1  0
 26 27  2  0
 27 28  1  0
 28 29  2  0
 12  7  1  0
 18 13  1  0
 29 19  1  0
 28 22  1  0
  3 30  1  0
  4 31  1  0
  4 32  1  0
  8 33  1  0
  8 34  1  0
  9 35  1  0
  9 36  1  0
 10 37  1  0
 10 38  1  0
 11 39  1  0
 11 40  1  0
 12 41  1  1
 14 42  1  0
 15 43  1  0
 16 44  1  0
 17 45  1  0
 18 46  1  0
 20 47  1  0
 21 48  1  0
 23 49  1  0
 26 50  1  0
 27 51  1  0
M  END
>  <smiles>  (30) 
O=C(NCC(=O)N1CCCC[C@H]1c1ccccc1)c1ccc2cc(F)ccc2n1

>  <score_type>  (30) 
oracle

>  <origin>  (30) 
autodockgpu

>  <m_score__min__energy>  (30) 
-9.2400000000000002

>  <m_primary>  (30) 
energy

>  <rmsd>  (30) 
1.9756567656654915

>  <m_score__min__rmsd>  (30) 
1.9756567656654915

>  <meeko>  (30) 
{"free_energy": -8.83, "intermolecular_energy": -10.32, "internal_energy": -2.01, "cluster_size": 44, "cluster_id": 1, "rank_in_cluster": 23}

>  <energy>  (30) 
-8.75

>  <cluster_rmsd>  (30) 
0.87

>  <cluster>  (30) 
1

$$$$

     RDKit          3D

 51 54  0  0  0  0  0  0  0  0999 V2000
  141.1640   72.0290  221.3320 O   0  0  0  0  0  0  0  0  0  0  0  0
  140.4080   72.4200  222.2570 C   0  0  0  0  0  0  0  0  0  0  0  0
  139.7480   73.6690  222.2520 N   0  0  0  0  0  0  0  0  0  0  0  0
  139.9100   74.5930  221.1520 C   0  0  0  0  0  0  0  0  0  0  0  0
  139.6380   75.9430  221.6580 C   0  0  0  0  0  0  0  0  0  0  0  0
  138.9880   76.1260  222.7170 O   0  0  0  0  0  0  0  0  0  0  0  0
  140.0940   77.1370  220.9830 N   0  0  0  0  0  0  0  0  0  0  0  0
  139.1810   77.7700  220.0970 C   0  0  0  0  0  0  0  0  0  0  0  0
  139.8280   78.4540  218.9250 C   0  0  0  0  0  0  0  0  0  0  0  0
  141.2440   78.8750  219.1980 C   0  0  0  0  0  0  0  0  0  0  0  0
  142.0690   77.8650  219.9080 C   0  0  0  0  0  0  0  0  0  0  0  0
  141.4500   77.5960  221.2640 C   0  0  1  0  0  0  0  0  0  0  0  0
  141.5010   78.7780  222.1320 C   0  0  0  0  0  0  0  0  0  0  0  0
  140.3860   79.0910  222.9160 C   0  0  0  0  0  0  0  0  0  0  0  0
  140.3880   80.1920  223.7630 C   0  0  0  0  0  0  0  0  0  0  0  0
  141.4810   81.0180  223.8660 C   0  0  0  0  0  0  0  0  0  0  0  0
  142.5840   80.7240  223.1020 C   0  0  0  0  0  0  0  0  0  0  0  0
  142.5760   79.6240  222.2600 C   0  0  0  0  0  0  0  0  0  0  0  0
  140.1960   71.5310  223.4110 C   0  0  0  0  0  0  0  0  0  0  0  0
  139.5560   70.3200  223.2960 C   0  0  0  0  0  0  0  0  0  0  0  0
  139.3460   69.4680  224.3700 C   0  0  0  0  0  0  0  0  0  0  0  0
  139.8050   69.8660  225.6100 C   0  0  0  0  0  0  0  0  0  0  0  0
  139.6520   69.1020  226.7420 C   0  0  0  0  0  0  0  0  0  0  0  0
  140.1000   69.4770  227.9850 C   0  0  0  0  0  0  0  0  0  0  0  0
  139.9660   68.7550  229.1030 F   0  0  0  0  0  0  0  0  0  0  0  0
  140.7450   70.7040  228.0880 C   0  0  0  0  0  0  0  0  0  0  0  0
  140.9000   71.4740  226.9460 C   0  0  0  0  0  0  0  0  0  0  0  0
  140.4380   71.0710  225.7090 C   0  0  0  0  0  0  0  0  0  0  0  0
  140.6280   71.8740  224.6540 N   0  0  0  0  0  0  0  0  0  0  0  0
  139.1230   73.9420  223.0620 H   0  0  0  0  0  0  0  0  0  0  0  0
  140.9384   74.5382  220.7654 H   0  0  0  0  0  0  0  0  0  0  0  0
  139.2187   74.3422  220.3339 H   0  0  0  0  0  0  0  0  0  0  0  0
  138.4899   77.0061  219.7113 H   0  0  0  0  0  0  0  0  0  0  0  0
  138.6721   78.5540  220.6770 H   0  0  0  0  0  0  0  0  0  0  0  0
  139.8271   77.7610  218.0707 H   0  0  0  0  0  0  0  0  0  0  0  0
  139.2488   79.3655  218.7158 H   0  0  0  0  0  0  0  0  0  0  0  0
  141.7271   79.0952  218.2346 H   0  0  0  0  0  0  0  0  0  0  0  0
  141.1840   79.7486  219.8637 H   0  0  0  0  0  0  0  0  0  0  0  0
  142.0977   76.9337  219.3233 H   0  0  0  0  0  0  0  0  0  0  0  0
  143.0950   78.2412  220.0332 H   0  0  0  0  0  0  0  0  0  0  0  0
  142.0046   76.8333  221.8303 H   0  0  0  0  0  0  0  0  0  0  0  0
  139.4911   78.4537  222.8609 H   0  0  0  0  0  0  0  0  0  0  0  0
  139.4933   80.4076  224.3655 H   0  0  0  0  0  0  0  0  0  0  0  0
  141.4731   81.8878  224.5394 H   0  0  0  0  0  0  0  0  0  0  0  0
  143.4767   81.3642  223.1590 H   0  0  0  0  0  0  0  0  0  0  0  0
  143.4766   79.4172  221.6632 H   0  0  0  0  0  0  0  0  0  0  0  0
  139.1929   70.0118  222.3044 H   0  0  0  0  0  0  0  0  0  0  0  0
  138.8300   68.5055  224.2382 H   0  0  0  0  0  0  0  0  0  0  0  0
  139.1405   68.1328  226.6470 H   0  0  0  0  0  0  0  0  0  0  0  0
  141.1253   71.0573  229.0578 H   0  0  0  0  0  0  0  0  0  0  0  0
  141.4113   72.4445  227.0285 H   0  0  0  0  0  0  0  0  0  0  0  0
  1  2  2  0
  2  3  1  0
  3  4  1  0
  4  5  1  0
  5  6  2  0
  5  7  1  0
  7  8  1  0
  8  9  1  0
  9 10  1  0
 10 11  1  0
 11 12  1  0
 12 13  1  0
 13 14  2  0
 14 15  1  0
 15 16  2  0
 16 17  1  0
 17 18  2  0
  2 19  1  0
 19 20  2  0
 20 21  1  0
 21 22  2  0
 22 23  1  0
 23 24  2  0
 24 25  1  0
 24 26  1  0
 26 27  2  0
 27 28  1  0
 28 29  2  0
 12  7  1  0
 18 13  1  0
 29 19  1  0
 28 22  1  0
  3 30  1  0
  4 31  1  0
  4 32  1  0
  8 33  1  0
  8 34  1  0
  9 35  1  0
  9 36  1  0
 10 37  1  0
 10 38  1  0
 11 39  1  0
 11 40  1  0
 12 41  1  1
 14 42  1  0
 15 43  1  0
 16 44  1  0
 17 45  1  0
 18 46  1  0
 20 47  1  0
 21 48  1  0
 23 49  1  0
 26 50  1  0
 27 51  1  0
M  END
>  <smiles>  (31) 
O=C(NCC(=O)N1CCCC[C@H]1c1ccccc1)c1ccc2cc(F)ccc2n1

>  <score_type>  (31) 
oracle

>  <origin>  (31) 
autodockgpu

>  <m_score__min__energy>  (31) 
-9.2400000000000002

>  <m_primary>  (31) 
energy

>  <rmsd>  (31) 
1.9971189877822495

>  <m_score__min__rmsd>  (31) 
1.9971189877822495

>  <meeko>  (31) 
{"free_energy": -8.91, "intermolecular_energy": -10.4, "internal_energy": -1.93, "cluster_size": 44, "cluster_id": 1, "rank_in_cluster": 17}

>  <energy>  (31) 
-8.75

>  <cluster_rmsd>  (31) 
1.14

>  <cluster>  (31) 
1

$$$$

     RDKit          3D

 51 54  0  0  0  0  0  0  0  0999 V2000
  140.3100   71.7760  221.0460 O   0  0  0  0  0  0  0  0  0  0  0  0
  140.0420   72.2950  222.1590 C   0  0  0  0  0  0  0  0  0  0  0  0
  139.7830   73.6720  222.3370 N   0  0  0  0  0  0  0  0  0  0  0  0
  139.8120   74.5870  221.2180 C   0  0  0  0  0  0  0  0  0  0  0  0
  139.5110   75.9290  221.7290 C   0  0  0  0  0  0  0  0  0  0  0  0
  138.8290   76.0940  222.7720 O   0  0  0  0  0  0  0  0  0  0  0  0
  139.9720   77.1340  221.0790 N   0  0  0  0  0  0  0  0  0  0  0  0
  139.0560   77.7990  220.2200 C   0  0  0  0  0  0  0  0  0  0  0  0
  139.6970   78.5050  219.0570 C   0  0  0  0  0  0  0  0  0  0  0  0
  141.1200   78.9040  219.3250 C   0  0  0  0  0  0  0  0  0  0  0  0
  141.9430   77.8680  219.9990 C   0  0  0  0  0  0  0  0  0  0  0  0
  141.3350   77.5720  221.3550 C   0  0  1  0  0  0  0  0  0  0  0  0
  141.4090   78.7310  222.2520 C   0  0  0  0  0  0  0  0  0  0  0  0
  142.6300   79.3960  222.3990 C   0  0  0  0  0  0  0  0  0  0  0  0
  142.7500   80.5060  223.2270 C   0  0  0  0  0  0  0  0  0  0  0  0
  141.6780   80.9940  223.9340 C   0  0  0  0  0  0  0  0  0  0  0  0
  140.4720   80.3520  223.8000 C   0  0  0  0  0  0  0  0  0  0  0  0
  140.3580   79.2460  222.9730 C   0  0  0  0  0  0  0  0  0  0  0  0
  139.9960   71.4240  223.3450 C   0  0  0  0  0  0  0  0  0  0  0  0
  139.5510   70.1250  223.2830 C   0  0  0  0  0  0  0  0  0  0  0  0
  139.4990   69.2870  224.3870 C   0  0  0  0  0  0  0  0  0  0  0  0
  139.9170   69.7940  225.6030 C   0  0  0  0  0  0  0  0  0  0  0  0
  139.9080   69.0550  226.7610 C   0  0  0  0  0  0  0  0  0  0  0  0
  140.3180   69.5370  227.9800 C   0  0  0  0  0  0  0  0  0  0  0  0
  140.3220   68.8410  229.1230 F   0  0  0  0  0  0  0  0  0  0  0  0
  140.7670   70.8520  228.0280 C   0  0  0  0  0  0  0  0  0  0  0  0
  140.7750   71.5970  226.8600 C   0  0  0  0  0  0  0  0  0  0  0  0
  140.3560   71.0860  225.6480 C   0  0  0  0  0  0  0  0  0  0  0  0
  140.3950   71.8720  224.5650 N   0  0  0  0  0  0  0  0  0  0  0  0
  139.5630   74.0500  223.3010 H   0  0  0  0  0  0  0  0  0  0  0  0
  140.8089   74.5784  220.7531 H   0  0  0  0  0  0  0  0  0  0  0  0
  139.0732   74.2899  220.4591 H   0  0  0  0  0  0  0  0  0  0  0  0
  138.3516   77.0527  219.8239 H   0  0  0  0  0  0  0  0  0  0  0  0
  138.5632   78.5740  220.8254 H   0  0  0  0  0  0  0  0  0  0  0  0
  139.6793   77.8333  218.1861 H   0  0  0  0  0  0  0  0  0  0  0  0
  139.1251   79.4270  218.8759 H   0  0  0  0  0  0  0  0  0  0  0  0
  141.5946   79.1446  218.3623 H   0  0  0  0  0  0  0  0  0  0  0  0
  141.0760   79.7600  220.0144 H   0  0  0  0  0  0  0  0  0  0  0  0
  141.9555   76.9515  219.3908 H   0  0  0  0  0  0  0  0  0  0  0  0
  142.9747   78.2295  220.1213 H   0  0  0  0  0  0  0  0  0  0  0  0
  141.8873   76.7893  221.8956 H   0  0  0  0  0  0  0  0  0  0  0  0
  143.5116   79.0343  221.8495 H   0  0  0  0  0  0  0  0  0  0  0  0
  143.7259   81.0052  223.3183 H   0  0  0  0  0  0  0  0  0  0  0  0
  141.7828   81.8725  224.5876 H   0  0  0  0  0  0  0  0  0  0  0  0
  139.5928   80.7169  224.3512 H   0  0  0  0  0  0  0  0  0  0  0  0
  139.3770   78.7554  222.8892 H   0  0  0  0  0  0  0  0  0  0  0  0
  139.2201   69.7310  222.3108 H   0  0  0  0  0  0  0  0  0  0  0  0
  139.1367   68.2522  224.2977 H   0  0  0  0  0  0  0  0  0  0  0  0
  139.5513   68.0157  226.7089 H   0  0  0  0  0  0  0  0  0  0  0  0
  141.1096   71.2927  228.9759 H   0  0  0  0  0  0  0  0  0  0  0  0
  141.1295   72.6376  226.9000 H   0  0  0  0  0  0  0  0  0  0  0  0
  1  2  2  0
  2  3  1  0
  3  4  1  0
  4  5  1  0
  5  6  2  0
  5  7  1  0
  7  8  1  0
  8  9  1  0
  9 10  1  0
 10 11  1  0
 11 12  1  0
 12 13  1  0
 13 14  2  0
 14 15  1  0
 15 16  2  0
 16 17  1  0
 17 18  2  0
  2 19  1  0
 19 20  2  0
 20 21  1  0
 21 22  2  0
 22 23  1  0
 23 24  2  0
 24 25  1  0
 24 26  1  0
 26 27  2  0
 27 28  1  0
 28 29  2  0
 12  7  1  0
 18 13  1  0
 29 19  1  0
 28 22  1  0
  3 30  1  0
  4 31  1  0
  4 32  1  0
  8 33  1  0
  8 34  1  0
  9 35  1  0
  9 36  1  0
 10 37  1  0
 10 38  1  0
 11 39  1  0
 11 40  1  0
 12 41  1  1
 14 42  1  0
 15 43  1  0
 16 44  1  0
 17 45  1  0
 18 46  1  0
 20 47  1  0
 21 48  1  0
 23 49  1  0
 26 50  1  0
 27 51  1  0
M  END
>  <smiles>  (32) 
O=C(NCC(=O)N1CCCC[C@H]1c1ccccc1)c1ccc2cc(F)ccc2n1

>  <score_type>  (32) 
oracle

>  <origin>  (32) 
autodockgpu

>  <m_score__min__energy>  (32) 
-9.2400000000000002

>  <m_primary>  (32) 
energy

>  <rmsd>  (32) 
1.9683705199088937

>  <m_score__min__rmsd>  (32) 
1.9683705199088937

>  <meeko>  (32) 
{"free_energy": -8.7, "intermolecular_energy": -10.19, "internal_energy": -2.03, "cluster_size": 44, "cluster_id": 1, "rank_in_cluster": 37}

>  <energy>  (32) 
-8.73

>  <cluster_rmsd>  (32) 
1.17

>  <cluster>  (32) 
1

$$$$

     RDKit          3D

 51 54  0  0  0  0  0  0  0  0999 V2000
  141.0500   71.9650  221.2360 O   0  0  0  0  0  0  0  0  0  0  0  0
  140.3740   72.3930  222.2060 C   0  0  0  0  0  0  0  0  0  0  0  0
  139.7900   73.6790  222.2450 N   0  0  0  0  0  0  0  0  0  0  0  0
  139.9420   74.6000  221.1410 C   0  0  0  0  0  0  0  0  0  0  0  0
  139.6460   75.9480  221.6400 C   0  0  0  0  0  0  0  0  0  0  0  0
  138.9750   76.1250  222.6870 O   0  0  0  0  0  0  0  0  0  0  0  0
  140.1010   77.1450  220.9710 N   0  0  0  0  0  0  0  0  0  0  0  0
  139.1880   77.7810  220.0870 C   0  0  0  0  0  0  0  0  0  0  0  0
  139.8360   78.4720  218.9190 C   0  0  0  0  0  0  0  0  0  0  0  0
  141.2510   78.8940  219.1960 C   0  0  0  0  0  0  0  0  0  0  0  0
  142.0770   77.8810  219.9010 C   0  0  0  0  0  0  0  0  0  0  0  0
  141.4560   77.6050  221.2550 C   0  0  1  0  0  0  0  0  0  0  0  0
  141.5050   78.7820  222.1290 C   0  0  0  0  0  0  0  0  0  0  0  0
  140.3440   79.1740  222.8020 C   0  0  0  0  0  0  0  0  0  0  0  0
  140.3410   80.2750  223.6500 C   0  0  0  0  0  0  0  0  0  0  0  0
  141.4740   81.0230  223.8620 C   0  0  0  0  0  0  0  0  0  0  0  0
  142.6220   80.6500  223.2080 C   0  0  0  0  0  0  0  0  0  0  0  0
  142.6200   79.5520  222.3640 C   0  0  0  0  0  0  0  0  0  0  0  0
  140.1780   71.5090  223.3670 C   0  0  0  0  0  0  0  0  0  0  0  0
  139.5750   70.2790  223.2580 C   0  0  0  0  0  0  0  0  0  0  0  0
  139.3800   69.4310  224.3380 C   0  0  0  0  0  0  0  0  0  0  0  0
  139.8170   69.8540  225.5780 C   0  0  0  0  0  0  0  0  0  0  0  0
  139.6770   69.0970  226.7160 C   0  0  0  0  0  0  0  0  0  0  0  0
  140.1030   69.4960  227.9590 C   0  0  0  0  0  0  0  0  0  0  0  0
  139.9800   68.7810  229.0830 F   0  0  0  0  0  0  0  0  0  0  0  0
  140.7120   70.7420  228.0550 C   0  0  0  0  0  0  0  0  0  0  0  0
  140.8540   71.5060  226.9070 C   0  0  0  0  0  0  0  0  0  0  0  0
  140.4140   71.0780  225.6710 C   0  0  0  0  0  0  0  0  0  0  0  0
  140.5890   71.8770  224.6090 N   0  0  0  0  0  0  0  0  0  0  0  0
  139.2310   73.9820  223.0910 H   0  0  0  0  0  0  0  0  0  0  0  0
  140.9728   74.5600  220.7590 H   0  0  0  0  0  0  0  0  0  0  0  0
  139.2587   74.3343  220.3209 H   0  0  0  0  0  0  0  0  0  0  0  0
  138.4986   77.0180  219.6965 H   0  0  0  0  0  0  0  0  0  0  0  0
  138.6769   78.5612  220.6702 H   0  0  0  0  0  0  0  0  0  0  0  0
  139.8374   77.7832  218.0613 H   0  0  0  0  0  0  0  0  0  0  0  0
  139.2557   79.3836  218.7136 H   0  0  0  0  0  0  0  0  0  0  0  0
  141.7348   79.1208  218.2345 H   0  0  0  0  0  0  0  0  0  0  0  0
  141.1888   79.7636  219.8667 H   0  0  0  0  0  0  0  0  0  0  0  0
  142.1073   76.9528  219.3115 H   0  0  0  0  0  0  0  0  0  0  0  0
  143.1029   78.2569  220.0287 H   0  0  0  0  0  0  0  0  0  0  0  0
  142.0109   76.8401  221.8180 H   0  0  0  0  0  0  0  0  0  0  0  0
  139.4163   78.6007  222.6577 H   0  0  0  0  0  0  0  0  0  0  0  0
  139.4094   80.5544  224.1638 H   0  0  0  0  0  0  0  0  0  0  0  0
  141.4616   81.8933  224.5346 H   0  0  0  0  0  0  0  0  0  0  0  0
  143.5476   81.2259  223.3550 H   0  0  0  0  0  0  0  0  0  0  0  0
  143.5576   79.2821  221.8559 H   0  0  0  0  0  0  0  0  0  0  0  0
  139.2303   69.9511  222.2662 H   0  0  0  0  0  0  0  0  0  0  0  0
  138.8929   68.4529  224.2110 H   0  0  0  0  0  0  0  0  0  0  0  0
  139.1948   68.1124  226.6260 H   0  0  0  0  0  0  0  0  0  0  0  0
  141.0746   71.1149  229.0242 H   0  0  0  0  0  0  0  0  0  0  0  0
  141.3361   72.4917  226.9843 H   0  0  0  0  0  0  0  0  0  0  0  0
  1  2  2  0
  2  3  1  0
  3  4  1  0
  4  5  1  0
  5  6  2  0
  5  7  1  0
  7  8  1  0
  8  9  1  0
  9 10  1  0
 10 11  1  0
 11 12  1  0
 12 13  1  0
 13 14  2  0
 14 15  1  0
 15 16  2  0
 16 17  1  0
 17 18  2  0
  2 19  1  0
 19 20  2  0
 20 21  1  0
 21 22  2  0
 22 23  1  0
 23 24  2  0
 24 25  1  0
 24 26  1  0
 26 27  2  0
 27 28  1  0
 28 29  2  0
 12  7  1  0
 18 13  1  0
 29 19  1  0
 28 22  1  0
  3 30  1  0
  4 31  1  0
  4 32  1  0
  8 33  1  0
  8 34  1  0
  9 35  1  0
  9 36  1  0
 10 37  1  0
 10 38  1  0
 11 39  1  0
 11 40  1  0
 12 41  1  1
 14 42  1  0
 15 43  1  0
 16 44  1  0
 17 45  1  0
 18 46  1  0
 20 47  1  0
 21 48  1  0
 23 49  1  0
 26 50  1  0
 27 51  1  0
M  END
>  <smiles>  (33) 
O=C(NCC(=O)N1CCCC[C@H]1c1ccccc1)c1ccc2cc(F)ccc2n1

>  <score_type>  (33) 
oracle

>  <origin>  (33) 
autodockgpu

>  <m_score__min__energy>  (33) 
-9.2400000000000002

>  <m_primary>  (33) 
energy

>  <rmsd>  (33) 
1.9938022466883747

>  <m_score__min__rmsd>  (33) 
1.9938022466883747

>  <meeko>  (33) 
{"free_energy": -8.89, "intermolecular_energy": -10.38, "internal_energy": -1.95, "cluster_size": 44, "cluster_id": 1, "rank_in_cluster": 20}

>  <energy>  (33) 
-8.73

>  <cluster_rmsd>  (33) 
1.16

>  <cluster>  (33) 
1

$$$$

     RDKit          3D

 51 54  0  0  0  0  0  0  0  0999 V2000
  140.7780   71.8860  221.1330 O   0  0  0  0  0  0  0  0  0  0  0  0
  140.2290   72.3430  222.1670 C   0  0  0  0  0  0  0  0  0  0  0  0
  139.7140   73.6550  222.2630 N   0  0  0  0  0  0  0  0  0  0  0  0
  139.7920   74.5710  221.1470 C   0  0  0  0  0  0  0  0  0  0  0  0
  139.6030   75.9290  221.6680 C   0  0  0  0  0  0  0  0  0  0  0  0
  138.9750   76.1380  222.7360 O   0  0  0  0  0  0  0  0  0  0  0  0
  140.1190   77.1010  220.9990 N   0  0  0  0  0  0  0  0  0  0  0  0
  139.2840   77.7110  220.0240 C   0  0  0  0  0  0  0  0  0  0  0  0
  140.0290   78.3590  218.8900 C   0  0  0  0  0  0  0  0  0  0  0  0
  141.4200   78.7840  219.2660 C   0  0  0  0  0  0  0  0  0  0  0  0
  142.1790   77.7920  220.0690 C   0  0  0  0  0  0  0  0  0  0  0  0
  141.4490   77.5640  221.3770 C   0  0  1  0  0  0  0  0  0  0  0  0
  141.4360   78.7700  222.2130 C   0  0  0  0  0  0  0  0  0  0  0  0
  142.6480   79.4010  222.5100 C   0  0  0  0  0  0  0  0  0  0  0  0
  142.6880   80.5520  223.2870 C   0  0  0  0  0  0  0  0  0  0  0  0
  141.5440   81.1170  223.7950 C   0  0  0  0  0  0  0  0  0  0  0  0
  140.3450   80.5090  223.5120 C   0  0  0  0  0  0  0  0  0  0  0  0
  140.3110   79.3620  222.7360 C   0  0  0  0  0  0  0  0  0  0  0  0
  140.1140   71.4670  223.3450 C   0  0  0  0  0  0  0  0  0  0  0  0
  139.5660   70.2090  223.2720 C   0  0  0  0  0  0  0  0  0  0  0  0
  139.4480   69.3680  224.3680 C   0  0  0  0  0  0  0  0  0  0  0  0
  139.9070   69.8280  225.5880 C   0  0  0  0  0  0  0  0  0  0  0  0
  139.8410   69.0810  226.7390 C   0  0  0  0  0  0  0  0  0  0  0  0
  140.2910   69.5170  227.9610 C   0  0  0  0  0  0  0  0  0  0  0  0
  140.2410   68.8120  229.0980 F   0  0  0  0  0  0  0  0  0  0  0  0
  140.8440   70.7910  228.0210 C   0  0  0  0  0  0  0  0  0  0  0  0
  140.9110   71.5440  226.8590 C   0  0  0  0  0  0  0  0  0  0  0  0
  140.4490   71.0790  225.6440 C   0  0  0  0  0  0  0  0  0  0  0  0
  140.5500   71.8710  224.5680 N   0  0  0  0  0  0  0  0  0  0  0  0
  139.2630   73.9830  223.1630 H   0  0  0  0  0  0  0  0  0  0  0  0
  140.7768   74.4892  220.6638 H   0  0  0  0  0  0  0  0  0  0  0  0
  139.0191   74.3345  220.4009 H   0  0  0  0  0  0  0  0  0  0  0  0
  138.6225   76.9385  219.6049 H   0  0  0  0  0  0  0  0  0  0  0  0
  138.7330   78.5124  220.5379 H   0  0  0  0  0  0  0  0  0  0  0  0
  140.0947   77.6415  218.0588 H   0  0  0  0  0  0  0  0  0  0  0  0
  139.4737   79.2657  218.6081 H   0  0  0  0  0  0  0  0  0  0  0  0
  141.9813   78.9757  218.3396 H   0  0  0  0  0  0  0  0  0  0  0  0
  141.3103   79.6763  219.8998 H   0  0  0  0  0  0  0  0  0  0  0  0
  142.2504   76.8444  219.5150 H   0  0  0  0  0  0  0  0  0  0  0  0
  143.1936   78.1680  220.2670 H   0  0  0  0  0  0  0  0  0  0  0  0
  141.9507   76.8160  222.0085 H   0  0  0  0  0  0  0  0  0  0  0  0
  143.5864   78.9786  222.1215 H   0  0  0  0  0  0  0  0  0  0  0  0
  143.6593   81.0221  223.5004 H   0  0  0  0  0  0  0  0  0  0  0  0
  141.5864   82.0283  224.4096 H   0  0  0  0  0  0  0  0  0  0  0  0
  139.4089   80.9344  223.9029 H   0  0  0  0  0  0  0  0  0  0  0  0
  139.3340   78.9015  222.5277 H   0  0  0  0  0  0  0  0  0  0  0  0
  139.2034   69.8519  222.2968 H   0  0  0  0  0  0  0  0  0  0  0  0
  139.0033   68.3667  224.2698 H   0  0  0  0  0  0  0  0  0  0  0  0
  139.4018   68.0743  226.6782 H   0  0  0  0  0  0  0  0  0  0  0  0
  141.2213   71.1940  228.9725 H   0  0  0  0  0  0  0  0  0  0  0  0
  141.3495   72.5517  226.9069 H   0  0  0  0  0  0  0  0  0  0  0  0
  1  2  2  0
  2  3  1  0
  3  4  1  0
  4  5  1  0
  5  6  2  0
  5  7  1  0
  7  8  1  0
  8  9  1  0
  9 10  1  0
 10 11  1  0
 11 12  1  0
 12 13  1  0
 13 14  2  0
 14 15  1  0
 15 16  2  0
 16 17  1  0
 17 18  2  0
  2 19  1  0
 19 20  2  0
 20 21  1  0
 21 22  2  0
 22 23  1  0
 23 24  2  0
 24 25  1  0
 24 26  1  0
 26 27  2  0
 27 28  1  0
 28 29  2  0
 12  7  1  0
 18 13  1  0
 29 19  1  0
 28 22  1  0
  3 30  1  0
  4 31  1  0
  4 32  1  0
  8 33  1  0
  8 34  1  0
  9 35  1  0
  9 36  1  0
 10 37  1  0
 10 38  1  0
 11 39  1  0
 11 40  1  0
 12 41  1  1
 14 42  1  0
 15 43  1  0
 16 44  1  0
 17 45  1  0
 18 46  1  0
 20 47  1  0
 21 48  1  0
 23 49  1  0
 26 50  1  0
 27 51  1  0
M  END
>  <smiles>  (34) 
O=C(NCC(=O)N1CCCC[C@H]1c1ccccc1)c1ccc2cc(F)ccc2n1

>  <score_type>  (34) 
oracle

>  <origin>  (34) 
autodockgpu

>  <m_score__min__energy>  (34) 
-9.2400000000000002

>  <m_primary>  (34) 
energy

>  <rmsd>  (34) 
1.9500141886249927

>  <m_score__min__rmsd>  (34) 
1.9500141886249927

>  <meeko>  (34) 
{"free_energy": -8.88, "intermolecular_energy": -10.37, "internal_energy": -1.96, "cluster_size": 44, "cluster_id": 1, "rank_in_cluster": 21}

>  <energy>  (34) 
-8.73

>  <cluster_rmsd>  (34) 
1.17

>  <cluster>  (34) 
1

$$$$

     RDKit          3D

 51 54  0  0  0  0  0  0  0  0999 V2000
  137.0560   76.1900  222.1260 O   0  0  0  0  0  0  0  0  0  0  0  0
  138.2900   76.2470  222.3640 C   0  0  0  0  0  0  0  0  0  0  0  0
  139.1470   75.1250  222.3130 N   0  0  0  0  0  0  0  0  0  0  0  0
  138.6410   73.8140  221.9750 C   0  0  0  0  0  0  0  0  0  0  0  0
  139.7420   72.8570  222.1280 C   0  0  0  0  0  0  0  0  0  0  0  0
  140.9370   73.2010  221.9510 O   0  0  0  0  0  0  0  0  0  0  0  0
  139.5300   71.4730  222.4880 N   0  0  0  0  0  0  0  0  0  0  0  0
  140.1640   70.4890  221.6840 C   0  0  0  0  0  0  0  0  0  0  0  0
  139.4000   69.2000  221.5640 C   0  0  0  0  0  0  0  0  0  0  0  0
  138.4880   68.9470  222.7310 C   0  0  0  0  0  0  0  0  0  0  0  0
  137.7140   70.1290  223.1850 C   0  0  0  0  0  0  0  0  0  0  0  0
  138.6850   71.1980  223.6450 C   0  0  1  0  0  0  0  0  0  0  0  0
  139.4360   70.7790  224.8340 C   0  0  0  0  0  0  0  0  0  0  0  0
  140.6010   71.4710  225.1760 C   0  0  0  0  0  0  0  0  0  0  0  0
  141.3420   71.1210  226.2990 C   0  0  0  0  0  0  0  0  0  0  0  0
  140.9620   70.0850  227.1170 C   0  0  0  0  0  0  0  0  0  0  0  0
  139.8190   69.3960  226.7930 C   0  0  0  0  0  0  0  0  0  0  0  0
  139.0850   69.7490  225.6730 C   0  0  0  0  0  0  0  0  0  0  0  0
  138.8760   77.5510  222.7150 C   0  0  0  0  0  0  0  0  0  0  0  0
  138.1090   78.6790  222.8800 C   0  0  0  0  0  0  0  0  0  0  0  0
  138.6400   79.9170  223.2100 C   0  0  0  0  0  0  0  0  0  0  0  0
  140.0090   80.0080  223.3780 C   0  0  0  0  0  0  0  0  0  0  0  0
  140.6430   81.1820  223.7060 C   0  0  0  0  0  0  0  0  0  0  0  0
  142.0000   81.2970  223.8780 C   0  0  0  0  0  0  0  0  0  0  0  0
  142.6450   82.4250  224.1970 F   0  0  0  0  0  0  0  0  0  0  0  0
  142.7650   80.1480  223.7090 C   0  0  0  0  0  0  0  0  0  0  0  0
  142.1250   78.9630  223.3790 C   0  0  0  0  0  0  0  0  0  0  0  0
  140.7570   78.8790  223.2110 C   0  0  0  0  0  0  0  0  0  0  0  0
  140.2160   77.6960  222.8920 N   0  0  0  0  0  0  0  0  0  0  0  0
  140.1790   75.2370  222.5230 H   0  0  0  0  0  0  0  0  0  0  0  0
  137.8151   73.5458  222.6503 H   0  0  0  0  0  0  0  0  0  0  0  0
  138.2615   73.8023  220.9426 H   0  0  0  0  0  0  0  0  0  0  0  0
  140.2992   70.9043  220.6744 H   0  0  0  0  0  0  0  0  0  0  0  0
  141.1162   70.2452  222.1779 H   0  0  0  0  0  0  0  0  0  0  0  0
  138.7938   69.2360  220.6468 H   0  0  0  0  0  0  0  0  0  0  0  0
  140.1358   68.3827  221.5383 H   0  0  0  0  0  0  0  0  0  0  0  0
  137.7744   68.1609  222.4432 H   0  0  0  0  0  0  0  0  0  0  0  0
  139.1353   68.6595  223.5726 H   0  0  0  0  0  0  0  0  0  0  0  0
  137.1055   70.5146  222.3537 H   0  0  0  0  0  0  0  0  0  0  0  0
  137.0484   69.8455  224.0136 H   0  0  0  0  0  0  0  0  0  0  0  0
  138.1709   72.1139  223.9718 H   0  0  0  0  0  0  0  0  0  0  0  0
  140.9376   72.3072  224.5456 H   0  0  0  0  0  0  0  0  0  0  0  0
  142.2543   71.6872  226.5382 H   0  0  0  0  0  0  0  0  0  0  0  0
  141.5546   69.8157  228.0037 H   0  0  0  0  0  0  0  0  0  0  0  0
  139.4852   68.5604  227.4257 H   0  0  0  0  0  0  0  0  0  0  0  0
  138.1747   69.1757  225.4434 H   0  0  0  0  0  0  0  0  0  0  0  0
  137.0206   78.5961  222.7437 H   0  0  0  0  0  0  0  0  0  0  0  0
  137.9928   80.7978  223.3340 H   0  0  0  0  0  0  0  0  0  0  0  0
  140.0265   82.0833  223.8386 H   0  0  0  0  0  0  0  0  0  0  0  0
  143.8574   80.1786  223.8348 H   0  0  0  0  0  0  0  0  0  0  0  0
  142.7307   78.0545  223.2459 H   0  0  0  0  0  0  0  0  0  0  0  0
  1  2  2  0
  2  3  1  0
  3  4  1  0
  4  5  1  0
  5  6  2  0
  5  7  1  0
  7  8  1  0
  8  9  1  0
  9 10  1  0
 10 11  1  0
 11 12  1  0
 12 13  1  0
 13 14  2  0
 14 15  1  0
 15 16  2  0
 16 17  1  0
 17 18  2  0
  2 19  1  0
 19 20  2  0
 20 21  1  0
 21 22  2  0
 22 23  1  0
 23 24  2  0
 24 25  1  0
 24 26  1  0
 26 27  2  0
 27 28  1  0
 28 29  2  0
 12  7  1  0
 18 13  1  0
 29 19  1  0
 28 22  1  0
  3 30  1  0
  4 31  1  0
  4 32  1  0
  8 33  1  0
  8 34  1  0
  9 35  1  0
  9 36  1  0
 10 37  1  0
 10 38  1  0
 11 39  1  0
 11 40  1  0
 12 41  1  1
 14 42  1  0
 15 43  1  0
 16 44  1  0
 17 45  1  0
 18 46  1  0
 20 47  1  0
 21 48  1  0
 23 49  1  0
 26 50  1  0
 27 51  1  0
M  END
>  <smiles>  (35) 
O=C(NCC(=O)N1CCCC[C@H]1c1ccccc1)c1ccc2cc(F)ccc2n1

>  <score_type>  (35) 
oracle

>  <origin>  (35) 
autodockgpu

>  <m_score__min__energy>  (35) 
-9.2400000000000002

>  <m_primary>  (35) 
energy

>  <rmsd>  (35) 
8.501156350033652

>  <m_score__min__rmsd>  (35) 
8.501156350033652

>  <meeko>  (35) 
{"free_energy": -7.71, "intermolecular_energy": -9.2, "internal_energy": -2.11, "cluster_size": 2, "cluster_id": 3, "rank_in_cluster": 2}

>  <energy>  (35) 
-8.71

>  <cluster_rmsd>  (35) 
0.88

>  <cluster>  (35) 
1

$$$$

     RDKit          3D

 51 54  0  0  0  0  0  0  0  0999 V2000
  141.3970   72.4340  221.6120 O   0  0  0  0  0  0  0  0  0  0  0  0
  140.4580   72.6320  222.4240 C   0  0  0  0  0  0  0  0  0  0  0  0
  139.5950   73.7490  222.3620 N   0  0  0  0  0  0  0  0  0  0  0  0
  139.7470   74.7530  221.3330 C   0  0  0  0  0  0  0  0  0  0  0  0
  139.0030   75.9440  221.7560 C   0  0  0  0  0  0  0  0  0  0  0  0
  138.0630   75.8670  222.5870 O   0  0  0  0  0  0  0  0  0  0  0  0
  139.2950   77.2670  221.2550 N   0  0  0  0  0  0  0  0  0  0  0  0
  138.1980   78.1530  221.0820 C   0  0  0  0  0  0  0  0  0  0  0  0
  138.3580   79.1250  219.9460 C   0  0  0  0  0  0  0  0  0  0  0  0
  139.7960   79.4100  219.6150 C   0  0  0  0  0  0  0  0  0  0  0  0
  140.6780   78.2160  219.5880 C   0  0  0  0  0  0  0  0  0  0  0  0
  140.6890   77.5880  220.9680 C   0  0  1  0  0  0  0  0  0  0  0  0
  141.3050   78.4700  221.9650 C   0  0  0  0  0  0  0  0  0  0  0  0
  142.1290   79.5130  221.5290 C   0  0  0  0  0  0  0  0  0  0  0  0
  142.7270   80.3830  222.4320 C   0  0  0  0  0  0  0  0  0  0  0  0
  142.5360   80.2560  223.7860 C   0  0  0  0  0  0  0  0  0  0  0  0
  141.7300   79.2370  224.2300 C   0  0  0  0  0  0  0  0  0  0  0  0
  141.1360   78.3730  223.3250 C   0  0  0  0  0  0  0  0  0  0  0  0
  140.2430   71.6510  223.5000 C   0  0  0  0  0  0  0  0  0  0  0  0
  139.5690   70.4720  223.2920 C   0  0  0  0  0  0  0  0  0  0  0  0
  139.3550   69.5340  224.2910 C   0  0  0  0  0  0  0  0  0  0  0  0
  139.8480   69.8100  225.5520 C   0  0  0  0  0  0  0  0  0  0  0  0
  139.6940   68.9540  226.6160 C   0  0  0  0  0  0  0  0  0  0  0  0
  140.1750   69.2060  227.8770 C   0  0  0  0  0  0  0  0  0  0  0  0
  140.0410   68.3920  228.9310 F   0  0  0  0  0  0  0  0  0  0  0  0
  140.8550   70.4020  228.0740 C   0  0  0  0  0  0  0  0  0  0  0  0
  141.0100   71.2660  227.0010 C   0  0  0  0  0  0  0  0  0  0  0  0
  140.5150   70.9850  225.7430 C   0  0  0  0  0  0  0  0  0  0  0  0
  140.7070   71.8730  224.7590 N   0  0  0  0  0  0  0  0  0  0  0  0
  138.8210   73.8610  223.0760 H   0  0  0  0  0  0  0  0  0  0  0  0
  140.8111   75.0016  221.2069 H   0  0  0  0  0  0  0  0  0  0  0  0
  139.3620   74.3803  220.3724 H   0  0  0  0  0  0  0  0  0  0  0  0
  137.2960   77.5516  220.8958 H   0  0  0  0  0  0  0  0  0  0  0  0
  138.1309   78.7530  222.0015 H   0  0  0  0  0  0  0  0  0  0  0  0
  137.8696   78.7053  219.0542 H   0  0  0  0  0  0  0  0  0  0  0  0
  137.8978   80.0742  220.2579 H   0  0  0  0  0  0  0  0  0  0  0  0
  139.8312   79.8837  218.6229 H   0  0  0  0  0  0  0  0  0  0  0  0
  140.1761   80.0571  220.4192 H   0  0  0  0  0  0  0  0  0  0  0  0
  140.2965   77.4906  218.8543 H   0  0  0  0  0  0  0  0  0  0  0  0
  141.6986   78.5105  219.3023 H   0  0  0  0  0  0  0  0  0  0  0  0
  141.3086   76.6799  221.0065 H   0  0  0  0  0  0  0  0  0  0  0  0
  142.3066   79.6467  220.4517 H   0  0  0  0  0  0  0  0  0  0  0  0
  143.3685   81.1925  222.0536 H   0  0  0  0  0  0  0  0  0  0  0  0
  143.0142   80.9496  224.4933 H   0  0  0  0  0  0  0  0  0  0  0  0
  141.5554   79.1064  225.3082 H   0  0  0  0  0  0  0  0  0  0  0  0
  140.4961   77.5678  223.7152 H   0  0  0  0  0  0  0  0  0  0  0  0
  139.1804   70.2618  222.2846 H   0  0  0  0  0  0  0  0  0  0  0  0
  138.8104   68.6005  224.0861 H   0  0  0  0  0  0  0  0  0  0  0  0
  139.1533   68.0110  226.4474 H   0  0  0  0  0  0  0  0  0  0  0  0
  141.2627   70.6583  229.0630 H   0  0  0  0  0  0  0  0  0  0  0  0
  141.5483   72.2123  227.1579 H   0  0  0  0  0  0  0  0  0  0  0  0
  1  2  2  0
  2  3  1  0
  3  4  1  0
  4  5  1  0
  5  6  2  0
  5  7  1  0
  7  8  1  0
  8  9  1  0
  9 10  1  0
 10 11  1  0
 11 12  1  0
 12 13  1  0
 13 14  2  0
 14 15  1  0
 15 16  2  0
 16 17  1  0
 17 18  2  0
  2 19  1  0
 19 20  2  0
 20 21  1  0
 21 22  2  0
 22 23  1  0
 23 24  2  0
 24 25  1  0
 24 26  1  0
 26 27  2  0
 27 28  1  0
 28 29  2  0
 12  7  1  0
 18 13  1  0
 29 19  1  0
 28 22  1  0
  3 30  1  0
  4 31  1  0
  4 32  1  0
  8 33  1  0
  8 34  1  0
  9 35  1  0
  9 36  1  0
 10 37  1  0
 10 38  1  0
 11 39  1  0
 11 40  1  0
 12 41  1  6
 14 42  1  0
 15 43  1  0
 16 44  1  0
 17 45  1  0
 18 46  1  0
 20 47  1  0
 21 48  1  0
 23 49  1  0
 26 50  1  0
 27 51  1  0
M  END
>  <smiles>  (36) 
O=C(NCC(=O)N1CCCC[C@H]1c1ccccc1)c1ccc2cc(F)ccc2n1

>  <score_type>  (36) 
oracle

>  <origin>  (36) 
autodockgpu

>  <m_score__min__energy>  (36) 
-9.2400000000000002

>  <m_primary>  (36) 
energy

>  <rmsd>  (36) 
2.331212514976791

>  <m_score__min__rmsd>  (36) 
2.331212514976791

>  <meeko>  (36) 
{"free_energy": -8.6, "intermolecular_energy": -10.09, "internal_energy": -1.81, "cluster_size": 44, "cluster_id": 1, "rank_in_cluster": 38}

>  <energy>  (36) 
-8.71

>  <cluster_rmsd>  (36) 
0.86

>  <cluster>  (36) 
1

$$$$

     RDKit          3D

 51 54  0  0  0  0  0  0  0  0999 V2000
  140.7600   71.9520  221.1940 O   0  0  0  0  0  0  0  0  0  0  0  0
  140.0780   72.3210  222.1830 C   0  0  0  0  0  0  0  0  0  0  0  0
  139.3650   73.5400  222.2290 N   0  0  0  0  0  0  0  0  0  0  0  0
  139.3800   74.4560  221.1110 C   0  0  0  0  0  0  0  0  0  0  0  0
  140.3340   75.5260  221.4200 C   0  0  0  0  0  0  0  0  0  0  0  0
  141.4350   75.2800  221.9740 O   0  0  0  0  0  0  0  0  0  0  0  0
  140.0770   76.9140  221.1140 N   0  0  0  0  0  0  0  0  0  0  0  0
  138.7290   77.3570  221.1910 C   0  0  0  0  0  0  0  0  0  0  0  0
  138.3790   78.4480  220.2170 C   0  0  0  0  0  0  0  0  0  0  0  0
  139.5660   79.2700  219.8040 C   0  0  0  0  0  0  0  0  0  0  0  0
  140.7910   78.4880  219.5010 C   0  0  0  0  0  0  0  0  0  0  0  0
  141.2180   77.7490  220.7530 C   0  0  1  0  0  0  0  0  0  0  0  0
  141.6310   78.6700  221.8180 C   0  0  0  0  0  0  0  0  0  0  0  0
  141.4610   78.2850  223.1510 C   0  0  0  0  0  0  0  0  0  0  0  0
  141.8470   79.1160  224.1950 C   0  0  0  0  0  0  0  0  0  0  0  0
  142.4090   80.3480  223.9630 C   0  0  0  0  0  0  0  0  0  0  0  0
  142.5830   80.7410  222.6590 C   0  0  0  0  0  0  0  0  0  0  0  0
  142.1970   79.9080  221.6220 C   0  0  0  0  0  0  0  0  0  0  0  0
  140.0170   71.4390  223.3600 C   0  0  0  0  0  0  0  0  0  0  0  0
  139.4900   70.1720  223.3000 C   0  0  0  0  0  0  0  0  0  0  0  0
  139.4220   69.3250  224.3960 C   0  0  0  0  0  0  0  0  0  0  0  0
  139.9120   69.7890  225.6020 C   0  0  0  0  0  0  0  0  0  0  0  0
  139.8960   69.0370  226.7520 C   0  0  0  0  0  0  0  0  0  0  0  0
  140.3760   69.4770  227.9610 C   0  0  0  0  0  0  0  0  0  0  0  0
  140.3750   68.7680  229.0950 F   0  0  0  0  0  0  0  0  0  0  0  0
  140.9080   70.7610  228.0080 C   0  0  0  0  0  0  0  0  0  0  0  0
  140.9240   71.5190  226.8480 C   0  0  0  0  0  0  0  0  0  0  0  0
  140.4320   71.0500  225.6460 C   0  0  0  0  0  0  0  0  0  0  0  0
  140.4840   71.8470  224.5710 N   0  0  0  0  0  0  0  0  0  0  0  0
  138.8080   73.7960  223.0920 H   0  0  0  0  0  0  0  0  0  0  0  0
  139.6933   73.9275  220.1986 H   0  0  0  0  0  0  0  0  0  0  0  0
  138.3762   74.8733  220.9431 H   0  0  0  0  0  0  0  0  0  0  0  0
  138.0721   76.4967  220.9952 H   0  0  0  0  0  0  0  0  0  0  0  0
  138.5932   77.7785  222.1979 H   0  0  0  0  0  0  0  0  0  0  0  0
  137.9414   77.9884  219.3185 H   0  0  0  0  0  0  0  0  0  0  0  0
  137.6708   79.1229  220.7200 H   0  0  0  0  0  0  0  0  0  0  0  0
  139.2916   79.8384  218.9031 H   0  0  0  0  0  0  0  0  0  0  0  0
  139.8127   79.9105  220.6636 H   0  0  0  0  0  0  0  0  0  0  0  0
  140.5800   77.7657  218.6987 H   0  0  0  0  0  0  0  0  0  0  0  0
  141.5947   79.1632  219.1720 H   0  0  0  0  0  0  0  0  0  0  0  0
  142.1110   77.1289  220.5853 H   0  0  0  0  0  0  0  0  0  0  0  0
  141.0133   77.3060  223.3774 H   0  0  0  0  0  0  0  0  0  0  0  0
  141.6992   78.7797  225.2319 H   0  0  0  0  0  0  0  0  0  0  0  0
  142.7103   80.9996  224.7964 H   0  0  0  0  0  0  0  0  0  0  0  0
  143.0306   81.7210  222.4371 H   0  0  0  0  0  0  0  0  0  0  0  0
  142.3510   80.2541  220.5893 H   0  0  0  0  0  0  0  0  0  0  0  0
  139.1030   69.8115  222.3355 H   0  0  0  0  0  0  0  0  0  0  0  0
  138.9919   68.3164  224.3082 H   0  0  0  0  0  0  0  0  0  0  0  0
  139.4737   68.0226  226.7011 H   0  0  0  0  0  0  0  0  0  0  0  0
  141.3086   71.1674  228.9484 H   0  0  0  0  0  0  0  0  0  0  0  0
  141.3453   72.5344  226.8863 H   0  0  0  0  0  0  0  0  0  0  0  0
  1  2  2  0
  2  3  1  0
  3  4  1  0
  4  5  1  0
  5  6  2  0
  5  7  1  0
  7  8  1  0
  8  9  1  0
  9 10  1  0
 10 11  1  0
 11 12  1  0
 12 13  1  0
 13 14  2  0
 14 15  1  0
 15 16  2  0
 16 17  1  0
 17 18  2  0
  2 19  1  0
 19 20  2  0
 20 21  1  0
 21 22  2  0
 22 23  1  0
 23 24  2  0
 24 25  1  0
 24 26  1  0
 26 27  2  0
 27 28  1  0
 28 29  2  0
 12  7  1  0
 18 13  1  0
 29 19  1  0
 28 22  1  0
  3 30  1  0
  4 31  1  0
  4 32  1  0
  8 33  1  0
  8 34  1  0
  9 35  1  0
  9 36  1  0
 10 37  1  0
 10 38  1  0
 11 39  1  0
 11 40  1  0
 12 41  1  6
 14 42  1  0
 15 43  1  0
 16 44  1  0
 17 45  1  0
 18 46  1  0
 20 47  1  0
 21 48  1  0
 23 49  1  0
 26 50  1  0
 27 51  1  0
M  END
>  <smiles>  (37) 
O=C(NCC(=O)N1CCCC[C@H]1c1ccccc1)c1ccc2cc(F)ccc2n1

>  <score_type>  (37) 
oracle

>  <origin>  (37) 
autodockgpu

>  <m_score__min__energy>  (37) 
-9.2400000000000002

>  <m_primary>  (37) 
energy

>  <rmsd>  (37) 
2.0120973366543704

>  <m_score__min__rmsd>  (37) 
2.0120973366543704

>  <meeko>  (37) 
{"free_energy": -8.98, "intermolecular_energy": -10.47, "internal_energy": -1.41, "cluster_size": 44, "cluster_id": 1, "rank_in_cluster": 10}

>  <energy>  (37) 
-8.7

>  <cluster_rmsd>  (37) 
1.12

>  <cluster>  (37) 
1

$$$$

     RDKit          3D

 51 54  0  0  0  0  0  0  0  0999 V2000
  141.4470   72.4550  221.6830 O   0  0  0  0  0  0  0  0  0  0  0  0
  140.4710   72.6390  222.4540 C   0  0  0  0  0  0  0  0  0  0  0  0
  139.5860   73.7340  222.3450 N   0  0  0  0  0  0  0  0  0  0  0  0
  139.7560   74.7320  221.3120 C   0  0  0  0  0  0  0  0  0  0  0  0
  139.1360   75.9750  221.7840 C   0  0  0  0  0  0  0  0  0  0  0  0
  138.3040   75.9740  222.7250 O   0  0  0  0  0  0  0  0  0  0  0  0
  139.4360   77.2650  221.2060 N   0  0  0  0  0  0  0  0  0  0  0  0
  138.3400   78.1320  220.9520 C   0  0  0  0  0  0  0  0  0  0  0  0
  138.5240   79.0310  219.7610 C   0  0  0  0  0  0  0  0  0  0  0  0
  139.9680   79.3020  219.4470 C   0  0  0  0  0  0  0  0  0  0  0  0
  140.8550   78.1130  219.5170 C   0  0  0  0  0  0  0  0  0  0  0  0
  140.8350   77.5740  220.9330 C   0  0  1  0  0  0  0  0  0  0  0  0
  141.4240   78.5210  221.8860 C   0  0  0  0  0  0  0  0  0  0  0  0
  141.2350   78.3090  223.2550 C   0  0  0  0  0  0  0  0  0  0  0  0
  141.7820   79.1700  224.1990 C   0  0  0  0  0  0  0  0  0  0  0  0
  142.5280   80.2620  223.8290 C   0  0  0  0  0  0  0  0  0  0  0  0
  142.7230   80.4830  222.4880 C   0  0  0  0  0  0  0  0  0  0  0  0
  142.1760   79.6220  221.5510 C   0  0  0  0  0  0  0  0  0  0  0  0
  140.2350   71.6630  223.5310 C   0  0  0  0  0  0  0  0  0  0  0  0
  139.5350   70.4990  223.3250 C   0  0  0  0  0  0  0  0  0  0  0  0
  139.3010   69.5670  224.3240 C   0  0  0  0  0  0  0  0  0  0  0  0
  139.8010   69.8320  225.5850 C   0  0  0  0  0  0  0  0  0  0  0  0
  139.6300   68.9810  226.6490 C   0  0  0  0  0  0  0  0  0  0  0  0
  140.1170   69.2230  227.9100 C   0  0  0  0  0  0  0  0  0  0  0  0
  139.9670   68.4130  228.9640 F   0  0  0  0  0  0  0  0  0  0  0  0
  140.8250   70.4040  228.1040 C   0  0  0  0  0  0  0  0  0  0  0  0
  140.9980   71.2620  227.0300 C   0  0  0  0  0  0  0  0  0  0  0  0
  140.4950   70.9920  225.7740 C   0  0  0  0  0  0  0  0  0  0  0  0
  140.7050   71.8750  224.7890 N   0  0  0  0  0  0  0  0  0  0  0  0
  138.7810   73.8350  223.0250 H   0  0  0  0  0  0  0  0  0  0  0  0
  140.8271   74.8963  221.1228 H   0  0  0  0  0  0  0  0  0  0  0  0
  139.2857   74.3994  220.3749 H   0  0  0  0  0  0  0  0  0  0  0  0
  137.4451   77.5152  220.7828 H   0  0  0  0  0  0  0  0  0  0  0  0
  138.2479   78.7881  221.8301 H   0  0  0  0  0  0  0  0  0  0  0  0
  138.0588   78.5533  218.8861 H   0  0  0  0  0  0  0  0  0  0  0  0
  138.0531   79.9956  220.0013 H   0  0  0  0  0  0  0  0  0  0  0  0
  140.0253   79.7120  218.4279 H   0  0  0  0  0  0  0  0  0  0  0  0
  140.3262   80.0009  220.2172 H   0  0  0  0  0  0  0  0  0  0  0  0
  140.4940   77.3406  218.8219 H   0  0  0  0  0  0  0  0  0  0  0  0
  141.8811   78.3942  219.2377 H   0  0  0  0  0  0  0  0  0  0  0  0
  141.4564   76.6732  221.0445 H   0  0  0  0  0  0  0  0  0  0  0  0
  140.6427   77.4451  223.5910 H   0  0  0  0  0  0  0  0  0  0  0  0
  141.6134   78.9721  225.2678 H   0  0  0  0  0  0  0  0  0  0  0  0
  142.9560   80.9385  224.5834 H   0  0  0  0  0  0  0  0  0  0  0  0
  143.3164   81.3478  222.1563 H   0  0  0  0  0  0  0  0  0  0  0  0
  142.3521   79.8296  220.4852 H   0  0  0  0  0  0  0  0  0  0  0  0
  139.1410   70.2967  222.3181 H   0  0  0  0  0  0  0  0  0  0  0  0
  138.7354   68.6459  224.1197 H   0  0  0  0  0  0  0  0  0  0  0  0
  139.0693   68.0496  226.4812 H   0  0  0  0  0  0  0  0  0  0  0  0
  141.2400   70.6524  229.0919 H   0  0  0  0  0  0  0  0  0  0  0  0
  141.5587   72.1956  227.1849 H   0  0  0  0  0  0  0  0  0  0  0  0
  1  2  2  0
  2  3  1  0
  3  4  1  0
  4  5  1  0
  5  6  2  0
  5  7  1  0
  7  8  1  0
  8  9  1  0
  9 10  1  0
 10 11  1  0
 11 12  1  0
 12 13  1  0
 13 14  2  0
 14 15  1  0
 15 16  2  0
 16 17  1  0
 17 18  2  0
  2 19  1  0
 19 20  2  0
 20 21  1  0
 21 22  2  0
 22 23  1  0
 23 24  2  0
 24 25  1  0
 24 26  1  0
 26 27  2  0
 27 28  1  0
 28 29  2  0
 12  7  1  0
 18 13  1  0
 29 19  1  0
 28 22  1  0
  3 30  1  0
  4 31  1  0
  4 32  1  0
  8 33  1  0
  8 34  1  0
  9 35  1  0
  9 36  1  0
 10 37  1  0
 10 38  1  0
 11 39  1  0
 11 40  1  0
 12 41  1  6
 14 42  1  0
 15 43  1  0
 16 44  1  0
 17 45  1  0
 18 46  1  0
 20 47  1  0
 21 48  1  0
 23 49  1  0
 26 50  1  0
 27 51  1  0
M  END
>  <smiles>  (38) 
O=C(NCC(=O)N1CCCC[C@H]1c1ccccc1)c1ccc2cc(F)ccc2n1

>  <score_type>  (38) 
oracle

>  <origin>  (38) 
autodockgpu

>  <m_score__min__energy>  (38) 
-9.2400000000000002

>  <m_primary>  (38) 
energy

>  <rmsd>  (38) 
2.267251344316555

>  <m_score__min__rmsd>  (38) 
2.267251344316555

>  <meeko>  (38) 
{"free_energy": -8.75, "intermolecular_energy": -10.24, "internal_energy": -1.84, "cluster_size": 44, "cluster_id": 1, "rank_in_cluster": 30}

>  <energy>  (38) 
-8.6

>  <cluster_rmsd>  (38) 
0.89

>  <cluster>  (38) 
1

$$$$

     RDKit          3D

 51 54  0  0  0  0  0  0  0  0999 V2000
  140.0890   71.7950  221.0240 O   0  0  0  0  0  0  0  0  0  0  0  0
  139.8940   72.3090  222.1550 C   0  0  0  0  0  0  0  0  0  0  0  0
  139.6430   73.6850  222.3550 N   0  0  0  0  0  0  0  0  0  0  0  0
  139.5960   74.6040  221.2410 C   0  0  0  0  0  0  0  0  0  0  0  0
  139.5320   75.9650  221.7860 C   0  0  0  0  0  0  0  0  0  0  0  0
  138.9710   76.2030  222.8850 O   0  0  0  0  0  0  0  0  0  0  0  0
  140.1000   77.1060  221.1060 N   0  0  0  0  0  0  0  0  0  0  0  0
  139.3090   77.7220  220.1000 C   0  0  0  0  0  0  0  0  0  0  0  0
  140.1000   78.3230  218.9710 C   0  0  0  0  0  0  0  0  0  0  0  0
  141.4940   78.7110  219.3720 C   0  0  0  0  0  0  0  0  0  0  0  0
  142.2030   77.7130  220.2120 C   0  0  0  0  0  0  0  0  0  0  0  0
  141.4360   77.5340  221.5070 C   0  0  1  0  0  0  0  0  0  0  0  0
  141.4420   78.7570  222.3170 C   0  0  0  0  0  0  0  0  0  0  0  0
  142.6600   79.3940  222.5720 C   0  0  0  0  0  0  0  0  0  0  0  0
  142.7180   80.5610  223.3250 C   0  0  0  0  0  0  0  0  0  0  0  0
  141.5850   81.1360  223.8490 C   0  0  0  0  0  0  0  0  0  0  0  0
  140.3810   80.5220  223.6070 C   0  0  0  0  0  0  0  0  0  0  0  0
  140.3290   79.3590  222.8560 C   0  0  0  0  0  0  0  0  0  0  0  0
  139.9270   71.4320  223.3370 C   0  0  0  0  0  0  0  0  0  0  0  0
  139.5210   70.1210  223.2890 C   0  0  0  0  0  0  0  0  0  0  0  0
  139.5440   69.2780  224.3900 C   0  0  0  0  0  0  0  0  0  0  0  0
  140.0000   69.7930  225.5880 C   0  0  0  0  0  0  0  0  0  0  0  0
  140.0670   69.0500  226.7420 C   0  0  0  0  0  0  0  0  0  0  0  0
  140.5160   69.5410  227.9440 C   0  0  0  0  0  0  0  0  0  0  0  0
  140.5930   68.8410  229.0820 F   0  0  0  0  0  0  0  0  0  0  0  0
  140.9260   70.8690  227.9780 C   0  0  0  0  0  0  0  0  0  0  0  0
  140.8590   71.6180  226.8140 C   0  0  0  0  0  0  0  0  0  0  0  0
  140.4010   71.0980  225.6210 C   0  0  0  0  0  0  0  0  0  0  0  0
  140.3670   71.8890  224.5400 N   0  0  0  0  0  0  0  0  0  0  0  0
  139.4860   74.0580  223.3340 H   0  0  0  0  0  0  0  0  0  0  0  0
  140.4991   74.4901  220.6233 H   0  0  0  0  0  0  0  0  0  0  0  0
  138.7176   74.4002  220.6110 H   0  0  0  0  0  0  0  0  0  0  0  0
  138.6328   76.9625  219.6806 H   0  0  0  0  0  0  0  0  0  0  0  0
  138.7732   78.5512  220.5850 H   0  0  0  0  0  0  0  0  0  0  0  0
  140.1619   77.5870  218.1558 H   0  0  0  0  0  0  0  0  0  0  0  0
  139.5806   79.2406  218.6576 H   0  0  0  0  0  0  0  0  0  0  0  0
  142.0825   78.8663  218.4557 H   0  0  0  0  0  0  0  0  0  0  0  0
  141.3973   79.6184  219.9861 H   0  0  0  0  0  0  0  0  0  0  0  0
  142.2578   76.7525  219.6786 H   0  0  0  0  0  0  0  0  0  0  0  0
  143.2239   78.0618  220.4266 H   0  0  0  0  0  0  0  0  0  0  0  0
  141.8983   76.7833  222.1648 H   0  0  0  0  0  0  0  0  0  0  0  0
  143.5891   78.9640  222.1696 H   0  0  0  0  0  0  0  0  0  0  0  0
  143.6938   81.0355  223.5057 H   0  0  0  0  0  0  0  0  0  0  0  0
  141.6411   82.0596  224.4439 H   0  0  0  0  0  0  0  0  0  0  0  0
  139.4541   80.9552  224.0110 H   0  0  0  0  0  0  0  0  0  0  0  0
  139.3477   78.8934  222.6819 H   0  0  0  0  0  0  0  0  0  0  0  0
  139.1599   69.7199  222.3305 H   0  0  0  0  0  0  0  0  0  0  0  0
  139.2099   68.2329  224.3118 H   0  0  0  0  0  0  0  0  0  0  0  0
  139.7419   67.9999  226.7010 H   0  0  0  0  0  0  0  0  0  0  0  0
  141.2968   71.3170  228.9117 H   0  0  0  0  0  0  0  0  0  0  0  0
  141.1838   72.6686  226.8423 H   0  0  0  0  0  0  0  0  0  0  0  0
  1  2  2  0
  2  3  1  0
  3  4  1  0
  4  5  1  0
  5  6  2  0
  5  7  1  0
  7  8  1  0
  8  9  1  0
  9 10  1  0
 10 11  1  0
 11 12  1  0
 12 13  1  0
 13 14  2  0
 14 15  1  0
 15 16  2  0
 16 17  1  0
 17 18  2  0
  2 19  1  0
 19 20  2  0
 20 21  1  0
 21 22  2  0
 22 23  1  0
 23 24  2  0
 24 25  1  0
 24 26  1  0
 26 27  2  0
 27 28  1  0
 28 29  2  0
 12  7  1  0
 18 13  1  0
 29 19  1  0
 28 22  1  0
  3 30  1  0
  4 31  1  0
  4 32  1  0
  8 33  1  0
  8 34  1  0
  9 35  1  0
  9 36  1  0
 10 37  1  0
 10 38  1  0
 11 39  1  0
 11 40  1  0
 12 41  1  1
 14 42  1  0
 15 43  1  0
 16 44  1  0
 17 45  1  0
 18 46  1  0
 20 47  1  0
 21 48  1  0
 23 49  1  0
 26 50  1  0
 27 51  1  0
M  END
>  <smiles>  (39) 
O=C(NCC(=O)N1CCCC[C@H]1c1ccccc1)c1ccc2cc(F)ccc2n1

>  <score_type>  (39) 
oracle

>  <origin>  (39) 
autodockgpu

>  <m_score__min__energy>  (39) 
-9.2400000000000002

>  <m_primary>  (39) 
energy

>  <rmsd>  (39) 
1.9354302195275863

>  <m_score__min__rmsd>  (39) 
1.9354302195275863

>  <meeko>  (39) 
{"free_energy": -8.73, "intermolecular_energy": -10.22, "internal_energy": -2.03, "cluster_size": 44, "cluster_id": 1, "rank_in_cluster": 34}

>  <energy>  (39) 
-8.57

>  <cluster_rmsd>  (39) 
0.98

>  <cluster>  (39) 
1

$$$$

     RDKit          3D

 51 54  0  0  0  0  0  0  0  0999 V2000
  141.2240   72.2030  221.4690 O   0  0  0  0  0  0  0  0  0  0  0  0
  140.3780   72.5440  222.3350 C   0  0  0  0  0  0  0  0  0  0  0  0
  139.6360   73.7450  222.2720 N   0  0  0  0  0  0  0  0  0  0  0  0
  139.8130   74.6740  221.1790 C   0  0  0  0  0  0  0  0  0  0  0  0
  139.5960   76.0270  221.7020 C   0  0  0  0  0  0  0  0  0  0  0  0
  138.9530   76.2220  222.7640 O   0  0  0  0  0  0  0  0  0  0  0  0
  140.0990   77.2100  221.0420 N   0  0  0  0  0  0  0  0  0  0  0  0
  139.2390   77.8460  220.1060 C   0  0  0  0  0  0  0  0  0  0  0  0
  139.9540   78.5130  218.9630 C   0  0  0  0  0  0  0  0  0  0  0  0
  141.3580   78.9210  219.3060 C   0  0  0  0  0  0  0  0  0  0  0  0
  142.1350   77.9080  220.0650 C   0  0  0  0  0  0  0  0  0  0  0  0
  141.4430   77.6570  221.3890 C   0  0  1  0  0  0  0  0  0  0  0  0
  141.4630   78.8450  222.2500 C   0  0  0  0  0  0  0  0  0  0  0  0
  142.6950   79.4000  222.6100 C   0  0  0  0  0  0  0  0  0  0  0  0
  142.7670   80.5310  223.4130 C   0  0  0  0  0  0  0  0  0  0  0  0
  141.6360   81.1510  223.8860 C   0  0  0  0  0  0  0  0  0  0  0  0
  140.4180   80.6180  223.5410 C   0  0  0  0  0  0  0  0  0  0  0  0
  140.3520   79.4900  222.7400 C   0  0  0  0  0  0  0  0  0  0  0  0
  140.1450   71.6460  223.4780 C   0  0  0  0  0  0  0  0  0  0  0  0
  139.3540   70.5260  223.3820 C   0  0  0  0  0  0  0  0  0  0  0  0
  139.1210   69.6680  224.4450 C   0  0  0  0  0  0  0  0  0  0  0  0
  139.7190   69.9630  225.6560 C   0  0  0  0  0  0  0  0  0  0  0  0
  139.5580   69.1830  226.7760 C   0  0  0  0  0  0  0  0  0  0  0  0
  140.1410   69.4560  227.9890 C   0  0  0  0  0  0  0  0  0  0  0  0
  140.0030   68.7160  229.0950 F   0  0  0  0  0  0  0  0  0  0  0  0
  140.9390   70.5910  228.0730 C   0  0  0  0  0  0  0  0  0  0  0  0
  141.1010   71.3770  226.9430 C   0  0  0  0  0  0  0  0  0  0  0  0
  140.5010   71.0780  225.7360 C   0  0  0  0  0  0  0  0  0  0  0  0
  140.7080   71.8900  224.6910 N   0  0  0  0  0  0  0  0  0  0  0  0
  138.9380   73.9770  223.0330 H   0  0  0  0  0  0  0  0  0  0  0  0
  140.8328   74.5876  220.7757 H   0  0  0  0  0  0  0  0  0  0  0  0
  139.1008   74.4557  220.3696 H   0  0  0  0  0  0  0  0  0  0  0  0
  138.5594   77.0869  219.6914 H   0  0  0  0  0  0  0  0  0  0  0  0
  138.7098   78.6401  220.6532 H   0  0  0  0  0  0  0  0  0  0  0  0
  139.9898   77.8126  218.1156 H   0  0  0  0  0  0  0  0  0  0  0  0
  139.3967   79.4287  218.7162 H   0  0  0  0  0  0  0  0  0  0  0  0
  141.8925   79.1290  218.3674 H   0  0  0  0  0  0  0  0  0  0  0  0
  141.2727   79.7999  219.9619 H   0  0  0  0  0  0  0  0  0  0  0  0
  142.1840   76.9718  219.4896 H   0  0  0  0  0  0  0  0  0  0  0  0
  143.1575   78.2739  220.2400 H   0  0  0  0  0  0  0  0  0  0  0  0
  141.9586   76.8928  221.9891 H   0  0  0  0  0  0  0  0  0  0  0  0
  143.6237   78.9325  222.2508 H   0  0  0  0  0  0  0  0  0  0  0  0
  143.7535   80.9402  223.6766 H   0  0  0  0  0  0  0  0  0  0  0  0
  141.7037   82.0465  224.5213 H   0  0  0  0  0  0  0  0  0  0  0  0
  139.4917   81.0887  223.9021 H   0  0  0  0  0  0  0  0  0  0  0  0
  139.3602   79.0898  222.4828 H   0  0  0  0  0  0  0  0  0  0  0  0
  138.8829   70.2997  222.4141 H   0  0  0  0  0  0  0  0  0  0  0  0
  138.4810   68.7809  224.3290 H   0  0  0  0  0  0  0  0  0  0  0  0
  138.9247   68.2871  226.6961 H   0  0  0  0  0  0  0  0  0  0  0  0
  141.4326   70.8603  229.0184 H   0  0  0  0  0  0  0  0  0  0  0  0
  141.7328   72.2749  227.0105 H   0  0  0  0  0  0  0  0  0  0  0  0
  1  2  2  0
  2  3  1  0
  3  4  1  0
  4  5  1  0
  5  6  2  0
  5  7  1  0
  7  8  1  0
  8  9  1  0
  9 10  1  0
 10 11  1  0
 11 12  1  0
 12 13  1  0
 13 14  2  0
 14 15  1  0
 15 16  2  0
 16 17  1  0
 17 18  2  0
  2 19  1  0
 19 20  2  0
 20 21  1  0
 21 22  2  0
 22 23  1  0
 23 24  2  0
 24 25  1  0
 24 26  1  0
 26 27  2  0
 27 28  1  0
 28 29  2  0
 12  7  1  0
 18 13  1  0
 29 19  1  0
 28 22  1  0
  3 30  1  0
  4 31  1  0
  4 32  1  0
  8 33  1  0
  8 34  1  0
  9 35  1  0
  9 36  1  0
 10 37  1  0
 10 38  1  0
 11 39  1  0
 11 40  1  0
 12 41  1  1
 14 42  1  0
 15 43  1  0
 16 44  1  0
 17 45  1  0
 18 46  1  0
 20 47  1  0
 21 48  1  0
 23 49  1  0
 26 50  1  0
 27 51  1  0
M  END
>  <smiles>  (40) 
O=C(NCC(=O)N1CCCC[C@H]1c1ccccc1)c1ccc2cc(F)ccc2n1

>  <score_type>  (40) 
oracle

>  <origin>  (40) 
autodockgpu

>  <m_score__min__energy>  (40) 
-9.2400000000000002

>  <m_primary>  (40) 
energy

>  <rmsd>  (40) 
2.069832821824225

>  <m_score__min__rmsd>  (40) 
2.069832821824225

>  <meeko>  (40) 
{"free_energy": -9.01, "intermolecular_energy": -10.5, "internal_energy": -1.85, "cluster_size": 44, "cluster_id": 1, "rank_in_cluster": 7}

>  <energy>  (40) 
-8.56

>  <cluster_rmsd>  (40) 
0.97

>  <cluster>  (40) 
1

$$$$

     RDKit          3D

 51 54  0  0  0  0  0  0  0  0999 V2000
  140.7820   71.8340  221.1010 O   0  0  0  0  0  0  0  0  0  0  0  0
  140.2250   72.3040  222.1250 C   0  0  0  0  0  0  0  0  0  0  0  0
  139.7130   73.6190  222.2020 N   0  0  0  0  0  0  0  0  0  0  0  0
  139.8030   74.5210  221.0760 C   0  0  0  0  0  0  0  0  0  0  0  0
  141.0310   75.3080  221.2310 C   0  0  0  0  0  0  0  0  0  0  0  0
  141.2960   75.9040  222.3060 O   0  0  0  0  0  0  0  0  0  0  0  0
  142.0060   75.4510  220.1740 N   0  0  0  0  0  0  0  0  0  0  0  0
  142.5220   76.7540  219.9380 C   0  0  0  0  0  0  0  0  0  0  0  0
  142.8780   77.0290  218.5040 C   0  0  0  0  0  0  0  0  0  0  0  0
  143.2100   75.7840  217.7310 C   0  0  0  0  0  0  0  0  0  0  0  0
  142.2980   74.6380  217.9730 C   0  0  0  0  0  0  0  0  0  0  0  0
  142.3820   74.2500  219.4360 C   0  0  1  0  0  0  0  0  0  0  0  0
  143.7100   73.7360  219.7890 C   0  0  0  0  0  0  0  0  0  0  0  0
  144.5700   74.5420  220.5410 C   0  0  0  0  0  0  0  0  0  0  0  0
  145.8330   74.0970  220.9120 C   0  0  0  0  0  0  0  0  0  0  0  0
  146.2890   72.8510  220.5550 C   0  0  0  0  0  0  0  0  0  0  0  0
  145.4560   72.0470  219.8160 C   0  0  0  0  0  0  0  0  0  0  0  0
  144.1980   72.4960  219.4500 C   0  0  0  0  0  0  0  0  0  0  0  0
  140.0980   71.4420  223.3120 C   0  0  0  0  0  0  0  0  0  0  0  0
  139.5840   70.1700  223.2420 C   0  0  0  0  0  0  0  0  0  0  0  0
  139.4540   69.3410  224.3460 C   0  0  0  0  0  0  0  0  0  0  0  0
  139.8660   69.8300  225.5710 C   0  0  0  0  0  0  0  0  0  0  0  0
  139.7850   69.0970  226.7310 C   0  0  0  0  0  0  0  0  0  0  0  0
  140.1870   69.5610  227.9590 C   0  0  0  0  0  0  0  0  0  0  0  0
  140.1210   68.8710  229.1040 F   0  0  0  0  0  0  0  0  0  0  0  0
  140.7060   70.8500  228.0160 C   0  0  0  0  0  0  0  0  0  0  0  0
  140.7880   71.5880  226.8460 C   0  0  0  0  0  0  0  0  0  0  0  0
  140.3740   71.0950  225.6250 C   0  0  0  0  0  0  0  0  0  0  0  0
  140.4870   71.8740  224.5410 N   0  0  0  0  0  0  0  0  0  0  0  0
  139.2540   73.9580  223.0940 H   0  0  0  0  0  0  0  0  0  0  0  0
  139.8419   73.9469  220.1385 H   0  0  0  0  0  0  0  0  0  0  0  0
  138.9242   75.1817  221.0409 H   0  0  0  0  0  0  0  0  0  0  0  0
  141.7635   77.4866  220.2510 H   0  0  0  0  0  0  0  0  0  0  0  0
  143.4557   76.8317  220.5143 H   0  0  0  0  0  0  0  0  0  0  0  0
  142.0236   77.5245  218.0198 H   0  0  0  0  0  0  0  0  0  0  0  0
  143.7758   77.6645  218.5045 H   0  0  0  0  0  0  0  0  0  0  0  0
  143.1758   76.0278  216.6589 H   0  0  0  0  0  0  0  0  0  0  0  0
  144.2056   75.4643  218.0725 H   0  0  0  0  0  0  0  0  0  0  0  0
  141.2661   74.9276  217.7256 H   0  0  0  0  0  0  0  0  0  0  0  0
  142.5914   73.7860  217.3421 H   0  0  0  0  0  0  0  0  0  0  0  0
  141.7065   73.4184  219.6855 H   0  0  0  0  0  0  0  0  0  0  0  0
  144.2408   75.5467  220.8445 H   0  0  0  0  0  0  0  0  0  0  0  0
  146.4827   74.7574  221.5051 H   0  0  0  0  0  0  0  0  0  0  0  0
  147.2910   72.5078  220.8521 H   0  0  0  0  0  0  0  0  0  0  0  0
  145.7891   71.0431  219.5138 H   0  0  0  0  0  0  0  0  0  0  0  0
  143.5566   71.8266  218.8580 H   0  0  0  0  0  0  0  0  0  0  0  0
  139.2595   69.7903  222.2619 H   0  0  0  0  0  0  0  0  0  0  0  0
  139.0367   68.3278  224.2498 H   0  0  0  0  0  0  0  0  0  0  0  0
  139.3738   68.0785  226.6719 H   0  0  0  0  0  0  0  0  0  0  0  0
  141.0450   71.2757  228.9719 H   0  0  0  0  0  0  0  0  0  0  0  0
  141.1993   72.6071  226.8921 H   0  0  0  0  0  0  0  0  0  0  0  0
  1  2  2  0
  2  3  1  0
  3  4  1  0
  4  5  1  0
  5  6  2  0
  5  7  1  0
  7  8  1  0
  8  9  1  0
  9 10  1  0
 10 11  1  0
 11 12  1  0
 12 13  1  0
 13 14  2  0
 14 15  1  0
 15 16  2  0
 16 17  1  0
 17 18  2  0
  2 19  1  0
 19 20  2  0
 20 21  1  0
 21 22  2  0
 22 23  1  0
 23 24  2  0
 24 25  1  0
 24 26  1  0
 26 27  2  0
 27 28  1  0
 28 29  2  0
 12  7  1  0
 18 13  1  0
 29 19  1  0
 28 22  1  0
  3 30  1  0
  4 31  1  0
  4 32  1  0
  8 33  1  0
  8 34  1  0
  9 35  1  0
  9 36  1  0
 10 37  1  0
 10 38  1  0
 11 39  1  0
 11 40  1  0
 12 41  1  6
 14 42  1  0
 15 43  1  0
 16 44  1  0
 17 45  1  0
 18 46  1  0
 20 47  1  0
 21 48  1  0
 23 49  1  0
 26 50  1  0
 27 51  1  0
M  END
>  <smiles>  (41) 
O=C(NCC(=O)N1CCCC[C@H]1c1ccccc1)c1ccc2cc(F)ccc2n1

>  <score_type>  (41) 
oracle

>  <origin>  (41) 
autodockgpu

>  <m_score__min__energy>  (41) 
-9.2400000000000002

>  <m_primary>  (41) 
energy

>  <rmsd>  (41) 
2.315743291787129

>  <m_score__min__rmsd>  (41) 
2.315743291787129

>  <meeko>  (41) 
{"free_energy": -8.64, "intermolecular_energy": -10.14, "internal_energy": -1.75, "cluster_size": 4, "cluster_id": 2, "rank_in_cluster": 4}

>  <energy>  (41) 
-8.52

>  <cluster_rmsd>  (41) 
0.93

>  <cluster>  (41) 
1

$$$$

     RDKit          3D

 51 54  0  0  0  0  0  0  0  0999 V2000
  138.2450   71.2670  221.5110 O   0  0  0  0  0  0  0  0  0  0  0  0
  138.9070   71.7160  222.4820 C   0  0  0  0  0  0  0  0  0  0  0  0
  139.3800   73.0450  222.5560 N   0  0  0  0  0  0  0  0  0  0  0  0
  139.1220   73.9890  221.4930 C   0  0  0  0  0  0  0  0  0  0  0  0
  140.0180   75.1350  221.6850 C   0  0  0  0  0  0  0  0  0  0  0  0
  141.2300   74.9760  221.9760 O   0  0  0  0  0  0  0  0  0  0  0  0
  139.5750   76.5040  221.5540 N   0  0  0  0  0  0  0  0  0  0  0  0
  138.3190   76.8370  222.1270 C   0  0  0  0  0  0  0  0  0  0  0  0
  137.5680   77.9130  221.3930 C   0  0  0  0  0  0  0  0  0  0  0  0
  138.4690   78.8340  220.6190 C   0  0  0  0  0  0  0  0  0  0  0  0
  139.5530   78.1570  219.8640 C   0  0  0  0  0  0  0  0  0  0  0  0
  140.4500   77.4320  220.8460 C   0  0  1  0  0  0  0  0  0  0  0  0
  141.1560   78.3650  221.7330 C   0  0  0  0  0  0  0  0  0  0  0  0
  141.1630   78.1170  223.1090 C   0  0  0  0  0  0  0  0  0  0  0  0
  141.8270   78.9630  223.9890 C   0  0  0  0  0  0  0  0  0  0  0  0
  142.5000   80.0750  223.5470 C   0  0  0  0  0  0  0  0  0  0  0  0
  142.5020   80.3330  222.1980 C   0  0  0  0  0  0  0  0  0  0  0  0
  141.8390   79.4860  221.3250 C   0  0  0  0  0  0  0  0  0  0  0  0
  139.2090   70.8100  223.6020 C   0  0  0  0  0  0  0  0  0  0  0  0
  138.8840   69.4750  223.5730 C   0  0  0  0  0  0  0  0  0  0  0  0
  139.1580   68.6040  224.6170 C   0  0  0  0  0  0  0  0  0  0  0  0
  139.7890   69.1150  225.7350 C   0  0  0  0  0  0  0  0  0  0  0  0
  140.1090   68.3460  226.8280 C   0  0  0  0  0  0  0  0  0  0  0  0
  140.7350   68.8310  227.9490 C   0  0  0  0  0  0  0  0  0  0  0  0
  141.0590   68.1060  229.0260 F   0  0  0  0  0  0  0  0  0  0  0  0
  141.0590   70.1830  227.9650 C   0  0  0  0  0  0  0  0  0  0  0  0
  140.7360   70.9590  226.8630 C   0  0  0  0  0  0  0  0  0  0  0  0
  140.1050   70.4430  225.7490 C   0  0  0  0  0  0  0  0  0  0  0  0
  139.8280   71.2610  224.7250 N   0  0  0  0  0  0  0  0  0  0  0  0
  139.9330   73.3640  223.4010 H   0  0  0  0  0  0  0  0  0  0  0  0
  139.3194   73.5186  220.5184 H   0  0  0  0  0  0  0  0  0  0  0  0
  138.0714   74.3143  221.5140 H   0  0  0  0  0  0  0  0  0  0  0  0
  137.6959   75.9306  222.1409 H   0  0  0  0  0  0  0  0  0  0  0  0
  138.5268   77.2294  223.1334 H   0  0  0  0  0  0  0  0  0  0  0  0
  136.8682   77.4357  220.6913 H   0  0  0  0  0  0  0  0  0  0  0  0
  137.0441   78.5207  222.1455 H   0  0  0  0  0  0  0  0  0  0  0  0
  137.8509   79.3939  219.9018 H   0  0  0  0  0  0  0  0  0  0  0  0
  138.9644   79.4773  221.3611 H   0  0  0  0  0  0  0  0  0  0  0  0
  139.1170   77.4347  219.1582 H   0  0  0  0  0  0  0  0  0  0  0  0
  140.1373   78.8995  219.3007 H   0  0  0  0  0  0  0  0  0  0  0  0
  141.2617   76.8865  220.3424 H   0  0  0  0  0  0  0  0  0  0  0  0
  140.6335   77.2365  223.5019 H   0  0  0  0  0  0  0  0  0  0  0  0
  141.8131   78.7363  225.0653 H   0  0  0  0  0  0  0  0  0  0  0  0
  143.0217   80.7391  224.2518 H   0  0  0  0  0  0  0  0  0  0  0  0
  143.0319   81.2152  221.8095 H   0  0  0  0  0  0  0  0  0  0  0  0
  141.8602   79.7225  220.2509 H   0  0  0  0  0  0  0  0  0  0  0  0
  138.3822   69.0779  222.6783 H   0  0  0  0  0  0  0  0  0  0  0  0
  138.8819   67.5409  224.5569 H   0  0  0  0  0  0  0  0  0  0  0  0
  139.8478   67.2778  226.8030 H   0  0  0  0  0  0  0  0  0  0  0  0
  141.5622   70.6284  228.8359 H   0  0  0  0  0  0  0  0  0  0  0  0
  140.9926   72.0286  226.8767 H   0  0  0  0  0  0  0  0  0  0  0  0
  1  2  2  0
  2  3  1  0
  3  4  1  0
  4  5  1  0
  5  6  2  0
  5  7  1  0
  7  8  1  0
  8  9  1  0
  9 10  1  0
 10 11  1  0
 11 12  1  0
 12 13  1  0
 13 14  2  0
 14 15  1  0
 15 16  2  0
 16 17  1  0
 17 18  2  0
  2 19  1  0
 19 20  2  0
 20 21  1  0
 21 22  2  0
 22 23  1  0
 23 24  2  0
 24 25  1  0
 24 26  1  0
 26 27  2  0
 27 28  1  0
 28 29  2  0
 12  7  1  0
 18 13  1  0
 29 19  1  0
 28 22  1  0
  3 30  1  0
  4 31  1  0
  4 32  1  0
  8 33  1  0
  8 34  1  0
  9 35  1  0
  9 36  1  0
 10 37  1  0
 10 38  1  0
 11 39  1  0
 11 40  1  0
 12 41  1  6
 14 42  1  0
 15 43  1  0
 16 44  1  0
 17 45  1  0
 18 46  1  0
 20 47  1  0
 21 48  1  0
 23 49  1  0
 26 50  1  0
 27 51  1  0
M  END
>  <smiles>  (42) 
O=C(NCC(=O)N1CCCC[C@H]1c1ccccc1)c1ccc2cc(F)ccc2n1

>  <score_type>  (42) 
oracle

>  <origin>  (42) 
autodockgpu

>  <m_score__min__energy>  (42) 
-9.2400000000000002

>  <m_primary>  (42) 
energy

>  <rmsd>  (42) 
2.207438070086944

>  <m_score__min__rmsd>  (42) 
2.207438070086944

>  <meeko>  (42) 
{"free_energy": -8.56, "intermolecular_energy": -10.06, "internal_energy": -1.85, "cluster_size": 44, "cluster_id": 1, "rank_in_cluster": 40}

>  <energy>  (42) 
-8.22

>  <cluster_rmsd>  (42) 
1.32

>  <cluster>  (42) 
1

$$$$

     RDKit          3D

 51 54  0  0  0  0  0  0  0  0999 V2000
  141.3630   72.8320  221.3890 O   0  0  0  0  0  0  0  0  0  0  0  0
  140.4490   72.9980  222.2370 C   0  0  0  0  0  0  0  0  0  0  0  0
  139.6880   74.1840  222.3410 N   0  0  0  0  0  0  0  0  0  0  0  0
  139.9230   75.3020  221.4560 C   0  0  0  0  0  0  0  0  0  0  0  0
  139.5780   76.5290  222.1830 C   0  0  0  0  0  0  0  0  0  0  0  0
  138.5360   76.6050  222.8810 O   0  0  0  0  0  0  0  0  0  0  0  0
  140.4010   77.7160  222.1460 N   0  0  0  0  0  0  0  0  0  0  0  0
  141.4340   77.8200  223.1170 C   0  0  0  0  0  0  0  0  0  0  0  0
  141.7350   79.2270  223.5530 C   0  0  0  0  0  0  0  0  0  0  0  0
  141.3800   80.2520  222.5150 C   0  0  0  0  0  0  0  0  0  0  0  0
  140.0720   80.0380  221.8470 C   0  0  0  0  0  0  0  0  0  0  0  0
  140.1090   78.7090  221.1190 C   0  0  1  0  0  0  0  0  0  0  0  0
  141.0790   78.7170  220.0180 C   0  0  0  0  0  0  0  0  0  0  0  0
  141.2910   79.9050  219.3120 C   0  0  0  0  0  0  0  0  0  0  0  0
  142.2070   79.9680  218.2680 C   0  0  0  0  0  0  0  0  0  0  0  0
  142.9390   78.8700  217.8870 C   0  0  0  0  0  0  0  0  0  0  0  0
  142.7420   77.6960  218.5710 C   0  0  0  0  0  0  0  0  0  0  0  0
  141.8280   77.6390  219.6100 C   0  0  0  0  0  0  0  0  0  0  0  0
  140.1540   71.9020  223.1730 C   0  0  0  0  0  0  0  0  0  0  0  0
  139.3370   70.8490  222.8350 C   0  0  0  0  0  0  0  0  0  0  0  0
  139.0460   69.8070  223.7020 C   0  0  0  0  0  0  0  0  0  0  0  0
  139.6090   69.8380  224.9630 C   0  0  0  0  0  0  0  0  0  0  0  0
  139.3890   68.8590  225.9020 C   0  0  0  0  0  0  0  0  0  0  0  0
  139.9380   68.8690  227.1610 C   0  0  0  0  0  0  0  0  0  0  0  0
  139.7430   67.9310  228.0950 F   0  0  0  0  0  0  0  0  0  0  0  0
  140.7630   69.9390  227.4900 C   0  0  0  0  0  0  0  0  0  0  0  0
  140.9840   70.9260  226.5420 C   0  0  0  0  0  0  0  0  0  0  0  0
  140.4180   70.8900  225.2840 C   0  0  0  0  0  0  0  0  0  0  0  0
  140.6820   71.8840  224.4260 N   0  0  0  0  0  0  0  0  0  0  0  0
  138.9310   74.2640  223.0770 H   0  0  0  0  0  0  0  0  0  0  0  0
  140.9818   75.3281  221.1589 H   0  0  0  0  0  0  0  0  0  0  0  0
  139.3103   75.2084  220.5472 H   0  0  0  0  0  0  0  0  0  0  0  0
  141.1331   77.2418  224.0031 H   0  0  0  0  0  0  0  0  0  0  0  0
  142.3496   77.4342  222.6449 H   0  0  0  0  0  0  0  0  0  0  0  0
  141.1617   79.4408  224.4671 H   0  0  0  0  0  0  0  0  0  0  0  0
  142.8197   79.2935  223.7233 H   0  0  0  0  0  0  0  0  0  0  0  0
  141.3576   81.2380  223.0021 H   0  0  0  0  0  0  0  0  0  0  0  0
  142.1448   80.1721  221.7284 H   0  0  0  0  0  0  0  0  0  0  0  0
  139.2698   80.0255  222.5996 H   0  0  0  0  0  0  0  0  0  0  0  0
  139.8791   80.8514  221.1320 H   0  0  0  0  0  0  0  0  0  0  0  0
  139.1541   78.4794  220.6235 H   0  0  0  0  0  0  0  0  0  0  0  0
  140.7230   80.8058  219.5874 H   0  0  0  0  0  0  0  0  0  0  0  0
  142.3488   80.9195  217.7346 H   0  0  0  0  0  0  0  0  0  0  0  0
  143.6609   78.9295  217.0592 H   0  0  0  0  0  0  0  0  0  0  0  0
  143.3122   76.7974  218.2928 H   0  0  0  0  0  0  0  0  0  0  0  0
  141.6946   76.6820  220.1357 H   0  0  0  0  0  0  0  0  0  0  0  0
  138.8931   70.8325  221.8287 H   0  0  0  0  0  0  0  0  0  0  0  0
  138.3872   68.9812  223.3952 H   0  0  0  0  0  0  0  0  0  0  0  0
  138.7347   68.0178  225.6293 H   0  0  0  0  0  0  0  0  0  0  0  0
  141.2312   70.0010  228.4834 H   0  0  0  0  0  0  0  0  0  0  0  0
  141.6368   71.7720  226.8031 H   0  0  0  0  0  0  0  0  0  0  0  0
  1  2  2  0
  2  3  1  0
  3  4  1  0
  4  5  1  0
  5  6  2  0
  5  7  1  0
  7  8  1  0
  8  9  1  0
  9 10  1  0
 10 11  1  0
 11 12  1  0
 12 13  1  0
 13 14  2  0
 14 15  1  0
 15 16  2  0
 16 17  1  0
 17 18  2  0
  2 19  1  0
 19 20  2  0
 20 21  1  0
 21 22  2  0
 22 23  1  0
 23 24  2  0
 24 25  1  0
 24 26  1  0
 26 27  2  0
 27 28  1  0
 28 29  2  0
 12  7  1  0
 18 13  1  0
 29 19  1  0
 28 22  1  0
  3 30  1  0
  4 31  1  0
  4 32  1  0
  8 33  1  0
  8 34  1  0
  9 35  1  0
  9 36  1  0
 10 37  1  0
 10 38  1  0
 11 39  1  0
 11 40  1  0
 12 41  1  6
 14 42  1  0
 15 43  1  0
 16 44  1  0
 17 45  1  0
 18 46  1  0
 20 47  1  0
 21 48  1  0
 23 49  1  0
 26 50  1  0
 27 51  1  0
M  END
>  <smiles>  (43) 
O=C(NCC(=O)N1CCCC[C@H]1c1ccccc1)c1ccc2cc(F)ccc2n1

>  <score_type>  (43) 
oracle

>  <origin>  (43) 
autodockgpu

>  <m_score__min__energy>  (43) 
-9.2400000000000002

>  <m_primary>  (43) 
energy

>  <rmsd>  (43) 
3.543490797875364

>  <m_score__min__rmsd>  (43) 
3.543490797875364

>  <meeko>  (43) 
{"free_energy": -8.17, "intermolecular_energy": -9.66, "internal_energy": -1.72, "cluster_size": 44, "cluster_id": 1, "rank_in_cluster": 44}

>  <energy>  (43) 
-8.18

>  <cluster_rmsd>  (43) 
1.38

>  <cluster>  (43) 
1

$$$$

     RDKit          3D

 51 54  0  0  0  0  0  0  0  0999 V2000
  141.1200   71.9780  221.3000 O   0  0  0  0  0  0  0  0  0  0  0  0
  140.4230   72.3990  222.2590 C   0  0  0  0  0  0  0  0  0  0  0  0
  139.8270   73.6790  222.2870 N   0  0  0  0  0  0  0  0  0  0  0  0
  139.9870   74.6020  221.1860 C   0  0  0  0  0  0  0  0  0  0  0  0
  139.6620   75.9450  221.6770 C   0  0  0  0  0  0  0  0  0  0  0  0
  138.9690   76.1140  222.7110 O   0  0  0  0  0  0  0  0  0  0  0  0
  140.1110   77.1490  221.0140 N   0  0  0  0  0  0  0  0  0  0  0  0
  139.2030   77.7720  220.1160 C   0  0  0  0  0  0  0  0  0  0  0  0
  139.8590   78.4700  218.9570 C   0  0  0  0  0  0  0  0  0  0  0  0
  141.2630   78.9120  219.2550 C   0  0  0  0  0  0  0  0  0  0  0  0
  142.0920   77.9110  219.9740 C   0  0  0  0  0  0  0  0  0  0  0  0
  141.4550   77.6270  221.3190 C   0  0  1  0  0  0  0  0  0  0  0  0
  141.4740   78.8060  222.1930 C   0  0  0  0  0  0  0  0  0  0  0  0
  142.7040   79.3800  222.5270 C   0  0  0  0  0  0  0  0  0  0  0  0
  142.7750   80.5040  223.3420 C   0  0  0  0  0  0  0  0  0  0  0  0
  141.6450   81.0960  223.8510 C   0  0  0  0  0  0  0  0  0  0  0  0
  140.4290   80.5430  223.5310 C   0  0  0  0  0  0  0  0  0  0  0  0
  140.3640   79.4230  222.7190 C   0  0  0  0  0  0  0  0  0  0  0  0
  140.2170   71.5130  223.4160 C   0  0  0  0  0  0  0  0  0  0  0  0
  139.5860   70.2980  223.3060 C   0  0  0  0  0  0  0  0  0  0  0  0
  139.3810   69.4490  224.3830 C   0  0  0  0  0  0  0  0  0  0  0  0
  139.8370   69.8550  225.6220 C   0  0  0  0  0  0  0  0  0  0  0  0
  139.6890   69.0960  226.7570 C   0  0  0  0  0  0  0  0  0  0  0  0
  140.1330   69.4790  227.9990 C   0  0  0  0  0  0  0  0  0  0  0  0
  140.0040   68.7610  229.1200 F   0  0  0  0  0  0  0  0  0  0  0  0
  140.7710   70.7110  228.0970 C   0  0  0  0  0  0  0  0  0  0  0  0
  140.9210   71.4770  226.9510 C   0  0  0  0  0  0  0  0  0  0  0  0
  140.4620   71.0650  225.7160 C   0  0  0  0  0  0  0  0  0  0  0  0
  140.6460   71.8660  224.6580 N   0  0  0  0  0  0  0  0  0  0  0  0
  139.2510   73.9770  223.1240 H   0  0  0  0  0  0  0  0  0  0  0  0
  141.0255   74.5768  220.8244 H   0  0  0  0  0  0  0  0  0  0  0  0
  139.3234   74.3260  220.3533 H   0  0  0  0  0  0  0  0  0  0  0  0
  138.5294   76.9997  219.7164 H   0  0  0  0  0  0  0  0  0  0  0  0
  138.6732   78.5460  220.6906 H   0  0  0  0  0  0  0  0  0  0  0  0
  139.8833   77.7799  218.1007 H   0  0  0  0  0  0  0  0  0  0  0  0
  139.2692   79.3730  218.7409 H   0  0  0  0  0  0  0  0  0  0  0  0
  141.7583   79.1445  218.3008 H   0  0  0  0  0  0  0  0  0  0  0  0
  141.1785   79.7815  219.9235 H   0  0  0  0  0  0  0  0  0  0  0  0
  142.1441   76.9828  219.3860 H   0  0  0  0  0  0  0  0  0  0  0  0
  143.1103   78.3017  220.1171 H   0  0  0  0  0  0  0  0  0  0  0  0
  142.0119   76.8703  221.8911 H   0  0  0  0  0  0  0  0  0  0  0  0
  143.6317   78.9347  222.1383 H   0  0  0  0  0  0  0  0  0  0  0  0
  143.7598   80.9295  223.5851 H   0  0  0  0  0  0  0  0  0  0  0  0
  141.7117   81.9853  224.4949 H   0  0  0  0  0  0  0  0  0  0  0  0
  139.5034   80.9914  223.9212 H   0  0  0  0  0  0  0  0  0  0  0  0
  139.3738   79.0060  222.4830 H   0  0  0  0  0  0  0  0  0  0  0  0
  139.2258   69.9832  222.3155 H   0  0  0  0  0  0  0  0  0  0  0  0
  138.8713   68.4827  224.2547 H   0  0  0  0  0  0  0  0  0  0  0  0
  139.1845   68.1228  226.6659 H   0  0  0  0  0  0  0  0  0  0  0  0
  141.1494   71.0708  229.0652 H   0  0  0  0  0  0  0  0  0  0  0  0
  141.4256   72.4513  227.0290 H   0  0  0  0  0  0  0  0  0  0  0  0
  1  2  2  0
  2  3  1  0
  3  4  1  0
  4  5  1  0
  5  6  2  0
  5  7  1  0
  7  8  1  0
  8  9  1  0
  9 10  1  0
 10 11  1  0
 11 12  1  0
 12 13  1  0
 13 14  2  0
 14 15  1  0
 15 16  2  0
 16 17  1  0
 17 18  2  0
  2 19  1  0
 19 20  2  0
 20 21  1  0
 21 22  2  0
 22 23  1  0
 23 24  2  0
 24 25  1  0
 24 26  1  0
 26 27  2  0
 27 28  1  0
 28 29  2  0
 12  7  1  0
 18 13  1  0
 29 19  1  0
 28 22  1  0
  3 30  1  0
  4 31  1  0
  4 32  1  0
  8 33  1  0
  8 34  1  0
  9 35  1  0
  9 36  1  0
 10 37  1  0
 10 38  1  0
 11 39  1  0
 11 40  1  0
 12 41  1  1
 14 42  1  0
 15 43  1  0
 16 44  1  0
 17 45  1  0
 18 46  1  0
 20 47  1  0
 21 48  1  0
 23 49  1  0
 26 50  1  0
 27 51  1  0
M  END
>  <smiles>  (44) 
O=C(NCC(=O)N1CCCC[C@H]1c1ccccc1)c1ccc2cc(F)ccc2n1

>  <score_type>  (44) 
oracle

>  <origin>  (44) 
autodockgpu

>  <m_score__min__energy>  (44) 
-9.2400000000000002

>  <m_primary>  (44) 
energy

>  <rmsd>  (44) 
2.0223088503960183

>  <m_score__min__rmsd>  (44) 
2.0223088503960183

>  <meeko>  (44) 
{"free_energy": -8.94, "intermolecular_energy": -10.43, "internal_energy": -1.94, "cluster_size": 44, "cluster_id": 1, "rank_in_cluster": 15}

>  <energy>  (44) 
-8.17

>  <cluster_rmsd>  (44) 
1.92

>  <cluster>  (44) 
1

$$$$

     RDKit          3D

 51 54  0  0  0  0  0  0  0  0999 V2000
  141.1100   71.9500  221.2970 O   0  0  0  0  0  0  0  0  0  0  0  0
  140.3810   72.3600  222.2360 C   0  0  0  0  0  0  0  0  0  0  0  0
  139.7470   73.6230  222.2360 N   0  0  0  0  0  0  0  0  0  0  0  0
  139.9050   74.5380  221.1280 C   0  0  0  0  0  0  0  0  0  0  0  0
  139.5980   75.8870  221.6140 C   0  0  0  0  0  0  0  0  0  0  0  0
  138.9070   76.0680  222.6480 O   0  0  0  0  0  0  0  0  0  0  0  0
  140.0630   77.0820  220.9480 N   0  0  0  0  0  0  0  0  0  0  0  0
  139.1580   77.7230  220.0590 C   0  0  0  0  0  0  0  0  0  0  0  0
  139.8160   78.4100  218.8950 C   0  0  0  0  0  0  0  0  0  0  0  0
  141.2310   78.8250  219.1800 C   0  0  0  0  0  0  0  0  0  0  0  0
  142.0480   77.8080  219.8890 C   0  0  0  0  0  0  0  0  0  0  0  0
  141.4180   77.5350  221.2400 C   0  0  1  0  0  0  0  0  0  0  0  0
  141.4680   78.7120  222.1140 C   0  0  0  0  0  0  0  0  0  0  0  0
  140.3070   79.1050  222.7870 C   0  0  0  0  0  0  0  0  0  0  0  0
  140.3050   80.2060  223.6360 C   0  0  0  0  0  0  0  0  0  0  0  0
  141.4390   80.9520  223.8480 C   0  0  0  0  0  0  0  0  0  0  0  0
  142.5870   80.5790  223.1940 C   0  0  0  0  0  0  0  0  0  0  0  0
  142.5840   79.4800  222.3500 C   0  0  0  0  0  0  0  0  0  0  0  0
  140.1740   71.4820  223.3990 C   0  0  0  0  0  0  0  0  0  0  0  0
  139.5400   70.2670  223.2960 C   0  0  0  0  0  0  0  0  0  0  0  0
  139.3350   69.4250  224.3790 C   0  0  0  0  0  0  0  0  0  0  0  0
  139.7940   69.8370  225.6150 C   0  0  0  0  0  0  0  0  0  0  0  0
  139.6460   69.0840  226.7540 C   0  0  0  0  0  0  0  0  0  0  0  0
  140.0940   69.4730  227.9920 C   0  0  0  0  0  0  0  0  0  0  0  0
  139.9650   68.7620  229.1180 F   0  0  0  0  0  0  0  0  0  0  0  0
  140.7350   70.7040  228.0820 C   0  0  0  0  0  0  0  0  0  0  0  0
  140.8850   71.4630  226.9320 C   0  0  0  0  0  0  0  0  0  0  0  0
  140.4220   71.0460  225.7000 C   0  0  0  0  0  0  0  0  0  0  0  0
  140.6070   71.8400  224.6370 N   0  0  0  0  0  0  0  0  0  0  0  0
  139.1440   73.9130  223.0570 H   0  0  0  0  0  0  0  0  0  0  0  0
  140.9396   74.5005  220.7563 H   0  0  0  0  0  0  0  0  0  0  0  0
  139.2304   74.2636  220.3036 H   0  0  0  0  0  0  0  0  0  0  0  0
  138.4665   76.9638  219.6648 H   0  0  0  0  0  0  0  0  0  0  0  0
  138.6479   78.5059  220.6394 H   0  0  0  0  0  0  0  0  0  0  0  0
  139.8190   77.7208  218.0377 H   0  0  0  0  0  0  0  0  0  0  0  0
  139.2414   79.3244  218.6858 H   0  0  0  0  0  0  0  0  0  0  0  0
  141.7212   79.0498  218.2213 H   0  0  0  0  0  0  0  0  0  0  0  0
  141.1692   79.6946  219.8507 H   0  0  0  0  0  0  0  0  0  0  0  0
  142.0768   76.8797  219.2996 H   0  0  0  0  0  0  0  0  0  0  0  0
  143.0751   78.1786  220.0222 H   0  0  0  0  0  0  0  0  0  0  0  0
  141.9657   76.7674  221.8065 H   0  0  0  0  0  0  0  0  0  0  0  0
  139.3787   78.5329  222.6421 H   0  0  0  0  0  0  0  0  0  0  0  0
  139.3737   80.4863  224.1500 H   0  0  0  0  0  0  0  0  0  0  0  0
  141.4275   81.8218  224.5213 H   0  0  0  0  0  0  0  0  0  0  0  0
  143.5128   81.1548  223.3405 H   0  0  0  0  0  0  0  0  0  0  0  0
  143.5217   79.2082  221.8432 H   0  0  0  0  0  0  0  0  0  0  0  0
  139.1779   69.9471  222.3078 H   0  0  0  0  0  0  0  0  0  0  0  0
  138.8228   68.4591  224.2574 H   0  0  0  0  0  0  0  0  0  0  0  0
  139.1385   68.1118  226.6693 H   0  0  0  0  0  0  0  0  0  0  0  0
  141.1157   71.0683  229.0476 H   0  0  0  0  0  0  0  0  0  0  0  0
  141.3930   72.4360  227.0038 H   0  0  0  0  0  0  0  0  0  0  0  0
  1  2  2  0
  2  3  1  0
  3  4  1  0
  4  5  1  0
  5  6  2  0
  5  7  1  0
  7  8  1  0
  8  9  1  0
  9 10  1  0
 10 11  1  0
 11 12  1  0
 12 13  1  0
 13 14  2  0
 14 15  1  0
 15 16  2  0
 16 17  1  0
 17 18  2  0
  2 19  1  0
 19 20  2  0
 20 21  1  0
 21 22  2  0
 22 23  1  0
 23 24  2  0
 24 25  1  0
 24 26  1  0
 26 27  2  0
 27 28  1  0
 28 29  2  0
 12  7  1  0
 18 13  1  0
 29 19  1  0
 28 22  1  0
  3 30  1  0
  4 31  1  0
  4 32  1  0
  8 33  1  0
  8 34  1  0
  9 35  1  0
  9 36  1  0
 10 37  1  0
 10 38  1  0
 11 39  1  0
 11 40  1  0
 12 41  1  1
 14 42  1  0
 15 43  1  0
 16 44  1  0
 17 45  1  0
 18 46  1  0
 20 47  1  0
 21 48  1  0
 23 49  1  0
 26 50  1  0
 27 51  1  0
M  END
>  <smiles>  (45) 
O=C(NCC(=O)N1CCCC[C@H]1c1ccccc1)c1ccc2cc(F)ccc2n1

>  <score_type>  (45) 
oracle

>  <origin>  (45) 
autodockgpu

>  <m_score__min__energy>  (45) 
-9.2400000000000002

>  <m_primary>  (45) 
energy

>  <rmsd>  (45) 
1.9601412933344267

>  <m_score__min__rmsd>  (45) 
1.9601412933344267

>  <meeko>  (45) 
{"free_energy": -8.9, "intermolecular_energy": -10.39, "internal_energy": -1.93, "cluster_size": 44, "cluster_id": 1, "rank_in_cluster": 18}

>  <energy>  (45) 
-8.87

>  <cluster_rmsd>  (45) 
0.0

>  <cluster>  (45) 
2

$$$$

     RDKit          3D

 51 54  0  0  0  0  0  0  0  0999 V2000
  138.4920   71.2140  221.4610 O   0  0  0  0  0  0  0  0  0  0  0  0
  139.0630   71.6810  222.4790 C   0  0  0  0  0  0  0  0  0  0  0  0
  139.4740   73.0280  222.5950 N   0  0  0  0  0  0  0  0  0  0  0  0
  139.2540   73.9700  221.5210 C   0  0  0  0  0  0  0  0  0  0  0  0
  140.0980   75.1430  221.7750 C   0  0  0  0  0  0  0  0  0  0  0  0
  141.3370   75.0320  221.9470 O   0  0  0  0  0  0  0  0  0  0  0  0
  139.5690   76.4860  221.8420 N   0  0  0  0  0  0  0  0  0  0  0  0
  138.4090   76.6880  222.6380 C   0  0  0  0  0  0  0  0  0  0  0  0
  137.4930   77.7690  222.1360 C   0  0  0  0  0  0  0  0  0  0  0  0
  138.2030   78.8070  221.3150 C   0  0  0  0  0  0  0  0  0  0  0  0
  139.1810   78.2670  220.3360 C   0  0  0  0  0  0  0  0  0  0  0  0
  140.2650   77.5250  221.0910 C   0  0  1  0  0  0  0  0  0  0  0  0
  141.0590   78.4270  221.9340 C   0  0  0  0  0  0  0  0  0  0  0  0
  141.0960   78.2050  223.3140 C   0  0  0  0  0  0  0  0  0  0  0  0
  141.8420   79.0230  224.1540 C   0  0  0  0  0  0  0  0  0  0  0  0
  142.5710   80.0800  223.6660 C   0  0  0  0  0  0  0  0  0  0  0  0
  142.5440   80.3110  222.3130 C   0  0  0  0  0  0  0  0  0  0  0  0
  141.7990   79.4920  221.4800 C   0  0  0  0  0  0  0  0  0  0  0  0
  139.3210   70.7790  223.6130 C   0  0  0  0  0  0  0  0  0  0  0  0
  138.9680   69.4510  223.5890 C   0  0  0  0  0  0  0  0  0  0  0  0
  139.2010   68.5850  224.6460 C   0  0  0  0  0  0  0  0  0  0  0  0
  139.8180   69.0920  225.7730 C   0  0  0  0  0  0  0  0  0  0  0  0
  140.0970   68.3250  226.8790 C   0  0  0  0  0  0  0  0  0  0  0  0
  140.7090   68.8080  228.0100 C   0  0  0  0  0  0  0  0  0  0  0  0
  140.9940   68.0850  229.1000 F   0  0  0  0  0  0  0  0  0  0  0  0
  141.0610   70.1520  228.0220 C   0  0  0  0  0  0  0  0  0  0  0  0
  140.7790   70.9250  226.9060 C   0  0  0  0  0  0  0  0  0  0  0  0
  140.1620   70.4130  225.7830 C   0  0  0  0  0  0  0  0  0  0  0  0
  139.9240   71.2270  224.7460 N   0  0  0  0  0  0  0  0  0  0  0  0
  139.9510   73.3620  223.4790 H   0  0  0  0  0  0  0  0  0  0  0  0
  139.5288   73.5122  220.5593 H   0  0  0  0  0  0  0  0  0  0  0  0
  138.1942   74.2611  221.4756 H   0  0  0  0  0  0  0  0  0  0  0  0
  137.8439   75.7447  222.6685 H   0  0  0  0  0  0  0  0  0  0  0  0
  138.7603   77.0091  223.6297 H   0  0  0  0  0  0  0  0  0  0  0  0
  136.7116   77.3059  221.5155 H   0  0  0  0  0  0  0  0  0  0  0  0
  137.0719   78.2776  223.0158 H   0  0  0  0  0  0  0  0  0  0  0  0
  137.4459   79.3812  220.7608 H   0  0  0  0  0  0  0  0  0  0  0  0
  138.7806   79.4192  222.0232 H   0  0  0  0  0  0  0  0  0  0  0  0
  138.6721   77.5776  219.6463 H   0  0  0  0  0  0  0  0  0  0  0  0
  139.6243   79.0900  219.7563 H   0  0  0  0  0  0  0  0  0  0  0  0
  141.0094   77.0773  220.4161 H   0  0  0  0  0  0  0  0  0  0  0  0
  140.5246   77.3683  223.7422 H   0  0  0  0  0  0  0  0  0  0  0  0
  141.8489   78.8193  225.2350 H   0  0  0  0  0  0  0  0  0  0  0  0
  143.1586   80.7219  224.3389 H   0  0  0  0  0  0  0  0  0  0  0  0
  143.1159   81.1494  221.8887 H   0  0  0  0  0  0  0  0  0  0  0  0
  141.8000   79.7051  220.4008 H   0  0  0  0  0  0  0  0  0  0  0  0
  138.4768   69.0562  222.6874 H   0  0  0  0  0  0  0  0  0  0  0  0
  138.9039   67.5274  224.5891 H   0  0  0  0  0  0  0  0  0  0  0  0
  139.8137   67.2623  226.8571 H   0  0  0  0  0  0  0  0  0  0  0  0
  141.5540   70.5944  228.9002 H   0  0  0  0  0  0  0  0  0  0  0  0
  141.0583   71.9889  226.9163 H   0  0  0  0  0  0  0  0  0  0  0  0
  1  2  2  0
  2  3  1  0
  3  4  1  0
  4  5  1  0
  5  6  2  0
  5  7  1  0
  7  8  1  0
  8  9  1  0
  9 10  1  0
 10 11  1  0
 11 12  1  0
 12 13  1  0
 13 14  2  0
 14 15  1  0
 15 16  2  0
 16 17  1  0
 17 18  2  0
  2 19  1  0
 19 20  2  0
 20 21  1  0
 21 22  2  0
 22 23  1  0
 23 24  2  0
 24 25  1  0
 24 26  1  0
 26 27  2  0
 27 28  1  0
 28 29  2  0
 12  7  1  0
 18 13  1  0
 29 19  1  0
 28 22  1  0
  3 30  1  0
  4 31  1  0
  4 32  1  0
  8 33  1  0
  8 34  1  0
  9 35  1  0
  9 36  1  0
 10 37  1  0
 10 38  1  0
 11 39  1  0
 11 40  1  0
 12 41  1  6
 14 42  1  0
 15 43  1  0
 16 44  1  0
 17 45  1  0
 18 46  1  0
 20 47  1  0
 21 48  1  0
 23 49  1  0
 26 50  1  0
 27 51  1  0
M  END
>  <smiles>  (46) 
O=C(NCC(=O)N1CCCC[C@H]1c1ccccc1)c1ccc2cc(F)ccc2n1

>  <score_type>  (46) 
oracle

>  <origin>  (46) 
autodockgpu

>  <m_score__min__energy>  (46) 
-9.2400000000000002

>  <m_primary>  (46) 
energy

>  <rmsd>  (46) 
2.4564553836569307

>  <m_score__min__rmsd>  (46) 
2.4564553836569307

>  <meeko>  (46) 
{"free_energy": -8.71, "intermolecular_energy": -10.2, "internal_energy": -1.73, "cluster_size": 44, "cluster_id": 1, "rank_in_cluster": 35}

>  <energy>  (46) 
-8.87

>  <cluster_rmsd>  (46) 
0.08

>  <cluster>  (46) 
2

$$$$

     RDKit          3D

 51 54  0  0  0  0  0  0  0  0999 V2000
  141.2010   72.5080  221.7860 O   0  0  0  0  0  0  0  0  0  0  0  0
  140.1630   72.5130  222.4970 C   0  0  0  0  0  0  0  0  0  0  0  0
  139.0820   73.4000  222.2920 N   0  0  0  0  0  0  0  0  0  0  0  0
  139.1090   74.3760  221.2260 C   0  0  0  0  0  0  0  0  0  0  0  0
  139.9740   75.4810  221.6530 C   0  0  0  0  0  0  0  0  0  0  0  0
  141.1760   75.2870  221.9660 O   0  0  0  0  0  0  0  0  0  0  0  0
  139.5120   76.8470  221.7390 N   0  0  0  0  0  0  0  0  0  0  0  0
  138.3270   77.0850  222.4870 C   0  0  0  0  0  0  0  0  0  0  0  0
  137.4920   78.2270  221.9790 C   0  0  0  0  0  0  0  0  0  0  0  0
  138.2930   79.2510  221.2260 C   0  0  0  0  0  0  0  0  0  0  0  0
  139.2880   78.6900  220.2770 C   0  0  0  0  0  0  0  0  0  0  0  0
  140.2960   77.8700  221.0560 C   0  0  1  0  0  0  0  0  0  0  0  0
  141.0930   78.7030  221.9640 C   0  0  0  0  0  0  0  0  0  0  0  0
  141.1320   78.3760  223.3230 C   0  0  0  0  0  0  0  0  0  0  0  0
  141.8820   79.1260  224.2210 C   0  0  0  0  0  0  0  0  0  0  0  0
  142.6120   80.2160  223.8150 C   0  0  0  0  0  0  0  0  0  0  0  0
  142.5830   80.5490  222.4830 C   0  0  0  0  0  0  0  0  0  0  0  0
  141.8350   79.7980  221.5910 C   0  0  0  0  0  0  0  0  0  0  0  0
  140.0660   71.5470  223.6020 C   0  0  0  0  0  0  0  0  0  0  0  0
  139.4430   70.3300  223.4600 C   0  0  0  0  0  0  0  0  0  0  0  0
  139.3390   69.4050  224.4880 C   0  0  0  0  0  0  0  0  0  0  0  0
  139.8930   69.7340  225.7100 C   0  0  0  0  0  0  0  0  0  0  0  0
  139.8500   68.8950  226.7970 C   0  0  0  0  0  0  0  0  0  0  0  0
  140.3940   69.1990  228.0210 C   0  0  0  0  0  0  0  0  0  0  0  0
  140.3680   68.4030  229.0960 F   0  0  0  0  0  0  0  0  0  0  0  0
  141.0220   70.4330  228.1520 C   0  0  0  0  0  0  0  0  0  0  0  0
  141.0660   71.2780  227.0550 C   0  0  0  0  0  0  0  0  0  0  0  0
  140.5090   70.9450  225.8370 C   0  0  0  0  0  0  0  0  0  0  0  0
  140.5940   71.8200  224.8250 N   0  0  0  0  0  0  0  0  0  0  0  0
  138.2340   73.3560  222.9250 H   0  0  0  0  0  0  0  0  0  0  0  0
  139.5107   73.9187  220.3098 H   0  0  0  0  0  0  0  0  0  0  0  0
  138.0936   74.7422  221.0139 H   0  0  0  0  0  0  0  0  0  0  0  0
  137.7140   76.1720  222.4605 H   0  0  0  0  0  0  0  0  0  0  0  0
  138.6464   77.3571  223.5038 H   0  0  0  0  0  0  0  0  0  0  0  0
  136.7187   77.8245  221.3082 H   0  0  0  0  0  0  0  0  0  0  0  0
  137.0553   78.7299  222.8544 H   0  0  0  0  0  0  0  0  0  0  0  0
  137.5938   79.8805  220.6560 H   0  0  0  0  0  0  0  0  0  0  0  0
  138.8661   79.8107  221.9798 H   0  0  0  0  0  0  0  0  0  0  0  0
  138.7782   78.0490  219.5426 H   0  0  0  0  0  0  0  0  0  0  0  0
  139.7999   79.5060  219.7459 H   0  0  0  0  0  0  0  0  0  0  0  0
  141.0488   77.4050  220.4024 H   0  0  0  0  0  0  0  0  0  0  0  0
  140.5593   77.5104  223.6875 H   0  0  0  0  0  0  0  0  0  0  0  0
  141.8911   78.8395  225.2830 H   0  0  0  0  0  0  0  0  0  0  0  0
  143.2014   80.8039  224.5341 H   0  0  0  0  0  0  0  0  0  0  0  0
  143.1563   81.4159  222.1227 H   0  0  0  0  0  0  0  0  0  0  0  0
  141.8350   80.0928  220.5313 H   0  0  0  0  0  0  0  0  0  0  0  0
  139.0054   70.0774  222.4829 H   0  0  0  0  0  0  0  0  0  0  0  0
  138.8320   68.4408  224.3354 H   0  0  0  0  0  0  0  0  0  0  0  0
  139.3503   67.9221  226.6802 H   0  0  0  0  0  0  0  0  0  0  0  0
  141.4752   70.7324  229.1085 H   0  0  0  0  0  0  0  0  0  0  0  0
  141.5646   72.2530  227.1589 H   0  0  0  0  0  0  0  0  0  0  0  0
  1  2  2  0
  2  3  1  0
  3  4  1  0
  4  5  1  0
  5  6  2  0
  5  7  1  0
  7  8  1  0
  8  9  1  0
  9 10  1  0
 10 11  1  0
 11 12  1  0
 12 13  1  0
 13 14  2  0
 14 15  1  0
 15 16  2  0
 16 17  1  0
 17 18  2  0
  2 19  1  0
 19 20  2  0
 20 21  1  0
 21 22  2  0
 22 23  1  0
 23 24  2  0
 24 25  1  0
 24 26  1  0
 26 27  2  0
 27 28  1  0
 28 29  2  0
 12  7  1  0
 18 13  1  0
 29 19  1  0
 28 22  1  0
  3 30  1  0
  4 31  1  0
  4 32  1  0
  8 33  1  0
  8 34  1  0
  9 35  1  0
  9 36  1  0
 10 37  1  0
 10 38  1  0
 11 39  1  0
 11 40  1  0
 12 41  1  6
 14 42  1  0
 15 43  1  0
 16 44  1  0
 17 45  1  0
 18 46  1  0
 20 47  1  0
 21 48  1  0
 23 49  1  0
 26 50  1  0
 27 51  1  0
M  END
>  <smiles>  (47) 
O=C(NCC(=O)N1CCCC[C@H]1c1ccccc1)c1ccc2cc(F)ccc2n1

>  <score_type>  (47) 
oracle

>  <origin>  (47) 
autodockgpu

>  <m_score__min__energy>  (47) 
-9.2400000000000002

>  <m_primary>  (47) 
energy

>  <rmsd>  (47) 
2.5812304300461326

>  <m_score__min__rmsd>  (47) 
2.5812304300461326

>  <meeko>  (47) 
{"free_energy": -9.22, "intermolecular_energy": -10.71, "internal_energy": -1.32, "cluster_size": 44, "cluster_id": 1, "rank_in_cluster": 3}

>  <energy>  (47) 
-8.86

>  <cluster_rmsd>  (47) 
0.26

>  <cluster>  (47) 
2

$$$$

     RDKit          3D

 51 54  0  0  0  0  0  0  0  0999 V2000
  141.1800   72.0660  221.4030 O   0  0  0  0  0  0  0  0  0  0  0  0
  140.3740   72.4280  222.2990 C   0  0  0  0  0  0  0  0  0  0  0  0
  139.6580   73.6450  222.2590 N   0  0  0  0  0  0  0  0  0  0  0  0
  139.8150   74.5670  221.1570 C   0  0  0  0  0  0  0  0  0  0  0  0
  139.6000   75.9230  221.6740 C   0  0  0  0  0  0  0  0  0  0  0  0
  138.9790   76.1230  222.7490 O   0  0  0  0  0  0  0  0  0  0  0  0
  140.0800   77.1040  220.9940 N   0  0  0  0  0  0  0  0  0  0  0  0
  139.1790   77.7540  220.1070 C   0  0  0  0  0  0  0  0  0  0  0  0
  139.8400   78.4190  218.9320 C   0  0  0  0  0  0  0  0  0  0  0  0
  141.2640   78.8110  219.2020 C   0  0  0  0  0  0  0  0  0  0  0  0
  142.0690   77.7860  219.9140 C   0  0  0  0  0  0  0  0  0  0  0  0
  141.4450   77.5350  221.2720 C   0  0  1  0  0  0  0  0  0  0  0  0
  141.5230   78.7190  222.1360 C   0  0  0  0  0  0  0  0  0  0  0  0
  140.3580   79.1860  222.7510 C   0  0  0  0  0  0  0  0  0  0  0  0
  140.3800   80.2960  223.5870 C   0  0  0  0  0  0  0  0  0  0  0  0
  141.5440   80.9790  223.8430 C   0  0  0  0  0  0  0  0  0  0  0  0
  142.6980   80.5320  223.2460 C   0  0  0  0  0  0  0  0  0  0  0  0
  142.6690   79.4250  222.4140 C   0  0  0  0  0  0  0  0  0  0  0  0
  140.1640   71.5380  223.4520 C   0  0  0  0  0  0  0  0  0  0  0  0
  139.4650   70.3600  223.3510 C   0  0  0  0  0  0  0  0  0  0  0  0
  139.2540   69.5080  224.4250 C   0  0  0  0  0  0  0  0  0  0  0  0
  139.7770   69.8720  225.6510 C   0  0  0  0  0  0  0  0  0  0  0  0
  139.6310   69.1050  226.7820 C   0  0  0  0  0  0  0  0  0  0  0  0
  140.1410   69.4470  228.0100 C   0  0  0  0  0  0  0  0  0  0  0  0
  140.0150   68.7210  229.1270 F   0  0  0  0  0  0  0  0  0  0  0  0
  140.8470   70.6410  228.0980 C   0  0  0  0  0  0  0  0  0  0  0  0
  140.9960   71.4140  226.9570 C   0  0  0  0  0  0  0  0  0  0  0  0
  140.4690   71.0450  225.7360 C   0  0  0  0  0  0  0  0  0  0  0  0
  140.6570   71.8500  224.6810 N   0  0  0  0  0  0  0  0  0  0  0  0
  138.9930   73.8940  223.0440 H   0  0  0  0  0  0  0  0  0  0  0  0
  140.8291   74.4820  220.7393 H   0  0  0  0  0  0  0  0  0  0  0  0
  139.0919   74.3402  220.3597 H   0  0  0  0  0  0  0  0  0  0  0  0
  138.4705   77.0042  219.7249 H   0  0  0  0  0  0  0  0  0  0  0  0
  138.6877   78.5507  220.6848 H   0  0  0  0  0  0  0  0  0  0  0  0
  139.8239   77.7225  218.0808 H   0  0  0  0  0  0  0  0  0  0  0  0
  139.2802   79.3418  218.7195 H   0  0  0  0  0  0  0  0  0  0  0  0
  141.7504   79.0184  218.2374 H   0  0  0  0  0  0  0  0  0  0  0  0
  141.2229   79.6875  219.8654 H   0  0  0  0  0  0  0  0  0  0  0  0
  142.0775   76.8524  219.3323 H   0  0  0  0  0  0  0  0  0  0  0  0
  143.1031   78.1404  220.0365 H   0  0  0  0  0  0  0  0  0  0  0  0
  141.9830   76.7623  221.8408 H   0  0  0  0  0  0  0  0  0  0  0  0
  139.4061   78.6653  222.5700 H   0  0  0  0  0  0  0  0  0  0  0  0
  139.4439   80.6354  224.0544 H   0  0  0  0  0  0  0  0  0  0  0  0
  141.5520   81.8569  224.5057 H   0  0  0  0  0  0  0  0  0  0  0  0
  143.6481   81.0551  223.4294 H   0  0  0  0  0  0  0  0  0  0  0  0
  143.6110   79.0941  221.9523 H   0  0  0  0  0  0  0  0  0  0  0  0
  139.0525   70.0786  222.3709 H   0  0  0  0  0  0  0  0  0  0  0  0
  138.6883   68.5723  224.3045 H   0  0  0  0  0  0  0  0  0  0  0  0
  139.0724   68.1611  226.6984 H   0  0  0  0  0  0  0  0  0  0  0  0
  141.2796   70.9666  229.0555 H   0  0  0  0  0  0  0  0  0  0  0  0
  141.5560   72.3581  227.0275 H   0  0  0  0  0  0  0  0  0  0  0  0
  1  2  2  0
  2  3  1  0
  3  4  1  0
  4  5  1  0
  5  6  2  0
  5  7  1  0
  7  8  1  0
  8  9  1  0
  9 10  1  0
 10 11  1  0
 11 12  1  0
 12 13  1  0
 13 14  2  0
 14 15  1  0
 15 16  2  0
 16 17  1  0
 17 18  2  0
  2 19  1  0
 19 20  2  0
 20 21  1  0
 21 22  2  0
 22 23  1  0
 23 24  2  0
 24 25  1  0
 24 26  1  0
 26 27  2  0
 27 28  1  0
 28 29  2  0
 12  7  1  0
 18 13  1  0
 29 19  1  0
 28 22  1  0
  3 30  1  0
  4 31  1  0
  4 32  1  0
  8 33  1  0
  8 34  1  0
  9 35  1  0
  9 36  1  0
 10 37  1  0
 10 38  1  0
 11 39  1  0
 11 40  1  0
 12 41  1  1
 14 42  1  0
 15 43  1  0
 16 44  1  0
 17 45  1  0
 18 46  1  0
 20 47  1  0
 21 48  1  0
 23 49  1  0
 26 50  1  0
 27 51  1  0
M  END
>  <smiles>  (48) 
O=C(NCC(=O)N1CCCC[C@H]1c1ccccc1)c1ccc2cc(F)ccc2n1

>  <score_type>  (48) 
oracle

>  <origin>  (48) 
autodockgpu

>  <m_score__min__energy>  (48) 
-9.2400000000000002

>  <m_primary>  (48) 
energy

>  <rmsd>  (48) 
1.9796835838981397

>  <m_score__min__rmsd>  (48) 
1.9796835838981397

>  <meeko>  (48) 
{"free_energy": -8.96, "intermolecular_energy": -10.45, "internal_energy": -1.87, "cluster_size": 44, "cluster_id": 1, "rank_in_cluster": 12}

>  <energy>  (48) 
-8.64

>  <cluster_rmsd>  (48) 
0.25

>  <cluster>  (48) 
2

$$$$

     RDKit          3D

 51 54  0  0  0  0  0  0  0  0999 V2000
  141.1270   71.9770  221.3160 O   0  0  0  0  0  0  0  0  0  0  0  0
  140.4460   72.4100  222.2810 C   0  0  0  0  0  0  0  0  0  0  0  0
  139.8830   73.7050  222.3190 N   0  0  0  0  0  0  0  0  0  0  0  0
  140.0620   74.6300  221.2230 C   0  0  0  0  0  0  0  0  0  0  0  0
  139.6780   75.9640  221.6960 C   0  0  0  0  0  0  0  0  0  0  0  0
  138.9670   76.1160  222.7200 O   0  0  0  0  0  0  0  0  0  0  0  0
  140.0870   77.1780  221.0250 N   0  0  0  0  0  0  0  0  0  0  0  0
  139.1390   77.7930  220.1630 C   0  0  0  0  0  0  0  0  0  0  0  0
  139.7450   78.5070  218.9870 C   0  0  0  0  0  0  0  0  0  0  0  0
  141.1530   78.9670  219.2390 C   0  0  0  0  0  0  0  0  0  0  0  0
  142.0200   77.9750  219.9230 C   0  0  0  0  0  0  0  0  0  0  0  0
  141.4330   77.6740  221.2870 C   0  0  1  0  0  0  0  0  0  0  0  0
  141.4660   78.8480  222.1670 C   0  0  0  0  0  0  0  0  0  0  0  0
  142.7040   79.3780  222.5410 C   0  0  0  0  0  0  0  0  0  0  0  0
  142.7880   80.4960  223.3630 C   0  0  0  0  0  0  0  0  0  0  0  0
  141.6640   81.1240  223.8410 C   0  0  0  0  0  0  0  0  0  0  0  0
  140.4400   80.6140  223.4820 C   0  0  0  0  0  0  0  0  0  0  0  0
  140.3620   79.5000  222.6620 C   0  0  0  0  0  0  0  0  0  0  0  0
  140.2230   71.5240  223.4340 C   0  0  0  0  0  0  0  0  0  0  0  0
  139.5720   70.3190  223.3180 C   0  0  0  0  0  0  0  0  0  0  0  0
  139.3500   69.4690  224.3910 C   0  0  0  0  0  0  0  0  0  0  0  0
  139.8100   69.8630  225.6320 C   0  0  0  0  0  0  0  0  0  0  0  0
  139.6460   69.1010  226.7640 C   0  0  0  0  0  0  0  0  0  0  0  0
  140.0950   69.4720  228.0080 C   0  0  0  0  0  0  0  0  0  0  0  0
  139.9510   68.7510  229.1260 F   0  0  0  0  0  0  0  0  0  0  0  0
  140.7530   70.6920  228.1120 C   0  0  0  0  0  0  0  0  0  0  0  0
  140.9180   71.4600  226.9700 C   0  0  0  0  0  0  0  0  0  0  0  0
  140.4550   71.0620  225.7330 C   0  0  0  0  0  0  0  0  0  0  0  0
  140.6550   71.8630  224.6780 N   0  0  0  0  0  0  0  0  0  0  0  0
  139.3190   74.0130  223.1610 H   0  0  0  0  0  0  0  0  0  0  0  0
  141.1150   74.6343  220.9050 H   0  0  0  0  0  0  0  0  0  0  0  0
  139.4420   74.3333  220.3642 H   0  0  0  0  0  0  0  0  0  0  0  0
  138.4631   77.0133  219.7819 H   0  0  0  0  0  0  0  0  0  0  0  0
  138.6178   78.5555  220.7604 H   0  0  0  0  0  0  0  0  0  0  0  0
  139.7490   77.8226  218.1259 H   0  0  0  0  0  0  0  0  0  0  0  0
  139.1359   79.4032  218.7976 H   0  0  0  0  0  0  0  0  0  0  0  0
  141.6117   79.2112  218.2695 H   0  0  0  0  0  0  0  0  0  0  0  0
  141.0795   79.8316  219.9150 H   0  0  0  0  0  0  0  0  0  0  0  0
  142.0658   77.0510  219.3279 H   0  0  0  0  0  0  0  0  0  0  0  0
  143.0367   78.3800  220.0341 H   0  0  0  0  0  0  0  0  0  0  0  0
  142.0191   76.9219  221.8356 H   0  0  0  0  0  0  0  0  0  0  0  0
  143.6274   78.9025  222.1788 H   0  0  0  0  0  0  0  0  0  0  0  0
  143.7788   80.8872  223.6373 H   0  0  0  0  0  0  0  0  0  0  0  0
  141.7415   82.0079  224.4911 H   0  0  0  0  0  0  0  0  0  0  0  0
  139.5187   81.0917  223.8468 H   0  0  0  0  0  0  0  0  0  0  0  0
  139.3660   79.1180  222.3935 H   0  0  0  0  0  0  0  0  0  0  0  0
  139.2093   70.0139  222.3253 H   0  0  0  0  0  0  0  0  0  0  0  0
  138.8245   68.5119  224.2579 H   0  0  0  0  0  0  0  0  0  0  0  0
  139.1244   68.1373  226.6681 H   0  0  0  0  0  0  0  0  0  0  0  0
  141.1356   71.0414  229.0823 H   0  0  0  0  0  0  0  0  0  0  0  0
  141.4389   72.4253  227.0534 H   0  0  0  0  0  0  0  0  0  0  0  0
  1  2  2  0
  2  3  1  0
  3  4  1  0
  4  5  1  0
  5  6  2  0
  5  7  1  0
  7  8  1  0
  8  9  1  0
  9 10  1  0
 10 11  1  0
 11 12  1  0
 12 13  1  0
 13 14  2  0
 14 15  1  0
 15 16  2  0
 16 17  1  0
 17 18  2  0
  2 19  1  0
 19 20  2  0
 20 21  1  0
 21 22  2  0
 22 23  1  0
 23 24  2  0
 24 25  1  0
 24 26  1  0
 26 27  2  0
 27 28  1  0
 28 29  2  0
 12  7  1  0
 18 13  1  0
 29 19  1  0
 28 22  1  0
  3 30  1  0
  4 31  1  0
  4 32  1  0
  8 33  1  0
  8 34  1  0
  9 35  1  0
  9 36  1  0
 10 37  1  0
 10 38  1  0
 11 39  1  0
 11 40  1  0
 12 41  1  1
 14 42  1  0
 15 43  1  0
 16 44  1  0
 17 45  1  0
 18 46  1  0
 20 47  1  0
 21 48  1  0
 23 49  1  0
 26 50  1  0
 27 51  1  0
M  END
>  <smiles>  (49) 
O=C(NCC(=O)N1CCCC[C@H]1c1ccccc1)c1ccc2cc(F)ccc2n1

>  <score_type>  (49) 
oracle

>  <origin>  (49) 
autodockgpu

>  <m_score__min__energy>  (49) 
-9.2400000000000002

>  <m_primary>  (49) 
energy

>  <rmsd>  (49) 
2.0452372920070236

>  <m_score__min__rmsd>  (49) 
2.0452372920070236

>  <meeko>  (49) 
{"free_energy": -8.92, "intermolecular_energy": -10.41, "internal_energy": -1.94, "cluster_size": 44, "cluster_id": 1, "rank_in_cluster": 16}

>  <energy>  (49) 
-7.98

>  <cluster_rmsd>  (49) 
0.0

>  <cluster>  (49) 
3

$$$$

     RDKit          3D

 51 54  0  0  0  0  0  0  0  0999 V2000
  138.1850   71.3130  221.5910 O   0  0  0  0  0  0  0  0  0  0  0  0
  138.8660   71.7550  222.5510 C   0  0  0  0  0  0  0  0  0  0  0  0
  139.3670   73.0740  222.6110 N   0  0  0  0  0  0  0  0  0  0  0  0
  139.1200   74.0160  221.5420 C   0  0  0  0  0  0  0  0  0  0  0  0
  140.2540   74.9440  221.4920 C   0  0  0  0  0  0  0  0  0  0  0  0
  141.3740   74.6350  221.9700 O   0  0  0  0  0  0  0  0  0  0  0  0
  140.1630   76.2570  220.8960 N   0  0  0  0  0  0  0  0  0  0  0  0
  138.9420   76.5950  220.2530 C   0  0  0  0  0  0  0  0  0  0  0  0
  139.0950   77.5220  219.0790 C   0  0  0  0  0  0  0  0  0  0  0  0
  140.3260   78.3800  219.1640 C   0  0  0  0  0  0  0  0  0  0  0  0
  141.5530   77.6680  219.6050 C   0  0  0  0  0  0  0  0  0  0  0  0
  141.3270   77.1300  221.0030 C   0  0  1  0  0  0  0  0  0  0  0  0
  141.1640   78.2090  221.9840 C   0  0  0  0  0  0  0  0  0  0  0  0
  142.1750   79.1670  222.1100 C   0  0  0  0  0  0  0  0  0  0  0  0
  142.0630   80.2150  223.0160 C   0  0  0  0  0  0  0  0  0  0  0  0
  140.9600   80.3530  223.8230 C   0  0  0  0  0  0  0  0  0  0  0  0
  139.9590   79.4200  223.7110 C   0  0  0  0  0  0  0  0  0  0  0  0
  140.0750   78.3780  222.8060 C   0  0  0  0  0  0  0  0  0  0  0  0
  139.1580   70.8520  223.6760 C   0  0  0  0  0  0  0  0  0  0  0  0
  138.7890   69.5280  223.6690 C   0  0  0  0  0  0  0  0  0  0  0  0
  139.0540   68.6610  224.7180 C   0  0  0  0  0  0  0  0  0  0  0  0
  139.7220   69.1630  225.8180 C   0  0  0  0  0  0  0  0  0  0  0  0
  140.0370   68.3950  226.9130 C   0  0  0  0  0  0  0  0  0  0  0  0
  140.7010   68.8710  228.0170 C   0  0  0  0  0  0  0  0  0  0  0  0
  141.0210   68.1480  229.0960 F   0  0  0  0  0  0  0  0  0  0  0  0
  141.0690   70.2120  228.0120 C   0  0  0  0  0  0  0  0  0  0  0  0
  140.7510   70.9860  226.9070 C   0  0  0  0  0  0  0  0  0  0  0  0
  140.0830   70.4790  225.8110 C   0  0  0  0  0  0  0  0  0  0  0  0
  139.8130   71.2950  224.7830 N   0  0  0  0  0  0  0  0  0  0  0  0
  139.9350   73.3880  223.4480 H   0  0  0  0  0  0  0  0  0  0  0  0
  139.0316   73.4812  220.5849 H   0  0  0  0  0  0  0  0  0  0  0  0
  138.1829   74.5635  221.7210 H   0  0  0  0  0  0  0  0  0  0  0  0
  138.4708   75.6662  219.8990 H   0  0  0  0  0  0  0  0  0  0  0  0
  138.3321   77.1282  220.9971 H   0  0  0  0  0  0  0  0  0  0  0  0
  139.1512   76.9185  218.1610 H   0  0  0  0  0  0  0  0  0  0  0  0
  138.2248   78.1949  219.0758 H   0  0  0  0  0  0  0  0  0  0  0  0
  140.5165   78.8047  218.1673 H   0  0  0  0  0  0  0  0  0  0  0  0
  140.1192   79.1430  219.9289 H   0  0  0  0  0  0  0  0  0  0  0  0
  141.7649   76.8355  218.9179 H   0  0  0  0  0  0  0  0  0  0  0  0
  142.4084   78.3596  219.6035 H   0  0  0  0  0  0  0  0  0  0  0  0
  142.1951   76.5677  221.3774 H   0  0  0  0  0  0  0  0  0  0  0  0
  143.0743   79.0898  221.4813 H   0  0  0  0  0  0  0  0  0  0  0  0
  142.8769   80.9514  223.0886 H   0  0  0  0  0  0  0  0  0  0  0  0
  140.8811   81.1858  224.5373 H   0  0  0  0  0  0  0  0  0  0  0  0
  139.0617   79.5004  224.3422 H   0  0  0  0  0  0  0  0  0  0  0  0
  139.2541   77.6486  222.7416 H   0  0  0  0  0  0  0  0  0  0  0  0
  138.2577   69.1374  222.7886 H   0  0  0  0  0  0  0  0  0  0  0  0
  138.7422   67.6070  224.6757 H   0  0  0  0  0  0  0  0  0  0  0  0
  139.7397   67.3360  226.9049 H   0  0  0  0  0  0  0  0  0  0  0  0
  141.6022   70.6501  228.8686 H   0  0  0  0  0  0  0  0  0  0  0  0
  141.0427   72.0466  226.9035 H   0  0  0  0  0  0  0  0  0  0  0  0
  1  2  2  0
  2  3  1  0
  3  4  1  0
  4  5  1  0
  5  6  2  0
  5  7  1  0
  7  8  1  0
  8  9  1  0
  9 10  1  0
 10 11  1  0
 11 12  1  0
 12 13  1  0
 13 14  2  0
 14 15  1  0
 15 16  2  0
 16 17  1  0
 17 18  2  0
  2 19  1  0
 19 20  2  0
 20 21  1  0
 21 22  2  0
 22 23  1  0
 23 24  2  0
 24 25  1  0
 24 26  1  0
 26 27  2  0
 27 28  1  0
 28 29  2  0
 12  7  1  0
 18 13  1  0
 29 19  1  0
 28 22  1  0
  3 30  1  0
  4 31  1  0
  4 32  1  0
  8 33  1  0
  8 34  1  0
  9 35  1  0
  9 36  1  0
 10 37  1  0
 10 38  1  0
 11 39  1  0
 11 40  1  0
 12 41  1  1
 14 42  1  0
 15 43  1  0
 16 44  1  0
 17 45  1  0
 18 46  1  0
 20 47  1  0
 21 48  1  0
 23 49  1  0
 26 50  1  0
 27 51  1  0
M  END
>  <smiles>  (50) 
O=C(NCC(=O)N1CCCC[C@H]1c1ccccc1)c1ccc2cc(F)ccc2n1

>  <score_type>  (50) 
oracle

>  <origin>  (50) 
autodockgpu

>  <m_score__min__energy>  (50) 
-9.2400000000000002

>  <m_primary>  (50) 
energy

>  <rmsd>  (50) 
1.4501317186703633

>  <m_score__min__rmsd>  (50) 
1.4501317186703633

>  <meeko>  (50) 
{"free_energy": -8.22, "intermolecular_energy": -9.71, "internal_energy": -1.95, "cluster_size": 44, "cluster_id": 1, "rank_in_cluster": 42}

>  <energy>  (50) 
-7.71

>  <cluster_rmsd>  (50) 
0.3

>  <cluster>  (50) 
3

$$$$
