
     RDKit          3D

 58 61  0  0  0  0  0  0  0  0999 V2000
  139.2360   77.6590  221.4680 C   0  0  0  0  0  0  0  0  0  0  0  0
  140.4530   77.4170  222.3270 C   0  0  1  0  0  0  0  0  0  0  0  0
  141.4340   76.6020  221.6570 N   0  0  0  0  0  0  0  0  0  0  0  0
  141.3210   75.1790  221.5600 C   0  0  0  0  0  0  0  0  0  0  0  0
  140.3310   74.5950  222.0740 O   0  0  0  0  0  0  0  0  0  0  0  0
  142.4020   74.4690  220.8440 C   0  0  1  0  0  0  0  0  0  0  0  0
  142.1360   73.0070  220.6620 C   0  0  0  0  0  0  0  0  0  0  0  0
  141.4090   72.9020  219.3390 C   0  0  0  0  0  0  0  0  0  0  0  0
  142.0150   74.0130  218.5360 C   0  0  0  0  0  0  0  0  0  0  0  0
  142.6050   74.9400  219.5050 N   0  0  0  0  0  0  0  0  0  0  0  0
  143.2710   76.1250  219.0870 C   0  0  0  0  0  0  0  0  0  0  0  0
  143.9750   76.7010  219.9830 O   0  0  0  0  0  0  0  0  0  0  0  0
  143.1640   76.6620  217.7160 C   0  0  0  0  0  0  0  0  0  0  0  0
  142.9810   78.1010  217.8020 N   0  0  0  0  0  0  0  0  0  0  0  0
  141.9970   78.6290  218.6900 C   0  0  0  0  0  0  0  0  0  0  0  0
  141.2810   77.8580  219.4070 O   0  0  0  0  0  0  0  0  0  0  0  0
  141.8240   80.0780  218.7660 C   0  0  0  0  0  0  0  0  0  0  0  0
  142.3330   80.8710  217.7420 C   0  0  0  0  0  0  0  0  0  0  0  0
  142.1680   82.2410  217.8150 C   0  0  0  0  0  0  0  0  0  0  0  0
  141.5110   82.8360  218.8810 C   0  0  0  0  0  0  0  0  0  0  0  0
  141.3280   84.1920  218.9870 C   0  0  0  0  0  0  0  0  0  0  0  0
  140.6730   84.7910  220.0490 C   0  0  0  0  0  0  0  0  0  0  0  0
  140.1860   83.9380  221.0430 C   0  0  0  0  0  0  0  0  0  0  0  0
  140.3630   82.5720  220.9470 C   0  0  0  0  0  0  0  0  0  0  0  0
  141.0220   82.0070  219.8740 C   0  0  0  0  0  0  0  0  0  0  0  0
  141.1750   80.6560  219.8190 N   0  0  0  0  0  0  0  0  0  0  0  0
  140.9930   78.7180  222.7530 C   0  0  0  0  0  0  0  0  0  0  0  0
  142.3070   79.0100  222.3900 C   0  0  0  0  0  0  0  0  0  0  0  0
  142.8650   80.2040  222.7580 C   0  0  0  0  0  0  0  0  0  0  0  0
  142.1950   81.1650  223.4840 C   0  0  0  0  0  0  0  0  0  0  0  0
  140.8780   80.8630  223.8430 C   0  0  0  0  0  0  0  0  0  0  0  0
  140.2930   79.6550  223.4780 C   0  0  0  0  0  0  0  0  0  0  0  0
  138.3613   77.8329  222.1120 H   0  0  0  0  0  0  0  0  0  0  0  0
  139.4049   78.5411  220.8329 H   0  0  0  0  0  0  0  0  0  0  0  0
  139.0546   76.7793  220.8329 H   0  0  0  0  0  0  0  0  0  0  0  0
  140.1636   76.8432  223.2197 H   0  0  0  0  0  0  0  0  0  0  0  0
  142.2680   77.0930  221.2250 H   0  0  0  0  0  0  0  0  0  0  0  0
  143.2712   74.6590  221.4908 H   0  0  0  0  0  0  0  0  0  0  0  0
  143.0801   72.4435  220.6299 H   0  0  0  0  0  0  0  0  0  0  0  0
  141.5468   72.5882  221.4912 H   0  0  0  0  0  0  0  0  0  0  0  0
  141.5896   71.9263  218.8643 H   0  0  0  0  0  0  0  0  0  0  0  0
  140.3162   72.9816  219.4359 H   0  0  0  0  0  0  0  0  0  0  0  0
  142.7911   73.6186  217.8636 H   0  0  0  0  0  0  0  0  0  0  0  0
  141.2618   74.5127  217.9091 H   0  0  0  0  0  0  0  0  0  0  0  0
  144.0834   76.4369  217.1557 H   0  0  0  0  0  0  0  0  0  0  0  0
  142.3115   76.2023  217.1946 H   0  0  0  0  0  0  0  0  0  0  0  0
  143.5510   78.7510  217.2290 H   0  0  0  0  0  0  0  0  0  0  0  0
  142.8575   80.4152  216.8893 H   0  0  0  0  0  0  0  0  0  0  0  0
  142.5671   82.8740  217.0088 H   0  0  0  0  0  0  0  0  0  0  0  0
  141.7221   84.8358  218.1869 H   0  0  0  0  0  0  0  0  0  0  0  0
  140.5426   85.8817  220.1075 H   0  0  0  0  0  0  0  0  0  0  0  0
  139.6565   84.3589  221.9104 H   0  0  0  0  0  0  0  0  0  0  0  0
  139.9708   81.9207  221.7420 H   0  0  0  0  0  0  0  0  0  0  0  0
  142.8935   78.2827  221.8095 H   0  0  0  0  0  0  0  0  0  0  0  0
  143.9036   80.4077  222.4584 H   0  0  0  0  0  0  0  0  0  0  0  0
  142.6700   82.1165  223.7653 H   0  0  0  0  0  0  0  0  0  0  0  0
  140.2948   81.5928  224.4237 H   0  0  0  0  0  0  0  0  0  0  0  0
  139.2544   79.4454  223.7735 H   0  0  0  0  0  0  0  0  0  0  0  0
  1  2  1  0
  2  3  1  0
  3  4  1  0
  4  5  2  0
  4  6  1  0
  6  7  1  0
  7  8  1  0
  8  9  1  0
  9 10  1  0
 10 11  1  0
 11 12  2  0
 11 13  1  0
 13 14  1  0
 14 15  1  0
 15 16  2  0
 15 17  1  0
 17 18  2  0
 18 19  1  0
 19 20  2  0
 20 21  1  0
 21 22  2  0
 22 23  1  0
 23 24  2  0
 24 25  1  0
 25 26  2  0
  2 27  1  0
 27 28  2  0
 28 29  1  0
 29 30  2  0
 30 31  1  0
 31 32  2  0
 10  6  1  0
 26 17  1  0
 32 27  1  0
 25 20  1  0
  1 33  1  0
  1 34  1  0
  1 35  1  0
  2 36  1  1
  3 37  1  0
  6 38  1  1
  7 39  1  0
  7 40  1  0
  8 41  1  0
  8 42  1  0
  9 43  1  0
  9 44  1  0
 13 45  1  0
 13 46  1  0
 14 47  1  0
 18 48  1  0
 19 49  1  0
 21 50  1  0
 22 51  1  0
 23 52  1  0
 24 53  1  0
 28 54  1  0
 29 55  1  0
 30 56  1  0
 31 57  1  0
 32 58  1  0
M  END
>  <smiles>  (1) 
C[C@@H](NC(=O)[C@H]1CCCN1C(=O)CNC(=O)c1ccc2ccccc2n1)c1ccccc1

>  <score_type>  (1) 
oracle

>  <origin>  (1) 
autodockgpu

>  <m_score__min__energy>  (1) 
-9.4199999999999999

>  <m_primary>  (1) 
energy

>  <rmsd>  (1) 
8.846144081258238

>  <m_score__min__rmsd>  (1) 
8.846144081258238

>  <meeko>  (1) 
{"free_energy": -7.51, "intermolecular_energy": -9.59, "internal_energy": -4.28, "cluster_size": 9, "cluster_id": 6, "rank_in_cluster": 2}

>  <energy>  (1) 
-9.42

>  <cluster_rmsd>  (1) 
0.0

>  <cluster>  (1) 
1

$$$$

     RDKit          3D

 58 61  0  0  0  0  0  0  0  0999 V2000
  138.3300   68.9040  225.1730 C   0  0  0  0  0  0  0  0  0  0  0  0
  139.5610   69.6790  224.7710 C   0  0  1  0  0  0  0  0  0  0  0  0
  139.3040   70.5650  223.6640 N   0  0  0  0  0  0  0  0  0  0  0  0
  138.8450   70.1000  222.3920 C   0  0  0  0  0  0  0  0  0  0  0  0
  138.6510   68.8690  222.2100 O   0  0  0  0  0  0  0  0  0  0  0  0
  138.6220   71.1200  221.3460 C   0  0  1  0  0  0  0  0  0  0  0  0
  137.1840   71.2740  220.9590 C   0  0  0  0  0  0  0  0  0  0  0  0
  136.6400   72.3370  221.8870 C   0  0  0  0  0  0  0  0  0  0  0  0
  137.8210   73.2380  222.0920 C   0  0  0  0  0  0  0  0  0  0  0  0
  139.0020   72.4420  221.7480 N   0  0  0  0  0  0  0  0  0  0  0  0
  140.3130   72.9870  221.8320 C   0  0  0  0  0  0  0  0  0  0  0  0
  140.9800   72.6520  222.8670 O   0  0  0  0  0  0  0  0  0  0  0  0
  140.8760   73.8810  220.7990 C   0  0  0  0  0  0  0  0  0  0  0  0
  141.0750   75.1930  221.3890 N   0  0  0  0  0  0  0  0  0  0  0  0
  139.9580   76.0660  221.5480 C   0  0  0  0  0  0  0  0  0  0  0  0
  138.7920   75.7100  221.1790 O   0  0  0  0  0  0  0  0  0  0  0  0
  140.1730   77.3830  222.1430 C   0  0  0  0  0  0  0  0  0  0  0  0
  139.0690   78.1330  222.5340 C   0  0  0  0  0  0  0  0  0  0  0  0
  139.2740   79.3790  223.0960 C   0  0  0  0  0  0  0  0  0  0  0  0
  140.5500   79.8910  223.2770 C   0  0  0  0  0  0  0  0  0  0  0  0
  140.7920   81.1220  223.8320 C   0  0  0  0  0  0  0  0  0  0  0  0
  142.0630   81.6380  224.0140 C   0  0  0  0  0  0  0  0  0  0  0  0
  143.1290   80.8330  223.6010 C   0  0  0  0  0  0  0  0  0  0  0  0
  142.8970   79.5920  223.0420 C   0  0  0  0  0  0  0  0  0  0  0  0
  141.6160   79.1080  222.8730 C   0  0  0  0  0  0  0  0  0  0  0  0
  141.4330   77.8790  222.3180 N   0  0  0  0  0  0  0  0  0  0  0  0
  140.0770   70.3870  225.9540 C   0  0  0  0  0  0  0  0  0  0  0  0
  140.8870   71.4980  225.7260 C   0  0  0  0  0  0  0  0  0  0  0  0
  141.3980   72.1970  226.7870 C   0  0  0  0  0  0  0  0  0  0  0  0
  141.1560   71.8650  228.1030 C   0  0  0  0  0  0  0  0  0  0  0  0
  140.3420   70.7500  228.3210 C   0  0  0  0  0  0  0  0  0  0  0  0
  139.8140   70.0270  227.2560 C   0  0  0  0  0  0  0  0  0  0  0  0
  138.2647   68.8629  226.2703 H   0  0  0  0  0  0  0  0  0  0  0  0
  137.4355   69.4022  224.7709 H   0  0  0  0  0  0  0  0  0  0  0  0
  138.3925   67.8821  224.7709 H   0  0  0  0  0  0  0  0  0  0  0  0
  140.3314   68.9819  224.4097 H   0  0  0  0  0  0  0  0  0  0  0  0
  139.4660   71.6010  223.8160 H   0  0  0  0  0  0  0  0  0  0  0  0
  139.2393   70.7400  220.5186 H   0  0  0  0  0  0  0  0  0  0  0  0
  137.0982   71.5955  219.9105 H   0  0  0  0  0  0  0  0  0  0  0  0
  136.6296   70.3278  221.0449 H   0  0  0  0  0  0  0  0  0  0  0  0
  135.8044   72.8795  221.4208 H   0  0  0  0  0  0  0  0  0  0  0  0
  136.2361   71.9294  222.8255 H   0  0  0  0  0  0  0  0  0  0  0  0
  137.7488   74.1178  221.4356 H   0  0  0  0  0  0  0  0  0  0  0  0
  137.8714   73.6062  223.1273 H   0  0  0  0  0  0  0  0  0  0  0  0
  141.8386   73.4820  220.4466 H   0  0  0  0  0  0  0  0  0  0  0  0
  140.1882   73.9511  219.9434 H   0  0  0  0  0  0  0  0  0  0  0  0
  142.0140   75.5070  221.6970 H   0  0  0  0  0  0  0  0  0  0  0  0
  138.0501   77.7413  222.3983 H   0  0  0  0  0  0  0  0  0  0  0  0
  138.4053   79.9781  223.4067 H   0  0  0  0  0  0  0  0  0  0  0  0
  139.9317   81.7300  224.1485 H   0  0  0  0  0  0  0  0  0  0  0  0
  142.2262   82.6300  224.4604 H   0  0  0  0  0  0  0  0  0  0  0  0
  144.1618   81.1916  223.7225 H   0  0  0  0  0  0  0  0  0  0  0  0
  143.7515   78.9762  222.7247 H   0  0  0  0  0  0  0  0  0  0  0  0
  141.1152   71.8125  224.6969 H   0  0  0  0  0  0  0  0  0  0  0  0
  142.0350   73.0692  226.5782 H   0  0  0  0  0  0  0  0  0  0  0  0
  141.5802   72.4456  228.9355 H   0  0  0  0  0  0  0  0  0  0  0  0
  140.1151   70.4390  229.3514 H   0  0  0  0  0  0  0  0  0  0  0  0
  139.1762   69.1538  227.4579 H   0  0  0  0  0  0  0  0  0  0  0  0
  1  2  1  0
  2  3  1  0
  3  4  1  0
  4  5  2  0
  4  6  1  0
  6  7  1  0
  7  8  1  0
  8  9  1  0
  9 10  1  0
 10 11  1  0
 11 12  2  0
 11 13  1  0
 13 14  1  0
 14 15  1  0
 15 16  2  0
 15 17  1  0
 17 18  2  0
 18 19  1  0
 19 20  2  0
 20 21  1  0
 21 22  2  0
 22 23  1  0
 23 24  2  0
 24 25  1  0
 25 26  2  0
  2 27  1  0
 27 28  2  0
 28 29  1  0
 29 30  2  0
 30 31  1  0
 31 32  2  0
 10  6  1  0
 26 17  1  0
 32 27  1  0
 25 20  1  0
  1 33  1  0
  1 34  1  0
  1 35  1  0
  2 36  1  6
  3 37  1  0
  6 38  1  6
  7 39  1  0
  7 40  1  0
  8 41  1  0
  8 42  1  0
  9 43  1  0
  9 44  1  0
 13 45  1  0
 13 46  1  0
 14 47  1  0
 18 48  1  0
 19 49  1  0
 21 50  1  0
 22 51  1  0
 23 52  1  0
 24 53  1  0
 28 54  1  0
 29 55  1  0
 30 56  1  0
 31 57  1  0
 32 58  1  0
M  END
>  <smiles>  (2) 
C[C@@H](NC(=O)[C@H]1CCCN1C(=O)CNC(=O)c1ccc2ccccc2n1)c1ccccc1

>  <score_type>  (2) 
oracle

>  <origin>  (2) 
autodockgpu

>  <m_score__min__energy>  (2) 
-9.4199999999999999

>  <m_primary>  (2) 
energy

>  <rmsd>  (2) 
9.477582757915789

>  <m_score__min__rmsd>  (2) 
9.477582757915789

>  <meeko>  (2) 
{"free_energy": -8.99, "intermolecular_energy": -11.08, "internal_energy": -2.89, "cluster_size": 8, "cluster_id": 3, "rank_in_cluster": 1}

>  <energy>  (2) 
-9.39

>  <cluster_rmsd>  (2) 
0.22

>  <cluster>  (2) 
1

$$$$

     RDKit          3D

 58 61  0  0  0  0  0  0  0  0999 V2000
  139.1080   77.5510  222.7360 C   0  0  0  0  0  0  0  0  0  0  0  0
  140.6140   77.5010  222.6570 C   0  0  1  0  0  0  0  0  0  0  0  0
  141.0710   76.7290  221.5280 N   0  0  0  0  0  0  0  0  0  0  0  0
  140.5030   76.8600  220.2220 C   0  0  0  0  0  0  0  0  0  0  0  0
  139.5630   77.6760  220.0280 O   0  0  0  0  0  0  0  0  0  0  0  0
  141.0700   76.0060  219.1570 C   0  0  1  0  0  0  0  0  0  0  0  0
  141.5240   76.7740  217.9550 C   0  0  0  0  0  0  0  0  0  0  0  0
  142.9710   77.1150  218.2310 C   0  0  0  0  0  0  0  0  0  0  0  0
  143.4490   75.9320  219.0190 C   0  0  0  0  0  0  0  0  0  0  0  0
  142.2470   75.2950  219.5620 N   0  0  0  0  0  0  0  0  0  0  0  0
  142.3280   74.1290  220.3730 C   0  0  0  0  0  0  0  0  0  0  0  0
  143.3620   74.0520  221.1180 O   0  0  0  0  0  0  0  0  0  0  0  0
  141.2940   73.0740  220.3640 C   0  0  0  0  0  0  0  0  0  0  0  0
  141.1910   72.5240  221.7040 N   0  0  0  0  0  0  0  0  0  0  0  0
  140.0970   71.6670  222.0270 C   0  0  0  0  0  0  0  0  0  0  0  0
  139.2130   71.3790  221.1570 O   0  0  0  0  0  0  0  0  0  0  0  0
  140.0070   71.1210  223.3800 C   0  0  0  0  0  0  0  0  0  0  0  0
  139.2740   69.9560  223.5870 C   0  0  0  0  0  0  0  0  0  0  0  0
  139.1890   69.4410  224.8670 C   0  0  0  0  0  0  0  0  0  0  0  0
  139.8150   70.0580  225.9390 C   0  0  0  0  0  0  0  0  0  0  0  0
  139.7530   69.5750  227.2220 C   0  0  0  0  0  0  0  0  0  0  0  0
  140.3760   70.1870  228.2960 C   0  0  0  0  0  0  0  0  0  0  0  0
  141.0970   71.3520  228.0190 C   0  0  0  0  0  0  0  0  0  0  0  0
  141.1660   71.8470  226.7320 C   0  0  0  0  0  0  0  0  0  0  0  0
  140.5320   71.2120  225.6830 C   0  0  0  0  0  0  0  0  0  0  0  0
  140.6270   71.7340  224.4290 N   0  0  0  0  0  0  0  0  0  0  0  0
  141.1290   78.8790  222.6460 C   0  0  0  0  0  0  0  0  0  0  0  0
  141.0100   79.6110  223.8260 C   0  0  0  0  0  0  0  0  0  0  0  0
  141.4700   80.8990  223.8780 C   0  0  0  0  0  0  0  0  0  0  0  0
  142.0620   81.5380  222.8090 C   0  0  0  0  0  0  0  0  0  0  0  0
  142.1780   80.7960  221.6310 C   0  0  0  0  0  0  0  0  0  0  0  0
  141.7150   79.4850  221.5590 C   0  0  0  0  0  0  0  0  0  0  0  0
  138.7963   77.5614  223.7909 H   0  0  0  0  0  0  0  0  0  0  0  0
  138.7447   78.4617  222.2374 H   0  0  0  0  0  0  0  0  0  0  0  0
  138.6851   76.6664  222.2374 H   0  0  0  0  0  0  0  0  0  0  0  0
  141.0106   76.9805  223.5412 H   0  0  0  0  0  0  0  0  0  0  0  0
  141.8610   76.0420  221.6910 H   0  0  0  0  0  0  0  0  0  0  0  0
  140.2307   75.3321  218.9304 H   0  0  0  0  0  0  0  0  0  0  0  0
  141.4384   76.1579  217.0477 H   0  0  0  0  0  0  0  0  0  0  0  0
  140.9133   77.6729  217.7845 H   0  0  0  0  0  0  0  0  0  0  0  0
  143.5380   77.2221  217.2945 H   0  0  0  0  0  0  0  0  0  0  0  0
  143.0989   78.0705  218.7608 H   0  0  0  0  0  0  0  0  0  0  0  0
  143.9907   75.2317  218.3662 H   0  0  0  0  0  0  0  0  0  0  0  0
  144.1408   76.2342  219.8191 H   0  0  0  0  0  0  0  0  0  0  0  0
  140.3271   73.5036  220.0631 H   0  0  0  0  0  0  0  0  0  0  0  0
  141.5664   72.2829  219.6499 H   0  0  0  0  0  0  0  0  0  0  0  0
  141.8980   72.7430  222.4310 H   0  0  0  0  0  0  0  0  0  0  0  0
  138.7714   69.4541  222.7471 H   0  0  0  0  0  0  0  0  0  0  0  0
  138.6115   68.5207  225.0389 H   0  0  0  0  0  0  0  0  0  0  0  0
  139.1791   68.6548  227.4063 H   0  0  0  0  0  0  0  0  0  0  0  0
  140.3072   69.7777  229.3147 H   0  0  0  0  0  0  0  0  0  0  0  0
  141.6143   71.8794  228.8340 H   0  0  0  0  0  0  0  0  0  0  0  0
  141.7380   72.7664  226.5385 H   0  0  0  0  0  0  0  0  0  0  0  0
  140.5474   79.1546  224.7135 H   0  0  0  0  0  0  0  0  0  0  0  0
  141.3618   81.4534  224.8219 H   0  0  0  0  0  0  0  0  0  0  0  0
  142.4229   82.5747  222.8799 H   0  0  0  0  0  0  0  0  0  0  0  0
  142.6427   81.2551  220.7459 H   0  0  0  0  0  0  0  0  0  0  0  0
  141.8194   78.9249  220.6180 H   0  0  0  0  0  0  0  0  0  0  0  0
  1  2  1  0
  2  3  1  0
  3  4  1  0
  4  5  2  0
  4  6  1  0
  6  7  1  0
  7  8  1  0
  8  9  1  0
  9 10  1  0
 10 11  1  0
 11 12  2  0
 11 13  1  0
 13 14  1  0
 14 15  1  0
 15 16  2  0
 15 17  1  0
 17 18  2  0
 18 19  1  0
 19 20  2  0
 20 21  1  0
 21 22  2  0
 22 23  1  0
 23 24  2  0
 24 25  1  0
 25 26  2  0
  2 27  1  0
 27 28  2  0
 28 29  1  0
 29 30  2  0
 30 31  1  0
 31 32  2  0
 10  6  1  0
 26 17  1  0
 32 27  1  0
 25 20  1  0
  1 33  1  0
  1 34  1  0
  1 35  1  0
  2 36  1  1
  3 37  1  0
  6 38  1  6
  7 39  1  0
  7 40  1  0
  8 41  1  0
  8 42  1  0
  9 43  1  0
  9 44  1  0
 13 45  1  0
 13 46  1  0
 14 47  1  0
 18 48  1  0
 19 49  1  0
 21 50  1  0
 22 51  1  0
 23 52  1  0
 24 53  1  0
 28 54  1  0
 29 55  1  0
 30 56  1  0
 31 57  1  0
 32 58  1  0
M  END
>  <smiles>  (3) 
C[C@@H](NC(=O)[C@H]1CCCN1C(=O)CNC(=O)c1ccc2ccccc2n1)c1ccccc1

>  <score_type>  (3) 
oracle

>  <origin>  (3) 
autodockgpu

>  <m_score__min__energy>  (3) 
-9.4199999999999999

>  <m_primary>  (3) 
energy

>  <rmsd>  (3) 
2.772655056128421

>  <m_score__min__rmsd>  (3) 
2.772655056128421

>  <meeko>  (3) 
{"free_energy": -8.53, "intermolecular_energy": -10.61, "internal_energy": -2.66, "cluster_size": 30, "cluster_id": 1, "rank_in_cluster": 28}

>  <energy>  (3) 
-9.37

>  <cluster_rmsd>  (3) 
1.12

>  <cluster>  (3) 
1

$$$$

     RDKit          3D

 58 61  0  0  0  0  0  0  0  0999 V2000
  139.2430   67.6560  226.5300 C   0  0  0  0  0  0  0  0  0  0  0  0
  140.1330   68.5440  225.6960 C   0  0  1  0  0  0  0  0  0  0  0  0
  139.5790   68.7920  224.3890 N   0  0  0  0  0  0  0  0  0  0  0  0
  138.2800   69.3580  224.1950 C   0  0  0  0  0  0  0  0  0  0  0  0
  137.5740   69.6590  225.1930 O   0  0  0  0  0  0  0  0  0  0  0  0
  137.8390   69.5580  222.7980 C   0  0  1  0  0  0  0  0  0  0  0  0
  137.0940   68.3870  222.2360 C   0  0  0  0  0  0  0  0  0  0  0  0
  135.6410   68.6520  222.5640 C   0  0  0  0  0  0  0  0  0  0  0  0
  135.5490   70.1470  222.4900 C   0  0  0  0  0  0  0  0  0  0  0  0
  136.9180   70.6450  222.6400 N   0  0  0  0  0  0  0  0  0  0  0  0
  137.2070   72.0380  222.6210 C   0  0  0  0  0  0  0  0  0  0  0  0
  136.3460   72.7830  223.1990 O   0  0  0  0  0  0  0  0  0  0  0  0
  138.4150   72.5960  221.9800 C   0  0  0  0  0  0  0  0  0  0  0  0
  138.4850   74.0130  222.2930 N   0  0  0  0  0  0  0  0  0  0  0  0
  139.6790   74.7370  222.0000 C   0  0  0  0  0  0  0  0  0  0  0  0
  140.6810   74.1570  221.4690 O   0  0  0  0  0  0  0  0  0  0  0  0
  139.7340   76.1620  222.3200 C   0  0  0  0  0  0  0  0  0  0  0  0
  138.5500   76.8910  222.3510 C   0  0  0  0  0  0  0  0  0  0  0  0
  138.6040   78.2380  222.6530 C   0  0  0  0  0  0  0  0  0  0  0  0
  139.8070   78.8710  222.9250 C   0  0  0  0  0  0  0  0  0  0  0  0
  139.8990   80.2070  223.2300 C   0  0  0  0  0  0  0  0  0  0  0  0
  141.0970   80.8440  223.5010 C   0  0  0  0  0  0  0  0  0  0  0  0
  142.2500   80.0540  223.4550 C   0  0  0  0  0  0  0  0  0  0  0  0
  142.1690   78.7100  223.1500 C   0  0  0  0  0  0  0  0  0  0  0  0
  140.9570   78.1050  222.8830 C   0  0  0  0  0  0  0  0  0  0  0  0
  140.9230   76.7770  222.5870 N   0  0  0  0  0  0  0  0  0  0  0  0
  140.3930   69.7840  226.4450 C   0  0  0  0  0  0  0  0  0  0  0  0
  141.1730   70.7540  225.8180 C   0  0  0  0  0  0  0  0  0  0  0  0
  141.4490   71.9290  226.4650 C   0  0  0  0  0  0  0  0  0  0  0  0
  140.9920   72.2240  227.7320 C   0  0  0  0  0  0  0  0  0  0  0  0
  140.2110   71.2460  228.3520 C   0  0  0  0  0  0  0  0  0  0  0  0
  139.9190   70.0460  227.7110 C   0  0  0  0  0  0  0  0  0  0  0  0
  139.4325   67.8451  227.5969 H   0  0  0  0  0  0  0  0  0  0  0  0
  138.1894   67.8735  226.3006 H   0  0  0  0  0  0  0  0  0  0  0  0
  139.4581   66.6019  226.3006 H   0  0  0  0  0  0  0  0  0  0  0  0
  141.0894   68.0332  225.5105 H   0  0  0  0  0  0  0  0  0  0  0  0
  140.1730   68.5390  223.5480 H   0  0  0  0  0  0  0  0  0  0  0  0
  138.7916   69.7379  222.2782 H   0  0  0  0  0  0  0  0  0  0  0  0
  137.2390   68.3230  221.1475 H   0  0  0  0  0  0  0  0  0  0  0  0
  137.4451   67.4335  222.6575 H   0  0  0  0  0  0  0  0  0  0  0  0
  134.9760   68.1775  221.8274 H   0  0  0  0  0  0  0  0  0  0  0  0
  135.3342   68.2453  223.5389 H   0  0  0  0  0  0  0  0  0  0  0  0
  135.1341   70.4566  221.5194 H   0  0  0  0  0  0  0  0  0  0  0  0
  134.8870   70.5485  223.2714 H   0  0  0  0  0  0  0  0  0  0  0  0
  139.3099   72.0854  222.3653 H   0  0  0  0  0  0  0  0  0  0  0  0
  138.3672   72.4507  220.8907 H   0  0  0  0  0  0  0  0  0  0  0  0
  137.6820   74.5080  222.7250 H   0  0  0  0  0  0  0  0  0  0  0  0
  137.5871   76.4034  222.1387 H   0  0  0  0  0  0  0  0  0  0  0  0
  137.6717   78.8213  222.6782 H   0  0  0  0  0  0  0  0  0  0  0  0
  138.9734   80.8006  223.2603 H   0  0  0  0  0  0  0  0  0  0  0  0
  141.1403   81.9168  223.7404 H   0  0  0  0  0  0  0  0  0  0  0  0
  143.2302   80.5075  223.6637 H   0  0  0  0  0  0  0  0  0  0  0  0
  143.0894   78.1085  223.1190 H   0  0  0  0  0  0  0  0  0  0  0  0
  141.5659   70.5762  224.8061 H   0  0  0  0  0  0  0  0  0  0  0  0
  142.0676   72.6765  225.9468 H   0  0  0  0  0  0  0  0  0  0  0  0
  141.2294   73.1771  228.2272 H   0  0  0  0  0  0  0  0  0  0  0  0
  139.8202   71.4275  229.3641 H   0  0  0  0  0  0  0  0  0  0  0  0
  139.2999   69.2950  228.2236 H   0  0  0  0  0  0  0  0  0  0  0  0
  1  2  1  0
  2  3  1  0
  3  4  1  0
  4  5  2  0
  4  6  1  0
  6  7  1  0
  7  8  1  0
  8  9  1  0
  9 10  1  0
 10 11  1  0
 11 12  2  0
 11 13  1  0
 13 14  1  0
 14 15  1  0
 15 16  2  0
 15 17  1  0
 17 18  2  0
 18 19  1  0
 19 20  2  0
 20 21  1  0
 21 22  2  0
 22 23  1  0
 23 24  2  0
 24 25  1  0
 25 26  2  0
  2 27  1  0
 27 28  2  0
 28 29  1  0
 29 30  2  0
 30 31  1  0
 31 32  2  0
 10  6  1  0
 26 17  1  0
 32 27  1  0
 25 20  1  0
  1 33  1  0
  1 34  1  0
  1 35  1  0
  2 36  1  6
  3 37  1  0
  6 38  1  6
  7 39  1  0
  7 40  1  0
  8 41  1  0
  8 42  1  0
  9 43  1  0
  9 44  1  0
 13 45  1  0
 13 46  1  0
 14 47  1  0
 18 48  1  0
 19 49  1  0
 21 50  1  0
 22 51  1  0
 23 52  1  0
 24 53  1  0
 28 54  1  0
 29 55  1  0
 30 56  1  0
 31 57  1  0
 32 58  1  0
M  END
>  <smiles>  (4) 
C[C@@H](NC(=O)[C@H]1CCCN1C(=O)CNC(=O)c1ccc2ccccc2n1)c1ccccc1

>  <score_type>  (4) 
oracle

>  <origin>  (4) 
autodockgpu

>  <m_score__min__energy>  (4) 
-9.4199999999999999

>  <m_primary>  (4) 
energy

>  <rmsd>  (4) 
9.873368771757805

>  <m_score__min__rmsd>  (4) 
9.873368771757805

>  <meeko>  (4) 
{"free_energy": -8.98, "intermolecular_energy": -11.07, "internal_energy": -2.29, "cluster_size": 8, "cluster_id": 3, "rank_in_cluster": 2}

>  <energy>  (4) 
-9.32

>  <cluster_rmsd>  (4) 
1.43

>  <cluster>  (4) 
1

$$$$

     RDKit          3D

 58 61  0  0  0  0  0  0  0  0999 V2000
  142.6090   79.4920  223.4820 C   0  0  0  0  0  0  0  0  0  0  0  0
  141.7820   79.7020  222.2370 C   0  0  1  0  0  0  0  0  0  0  0  0
  141.6850   78.5020  221.4440 N   0  0  0  0  0  0  0  0  0  0  0  0
  141.1190   78.4880  220.1300 C   0  0  0  0  0  0  0  0  0  0  0  0
  140.6810   79.5570  219.6280 O   0  0  0  0  0  0  0  0  0  0  0  0
  141.0840   77.1870  219.4300 C   0  0  1  0  0  0  0  0  0  0  0  0
  142.0330   77.1050  218.2760 C   0  0  0  0  0  0  0  0  0  0  0  0
  143.3210   76.5730  218.8630 C   0  0  0  0  0  0  0  0  0  0  0  0
  142.8400   75.6610  219.9520 C   0  0  0  0  0  0  0  0  0  0  0  0
  141.4710   76.0830  220.2580 N   0  0  0  0  0  0  0  0  0  0  0  0
  140.7000   75.4290  221.2590 C   0  0  0  0  0  0  0  0  0  0  0  0
  140.6710   76.0120  222.3950 O   0  0  0  0  0  0  0  0  0  0  0  0
  139.9780   74.1640  221.0150 C   0  0  0  0  0  0  0  0  0  0  0  0
  139.8880   73.4400  222.2700 N   0  0  0  0  0  0  0  0  0  0  0  0
  140.2160   72.0510  222.3020 C   0  0  0  0  0  0  0  0  0  0  0  0
  140.5850   71.4420  221.2470 O   0  0  0  0  0  0  0  0  0  0  0  0
  140.1200   71.3350  223.5720 C   0  0  0  0  0  0  0  0  0  0  0  0
  139.5230   70.0790  223.5930 C   0  0  0  0  0  0  0  0  0  0  0  0
  139.4340   69.4020  224.7950 C   0  0  0  0  0  0  0  0  0  0  0  0
  139.9240   69.9490  225.9710 C   0  0  0  0  0  0  0  0  0  0  0  0
  139.8530   69.3070  227.1830 C   0  0  0  0  0  0  0  0  0  0  0  0
  140.3400   69.8470  228.3600 C   0  0  0  0  0  0  0  0  0  0  0  0
  140.9290   71.1120  228.2700 C   0  0  0  0  0  0  0  0  0  0  0  0
  141.0060   71.7670  227.0570 C   0  0  0  0  0  0  0  0  0  0  0  0
  140.5090   71.2000  225.9010 C   0  0  0  0  0  0  0  0  0  0  0  0
  140.6060   71.8800  224.7260 N   0  0  0  0  0  0  0  0  0  0  0  0
  140.4650   80.2270  222.6320 C   0  0  0  0  0  0  0  0  0  0  0  0
  139.7100   79.4530  223.5120 C   0  0  0  0  0  0  0  0  0  0  0  0
  138.4770   79.8900  223.9140 C   0  0  0  0  0  0  0  0  0  0  0  0
  137.9170   81.0780  223.4960 C   0  0  0  0  0  0  0  0  0  0  0  0
  138.6820   81.8460  222.6140 C   0  0  0  0  0  0  0  0  0  0  0  0
  139.9380   81.4200  222.1930 C   0  0  0  0  0  0  0  0  0  0  0  0
  141.9807   79.6515  224.3707 H   0  0  0  0  0  0  0  0  0  0  0  0
  143.0034   78.4652  223.4913 H   0  0  0  0  0  0  0  0  0  0  0  0
  143.4455   80.2062  223.4913 H   0  0  0  0  0  0  0  0  0  0  0  0
  142.2777   80.4379  221.5869 H   0  0  0  0  0  0  0  0  0  0  0  0
  142.0540   77.6030  221.8660 H   0  0  0  0  0  0  0  0  0  0  0  0
  140.0327   77.1243  219.1125 H   0  0  0  0  0  0  0  0  0  0  0  0
  141.6473   76.4200  217.5066 H   0  0  0  0  0  0  0  0  0  0  0  0
  142.1742   78.0807  217.7881 H   0  0  0  0  0  0  0  0  0  0  0  0
  143.9003   76.0190  218.1097 H   0  0  0  0  0  0  0  0  0  0  0  0
  143.9938   77.3647  219.2244 H   0  0  0  0  0  0  0  0  0  0  0  0
  142.8498   74.6164  219.6076 H   0  0  0  0  0  0  0  0  0  0  0  0
  143.4868   75.7182  220.8399 H   0  0  0  0  0  0  0  0  0  0  0  0
  138.9678   74.3795  220.6369 H   0  0  0  0  0  0  0  0  0  0  0  0
  140.5136   73.5605  220.2674 H   0  0  0  0  0  0  0  0  0  0  0  0
  139.5900   73.9120  223.1440 H   0  0  0  0  0  0  0  0  0  0  0  0
  139.1283   69.6319  222.6687 H   0  0  0  0  0  0  0  0  0  0  0  0
  138.9642   68.4077  224.8189 H   0  0  0  0  0  0  0  0  0  0  0  0
  139.3848   68.3123  227.2198 H   0  0  0  0  0  0  0  0  0  0  0  0
  140.2676   69.3092  229.3168 H   0  0  0  0  0  0  0  0  0  0  0  0
  141.3348   71.5897  229.1740 H   0  0  0  0  0  0  0  0  0  0  0  0
  141.4733   72.7617  227.0110 H   0  0  0  0  0  0  0  0  0  0  0  0
  140.1038   78.4948  223.8818 H   0  0  0  0  0  0  0  0  0  0  0  0
  137.9020   79.2593  224.6080 H   0  0  0  0  0  0  0  0  0  0  0  0
  136.9233   81.4035  223.8376 H   0  0  0  0  0  0  0  0  0  0  0  0
  138.2845   82.8035  222.2463 H   0  0  0  0  0  0  0  0  0  0  0  0
  140.5181   82.0460  221.4991 H   0  0  0  0  0  0  0  0  0  0  0  0
  1  2  1  0
  2  3  1  0
  3  4  1  0
  4  5  2  0
  4  6  1  0
  6  7  1  0
  7  8  1  0
  8  9  1  0
  9 10  1  0
 10 11  1  0
 11 12  2  0
 11 13  1  0
 13 14  1  0
 14 15  1  0
 15 16  2  0
 15 17  1  0
 17 18  2  0
 18 19  1  0
 19 20  2  0
 20 21  1  0
 21 22  2  0
 22 23  1  0
 23 24  2  0
 24 25  1  0
 25 26  2  0
  2 27  1  0
 27 28  2  0
 28 29  1  0
 29 30  2  0
 30 31  1  0
 31 32  2  0
 10  6  1  0
 26 17  1  0
 32 27  1  0
 25 20  1  0
  1 33  1  0
  1 34  1  0
  1 35  1  0
  2 36  1  6
  3 37  1  0
  6 38  1  6
  7 39  1  0
  7 40  1  0
  8 41  1  0
  8 42  1  0
  9 43  1  0
  9 44  1  0
 13 45  1  0
 13 46  1  0
 14 47  1  0
 18 48  1  0
 19 49  1  0
 21 50  1  0
 22 51  1  0
 23 52  1  0
 24 53  1  0
 28 54  1  0
 29 55  1  0
 30 56  1  0
 31 57  1  0
 32 58  1  0
M  END
>  <smiles>  (5) 
C[C@@H](NC(=O)[C@H]1CCCN1C(=O)CNC(=O)c1ccc2ccccc2n1)c1ccccc1

>  <score_type>  (5) 
oracle

>  <origin>  (5) 
autodockgpu

>  <m_score__min__energy>  (5) 
-9.4199999999999999

>  <m_primary>  (5) 
energy

>  <rmsd>  (5) 
2.1533198515866485

>  <m_score__min__rmsd>  (5) 
2.1533198515866485

>  <meeko>  (5) 
{"free_energy": -9.32, "intermolecular_energy": -11.4, "internal_energy": -2.93, "cluster_size": 30, "cluster_id": 1, "rank_in_cluster": 4}

>  <energy>  (5) 
-9.3

>  <cluster_rmsd>  (5) 
1.29

>  <cluster>  (5) 
1

$$$$

     RDKit          3D

 58 61  0  0  0  0  0  0  0  0999 V2000
  138.9110   78.3710  222.1690 C   0  0  0  0  0  0  0  0  0  0  0  0
  140.2950   77.8550  222.4750 C   0  0  1  0  0  0  0  0  0  0  0  0
  140.8520   77.1100  221.3740 N   0  0  0  0  0  0  0  0  0  0  0  0
  140.8950   75.6810  221.3510 C   0  0  0  0  0  0  0  0  0  0  0  0
  140.4350   75.0260  222.3230 O   0  0  0  0  0  0  0  0  0  0  0  0
  141.4940   75.0490  220.1560 C   0  0  1  0  0  0  0  0  0  0  0  0
  142.9830   75.1870  220.0920 C   0  0  0  0  0  0  0  0  0  0  0  0
  143.5220   73.9700  220.8100 C   0  0  0  0  0  0  0  0  0  0  0  0
  142.5060   72.9150  220.4880 C   0  0  0  0  0  0  0  0  0  0  0  0
  141.2890   73.6310  220.0980 N   0  0  0  0  0  0  0  0  0  0  0  0
  140.1070   72.9340  219.7250 C   0  0  0  0  0  0  0  0  0  0  0  0
  140.2010   72.2210  218.6700 O   0  0  0  0  0  0  0  0  0  0  0  0
  138.8500   73.0210  220.4950 C   0  0  0  0  0  0  0  0  0  0  0  0
  139.1230   72.6160  221.8630 N   0  0  0  0  0  0  0  0  0  0  0  0
  139.3560   71.2390  222.1520 C   0  0  0  0  0  0  0  0  0  0  0  0
  139.3280   70.3620  221.2280 O   0  0  0  0  0  0  0  0  0  0  0  0
  139.6300   70.8460  223.5330 C   0  0  0  0  0  0  0  0  0  0  0  0
  139.2600   69.5740  223.9560 C   0  0  0  0  0  0  0  0  0  0  0  0
  139.5190   69.2030  225.2620 C   0  0  0  0  0  0  0  0  0  0  0  0
  140.1370   70.0700  226.1510 C   0  0  0  0  0  0  0  0  0  0  0  0
  140.4110   69.7370  227.4550 C   0  0  0  0  0  0  0  0  0  0  0  0
  141.0270   70.5980  228.3460 C   0  0  0  0  0  0  0  0  0  0  0  0
  141.3740   71.8610  227.8570 C   0  0  0  0  0  0  0  0  0  0  0  0
  141.1040   72.2060  226.5470 C   0  0  0  0  0  0  0  0  0  0  0  0
  140.4870   71.3240  225.6840 C   0  0  0  0  0  0  0  0  0  0  0  0
  140.2390   71.7050  224.4010 N   0  0  0  0  0  0  0  0  0  0  0  0
  141.1420   78.9910  222.8760 C   0  0  0  0  0  0  0  0  0  0  0  0
  140.5020   80.0880  223.4510 C   0  0  0  0  0  0  0  0  0  0  0  0
  141.2370   81.1740  223.8430 C   0  0  0  0  0  0  0  0  0  0  0  0
  142.6050   81.2580  223.7030 C   0  0  0  0  0  0  0  0  0  0  0  0
  143.2370   80.1530  223.1260 C   0  0  0  0  0  0  0  0  0  0  0  0
  142.5080   79.0380  222.7210 C   0  0  0  0  0  0  0  0  0  0  0  0
  138.3774   78.5699  223.1102 H   0  0  0  0  0  0  0  0  0  0  0  0
  138.9869   79.3012  221.5869 H   0  0  0  0  0  0  0  0  0  0  0  0
  138.3594   77.6181  221.5869 H   0  0  0  0  0  0  0  0  0  0  0  0
  140.2421   77.1390  223.3084 H   0  0  0  0  0  0  0  0  0  0  0  0
  141.2400   77.6610  220.5550 H   0  0  0  0  0  0  0  0  0  0  0  0
  140.9886   75.5799  219.3358 H   0  0  0  0  0  0  0  0  0  0  0  0
  143.3250   75.2017  219.0466 H   0  0  0  0  0  0  0  0  0  0  0  0
  143.3304   76.1243  220.5511 H   0  0  0  0  0  0  0  0  0  0  0  0
  144.5155   73.6926  220.4279 H   0  0  0  0  0  0  0  0  0  0  0  0
  143.6582   74.1273  221.8901 H   0  0  0  0  0  0  0  0  0  0  0  0
  142.8600   72.2838  219.6596 H   0  0  0  0  0  0  0  0  0  0  0  0
  142.3258   72.2537  221.3484 H   0  0  0  0  0  0  0  0  0  0  0  0
  138.4764   74.0555  220.4811 H   0  0  0  0  0  0  0  0  0  0  0  0
  138.0877   72.3642  220.0507 H   0  0  0  0  0  0  0  0  0  0  0  0
  139.1520   73.3100  222.6340 H   0  0  0  0  0  0  0  0  0  0  0  0
  138.7694   68.8748  223.2628 H   0  0  0  0  0  0  0  0  0  0  0  0
  139.2288   68.1985  225.6037 H   0  0  0  0  0  0  0  0  0  0  0  0
  140.1263   68.7352  227.8090 H   0  0  0  0  0  0  0  0  0  0  0  0
  141.2331   70.3039  229.3857 H   0  0  0  0  0  0  0  0  0  0  0  0
  141.8664   72.5864  228.5214 H   0  0  0  0  0  0  0  0  0  0  0  0
  141.3869   73.2052  226.1842 H   0  0  0  0  0  0  0  0  0  0  0  0
  139.4107   80.0808  223.5891 H   0  0  0  0  0  0  0  0  0  0  0  0
  140.7069   82.0257  224.2942 H   0  0  0  0  0  0  0  0  0  0  0  0
  143.1684   82.1453  224.0273 H   0  0  0  0  0  0  0  0  0  0  0  0
  144.3284   80.1644  222.9896 H   0  0  0  0  0  0  0  0  0  0  0  0
  143.0321   78.1822  222.2705 H   0  0  0  0  0  0  0  0  0  0  0  0
  1  2  1  0
  2  3  1  0
  3  4  1  0
  4  5  2  0
  4  6  1  0
  6  7  1  0
  7  8  1  0
  8  9  1  0
  9 10  1  0
 10 11  1  0
 11 12  2  0
 11 13  1  0
 13 14  1  0
 14 15  1  0
 15 16  2  0
 15 17  1  0
 17 18  2  0
 18 19  1  0
 19 20  2  0
 20 21  1  0
 21 22  2  0
 22 23  1  0
 23 24  2  0
 24 25  1  0
 25 26  2  0
  2 27  1  0
 27 28  2  0
 28 29  1  0
 29 30  2  0
 30 31  1  0
 31 32  2  0
 10  6  1  0
 26 17  1  0
 32 27  1  0
 25 20  1  0
  1 33  1  0
  1 34  1  0
  1 35  1  0
  2 36  1  1
  3 37  1  0
  6 38  1  6
  7 39  1  0
  7 40  1  0
  8 41  1  0
  8 42  1  0
  9 43  1  0
  9 44  1  0
 13 45  1  0
 13 46  1  0
 14 47  1  0
 18 48  1  0
 19 49  1  0
 21 50  1  0
 22 51  1  0
 23 52  1  0
 24 53  1  0
 28 54  1  0
 29 55  1  0
 30 56  1  0
 31 57  1  0
 32 58  1  0
M  END
>  <smiles>  (6) 
C[C@@H](NC(=O)[C@H]1CCCN1C(=O)CNC(=O)c1ccc2ccccc2n1)c1ccccc1

>  <score_type>  (6) 
oracle

>  <origin>  (6) 
autodockgpu

>  <m_score__min__energy>  (6) 
-9.4199999999999999

>  <m_primary>  (6) 
energy

>  <rmsd>  (6) 
3.0303094959658745

>  <m_score__min__rmsd>  (6) 
3.0303094959658745

>  <meeko>  (6) 
{"free_energy": -9.28, "intermolecular_energy": -11.37, "internal_energy": -2.78, "cluster_size": 30, "cluster_id": 1, "rank_in_cluster": 6}

>  <energy>  (6) 
-9.28

>  <cluster_rmsd>  (6) 
1.18

>  <cluster>  (6) 
1

$$$$

     RDKit          3D

 58 61  0  0  0  0  0  0  0  0999 V2000
  141.8450   77.1260  220.3790 C   0  0  0  0  0  0  0  0  0  0  0  0
  140.7590   77.9240  221.0570 C   0  0  1  0  0  0  0  0  0  0  0  0
  139.7650   77.0760  221.6670 N   0  0  0  0  0  0  0  0  0  0  0  0
  138.3920   77.4570  221.7840 C   0  0  0  0  0  0  0  0  0  0  0  0
  138.0140   78.5750  221.3440 O   0  0  0  0  0  0  0  0  0  0  0  0
  137.4820   76.4890  222.4320 C   0  0  1  0  0  0  0  0  0  0  0  0
  136.0410   76.8910  222.3680 C   0  0  0  0  0  0  0  0  0  0  0  0
  135.5190   76.2800  221.0870 C   0  0  0  0  0  0  0  0  0  0  0  0
  136.3080   75.0090  220.9770 C   0  0  0  0  0  0  0  0  0  0  0  0
  137.4940   75.1950  221.8170 N   0  0  0  0  0  0  0  0  0  0  0  0
  138.4770   74.1750  221.9470 C   0  0  0  0  0  0  0  0  0  0  0  0
  139.6470   74.5790  222.2600 O   0  0  0  0  0  0  0  0  0  0  0  0
  138.1780   72.7430  221.7380 C   0  0  0  0  0  0  0  0  0  0  0  0
  138.7030   71.9970  222.8680 N   0  0  0  0  0  0  0  0  0  0  0  0
  138.4220   70.6030  222.9780 C   0  0  0  0  0  0  0  0  0  0  0  0
  137.7190   70.0060  222.1000 O   0  0  0  0  0  0  0  0  0  0  0  0
  138.9580   69.8650  224.1200 C   0  0  0  0  0  0  0  0  0  0  0  0
  138.8330   68.4800  224.1450 C   0  0  0  0  0  0  0  0  0  0  0  0
  139.3390   67.7830  225.2260 C   0  0  0  0  0  0  0  0  0  0  0  0
  139.9640   68.4340  226.2780 C   0  0  0  0  0  0  0  0  0  0  0  0
  140.4790   67.7760  227.3670 C   0  0  0  0  0  0  0  0  0  0  0  0
  141.1040   68.4210  228.4200 C   0  0  0  0  0  0  0  0  0  0  0  0
  141.1970   69.8130  228.3330 C   0  0  0  0  0  0  0  0  0  0  0  0
  140.6830   70.4860  227.2420 C   0  0  0  0  0  0  0  0  0  0  0  0
  140.0650   69.8120  226.2090 C   0  0  0  0  0  0  0  0  0  0  0  0
  139.5720   70.5140  225.1520 N   0  0  0  0  0  0  0  0  0  0  0  0
  141.3850   78.8450  222.0200 C   0  0  0  0  0  0  0  0  0  0  0  0
  141.8890   80.0430  221.5170 C   0  0  0  0  0  0  0  0  0  0  0  0
  142.4830   80.9400  222.3640 C   0  0  0  0  0  0  0  0  0  0  0  0
  142.6180   80.7310  223.7200 C   0  0  0  0  0  0  0  0  0  0  0  0
  142.1100   79.5270  224.2140 C   0  0  0  0  0  0  0  0  0  0  0  0
  141.5020   78.6020  223.3690 C   0  0  0  0  0  0  0  0  0  0  0  0
  142.4845   76.6561  221.1407 H   0  0  0  0  0  0  0  0  0  0  0  0
  141.3893   76.3463  219.7510 H   0  0  0  0  0  0  0  0  0  0  0  0
  142.4530   77.7938  219.7510 H   0  0  0  0  0  0  0  0  0  0  0  0
  140.2131   78.5127  220.3051 H   0  0  0  0  0  0  0  0  0  0  0  0
  140.0830   76.1360  222.0380 H   0  0  0  0  0  0  0  0  0  0  0  0
  137.8651   76.4662  223.4629 H   0  0  0  0  0  0  0  0  0  0  0  0
  135.4912   76.4976  223.2357 H   0  0  0  0  0  0  0  0  0  0  0  0
  135.9165   77.9838  222.3844 H   0  0  0  0  0  0  0  0  0  0  0  0
  134.4412   76.0720  221.1581 H   0  0  0  0  0  0  0  0  0  0  0  0
  135.6322   76.9389  220.2135 H   0  0  0  0  0  0  0  0  0  0  0  0
  135.7131   74.1575  221.3390 H   0  0  0  0  0  0  0  0  0  0  0  0
  136.5831   74.7950  219.9337 H   0  0  0  0  0  0  0  0  0  0  0  0
  137.0900   72.5966  221.6690 H   0  0  0  0  0  0  0  0  0  0  0  0
  138.6414   72.3918  220.8043 H   0  0  0  0  0  0  0  0  0  0  0  0
  139.2790   72.4590  223.5970 H   0  0  0  0  0  0  0  0  0  0  0  0
  138.3396   67.9481  223.3182 H   0  0  0  0  0  0  0  0  0  0  0  0
  139.2436   66.6875  225.2520 H   0  0  0  0  0  0  0  0  0  0  0  0
  140.3905   66.6802  227.4047 H   0  0  0  0  0  0  0  0  0  0  0  0
  141.5067   67.8670  229.2807 H   0  0  0  0  0  0  0  0  0  0  0  0
  141.6843   70.3779  229.1413 H   0  0  0  0  0  0  0  0  0  0  0  0
  140.7681   71.5817  227.1958 H   0  0  0  0  0  0  0  0  0  0  0  0
  141.8099   80.2672  220.4430 H   0  0  0  0  0  0  0  0  0  0  0  0
  142.8732   81.8770  221.9400 H   0  0  0  0  0  0  0  0  0  0  0  0
  143.0989   81.4711  224.3765 H   0  0  0  0  0  0  0  0  0  0  0  0
  142.1916   79.3059  225.2885 H   0  0  0  0  0  0  0  0  0  0  0  0
  141.1094   77.6630  223.7864 H   0  0  0  0  0  0  0  0  0  0  0  0
  1  2  1  0
  2  3  1  0
  3  4  1  0
  4  5  2  0
  4  6  1  0
  6  7  1  0
  7  8  1  0
  8  9  1  0
  9 10  1  0
 10 11  1  0
 11 12  2  0
 11 13  1  0
 13 14  1  0
 14 15  1  0
 15 16  2  0
 15 17  1  0
 17 18  2  0
 18 19  1  0
 19 20  2  0
 20 21  1  0
 21 22  2  0
 22 23  1  0
 23 24  2  0
 24 25  1  0
 25 26  2  0
  2 27  1  0
 27 28  2  0
 28 29  1  0
 29 30  2  0
 30 31  1  0
 31 32  2  0
 10  6  1  0
 26 17  1  0
 32 27  1  0
 25 20  1  0
  1 33  1  0
  1 34  1  0
  1 35  1  0
  2 36  1  6
  3 37  1  0
  6 38  1  1
  7 39  1  0
  7 40  1  0
  8 41  1  0
  8 42  1  0
  9 43  1  0
  9 44  1  0
 13 45  1  0
 13 46  1  0
 14 47  1  0
 18 48  1  0
 19 49  1  0
 21 50  1  0
 22 51  1  0
 23 52  1  0
 24 53  1  0
 28 54  1  0
 29 55  1  0
 30 56  1  0
 31 57  1  0
 32 58  1  0
M  END
>  <smiles>  (7) 
C[C@@H](NC(=O)[C@H]1CCCN1C(=O)CNC(=O)c1ccc2ccccc2n1)c1ccccc1

>  <score_type>  (7) 
oracle

>  <origin>  (7) 
autodockgpu

>  <m_score__min__energy>  (7) 
-9.4199999999999999

>  <m_primary>  (7) 
energy

>  <rmsd>  (7) 
3.533942884927769

>  <m_score__min__rmsd>  (7) 
3.533942884927769

>  <meeko>  (7) 
{"free_energy": -8.54, "intermolecular_energy": -10.63, "internal_energy": -2.8, "cluster_size": 30, "cluster_id": 1, "rank_in_cluster": 27}

>  <energy>  (7) 
-9.26

>  <cluster_rmsd>  (7) 
1.33

>  <cluster>  (7) 
1

$$$$

     RDKit          3D

 58 61  0  0  0  0  0  0  0  0999 V2000
  142.0040   77.9310  219.7570 C   0  0  0  0  0  0  0  0  0  0  0  0
  140.8960   78.5300  220.5880 C   0  0  1  0  0  0  0  0  0  0  0  0
  139.8810   77.5610  220.9140 N   0  0  0  0  0  0  0  0  0  0  0  0
  138.4830   77.8320  220.7820 C   0  0  0  0  0  0  0  0  0  0  0  0
  138.1010   78.9580  220.3660 O   0  0  0  0  0  0  0  0  0  0  0  0
  137.5520   76.7450  221.1520 C   0  0  1  0  0  0  0  0  0  0  0  0
  136.2810   76.7530  220.3610 C   0  0  0  0  0  0  0  0  0  0  0  0
  136.5630   75.8830  219.1560 C   0  0  0  0  0  0  0  0  0  0  0  0
  137.5080   74.8540  219.7010 C   0  0  0  0  0  0  0  0  0  0  0  0
  138.0820   75.4340  220.9170 N   0  0  0  0  0  0  0  0  0  0  0  0
  139.0340   74.7240  221.7000 C   0  0  0  0  0  0  0  0  0  0  0  0
  139.4710   75.3440  222.7260 O   0  0  0  0  0  0  0  0  0  0  0  0
  139.4920   73.3610  221.3600 C   0  0  0  0  0  0  0  0  0  0  0  0
  139.6300   72.6050  222.5930 N   0  0  0  0  0  0  0  0  0  0  0  0
  139.4620   71.1880  222.5670 C   0  0  0  0  0  0  0  0  0  0  0  0
  139.1950   70.5800  221.4800 O   0  0  0  0  0  0  0  0  0  0  0  0
  139.6040   70.4400  223.8150 C   0  0  0  0  0  0  0  0  0  0  0  0
  139.1180   69.1390  223.8770 C   0  0  0  0  0  0  0  0  0  0  0  0
  139.2520   68.4320  225.0580 C   0  0  0  0  0  0  0  0  0  0  0  0
  139.8570   68.9940  226.1720 C   0  0  0  0  0  0  0  0  0  0  0  0
  140.0090   68.3230  227.3600 C   0  0  0  0  0  0  0  0  0  0  0  0
  140.6120   68.8780  228.4760 C   0  0  0  0  0  0  0  0  0  0  0  0
  141.0800   70.1890  228.3460 C   0  0  0  0  0  0  0  0  0  0  0  0
  140.9330   70.8730  227.1550 C   0  0  0  0  0  0  0  0  0  0  0  0
  140.3250   70.2900  226.0620 C   0  0  0  0  0  0  0  0  0  0  0  0
  140.2020   71.0000  224.9070 N   0  0  0  0  0  0  0  0  0  0  0  0
  141.4890   79.1520  221.7820 C   0  0  0  0  0  0  0  0  0  0  0  0
  141.3200   78.4860  222.9950 C   0  0  0  0  0  0  0  0  0  0  0  0
  141.8490   79.0160  224.1420 C   0  0  0  0  0  0  0  0  0  0  0  0
  142.5580   80.1980  224.1760 C   0  0  0  0  0  0  0  0  0  0  0  0
  142.7220   80.8570  222.9560 C   0  0  0  0  0  0  0  0  0  0  0  0
  142.1920   80.3350  221.7790 C   0  0  0  0  0  0  0  0  0  0  0  0
  142.7756   77.5138  220.4207 H   0  0  0  0  0  0  0  0  0  0  0  0
  141.5949   77.1312  219.1222 H   0  0  0  0  0  0  0  0  0  0  0  0
  142.4492   78.7113  219.1222 H   0  0  0  0  0  0  0  0  0  0  0  0
  140.3775   79.3048  220.0043 H   0  0  0  0  0  0  0  0  0  0  0  0
  140.2010   76.6130  221.2640 H   0  0  0  0  0  0  0  0  0  0  0  0
  137.3813   76.9422  222.2206 H   0  0  0  0  0  0  0  0  0  0  0  0
  135.4541   76.3354  220.9541 H   0  0  0  0  0  0  0  0  0  0  0  0
  135.9802   77.7713  220.0736 H   0  0  0  0  0  0  0  0  0  0  0  0
  135.6409   75.4147  218.7812 H   0  0  0  0  0  0  0  0  0  0  0  0
  136.9740   76.4422  218.3025 H   0  0  0  0  0  0  0  0  0  0  0  0
  136.9667   73.9265  219.9391 H   0  0  0  0  0  0  0  0  0  0  0  0
  138.2892   74.5983  218.9700 H   0  0  0  0  0  0  0  0  0  0  0  0
  138.7547   72.8734  220.7053 H   0  0  0  0  0  0  0  0  0  0  0  0
  140.4566   73.4058  220.8331 H   0  0  0  0  0  0  0  0  0  0  0  0
  139.8470   73.0760  223.4910 H   0  0  0  0  0  0  0  0  0  0  0  0
  138.6352   68.6798  223.0018 H   0  0  0  0  0  0  0  0  0  0  0  0
  138.8705   67.4018  225.1149 H   0  0  0  0  0  0  0  0  0  0  0  0
  139.6325   67.2917  227.4288 H   0  0  0  0  0  0  0  0  0  0  0  0
  140.7174   68.3166  229.4161 H   0  0  0  0  0  0  0  0  0  0  0  0
  141.5697   70.6802  229.1998 H   0  0  0  0  0  0  0  0  0  0  0  0
  141.3084   71.9039  227.0762 H   0  0  0  0  0  0  0  0  0  0  0  0
  140.7636   77.5378  223.0309 H   0  0  0  0  0  0  0  0  0  0  0  0
  141.7004   78.4700  225.0853 H   0  0  0  0  0  0  0  0  0  0  0  0
  142.9717   80.5998  225.1127 H   0  0  0  0  0  0  0  0  0  0  0  0
  143.2794   81.8048  222.9242 H   0  0  0  0  0  0  0  0  0  0  0  0
  142.3374   80.8764  220.8326 H   0  0  0  0  0  0  0  0  0  0  0  0
  1  2  1  0
  2  3  1  0
  3  4  1  0
  4  5  2  0
  4  6  1  0
  6  7  1  0
  7  8  1  0
  8  9  1  0
  9 10  1  0
 10 11  1  0
 11 12  2  0
 11 13  1  0
 13 14  1  0
 14 15  1  0
 15 16  2  0
 15 17  1  0
 17 18  2  0
 18 19  1  0
 19 20  2  0
 20 21  1  0
 21 22  2  0
 22 23  1  0
 23 24  2  0
 24 25  1  0
 25 26  2  0
  2 27  1  0
 27 28  2  0
 28 29  1  0
 29 30  2  0
 30 31  1  0
 31 32  2  0
 10  6  1  0
 26 17  1  0
 32 27  1  0
 25 20  1  0
  1 33  1  0
  1 34  1  0
  1 35  1  0
  2 36  1  6
  3 37  1  0
  6 38  1  1
  7 39  1  0
  7 40  1  0
  8 41  1  0
  8 42  1  0
  9 43  1  0
  9 44  1  0
 13 45  1  0
 13 46  1  0
 14 47  1  0
 18 48  1  0
 19 49  1  0
 21 50  1  0
 22 51  1  0
 23 52  1  0
 24 53  1  0
 28 54  1  0
 29 55  1  0
 30 56  1  0
 31 57  1  0
 32 58  1  0
M  END
>  <smiles>  (8) 
C[C@@H](NC(=O)[C@H]1CCCN1C(=O)CNC(=O)c1ccc2ccccc2n1)c1ccccc1

>  <score_type>  (8) 
oracle

>  <origin>  (8) 
autodockgpu

>  <m_score__min__energy>  (8) 
-9.4199999999999999

>  <m_primary>  (8) 
energy

>  <rmsd>  (8) 
2.965590506901813

>  <m_score__min__rmsd>  (8) 
2.965590506901813

>  <meeko>  (8) 
{"free_energy": -8.1, "intermolecular_energy": -10.19, "internal_energy": -2.97, "cluster_size": 30, "cluster_id": 1, "rank_in_cluster": 30}

>  <energy>  (8) 
-9.13

>  <cluster_rmsd>  (8) 
1.4

>  <cluster>  (8) 
1

$$$$

     RDKit          3D

 58 61  0  0  0  0  0  0  0  0999 V2000
  138.2620   79.4740  222.5180 C   0  0  0  0  0  0  0  0  0  0  0  0
  139.2900   78.5300  223.0890 C   0  0  1  0  0  0  0  0  0  0  0  0
  139.3940   77.3150  222.3220 N   0  0  0  0  0  0  0  0  0  0  0  0
  139.7820   77.3000  220.9460 C   0  0  0  0  0  0  0  0  0  0  0  0
  140.0470   78.3830  220.3600 O   0  0  0  0  0  0  0  0  0  0  0  0
  139.8470   75.9810  220.2820 C   0  0  1  0  0  0  0  0  0  0  0  0
  141.2220   75.6140  219.8190 C   0  0  0  0  0  0  0  0  0  0  0  0
  141.8460   74.8790  220.9850 C   0  0  0  0  0  0  0  0  0  0  0  0
  140.6750   74.1760  221.6030 C   0  0  0  0  0  0  0  0  0  0  0  0
  139.4830   74.8920  221.1400 N   0  0  0  0  0  0  0  0  0  0  0  0
  138.1780   74.4930  221.5390 C   0  0  0  0  0  0  0  0  0  0  0  0
  137.4320   75.4280  221.9870 O   0  0  0  0  0  0  0  0  0  0  0  0
  137.7040   73.0970  221.4470 C   0  0  0  0  0  0  0  0  0  0  0  0
  138.0810   72.4050  222.6670 N   0  0  0  0  0  0  0  0  0  0  0  0
  139.0310   71.3420  222.6040 C   0  0  0  0  0  0  0  0  0  0  0  0
  139.5520   70.9950  221.4950 O   0  0  0  0  0  0  0  0  0  0  0  0
  139.4000   70.6550  223.8400 C   0  0  0  0  0  0  0  0  0  0  0  0
  139.2300   69.2770  223.9200 C   0  0  0  0  0  0  0  0  0  0  0  0
  139.5790   68.6280  225.0890 C   0  0  0  0  0  0  0  0  0  0  0  0
  140.0920   69.3200  226.1750 C   0  0  0  0  0  0  0  0  0  0  0  0
  140.4510   68.7090  227.3510 C   0  0  0  0  0  0  0  0  0  0  0  0
  140.9630   69.3950  228.4390 C   0  0  0  0  0  0  0  0  0  0  0  0
  141.1110   70.7770  228.2930 C   0  0  0  0  0  0  0  0  0  0  0  0
  140.7540   71.4020  227.1140 C   0  0  0  0  0  0  0  0  0  0  0  0
  140.2440   70.6880  226.0480 C   0  0  0  0  0  0  0  0  0  0  0  0
  139.9060   71.3440  224.9040 N   0  0  0  0  0  0  0  0  0  0  0  0
  140.5740   79.2430  223.1960 C   0  0  0  0  0  0  0  0  0  0  0  0
  140.5240   80.5890  223.5570 C   0  0  0  0  0  0  0  0  0  0  0  0
  141.6850   81.3050  223.6720 C   0  0  0  0  0  0  0  0  0  0  0  0
  142.9350   80.7680  223.4490 C   0  0  0  0  0  0  0  0  0  0  0  0
  142.9740   79.4190  223.0890 C   0  0  0  0  0  0  0  0  0  0  0  0
  141.8050   78.6740  222.9670 C   0  0  0  0  0  0  0  0  0  0  0  0
  137.7228   79.9691  223.3390 H   0  0  0  0  0  0  0  0  0  0  0  0
  138.7641   80.2323  221.8992 H   0  0  0  0  0  0  0  0  0  0  0  0
  137.5492   78.9092  221.8992 H   0  0  0  0  0  0  0  0  0  0  0  0
  138.9756   78.2104  224.0935 H   0  0  0  0  0  0  0  0  0  0  0  0
  139.1710   76.4030  222.8140 H   0  0  0  0  0  0  0  0  0  0  0  0
  139.1439   76.1086  219.4457 H   0  0  0  0  0  0  0  0  0  0  0  0
  141.1707   74.9624  218.9343 H   0  0  0  0  0  0  0  0  0  0  0  0
  141.8085   76.4975  219.5265 H   0  0  0  0  0  0  0  0  0  0  0  0
  142.6027   74.1591  220.6398 H   0  0  0  0  0  0  0  0  0  0  0  0
  142.3730   75.5435  221.6856 H   0  0  0  0  0  0  0  0  0  0  0  0
  140.6422   73.1268  221.2743 H   0  0  0  0  0  0  0  0  0  0  0  0
  140.7413   74.1721  222.7010 H   0  0  0  0  0  0  0  0  0  0  0  0
  136.6099   73.0826  221.3343 H   0  0  0  0  0  0  0  0  0  0  0  0
  138.1554   72.6006  220.5753 H   0  0  0  0  0  0  0  0  0  0  0  0
  137.6710   72.6680  223.5830 H   0  0  0  0  0  0  0  0  0  0  0  0
  138.8245   68.7131  223.0670 H   0  0  0  0  0  0  0  0  0  0  0  0
  139.4468   67.5382  225.1593 H   0  0  0  0  0  0  0  0  0  0  0  0
  140.3254   67.6193  227.4328 H   0  0  0  0  0  0  0  0  0  0  0  0
  141.2391   68.8789  229.3704 H   0  0  0  0  0  0  0  0  0  0  0  0
  141.5155   71.3726  229.1247 H   0  0  0  0  0  0  0  0  0  0  0  0
  140.8786   72.4911  227.0225 H   0  0  0  0  0  0  0  0  0  0  0  0
  139.5553   81.0736  223.7487 H   0  0  0  0  0  0  0  0  0  0  0  0
  141.6170   82.3651  223.9575 H   0  0  0  0  0  0  0  0  0  0  0  0
  143.8510   81.3687  223.5491 H   0  0  0  0  0  0  0  0  0  0  0  0
  143.9446   78.9376  222.8988 H   0  0  0  0  0  0  0  0  0  0  0  0
  141.8665   77.6131  222.6829 H   0  0  0  0  0  0  0  0  0  0  0  0
  1  2  1  0
  2  3  1  0
  3  4  1  0
  4  5  2  0
  4  6  1  0
  6  7  1  0
  7  8  1  0
  8  9  1  0
  9 10  1  0
 10 11  1  0
 11 12  2  0
 11 13  1  0
 13 14  1  0
 14 15  1  0
 15 16  2  0
 15 17  1  0
 17 18  2  0
 18 19  1  0
 19 20  2  0
 20 21  1  0
 21 22  2  0
 22 23  1  0
 23 24  2  0
 24 25  1  0
 25 26  2  0
  2 27  1  0
 27 28  2  0
 28 29  1  0
 29 30  2  0
 30 31  1  0
 31 32  2  0
 10  6  1  0
 26 17  1  0
 32 27  1  0
 25 20  1  0
  1 33  1  0
  1 34  1  0
  1 35  1  0
  2 36  1  1
  3 37  1  0
  6 38  1  6
  7 39  1  0
  7 40  1  0
  8 41  1  0
  8 42  1  0
  9 43  1  0
  9 44  1  0
 13 45  1  0
 13 46  1  0
 14 47  1  0
 18 48  1  0
 19 49  1  0
 21 50  1  0
 22 51  1  0
 23 52  1  0
 24 53  1  0
 28 54  1  0
 29 55  1  0
 30 56  1  0
 31 57  1  0
 32 58  1  0
M  END
>  <smiles>  (9) 
C[C@@H](NC(=O)[C@H]1CCCN1C(=O)CNC(=O)c1ccc2ccccc2n1)c1ccccc1

>  <score_type>  (9) 
oracle

>  <origin>  (9) 
autodockgpu

>  <m_score__min__energy>  (9) 
-9.4199999999999999

>  <m_primary>  (9) 
energy

>  <rmsd>  (9) 
2.8593718523479317

>  <m_score__min__rmsd>  (9) 
2.8593718523479317

>  <meeko>  (9) 
{"free_energy": -8.68, "intermolecular_energy": -10.77, "internal_energy": -2.73, "cluster_size": 30, "cluster_id": 1, "rank_in_cluster": 21}

>  <energy>  (9) 
-9.13

>  <cluster_rmsd>  (9) 
1.36

>  <cluster>  (9) 
1

$$$$

     RDKit          3D

 58 61  0  0  0  0  0  0  0  0999 V2000
  142.1920   79.7270  224.0520 C   0  0  0  0  0  0  0  0  0  0  0  0
  142.0300   79.0470  222.7150 C   0  0  1  0  0  0  0  0  0  0  0  0
  140.9670   78.0730  222.7290 N   0  0  0  0  0  0  0  0  0  0  0  0
  139.5850   78.4370  222.7710 C   0  0  0  0  0  0  0  0  0  0  0  0
  139.2600   79.6530  222.7990 O   0  0  0  0  0  0  0  0  0  0  0  0
  138.6020   77.3330  222.7820 C   0  0  1  0  0  0  0  0  0  0  0  0
  137.1840   77.7970  222.6560 C   0  0  0  0  0  0  0  0  0  0  0  0
  136.9070   77.8160  221.1690 C   0  0  0  0  0  0  0  0  0  0  0  0
  137.7350   76.6740  220.6610 C   0  0  0  0  0  0  0  0  0  0  0  0
  138.7530   76.4240  221.6840 N   0  0  0  0  0  0  0  0  0  0  0  0
  139.7240   75.3970  221.5280 C   0  0  0  0  0  0  0  0  0  0  0  0
  140.9240   75.7310  221.8090 O   0  0  0  0  0  0  0  0  0  0  0  0
  139.3820   74.0330  221.0750 C   0  0  0  0  0  0  0  0  0  0  0  0
  139.2770   73.1760  222.2420 N   0  0  0  0  0  0  0  0  0  0  0  0
  140.3290   72.2570  222.5330 C   0  0  0  0  0  0  0  0  0  0  0  0
  141.3560   72.1800  221.7830 O   0  0  0  0  0  0  0  0  0  0  0  0
  140.2100   71.4000  223.7110 C   0  0  0  0  0  0  0  0  0  0  0  0
  139.6020   70.1560  223.5790 C   0  0  0  0  0  0  0  0  0  0  0  0
  139.4900   69.3470  224.6940 C   0  0  0  0  0  0  0  0  0  0  0  0
  139.9680   69.7500  225.9310 C   0  0  0  0  0  0  0  0  0  0  0  0
  139.8750   68.9730  227.0600 C   0  0  0  0  0  0  0  0  0  0  0  0
  140.3510   69.3700  228.2980 C   0  0  0  0  0  0  0  0  0  0  0  0
  140.9520   70.6310  228.3610 C   0  0  0  0  0  0  0  0  0  0  0  0
  141.0510   71.4200  227.2320 C   0  0  0  0  0  0  0  0  0  0  0  0
  140.5650   70.9940  226.0130 C   0  0  0  0  0  0  0  0  0  0  0  0
  140.6850   71.8040  224.9250 N   0  0  0  0  0  0  0  0  0  0  0  0
  141.8370   80.0790  221.6840 C   0  0  0  0  0  0  0  0  0  0  0  0
  141.8380   79.6580  220.3550 C   0  0  0  0  0  0  0  0  0  0  0  0
  141.6640   80.5720  219.3510 C   0  0  0  0  0  0  0  0  0  0  0  0
  141.4820   81.9200  219.5740 C   0  0  0  0  0  0  0  0  0  0  0  0
  141.4820   82.3320  220.9090 C   0  0  0  0  0  0  0  0  0  0  0  0
  141.6580   81.4180  221.9440 C   0  0  0  0  0  0  0  0  0  0  0  0
  142.0184   78.9982  224.8574 H   0  0  0  0  0  0  0  0  0  0  0  0
  143.2116   80.1311  224.1367 H   0  0  0  0  0  0  0  0  0  0  0  0
  141.4642   80.5474  224.1367 H   0  0  0  0  0  0  0  0  0  0  0  0
  142.9410   78.4766  222.4813 H   0  0  0  0  0  0  0  0  0  0  0  0
  141.2400   77.0490  222.7060 H   0  0  0  0  0  0  0  0  0  0  0  0
  138.8019   76.8549  223.7523 H   0  0  0  0  0  0  0  0  0  0  0  0
  136.5028   77.1006  223.1670 H   0  0  0  0  0  0  0  0  0  0  0  0
  137.0305   78.7840  223.1168 H   0  0  0  0  0  0  0  0  0  0  0  0
  135.8388   77.6530  220.9631 H   0  0  0  0  0  0  0  0  0  0  0  0
  137.1525   78.7768  220.6930 H   0  0  0  0  0  0  0  0  0  0  0  0
  137.1082   75.7811  220.5199 H   0  0  0  0  0  0  0  0  0  0  0  0
  138.1918   76.9101  219.6886 H   0  0  0  0  0  0  0  0  0  0  0  0
  138.4219   74.0494  220.5384 H   0  0  0  0  0  0  0  0  0  0  0  0
  140.1600   73.6538  220.3961 H   0  0  0  0  0  0  0  0  0  0  0  0
  138.4520   73.2200  222.8690 H   0  0  0  0  0  0  0  0  0  0  0  0
  139.2170   69.8219  222.6042 H   0  0  0  0  0  0  0  0  0  0  0  0
  139.0109   68.3615  224.5975 H   0  0  0  0  0  0  0  0  0  0  0  0
  139.3982   67.9853  226.9762 H   0  0  0  0  0  0  0  0  0  0  0  0
  140.2611   68.7269  229.1859 H   0  0  0  0  0  0  0  0  0  0  0  0
  141.3496   70.9979  229.3187 H   0  0  0  0  0  0  0  0  0  0  0  0
  141.5273   72.4088  227.3061 H   0  0  0  0  0  0  0  0  0  0  0  0
  141.9783   78.5940  220.1138 H   0  0  0  0  0  0  0  0  0  0  0  0
  141.6697   80.2118  218.3116 H   0  0  0  0  0  0  0  0  0  0  0  0
  141.3444   82.6319  218.7468 H   0  0  0  0  0  0  0  0  0  0  0  0
  141.3405   83.3968  221.1462 H   0  0  0  0  0  0  0  0  0  0  0  0
  141.6539   81.7717  222.9856 H   0  0  0  0  0  0  0  0  0  0  0  0
  1  2  1  0
  2  3  1  0
  3  4  1  0
  4  5  2  0
  4  6  1  0
  6  7  1  0
  7  8  1  0
  8  9  1  0
  9 10  1  0
 10 11  1  0
 11 12  2  0
 11 13  1  0
 13 14  1  0
 14 15  1  0
 15 16  2  0
 15 17  1  0
 17 18  2  0
 18 19  1  0
 19 20  2  0
 20 21  1  0
 21 22  2  0
 22 23  1  0
 23 24  2  0
 24 25  1  0
 25 26  2  0
  2 27  1  0
 27 28  2  0
 28 29  1  0
 29 30  2  0
 30 31  1  0
 31 32  2  0
 10  6  1  0
 26 17  1  0
 32 27  1  0
 25 20  1  0
  1 33  1  0
  1 34  1  0
  1 35  1  0
  2 36  1  6
  3 37  1  0
  6 38  1  1
  7 39  1  0
  7 40  1  0
  8 41  1  0
  8 42  1  0
  9 43  1  0
  9 44  1  0
 13 45  1  0
 13 46  1  0
 14 47  1  0
 18 48  1  0
 19 49  1  0
 21 50  1  0
 22 51  1  0
 23 52  1  0
 24 53  1  0
 28 54  1  0
 29 55  1  0
 30 56  1  0
 31 57  1  0
 32 58  1  0
M  END
>  <smiles>  (10) 
C[C@@H](NC(=O)[C@H]1CCCN1C(=O)CNC(=O)c1ccc2ccccc2n1)c1ccccc1

>  <score_type>  (10) 
oracle

>  <origin>  (10) 
autodockgpu

>  <m_score__min__energy>  (10) 
-9.4199999999999999

>  <m_primary>  (10) 
energy

>  <rmsd>  (10) 
2.8129273096225273

>  <m_score__min__rmsd>  (10) 
2.8129273096225273

>  <meeko>  (10) 
{"free_energy": -8.87, "intermolecular_energy": -10.96, "internal_energy": -2.42, "cluster_size": 30, "cluster_id": 1, "rank_in_cluster": 13}

>  <energy>  (10) 
-8.96

>  <cluster_rmsd>  (10) 
1.31

>  <cluster>  (10) 
1

$$$$

     RDKit          3D

 58 61  0  0  0  0  0  0  0  0999 V2000
  138.2640   80.3200  223.0890 C   0  0  0  0  0  0  0  0  0  0  0  0
  139.2280   79.1830  223.3260 C   0  0  1  0  0  0  0  0  0  0  0  0
  139.1000   78.1490  222.3300 N   0  0  0  0  0  0  0  0  0  0  0  0
  139.2350   78.4050  220.9290 C   0  0  0  0  0  0  0  0  0  0  0  0
  139.4740   79.5750  220.5280 O   0  0  0  0  0  0  0  0  0  0  0  0
  139.0790   77.2510  220.0200 C   0  0  1  0  0  0  0  0  0  0  0  0
  139.4300   77.5600  218.5980 C   0  0  0  0  0  0  0  0  0  0  0  0
  140.9060   77.2500  218.4810 C   0  0  0  0  0  0  0  0  0  0  0  0
  141.0810   76.1000  219.4260 C   0  0  0  0  0  0  0  0  0  0  0  0
  139.9390   76.1500  220.3420 N   0  0  0  0  0  0  0  0  0  0  0  0
  139.7830   75.1960  221.3860 C   0  0  0  0  0  0  0  0  0  0  0  0
  139.9860   75.6380  222.5660 O   0  0  0  0  0  0  0  0  0  0  0  0
  139.4110   73.7890  221.1340 C   0  0  0  0  0  0  0  0  0  0  0  0
  139.5320   73.0550  222.3820 N   0  0  0  0  0  0  0  0  0  0  0  0
  139.5880   71.6290  222.3520 C   0  0  0  0  0  0  0  0  0  0  0  0
  139.5340   70.9950  221.2490 O   0  0  0  0  0  0  0  0  0  0  0  0
  139.7090   70.9040  223.6150 C   0  0  0  0  0  0  0  0  0  0  0  0
  139.2970   69.5760  223.6700 C   0  0  0  0  0  0  0  0  0  0  0  0
  139.4120   68.8910  224.8650 C   0  0  0  0  0  0  0  0  0  0  0  0
  139.9260   69.4980  226.0010 C   0  0  0  0  0  0  0  0  0  0  0  0
  140.0560   68.8500  227.2040 C   0  0  0  0  0  0  0  0  0  0  0  0
  140.5690   69.4510  228.3410 C   0  0  0  0  0  0  0  0  0  0  0  0
  140.9650   70.7860  228.2170 C   0  0  0  0  0  0  0  0  0  0  0  0
  140.8400   71.4480  227.0120 C   0  0  0  0  0  0  0  0  0  0  0  0
  140.3230   70.8190  225.8970 C   0  0  0  0  0  0  0  0  0  0  0  0
  140.2180   71.5090  224.7280 N   0  0  0  0  0  0  0  0  0  0  0  0
  140.5910   79.7310  223.4020 C   0  0  0  0  0  0  0  0  0  0  0  0
  141.6320   78.9050  222.9810 C   0  0  0  0  0  0  0  0  0  0  0  0
  142.9230   79.3590  223.0280 C   0  0  0  0  0  0  0  0  0  0  0  0
  143.2710   80.6160  223.4760 C   0  0  0  0  0  0  0  0  0  0  0  0
  142.2200   81.4370  223.8950 C   0  0  0  0  0  0  0  0  0  0  0  0
  140.9010   80.9930  223.8550 C   0  0  0  0  0  0  0  0  0  0  0  0
  137.9245   80.7204  224.0557 H   0  0  0  0  0  0  0  0  0  0  0  0
  138.7675   81.1149  222.5193 H   0  0  0  0  0  0  0  0  0  0  0  0
  137.3974   79.9533  222.5193 H   0  0  0  0  0  0  0  0  0  0  0  0
  138.9891   78.6930  224.2814 H   0  0  0  0  0  0  0  0  0  0  0  0
  138.8990   77.1650  222.6670 H   0  0  0  0  0  0  0  0  0  0  0  0
  138.0147   77.0023  220.1446 H   0  0  0  0  0  0  0  0  0  0  0  0
  138.8471   76.9295  217.9105 H   0  0  0  0  0  0  0  0  0  0  0  0
  139.2058   78.6044  218.3354 H   0  0  0  0  0  0  0  0  0  0  0  0
  141.1697   76.9613  217.4528 H   0  0  0  0  0  0  0  0  0  0  0  0
  141.5510   78.1092  218.7173 H   0  0  0  0  0  0  0  0  0  0  0  0
  141.0858   75.1489  218.8733 H   0  0  0  0  0  0  0  0  0  0  0  0
  142.0352   76.1675  219.9691 H   0  0  0  0  0  0  0  0  0  0  0  0
  138.3738   73.7377  220.7713 H   0  0  0  0  0  0  0  0  0  0  0  0
  140.0730   73.3525  220.3717 H   0  0  0  0  0  0  0  0  0  0  0  0
  139.5780   73.5470  223.2930 H   0  0  0  0  0  0  0  0  0  0  0  0
  138.8869   69.0800  222.7779 H   0  0  0  0  0  0  0  0  0  0  0  0
  139.0886   67.8409  224.9161 H   0  0  0  0  0  0  0  0  0  0  0  0
  139.7363   67.7994  227.2681 H   0  0  0  0  0  0  0  0  0  0  0  0
  140.6602   68.9064  229.2924 H   0  0  0  0  0  0  0  0  0  0  0  0
  141.3802   71.3141  229.0880 H   0  0  0  0  0  0  0  0  0  0  0  0
  141.1589   72.4982  226.9387 H   0  0  0  0  0  0  0  0  0  0  0  0
  141.4170   77.8913  222.6121 H   0  0  0  0  0  0  0  0  0  0  0  0
  143.7247   78.6856  222.6907 H   0  0  0  0  0  0  0  0  0  0  0  0
  144.3175   80.9538  223.5022 H   0  0  0  0  0  0  0  0  0  0  0  0
  142.4387   82.4505  224.2624 H   0  0  0  0  0  0  0  0  0  0  0  0
  140.0943   81.6612  224.1906 H   0  0  0  0  0  0  0  0  0  0  0  0
  1  2  1  0
  2  3  1  0
  3  4  1  0
  4  5  2  0
  4  6  1  0
  6  7  1  0
  7  8  1  0
  8  9  1  0
  9 10  1  0
 10 11  1  0
 11 12  2  0
 11 13  1  0
 13 14  1  0
 14 15  1  0
 15 16  2  0
 15 17  1  0
 17 18  2  0
 18 19  1  0
 19 20  2  0
 20 21  1  0
 21 22  2  0
 22 23  1  0
 23 24  2  0
 24 25  1  0
 25 26  2  0
  2 27  1  0
 27 28  2  0
 28 29  1  0
 29 30  2  0
 30 31  1  0
 31 32  2  0
 10  6  1  0
 26 17  1  0
 32 27  1  0
 25 20  1  0
  1 33  1  0
  1 34  1  0
  1 35  1  0
  2 36  1  1
  3 37  1  0
  6 38  1  6
  7 39  1  0
  7 40  1  0
  8 41  1  0
  8 42  1  0
  9 43  1  0
  9 44  1  0
 13 45  1  0
 13 46  1  0
 14 47  1  0
 18 48  1  0
 19 49  1  0
 21 50  1  0
 22 51  1  0
 23 52  1  0
 24 53  1  0
 28 54  1  0
 29 55  1  0
 30 56  1  0
 31 57  1  0
 32 58  1  0
M  END
>  <smiles>  (11) 
C[C@@H](NC(=O)[C@H]1CCCN1C(=O)CNC(=O)c1ccc2ccccc2n1)c1ccccc1

>  <score_type>  (11) 
oracle

>  <origin>  (11) 
autodockgpu

>  <m_score__min__energy>  (11) 
-9.4199999999999999

>  <m_primary>  (11) 
energy

>  <rmsd>  (11) 
2.802955074258884

>  <m_score__min__rmsd>  (11) 
2.802955074258884

>  <meeko>  (11) 
{"free_energy": -8.73, "intermolecular_energy": -10.81, "internal_energy": -3.21, "cluster_size": 30, "cluster_id": 1, "rank_in_cluster": 19}

>  <energy>  (11) 
-8.89

>  <cluster_rmsd>  (11) 
1.43

>  <cluster>  (11) 
1

$$$$

     RDKit          3D

 58 61  0  0  0  0  0  0  0  0999 V2000
  139.1470   77.4200  222.5090 C   0  0  0  0  0  0  0  0  0  0  0  0
  140.6360   77.2970  222.7190 C   0  0  1  0  0  0  0  0  0  0  0  0
  141.2690   76.5360  221.6710 N   0  0  0  0  0  0  0  0  0  0  0  0
  141.1400   76.8710  220.2860 C   0  0  0  0  0  0  0  0  0  0  0  0
  140.4480   77.8670  219.9470 O   0  0  0  0  0  0  0  0  0  0  0  0
  141.8430   76.0030  219.3190 C   0  0  1  0  0  0  0  0  0  0  0  0
  143.3320   76.0140  219.4810 C   0  0  0  0  0  0  0  0  0  0  0  0
  143.6280   74.8960  220.4560 C   0  0  0  0  0  0  0  0  0  0  0  0
  142.5690   73.8840  220.1370 C   0  0  0  0  0  0  0  0  0  0  0  0
  141.5050   74.6160  219.4450 N   0  0  0  0  0  0  0  0  0  0  0  0
  140.3260   73.9600  218.9930 C   0  0  0  0  0  0  0  0  0  0  0  0
  140.4310   73.3590  217.8710 O   0  0  0  0  0  0  0  0  0  0  0  0
  139.0630   73.9660  219.7580 C   0  0  0  0  0  0  0  0  0  0  0  0
  139.1100   72.8840  220.7260 N   0  0  0  0  0  0  0  0  0  0  0  0
  139.7700   73.0890  221.9740 C   0  0  0  0  0  0  0  0  0  0  0  0
  140.3170   74.2060  222.2490 O   0  0  0  0  0  0  0  0  0  0  0  0
  139.8090   71.9910  222.9380 C   0  0  0  0  0  0  0  0  0  0  0  0
  139.2550   70.7650  222.5840 C   0  0  0  0  0  0  0  0  0  0  0  0
  139.2930   69.7270  223.4960 C   0  0  0  0  0  0  0  0  0  0  0  0
  139.8680   69.8850  224.7480 C   0  0  0  0  0  0  0  0  0  0  0  0
  139.9240   68.8770  225.6790 C   0  0  0  0  0  0  0  0  0  0  0  0
  140.4970   69.0290  226.9300 C   0  0  0  0  0  0  0  0  0  0  0  0
  141.0370   70.2850  227.2220 C   0  0  0  0  0  0  0  0  0  0  0  0
  140.9860   71.3050  226.2930 C   0  0  0  0  0  0  0  0  0  0  0  0
  140.4060   71.1210  225.0540 C   0  0  0  0  0  0  0  0  0  0  0  0
  140.3790   72.1540  224.1680 N   0  0  0  0  0  0  0  0  0  0  0  0
  141.2040   78.6480  222.8600 C   0  0  0  0  0  0  0  0  0  0  0  0
  140.3900   79.6220  223.4350 C   0  0  0  0  0  0  0  0  0  0  0  0
  140.8620   80.8970  223.5920 C   0  0  0  0  0  0  0  0  0  0  0  0
  142.1250   81.2920  223.2080 C   0  0  0  0  0  0  0  0  0  0  0  0
  142.9330   80.3090  222.6330 C   0  0  0  0  0  0  0  0  0  0  0  0
  142.4720   79.0060  222.4640 C   0  0  0  0  0  0  0  0  0  0  0  0
  138.6413   77.4618  223.4850 H   0  0  0  0  0  0  0  0  0  0  0  0
  138.9310   78.3390  221.9445 H   0  0  0  0  0  0  0  0  0  0  0  0
  138.7831   76.5489  221.9445 H   0  0  0  0  0  0  0  0  0  0  0  0
  140.8302   76.7320  223.6426 H   0  0  0  0  0  0  0  0  0  0  0  0
  141.8510   75.6980  221.9560 H   0  0  0  0  0  0  0  0  0  0  0  0
  141.5230   76.4256  218.3552 H   0  0  0  0  0  0  0  0  0  0  0  0
  143.8272   75.8272  218.5167 H   0  0  0  0  0  0  0  0  0  0  0  0
  143.7012   76.9854  219.8417 H   0  0  0  0  0  0  0  0  0  0  0  0
  144.6336   74.4822  220.2901 H   0  0  0  0  0  0  0  0  0  0  0  0
  143.6154   75.2214  221.5067 H   0  0  0  0  0  0  0  0  0  0  0  0
  142.9767   73.0966  219.4861 H   0  0  0  0  0  0  0  0  0  0  0  0
  142.1938   73.3934  221.0472 H   0  0  0  0  0  0  0  0  0  0  0  0
  138.9492   74.9274  220.2802 H   0  0  0  0  0  0  0  0  0  0  0  0
  138.2084   73.8297  219.0790 H   0  0  0  0  0  0  0  0  0  0  0  0
  138.6720   71.9650  220.5260 H   0  0  0  0  0  0  0  0  0  0  0  0
  138.7945   70.6240  221.5950 H   0  0  0  0  0  0  0  0  0  0  0  0
  138.8577   68.7545  223.2227 H   0  0  0  0  0  0  0  0  0  0  0  0
  139.4919   67.8998  225.4176 H   0  0  0  0  0  0  0  0  0  0  0  0
  140.5259   68.2039  227.6569 H   0  0  0  0  0  0  0  0  0  0  0  0
  141.5068   70.4622  228.2007 H   0  0  0  0  0  0  0  0  0  0  0  0
  141.4167   72.2852  226.5455 H   0  0  0  0  0  0  0  0  0  0  0  0
  139.3711   79.3668  223.7617 H   0  0  0  0  0  0  0  0  0  0  0  0
  140.1982   81.6458  224.0488 H   0  0  0  0  0  0  0  0  0  0  0  0
  142.4773   82.3248  223.3468 H   0  0  0  0  0  0  0  0  0  0  0  0
  143.9513   80.5685  222.3079 H   0  0  0  0  0  0  0  0  0  0  0  0
  143.1307   78.2525  222.0076 H   0  0  0  0  0  0  0  0  0  0  0  0
  1  2  1  0
  2  3  1  0
  3  4  1  0
  4  5  2  0
  4  6  1  0
  6  7  1  0
  7  8  1  0
  8  9  1  0
  9 10  1  0
 10 11  1  0
 11 12  2  0
 11 13  1  0
 13 14  1  0
 14 15  1  0
 15 16  2  0
 15 17  1  0
 17 18  2  0
 18 19  1  0
 19 20  2  0
 20 21  1  0
 21 22  2  0
 22 23  1  0
 23 24  2  0
 24 25  1  0
 25 26  2  0
  2 27  1  0
 27 28  2  0
 28 29  1  0
 29 30  2  0
 30 31  1  0
 31 32  2  0
 10  6  1  0
 26 17  1  0
 32 27  1  0
 25 20  1  0
  1 33  1  0
  1 34  1  0
  1 35  1  0
  2 36  1  1
  3 37  1  0
  6 38  1  6
  7 39  1  0
  7 40  1  0
  8 41  1  0
  8 42  1  0
  9 43  1  0
  9 44  1  0
 13 45  1  0
 13 46  1  0
 14 47  1  0
 18 48  1  0
 19 49  1  0
 21 50  1  0
 22 51  1  0
 23 52  1  0
 24 53  1  0
 28 54  1  0
 29 55  1  0
 30 56  1  0
 31 57  1  0
 32 58  1  0
M  END
>  <smiles>  (12) 
C[C@@H](NC(=O)[C@H]1CCCN1C(=O)CNC(=O)c1ccc2ccccc2n1)c1ccccc1

>  <score_type>  (12) 
oracle

>  <origin>  (12) 
autodockgpu

>  <m_score__min__energy>  (12) 
-9.4199999999999999

>  <m_primary>  (12) 
energy

>  <rmsd>  (12) 
2.9835669348908165

>  <m_score__min__rmsd>  (12) 
2.9835669348908165

>  <meeko>  (12) 
{"free_energy": -8.67, "intermolecular_energy": -10.75, "internal_energy": -2.91, "cluster_size": 30, "cluster_id": 1, "rank_in_cluster": 23}

>  <energy>  (12) 
-8.89

>  <cluster_rmsd>  (12) 
1.57

>  <cluster>  (12) 
1

$$$$

     RDKit          3D

 58 61  0  0  0  0  0  0  0  0999 V2000
  137.9290   69.6200  225.1040 C   0  0  0  0  0  0  0  0  0  0  0  0
  139.3950   69.8110  224.8030 C   0  0  1  0  0  0  0  0  0  0  0  0
  139.6060   70.4870  223.5480 N   0  0  0  0  0  0  0  0  0  0  0  0
  139.5770   69.8080  222.2900 C   0  0  0  0  0  0  0  0  0  0  0  0
  139.3610   68.5680  222.2540 O   0  0  0  0  0  0  0  0  0  0  0  0
  139.8100   70.6280  221.0820 C   0  0  1  0  0  0  0  0  0  0  0  0
  139.4310   69.9350  219.8100 C   0  0  0  0  0  0  0  0  0  0  0  0
  137.9810   70.2980  219.5810 C   0  0  0  0  0  0  0  0  0  0  0  0
  137.8920   71.6870  220.1400 C   0  0  0  0  0  0  0  0  0  0  0  0
  139.0320   71.8310  221.0490 N   0  0  0  0  0  0  0  0  0  0  0  0
  139.2600   73.0380  221.7660 C   0  0  0  0  0  0  0  0  0  0  0  0
  140.3800   73.1090  222.3760 O   0  0  0  0  0  0  0  0  0  0  0  0
  138.2800   74.1420  221.8080 C   0  0  0  0  0  0  0  0  0  0  0  0
  138.9780   75.3600  222.1830 N   0  0  0  0  0  0  0  0  0  0  0  0
  138.2390   76.5700  222.3430 C   0  0  0  0  0  0  0  0  0  0  0  0
  136.9780   76.5950  222.1620 O   0  0  0  0  0  0  0  0  0  0  0  0
  138.9540   77.7870  222.7200 C   0  0  0  0  0  0  0  0  0  0  0  0
  138.2220   78.9080  223.0960 C   0  0  0  0  0  0  0  0  0  0  0  0
  138.9000   80.0590  223.4520 C   0  0  0  0  0  0  0  0  0  0  0  0
  140.2860   80.1150  223.4420 C   0  0  0  0  0  0  0  0  0  0  0  0
  140.9930   81.2390  223.7890 C   0  0  0  0  0  0  0  0  0  0  0  0
  142.3750   81.3010  223.7800 C   0  0  0  0  0  0  0  0  0  0  0  0
  143.0500   80.1400  223.3940 C   0  0  0  0  0  0  0  0  0  0  0  0
  142.3490   79.0030  223.0420 C   0  0  0  0  0  0  0  0  0  0  0  0
  140.9700   78.9750  223.0610 C   0  0  0  0  0  0  0  0  0  0  0  0
  140.3180   77.8330  222.7070 N   0  0  0  0  0  0  0  0  0  0  0  0
  140.0190   70.5130  225.9370 C   0  0  0  0  0  0  0  0  0  0  0  0
  139.7500   70.0220  227.2130 C   0  0  0  0  0  0  0  0  0  0  0  0
  140.3020   70.6340  228.3070 C   0  0  0  0  0  0  0  0  0  0  0  0
  141.1290   71.7330  228.2260 C   0  0  0  0  0  0  0  0  0  0  0  0
  141.3930   72.2170  226.9420 C   0  0  0  0  0  0  0  0  0  0  0  0
  140.8420   71.6090  225.8180 C   0  0  0  0  0  0  0  0  0  0  0  0
  137.7779   69.6003  226.1934 H   0  0  0  0  0  0  0  0  0  0  0  0
  137.3541   70.4508  224.6690 H   0  0  0  0  0  0  0  0  0  0  0  0
  137.5862   68.6696  224.6690 H   0  0  0  0  0  0  0  0  0  0  0  0
  139.8762   68.8290  224.6846 H   0  0  0  0  0  0  0  0  0  0  0  0
  139.7880   71.5310  223.5780 H   0  0  0  0  0  0  0  0  0  0  0  0
  140.8896   70.8295  221.1449 H   0  0  0  0  0  0  0  0  0  0  0  0
  140.0544   70.2901  218.9762 H   0  0  0  0  0  0  0  0  0  0  0  0
  139.5785   68.8468  219.8736 H   0  0  0  0  0  0  0  0  0  0  0  0
  137.7344   70.2861  218.5091 H   0  0  0  0  0  0  0  0  0  0  0  0
  137.2774   69.5946  220.0502 H   0  0  0  0  0  0  0  0  0  0  0  0
  137.9527   72.4293  219.3305 H   0  0  0  0  0  0  0  0  0  0  0  0
  136.9377   71.8505  220.6620 H   0  0  0  0  0  0  0  0  0  0  0  0
  137.8192   74.2678  220.8171 H   0  0  0  0  0  0  0  0  0  0  0  0
  137.4896   73.9185  222.5396 H   0  0  0  0  0  0  0  0  0  0  0  0
  140.0040   75.3660  222.3360 H   0  0  0  0  0  0  0  0  0  0  0  0
  137.1225   78.8794  223.1099 H   0  0  0  0  0  0  0  0  0  0  0  0
  138.3278   80.9500  223.7497 H   0  0  0  0  0  0  0  0  0  0  0  0
  140.4322   82.1363  224.0896 H   0  0  0  0  0  0  0  0  0  0  0  0
  142.9147   82.2170  224.0622 H   0  0  0  0  0  0  0  0  0  0  0  0
  144.1497   80.1314  223.3702 H   0  0  0  0  0  0  0  0  0  0  0  0
  142.9019   78.1012  222.7403 H   0  0  0  0  0  0  0  0  0  0  0  0
  139.0968   69.1463  227.3412 H   0  0  0  0  0  0  0  0  0  0  0  0
  140.0730   70.2266  229.3028 H   0  0  0  0  0  0  0  0  0  0  0  0
  141.5579   72.2036  229.1229 H   0  0  0  0  0  0  0  0  0  0  0  0
  142.0469   73.0927  226.8177 H   0  0  0  0  0  0  0  0  0  0  0  0
  141.0679   72.0108  224.8192 H   0  0  0  0  0  0  0  0  0  0  0  0
  1  2  1  0
  2  3  1  0
  3  4  1  0
  4  5  2  0
  4  6  1  0
  6  7  1  0
  7  8  1  0
  8  9  1  0
  9 10  1  0
 10 11  1  0
 11 12  2  0
 11 13  1  0
 13 14  1  0
 14 15  1  0
 15 16  2  0
 15 17  1  0
 17 18  2  0
 18 19  1  0
 19 20  2  0
 20 21  1  0
 21 22  2  0
 22 23  1  0
 23 24  2  0
 24 25  1  0
 25 26  2  0
  2 27  1  0
 27 28  2  0
 28 29  1  0
 29 30  2  0
 30 31  1  0
 31 32  2  0
 10  6  1  0
 26 17  1  0
 32 27  1  0
 25 20  1  0
  1 33  1  0
  1 34  1  0
  1 35  1  0
  2 36  1  6
  3 37  1  0
  6 38  1  6
  7 39  1  0
  7 40  1  0
  8 41  1  0
  8 42  1  0
  9 43  1  0
  9 44  1  0
 13 45  1  0
 13 46  1  0
 14 47  1  0
 18 48  1  0
 19 49  1  0
 21 50  1  0
 22 51  1  0
 23 52  1  0
 24 53  1  0
 28 54  1  0
 29 55  1  0
 30 56  1  0
 31 57  1  0
 32 58  1  0
M  END
>  <smiles>  (13) 
C[C@@H](NC(=O)[C@H]1CCCN1C(=O)CNC(=O)c1ccc2ccccc2n1)c1ccccc1

>  <score_type>  (13) 
oracle

>  <origin>  (13) 
autodockgpu

>  <m_score__min__energy>  (13) 
-9.4199999999999999

>  <m_primary>  (13) 
energy

>  <rmsd>  (13) 
9.283110672507153

>  <m_score__min__rmsd>  (13) 
9.283110672507153

>  <meeko>  (13) 
{"free_energy": -8.49, "intermolecular_energy": -10.57, "internal_energy": -3.1, "cluster_size": 8, "cluster_id": 3, "rank_in_cluster": 6}

>  <energy>  (13) 
-8.87

>  <cluster_rmsd>  (13) 
1.73

>  <cluster>  (13) 
1

$$$$

     RDKit          3D

 58 61  0  0  0  0  0  0  0  0999 V2000
  139.2920   77.7180  221.6220 C   0  0  0  0  0  0  0  0  0  0  0  0
  140.5640   77.4290  222.3800 C   0  0  1  0  0  0  0  0  0  0  0  0
  141.4440   76.5550  221.6460 N   0  0  0  0  0  0  0  0  0  0  0  0
  141.2210   75.1470  221.5360 C   0  0  0  0  0  0  0  0  0  0  0  0
  140.2210   74.6280  222.0980 O   0  0  0  0  0  0  0  0  0  0  0  0
  142.2060   74.3720  220.7520 C   0  0  1  0  0  0  0  0  0  0  0  0
  141.7590   72.9760  220.4470 C   0  0  0  0  0  0  0  0  0  0  0  0
  141.0270   73.0770  219.1280 C   0  0  0  0  0  0  0  0  0  0  0  0
  141.7680   74.1700  218.4170 C   0  0  0  0  0  0  0  0  0  0  0  0
  142.4680   74.9270  219.4570 N   0  0  0  0  0  0  0  0  0  0  0  0
  143.2780   76.0520  219.1370 C   0  0  0  0  0  0  0  0  0  0  0  0
  144.0220   76.4780  220.0830 O   0  0  0  0  0  0  0  0  0  0  0  0
  143.2690   76.6920  217.8060 C   0  0  0  0  0  0  0  0  0  0  0  0
  143.0330   78.1140  217.9840 N   0  0  0  0  0  0  0  0  0  0  0  0
  141.9490   78.5460  218.8050 C   0  0  0  0  0  0  0  0  0  0  0  0
  141.1880   77.7030  219.3820 O   0  0  0  0  0  0  0  0  0  0  0  0
  141.7230   79.9800  218.9750 C   0  0  0  0  0  0  0  0  0  0  0  0
  142.3560   80.8680  218.1110 C   0  0  0  0  0  0  0  0  0  0  0  0
  142.1420   82.2230  218.2720 C   0  0  0  0  0  0  0  0  0  0  0  0
  141.3150   82.7110  219.2730 C   0  0  0  0  0  0  0  0  0  0  0  0
  141.0790   84.0500  219.4640 C   0  0  0  0  0  0  0  0  0  0  0  0
  140.2550   84.5430  220.4610 C   0  0  0  0  0  0  0  0  0  0  0  0
  139.6490   83.5980  221.2940 C   0  0  0  0  0  0  0  0  0  0  0  0
  139.8790   82.2490  221.1110 C   0  0  0  0  0  0  0  0  0  0  0  0
  140.7080   81.7910  220.1070 C   0  0  0  0  0  0  0  0  0  0  0  0
  140.9070   80.4520  219.9620 N   0  0  0  0  0  0  0  0  0  0  0  0
  141.2010   78.7080  222.7330 C   0  0  0  0  0  0  0  0  0  0  0  0
  140.4430   79.6120  223.4750 C   0  0  0  0  0  0  0  0  0  0  0  0
  140.9810   80.8180  223.8340 C   0  0  0  0  0  0  0  0  0  0  0  0
  142.2600   81.2100  223.4990 C   0  0  0  0  0  0  0  0  0  0  0  0
  143.0120   80.2960  222.7560 C   0  0  0  0  0  0  0  0  0  0  0  0
  142.4820   79.0650  222.3820 C   0  0  0  0  0  0  0  0  0  0  0  0
  138.4747   77.9037  222.3344 H   0  0  0  0  0  0  0  0  0  0  0  0
  139.4359   78.6063  220.9894 H   0  0  0  0  0  0  0  0  0  0  0  0
  139.0379   76.8547  220.9894 H   0  0  0  0  0  0  0  0  0  0  0  0
  140.3239   76.8847  223.3052 H   0  0  0  0  0  0  0  0  0  0  0  0
  142.2860   76.9920  221.1730 H   0  0  0  0  0  0  0  0  0  0  0  0
  143.0909   74.3956  221.4050 H   0  0  0  0  0  0  0  0  0  0  0  0
  142.6252   72.3039  220.3576 H   0  0  0  0  0  0  0  0  0  0  0  0
  141.1206   72.5642  221.2426 H   0  0  0  0  0  0  0  0  0  0  0  0
  141.0852   72.1311  218.5695 H   0  0  0  0  0  0  0  0  0  0  0  0
  139.9525   73.2832  219.2419 H   0  0  0  0  0  0  0  0  0  0  0  0
  142.4892   73.7422  217.7050 H   0  0  0  0  0  0  0  0  0  0  0  0
  141.0842   74.8124  217.8428 H   0  0  0  0  0  0  0  0  0  0  0  0
  144.2390   76.5352  217.3116 H   0  0  0  0  0  0  0  0  0  0  0  0
  142.4783   76.2526  217.1801 H   0  0  0  0  0  0  0  0  0  0  0  0
  143.6380   78.8210  217.5260 H   0  0  0  0  0  0  0  0  0  0  0  0
  143.0159   80.4971  217.3129 H   0  0  0  0  0  0  0  0  0  0  0  0
  142.6382   82.9306  217.5915 H   0  0  0  0  0  0  0  0  0  0  0  0
  141.5698   84.7677  218.7903 H   0  0  0  0  0  0  0  0  0  0  0  0
  140.0859   85.6221  220.5910 H   0  0  0  0  0  0  0  0  0  0  0  0
  138.9827   83.9323  222.1029 H   0  0  0  0  0  0  0  0  0  0  0  0
  139.3914   81.5241  221.7793 H   0  0  0  0  0  0  0  0  0  0  0  0
  139.4149   79.3568  223.7713 H   0  0  0  0  0  0  0  0  0  0  0  0
  140.3605   81.5113  224.4208 H   0  0  0  0  0  0  0  0  0  0  0  0
  142.6655   82.1873  223.7997 H   0  0  0  0  0  0  0  0  0  0  0  0
  144.0401   80.5540  222.4619 H   0  0  0  0  0  0  0  0  0  0  0  0
  143.0973   78.3662  221.7963 H   0  0  0  0  0  0  0  0  0  0  0  0
  1  2  1  0
  2  3  1  0
  3  4  1  0
  4  5  2  0
  4  6  1  0
  6  7  1  0
  7  8  1  0
  8  9  1  0
  9 10  1  0
 10 11  1  0
 11 12  2  0
 11 13  1  0
 13 14  1  0
 14 15  1  0
 15 16  2  0
 15 17  1  0
 17 18  2  0
 18 19  1  0
 19 20  2  0
 20 21  1  0
 21 22  2  0
 22 23  1  0
 23 24  2  0
 24 25  1  0
 25 26  2  0
  2 27  1  0
 27 28  2  0
 28 29  1  0
 29 30  2  0
 30 31  1  0
 31 32  2  0
 10  6  1  0
 26 17  1  0
 32 27  1  0
 25 20  1  0
  1 33  1  0
  1 34  1  0
  1 35  1  0
  2 36  1  1
  3 37  1  0
  6 38  1  1
  7 39  1  0
  7 40  1  0
  8 41  1  0
  8 42  1  0
  9 43  1  0
  9 44  1  0
 13 45  1  0
 13 46  1  0
 14 47  1  0
 18 48  1  0
 19 49  1  0
 21 50  1  0
 22 51  1  0
 23 52  1  0
 24 53  1  0
 28 54  1  0
 29 55  1  0
 30 56  1  0
 31 57  1  0
 32 58  1  0
M  END
>  <smiles>  (14) 
C[C@@H](NC(=O)[C@H]1CCCN1C(=O)CNC(=O)c1ccc2ccccc2n1)c1ccccc1

>  <score_type>  (14) 
oracle

>  <origin>  (14) 
autodockgpu

>  <m_score__min__energy>  (14) 
-9.4199999999999999

>  <m_primary>  (14) 
energy

>  <rmsd>  (14) 
8.623986178119397

>  <m_score__min__rmsd>  (14) 
8.623986178119397

>  <meeko>  (14) 
{"free_energy": -7.45, "intermolecular_energy": -9.54, "internal_energy": -4.47, "cluster_size": 9, "cluster_id": 6, "rank_in_cluster": 9}

>  <energy>  (14) 
-8.84

>  <cluster_rmsd>  (14) 
0.73

>  <cluster>  (14) 
1

$$$$

     RDKit          3D

 58 61  0  0  0  0  0  0  0  0999 V2000
  139.0850   77.2840  222.5100 C   0  0  0  0  0  0  0  0  0  0  0  0
  140.5790   77.2570  222.7160 C   0  0  1  0  0  0  0  0  0  0  0  0
  141.2620   76.5870  221.6380 N   0  0  0  0  0  0  0  0  0  0  0  0
  140.8740   76.7320  220.2690 C   0  0  0  0  0  0  0  0  0  0  0  0
  139.8980   77.4690  219.9710 O   0  0  0  0  0  0  0  0  0  0  0  0
  141.6640   75.9860  219.2670 C   0  0  1  0  0  0  0  0  0  0  0  0
  142.8900   76.7150  218.8110 C   0  0  0  0  0  0  0  0  0  0  0  0
  143.9820   76.2790  219.7620 C   0  0  0  0  0  0  0  0  0  0  0  0
  143.6050   74.8630  220.0780 C   0  0  0  0  0  0  0  0  0  0  0  0
  142.1810   74.7420  219.7580 N   0  0  0  0  0  0  0  0  0  0  0  0
  141.4810   73.5170  219.9410 C   0  0  0  0  0  0  0  0  0  0  0  0
  142.0360   72.4880  219.4270 O   0  0  0  0  0  0  0  0  0  0  0  0
  140.2020   73.4280  220.6730 C   0  0  0  0  0  0  0  0  0  0  0  0
  140.4290   72.6870  221.9020 N   0  0  0  0  0  0  0  0  0  0  0  0
  139.3400   71.9990  222.5160 C   0  0  0  0  0  0  0  0  0  0  0  0
  138.1750   72.0260  222.0010 O   0  0  0  0  0  0  0  0  0  0  0  0
  139.5840   71.2580  223.7520 C   0  0  0  0  0  0  0  0  0  0  0  0
  139.2290   69.9140  223.8110 C   0  0  0  0  0  0  0  0  0  0  0  0
  139.4600   69.2140  224.9800 C   0  0  0  0  0  0  0  0  0  0  0  0
  140.0330   69.8220  226.0860 C   0  0  0  0  0  0  0  0  0  0  0  0
  140.2780   69.1600  227.2630 C   0  0  0  0  0  0  0  0  0  0  0  0
  140.8490   69.7620  228.3710 C   0  0  0  0  0  0  0  0  0  0  0  0
  141.1820   71.1140  228.2450 C   0  0  0  0  0  0  0  0  0  0  0  0
  140.9410   71.7900  227.0660 C   0  0  0  0  0  0  0  0  0  0  0  0
  140.3690   71.1600  225.9800 C   0  0  0  0  0  0  0  0  0  0  0  0
  140.1490   71.8640  224.8360 N   0  0  0  0  0  0  0  0  0  0  0  0
  141.0510   78.6370  222.9140 C   0  0  0  0  0  0  0  0  0  0  0  0
  140.1200   79.5660  223.3760 C   0  0  0  0  0  0  0  0  0  0  0  0
  140.4990   80.8660  223.5790 C   0  0  0  0  0  0  0  0  0  0  0  0
  141.7770   81.3290  223.3510 C   0  0  0  0  0  0  0  0  0  0  0  0
  142.7030   80.3900  222.8880 C   0  0  0  0  0  0  0  0  0  0  0  0
  142.3370   79.0640  222.6760 C   0  0  0  0  0  0  0  0  0  0  0  0
  138.5802   77.2931  223.4873 H   0  0  0  0  0  0  0  0  0  0  0  0
  138.8089   78.1873  221.9462 H   0  0  0  0  0  0  0  0  0  0  0  0
  138.7764   76.3913  221.9462 H   0  0  0  0  0  0  0  0  0  0  0  0
  140.8139   76.6687  223.6153 H   0  0  0  0  0  0  0  0  0  0  0  0
  142.0840   75.9660  221.8880 H   0  0  0  0  0  0  0  0  0  0  0  0
  140.9338   75.8457  218.4564 H   0  0  0  0  0  0  0  0  0  0  0  0
  143.1435   76.4362  217.7776 H   0  0  0  0  0  0  0  0  0  0  0  0
  142.7481   77.8058  218.8175 H   0  0  0  0  0  0  0  0  0  0  0  0
  144.9694   76.3274  219.2797 H   0  0  0  0  0  0  0  0  0  0  0  0
  144.0611   76.9170  220.6545 H   0  0  0  0  0  0  0  0  0  0  0  0
  144.1948   74.1650  219.4657 H   0  0  0  0  0  0  0  0  0  0  0  0
  143.8025   74.6198  221.1324 H   0  0  0  0  0  0  0  0  0  0  0  0
  139.8383   74.4387  220.9101 H   0  0  0  0  0  0  0  0  0  0  0  0
  139.4479   72.9168  220.0566 H   0  0  0  0  0  0  0  0  0  0  0  0
  141.3680   72.6490  222.3410 H   0  0  0  0  0  0  0  0  0  0  0  0
  138.7724   69.4172  222.9423 H   0  0  0  0  0  0  0  0  0  0  0  0
  139.1830   68.1508  225.0339 H   0  0  0  0  0  0  0  0  0  0  0  0
  140.0066   68.0961  227.3293 H   0  0  0  0  0  0  0  0  0  0  0  0
  141.0313   69.2056  229.3022 H   0  0  0  0  0  0  0  0  0  0  0  0
  141.6402   71.6438  229.0931 H   0  0  0  0  0  0  0  0  0  0  0  0
  141.2107   72.8538  226.9906 H   0  0  0  0  0  0  0  0  0  0  0  0
  139.0840   79.2556  223.5769 H   0  0  0  0  0  0  0  0  0  0  0  0
  139.7439   81.5782  223.9431 H   0  0  0  0  0  0  0  0  0  0  0  0
  142.0530   82.3797  223.5239 H   0  0  0  0  0  0  0  0  0  0  0  0
  143.7380   80.7041  222.6879 H   0  0  0  0  0  0  0  0  0  0  0  0
  143.0874   78.3465  222.3126 H   0  0  0  0  0  0  0  0  0  0  0  0
  1  2  1  0
  2  3  1  0
  3  4  1  0
  4  5  2  0
  4  6  1  0
  6  7  1  0
  7  8  1  0
  8  9  1  0
  9 10  1  0
 10 11  1  0
 11 12  2  0
 11 13  1  0
 13 14  1  0
 14 15  1  0
 15 16  2  0
 15 17  1  0
 17 18  2  0
 18 19  1  0
 19 20  2  0
 20 21  1  0
 21 22  2  0
 22 23  1  0
 23 24  2  0
 24 25  1  0
 25 26  2  0
  2 27  1  0
 27 28  2  0
 28 29  1  0
 29 30  2  0
 30 31  1  0
 31 32  2  0
 10  6  1  0
 26 17  1  0
 32 27  1  0
 25 20  1  0
  1 33  1  0
  1 34  1  0
  1 35  1  0
  2 36  1  1
  3 37  1  0
  6 38  1  6
  7 39  1  0
  7 40  1  0
  8 41  1  0
  8 42  1  0
  9 43  1  0
  9 44  1  0
 13 45  1  0
 13 46  1  0
 14 47  1  0
 18 48  1  0
 19 49  1  0
 21 50  1  0
 22 51  1  0
 23 52  1  0
 24 53  1  0
 28 54  1  0
 29 55  1  0
 30 56  1  0
 31 57  1  0
 32 58  1  0
M  END
>  <smiles>  (15) 
C[C@@H](NC(=O)[C@H]1CCCN1C(=O)CNC(=O)c1ccc2ccccc2n1)c1ccccc1

>  <score_type>  (15) 
oracle

>  <origin>  (15) 
autodockgpu

>  <m_score__min__energy>  (15) 
-9.4199999999999999

>  <m_primary>  (15) 
energy

>  <rmsd>  (15) 
2.933437969611043

>  <m_score__min__rmsd>  (15) 
2.933437969611043

>  <meeko>  (15) 
{"free_energy": -8.84, "intermolecular_energy": -10.93, "internal_energy": -1.92, "cluster_size": 30, "cluster_id": 1, "rank_in_cluster": 14}

>  <energy>  (15) 
-8.83

>  <cluster_rmsd>  (15) 
1.48

>  <cluster>  (15) 
1

$$$$

     RDKit          3D

 58 61  0  0  0  0  0  0  0  0999 V2000
  141.6380   79.8570  223.5330 C   0  0  0  0  0  0  0  0  0  0  0  0
  141.7250   78.7050  222.5620 C   0  0  1  0  0  0  0  0  0  0  0  0
  140.6630   77.7520  222.7570 N   0  0  0  0  0  0  0  0  0  0  0  0
  139.2920   78.0560  222.4860 C   0  0  0  0  0  0  0  0  0  0  0  0
  138.9780   79.1980  222.0600 O   0  0  0  0  0  0  0  0  0  0  0  0
  138.3060   76.9820  222.7320 C   0  0  1  0  0  0  0  0  0  0  0  0
  136.8890   77.4130  222.5200 C   0  0  0  0  0  0  0  0  0  0  0  0
  136.6030   77.1220  221.0630 C   0  0  0  0  0  0  0  0  0  0  0  0
  137.4260   75.8970  220.8000 C   0  0  0  0  0  0  0  0  0  0  0  0
  138.4490   75.8630  221.8470 N   0  0  0  0  0  0  0  0  0  0  0  0
  139.4180   74.8230  221.9040 C   0  0  0  0  0  0  0  0  0  0  0  0
  140.5870   75.1830  222.2710 O   0  0  0  0  0  0  0  0  0  0  0  0
  139.1060   73.4190  221.5660 C   0  0  0  0  0  0  0  0  0  0  0  0
  139.3970   72.5940  222.7250 N   0  0  0  0  0  0  0  0  0  0  0  0
  138.9800   71.2290  222.7350 C   0  0  0  0  0  0  0  0  0  0  0  0
  138.3580   70.7280  221.7430 O   0  0  0  0  0  0  0  0  0  0  0  0
  139.2790   70.4110  223.9090 C   0  0  0  0  0  0  0  0  0  0  0  0
  138.9300   69.0650  223.8960 C   0  0  0  0  0  0  0  0  0  0  0  0
  139.2140   68.2920  225.0060 C   0  0  0  0  0  0  0  0  0  0  0  0
  139.8340   68.8300  226.1230 C   0  0  0  0  0  0  0  0  0  0  0  0
  140.1320   68.0940  227.2430 C   0  0  0  0  0  0  0  0  0  0  0  0
  140.7510   68.6250  228.3610 C   0  0  0  0  0  0  0  0  0  0  0  0
  141.0760   69.9840  228.3080 C   0  0  0  0  0  0  0  0  0  0  0  0
  140.7820   70.7340  227.1870 C   0  0  0  0  0  0  0  0  0  0  0  0
  140.1620   70.1730  226.0890 C   0  0  0  0  0  0  0  0  0  0  0  0
  139.8910   70.9490  225.0040 N   0  0  0  0  0  0  0  0  0  0  0  0
  141.7560   79.2470  221.1940 C   0  0  0  0  0  0  0  0  0  0  0  0
  141.8240   78.3270  220.1480 C   0  0  0  0  0  0  0  0  0  0  0  0
  141.8550   78.7710  218.8530 C   0  0  0  0  0  0  0  0  0  0  0  0
  141.8230   80.1040  218.5050 C   0  0  0  0  0  0  0  0  0  0  0  0
  141.7550   81.0180  219.5610 C   0  0  0  0  0  0  0  0  0  0  0  0
  141.7220   80.5870  220.8840 C   0  0  0  0  0  0  0  0  0  0  0  0
  141.6671   79.4715  224.5628 H   0  0  0  0  0  0  0  0  0  0  0  0
  142.4873   80.5372  223.3720 H   0  0  0  0  0  0  0  0  0  0  0  0
  140.6961   80.4019  223.3720 H   0  0  0  0  0  0  0  0  0  0  0  0
  142.6526   78.1419  222.7425 H   0  0  0  0  0  0  0  0  0  0  0  0
  140.9260   76.7900  223.1160 H   0  0  0  0  0  0  0  0  0  0  0  0
  138.5104   76.7170  223.7799 H   0  0  0  0  0  0  0  0  0  0  0  0
  136.2099   76.8404  223.1688 H   0  0  0  0  0  0  0  0  0  0  0  0
  136.7398   78.4748  222.7655 H   0  0  0  0  0  0  0  0  0  0  0  0
  135.5333   76.9226  220.9015 H   0  0  0  0  0  0  0  0  0  0  0  0
  136.8471   77.9616  220.3956 H   0  0  0  0  0  0  0  0  0  0  0  0
  136.7969   74.9961  220.8514 H   0  0  0  0  0  0  0  0  0  0  0  0
  137.8777   75.9238  219.7974 H   0  0  0  0  0  0  0  0  0  0  0  0
  138.0419   73.3278  221.3025 H   0  0  0  0  0  0  0  0  0  0  0  0
  139.7118   73.0929  220.7077 H   0  0  0  0  0  0  0  0  0  0  0  0
  139.9020   72.9780  223.5450 H   0  0  0  0  0  0  0  0  0  0  0  0
  138.4365   68.6232  223.0177 H   0  0  0  0  0  0  0  0  0  0  0  0
  138.9420   67.2262  225.0030 H   0  0  0  0  0  0  0  0  0  0  0  0
  139.8649   67.0270  227.2522 H   0  0  0  0  0  0  0  0  0  0  0  0
  140.9756   68.0102  229.2451 H   0  0  0  0  0  0  0  0  0  0  0  0
  141.5706   70.4599  229.1676 H   0  0  0  0  0  0  0  0  0  0  0  0
  141.0475   71.8013  227.1685 H   0  0  0  0  0  0  0  0  0  0  0  0
  141.8526   77.2485  220.3625 H   0  0  0  0  0  0  0  0  0  0  0  0
  141.9083   78.0238  218.0475 H   0  0  0  0  0  0  0  0  0  0  0  0
  141.8495   80.4308  217.4550 H   0  0  0  0  0  0  0  0  0  0  0  0
  141.7271   82.0957  219.3425 H   0  0  0  0  0  0  0  0  0  0  0  0
  141.6679   81.3291  221.6942 H   0  0  0  0  0  0  0  0  0  0  0  0
  1  2  1  0
  2  3  1  0
  3  4  1  0
  4  5  2  0
  4  6  1  0
  6  7  1  0
  7  8  1  0
  8  9  1  0
  9 10  1  0
 10 11  1  0
 11 12  2  0
 11 13  1  0
 13 14  1  0
 14 15  1  0
 15 16  2  0
 15 17  1  0
 17 18  2  0
 18 19  1  0
 19 20  2  0
 20 21  1  0
 21 22  2  0
 22 23  1  0
 23 24  2  0
 24 25  1  0
 25 26  2  0
  2 27  1  0
 27 28  2  0
 28 29  1  0
 29 30  2  0
 30 31  1  0
 31 32  2  0
 10  6  1  0
 26 17  1  0
 32 27  1  0
 25 20  1  0
  1 33  1  0
  1 34  1  0
  1 35  1  0
  2 36  1  1
  3 37  1  0
  6 38  1  1
  7 39  1  0
  7 40  1  0
  8 41  1  0
  8 42  1  0
  9 43  1  0
  9 44  1  0
 13 45  1  0
 13 46  1  0
 14 47  1  0
 18 48  1  0
 19 49  1  0
 21 50  1  0
 22 51  1  0
 23 52  1  0
 24 53  1  0
 28 54  1  0
 29 55  1  0
 30 56  1  0
 31 57  1  0
 32 58  1  0
M  END
>  <smiles>  (16) 
C[C@@H](NC(=O)[C@H]1CCCN1C(=O)CNC(=O)c1ccc2ccccc2n1)c1ccccc1

>  <score_type>  (16) 
oracle

>  <origin>  (16) 
autodockgpu

>  <m_score__min__energy>  (16) 
-9.4199999999999999

>  <m_primary>  (16) 
energy

>  <rmsd>  (16) 
2.907706104552302

>  <m_score__min__rmsd>  (16) 
2.907706104552302

>  <meeko>  (16) 
{"free_energy": -8.33, "intermolecular_energy": -10.42, "internal_energy": -2.89, "cluster_size": 1, "cluster_id": 4, "rank_in_cluster": 1}

>  <energy>  (16) 
-8.78

>  <cluster_rmsd>  (16) 
1.24

>  <cluster>  (16) 
1

$$$$

     RDKit          3D

 58 61  0  0  0  0  0  0  0  0999 V2000
  142.9370   79.4120  222.8800 C   0  0  0  0  0  0  0  0  0  0  0  0
  141.9420   79.3190  221.7500 C   0  0  1  0  0  0  0  0  0  0  0  0
  141.8460   77.9820  221.2220 N   0  0  0  0  0  0  0  0  0  0  0  0
  141.7860   77.7070  219.8200 C   0  0  0  0  0  0  0  0  0  0  0  0
  141.8160   78.6580  218.9950 O   0  0  0  0  0  0  0  0  0  0  0  0
  141.6890   76.2870  219.4200 C   0  0  1  0  0  0  0  0  0  0  0  0
  142.9010   75.7880  218.6960 C   0  0  0  0  0  0  0  0  0  0  0  0
  143.8120   75.2540  219.7790 C   0  0  0  0  0  0  0  0  0  0  0  0
  142.8480   74.7220  220.7960 C   0  0  0  0  0  0  0  0  0  0  0  0
  141.5700   75.3880  220.5300 N   0  0  0  0  0  0  0  0  0  0  0  0
  140.4160   75.1200  221.3170 C   0  0  0  0  0  0  0  0  0  0  0  0
  140.1980   75.9450  222.2670 O   0  0  0  0  0  0  0  0  0  0  0  0
  139.5240   73.9710  221.0640 C   0  0  0  0  0  0  0  0  0  0  0  0
  139.4520   73.1720  222.2750 N   0  0  0  0  0  0  0  0  0  0  0  0
  140.3030   72.0350  222.4140 C   0  0  0  0  0  0  0  0  0  0  0  0
  141.1220   71.7130  221.4930 O   0  0  0  0  0  0  0  0  0  0  0  0
  140.2200   71.2400  223.6380 C   0  0  0  0  0  0  0  0  0  0  0  0
  139.6300   69.9820  223.5840 C   0  0  0  0  0  0  0  0  0  0  0  0
  139.5520   69.2310  224.7420 C   0  0  0  0  0  0  0  0  0  0  0  0
  140.0470   69.7060  225.9470 C   0  0  0  0  0  0  0  0  0  0  0  0
  139.9880   68.9890  227.1160 C   0  0  0  0  0  0  0  0  0  0  0  0
  140.4800   69.4580  228.3220 C   0  0  0  0  0  0  0  0  0  0  0  0
  141.0620   70.7290  228.3070 C   0  0  0  0  0  0  0  0  0  0  0  0
  141.1270   71.4590  227.1360 C   0  0  0  0  0  0  0  0  0  0  0  0
  140.6250   70.9620  225.9510 C   0  0  0  0  0  0  0  0  0  0  0  0
  140.7110   71.7150  224.8200 N   0  0  0  0  0  0  0  0  0  0  0  0
  140.6470   79.8360  222.2220 C   0  0  0  0  0  0  0  0  0  0  0  0
  140.6070   80.3700  223.5090 C   0  0  0  0  0  0  0  0  0  0  0  0
  139.4300   80.8650  224.0040 C   0  0  0  0  0  0  0  0  0  0  0  0
  138.2490   80.8710  223.2930 C   0  0  0  0  0  0  0  0  0  0  0  0
  138.3000   80.3340  222.0040 C   0  0  0  0  0  0  0  0  0  0  0  0
  139.4870   79.8260  221.4830 C   0  0  0  0  0  0  0  0  0  0  0  0
  142.4053   79.3623  223.8417 H   0  0  0  0  0  0  0  0  0  0  0  0
  143.6492   78.5765  222.8112 H   0  0  0  0  0  0  0  0  0  0  0  0
  143.4820   80.3650  222.8112 H   0  0  0  0  0  0  0  0  0  0  0  0
  142.2857   79.9365  220.9071 H   0  0  0  0  0  0  0  0  0  0  0  0
  141.8210   77.1810  221.9160 H   0  0  0  0  0  0  0  0  0  0  0  0
  140.7916   76.2870  218.7838 H   0  0  0  0  0  0  0  0  0  0  0  0
  142.6285   74.9887  217.9912 H   0  0  0  0  0  0  0  0  0  0  0  0
  143.3833   76.5795  218.1036 H   0  0  0  0  0  0  0  0  0  0  0  0
  144.4602   74.4540  219.3919 H   0  0  0  0  0  0  0  0  0  0  0  0
  144.4959   76.0140  220.1849 H   0  0  0  0  0  0  0  0  0  0  0  0
  142.7409   73.6326  220.6876 H   0  0  0  0  0  0  0  0  0  0  0  0
  143.1969   74.9155  221.8211 H   0  0  0  0  0  0  0  0  0  0  0  0
  138.5199   74.3319  220.7966 H   0  0  0  0  0  0  0  0  0  0  0  0
  139.9145   73.3647  220.2334 H   0  0  0  0  0  0  0  0  0  0  0  0
  138.7950   73.4120  223.0400 H   0  0  0  0  0  0  0  0  0  0  0  0
  139.2321   69.5911  222.6359 H   0  0  0  0  0  0  0  0  0  0  0  0
  139.0870   68.2347  224.7067 H   0  0  0  0  0  0  0  0  0  0  0  0
  139.5263   67.9909  227.0934 H   0  0  0  0  0  0  0  0  0  0  0  0
  140.4163   68.8616  229.2441 H   0  0  0  0  0  0  0  0  0  0  0  0
  141.4719   71.1517  229.2361 H   0  0  0  0  0  0  0  0  0  0  0  0
  141.5886   72.4574  227.1487 H   0  0  0  0  0  0  0  0  0  0  0  0
  141.5180   80.3937  224.1251 H   0  0  0  0  0  0  0  0  0  0  0  0
  139.4268   81.2797  225.0228 H   0  0  0  0  0  0  0  0  0  0  0  0
  137.3182   81.2760  223.7168 H   0  0  0  0  0  0  0  0  0  0  0  0
  137.3871   80.3123  221.3907 H   0  0  0  0  0  0  0  0  0  0  0  0
  139.4973   79.4102  220.4647 H   0  0  0  0  0  0  0  0  0  0  0  0
  1  2  1  0
  2  3  1  0
  3  4  1  0
  4  5  2  0
  4  6  1  0
  6  7  1  0
  7  8  1  0
  8  9  1  0
  9 10  1  0
 10 11  1  0
 11 12  2  0
 11 13  1  0
 13 14  1  0
 14 15  1  0
 15 16  2  0
 15 17  1  0
 17 18  2  0
 18 19  1  0
 19 20  2  0
 20 21  1  0
 21 22  2  0
 22 23  1  0
 23 24  2  0
 24 25  1  0
 25 26  2  0
  2 27  1  0
 27 28  2  0
 28 29  1  0
 29 30  2  0
 30 31  1  0
 31 32  2  0
 10  6  1  0
 26 17  1  0
 32 27  1  0
 25 20  1  0
  1 33  1  0
  1 34  1  0
  1 35  1  0
  2 36  1  6
  3 37  1  0
  6 38  1  6
  7 39  1  0
  7 40  1  0
  8 41  1  0
  8 42  1  0
  9 43  1  0
  9 44  1  0
 13 45  1  0
 13 46  1  0
 14 47  1  0
 18 48  1  0
 19 49  1  0
 21 50  1  0
 22 51  1  0
 23 52  1  0
 24 53  1  0
 28 54  1  0
 29 55  1  0
 30 56  1  0
 31 57  1  0
 32 58  1  0
M  END
>  <smiles>  (17) 
C[C@@H](NC(=O)[C@H]1CCCN1C(=O)CNC(=O)c1ccc2ccccc2n1)c1ccccc1

>  <score_type>  (17) 
oracle

>  <origin>  (17) 
autodockgpu

>  <m_score__min__energy>  (17) 
-9.4199999999999999

>  <m_primary>  (17) 
energy

>  <rmsd>  (17) 
2.3407710107311512

>  <m_score__min__rmsd>  (17) 
2.3407710107311512

>  <meeko>  (17) 
{"free_energy": -9.13, "intermolecular_energy": -11.21, "internal_energy": -2.69, "cluster_size": 30, "cluster_id": 1, "rank_in_cluster": 9}

>  <energy>  (17) 
-8.75

>  <cluster_rmsd>  (17) 
1.51

>  <cluster>  (17) 
1

$$$$

     RDKit          3D

 58 61  0  0  0  0  0  0  0  0999 V2000
  138.2160   80.0940  223.0960 C   0  0  0  0  0  0  0  0  0  0  0  0
  139.2530   79.0210  223.3140 C   0  0  1  0  0  0  0  0  0  0  0  0
  139.1950   77.9980  222.3000 N   0  0  0  0  0  0  0  0  0  0  0  0
  139.1540   78.2970  220.9020 C   0  0  0  0  0  0  0  0  0  0  0  0
  139.1680   79.4970  220.5190 O   0  0  0  0  0  0  0  0  0  0  0  0
  139.0960   77.1490  219.9730 C   0  0  1  0  0  0  0  0  0  0  0  0
  139.3600   77.5210  218.5470 C   0  0  0  0  0  0  0  0  0  0  0  0
  140.8560   77.3790  218.3750 C   0  0  0  0  0  0  0  0  0  0  0  0
  141.1900   76.2380  219.2890 C   0  0  0  0  0  0  0  0  0  0  0  0
  140.0820   76.1450  220.2430 N   0  0  0  0  0  0  0  0  0  0  0  0
  140.0690   75.1610  221.2700 C   0  0  0  0  0  0  0  0  0  0  0  0
  140.6770   75.4830  222.3450 O   0  0  0  0  0  0  0  0  0  0  0  0
  139.4010   73.8530  221.1160 C   0  0  0  0  0  0  0  0  0  0  0  0
  139.5350   73.1210  222.3630 N   0  0  0  0  0  0  0  0  0  0  0  0
  139.5120   71.6940  222.3440 C   0  0  0  0  0  0  0  0  0  0  0  0
  139.3760   71.0570  221.2500 O   0  0  0  0  0  0  0  0  0  0  0  0
  139.6490   70.9720  223.6070 C   0  0  0  0  0  0  0  0  0  0  0  0
  139.2090   69.6540  223.6790 C   0  0  0  0  0  0  0  0  0  0  0  0
  139.3390   68.9710  224.8730 C   0  0  0  0  0  0  0  0  0  0  0  0
  139.8940   69.5720  225.9930 C   0  0  0  0  0  0  0  0  0  0  0  0
  140.0390   68.9250  227.1960 C   0  0  0  0  0  0  0  0  0  0  0  0
  140.5920   69.5200  228.3170 C   0  0  0  0  0  0  0  0  0  0  0  0
  141.0140   70.8450  228.1780 C   0  0  0  0  0  0  0  0  0  0  0  0
  140.8730   71.5050  226.9730 C   0  0  0  0  0  0  0  0  0  0  0  0
  140.3160   70.8830  225.8740 C   0  0  0  0  0  0  0  0  0  0  0  0
  140.1970   71.5700  224.7050 N   0  0  0  0  0  0  0  0  0  0  0  0
  140.5780   79.6570  223.4000 C   0  0  0  0  0  0  0  0  0  0  0  0
  141.6750   78.8970  222.9990 C   0  0  0  0  0  0  0  0  0  0  0  0
  142.9330   79.4350  223.0570 C   0  0  0  0  0  0  0  0  0  0  0  0
  143.1930   80.7150  223.4970 C   0  0  0  0  0  0  0  0  0  0  0  0
  142.0860   81.4690  223.8950 C   0  0  0  0  0  0  0  0  0  0  0  0
  140.7990   80.9400  223.8440 C   0  0  0  0  0  0  0  0  0  0  0  0
  137.8597   80.4627  224.0692 H   0  0  0  0  0  0  0  0  0  0  0  0
  138.6618   80.9251  222.5299 H   0  0  0  0  0  0  0  0  0  0  0  0
  137.3701   79.6768  222.5299 H   0  0  0  0  0  0  0  0  0  0  0  0
  139.0466   78.5007  224.2609 H   0  0  0  0  0  0  0  0  0  0  0  0
  139.1830   76.9880  222.6210 H   0  0  0  0  0  0  0  0  0  0  0  0
  138.0709   76.7809  220.1267 H   0  0  0  0  0  0  0  0  0  0  0  0
  138.8265   76.8422  217.8654 H   0  0  0  0  0  0  0  0  0  0  0  0
  139.0125   78.5385  218.3146 H   0  0  0  0  0  0  0  0  0  0  0  0
  141.1139   77.1400  217.3327 H   0  0  0  0  0  0  0  0  0  0  0  0
  141.4101   78.3001  218.6087 H   0  0  0  0  0  0  0  0  0  0  0  0
  141.2801   75.3034  218.7160 H   0  0  0  0  0  0  0  0  0  0  0  0
  142.1495   76.4009  219.8016 H   0  0  0  0  0  0  0  0  0  0  0  0
  138.3359   74.0044  220.8865 H   0  0  0  0  0  0  0  0  0  0  0  0
  139.8628   73.2869  220.2936 H   0  0  0  0  0  0  0  0  0  0  0  0
  139.6480   73.6160  223.2680 H   0  0  0  0  0  0  0  0  0  0  0  0
  138.7650   69.1639  222.8000 H   0  0  0  0  0  0  0  0  0  0  0  0
  138.9949   67.9281  224.9367 H   0  0  0  0  0  0  0  0  0  0  0  0
  139.6986   67.8818  227.2725 H   0  0  0  0  0  0  0  0  0  0  0  0
  140.6940   68.9776  229.2685 H   0  0  0  0  0  0  0  0  0  0  0  0
  141.4626   71.3670  229.0361 H   0  0  0  0  0  0  0  0  0  0  0  0
  141.2117   72.5481  226.8874 H   0  0  0  0  0  0  0  0  0  0  0  0
  141.5309   77.8683  222.6370 H   0  0  0  0  0  0  0  0  0  0  0  0
  143.7810   78.8125  222.7354 H   0  0  0  0  0  0  0  0  0  0  0  0
  144.2149   81.1204  223.5328 H   0  0  0  0  0  0  0  0  0  0  0  0
  142.2338   82.4980  224.2547 H   0  0  0  0  0  0  0  0  0  0  0  0
  139.9464   81.5572  224.1635 H   0  0  0  0  0  0  0  0  0  0  0  0
  1  2  1  0
  2  3  1  0
  3  4  1  0
  4  5  2  0
  4  6  1  0
  6  7  1  0
  7  8  1  0
  8  9  1  0
  9 10  1  0
 10 11  1  0
 11 12  2  0
 11 13  1  0
 13 14  1  0
 14 15  1  0
 15 16  2  0
 15 17  1  0
 17 18  2  0
 18 19  1  0
 19 20  2  0
 20 21  1  0
 21 22  2  0
 22 23  1  0
 23 24  2  0
 24 25  1  0
 25 26  2  0
  2 27  1  0
 27 28  2  0
 28 29  1  0
 29 30  2  0
 30 31  1  0
 31 32  2  0
 10  6  1  0
 26 17  1  0
 32 27  1  0
 25 20  1  0
  1 33  1  0
  1 34  1  0
  1 35  1  0
  2 36  1  1
  3 37  1  0
  6 38  1  6
  7 39  1  0
  7 40  1  0
  8 41  1  0
  8 42  1  0
  9 43  1  0
  9 44  1  0
 13 45  1  0
 13 46  1  0
 14 47  1  0
 18 48  1  0
 19 49  1  0
 21 50  1  0
 22 51  1  0
 23 52  1  0
 24 53  1  0
 28 54  1  0
 29 55  1  0
 30 56  1  0
 31 57  1  0
 32 58  1  0
M  END
>  <smiles>  (18) 
C[C@@H](NC(=O)[C@H]1CCCN1C(=O)CNC(=O)c1ccc2ccccc2n1)c1ccccc1

>  <score_type>  (18) 
oracle

>  <origin>  (18) 
autodockgpu

>  <m_score__min__energy>  (18) 
-9.4199999999999999

>  <m_primary>  (18) 
energy

>  <rmsd>  (18) 
2.801748257865999

>  <m_score__min__rmsd>  (18) 
2.801748257865999

>  <meeko>  (18) 
{"free_energy": -8.72, "intermolecular_energy": -10.81, "internal_energy": -3.14, "cluster_size": 30, "cluster_id": 1, "rank_in_cluster": 20}

>  <energy>  (18) 
-8.73

>  <cluster_rmsd>  (18) 
1.41

>  <cluster>  (18) 
1

$$$$

     RDKit          3D

 58 61  0  0  0  0  0  0  0  0999 V2000
  139.2420   77.8400  221.5390 C   0  0  0  0  0  0  0  0  0  0  0  0
  140.4890   77.5670  222.3440 C   0  0  1  0  0  0  0  0  0  0  0  0
  141.3900   76.6750  221.6590 N   0  0  0  0  0  0  0  0  0  0  0  0
  141.1740   75.2630  221.5850 C   0  0  0  0  0  0  0  0  0  0  0  0
  140.1610   74.7570  222.1360 O   0  0  0  0  0  0  0  0  0  0  0  0
  142.1810   74.4690  220.8500 C   0  0  1  0  0  0  0  0  0  0  0  0
  141.7710   73.0470  220.6270 C   0  0  0  0  0  0  0  0  0  0  0  0
  141.0410   73.0510  219.3030 C   0  0  0  0  0  0  0  0  0  0  0  0
  141.7560   74.1180  218.5300 C   0  0  0  0  0  0  0  0  0  0  0  0
  142.4330   74.9540  219.5250 N   0  0  0  0  0  0  0  0  0  0  0  0
  143.2140   76.0780  219.1400 C   0  0  0  0  0  0  0  0  0  0  0  0
  143.8670   76.6400  220.0830 O   0  0  0  0  0  0  0  0  0  0  0  0
  143.2760   76.5720  217.7490 C   0  0  0  0  0  0  0  0  0  0  0  0
  143.0970   78.0130  217.7670 N   0  0  0  0  0  0  0  0  0  0  0  0
  142.0850   78.5830  218.5960 C   0  0  0  0  0  0  0  0  0  0  0  0
  141.3390   77.8440  219.3180 O   0  0  0  0  0  0  0  0  0  0  0  0
  141.9170   80.0340  218.6040 C   0  0  0  0  0  0  0  0  0  0  0  0
  140.9380   80.5930  219.4200 C   0  0  0  0  0  0  0  0  0  0  0  0
  140.7790   81.9660  219.4260 C   0  0  0  0  0  0  0  0  0  0  0  0
  141.5710   82.7900  218.6410 C   0  0  0  0  0  0  0  0  0  0  0  0
  141.4430   84.1570  218.6220 C   0  0  0  0  0  0  0  0  0  0  0  0
  142.2310   84.9840  217.8410 C   0  0  0  0  0  0  0  0  0  0  0  0
  143.1960   84.3590  217.0450 C   0  0  0  0  0  0  0  0  0  0  0  0
  143.3340   82.9850  217.0570 C   0  0  0  0  0  0  0  0  0  0  0  0
  142.5310   82.1880  217.8480 C   0  0  0  0  0  0  0  0  0  0  0  0
  142.7010   80.8380  217.8290 N   0  0  0  0  0  0  0  0  0  0  0  0
  141.1170   78.8520  222.6890 C   0  0  0  0  0  0  0  0  0  0  0  0
  140.2690   79.8940  223.0610 C   0  0  0  0  0  0  0  0  0  0  0  0
  140.7950   81.1140  223.3920 C   0  0  0  0  0  0  0  0  0  0  0  0
  142.1460   81.3880  223.3820 C   0  0  0  0  0  0  0  0  0  0  0  0
  142.9870   80.3370  223.0070 C   0  0  0  0  0  0  0  0  0  0  0  0
  142.4720   79.0890  222.6670 C   0  0  0  0  0  0  0  0  0  0  0  0
  138.3986   78.0246  222.2207 H   0  0  0  0  0  0  0  0  0  0  0  0
  139.4013   78.7245  220.9048 H   0  0  0  0  0  0  0  0  0  0  0  0
  139.0172   76.9698  220.9048 H   0  0  0  0  0  0  0  0  0  0  0  0
  140.2180   77.0445  223.2733 H   0  0  0  0  0  0  0  0  0  0  0  0
  142.2430   77.1010  221.1960 H   0  0  0  0  0  0  0  0  0  0  0  0
  143.0629   74.5534  221.5020 H   0  0  0  0  0  0  0  0  0  0  0  0
  142.6544   72.3933  220.5790 H   0  0  0  0  0  0  0  0  0  0  0  0
  141.1406   72.6666  221.4443 H   0  0  0  0  0  0  0  0  0  0  0  0
  141.1250   72.0755  218.8017 H   0  0  0  0  0  0  0  0  0  0  0  0
  139.9613   73.2362  219.4026 H   0  0  0  0  0  0  0  0  0  0  0  0
  142.4905   73.6673  217.8463 H   0  0  0  0  0  0  0  0  0  0  0  0
  141.0580   74.7072  217.9171 H   0  0  0  0  0  0  0  0  0  0  0  0
  144.2537   76.3244  217.3098 H   0  0  0  0  0  0  0  0  0  0  0  0
  142.4874   76.1003  217.1444 H   0  0  0  0  0  0  0  0  0  0  0  0
  143.6920   78.6360  217.1890 H   0  0  0  0  0  0  0  0  0  0  0  0
  140.3018   79.9533  220.0493 H   0  0  0  0  0  0  0  0  0  0  0  0
  140.0068   82.4150  220.0679 H   0  0  0  0  0  0  0  0  0  0  0  0
  140.6749   84.6182  219.2601 H   0  0  0  0  0  0  0  0  0  0  0  0
  142.1048   86.0767  217.8461 H   0  0  0  0  0  0  0  0  0  0  0  0
  143.8509   84.9671  216.4037 H   0  0  0  0  0  0  0  0  0  0  0  0
  144.1003   82.5155  216.4226 H   0  0  0  0  0  0  0  0  0  0  0  0
  139.1807   79.7366  223.0885 H   0  0  0  0  0  0  0  0  0  0  0  0
  140.1027   81.9184  223.6813 H   0  0  0  0  0  0  0  0  0  0  0  0
  142.5399   82.3784  223.6540 H   0  0  0  0  0  0  0  0  0  0  0  0
  144.0747   80.4985  222.9800 H   0  0  0  0  0  0  0  0  0  0  0  0
  143.1588   78.2804  222.3765 H   0  0  0  0  0  0  0  0  0  0  0  0
  1  2  1  0
  2  3  1  0
  3  4  1  0
  4  5  2  0
  4  6  1  0
  6  7  1  0
  7  8  1  0
  8  9  1  0
  9 10  1  0
 10 11  1  0
 11 12  2  0
 11 13  1  0
 13 14  1  0
 14 15  1  0
 15 16  2  0
 15 17  1  0
 17 18  2  0
 18 19  1  0
 19 20  2  0
 20 21  1  0
 21 22  2  0
 22 23  1  0
 23 24  2  0
 24 25  1  0
 25 26  2  0
  2 27  1  0
 27 28  2  0
 28 29  1  0
 29 30  2  0
 30 31  1  0
 31 32  2  0
 10  6  1  0
 26 17  1  0
 32 27  1  0
 25 20  1  0
  1 33  1  0
  1 34  1  0
  1 35  1  0
  2 36  1  1
  3 37  1  0
  6 38  1  1
  7 39  1  0
  7 40  1  0
  8 41  1  0
  8 42  1  0
  9 43  1  0
  9 44  1  0
 13 45  1  0
 13 46  1  0
 14 47  1  0
 18 48  1  0
 19 49  1  0
 21 50  1  0
 22 51  1  0
 23 52  1  0
 24 53  1  0
 28 54  1  0
 29 55  1  0
 30 56  1  0
 31 57  1  0
 32 58  1  0
M  END
>  <smiles>  (19) 
C[C@@H](NC(=O)[C@H]1CCCN1C(=O)CNC(=O)c1ccc2ccccc2n1)c1ccccc1

>  <score_type>  (19) 
oracle

>  <origin>  (19) 
autodockgpu

>  <m_score__min__energy>  (19) 
-9.4199999999999999

>  <m_primary>  (19) 
energy

>  <rmsd>  (19) 
9.071174170200836

>  <m_score__min__rmsd>  (19) 
9.071174170200836

>  <meeko>  (19) 
{"free_energy": -7.46, "intermolecular_energy": -9.55, "internal_energy": -4.27, "cluster_size": 9, "cluster_id": 6, "rank_in_cluster": 6}

>  <energy>  (19) 
-8.73

>  <cluster_rmsd>  (19) 
1.41

>  <cluster>  (19) 
1

$$$$

     RDKit          3D

 58 61  0  0  0  0  0  0  0  0999 V2000
  142.8100   79.3700  222.9550 C   0  0  0  0  0  0  0  0  0  0  0  0
  141.6880   79.2320  221.9570 C   0  0  1  0  0  0  0  0  0  0  0  0
  141.6820   77.9370  221.3250 N   0  0  0  0  0  0  0  0  0  0  0  0
  141.4020   77.7570  219.9340 C   0  0  0  0  0  0  0  0  0  0  0  0
  141.1450   78.7570  219.2140 O   0  0  0  0  0  0  0  0  0  0  0  0
  141.4300   76.3720  219.4190 C   0  0  1  0  0  0  0  0  0  0  0  0
  142.5830   76.1000  218.5020 C   0  0  0  0  0  0  0  0  0  0  0  0
  143.6970   75.6170  219.4050 C   0  0  0  0  0  0  0  0  0  0  0  0
  142.9580   74.8830  220.4830 C   0  0  0  0  0  0  0  0  0  0  0  0
  141.5820   75.3840  220.4460 N   0  0  0  0  0  0  0  0  0  0  0  0
  140.5930   74.9000  221.3460 C   0  0  0  0  0  0  0  0  0  0  0  0
  140.3270   75.6680  222.3310 O   0  0  0  0  0  0  0  0  0  0  0  0
  139.9110   73.6020  221.1650 C   0  0  0  0  0  0  0  0  0  0  0  0
  140.1190   72.8060  222.3620 N   0  0  0  0  0  0  0  0  0  0  0  0
  139.3130   71.6490  222.5820 C   0  0  0  0  0  0  0  0  0  0  0  0
  138.4180   71.3070  221.7430 O   0  0  0  0  0  0  0  0  0  0  0  0
  139.5330   70.8580  223.7910 C   0  0  0  0  0  0  0  0  0  0  0  0
  139.1500   69.5210  223.7980 C   0  0  0  0  0  0  0  0  0  0  0  0
  139.3580   68.7740  224.9430 C   0  0  0  0  0  0  0  0  0  0  0  0
  139.9380   69.3280  226.0740 C   0  0  0  0  0  0  0  0  0  0  0  0
  140.1600   68.6180  227.2270 C   0  0  0  0  0  0  0  0  0  0  0  0
  140.7380   69.1660  228.3590 C   0  0  0  0  0  0  0  0  0  0  0  0
  141.1020   70.5140  228.2840 C   0  0  0  0  0  0  0  0  0  0  0  0
  140.8820   71.2380  227.1290 C   0  0  0  0  0  0  0  0  0  0  0  0
  140.3030   70.6610  226.0180 C   0  0  0  0  0  0  0  0  0  0  0  0
  140.1050   71.4120  224.9000 N   0  0  0  0  0  0  0  0  0  0  0  0
  140.4170   79.5360  222.6350 C   0  0  0  0  0  0  0  0  0  0  0  0
  139.3760   78.6220  222.4730 C   0  0  0  0  0  0  0  0  0  0  0  0
  138.1700   78.8510  223.0790 C   0  0  0  0  0  0  0  0  0  0  0  0
  137.9100   79.9560  223.8610 C   0  0  0  0  0  0  0  0  0  0  0  0
  138.9590   80.8650  224.0170 C   0  0  0  0  0  0  0  0  0  0  0  0
  140.1930   80.6510  223.4090 C   0  0  0  0  0  0  0  0  0  0  0  0
  142.4016   79.3198  223.9751 H   0  0  0  0  0  0  0  0  0  0  0  0
  143.5331   78.5540  222.8089 H   0  0  0  0  0  0  0  0  0  0  0  0
  143.3138   80.3369  222.8089 H   0  0  0  0  0  0  0  0  0  0  0  0
  141.8358   79.9514  221.1381 H   0  0  0  0  0  0  0  0  0  0  0  0
  141.8980   77.0940  221.9300 H   0  0  0  0  0  0  0  0  0  0  0  0
  140.4598   76.2971  218.9061 H   0  0  0  0  0  0  0  0  0  0  0  0
  142.3180   75.3256  217.7671 H   0  0  0  0  0  0  0  0  0  0  0  0
  142.8739   76.9925  217.9286 H   0  0  0  0  0  0  0  0  0  0  0  0
  144.3808   74.9450  218.8656 H   0  0  0  0  0  0  0  0  0  0  0  0
  144.3300   76.4309  219.7883 H   0  0  0  0  0  0  0  0  0  0  0  0
  142.9754   73.8004  220.2887 H   0  0  0  0  0  0  0  0  0  0  0  0
  143.4186   75.0461  221.4685 H   0  0  0  0  0  0  0  0  0  0  0  0
  138.8344   73.7661  221.0100 H   0  0  0  0  0  0  0  0  0  0  0  0
  140.3184   73.0793  220.2870 H   0  0  0  0  0  0  0  0  0  0  0  0
  140.8410   73.0640  223.0600 H   0  0  0  0  0  0  0  0  0  0  0  0
  138.6898   69.0659  222.9086 H   0  0  0  0  0  0  0  0  0  0  0  0
  139.0565   67.7162  224.9568 H   0  0  0  0  0  0  0  0  0  0  0  0
  139.8634   67.5591  227.2530 H   0  0  0  0  0  0  0  0  0  0  0  0
  140.9024   68.5720  229.2701 H   0  0  0  0  0  0  0  0  0  0  0  0
  141.5678   71.0020  229.1529 H   0  0  0  0  0  0  0  0  0  0  0  0
  141.1748   72.2977  227.0941 H   0  0  0  0  0  0  0  0  0  0  0  0
  139.5235   77.7203  221.8605 H   0  0  0  0  0  0  0  0  0  0  0  0
  137.3660   78.1144  222.9343 H   0  0  0  0  0  0  0  0  0  0  0  0
  136.9304   80.1133  224.3360 H   0  0  0  0  0  0  0  0  0  0  0  0
  138.8075   81.7652  224.6307 H   0  0  0  0  0  0  0  0  0  0  0  0
  141.0008   81.3843  223.5496 H   0  0  0  0  0  0  0  0  0  0  0  0
  1  2  1  0
  2  3  1  0
  3  4  1  0
  4  5  2  0
  4  6  1  0
  6  7  1  0
  7  8  1  0
  8  9  1  0
  9 10  1  0
 10 11  1  0
 11 12  2  0
 11 13  1  0
 13 14  1  0
 14 15  1  0
 15 16  2  0
 15 17  1  0
 17 18  2  0
 18 19  1  0
 19 20  2  0
 20 21  1  0
 21 22  2  0
 22 23  1  0
 23 24  2  0
 24 25  1  0
 25 26  2  0
  2 27  1  0
 27 28  2  0
 28 29  1  0
 29 30  2  0
 30 31  1  0
 31 32  2  0
 10  6  1  0
 26 17  1  0
 32 27  1  0
 25 20  1  0
  1 33  1  0
  1 34  1  0
  1 35  1  0
  2 36  1  6
  3 37  1  0
  6 38  1  6
  7 39  1  0
  7 40  1  0
  8 41  1  0
  8 42  1  0
  9 43  1  0
  9 44  1  0
 13 45  1  0
 13 46  1  0
 14 47  1  0
 18 48  1  0
 19 49  1  0
 21 50  1  0
 22 51  1  0
 23 52  1  0
 24 53  1  0
 28 54  1  0
 29 55  1  0
 30 56  1  0
 31 57  1  0
 32 58  1  0
M  END
>  <smiles>  (20) 
C[C@@H](NC(=O)[C@H]1CCCN1C(=O)CNC(=O)c1ccc2ccccc2n1)c1ccccc1

>  <score_type>  (20) 
oracle

>  <origin>  (20) 
autodockgpu

>  <m_score__min__energy>  (20) 
-9.4199999999999999

>  <m_primary>  (20) 
energy

>  <rmsd>  (20) 
2.460555870826221

>  <m_score__min__rmsd>  (20) 
2.460555870826221

>  <meeko>  (20) 
{"free_energy": -8.89, "intermolecular_energy": -10.98, "internal_energy": -2.84, "cluster_size": 30, "cluster_id": 1, "rank_in_cluster": 11}

>  <energy>  (20) 
-8.72

>  <cluster_rmsd>  (20) 
1.37

>  <cluster>  (20) 
1

$$$$

     RDKit          3D

 58 61  0  0  0  0  0  0  0  0999 V2000
  137.7330   69.6750  224.5470 C   0  0  0  0  0  0  0  0  0  0  0  0
  139.2040   69.7890  224.2330 C   0  0  1  0  0  0  0  0  0  0  0  0
  139.4410   70.5030  223.0040 N   0  0  0  0  0  0  0  0  0  0  0  0
  139.4460   69.8610  221.7260 C   0  0  0  0  0  0  0  0  0  0  0  0
  139.2380   68.6220  221.6480 O   0  0  0  0  0  0  0  0  0  0  0  0
  139.7030   70.7170  220.5480 C   0  0  1  0  0  0  0  0  0  0  0  0
  138.7490   70.4790  219.4190 C   0  0  0  0  0  0  0  0  0  0  0  0
  137.6040   71.4370  219.6640 C   0  0  0  0  0  0  0  0  0  0  0  0
  138.2840   72.6160  220.2940 C   0  0  0  0  0  0  0  0  0  0  0  0
  139.5580   72.1170  220.8170 N   0  0  0  0  0  0  0  0  0  0  0  0
  140.4700   72.9760  221.4900 C   0  0  0  0  0  0  0  0  0  0  0  0
  140.1800   73.2390  222.7050 O   0  0  0  0  0  0  0  0  0  0  0  0
  141.6740   73.5330  220.8400 C   0  0  0  0  0  0  0  0  0  0  0  0
  141.7520   74.9480  221.1560 N   0  0  0  0  0  0  0  0  0  0  0  0
  141.2180   75.9010  220.2380 C   0  0  0  0  0  0  0  0  0  0  0  0
  140.6770   75.5270  219.1470 O   0  0  0  0  0  0  0  0  0  0  0  0
  141.3040   77.3220  220.5690 C   0  0  0  0  0  0  0  0  0  0  0  0
  141.2410   78.2570  219.5420 C   0  0  0  0  0  0  0  0  0  0  0  0
  141.3220   79.6010  219.8560 C   0  0  0  0  0  0  0  0  0  0  0  0
  141.4630   80.0300  221.1680 C   0  0  0  0  0  0  0  0  0  0  0  0
  141.5460   81.3540  221.5180 C   0  0  0  0  0  0  0  0  0  0  0  0
  141.6870   81.7880  222.8250 C   0  0  0  0  0  0  0  0  0  0  0  0
  141.7420   80.7970  223.8100 C   0  0  0  0  0  0  0  0  0  0  0  0
  141.6590   79.4620  223.4680 C   0  0  0  0  0  0  0  0  0  0  0  0
  141.5200   79.0630  222.1550 C   0  0  0  0  0  0  0  0  0  0  0  0
  141.4410   77.7360  221.8630 N   0  0  0  0  0  0  0  0  0  0  0  0
  139.8830   70.4040  225.3850 C   0  0  0  0  0  0  0  0  0  0  0  0
  139.6410   69.8450  226.6380 C   0  0  0  0  0  0  0  0  0  0  0  0
  140.2440   70.3740  227.7480 C   0  0  0  0  0  0  0  0  0  0  0  0
  141.1000   71.4540  227.7060 C   0  0  0  0  0  0  0  0  0  0  0  0
  141.3370   72.0070  226.4440 C   0  0  0  0  0  0  0  0  0  0  0  0
  140.7330   71.4830  225.3050 C   0  0  0  0  0  0  0  0  0  0  0  0
  137.5907   69.6640  225.6377 H   0  0  0  0  0  0  0  0  0  0  0  0
  137.1984   70.5344  224.1161 H   0  0  0  0  0  0  0  0  0  0  0  0
  137.3372   68.7435  224.1161 H   0  0  0  0  0  0  0  0  0  0  0  0
  139.6226   68.7853  224.0677 H   0  0  0  0  0  0  0  0  0  0  0  0
  139.6170   71.5460  223.0680 H   0  0  0  0  0  0  0  0  0  0  0  0
  140.7367   70.4460  220.2871 H   0  0  0  0  0  0  0  0  0  0  0  0
  139.2316   70.6923  218.4538 H   0  0  0  0  0  0  0  0  0  0  0  0
  138.4106   69.4331  219.3781 H   0  0  0  0  0  0  0  0  0  0  0  0
  137.1154   71.7197  218.7199 H   0  0  0  0  0  0  0  0  0  0  0  0
  136.8060   71.0100  220.2892 H   0  0  0  0  0  0  0  0  0  0  0  0
  138.4602   73.4011  219.5439 H   0  0  0  0  0  0  0  0  0  0  0  0
  137.6674   73.0578  221.0906 H   0  0  0  0  0  0  0  0  0  0  0  0
  142.5707   73.0184  221.2156 H   0  0  0  0  0  0  0  0  0  0  0  0
  141.6152   73.3916  219.7507 H   0  0  0  0  0  0  0  0  0  0  0  0
  142.1870   75.2790  222.0370 H   0  0  0  0  0  0  0  0  0  0  0  0
  141.1286   77.9328  218.4969 H   0  0  0  0  0  0  0  0  0  0  0  0
  141.2736   80.3462  219.0484 H   0  0  0  0  0  0  0  0  0  0  0  0
  141.4981   82.1090  220.7195 H   0  0  0  0  0  0  0  0  0  0  0  0
  141.7524   82.8571  223.0757 H   0  0  0  0  0  0  0  0  0  0  0  0
  141.8523   81.0835  224.8663 H   0  0  0  0  0  0  0  0  0  0  0  0
  141.7047   78.6999  224.2599 H   0  0  0  0  0  0  0  0  0  0  0  0
  138.9673   68.9809  226.7355 H   0  0  0  0  0  0  0  0  0  0  0  0
  140.0344   69.9130  228.7245 H   0  0  0  0  0  0  0  0  0  0  0  0
  141.5702   71.8580  228.6147 H   0  0  0  0  0  0  0  0  0  0  0  0
  142.0120   72.8705  226.3498 H   0  0  0  0  0  0  0  0  0  0  0  0
  140.9384   71.9387  224.3251 H   0  0  0  0  0  0  0  0  0  0  0  0
  1  2  1  0
  2  3  1  0
  3  4  1  0
  4  5  2  0
  4  6  1  0
  6  7  1  0
  7  8  1  0
  8  9  1  0
  9 10  1  0
 10 11  1  0
 11 12  2  0
 11 13  1  0
 13 14  1  0
 14 15  1  0
 15 16  2  0
 15 17  1  0
 17 18  2  0
 18 19  1  0
 19 20  2  0
 20 21  1  0
 21 22  2  0
 22 23  1  0
 23 24  2  0
 24 25  1  0
 25 26  2  0
  2 27  1  0
 27 28  2  0
 28 29  1  0
 29 30  2  0
 30 31  1  0
 31 32  2  0
 10  6  1  0
 26 17  1  0
 32 27  1  0
 25 20  1  0
  1 33  1  0
  1 34  1  0
  1 35  1  0
  2 36  1  6
  3 37  1  0
  6 38  1  6
  7 39  1  0
  7 40  1  0
  8 41  1  0
  8 42  1  0
  9 43  1  0
  9 44  1  0
 13 45  1  0
 13 46  1  0
 14 47  1  0
 18 48  1  0
 19 49  1  0
 21 50  1  0
 22 51  1  0
 23 52  1  0
 24 53  1  0
 28 54  1  0
 29 55  1  0
 30 56  1  0
 31 57  1  0
 32 58  1  0
M  END
>  <smiles>  (21) 
C[C@@H](NC(=O)[C@H]1CCCN1C(=O)CNC(=O)c1ccc2ccccc2n1)c1ccccc1

>  <score_type>  (21) 
oracle

>  <origin>  (21) 
autodockgpu

>  <m_score__min__energy>  (21) 
-9.4199999999999999

>  <m_primary>  (21) 
energy

>  <rmsd>  (21) 
9.396022833005482

>  <m_score__min__rmsd>  (21) 
9.396022833005482

>  <meeko>  (21) 
{"free_energy": -8.12, "intermolecular_energy": -10.21, "internal_energy": -2.85, "cluster_size": 8, "cluster_id": 3, "rank_in_cluster": 8}

>  <energy>  (21) 
-8.68

>  <cluster_rmsd>  (21) 
1.44

>  <cluster>  (21) 
1

$$$$

     RDKit          3D

 58 61  0  0  0  0  0  0  0  0999 V2000
  141.8690   78.7270  224.2050 C   0  0  0  0  0  0  0  0  0  0  0  0
  141.1950   79.1270  222.9160 C   0  0  1  0  0  0  0  0  0  0  0  0
  141.1960   78.0580  221.9500 N   0  0  0  0  0  0  0  0  0  0  0  0
  141.0330   78.2840  220.5470 C   0  0  0  0  0  0  0  0  0  0  0  0
  140.8800   79.4580  220.1170 O   0  0  0  0  0  0  0  0  0  0  0  0
  141.0540   77.0940  219.6700 C   0  0  1  0  0  0  0  0  0  0  0  0
  142.0210   77.2090  218.5330 C   0  0  0  0  0  0  0  0  0  0  0  0
  143.3200   76.6430  219.0640 C   0  0  0  0  0  0  0  0  0  0  0  0
  142.8570   75.5710  220.0040 C   0  0  0  0  0  0  0  0  0  0  0  0
  141.4700   75.8980  220.3410 N   0  0  0  0  0  0  0  0  0  0  0  0
  140.7100   75.0840  221.2260 C   0  0  0  0  0  0  0  0  0  0  0  0
  140.2930   75.6650  222.2840 O   0  0  0  0  0  0  0  0  0  0  0  0
  140.4160   73.6630  220.9520 C   0  0  0  0  0  0  0  0  0  0  0  0
  140.2000   72.9880  222.2200 N   0  0  0  0  0  0  0  0  0  0  0  0
  140.3350   71.5690  222.2900 C   0  0  0  0  0  0  0  0  0  0  0  0
  140.6410   70.8890  221.2570 O   0  0  0  0  0  0  0  0  0  0  0  0
  140.1150   70.9040  223.5720 C   0  0  0  0  0  0  0  0  0  0  0  0
  139.4620   69.6750  223.5890 C   0  0  0  0  0  0  0  0  0  0  0  0
  139.2550   69.0470  224.8020 C   0  0  0  0  0  0  0  0  0  0  0  0
  139.6810   69.6140  225.9940 C   0  0  0  0  0  0  0  0  0  0  0  0
  139.4930   69.0200  227.2170 C   0  0  0  0  0  0  0  0  0  0  0  0
  139.9160   69.5810  228.4090 C   0  0  0  0  0  0  0  0  0  0  0  0
  140.5660   70.8160  228.3220 C   0  0  0  0  0  0  0  0  0  0  0  0
  140.7610   71.4230  227.0970 C   0  0  0  0  0  0  0  0  0  0  0  0
  140.3250   70.8360  225.9260 C   0  0  0  0  0  0  0  0  0  0  0  0
  140.5380   71.4690  224.7400 N   0  0  0  0  0  0  0  0  0  0  0  0
  139.8390   79.6080  223.2260 C   0  0  0  0  0  0  0  0  0  0  0  0
  138.7750   78.7800  222.8740 C   0  0  0  0  0  0  0  0  0  0  0  0
  137.4900   79.1740  223.1360 C   0  0  0  0  0  0  0  0  0  0  0  0
  137.1700   80.3690  223.7440 C   0  0  0  0  0  0  0  0  0  0  0  0
  138.2440   81.1920  224.0940 C   0  0  0  0  0  0  0  0  0  0  0  0
  139.5570   80.8100  223.8350 C   0  0  0  0  0  0  0  0  0  0  0  0
  141.2708   79.0820  225.0571 H   0  0  0  0  0  0  0  0  0  0  0  0
  141.9555   77.6313  224.2489 H   0  0  0  0  0  0  0  0  0  0  0  0
  142.8722   79.1760  224.2489 H   0  0  0  0  0  0  0  0  0  0  0  0
  141.7627   79.9420  222.4432 H   0  0  0  0  0  0  0  0  0  0  0  0
  141.3240   77.0700  222.3110 H   0  0  0  0  0  0  0  0  0  0  0  0
  140.0099   77.0406  219.3281 H   0  0  0  0  0  0  0  0  0  0  0  0
  141.6710   76.6271  217.6676 H   0  0  0  0  0  0  0  0  0  0  0  0
  142.1331   78.2481  218.1898 H   0  0  0  0  0  0  0  0  0  0  0  0
  143.9296   76.2209  218.2514 H   0  0  0  0  0  0  0  0  0  0  0  0
  143.9587   77.3979  219.5458 H   0  0  0  0  0  0  0  0  0  0  0  0
  142.9094   74.5866  219.5160 H   0  0  0  0  0  0  0  0  0  0  0  0
  143.4889   75.5245  220.9032 H   0  0  0  0  0  0  0  0  0  0  0  0
  139.5123   73.5836  220.3299 H   0  0  0  0  0  0  0  0  0  0  0  0
  141.2565   73.1994  220.4148 H   0  0  0  0  0  0  0  0  0  0  0  0
  139.9500   73.5180  223.0750 H   0  0  0  0  0  0  0  0  0  0  0  0
  139.1167   69.2118  222.6529 H   0  0  0  0  0  0  0  0  0  0  0  0
  138.7405   68.0750  224.8230 H   0  0  0  0  0  0  0  0  0  0  0  0
  138.9795   68.0478  227.2513 H   0  0  0  0  0  0  0  0  0  0  0  0
  139.7496   69.0815  229.3748 H   0  0  0  0  0  0  0  0  0  0  0  0
  140.9252   71.3085  229.2376 H   0  0  0  0  0  0  0  0  0  0  0  0
  141.2746   72.3948  227.0534 H   0  0  0  0  0  0  0  0  0  0  0  0
  138.9668   77.8125  222.3870 H   0  0  0  0  0  0  0  0  0  0  0  0
  136.6696   78.5012  222.8459 H   0  0  0  0  0  0  0  0  0  0  0  0
  136.1276   80.6587  223.9426 H   0  0  0  0  0  0  0  0  0  0  0  0
  138.0482   82.1580  224.5824 H   0  0  0  0  0  0  0  0  0  0  0  0
  140.3821   81.4788  224.1213 H   0  0  0  0  0  0  0  0  0  0  0  0
  1  2  1  0
  2  3  1  0
  3  4  1  0
  4  5  2  0
  4  6  1  0
  6  7  1  0
  7  8  1  0
  8  9  1  0
  9 10  1  0
 10 11  1  0
 11 12  2  0
 11 13  1  0
 13 14  1  0
 14 15  1  0
 15 16  2  0
 15 17  1  0
 17 18  2  0
 18 19  1  0
 19 20  2  0
 20 21  1  0
 21 22  2  0
 22 23  1  0
 23 24  2  0
 24 25  1  0
 25 26  2  0
  2 27  1  0
 27 28  2  0
 28 29  1  0
 29 30  2  0
 30 31  1  0
 31 32  2  0
 10  6  1  0
 26 17  1  0
 32 27  1  0
 25 20  1  0
  1 33  1  0
  1 34  1  0
  1 35  1  0
  2 36  1  6
  3 37  1  0
  6 38  1  6
  7 39  1  0
  7 40  1  0
  8 41  1  0
  8 42  1  0
  9 43  1  0
  9 44  1  0
 13 45  1  0
 13 46  1  0
 14 47  1  0
 18 48  1  0
 19 49  1  0
 21 50  1  0
 22 51  1  0
 23 52  1  0
 24 53  1  0
 28 54  1  0
 29 55  1  0
 30 56  1  0
 31 57  1  0
 32 58  1  0
M  END
>  <smiles>  (22) 
C[C@@H](NC(=O)[C@H]1CCCN1C(=O)CNC(=O)c1ccc2ccccc2n1)c1ccccc1

>  <score_type>  (22) 
oracle

>  <origin>  (22) 
autodockgpu

>  <m_score__min__energy>  (22) 
-9.4199999999999999

>  <m_primary>  (22) 
energy

>  <rmsd>  (22) 
2.483927299706403

>  <m_score__min__rmsd>  (22) 
2.483927299706403

>  <meeko>  (22) 
{"free_energy": -8.75, "intermolecular_energy": -10.84, "internal_energy": -3.01, "cluster_size": 30, "cluster_id": 1, "rank_in_cluster": 17}

>  <energy>  (22) 
-8.67

>  <cluster_rmsd>  (22) 
1.32

>  <cluster>  (22) 
1

$$$$

     RDKit          3D

 58 61  0  0  0  0  0  0  0  0999 V2000
  142.9160   79.4180  223.0640 C   0  0  0  0  0  0  0  0  0  0  0  0
  141.9270   79.4240  221.9260 C   0  0  1  0  0  0  0  0  0  0  0  0
  141.7750   78.1190  221.3330 N   0  0  0  0  0  0  0  0  0  0  0  0
  141.7580   77.9100  219.9190 C   0  0  0  0  0  0  0  0  0  0  0  0
  141.8780   78.8920  219.1400 O   0  0  0  0  0  0  0  0  0  0  0  0
  141.5950   76.5170  219.4500 C   0  0  1  0  0  0  0  0  0  0  0  0
  142.8190   75.9640  218.7890 C   0  0  0  0  0  0  0  0  0  0  0  0
  143.6140   75.3250  219.9060 C   0  0  0  0  0  0  0  0  0  0  0  0
  142.5460   74.8220  220.8310 C   0  0  0  0  0  0  0  0  0  0  0  0
  141.3380   75.5850  220.5080 N   0  0  0  0  0  0  0  0  0  0  0  0
  140.1160   75.3670  221.2030 C   0  0  0  0  0  0  0  0  0  0  0  0
  139.7180   76.3390  221.9290 O   0  0  0  0  0  0  0  0  0  0  0  0
  139.3500   74.1090  221.0990 C   0  0  0  0  0  0  0  0  0  0  0  0
  139.5060   73.3750  222.3420 N   0  0  0  0  0  0  0  0  0  0  0  0
  139.5670   71.9490  222.3110 C   0  0  0  0  0  0  0  0  0  0  0  0
  139.4860   71.3150  221.2090 O   0  0  0  0  0  0  0  0  0  0  0  0
  139.7240   71.2240  223.5700 C   0  0  0  0  0  0  0  0  0  0  0  0
  139.3900   69.8750  223.6150 C   0  0  0  0  0  0  0  0  0  0  0  0
  139.5390   69.1900  224.8060 C   0  0  0  0  0  0  0  0  0  0  0  0
  140.0120   69.8180  225.9480 C   0  0  0  0  0  0  0  0  0  0  0  0
  140.1740   69.1710  227.1470 C   0  0  0  0  0  0  0  0  0  0  0  0
  140.6450   69.7930  228.2910 C   0  0  0  0  0  0  0  0  0  0  0  0
  140.9630   71.1490  228.1770 C   0  0  0  0  0  0  0  0  0  0  0  0
  140.8050   71.8110  226.9750 C   0  0  0  0  0  0  0  0  0  0  0  0
  140.3320   71.1600  225.8540 C   0  0  0  0  0  0  0  0  0  0  0  0
  140.1910   71.8500  224.6890 N   0  0  0  0  0  0  0  0  0  0  0  0
  140.6530   79.9760  222.4140 C   0  0  0  0  0  0  0  0  0  0  0  0
  139.9910   79.2590  223.4100 C   0  0  0  0  0  0  0  0  0  0  0  0
  138.8010   79.7220  223.9050 C   0  0  0  0  0  0  0  0  0  0  0  0
  138.1970   80.8830  223.4700 C   0  0  0  0  0  0  0  0  0  0  0  0
  138.8690   81.5940  222.4720 C   0  0  0  0  0  0  0  0  0  0  0  0
  140.0790   81.1400  221.9570 C   0  0  0  0  0  0  0  0  0  0  0  0
  142.3737   79.4213  224.0210 H   0  0  0  0  0  0  0  0  0  0  0  0
  143.5425   78.5160  223.0006 H   0  0  0  0  0  0  0  0  0  0  0  0
  143.5534   80.3123  223.0006 H   0  0  0  0  0  0  0  0  0  0  0  0
  142.3052   80.0651  221.1160 H   0  0  0  0  0  0  0  0  0  0  0  0
  141.6730   77.2920  221.9880 H   0  0  0  0  0  0  0  0  0  0  0  0
  140.7471   76.6051  218.7548 H   0  0  0  0  0  0  0  0  0  0  0  0
  142.5442   75.2143  218.0324 H   0  0  0  0  0  0  0  0  0  0  0  0
  143.3937   76.7432  218.2669 H   0  0  0  0  0  0  0  0  0  0  0  0
  144.2326   74.4975  219.5284 H   0  0  0  0  0  0  0  0  0  0  0  0
  144.3176   76.0181  220.3904 H   0  0  0  0  0  0  0  0  0  0  0  0
  142.3743   73.7478  220.6679 H   0  0  0  0  0  0  0  0  0  0  0  0
  142.8333   74.9506  221.8850 H   0  0  0  0  0  0  0  0  0  0  0  0
  138.2865   74.3341  220.9312 H   0  0  0  0  0  0  0  0  0  0  0  0
  139.7212   73.5084  220.2555 H   0  0  0  0  0  0  0  0  0  0  0  0
  139.5740   73.8670  223.2530 H   0  0  0  0  0  0  0  0  0  0  0  0
  139.0136   69.3617  222.7179 H   0  0  0  0  0  0  0  0  0  0  0  0
  139.2765   68.1227  224.8489 H   0  0  0  0  0  0  0  0  0  0  0  0
  139.9164   68.1030  227.2024 H   0  0  0  0  0  0  0  0  0  0  0  0
  140.7627   69.2484  229.2395 H   0  0  0  0  0  0  0  0  0  0  0  0
  141.3430   71.6947  229.0533 H   0  0  0  0  0  0  0  0  0  0  0  0
  141.0614   72.8787  226.9101 H   0  0  0  0  0  0  0  0  0  0  0  0
  140.4232   78.3244  223.7969 H   0  0  0  0  0  0  0  0  0  0  0  0
  138.3006   79.1371  224.6908 H   0  0  0  0  0  0  0  0  0  0  0  0
  137.2395   81.2301  223.8855 H   0  0  0  0  0  0  0  0  0  0  0  0
  138.4339   82.5282  222.0873 H   0  0  0  0  0  0  0  0  0  0  0  0
  140.5850   81.7209  221.1718 H   0  0  0  0  0  0  0  0  0  0  0  0
  1  2  1  0
  2  3  1  0
  3  4  1  0
  4  5  2  0
  4  6  1  0
  6  7  1  0
  7  8  1  0
  8  9  1  0
  9 10  1  0
 10 11  1  0
 11 12  2  0
 11 13  1  0
 13 14  1  0
 14 15  1  0
 15 16  2  0
 15 17  1  0
 17 18  2  0
 18 19  1  0
 19 20  2  0
 20 21  1  0
 21 22  2  0
 22 23  1  0
 23 24  2  0
 24 25  1  0
 25 26  2  0
  2 27  1  0
 27 28  2  0
 28 29  1  0
 29 30  2  0
 30 31  1  0
 31 32  2  0
 10  6  1  0
 26 17  1  0
 32 27  1  0
 25 20  1  0
  1 33  1  0
  1 34  1  0
  1 35  1  0
  2 36  1  6
  3 37  1  0
  6 38  1  6
  7 39  1  0
  7 40  1  0
  8 41  1  0
  8 42  1  0
  9 43  1  0
  9 44  1  0
 13 45  1  0
 13 46  1  0
 14 47  1  0
 18 48  1  0
 19 49  1  0
 21 50  1  0
 22 51  1  0
 23 52  1  0
 24 53  1  0
 28 54  1  0
 29 55  1  0
 30 56  1  0
 31 57  1  0
 32 58  1  0
M  END
>  <smiles>  (23) 
C[C@@H](NC(=O)[C@H]1CCCN1C(=O)CNC(=O)c1ccc2ccccc2n1)c1ccccc1

>  <score_type>  (23) 
oracle

>  <origin>  (23) 
autodockgpu

>  <m_score__min__energy>  (23) 
-9.4199999999999999

>  <m_primary>  (23) 
energy

>  <rmsd>  (23) 
2.2375549402212425

>  <m_score__min__rmsd>  (23) 
2.2375549402212425

>  <meeko>  (23) 
{"free_energy": -8.96, "intermolecular_energy": -11.05, "internal_energy": -2.87, "cluster_size": 30, "cluster_id": 1, "rank_in_cluster": 10}

>  <energy>  (23) 
-8.67

>  <cluster_rmsd>  (23) 
1.24

>  <cluster>  (23) 
1

$$$$

     RDKit          3D

 58 61  0  0  0  0  0  0  0  0999 V2000
  139.2570   77.6330  221.1880 C   0  0  0  0  0  0  0  0  0  0  0  0
  140.4300   77.4070  222.1090 C   0  0  1  0  0  0  0  0  0  0  0  0
  141.4240   76.5470  221.5170 N   0  0  0  0  0  0  0  0  0  0  0  0
  141.3010   75.1220  221.4980 C   0  0  0  0  0  0  0  0  0  0  0  0
  140.2910   74.5750  222.0140 O   0  0  0  0  0  0  0  0  0  0  0  0
  142.3970   74.3650  220.8570 C   0  0  1  0  0  0  0  0  0  0  0  0
  142.1400   72.8920  220.7850 C   0  0  0  0  0  0  0  0  0  0  0  0
  141.4360   72.6800  219.4630 C   0  0  0  0  0  0  0  0  0  0  0  0
  142.0510   73.7290  218.5850 C   0  0  0  0  0  0  0  0  0  0  0  0
  142.6200   74.7310  219.4890 N   0  0  0  0  0  0  0  0  0  0  0  0
  143.2890   75.8840  218.9920 C   0  0  0  0  0  0  0  0  0  0  0  0
  143.9770   76.5300  219.8510 O   0  0  0  0  0  0  0  0  0  0  0  0
  143.2010   76.3140  217.5820 C   0  0  0  0  0  0  0  0  0  0  0  0
  143.1070   77.7630  217.5510 N   0  0  0  0  0  0  0  0  0  0  0  0
  142.1720   78.4220  218.4030 C   0  0  0  0  0  0  0  0  0  0  0  0
  141.4200   77.7570  219.1880 O   0  0  0  0  0  0  0  0  0  0  0  0
  142.0880   79.8810  218.3610 C   0  0  0  0  0  0  0  0  0  0  0  0
  141.1230   80.5210  219.1300 C   0  0  0  0  0  0  0  0  0  0  0  0
  141.0450   81.9010  219.0900 C   0  0  0  0  0  0  0  0  0  0  0  0
  141.9050   82.6510  218.3020 C   0  0  0  0  0  0  0  0  0  0  0  0
  141.8570   84.0220  218.2370 C   0  0  0  0  0  0  0  0  0  0  0  0
  142.7130   84.7760  217.4520 C   0  0  0  0  0  0  0  0  0  0  0  0
  143.6600   84.0710  216.7050 C   0  0  0  0  0  0  0  0  0  0  0  0
  143.7170   82.6920  216.7630 C   0  0  0  0  0  0  0  0  0  0  0  0
  142.8480   81.9700  217.5550 C   0  0  0  0  0  0  0  0  0  0  0  0
  142.9390   80.6120  217.5830 N   0  0  0  0  0  0  0  0  0  0  0  0
  140.9760   78.7150  222.5040 C   0  0  0  0  0  0  0  0  0  0  0  0
  140.0890   79.6300  223.0680 C   0  0  0  0  0  0  0  0  0  0  0  0
  140.5380   80.8640  223.4560 C   0  0  0  0  0  0  0  0  0  0  0  0
  141.8470   81.2730  223.3210 C   0  0  0  0  0  0  0  0  0  0  0  0
  142.7290   80.3480  222.7550 C   0  0  0  0  0  0  0  0  0  0  0  0
  142.2920   79.0890  222.3550 C   0  0  0  0  0  0  0  0  0  0  0  0
  138.3501   77.8077  221.7855 H   0  0  0  0  0  0  0  0  0  0  0  0
  139.4527   78.5100  220.5535 H   0  0  0  0  0  0  0  0  0  0  0  0
  139.1128   76.7461  220.5535 H   0  0  0  0  0  0  0  0  0  0  0  0
  140.0908   76.8770  223.0113 H   0  0  0  0  0  0  0  0  0  0  0  0
  142.2750   77.0070  221.0830 H   0  0  0  0  0  0  0  0  0  0  0  0
  143.2546   74.6102  221.5008 H   0  0  0  0  0  0  0  0  0  0  0  0
  143.0869   72.3328  220.8125 H   0  0  0  0  0  0  0  0  0  0  0  0
  141.5385   72.5362  221.6345 H   0  0  0  0  0  0  0  0  0  0  0  0
  141.6288   71.6712  219.0691 H   0  0  0  0  0  0  0  0  0  0  0  0
  140.3414   72.7608  219.5355 H   0  0  0  0  0  0  0  0  0  0  0  0
  142.8401   73.2880  217.9583 H   0  0  0  0  0  0  0  0  0  0  0  0
  141.3068   74.1741  217.9082 H   0  0  0  0  0  0  0  0  0  0  0  0
  144.0993   75.9880  217.0372 H   0  0  0  0  0  0  0  0  0  0  0  0
  142.3166   75.8670  217.1045 H   0  0  0  0  0  0  0  0  0  0  0  0
  143.7070   78.3270  216.9210 H   0  0  0  0  0  0  0  0  0  0  0  0
  140.4333   79.9397  219.7596 H   0  0  0  0  0  0  0  0  0  0  0  0
  140.2845   82.4149  219.6962 H   0  0  0  0  0  0  0  0  0  0  0  0
  141.1007   84.5474  218.8386 H   0  0  0  0  0  0  0  0  0  0  0  0
  142.6506   85.8737  217.4183 H   0  0  0  0  0  0  0  0  0  0  0  0
  144.3668   84.6191  216.0647 H   0  0  0  0  0  0  0  0  0  0  0  0
  144.4708   82.1585  216.1654 H   0  0  0  0  0  0  0  0  0  0  0  0
  139.0306   79.3615  223.2012 H   0  0  0  0  0  0  0  0  0  0  0  0
  139.8158   81.5658  223.8987 H   0  0  0  0  0  0  0  0  0  0  0  0
  142.1793   82.2717  223.6408 H   0  0  0  0  0  0  0  0  0  0  0  0
  143.7867   80.6201  222.6236 H   0  0  0  0  0  0  0  0  0  0  0  0
  143.0093   78.3819  221.9129 H   0  0  0  0  0  0  0  0  0  0  0  0
  1  2  1  0
  2  3  1  0
  3  4  1  0
  4  5  2  0
  4  6  1  0
  6  7  1  0
  7  8  1  0
  8  9  1  0
  9 10  1  0
 10 11  1  0
 11 12  2  0
 11 13  1  0
 13 14  1  0
 14 15  1  0
 15 16  2  0
 15 17  1  0
 17 18  2  0
 18 19  1  0
 19 20  2  0
 20 21  1  0
 21 22  2  0
 22 23  1  0
 23 24  2  0
 24 25  1  0
 25 26  2  0
  2 27  1  0
 27 28  2  0
 28 29  1  0
 29 30  2  0
 30 31  1  0
 31 32  2  0
 10  6  1  0
 26 17  1  0
 32 27  1  0
 25 20  1  0
  1 33  1  0
  1 34  1  0
  1 35  1  0
  2 36  1  1
  3 37  1  0
  6 38  1  1
  7 39  1  0
  7 40  1  0
  8 41  1  0
  8 42  1  0
  9 43  1  0
  9 44  1  0
 13 45  1  0
 13 46  1  0
 14 47  1  0
 18 48  1  0
 19 49  1  0
 21 50  1  0
 22 51  1  0
 23 52  1  0
 24 53  1  0
 28 54  1  0
 29 55  1  0
 30 56  1  0
 31 57  1  0
 32 58  1  0
M  END
>  <smiles>  (24) 
C[C@@H](NC(=O)[C@H]1CCCN1C(=O)CNC(=O)c1ccc2ccccc2n1)c1ccccc1

>  <score_type>  (24) 
oracle

>  <origin>  (24) 
autodockgpu

>  <m_score__min__energy>  (24) 
-9.4199999999999999

>  <m_primary>  (24) 
energy

>  <rmsd>  (24) 
9.125223684475674

>  <m_score__min__rmsd>  (24) 
9.125223684475674

>  <meeko>  (24) 
{"free_energy": -7.47, "intermolecular_energy": -9.56, "internal_energy": -4.23, "cluster_size": 9, "cluster_id": 6, "rank_in_cluster": 5}

>  <energy>  (24) 
-8.65

>  <cluster_rmsd>  (24) 
1.8

>  <cluster>  (24) 
1

$$$$

     RDKit          3D

 58 61  0  0  0  0  0  0  0  0999 V2000
  139.2470   77.6080  221.2870 C   0  0  0  0  0  0  0  0  0  0  0  0
  140.4560   77.3890  222.1620 C   0  0  1  0  0  0  0  0  0  0  0  0
  141.4320   76.5360  221.5330 N   0  0  0  0  0  0  0  0  0  0  0  0
  141.3140   75.1100  221.5130 C   0  0  0  0  0  0  0  0  0  0  0  0
  140.3250   74.5580  222.0630 O   0  0  0  0  0  0  0  0  0  0  0  0
  142.3890   74.3590  220.8320 C   0  0  1  0  0  0  0  0  0  0  0  0
  142.1130   72.8920  220.7200 C   0  0  0  0  0  0  0  0  0  0  0  0
  141.3840   72.7280  219.4050 C   0  0  0  0  0  0  0  0  0  0  0  0
  141.9970   73.7950  218.5490 C   0  0  0  0  0  0  0  0  0  0  0  0
  142.5940   74.7630  219.4720 N   0  0  0  0  0  0  0  0  0  0  0  0
  143.2690   75.9220  218.9980 C   0  0  0  0  0  0  0  0  0  0  0  0
  143.9270   76.5720  219.8780 O   0  0  0  0  0  0  0  0  0  0  0  0
  143.2190   76.3560  217.5860 C   0  0  0  0  0  0  0  0  0  0  0  0
  143.1150   77.8040  217.5570 N   0  0  0  0  0  0  0  0  0  0  0  0
  142.1740   78.4560  218.4080 C   0  0  0  0  0  0  0  0  0  0  0  0
  141.4270   77.7860  219.1920 O   0  0  0  0  0  0  0  0  0  0  0  0
  142.0810   79.9140  218.3670 C   0  0  0  0  0  0  0  0  0  0  0  0
  141.1190   80.5480  219.1470 C   0  0  0  0  0  0  0  0  0  0  0  0
  141.0310   81.9270  219.1070 C   0  0  0  0  0  0  0  0  0  0  0  0
  141.8780   82.6840  218.3110 C   0  0  0  0  0  0  0  0  0  0  0  0
  141.8210   84.0540  218.2470 C   0  0  0  0  0  0  0  0  0  0  0  0
  142.6630   84.8140  217.4540 C   0  0  0  0  0  0  0  0  0  0  0  0
  143.6070   84.1150  216.6960 C   0  0  0  0  0  0  0  0  0  0  0  0
  143.6740   82.7370  216.7530 C   0  0  0  0  0  0  0  0  0  0  0  0
  142.8180   82.0080  217.5540 C   0  0  0  0  0  0  0  0  0  0  0  0
  142.9190   80.6510  217.5810 N   0  0  0  0  0  0  0  0  0  0  0  0
  141.0090   78.7010  222.5360 C   0  0  0  0  0  0  0  0  0  0  0  0
  140.1300   79.6230  223.1030 C   0  0  0  0  0  0  0  0  0  0  0  0
  140.5860   80.8600  223.4700 C   0  0  0  0  0  0  0  0  0  0  0  0
  141.8940   81.2670  223.3120 C   0  0  0  0  0  0  0  0  0  0  0  0
  142.7660   80.3360  222.7430 C   0  0  0  0  0  0  0  0  0  0  0  0
  142.3220   79.0730  222.3630 C   0  0  0  0  0  0  0  0  0  0  0  0
  138.3611   77.7685  221.9191 H   0  0  0  0  0  0  0  0  0  0  0  0
  139.4092   78.4914  220.6519 H   0  0  0  0  0  0  0  0  0  0  0  0
  139.0890   76.7239  220.6519 H   0  0  0  0  0  0  0  0  0  0  0  0
  140.1545   76.8564  223.0760 H   0  0  0  0  0  0  0  0  0  0  0  0
  142.2650   77.0000  221.0700 H   0  0  0  0  0  0  0  0  0  0  0  0
  143.2596   74.5740  221.4691 H   0  0  0  0  0  0  0  0  0  0  0  0
  143.0534   72.3214  220.7141 H   0  0  0  0  0  0  0  0  0  0  0  0
  141.5218   72.5177  221.5687 H   0  0  0  0  0  0  0  0  0  0  0  0
  141.5575   71.7293  218.9779 H   0  0  0  0  0  0  0  0  0  0  0  0
  140.2918   72.8193  219.4987 H   0  0  0  0  0  0  0  0  0  0  0  0
  142.7698   73.3634  217.8959 H   0  0  0  0  0  0  0  0  0  0  0  0
  141.2468   74.2692  217.8991 H   0  0  0  0  0  0  0  0  0  0  0  0
  144.1353   76.0385  217.0667 H   0  0  0  0  0  0  0  0  0  0  0  0
  142.3525   75.9038  217.0812 H   0  0  0  0  0  0  0  0  0  0  0  0
  143.7120   78.3730  216.9280 H   0  0  0  0  0  0  0  0  0  0  0  0
  140.4403   79.9622  219.7844 H   0  0  0  0  0  0  0  0  0  0  0  0
  140.2723   82.4354  219.7201 H   0  0  0  0  0  0  0  0  0  0  0  0
  141.0678   84.5742  218.8570 H   0  0  0  0  0  0  0  0  0  0  0  0
  142.5930   85.9113  217.4218 H   0  0  0  0  0  0  0  0  0  0  0  0
  144.3030   84.6680  216.0480 H   0  0  0  0  0  0  0  0  0  0  0  0
  144.4253   82.2090  216.1474 H   0  0  0  0  0  0  0  0  0  0  0  0
  139.0735   79.3569  223.2548 H   0  0  0  0  0  0  0  0  0  0  0  0
  139.8708   81.5675  223.9149 H   0  0  0  0  0  0  0  0  0  0  0  0
  142.2317   82.2685  223.6169 H   0  0  0  0  0  0  0  0  0  0  0  0
  143.8218   80.6057  222.5927 H   0  0  0  0  0  0  0  0  0  0  0  0
  143.0322   78.3610  221.9173 H   0  0  0  0  0  0  0  0  0  0  0  0
  1  2  1  0
  2  3  1  0
  3  4  1  0
  4  5  2  0
  4  6  1  0
  6  7  1  0
  7  8  1  0
  8  9  1  0
  9 10  1  0
 10 11  1  0
 11 12  2  0
 11 13  1  0
 13 14  1  0
 14 15  1  0
 15 16  2  0
 15 17  1  0
 17 18  2  0
 18 19  1  0
 19 20  2  0
 20 21  1  0
 21 22  2  0
 22 23  1  0
 23 24  2  0
 24 25  1  0
 25 26  2  0
  2 27  1  0
 27 28  2  0
 28 29  1  0
 29 30  2  0
 30 31  1  0
 31 32  2  0
 10  6  1  0
 26 17  1  0
 32 27  1  0
 25 20  1  0
  1 33  1  0
  1 34  1  0
  1 35  1  0
  2 36  1  1
  3 37  1  0
  6 38  1  1
  7 39  1  0
  7 40  1  0
  8 41  1  0
  8 42  1  0
  9 43  1  0
  9 44  1  0
 13 45  1  0
 13 46  1  0
 14 47  1  0
 18 48  1  0
 19 49  1  0
 21 50  1  0
 22 51  1  0
 23 52  1  0
 24 53  1  0
 28 54  1  0
 29 55  1  0
 30 56  1  0
 31 57  1  0
 32 58  1  0
M  END
>  <smiles>  (25) 
C[C@@H](NC(=O)[C@H]1CCCN1C(=O)CNC(=O)c1ccc2ccccc2n1)c1ccccc1

>  <score_type>  (25) 
oracle

>  <origin>  (25) 
autodockgpu

>  <m_score__min__energy>  (25) 
-9.4199999999999999

>  <m_primary>  (25) 
energy

>  <rmsd>  (25) 
9.135941411217805

>  <m_score__min__rmsd>  (25) 
9.135941411217805

>  <meeko>  (25) 
{"free_energy": -7.49, "intermolecular_energy": -9.58, "internal_energy": -4.23, "cluster_size": 9, "cluster_id": 6, "rank_in_cluster": 3}

>  <energy>  (25) 
-8.61

>  <cluster_rmsd>  (25) 
1.51

>  <cluster>  (25) 
1

$$$$

     RDKit          3D

 58 61  0  0  0  0  0  0  0  0999 V2000
  143.0150   79.3860  222.7550 C   0  0  0  0  0  0  0  0  0  0  0  0
  141.8390   79.1900  221.8300 C   0  0  1  0  0  0  0  0  0  0  0  0
  141.7990   77.8590  221.2790 N   0  0  0  0  0  0  0  0  0  0  0  0
  141.8940   77.6000  219.8760 C   0  0  0  0  0  0  0  0  0  0  0  0
  142.0170   78.5600  219.0710 O   0  0  0  0  0  0  0  0  0  0  0  0
  141.8390   76.1850  219.4510 C   0  0  1  0  0  0  0  0  0  0  0  0
  143.0430   75.7480  218.6780 C   0  0  0  0  0  0  0  0  0  0  0  0
  144.0120   75.2310  219.7180 C   0  0  0  0  0  0  0  0  0  0  0  0
  143.1050   74.6430  220.7560 C   0  0  0  0  0  0  0  0  0  0  0  0
  141.7940   75.2620  220.5460 N   0  0  0  0  0  0  0  0  0  0  0  0
  140.6790   74.9340  221.3670 C   0  0  0  0  0  0  0  0  0  0  0  0
  140.4300   75.7590  222.3080 O   0  0  0  0  0  0  0  0  0  0  0  0
  139.8570   73.7240  221.1550 C   0  0  0  0  0  0  0  0  0  0  0  0
  139.8160   72.9760  222.3990 N   0  0  0  0  0  0  0  0  0  0  0  0
  140.0880   71.5760  222.3830 C   0  0  0  0  0  0  0  0  0  0  0  0
  140.3660   70.9760  221.2940 O   0  0  0  0  0  0  0  0  0  0  0  0
  140.0420   70.8360  223.6430 C   0  0  0  0  0  0  0  0  0  0  0  0
  139.5320   69.5420  223.6440 C   0  0  0  0  0  0  0  0  0  0  0  0
  139.4890   68.8430  224.8360 C   0  0  0  0  0  0  0  0  0  0  0  0
  139.9420   69.4040  226.0200 C   0  0  0  0  0  0  0  0  0  0  0  0
  139.9160   68.7400  227.2220 C   0  0  0  0  0  0  0  0  0  0  0  0
  140.3670   69.2950  228.4070 C   0  0  0  0  0  0  0  0  0  0  0  0
  140.8680   70.5980  228.3360 C   0  0  0  0  0  0  0  0  0  0  0  0
  140.9000   71.2750  227.1330 C   0  0  0  0  0  0  0  0  0  0  0  0
  140.4410   70.6920  225.9690 C   0  0  0  0  0  0  0  0  0  0  0  0
  140.4910   71.3950  224.8040 N   0  0  0  0  0  0  0  0  0  0  0  0
  140.6070   79.5390  222.5570 C   0  0  0  0  0  0  0  0  0  0  0  0
  139.5550   78.6270  222.4980 C   0  0  0  0  0  0  0  0  0  0  0  0
  138.3830   78.8960  223.1530 C   0  0  0  0  0  0  0  0  0  0  0  0
  138.1700   80.0430  223.8890 C   0  0  0  0  0  0  0  0  0  0  0  0
  139.2310   80.9500  223.9410 C   0  0  0  0  0  0  0  0  0  0  0  0
  140.4290   80.6950  223.2820 C   0  0  0  0  0  0  0  0  0  0  0  0
  142.6737   79.3291  223.7992 H   0  0  0  0  0  0  0  0  0  0  0  0
  143.7620   78.6000  222.5701 H   0  0  0  0  0  0  0  0  0  0  0  0
  143.4666   80.3718  222.5701 H   0  0  0  0  0  0  0  0  0  0  0  0
  141.9411   79.8574  220.9616 H   0  0  0  0  0  0  0  0  0  0  0  0
  141.6950   77.0510  221.9570 H   0  0  0  0  0  0  0  0  0  0  0  0
  140.9211   76.1615  218.8452 H   0  0  0  0  0  0  0  0  0  0  0  0
  142.7776   74.9513  217.9674 H   0  0  0  0  0  0  0  0  0  0  0  0
  143.4731   76.5691  218.0857 H   0  0  0  0  0  0  0  0  0  0  0  0
  144.6770   74.4646  219.2933 H   0  0  0  0  0  0  0  0  0  0  0  0
  144.6801   76.0095  220.1150 H   0  0  0  0  0  0  0  0  0  0  0  0
  143.0370   73.5523  220.6302 H   0  0  0  0  0  0  0  0  0  0  0  0
  143.4809   74.8319  221.7724 H   0  0  0  0  0  0  0  0  0  0  0  0
  138.8372   74.0140  220.8617 H   0  0  0  0  0  0  0  0  0  0  0  0
  140.2920   73.1060  220.3557 H   0  0  0  0  0  0  0  0  0  0  0  0
  139.5930   73.4410  223.2990 H   0  0  0  0  0  0  0  0  0  0  0  0
  139.1692   69.0828  222.7126 H   0  0  0  0  0  0  0  0  0  0  0  0
  139.0865   67.8193  224.8451 H   0  0  0  0  0  0  0  0  0  0  0  0
  139.5166   67.7153  227.2440 H   0  0  0  0  0  0  0  0  0  0  0  0
  140.3329   68.7393  229.3557 H   0  0  0  0  0  0  0  0  0  0  0  0
  141.2404   71.0888  229.2473 H   0  0  0  0  0  0  0  0  0  0  0  0
  141.2993   72.2995  227.1016 H   0  0  0  0  0  0  0  0  0  0  0  0
  139.6658   77.6935  221.9268 H   0  0  0  0  0  0  0  0  0  0  0  0
  137.5689   78.1590  223.0889 H   0  0  0  0  0  0  0  0  0  0  0  0
  137.2178   80.2328  224.4061 H   0  0  0  0  0  0  0  0  0  0  0  0
  139.1171   81.8825  224.5133 H   0  0  0  0  0  0  0  0  0  0  0  0
  141.2466   81.4285  223.3412 H   0  0  0  0  0  0  0  0  0  0  0  0
  1  2  1  0
  2  3  1  0
  3  4  1  0
  4  5  2  0
  4  6  1  0
  6  7  1  0
  7  8  1  0
  8  9  1  0
  9 10  1  0
 10 11  1  0
 11 12  2  0
 11 13  1  0
 13 14  1  0
 14 15  1  0
 15 16  2  0
 15 17  1  0
 17 18  2  0
 18 19  1  0
 19 20  2  0
 20 21  1  0
 21 22  2  0
 22 23  1  0
 23 24  2  0
 24 25  1  0
 25 26  2  0
  2 27  1  0
 27 28  2  0
 28 29  1  0
 29 30  2  0
 30 31  1  0
 31 32  2  0
 10  6  1  0
 26 17  1  0
 32 27  1  0
 25 20  1  0
  1 33  1  0
  1 34  1  0
  1 35  1  0
  2 36  1  6
  3 37  1  0
  6 38  1  6
  7 39  1  0
  7 40  1  0
  8 41  1  0
  8 42  1  0
  9 43  1  0
  9 44  1  0
 13 45  1  0
 13 46  1  0
 14 47  1  0
 18 48  1  0
 19 49  1  0
 21 50  1  0
 22 51  1  0
 23 52  1  0
 24 53  1  0
 28 54  1  0
 29 55  1  0
 30 56  1  0
 31 57  1  0
 32 58  1  0
M  END
>  <smiles>  (26) 
C[C@@H](NC(=O)[C@H]1CCCN1C(=O)CNC(=O)c1ccc2ccccc2n1)c1ccccc1

>  <score_type>  (26) 
oracle

>  <origin>  (26) 
autodockgpu

>  <m_score__min__energy>  (26) 
-9.4199999999999999

>  <m_primary>  (26) 
energy

>  <rmsd>  (26) 
2.552177248499518

>  <m_score__min__rmsd>  (26) 
2.552177248499518

>  <meeko>  (26) 
{"free_energy": -9.13, "intermolecular_energy": -11.22, "internal_energy": -2.83, "cluster_size": 30, "cluster_id": 1, "rank_in_cluster": 8}

>  <energy>  (26) 
-8.6

>  <cluster_rmsd>  (26) 
1.87

>  <cluster>  (26) 
1

$$$$

     RDKit          3D

 58 61  0  0  0  0  0  0  0  0999 V2000
  138.9630   77.9350  222.5780 C   0  0  0  0  0  0  0  0  0  0  0  0
  140.4410   77.6720  222.7250 C   0  0  1  0  0  0  0  0  0  0  0  0
  140.9880   77.0000  221.5730 N   0  0  0  0  0  0  0  0  0  0  0  0
  140.9680   75.5770  221.4260 C   0  0  0  0  0  0  0  0  0  0  0  0
  140.4560   74.8640  222.3290 O   0  0  0  0  0  0  0  0  0  0  0  0
  141.5650   75.0230  220.1930 C   0  0  1  0  0  0  0  0  0  0  0  0
  143.0440   75.2330  220.1000 C   0  0  0  0  0  0  0  0  0  0  0  0
  143.6560   74.0140  220.7530 C   0  0  0  0  0  0  0  0  0  0  0  0
  142.6810   72.9270  220.4120 C   0  0  0  0  0  0  0  0  0  0  0  0
  141.4230   73.6010  220.0800 N   0  0  0  0  0  0  0  0  0  0  0  0
  140.2640   72.8650  219.7060 C   0  0  0  0  0  0  0  0  0  0  0  0
  140.4080   72.0910  218.7010 O   0  0  0  0  0  0  0  0  0  0  0  0
  138.9780   72.9800  220.4230 C   0  0  0  0  0  0  0  0  0  0  0  0
  139.1850   72.5740  221.8020 N   0  0  0  0  0  0  0  0  0  0  0  0
  139.5390   71.2220  222.0880 C   0  0  0  0  0  0  0  0  0  0  0  0
  139.6740   70.3690  221.1520 O   0  0  0  0  0  0  0  0  0  0  0  0
  139.7440   70.8280  223.4800 C   0  0  0  0  0  0  0  0  0  0  0  0
  139.3170   69.5700  223.8930 C   0  0  0  0  0  0  0  0  0  0  0  0
  139.5120   69.1980  225.2100 C   0  0  0  0  0  0  0  0  0  0  0  0
  140.1190   70.0500  226.1200 C   0  0  0  0  0  0  0  0  0  0  0  0
  140.3290   69.7160  227.4350 C   0  0  0  0  0  0  0  0  0  0  0  0
  140.9350   70.5620  228.3480 C   0  0  0  0  0  0  0  0  0  0  0  0
  141.3400   71.8110  227.8680 C   0  0  0  0  0  0  0  0  0  0  0  0
  141.1340   72.1580  226.5470 C   0  0  0  0  0  0  0  0  0  0  0  0
  140.5260   71.2900  225.6630 C   0  0  0  0  0  0  0  0  0  0  0  0
  140.3430   71.6720  224.3690 N   0  0  0  0  0  0  0  0  0  0  0  0
  141.1180   78.9470  223.0100 C   0  0  0  0  0  0  0  0  0  0  0  0
  140.3090   80.0520  223.2710 C   0  0  0  0  0  0  0  0  0  0  0  0
  140.8810   81.2660  223.5420 C   0  0  0  0  0  0  0  0  0  0  0  0
  142.2430   81.4730  223.5770 C   0  0  0  0  0  0  0  0  0  0  0  0
  143.0460   80.3600  223.3140 C   0  0  0  0  0  0  0  0  0  0  0  0
  142.4830   79.1180  223.0360 C   0  0  0  0  0  0  0  0  0  0  0  0
  138.5042   78.0166  223.5744 H   0  0  0  0  0  0  0  0  0  0  0  0
  138.8108   78.8743  222.0262 H   0  0  0  0  0  0  0  0  0  0  0  0
  138.4961   77.1058  222.0262 H   0  0  0  0  0  0  0  0  0  0  0  0
  140.6090   76.9839  223.5667 H   0  0  0  0  0  0  0  0  0  0  0  0
  141.4190   77.6000  220.8130 H   0  0  0  0  0  0  0  0  0  0  0  0
  141.0156   75.5629  219.4077 H   0  0  0  0  0  0  0  0  0  0  0  0
  143.3584   75.3068  219.0485 H   0  0  0  0  0  0  0  0  0  0  0  0
  143.3598   76.1658  220.5901 H   0  0  0  0  0  0  0  0  0  0  0  0
  144.6507   73.7988  220.3356 H   0  0  0  0  0  0  0  0  0  0  0  0
  143.8129   74.1333  221.8352 H   0  0  0  0  0  0  0  0  0  0  0  0
  143.0422   72.3463  219.5504 H   0  0  0  0  0  0  0  0  0  0  0  0
  142.5526   72.2245  221.2487 H   0  0  0  0  0  0  0  0  0  0  0  0
  138.6266   74.0219  220.3911 H   0  0  0  0  0  0  0  0  0  0  0  0
  138.2217   72.3372  219.9489 H   0  0  0  0  0  0  0  0  0  0  0  0
  139.0810   73.2490  222.5820 H   0  0  0  0  0  0  0  0  0  0  0  0
  138.8324   68.8830  223.1836 H   0  0  0  0  0  0  0  0  0  0  0  0
  139.1783   68.2043  225.5434 H   0  0  0  0  0  0  0  0  0  0  0  0
  139.9988   68.7254  227.7809 H   0  0  0  0  0  0  0  0  0  0  0  0
  141.0898   70.2669  229.3963 H   0  0  0  0  0  0  0  0  0  0  0  0
  141.8274   72.5243  228.5489 H   0  0  0  0  0  0  0  0  0  0  0  0
  141.4613   73.1465  226.1923 H   0  0  0  0  0  0  0  0  0  0  0  0
  139.2139   79.9487  223.2592 H   0  0  0  0  0  0  0  0  0  0  0  0
  140.2186   82.1211  223.7423 H   0  0  0  0  0  0  0  0  0  0  0  0
  142.6743   82.4601  223.7997 H   0  0  0  0  0  0  0  0  0  0  0  0
  144.1407   80.4673  223.3269 H   0  0  0  0  0  0  0  0  0  0  0  0
  143.1399   78.2592  222.8338 H   0  0  0  0  0  0  0  0  0  0  0  0
  1  2  1  0
  2  3  1  0
  3  4  1  0
  4  5  2  0
  4  6  1  0
  6  7  1  0
  7  8  1  0
  8  9  1  0
  9 10  1  0
 10 11  1  0
 11 12  2  0
 11 13  1  0
 13 14  1  0
 14 15  1  0
 15 16  2  0
 15 17  1  0
 17 18  2  0
 18 19  1  0
 19 20  2  0
 20 21  1  0
 21 22  2  0
 22 23  1  0
 23 24  2  0
 24 25  1  0
 25 26  2  0
  2 27  1  0
 27 28  2  0
 28 29  1  0
 29 30  2  0
 30 31  1  0
 31 32  2  0
 10  6  1  0
 26 17  1  0
 32 27  1  0
 25 20  1  0
  1 33  1  0
  1 34  1  0
  1 35  1  0
  2 36  1  1
  3 37  1  0
  6 38  1  6
  7 39  1  0
  7 40  1  0
  8 41  1  0
  8 42  1  0
  9 43  1  0
  9 44  1  0
 13 45  1  0
 13 46  1  0
 14 47  1  0
 18 48  1  0
 19 49  1  0
 21 50  1  0
 22 51  1  0
 23 52  1  0
 24 53  1  0
 28 54  1  0
 29 55  1  0
 30 56  1  0
 31 57  1  0
 32 58  1  0
M  END
>  <smiles>  (27) 
C[C@@H](NC(=O)[C@H]1CCCN1C(=O)CNC(=O)c1ccc2ccccc2n1)c1ccccc1

>  <score_type>  (27) 
oracle

>  <origin>  (27) 
autodockgpu

>  <m_score__min__energy>  (27) 
-9.4199999999999999

>  <m_primary>  (27) 
energy

>  <rmsd>  (27) 
3.0345745631357857

>  <m_score__min__rmsd>  (27) 
3.0345745631357857

>  <meeko>  (27) 
{"free_energy": -9.37, "intermolecular_energy": -11.46, "internal_energy": -2.68, "cluster_size": 30, "cluster_id": 1, "rank_in_cluster": 3}

>  <energy>  (27) 
-8.54

>  <cluster_rmsd>  (27) 
1.91

>  <cluster>  (27) 
1

$$$$

     RDKit          3D

 58 61  0  0  0  0  0  0  0  0999 V2000
  138.9420   77.4210  222.0880 C   0  0  0  0  0  0  0  0  0  0  0  0
  140.2930   77.1140  222.6840 C   0  0  1  0  0  0  0  0  0  0  0  0
  140.9690   76.0560  221.9750 N   0  0  0  0  0  0  0  0  0  0  0  0
  140.4120   74.7470  221.8250 C   0  0  0  0  0  0  0  0  0  0  0  0
  139.2870   74.4860  222.3270 O   0  0  0  0  0  0  0  0  0  0  0  0
  141.2150   73.7600  221.0730 C   0  0  1  0  0  0  0  0  0  0  0  0
  140.3900   72.7010  220.4110 C   0  0  0  0  0  0  0  0  0  0  0  0
  140.0740   73.2510  219.0380 C   0  0  0  0  0  0  0  0  0  0  0  0
  141.2980   74.0510  218.7080 C   0  0  0  0  0  0  0  0  0  0  0  0
  141.9540   74.3340  219.9870 N   0  0  0  0  0  0  0  0  0  0  0  0
  143.1590   75.0850  220.0520 C   0  0  0  0  0  0  0  0  0  0  0  0
  143.0420   76.3310  219.7980 O   0  0  0  0  0  0  0  0  0  0  0  0
  144.4640   74.4790  220.3880 C   0  0  0  0  0  0  0  0  0  0  0  0
  144.3500   73.0390  220.2400 N   0  0  0  0  0  0  0  0  0  0  0  0
  145.3420   72.3320  219.4970 C   0  0  0  0  0  0  0  0  0  0  0  0
  146.3230   72.9460  218.9650 O   0  0  0  0  0  0  0  0  0  0  0  0
  145.2150   70.8830  219.3560 C   0  0  0  0  0  0  0  0  0  0  0  0
  146.3620   70.1250  219.1460 C   0  0  0  0  0  0  0  0  0  0  0  0
  146.2410   68.7540  219.0120 C   0  0  0  0  0  0  0  0  0  0  0  0
  145.0070   68.1270  219.0830 C   0  0  0  0  0  0  0  0  0  0  0  0
  144.8480   66.7690  218.9550 C   0  0  0  0  0  0  0  0  0  0  0  0
  143.6180   66.1370  219.0250 C   0  0  0  0  0  0  0  0  0  0  0  0
  142.5060   66.9570  219.2380 C   0  0  0  0  0  0  0  0  0  0  0  0
  142.6540   68.3240  219.3680 C   0  0  0  0  0  0  0  0  0  0  0  0
  143.8950   68.9220  219.2930 C   0  0  0  0  0  0  0  0  0  0  0  0
  143.9960   70.2730  219.4270 N   0  0  0  0  0  0  0  0  0  0  0  0
  141.0800   78.3570  222.7290 C   0  0  0  0  0  0  0  0  0  0  0  0
  141.4280   78.9330  221.5090 C   0  0  0  0  0  0  0  0  0  0  0  0
  142.1600   80.0900  221.4870 C   0  0  0  0  0  0  0  0  0  0  0  0
  142.5870   80.7410  222.6240 C   0  0  0  0  0  0  0  0  0  0  0  0
  142.2320   80.1560  223.8420 C   0  0  0  0  0  0  0  0  0  0  0  0
  141.4890   78.9800  223.8860 C   0  0  0  0  0  0  0  0  0  0  0  0
  138.2139   77.5864  222.8958 H   0  0  0  0  0  0  0  0  0  0  0  0
  139.0124   78.3260  221.4668 H   0  0  0  0  0  0  0  0  0  0  0  0
  138.6144   76.5744  221.4668 H   0  0  0  0  0  0  0  0  0  0  0  0
  140.1640   76.7376  223.7095 H   0  0  0  0  0  0  0  0  0  0  0  0
  141.9160   76.2750  221.5520 H   0  0  0  0  0  0  0  0  0  0  0  0
  141.8709   73.3514  221.8559 H   0  0  0  0  0  0  0  0  0  0  0  0
  140.9583   71.7627  220.3300 H   0  0  0  0  0  0  0  0  0  0  0  0
  139.4792   72.4697  220.9827 H   0  0  0  0  0  0  0  0  0  0  0  0
  139.9241   72.4390  218.3113 H   0  0  0  0  0  0  0  0  0  0  0  0
  139.1474   73.8431  219.0099 H   0  0  0  0  0  0  0  0  0  0  0  0
  141.9679   73.4724  218.0549 H   0  0  0  0  0  0  0  0  0  0  0  0
  141.0411   74.9777  218.1738 H   0  0  0  0  0  0  0  0  0  0  0  0
  145.2384   74.8626  219.7075 H   0  0  0  0  0  0  0  0  0  0  0  0
  144.7448   74.7326  221.4209 H   0  0  0  0  0  0  0  0  0  0  0  0
  143.5620   72.5150  220.6630 H   0  0  0  0  0  0  0  0  0  0  0  0
  147.3486   70.6078  219.0875 H   0  0  0  0  0  0  0  0  0  0  0  0
  147.1437   68.1479  218.8454 H   0  0  0  0  0  0  0  0  0  0  0  0
  145.7433   66.1519  218.7884 H   0  0  0  0  0  0  0  0  0  0  0  0
  143.5209   65.0465  218.9185 H   0  0  0  0  0  0  0  0  0  0  0  0
  141.5034   66.5091  219.3027 H   0  0  0  0  0  0  0  0  0  0  0  0
  141.7641   68.9488  219.5347 H   0  0  0  0  0  0  0  0  0  0  0  0
  141.1156   78.4598  220.5664 H   0  0  0  0  0  0  0  0  0  0  0  0
  142.4210   80.5227  220.5099 H   0  0  0  0  0  0  0  0  0  0  0  0
  143.1747   81.6696  222.5753 H   0  0  0  0  0  0  0  0  0  0  0  0
  142.5451   80.6331  224.7824 H   0  0  0  0  0  0  0  0  0  0  0  0
  141.2248   78.5420  224.8598 H   0  0  0  0  0  0  0  0  0  0  0  0
  1  2  1  0
  2  3  1  0
  3  4  1  0
  4  5  2  0
  4  6  1  0
  6  7  1  0
  7  8  1  0
  8  9  1  0
  9 10  1  0
 10 11  1  0
 11 12  2  0
 11 13  1  0
 13 14  1  0
 14 15  1  0
 15 16  2  0
 15 17  1  0
 17 18  2  0
 18 19  1  0
 19 20  2  0
 20 21  1  0
 21 22  2  0
 22 23  1  0
 23 24  2  0
 24 25  1  0
 25 26  2  0
  2 27  1  0
 27 28  2  0
 28 29  1  0
 29 30  2  0
 30 31  1  0
 31 32  2  0
 10  6  1  0
 26 17  1  0
 32 27  1  0
 25 20  1  0
  1 33  1  0
  1 34  1  0
  1 35  1  0
  2 36  1  1
  3 37  1  0
  6 38  1  1
  7 39  1  0
  7 40  1  0
  8 41  1  0
  8 42  1  0
  9 43  1  0
  9 44  1  0
 13 45  1  0
 13 46  1  0
 14 47  1  0
 18 48  1  0
 19 49  1  0
 21 50  1  0
 22 51  1  0
 23 52  1  0
 24 53  1  0
 28 54  1  0
 29 55  1  0
 30 56  1  0
 31 57  1  0
 32 58  1  0
M  END
>  <smiles>  (28) 
C[C@@H](NC(=O)[C@H]1CCCN1C(=O)CNC(=O)c1ccc2ccccc2n1)c1ccccc1

>  <score_type>  (28) 
oracle

>  <origin>  (28) 
autodockgpu

>  <m_score__min__energy>  (28) 
-9.4199999999999999

>  <m_primary>  (28) 
energy

>  <rmsd>  (28) 
6.11315887263977

>  <m_score__min__rmsd>  (28) 
6.11315887263977

>  <meeko>  (28) 
{"free_energy": -8.29, "intermolecular_energy": -10.38, "internal_energy": -2.93, "cluster_size": 1, "cluster_id": 5, "rank_in_cluster": 1}

>  <energy>  (28) 
-8.53

>  <cluster_rmsd>  (28) 
0.93

>  <cluster>  (28) 
1

$$$$

     RDKit          3D

 58 61  0  0  0  0  0  0  0  0999 V2000
  138.4990   79.4430  221.6400 C   0  0  0  0  0  0  0  0  0  0  0  0
  139.4130   78.4990  222.3810 C   0  0  1  0  0  0  0  0  0  0  0  0
  139.7630   77.3490  221.5860 N   0  0  0  0  0  0  0  0  0  0  0  0
  140.5280   77.4450  220.3820 C   0  0  0  0  0  0  0  0  0  0  0  0
  140.9230   78.5720  219.9810 O   0  0  0  0  0  0  0  0  0  0  0  0
  140.8130   76.1830  219.6660 C   0  0  1  0  0  0  0  0  0  0  0  0
  141.9370   76.2960  218.6840 C   0  0  0  0  0  0  0  0  0  0  0  0
  143.1810   75.9450  219.4680 C   0  0  0  0  0  0  0  0  0  0  0  0
  142.6810   74.9260  220.4490 C   0  0  0  0  0  0  0  0  0  0  0  0
  141.2320   75.1200  220.5310 N   0  0  0  0  0  0  0  0  0  0  0  0
  140.4230   74.3150  221.3800 C   0  0  0  0  0  0  0  0  0  0  0  0
  139.9230   74.9160  222.3900 O   0  0  0  0  0  0  0  0  0  0  0  0
  140.1720   72.8820  221.1250 C   0  0  0  0  0  0  0  0  0  0  0  0
  140.2360   72.1740  222.3910 N   0  0  0  0  0  0  0  0  0  0  0  0
  139.6570   70.8740  222.4960 C   0  0  0  0  0  0  0  0  0  0  0  0
  139.0850   70.3300  221.4960 O   0  0  0  0  0  0  0  0  0  0  0  0
  139.7290   70.1730  223.7770 C   0  0  0  0  0  0  0  0  0  0  0  0
  139.1670   68.9050  223.8820 C   0  0  0  0  0  0  0  0  0  0  0  0
  139.2360   68.2430  225.0930 C   0  0  0  0  0  0  0  0  0  0  0  0
  139.8500   68.8160  226.1970 C   0  0  0  0  0  0  0  0  0  0  0  0
  139.9380   68.1880  227.4150 C   0  0  0  0  0  0  0  0  0  0  0  0
  140.5500   68.7550  228.5190 C   0  0  0  0  0  0  0  0  0  0  0  0
  141.0960   70.0300  228.3460 C   0  0  0  0  0  0  0  0  0  0  0  0
  141.0130   70.6700  227.1250 C   0  0  0  0  0  0  0  0  0  0  0  0
  140.3950   70.0770  226.0430 C   0  0  0  0  0  0  0  0  0  0  0  0
  140.3360   70.7440  224.8580 N   0  0  0  0  0  0  0  0  0  0  0  0
  140.5940   79.2510  222.8380 C   0  0  0  0  0  0  0  0  0  0  0  0
  140.3700   80.5120  223.3880 C   0  0  0  0  0  0  0  0  0  0  0  0
  141.4290   81.2580  223.8300 C   0  0  0  0  0  0  0  0  0  0  0  0
  142.7380   80.8340  223.7660 C   0  0  0  0  0  0  0  0  0  0  0  0
  142.9520   79.5680  223.2130 C   0  0  0  0  0  0  0  0  0  0  0  0
  141.8890   78.7940  222.7580 C   0  0  0  0  0  0  0  0  0  0  0  0
  137.9225   80.0384  222.3632 H   0  0  0  0  0  0  0  0  0  0  0  0
  139.0993   80.1142  221.0082 H   0  0  0  0  0  0  0  0  0  0  0  0
  137.8088   78.8647  221.0082 H   0  0  0  0  0  0  0  0  0  0  0  0
  138.8875   78.0937  223.2582 H   0  0  0  0  0  0  0  0  0  0  0  0
  139.4300   76.4000  221.9220 H   0  0  0  0  0  0  0  0  0  0  0  0
  139.8505   75.9712  219.1774 H   0  0  0  0  0  0  0  0  0  0  0  0
  141.7942   75.5922  217.8508 H   0  0  0  0  0  0  0  0  0  0  0  0
  141.9984   77.3012  218.2414 H   0  0  0  0  0  0  0  0  0  0  0  0
  143.9545   75.5177  218.8129 H   0  0  0  0  0  0  0  0  0  0  0  0
  143.6529   76.8153  219.9475 H   0  0  0  0  0  0  0  0  0  0  0  0
  142.9110   73.9102  220.0952 H   0  0  0  0  0  0  0  0  0  0  0  0
  143.1593   75.0455  221.4323 H   0  0  0  0  0  0  0  0  0  0  0  0
  139.1756   72.7532  220.6771 H   0  0  0  0  0  0  0  0  0  0  0  0
  140.9261   72.4836  220.4302 H   0  0  0  0  0  0  0  0  0  0  0  0
  140.6960   72.5950  223.2200 H   0  0  0  0  0  0  0  0  0  0  0  0
  138.6761   68.4372  223.0159 H   0  0  0  0  0  0  0  0  0  0  0  0
  138.7943   67.2396  225.1835 H   0  0  0  0  0  0  0  0  0  0  0  0
  139.5002   67.1842  227.5182 H   0  0  0  0  0  0  0  0  0  0  0  0
  140.6041   68.2291  229.4836 H   0  0  0  0  0  0  0  0  0  0  0  0
  141.5961   70.5280  229.1897 H   0  0  0  0  0  0  0  0  0  0  0  0
  141.4488   71.6737  227.0126 H   0  0  0  0  0  0  0  0  0  0  0  0
  139.3460   80.9061  223.4665 H   0  0  0  0  0  0  0  0  0  0  0  0
  141.2237   82.2497  224.2595 H   0  0  0  0  0  0  0  0  0  0  0  0
  143.5686   81.4568  224.1297 H   0  0  0  0  0  0  0  0  0  0  0  0
  143.9774   79.1774  223.1363 H   0  0  0  0  0  0  0  0  0  0  0  0
  142.0873   77.8013  222.3276 H   0  0  0  0  0  0  0  0  0  0  0  0
  1  2  1  0
  2  3  1  0
  3  4  1  0
  4  5  2  0
  4  6  1  0
  6  7  1  0
  7  8  1  0
  8  9  1  0
  9 10  1  0
 10 11  1  0
 11 12  2  0
 11 13  1  0
 13 14  1  0
 14 15  1  0
 15 16  2  0
 15 17  1  0
 17 18  2  0
 18 19  1  0
 19 20  2  0
 20 21  1  0
 21 22  2  0
 22 23  1  0
 23 24  2  0
 24 25  1  0
 25 26  2  0
  2 27  1  0
 27 28  2  0
 28 29  1  0
 29 30  2  0
 30 31  1  0
 31 32  2  0
 10  6  1  0
 26 17  1  0
 32 27  1  0
 25 20  1  0
  1 33  1  0
  1 34  1  0
  1 35  1  0
  2 36  1  1
  3 37  1  0
  6 38  1  6
  7 39  1  0
  7 40  1  0
  8 41  1  0
  8 42  1  0
  9 43  1  0
  9 44  1  0
 13 45  1  0
 13 46  1  0
 14 47  1  0
 18 48  1  0
 19 49  1  0
 21 50  1  0
 22 51  1  0
 23 52  1  0
 24 53  1  0
 28 54  1  0
 29 55  1  0
 30 56  1  0
 31 57  1  0
 32 58  1  0
M  END
>  <smiles>  (29) 
C[C@@H](NC(=O)[C@H]1CCCN1C(=O)CNC(=O)c1ccc2ccccc2n1)c1ccccc1

>  <score_type>  (29) 
oracle

>  <origin>  (29) 
autodockgpu

>  <m_score__min__energy>  (29) 
-9.4199999999999999

>  <m_primary>  (29) 
energy

>  <rmsd>  (29) 
2.831270298329463

>  <m_score__min__rmsd>  (29) 
2.831270298329463

>  <meeko>  (29) 
{"free_energy": -8.78, "intermolecular_energy": -10.86, "internal_energy": -2.77, "cluster_size": 30, "cluster_id": 1, "rank_in_cluster": 16}

>  <energy>  (29) 
-8.48

>  <cluster_rmsd>  (29) 
1.86

>  <cluster>  (29) 
1

$$$$

     RDKit          3D

 58 61  0  0  0  0  0  0  0  0999 V2000
  137.8940   69.5980  224.9630 C   0  0  0  0  0  0  0  0  0  0  0  0
  139.3670   69.8170  224.7180 C   0  0  1  0  0  0  0  0  0  0  0  0
  139.6090   70.5640  223.5090 N   0  0  0  0  0  0  0  0  0  0  0  0
  139.6400   69.9530  222.2160 C   0  0  0  0  0  0  0  0  0  0  0  0
  139.4510   68.7130  222.1070 O   0  0  0  0  0  0  0  0  0  0  0  0
  139.8990   70.8400  221.0620 C   0  0  1  0  0  0  0  0  0  0  0  0
  139.6560   70.1830  219.7390 C   0  0  0  0  0  0  0  0  0  0  0  0
  138.2030   70.4630  219.4230 C   0  0  0  0  0  0  0  0  0  0  0  0
  137.9830   71.8150  220.0310 C   0  0  0  0  0  0  0  0  0  0  0  0
  139.0460   71.9910  221.0240 N   0  0  0  0  0  0  0  0  0  0  0  0
  139.1430   73.1760  221.8040 C   0  0  0  0  0  0  0  0  0  0  0  0
  140.0540   73.1690  222.6990 O   0  0  0  0  0  0  0  0  0  0  0  0
  138.2590   74.3420  221.6020 C   0  0  0  0  0  0  0  0  0  0  0  0
  138.9930   75.5410  221.9690 N   0  0  0  0  0  0  0  0  0  0  0  0
  138.2770   76.6850  222.4330 C   0  0  0  0  0  0  0  0  0  0  0  0
  137.0070   76.6680  222.5280 O   0  0  0  0  0  0  0  0  0  0  0  0
  139.0290   77.8840  222.7980 C   0  0  0  0  0  0  0  0  0  0  0  0
  138.3310   79.0190  223.1990 C   0  0  0  0  0  0  0  0  0  0  0  0
  139.0420   80.1520  223.5450 C   0  0  0  0  0  0  0  0  0  0  0  0
  140.4280   80.1790  223.5000 C   0  0  0  0  0  0  0  0  0  0  0  0
  141.1680   81.2850  223.8360 C   0  0  0  0  0  0  0  0  0  0  0  0
  142.5510   81.3170  223.7930 C   0  0  0  0  0  0  0  0  0  0  0  0
  143.1910   80.1440  223.3830 C   0  0  0  0  0  0  0  0  0  0  0  0
  142.4560   79.0250  223.0430 C   0  0  0  0  0  0  0  0  0  0  0  0
  141.0770   79.0260  223.0960 C   0  0  0  0  0  0  0  0  0  0  0  0
  140.3930   77.9010  222.7520 N   0  0  0  0  0  0  0  0  0  0  0  0
  139.9500   70.4610  225.9060 C   0  0  0  0  0  0  0  0  0  0  0  0
  139.6490   69.8970  227.1450 C   0  0  0  0  0  0  0  0  0  0  0  0
  140.1620   70.4510  228.2870 C   0  0  0  0  0  0  0  0  0  0  0  0
  140.9790   71.5610  228.2930 C   0  0  0  0  0  0  0  0  0  0  0  0
  141.2740   72.1190  227.0460 C   0  0  0  0  0  0  0  0  0  0  0  0
  140.7630   71.5700  225.8740 C   0  0  0  0  0  0  0  0  0  0  0  0
  137.7027   69.5696  226.0459 H   0  0  0  0  0  0  0  0  0  0  0  0
  137.3208   70.4208  224.5109 H   0  0  0  0  0  0  0  0  0  0  0  0
  137.5849   68.6440  224.5109 H   0  0  0  0  0  0  0  0  0  0  0  0
  139.8603   68.8464  224.5613 H   0  0  0  0  0  0  0  0  0  0  0  0
  139.7680   71.6080  223.6000 H   0  0  0  0  0  0  0  0  0  0  0  0
  140.9559   71.1071  221.2089 H   0  0  0  0  0  0  0  0  0  0  0  0
  140.3097   70.6151  218.9670 H   0  0  0  0  0  0  0  0  0  0  0  0
  139.8720   69.1048  219.7675 H   0  0  0  0  0  0  0  0  0  0  0  0
  138.0313   70.4848  218.3367 H   0  0  0  0  0  0  0  0  0  0  0  0
  137.5180   69.6951  219.8117 H   0  0  0  0  0  0  0  0  0  0  0  0
  138.0483   72.5960  219.2592 H   0  0  0  0  0  0  0  0  0  0  0  0
  136.9866   71.8920  220.4906 H   0  0  0  0  0  0  0  0  0  0  0  0
  137.9558   74.4002  220.5462 H   0  0  0  0  0  0  0  0  0  0  0  0
  137.3567   74.2453  222.2237 H   0  0  0  0  0  0  0  0  0  0  0  0
  140.0270   75.5810  221.9010 H   0  0  0  0  0  0  0  0  0  0  0  0
  137.2318   79.0143  223.2398 H   0  0  0  0  0  0  0  0  0  0  0  0
  138.4967   81.0527  223.8633 H   0  0  0  0  0  0  0  0  0  0  0  0
  140.6347   82.1923  224.1558 H   0  0  0  0  0  0  0  0  0  0  0  0
  143.1174   82.2192  224.0674 H   0  0  0  0  0  0  0  0  0  0  0  0
  144.2893   80.1117  223.3306 H   0  0  0  0  0  0  0  0  0  0  0  0
  142.9814   78.1131  222.7230 H   0  0  0  0  0  0  0  0  0  0  0  0
  139.0015   69.0098  227.2048 H   0  0  0  0  0  0  0  0  0  0  0  0
  139.9087   69.9855  229.2509 H   0  0  0  0  0  0  0  0  0  0  0  0
  141.3767   71.9842  229.2272 H   0  0  0  0  0  0  0  0  0  0  0  0
  141.9209   73.0069  226.9902 H   0  0  0  0  0  0  0  0  0  0  0  0
  141.0131   72.0301  224.9067 H   0  0  0  0  0  0  0  0  0  0  0  0
  1  2  1  0
  2  3  1  0
  3  4  1  0
  4  5  2  0
  4  6  1  0
  6  7  1  0
  7  8  1  0
  8  9  1  0
  9 10  1  0
 10 11  1  0
 11 12  2  0
 11 13  1  0
 13 14  1  0
 14 15  1  0
 15 16  2  0
 15 17  1  0
 17 18  2  0
 18 19  1  0
 19 20  2  0
 20 21  1  0
 21 22  2  0
 22 23  1  0
 23 24  2  0
 24 25  1  0
 25 26  2  0
  2 27  1  0
 27 28  2  0
 28 29  1  0
 29 30  2  0
 30 31  1  0
 31 32  2  0
 10  6  1  0
 26 17  1  0
 32 27  1  0
 25 20  1  0
  1 33  1  0
  1 34  1  0
  1 35  1  0
  2 36  1  6
  3 37  1  0
  6 38  1  6
  7 39  1  0
  7 40  1  0
  8 41  1  0
  8 42  1  0
  9 43  1  0
  9 44  1  0
 13 45  1  0
 13 46  1  0
 14 47  1  0
 18 48  1  0
 19 49  1  0
 21 50  1  0
 22 51  1  0
 23 52  1  0
 24 53  1  0
 28 54  1  0
 29 55  1  0
 30 56  1  0
 31 57  1  0
 32 58  1  0
M  END
>  <smiles>  (30) 
C[C@@H](NC(=O)[C@H]1CCCN1C(=O)CNC(=O)c1ccc2ccccc2n1)c1ccccc1

>  <score_type>  (30) 
oracle

>  <origin>  (30) 
autodockgpu

>  <m_score__min__energy>  (30) 
-9.4199999999999999

>  <m_primary>  (30) 
energy

>  <rmsd>  (30) 
9.292599057774297

>  <m_score__min__rmsd>  (30) 
9.292599057774297

>  <meeko>  (30) 
{"free_energy": -8.51, "intermolecular_energy": -10.59, "internal_energy": -2.85, "cluster_size": 8, "cluster_id": 3, "rank_in_cluster": 5}

>  <energy>  (30) 
-8.1

>  <cluster_rmsd>  (30) 
1.75

>  <cluster>  (30) 
1

$$$$

     RDKit          3D

 58 61  0  0  0  0  0  0  0  0999 V2000
  139.1860   77.6310  221.1920 C   0  0  0  0  0  0  0  0  0  0  0  0
  140.3590   77.4250  222.1170 C   0  0  1  0  0  0  0  0  0  0  0  0
  141.3760   76.5940  221.5240 N   0  0  0  0  0  0  0  0  0  0  0  0
  141.2910   75.1660  221.5030 C   0  0  0  0  0  0  0  0  0  0  0  0
  140.2960   74.5920  222.0180 O   0  0  0  0  0  0  0  0  0  0  0  0
  142.4070   74.4390  220.8610 C   0  0  1  0  0  0  0  0  0  0  0  0
  142.1840   72.9610  220.7750 C   0  0  0  0  0  0  0  0  0  0  0  0
  141.4910   72.7440  219.4480 C   0  0  0  0  0  0  0  0  0  0  0  0
  142.0860   73.8140  218.5830 C   0  0  0  0  0  0  0  0  0  0  0  0
  142.6290   74.8210  219.4980 N   0  0  0  0  0  0  0  0  0  0  0  0
  143.2730   75.9930  219.0130 C   0  0  0  0  0  0  0  0  0  0  0  0
  143.9240   76.6610  219.8850 O   0  0  0  0  0  0  0  0  0  0  0  0
  143.2020   76.4190  217.6000 C   0  0  0  0  0  0  0  0  0  0  0  0
  143.1020   77.8680  217.5650 N   0  0  0  0  0  0  0  0  0  0  0  0
  142.1600   78.5260  218.4110 C   0  0  0  0  0  0  0  0  0  0  0  0
  141.4090   77.8600  219.1950 O   0  0  0  0  0  0  0  0  0  0  0  0
  142.0710   79.9840  218.3640 C   0  0  0  0  0  0  0  0  0  0  0  0
  141.1020   80.6230  219.1310 C   0  0  0  0  0  0  0  0  0  0  0  0
  141.0180   82.0020  219.0860 C   0  0  0  0  0  0  0  0  0  0  0  0
  141.8750   82.7530  218.2970 C   0  0  0  0  0  0  0  0  0  0  0  0
  141.8210   84.1230  218.2270 C   0  0  0  0  0  0  0  0  0  0  0  0
  142.6740   84.8790  217.4400 C   0  0  0  0  0  0  0  0  0  0  0  0
  143.6240   84.1750  216.6950 C   0  0  0  0  0  0  0  0  0  0  0  0
  143.6870   82.7970  216.7580 C   0  0  0  0  0  0  0  0  0  0  0  0
  142.8210   82.0740  217.5520 C   0  0  0  0  0  0  0  0  0  0  0  0
  142.9180   80.7160  217.5850 N   0  0  0  0  0  0  0  0  0  0  0  0
  140.8730   78.7430  222.5240 C   0  0  0  0  0  0  0  0  0  0  0  0
  142.2080   79.0210  222.2380 C   0  0  0  0  0  0  0  0  0  0  0  0
  142.7430   80.2300  222.5920 C   0  0  0  0  0  0  0  0  0  0  0  0
  142.0270   81.2200  223.2320 C   0  0  0  0  0  0  0  0  0  0  0  0
  140.6900   80.9320  223.5140 C   0  0  0  0  0  0  0  0  0  0  0  0
  140.1280   79.7080  223.1610 C   0  0  0  0  0  0  0  0  0  0  0  0
  138.2742   77.7911  221.7861 H   0  0  0  0  0  0  0  0  0  0  0  0
  139.3694   78.5107  220.5576 H   0  0  0  0  0  0  0  0  0  0  0  0
  139.0587   76.7415  220.5576 H   0  0  0  0  0  0  0  0  0  0  0  0
  140.0273   76.8800  223.0130 H   0  0  0  0  0  0  0  0  0  0  0  0
  142.2140   77.0760  221.0900 H   0  0  0  0  0  0  0  0  0  0  0  0
  143.2551   74.6983  221.5117 H   0  0  0  0  0  0  0  0  0  0  0  0
  143.1433   72.4234  220.8022 H   0  0  0  0  0  0  0  0  0  0  0  0
  141.5868   72.5844  221.6185 H   0  0  0  0  0  0  0  0  0  0  0  0
  141.7087   71.7433  219.0464 H   0  0  0  0  0  0  0  0  0  0  0  0
  140.3944   72.7986  219.5156 H   0  0  0  0  0  0  0  0  0  0  0  0
  142.8874   73.3963  217.9559 H   0  0  0  0  0  0  0  0  0  0  0  0
  141.3346   74.2486  217.9073 H   0  0  0  0  0  0  0  0  0  0  0  0
  144.1089   76.0958  217.0680 H   0  0  0  0  0  0  0  0  0  0  0  0
  142.3264   75.9667  217.1113 H   0  0  0  0  0  0  0  0  0  0  0  0
  143.7020   78.4330  216.9360 H   0  0  0  0  0  0  0  0  0  0  0  0
  140.4146   80.0409  219.7623 H   0  0  0  0  0  0  0  0  0  0  0  0
  140.2544   82.5145  219.6895 H   0  0  0  0  0  0  0  0  0  0  0  0
  141.0618   84.6469  218.8263 H   0  0  0  0  0  0  0  0  0  0  0  0
  142.6072   85.9764  217.4033 H   0  0  0  0  0  0  0  0  0  0  0  0
  144.3282   84.7238  216.0524 H   0  0  0  0  0  0  0  0  0  0  0  0
  144.4435   82.2647  216.1627 H   0  0  0  0  0  0  0  0  0  0  0  0
  142.8305   78.2705  221.7289 H   0  0  0  0  0  0  0  0  0  0  0  0
  143.7995   80.4222  222.3536 H   0  0  0  0  0  0  0  0  0  0  0  0
  142.4837   82.1827  223.5050 H   0  0  0  0  0  0  0  0  0  0  0  0
  140.0705   81.6847  224.0236 H   0  0  0  0  0  0  0  0  0  0  0  0
  139.0717   79.5096  223.3952 H   0  0  0  0  0  0  0  0  0  0  0  0
  1  2  1  0
  2  3  1  0
  3  4  1  0
  4  5  2  0
  4  6  1  0
  6  7  1  0
  7  8  1  0
  8  9  1  0
  9 10  1  0
 10 11  1  0
 11 12  2  0
 11 13  1  0
 13 14  1  0
 14 15  1  0
 15 16  2  0
 15 17  1  0
 17 18  2  0
 18 19  1  0
 19 20  2  0
 20 21  1  0
 21 22  2  0
 22 23  1  0
 23 24  2  0
 24 25  1  0
 25 26  2  0
  2 27  1  0
 27 28  2  0
 28 29  1  0
 29 30  2  0
 30 31  1  0
 31 32  2  0
 10  6  1  0
 26 17  1  0
 32 27  1  0
 25 20  1  0
  1 33  1  0
  1 34  1  0
  1 35  1  0
  2 36  1  1
  3 37  1  0
  6 38  1  1
  7 39  1  0
  7 40  1  0
  8 41  1  0
  8 42  1  0
  9 43  1  0
  9 44  1  0
 13 45  1  0
 13 46  1  0
 14 47  1  0
 18 48  1  0
 19 49  1  0
 21 50  1  0
 22 51  1  0
 23 52  1  0
 24 53  1  0
 28 54  1  0
 29 55  1  0
 30 56  1  0
 31 57  1  0
 32 58  1  0
M  END
>  <smiles>  (31) 
C[C@@H](NC(=O)[C@H]1CCCN1C(=O)CNC(=O)c1ccc2ccccc2n1)c1ccccc1

>  <score_type>  (31) 
oracle

>  <origin>  (31) 
autodockgpu

>  <m_score__min__energy>  (31) 
-9.4199999999999999

>  <m_primary>  (31) 
energy

>  <rmsd>  (31) 
9.231920431802324

>  <m_score__min__rmsd>  (31) 
9.231920431802324

>  <meeko>  (31) 
{"free_energy": -7.46, "intermolecular_energy": -9.54, "internal_energy": -4.24, "cluster_size": 9, "cluster_id": 6, "rank_in_cluster": 8}

>  <energy>  (31) 
-9.0

>  <cluster_rmsd>  (31) 
0.0

>  <cluster>  (31) 
2

$$$$

     RDKit          3D

 58 61  0  0  0  0  0  0  0  0999 V2000
  142.2110   80.0220  219.2560 C   0  0  0  0  0  0  0  0  0  0  0  0
  141.3060   79.3150  220.2340 C   0  0  1  0  0  0  0  0  0  0  0  0
  141.3960   77.8810  220.1150 N   0  0  0  0  0  0  0  0  0  0  0  0
  141.3080   77.2030  218.8590 C   0  0  0  0  0  0  0  0  0  0  0  0
  141.1440   77.8670  217.8010 O   0  0  0  0  0  0  0  0  0  0  0  0
  141.4160   75.7290  218.8840 C   0  0  1  0  0  0  0  0  0  0  0  0
  142.6420   75.2090  218.2000 C   0  0  0  0  0  0  0  0  0  0  0  0
  143.6970   75.1460  219.2820 C   0  0  0  0  0  0  0  0  0  0  0  0
  142.9010   74.8090  220.5070 C   0  0  0  0  0  0  0  0  0  0  0  0
  141.5180   75.1870  220.2070 N   0  0  0  0  0  0  0  0  0  0  0  0
  140.4770   75.0070  221.1600 C   0  0  0  0  0  0  0  0  0  0  0  0
  140.5170   75.7910  222.1680 O   0  0  0  0  0  0  0  0  0  0  0  0
  139.4190   73.9890  221.0070 C   0  0  0  0  0  0  0  0  0  0  0  0
  139.3520   73.2100  222.2310 N   0  0  0  0  0  0  0  0  0  0  0  0
  140.2340   72.1020  222.4050 C   0  0  0  0  0  0  0  0  0  0  0  0
  141.0750   71.7870  221.5010 O   0  0  0  0  0  0  0  0  0  0  0  0
  140.1550   71.3280  223.6420 C   0  0  0  0  0  0  0  0  0  0  0  0
  139.5710   70.0660  223.6090 C   0  0  0  0  0  0  0  0  0  0  0  0
  139.4970   69.3340  224.7800 C   0  0  0  0  0  0  0  0  0  0  0  0
  139.9920   69.8320  225.9760 C   0  0  0  0  0  0  0  0  0  0  0  0
  139.9370   69.1340  227.1580 C   0  0  0  0  0  0  0  0  0  0  0  0
  140.4290   69.6260  228.3540 C   0  0  0  0  0  0  0  0  0  0  0  0
  141.0050   70.8990  228.3180 C   0  0  0  0  0  0  0  0  0  0  0  0
  141.0660   71.6090  227.1350 C   0  0  0  0  0  0  0  0  0  0  0  0
  140.5650   71.0900  225.9580 C   0  0  0  0  0  0  0  0  0  0  0  0
  140.6460   71.8240  224.8150 N   0  0  0  0  0  0  0  0  0  0  0  0
  141.6200   79.7900  221.5920 C   0  0  0  0  0  0  0  0  0  0  0  0
  141.6150   81.1690  221.7990 C   0  0  0  0  0  0  0  0  0  0  0  0
  141.9000   81.6710  223.0400 C   0  0  0  0  0  0  0  0  0  0  0  0
  142.1980   80.8810  224.1300 C   0  0  0  0  0  0  0  0  0  0  0  0
  142.1990   79.5010  223.9120 C   0  0  0  0  0  0  0  0  0  0  0  0
  141.9130   78.9710  222.6570 C   0  0  0  0  0  0  0  0  0  0  0  0
  142.9609   80.6078  219.8078 H   0  0  0  0  0  0  0  0  0  0  0  0
  142.7190   79.2791  218.6235 H   0  0  0  0  0  0  0  0  0  0  0  0
  141.6131   80.6947  218.6235 H   0  0  0  0  0  0  0  0  0  0  0  0
  140.2580   79.5584  220.0050 H   0  0  0  0  0  0  0  0  0  0  0  0
  141.5330   77.3220  221.0050 H   0  0  0  0  0  0  0  0  0  0  0  0
  140.4906   75.4212  218.3752 H   0  0  0  0  0  0  0  0  0  0  0  0
  142.4566   74.2085  217.7821 H   0  0  0  0  0  0  0  0  0  0  0  0
  142.9494   75.8492  217.3600 H   0  0  0  0  0  0  0  0  0  0  0  0
  144.4399   74.3642  219.0653 H   0  0  0  0  0  0  0  0  0  0  0  0
  144.2735   76.0776  219.3813 H   0  0  0  0  0  0  0  0  0  0  0  0
  142.9651   73.7317  220.7200 H   0  0  0  0  0  0  0  0  0  0  0  0
  143.2805   75.3398  221.3925 H   0  0  0  0  0  0  0  0  0  0  0  0
  138.4523   74.4820  220.8270 H   0  0  0  0  0  0  0  0  0  0  0  0
  139.6461   73.3332  220.1536 H   0  0  0  0  0  0  0  0  0  0  0  0
  138.6770   73.4460  222.9820 H   0  0  0  0  0  0  0  0  0  0  0  0
  139.1749   69.6573  222.6677 H   0  0  0  0  0  0  0  0  0  0  0  0
  139.0357   68.3355  224.7624 H   0  0  0  0  0  0  0  0  0  0  0  0
  139.4789   68.1339  227.1534 H   0  0  0  0  0  0  0  0  0  0  0  0
  140.3698   69.0447  229.2860 H   0  0  0  0  0  0  0  0  0  0  0  0
  141.4132   71.3391  229.2398 H   0  0  0  0  0  0  0  0  0  0  0  0
  141.5235   72.6093  227.1305 H   0  0  0  0  0  0  0  0  0  0  0  0
  141.3828   81.8510  220.9678 H   0  0  0  0  0  0  0  0  0  0  0  0
  141.8908   82.7627  223.1749 H   0  0  0  0  0  0  0  0  0  0  0  0
  142.4225   81.3132  225.1163 H   0  0  0  0  0  0  0  0  0  0  0  0
  142.4297   78.8219  224.7461 H   0  0  0  0  0  0  0  0  0  0  0  0
  141.9215   77.8802  222.5150 H   0  0  0  0  0  0  0  0  0  0  0  0
  1  2  1  0
  2  3  1  0
  3  4  1  0
  4  5  2  0
  4  6  1  0
  6  7  1  0
  7  8  1  0
  8  9  1  0
  9 10  1  0
 10 11  1  0
 11 12  2  0
 11 13  1  0
 13 14  1  0
 14 15  1  0
 15 16  2  0
 15 17  1  0
 17 18  2  0
 18 19  1  0
 19 20  2  0
 20 21  1  0
 21 22  2  0
 22 23  1  0
 23 24  2  0
 24 25  1  0
 25 26  2  0
  2 27  1  0
 27 28  2  0
 28 29  1  0
 29 30  2  0
 30 31  1  0
 31 32  2  0
 10  6  1  0
 26 17  1  0
 32 27  1  0
 25 20  1  0
  1 33  1  0
  1 34  1  0
  1 35  1  0
  2 36  1  6
  3 37  1  0
  6 38  1  6
  7 39  1  0
  7 40  1  0
  8 41  1  0
  8 42  1  0
  9 43  1  0
  9 44  1  0
 13 45  1  0
 13 46  1  0
 14 47  1  0
 18 48  1  0
 19 49  1  0
 21 50  1  0
 22 51  1  0
 23 52  1  0
 24 53  1  0
 28 54  1  0
 29 55  1  0
 30 56  1  0
 31 57  1  0
 32 58  1  0
M  END
>  <smiles>  (32) 
C[C@@H](NC(=O)[C@H]1CCCN1C(=O)CNC(=O)c1ccc2ccccc2n1)c1ccccc1

>  <score_type>  (32) 
oracle

>  <origin>  (32) 
autodockgpu

>  <m_score__min__energy>  (32) 
-9.4199999999999999

>  <m_primary>  (32) 
energy

>  <rmsd>  (32) 
2.919727492540442

>  <m_score__min__rmsd>  (32) 
2.919727492540442

>  <meeko>  (32) 
{"free_energy": -9.3, "intermolecular_energy": -11.39, "internal_energy": -2.59, "cluster_size": 30, "cluster_id": 1, "rank_in_cluster": 5}

>  <energy>  (32) 
-8.99

>  <cluster_rmsd>  (32) 
0.0

>  <cluster>  (32) 
3

$$$$

     RDKit          3D

 58 61  0  0  0  0  0  0  0  0999 V2000
  142.0350   74.8200  218.5410 C   0  0  0  0  0  0  0  0  0  0  0  0
  142.9390   75.3110  219.6450 C   0  0  1  0  0  0  0  0  0  0  0  0
  142.2060   75.6230  220.8460 N   0  0  0  0  0  0  0  0  0  0  0  0
  141.4470   76.8250  220.9980 C   0  0  0  0  0  0  0  0  0  0  0  0
  141.4040   77.6600  220.0560 O   0  0  0  0  0  0  0  0  0  0  0  0
  140.7440   77.0160  222.2840 C   0  0  1  0  0  0  0  0  0  0  0  0
  141.0010   78.3500  222.9130 C   0  0  0  0  0  0  0  0  0  0  0  0
  139.9180   79.2550  222.3700 C   0  0  0  0  0  0  0  0  0  0  0  0
  138.7530   78.3250  222.2140 C   0  0  0  0  0  0  0  0  0  0  0  0
  139.3160   76.9740  222.1660 N   0  0  0  0  0  0  0  0  0  0  0  0
  138.4850   75.8290  222.0190 C   0  0  0  0  0  0  0  0  0  0  0  0
  137.3050   75.9450  222.4940 O   0  0  0  0  0  0  0  0  0  0  0  0
  138.9420   74.5860  221.3640 C   0  0  0  0  0  0  0  0  0  0  0  0
  138.9030   73.5140  222.3430 N   0  0  0  0  0  0  0  0  0  0  0  0
  140.0970   72.7880  222.6340 C   0  0  0  0  0  0  0  0  0  0  0  0
  141.1920   73.0700  222.0490 O   0  0  0  0  0  0  0  0  0  0  0  0
  140.0420   71.7120  223.6210 C   0  0  0  0  0  0  0  0  0  0  0  0
  139.4910   70.4890  223.2520 C   0  0  0  0  0  0  0  0  0  0  0  0
  139.4400   69.4710  224.1860 C   0  0  0  0  0  0  0  0  0  0  0  0
  139.9250   69.6450  225.4730 C   0  0  0  0  0  0  0  0  0  0  0  0
  139.8920   68.6580  226.4260 C   0  0  0  0  0  0  0  0  0  0  0  0
  140.3740   68.8260  227.7130 C   0  0  0  0  0  0  0  0  0  0  0  0
  140.9160   70.0780  228.0180 C   0  0  0  0  0  0  0  0  0  0  0  0
  140.9540   71.0780  227.0670 C   0  0  0  0  0  0  0  0  0  0  0  0
  140.4640   70.8780  225.7930 C   0  0  0  0  0  0  0  0  0  0  0  0
  140.5230   71.8910  224.8860 N   0  0  0  0  0  0  0  0  0  0  0  0
  143.9930   74.3080  219.8700 C   0  0  0  0  0  0  0  0  0  0  0  0
  143.8190   73.0600  219.2740 C   0  0  0  0  0  0  0  0  0  0  0  0
  144.7650   72.0850  219.4470 C   0  0  0  0  0  0  0  0  0  0  0  0
  145.9110   72.2620  220.1930 C   0  0  0  0  0  0  0  0  0  0  0  0
  146.0750   73.5170  220.7860 C   0  0  0  0  0  0  0  0  0  0  0  0
  145.1250   74.5200  220.6220 C   0  0  0  0  0  0  0  0  0  0  0  0
  141.1486   74.3386  218.9798 H   0  0  0  0  0  0  0  0  0  0  0  0
  141.7200   75.6710  217.9192 H   0  0  0  0  0  0  0  0  0  0  0  0
  142.5774   74.0925  217.9192 H   0  0  0  0  0  0  0  0  0  0  0  0
  143.4085   76.2579  219.3400 H   0  0  0  0  0  0  0  0  0  0  0  0
  142.2410   74.9210  221.6400 H   0  0  0  0  0  0  0  0  0  0  0  0
  141.1395   76.1856  222.8874 H   0  0  0  0  0  0  0  0  0  0  0  0
  140.9329   78.2802  224.0087 H   0  0  0  0  0  0  0  0  0  0  0  0
  142.0082   78.7276  222.6830 H   0  0  0  0  0  0  0  0  0  0  0  0
  139.6865   80.0643  223.0781 H   0  0  0  0  0  0  0  0  0  0  0  0
  140.2009   79.7584  221.4337 H   0  0  0  0  0  0  0  0  0  0  0  0
  138.0687   78.4233  223.0696 H   0  0  0  0  0  0  0  0  0  0  0  0
  138.1758   78.5525  221.3057 H   0  0  0  0  0  0  0  0  0  0  0  0
  138.2782   74.3441  220.5209 H   0  0  0  0  0  0  0  0  0  0  0  0
  139.9656   74.7132  220.9817 H   0  0  0  0  0  0  0  0  0  0  0  0
  138.0240   73.2650  222.8330 H   0  0  0  0  0  0  0  0  0  0  0  0
  139.1026   70.3346  222.2345 H   0  0  0  0  0  0  0  0  0  0  0  0
  139.0050   68.5015  223.9017 H   0  0  0  0  0  0  0  0  0  0  0  0
  139.4605   67.6836  226.1534 H   0  0  0  0  0  0  0  0  0  0  0  0
  140.3326   68.0166  228.4567 H   0  0  0  0  0  0  0  0  0  0  0  0
  141.3159   70.2681  229.0250 H   0  0  0  0  0  0  0  0  0  0  0  0
  141.3843   72.0554  227.3308 H   0  0  0  0  0  0  0  0  0  0  0  0
  142.9244   72.8589  218.6664 H   0  0  0  0  0  0  0  0  0  0  0  0
  144.6020   71.1095  218.9656 H   0  0  0  0  0  0  0  0  0  0  0  0
  146.6545   71.4605  220.3146 H   0  0  0  0  0  0  0  0  0  0  0  0
  146.9708   73.7151  221.3929 H   0  0  0  0  0  0  0  0  0  0  0  0
  145.2816   75.4977  221.1011 H   0  0  0  0  0  0  0  0  0  0  0  0
  1  2  1  0
  2  3  1  0
  3  4  1  0
  4  5  2  0
  4  6  1  0
  6  7  1  0
  7  8  1  0
  8  9  1  0
  9 10  1  0
 10 11  1  0
 11 12  2  0
 11 13  1  0
 13 14  1  0
 14 15  1  0
 15 16  2  0
 15 17  1  0
 17 18  2  0
 18 19  1  0
 19 20  2  0
 20 21  1  0
 21 22  2  0
 22 23  1  0
 23 24  2  0
 24 25  1  0
 25 26  2  0
  2 27  1  0
 27 28  2  0
 28 29  1  0
 29 30  2  0
 30 31  1  0
 31 32  2  0
 10  6  1  0
 26 17  1  0
 32 27  1  0
 25 20  1  0
  1 33  1  0
  1 34  1  0
  1 35  1  0
  2 36  1  6
  3 37  1  0
  6 38  1  1
  7 39  1  0
  7 40  1  0
  8 41  1  0
  8 42  1  0
  9 43  1  0
  9 44  1  0
 13 45  1  0
 13 46  1  0
 14 47  1  0
 18 48  1  0
 19 49  1  0
 21 50  1  0
 22 51  1  0
 23 52  1  0
 24 53  1  0
 28 54  1  0
 29 55  1  0
 30 56  1  0
 31 57  1  0
 32 58  1  0
M  END
>  <smiles>  (33) 
C[C@@H](NC(=O)[C@H]1CCCN1C(=O)CNC(=O)c1ccc2ccccc2n1)c1ccccc1

>  <score_type>  (33) 
oracle

>  <origin>  (33) 
autodockgpu

>  <m_score__min__energy>  (33) 
-9.4199999999999999

>  <m_primary>  (33) 
energy

>  <rmsd>  (33) 
5.480966214989487

>  <m_score__min__rmsd>  (33) 
5.480966214989487

>  <meeko>  (33) 
{"free_energy": -9.0, "intermolecular_energy": -11.09, "internal_energy": -2.77, "cluster_size": 1, "cluster_id": 2, "rank_in_cluster": 1}

>  <energy>  (33) 
-8.98

>  <cluster_rmsd>  (33) 
1.87

>  <cluster>  (33) 
3

$$$$

     RDKit          3D

 58 61  0  0  0  0  0  0  0  0999 V2000
  142.2040   79.8690  219.0330 C   0  0  0  0  0  0  0  0  0  0  0  0
  141.3070   79.2650  220.0850 C   0  0  1  0  0  0  0  0  0  0  0  0
  141.3680   77.8250  220.0850 N   0  0  0  0  0  0  0  0  0  0  0  0
  141.3500   77.0500  218.8830 C   0  0  0  0  0  0  0  0  0  0  0  0
  141.2760   77.6290  217.7670 O   0  0  0  0  0  0  0  0  0  0  0  0
  141.4180   75.5810  219.0320 C   0  0  1  0  0  0  0  0  0  0  0  0
  142.6550   74.9790  218.4410 C   0  0  0  0  0  0  0  0  0  0  0  0
  143.6680   74.9800  219.5640 C   0  0  0  0  0  0  0  0  0  0  0  0
  142.8180   74.7630  220.7800 C   0  0  0  0  0  0  0  0  0  0  0  0
  141.4570   75.1470  220.3980 N   0  0  0  0  0  0  0  0  0  0  0  0
  140.3780   75.0690  221.3200 C   0  0  0  0  0  0  0  0  0  0  0  0
  140.4400   75.8800  222.3060 O   0  0  0  0  0  0  0  0  0  0  0  0
  139.2550   74.1220  221.1620 C   0  0  0  0  0  0  0  0  0  0  0  0
  139.2150   73.2620  222.3310 N   0  0  0  0  0  0  0  0  0  0  0  0
  140.2440   72.2920  222.5230 C   0  0  0  0  0  0  0  0  0  0  0  0
  141.1950   72.1730  221.6840 O   0  0  0  0  0  0  0  0  0  0  0  0
  140.1900   71.4330  223.7040 C   0  0  0  0  0  0  0  0  0  0  0  0
  139.6300   70.1650  223.5890 C   0  0  0  0  0  0  0  0  0  0  0  0
  139.5800   69.3540  224.7070 C   0  0  0  0  0  0  0  0  0  0  0  0
  140.0730   69.7780  225.9310 C   0  0  0  0  0  0  0  0  0  0  0  0
  140.0410   69.0000  227.0620 C   0  0  0  0  0  0  0  0  0  0  0  0
  140.5310   69.4180  228.2870 C   0  0  0  0  0  0  0  0  0  0  0  0
  141.0810   70.7020  228.3350 C   0  0  0  0  0  0  0  0  0  0  0  0
  141.1200   71.4930  227.2030 C   0  0  0  0  0  0  0  0  0  0  0  0
  140.6210   71.0460  225.9970 C   0  0  0  0  0  0  0  0  0  0  0  0
  140.6790   71.8580  224.9060 N   0  0  0  0  0  0  0  0  0  0  0  0
  141.6560   79.8460  221.3910 C   0  0  0  0  0  0  0  0  0  0  0  0
  141.4430   81.2140  221.5550 C   0  0  0  0  0  0  0  0  0  0  0  0
  141.7490   81.8120  222.7470 C   0  0  0  0  0  0  0  0  0  0  0  0
  142.2690   81.1320  223.8280 C   0  0  0  0  0  0  0  0  0  0  0  0
  142.4780   79.7610  223.6540 C   0  0  0  0  0  0  0  0  0  0  0  0
  142.1740   79.1350  222.4490 C   0  0  0  0  0  0  0  0  0  0  0  0
  143.0218   80.4197  219.5207 H   0  0  0  0  0  0  0  0  0  0  0  0
  142.6237   79.0689  218.4056 H   0  0  0  0  0  0  0  0  0  0  0  0
  141.6204   80.5588  218.4056 H   0  0  0  0  0  0  0  0  0  0  0  0
  140.2591   79.5094  219.8569 H   0  0  0  0  0  0  0  0  0  0  0  0
  141.4300   77.3360  221.0240 H   0  0  0  0  0  0  0  0  0  0  0  0
  140.5041   75.2538  218.5145 H   0  0  0  0  0  0  0  0  0  0  0  0
  142.4592   73.9522  218.0983 H   0  0  0  0  0  0  0  0  0  0  0  0
  143.0097   75.5420  217.5651 H   0  0  0  0  0  0  0  0  0  0  0  0
  144.3973   74.1659  219.4402 H   0  0  0  0  0  0  0  0  0  0  0  0
  144.2656   75.9024  219.6099 H   0  0  0  0  0  0  0  0  0  0  0  0
  142.8459   73.7055  221.0815 H   0  0  0  0  0  0  0  0  0  0  0  0
  143.1784   75.3562  221.6334 H   0  0  0  0  0  0  0  0  0  0  0  0
  138.3094   74.6775  221.0766 H   0  0  0  0  0  0  0  0  0  0  0  0
  139.3935   73.5187  220.2527 H   0  0  0  0  0  0  0  0  0  0  0  0
  138.4520   73.3390  223.0300 H   0  0  0  0  0  0  0  0  0  0  0  0
  139.2338   69.8137  222.6248 H   0  0  0  0  0  0  0  0  0  0  0  0
  139.1391   68.3497  224.6235 H   0  0  0  0  0  0  0  0  0  0  0  0
  139.6036   67.9932  226.9908 H   0  0  0  0  0  0  0  0  0  0  0  0
  140.4897   68.7729  229.1770 H   0  0  0  0  0  0  0  0  0  0  0  0
  141.4864   71.0862  229.2826 H   0  0  0  0  0  0  0  0  0  0  0  0
  141.5580   72.5001  227.2646 H   0  0  0  0  0  0  0  0  0  0  0  0
  141.0301   81.8109  220.7284 H   0  0  0  0  0  0  0  0  0  0  0  0
  141.5707   82.8927  222.8483 H   0  0  0  0  0  0  0  0  0  0  0  0
  142.5061   81.6401  224.7744 H   0  0  0  0  0  0  0  0  0  0  0  0
  142.8896   79.1671  224.4833 H   0  0  0  0  0  0  0  0  0  0  0  0
  142.3506   78.0547  222.3406 H   0  0  0  0  0  0  0  0  0  0  0  0
  1  2  1  0
  2  3  1  0
  3  4  1  0
  4  5  2  0
  4  6  1  0
  6  7  1  0
  7  8  1  0
  8  9  1  0
  9 10  1  0
 10 11  1  0
 11 12  2  0
 11 13  1  0
 13 14  1  0
 14 15  1  0
 15 16  2  0
 15 17  1  0
 17 18  2  0
 18 19  1  0
 19 20  2  0
 20 21  1  0
 21 22  2  0
 22 23  1  0
 23 24  2  0
 24 25  1  0
 25 26  2  0
  2 27  1  0
 27 28  2  0
 28 29  1  0
 29 30  2  0
 30 31  1  0
 31 32  2  0
 10  6  1  0
 26 17  1  0
 32 27  1  0
 25 20  1  0
  1 33  1  0
  1 34  1  0
  1 35  1  0
  2 36  1  6
  3 37  1  0
  6 38  1  6
  7 39  1  0
  7 40  1  0
  8 41  1  0
  8 42  1  0
  9 43  1  0
  9 44  1  0
 13 45  1  0
 13 46  1  0
 14 47  1  0
 18 48  1  0
 19 49  1  0
 21 50  1  0
 22 51  1  0
 23 52  1  0
 24 53  1  0
 28 54  1  0
 29 55  1  0
 30 56  1  0
 31 57  1  0
 32 58  1  0
M  END
>  <smiles>  (34) 
C[C@@H](NC(=O)[C@H]1CCCN1C(=O)CNC(=O)c1ccc2ccccc2n1)c1ccccc1

>  <score_type>  (34) 
oracle

>  <origin>  (34) 
autodockgpu

>  <m_score__min__energy>  (34) 
-9.4199999999999999

>  <m_primary>  (34) 
energy

>  <rmsd>  (34) 
2.9348303283433306

>  <m_score__min__rmsd>  (34) 
2.9348303283433306

>  <meeko>  (34) 
{"free_energy": -9.26, "intermolecular_energy": -11.34, "internal_energy": -2.56, "cluster_size": 30, "cluster_id": 1, "rank_in_cluster": 7}

>  <energy>  (34) 
-8.75

>  <cluster_rmsd>  (34) 
1.77

>  <cluster>  (34) 
3

$$$$

     RDKit          3D

 58 61  0  0  0  0  0  0  0  0999 V2000
  139.2720   77.6600  221.5300 C   0  0  0  0  0  0  0  0  0  0  0  0
  140.5250   77.3720  222.3210 C   0  0  1  0  0  0  0  0  0  0  0  0
  141.4290   76.5060  221.6070 N   0  0  0  0  0  0  0  0  0  0  0  0
  141.2400   75.0910  221.5240 C   0  0  0  0  0  0  0  0  0  0  0  0
  140.2510   74.5580  222.0920 O   0  0  0  0  0  0  0  0  0  0  0  0
  142.2460   74.3250  220.7570 C   0  0  1  0  0  0  0  0  0  0  0  0
  141.8290   72.9170  220.4660 C   0  0  0  0  0  0  0  0  0  0  0  0
  141.1060   72.9880  219.1390 C   0  0  0  0  0  0  0  0  0  0  0  0
  141.8330   74.0850  218.4220 C   0  0  0  0  0  0  0  0  0  0  0  0
  142.5090   74.8690  219.4580 N   0  0  0  0  0  0  0  0  0  0  0  0
  143.3000   76.0050  219.1310 C   0  0  0  0  0  0  0  0  0  0  0  0
  144.0350   76.4510  220.0750 O   0  0  0  0  0  0  0  0  0  0  0  0
  143.2830   76.6350  217.7940 C   0  0  0  0  0  0  0  0  0  0  0  0
  143.0480   78.0580  217.9630 N   0  0  0  0  0  0  0  0  0  0  0  0
  141.9540   78.4970  218.7660 C   0  0  0  0  0  0  0  0  0  0  0  0
  141.1830   77.6580  219.3360 O   0  0  0  0  0  0  0  0  0  0  0  0
  141.7300   79.9320  218.9260 C   0  0  0  0  0  0  0  0  0  0  0  0
  142.3510   80.8120  218.0460 C   0  0  0  0  0  0  0  0  0  0  0  0
  142.1380   82.1690  218.1990 C   0  0  0  0  0  0  0  0  0  0  0  0
  141.3240   82.6650  219.2050 C   0  0  0  0  0  0  0  0  0  0  0  0
  141.0890   84.0060  219.3870 C   0  0  0  0  0  0  0  0  0  0  0  0
  140.2770   84.5070  220.3890 C   0  0  0  0  0  0  0  0  0  0  0  0
  139.6820   83.5690  221.2390 C   0  0  0  0  0  0  0  0  0  0  0  0
  139.9110   82.2180  221.0650 C   0  0  0  0  0  0  0  0  0  0  0  0
  140.7270   81.7520  220.0550 C   0  0  0  0  0  0  0  0  0  0  0  0
  140.9250   80.4120  219.9190 N   0  0  0  0  0  0  0  0  0  0  0  0
  141.1460   78.6510  222.6990 C   0  0  0  0  0  0  0  0  0  0  0  0
  140.3660   79.5450  223.4310 C   0  0  0  0  0  0  0  0  0  0  0  0
  140.8890   80.7520  223.8110 C   0  0  0  0  0  0  0  0  0  0  0  0
  142.1730   81.1520  223.5090 C   0  0  0  0  0  0  0  0  0  0  0  0
  142.9470   80.2500  222.7750 C   0  0  0  0  0  0  0  0  0  0  0  0
  142.4330   79.0180  222.3800 C   0  0  0  0  0  0  0  0  0  0  0  0
  138.4380   77.8517  222.2212 H   0  0  0  0  0  0  0  0  0  0  0  0
  139.4337   78.5444  220.8962 H   0  0  0  0  0  0  0  0  0  0  0  0
  139.0313   76.7938  220.8962 H   0  0  0  0  0  0  0  0  0  0  0  0
  140.2618   76.8209  223.2359 H   0  0  0  0  0  0  0  0  0  0  0  0
  142.2620   76.9540  221.1280 H   0  0  0  0  0  0  0  0  0  0  0  0
  143.1246   74.3736  221.4171 H   0  0  0  0  0  0  0  0  0  0  0  0
  142.7088   72.2608  220.3921 H   0  0  0  0  0  0  0  0  0  0  0  0
  141.1922   72.5024  221.2613 H   0  0  0  0  0  0  0  0  0  0  0  0
  141.1864   72.0366  218.5928 H   0  0  0  0  0  0  0  0  0  0  0  0
  140.0269   73.1753  219.2409 H   0  0  0  0  0  0  0  0  0  0  0  0
  142.5689   73.6617  217.7225 H   0  0  0  0  0  0  0  0  0  0  0  0
  141.1424   74.7071  217.8337 H   0  0  0  0  0  0  0  0  0  0  0  0
  144.2501   76.4745  217.2950 H   0  0  0  0  0  0  0  0  0  0  0  0
  142.4889   76.1907  217.1760 H   0  0  0  0  0  0  0  0  0  0  0  0
  143.6610   78.7610  217.5100 H   0  0  0  0  0  0  0  0  0  0  0  0
  143.0003   80.4346  217.2423 H   0  0  0  0  0  0  0  0  0  0  0  0
  142.6255   82.8711  217.5067 H   0  0  0  0  0  0  0  0  0  0  0  0
  141.5710   84.7181  218.7010 H   0  0  0  0  0  0  0  0  0  0  0  0
  140.1081   85.5871  220.5108 H   0  0  0  0  0  0  0  0  0  0  0  0
  139.0259   83.9102  222.0533 H   0  0  0  0  0  0  0  0  0  0  0  0
  139.4327   81.4987  221.7460 H   0  0  0  0  0  0  0  0  0  0  0  0
  139.3331   79.2814  223.7026 H   0  0  0  0  0  0  0  0  0  0  0  0
  140.2512   81.4383  224.3874 H   0  0  0  0  0  0  0  0  0  0  0  0
  142.5667   82.1282  223.8285 H   0  0  0  0  0  0  0  0  0  0  0  0
  143.9792   80.5175  222.5048 H   0  0  0  0  0  0  0  0  0  0  0  0
  143.0659   78.3270  221.8037 H   0  0  0  0  0  0  0  0  0  0  0  0
  1  2  1  0
  2  3  1  0
  3  4  1  0
  4  5  2  0
  4  6  1  0
  6  7  1  0
  7  8  1  0
  8  9  1  0
  9 10  1  0
 10 11  1  0
 11 12  2  0
 11 13  1  0
 13 14  1  0
 14 15  1  0
 15 16  2  0
 15 17  1  0
 17 18  2  0
 18 19  1  0
 19 20  2  0
 20 21  1  0
 21 22  2  0
 22 23  1  0
 23 24  2  0
 24 25  1  0
 25 26  2  0
  2 27  1  0
 27 28  2  0
 28 29  1  0
 29 30  2  0
 30 31  1  0
 31 32  2  0
 10  6  1  0
 26 17  1  0
 32 27  1  0
 25 20  1  0
  1 33  1  0
  1 34  1  0
  1 35  1  0
  2 36  1  1
  3 37  1  0
  6 38  1  1
  7 39  1  0
  7 40  1  0
  8 41  1  0
  8 42  1  0
  9 43  1  0
  9 44  1  0
 13 45  1  0
 13 46  1  0
 14 47  1  0
 18 48  1  0
 19 49  1  0
 21 50  1  0
 22 51  1  0
 23 52  1  0
 24 53  1  0
 28 54  1  0
 29 55  1  0
 30 56  1  0
 31 57  1  0
 32 58  1  0
M  END
>  <smiles>  (35) 
C[C@@H](NC(=O)[C@H]1CCCN1C(=O)CNC(=O)c1ccc2ccccc2n1)c1ccccc1

>  <score_type>  (35) 
oracle

>  <origin>  (35) 
autodockgpu

>  <m_score__min__energy>  (35) 
-9.4199999999999999

>  <m_primary>  (35) 
energy

>  <rmsd>  (35) 
8.62628954452777

>  <m_score__min__rmsd>  (35) 
8.62628954452777

>  <meeko>  (35) 
{"free_energy": -7.46, "intermolecular_energy": -9.55, "internal_energy": -4.47, "cluster_size": 9, "cluster_id": 6, "rank_in_cluster": 7}

>  <energy>  (35) 
-8.73

>  <cluster_rmsd>  (35) 
1.76

>  <cluster>  (35) 
3

$$$$

     RDKit          3D

 58 61  0  0  0  0  0  0  0  0999 V2000
  141.8760   77.7710  220.5970 C   0  0  0  0  0  0  0  0  0  0  0  0
  140.7930   78.5400  221.3130 C   0  0  1  0  0  0  0  0  0  0  0  0
  139.8310   77.6660  221.9360 N   0  0  0  0  0  0  0  0  0  0  0  0
  138.4280   77.7470  221.6720 C   0  0  0  0  0  0  0  0  0  0  0  0
  137.9930   78.6120  220.8660 O   0  0  0  0  0  0  0  0  0  0  0  0
  137.5560   76.7880  222.3820 C   0  0  1  0  0  0  0  0  0  0  0  0
  136.1060   77.1570  222.3420 C   0  0  0  0  0  0  0  0  0  0  0  0
  135.5640   76.4860  221.1000 C   0  0  0  0  0  0  0  0  0  0  0  0
  136.3760   75.2280  221.0190 C   0  0  0  0  0  0  0  0  0  0  0  0
  137.5790   75.4700  221.8180 N   0  0  0  0  0  0  0  0  0  0  0  0
  138.5870   74.4760  221.9610 C   0  0  0  0  0  0  0  0  0  0  0  0
  139.7260   74.9040  222.3480 O   0  0  0  0  0  0  0  0  0  0  0  0
  138.3450   73.0460  221.6850 C   0  0  0  0  0  0  0  0  0  0  0  0
  138.8330   72.2740  222.8140 N   0  0  0  0  0  0  0  0  0  0  0  0
  138.4190   70.9160  222.9660 C   0  0  0  0  0  0  0  0  0  0  0  0
  137.6290   70.3760  222.1250 O   0  0  0  0  0  0  0  0  0  0  0  0
  138.9180   70.1520  224.1070 C   0  0  0  0  0  0  0  0  0  0  0  0
  138.7580   68.7700  224.1120 C   0  0  0  0  0  0  0  0  0  0  0  0
  139.2300   68.0480  225.1920 C   0  0  0  0  0  0  0  0  0  0  0  0
  139.8560   68.6710  226.2610 C   0  0  0  0  0  0  0  0  0  0  0  0
  140.3390   67.9870  227.3490 C   0  0  0  0  0  0  0  0  0  0  0  0
  140.9640   68.6030  228.4190 C   0  0  0  0  0  0  0  0  0  0  0  0
  141.0950   69.9930  228.3500 C   0  0  0  0  0  0  0  0  0  0  0  0
  140.6140   70.6920  227.2600 C   0  0  0  0  0  0  0  0  0  0  0  0
  139.9930   70.0460  226.2100 C   0  0  0  0  0  0  0  0  0  0  0  0
  139.5340   70.7730  225.1550 N   0  0  0  0  0  0  0  0  0  0  0  0
  141.4260   79.4590  222.2720 C   0  0  0  0  0  0  0  0  0  0  0  0
  140.5930   80.3620  222.9310 C   0  0  0  0  0  0  0  0  0  0  0  0
  141.1240   81.2430  223.8350 C   0  0  0  0  0  0  0  0  0  0  0  0
  142.4660   81.2980  224.1440 C   0  0  0  0  0  0  0  0  0  0  0  0
  143.2930   80.3890  223.4790 C   0  0  0  0  0  0  0  0  0  0  0  0
  142.7720   79.4850  222.5570 C   0  0  0  0  0  0  0  0  0  0  0  0
  142.5404   77.2992  221.3359 H   0  0  0  0  0  0  0  0  0  0  0  0
  141.4186   76.9943  219.9666 H   0  0  0  0  0  0  0  0  0  0  0  0
  142.4585   78.4589  219.9666 H   0  0  0  0  0  0  0  0  0  0  0  0
  140.2176   79.1284  220.5832 H   0  0  0  0  0  0  0  0  0  0  0  0
  140.1960   76.9380  222.6150 H   0  0  0  0  0  0  0  0  0  0  0  0
  137.9668   76.8150  223.4020 H   0  0  0  0  0  0  0  0  0  0  0  0
  135.5881   76.7861  223.2388 H   0  0  0  0  0  0  0  0  0  0  0  0
  135.9581   78.2468  222.3201 H   0  0  0  0  0  0  0  0  0  0  0  0
  134.4929   76.2597  221.2076 H   0  0  0  0  0  0  0  0  0  0  0  0
  135.6408   77.1120  220.1988 H   0  0  0  0  0  0  0  0  0  0  0  0
  135.8086   74.3801  221.4302 H   0  0  0  0  0  0  0  0  0  0  0  0
  136.6282   74.9784  219.9778 H   0  0  0  0  0  0  0  0  0  0  0  0
  137.2673   72.8701  221.5523 H   0  0  0  0  0  0  0  0  0  0  0  0
  138.8678   72.7440  220.7655 H   0  0  0  0  0  0  0  0  0  0  0  0
  139.4770   72.6900  223.5120 H   0  0  0  0  0  0  0  0  0  0  0  0
  138.2645   68.2608  223.2711 H   0  0  0  0  0  0  0  0  0  0  0  0
  139.1063   66.9550  225.2037 H   0  0  0  0  0  0  0  0  0  0  0  0
  140.2233   66.8933  227.3713 H   0  0  0  0  0  0  0  0  0  0  0  0
  141.3383   68.0286  229.2792 H   0  0  0  0  0  0  0  0  0  0  0  0
  141.5858   70.5354  229.1716 H   0  0  0  0  0  0  0  0  0  0  0  0
  140.7281   71.7856  227.2281 H   0  0  0  0  0  0  0  0  0  0  0  0
  139.5124   80.3668  222.7254 H   0  0  0  0  0  0  0  0  0  0  0  0
  140.4436   81.9436  224.3412 H   0  0  0  0  0  0  0  0  0  0  0  0
  142.8642   82.0180  224.8741 H   0  0  0  0  0  0  0  0  0  0  0  0
  144.3731   80.3875  223.6873 H   0  0  0  0  0  0  0  0  0  0  0  0
  143.4468   78.7807  222.0485 H   0  0  0  0  0  0  0  0  0  0  0  0
  1  2  1  0
  2  3  1  0
  3  4  1  0
  4  5  2  0
  4  6  1  0
  6  7  1  0
  7  8  1  0
  8  9  1  0
  9 10  1  0
 10 11  1  0
 11 12  2  0
 11 13  1  0
 13 14  1  0
 14 15  1  0
 15 16  2  0
 15 17  1  0
 17 18  2  0
 18 19  1  0
 19 20  2  0
 20 21  1  0
 21 22  2  0
 22 23  1  0
 23 24  2  0
 24 25  1  0
 25 26  2  0
  2 27  1  0
 27 28  2  0
 28 29  1  0
 29 30  2  0
 30 31  1  0
 31 32  2  0
 10  6  1  0
 26 17  1  0
 32 27  1  0
 25 20  1  0
  1 33  1  0
  1 34  1  0
  1 35  1  0
  2 36  1  6
  3 37  1  0
  6 38  1  1
  7 39  1  0
  7 40  1  0
  8 41  1  0
  8 42  1  0
  9 43  1  0
  9 44  1  0
 13 45  1  0
 13 46  1  0
 14 47  1  0
 18 48  1  0
 19 49  1  0
 21 50  1  0
 22 51  1  0
 23 52  1  0
 24 53  1  0
 28 54  1  0
 29 55  1  0
 30 56  1  0
 31 57  1  0
 32 58  1  0
M  END
>  <smiles>  (36) 
C[C@@H](NC(=O)[C@H]1CCCN1C(=O)CNC(=O)c1ccc2ccccc2n1)c1ccccc1

>  <score_type>  (36) 
oracle

>  <origin>  (36) 
autodockgpu

>  <m_score__min__energy>  (36) 
-9.4199999999999999

>  <m_primary>  (36) 
energy

>  <rmsd>  (36) 
3.2548038886707533

>  <m_score__min__rmsd>  (36) 
3.2548038886707533

>  <meeko>  (36) 
{"free_energy": -8.6, "intermolecular_energy": -10.68, "internal_energy": -2.77, "cluster_size": 30, "cluster_id": 1, "rank_in_cluster": 26}

>  <energy>  (36) 
-8.51

>  <cluster_rmsd>  (36) 
1.14

>  <cluster>  (36) 
3

$$$$

     RDKit          3D

 58 61  0  0  0  0  0  0  0  0999 V2000
  138.6880   69.5860  224.1980 C   0  0  0  0  0  0  0  0  0  0  0  0
  139.8140   70.5900  224.1960 C   0  0  1  0  0  0  0  0  0  0  0  0
  139.4410   71.8200  223.5440 N   0  0  0  0  0  0  0  0  0  0  0  0
  140.2440   72.4320  222.5310 C   0  0  0  0  0  0  0  0  0  0  0  0
  141.3260   71.8910  222.1800 O   0  0  0  0  0  0  0  0  0  0  0  0
  139.7400   73.6930  221.9480 C   0  0  1  0  0  0  0  0  0  0  0  0
  140.4870   74.1250  220.7240 C   0  0  0  0  0  0  0  0  0  0  0  0
  139.7520   73.4830  219.5690 C   0  0  0  0  0  0  0  0  0  0  0  0
  138.3280   73.4800  220.0380 C   0  0  0  0  0  0  0  0  0  0  0  0
  138.3820   73.6100  221.4960 N   0  0  0  0  0  0  0  0  0  0  0  0
  137.1970   73.6400  222.2830 C   0  0  0  0  0  0  0  0  0  0  0  0
  136.7550   72.5000  222.6500 O   0  0  0  0  0  0  0  0  0  0  0  0
  136.5140   74.8960  222.6550 C   0  0  0  0  0  0  0  0  0  0  0  0
  137.5240   75.9150  222.8820 N   0  0  0  0  0  0  0  0  0  0  0  0
  137.1880   77.2880  222.6920 C   0  0  0  0  0  0  0  0  0  0  0  0
  136.0170   77.6300  222.3280 O   0  0  0  0  0  0  0  0  0  0  0  0
  138.2150   78.3020  222.9240 C   0  0  0  0  0  0  0  0  0  0  0  0
  137.8200   79.6000  223.2320 C   0  0  0  0  0  0  0  0  0  0  0  0
  138.7920   80.5580  223.4510 C   0  0  0  0  0  0  0  0  0  0  0  0
  140.1420   80.2520  223.3700 C   0  0  0  0  0  0  0  0  0  0  0  0
  141.1340   81.1770  223.5810 C   0  0  0  0  0  0  0  0  0  0  0  0
  142.4830   80.8770  223.5010 C   0  0  0  0  0  0  0  0  0  0  0  0
  142.8120   79.5550  223.1880 C   0  0  0  0  0  0  0  0  0  0  0  0
  141.8210   78.6160  222.9740 C   0  0  0  0  0  0  0  0  0  0  0  0
  140.4850   78.9490  223.0610 C   0  0  0  0  0  0  0  0  0  0  0  0
  139.5410   77.9920  222.8420 N   0  0  0  0  0  0  0  0  0  0  0  0
  140.2600   70.7980  225.5840 C   0  0  0  0  0  0  0  0  0  0  0  0
  139.8870   69.8360  226.5210 C   0  0  0  0  0  0  0  0  0  0  0  0
  140.2720   69.9750  227.8280 C   0  0  0  0  0  0  0  0  0  0  0  0
  141.0250   71.0330  228.2900 C   0  0  0  0  0  0  0  0  0  0  0  0
  141.3940   71.9910  227.3420 C   0  0  0  0  0  0  0  0  0  0  0  0
  141.0130   71.8670  226.0100 C   0  0  0  0  0  0  0  0  0  0  0  0
  138.4154   69.3429  225.2356 H   0  0  0  0  0  0  0  0  0  0  0  0
  137.8161   70.0119  223.6799 H   0  0  0  0  0  0  0  0  0  0  0  0
  139.0115   68.6712  223.6799 H   0  0  0  0  0  0  0  0  0  0  0  0
  140.6554   70.1957  223.6073 H   0  0  0  0  0  0  0  0  0  0  0  0
  138.5310   72.2760  223.8400 H   0  0  0  0  0  0  0  0  0  0  0  0
  139.8616   74.3980  222.7836 H   0  0  0  0  0  0  0  0  0  0  0  0
  140.4733   75.2209  220.6296 H   0  0  0  0  0  0  0  0  0  0  0  0
  141.5447   73.8247  220.7584 H   0  0  0  0  0  0  0  0  0  0  0  0
  139.8645   74.0763  218.6496 H   0  0  0  0  0  0  0  0  0  0  0  0
  140.1287   72.4804  219.3180 H   0  0  0  0  0  0  0  0  0  0  0  0
  137.7794   74.3264  219.5990 H   0  0  0  0  0  0  0  0  0  0  0  0
  137.8063   72.5603  219.7349 H   0  0  0  0  0  0  0  0  0  0  0  0
  135.8448   75.2106  221.8407 H   0  0  0  0  0  0  0  0  0  0  0  0
  135.9155   74.7463  223.5657 H   0  0  0  0  0  0  0  0  0  0  0  0
  138.4860   75.6620  223.1790 H   0  0  0  0  0  0  0  0  0  0  0  0
  136.7532   79.8592  223.3000 H   0  0  0  0  0  0  0  0  0  0  0  0
  138.4877   81.5865  223.6951 H   0  0  0  0  0  0  0  0  0  0  0  0
  140.8422   82.2089  223.8260 H   0  0  0  0  0  0  0  0  0  0  0  0
  143.2563   81.6397  223.6748 H   0  0  0  0  0  0  0  0  0  0  0  0
  143.8688   79.2596  223.1114 H   0  0  0  0  0  0  0  0  0  0  0  0
  142.1033   77.5814  222.7292 H   0  0  0  0  0  0  0  0  0  0  0  0
  139.2856   68.9683  226.2119 H   0  0  0  0  0  0  0  0  0  0  0  0
  139.9640   69.2015  228.5469 H   0  0  0  0  0  0  0  0  0  0  0  0
  141.3192   71.1185  229.3465 H   0  0  0  0  0  0  0  0  0  0  0  0
  141.9956   72.8574  227.6542 H   0  0  0  0  0  0  0  0  0  0  0  0
  141.3189   72.6363  225.2857 H   0  0  0  0  0  0  0  0  0  0  0  0
  1  2  1  0
  2  3  1  0
  3  4  1  0
  4  5  2  0
  4  6  1  0
  6  7  1  0
  7  8  1  0
  8  9  1  0
  9 10  1  0
 10 11  1  0
 11 12  2  0
 11 13  1  0
 13 14  1  0
 14 15  1  0
 15 16  2  0
 15 17  1  0
 17 18  2  0
 18 19  1  0
 19 20  2  0
 20 21  1  0
 21 22  2  0
 22 23  1  0
 23 24  2  0
 24 25  1  0
 25 26  2  0
  2 27  1  0
 27 28  2  0
 28 29  1  0
 29 30  2  0
 30 31  1  0
 31 32  2  0
 10  6  1  0
 26 17  1  0
 32 27  1  0
 25 20  1  0
  1 33  1  0
  1 34  1  0
  1 35  1  0
  2 36  1  6
  3 37  1  0
  6 38  1  1
  7 39  1  0
  7 40  1  0
  8 41  1  0
  8 42  1  0
  9 43  1  0
  9 44  1  0
 13 45  1  0
 13 46  1  0
 14 47  1  0
 18 48  1  0
 19 49  1  0
 21 50  1  0
 22 51  1  0
 23 52  1  0
 24 53  1  0
 28 54  1  0
 29 55  1  0
 30 56  1  0
 31 57  1  0
 32 58  1  0
M  END
>  <smiles>  (37) 
C[C@@H](NC(=O)[C@H]1CCCN1C(=O)CNC(=O)c1ccc2ccccc2n1)c1ccccc1

>  <score_type>  (37) 
oracle

>  <origin>  (37) 
autodockgpu

>  <m_score__min__energy>  (37) 
-9.4199999999999999

>  <m_primary>  (37) 
energy

>  <rmsd>  (37) 
8.992641206774787

>  <m_score__min__rmsd>  (37) 
8.992641206774787

>  <meeko>  (37) 
{"free_energy": -8.75, "intermolecular_energy": -10.84, "internal_energy": -2.84, "cluster_size": 8, "cluster_id": 3, "rank_in_cluster": 3}

>  <energy>  (37) 
-8.49

>  <cluster_rmsd>  (37) 
1.1

>  <cluster>  (37) 
3

$$$$

     RDKit          3D

 58 61  0  0  0  0  0  0  0  0999 V2000
  139.0550   77.7850  222.7360 C   0  0  0  0  0  0  0  0  0  0  0  0
  140.5530   77.6320  222.8320 C   0  0  1  0  0  0  0  0  0  0  0  0
  141.0850   76.8320  221.7570 N   0  0  0  0  0  0  0  0  0  0  0  0
  140.7220   77.0370  220.3890 C   0  0  0  0  0  0  0  0  0  0  0  0
  139.9060   77.9480  220.0880 O   0  0  0  0  0  0  0  0  0  0  0  0
  141.3450   76.1430  219.3900 C   0  0  1  0  0  0  0  0  0  0  0  0
  142.6210   76.6810  218.8210 C   0  0  0  0  0  0  0  0  0  0  0  0
  143.7080   76.1570  219.7320 C   0  0  0  0  0  0  0  0  0  0  0  0
  143.1750   74.8210  220.1550 C   0  0  0  0  0  0  0  0  0  0  0  0
  141.7300   74.8700  219.9250 N   0  0  0  0  0  0  0  0  0  0  0  0
  140.8930   73.7590  220.2210 C   0  0  0  0  0  0  0  0  0  0  0  0
  141.3370   72.6230  219.8420 O   0  0  0  0  0  0  0  0  0  0  0  0
  139.5990   73.8940  220.9190 C   0  0  0  0  0  0  0  0  0  0  0  0
  139.7010   73.2300  222.2060 N   0  0  0  0  0  0  0  0  0  0  0  0
  139.7250   71.8040  222.2580 C   0  0  0  0  0  0  0  0  0  0  0  0
  139.6580   71.1090  221.1930 O   0  0  0  0  0  0  0  0  0  0  0  0
  139.8290   71.1490  223.5610 C   0  0  0  0  0  0  0  0  0  0  0  0
  139.4210   69.8250  223.6820 C   0  0  0  0  0  0  0  0  0  0  0  0
  139.5200   69.2060  224.9140 C   0  0  0  0  0  0  0  0  0  0  0  0
  140.0140   69.8770  226.0230 C   0  0  0  0  0  0  0  0  0  0  0  0
  140.1270   69.2950  227.2610 C   0  0  0  0  0  0  0  0  0  0  0  0
  140.6190   69.9600  228.3710 C   0  0  0  0  0  0  0  0  0  0  0  0
  141.0120   71.2880  228.1810 C   0  0  0  0  0  0  0  0  0  0  0  0
  140.9040   71.8820  226.9400 C   0  0  0  0  0  0  0  0  0  0  0  0
  140.4070   71.1920  225.8530 C   0  0  0  0  0  0  0  0  0  0  0  0
  140.3180   71.8160  224.6470 N   0  0  0  0  0  0  0  0  0  0  0  0
  141.1580   78.9720  222.8930 C   0  0  0  0  0  0  0  0  0  0  0  0
  140.3000   80.0630  222.7700 C   0  0  0  0  0  0  0  0  0  0  0  0
  140.8050   81.3350  222.8190 C   0  0  0  0  0  0  0  0  0  0  0  0
  142.1440   81.6150  222.9880 C   0  0  0  0  0  0  0  0  0  0  0  0
  142.9960   80.5140  223.1110 C   0  0  0  0  0  0  0  0  0  0  0  0
  142.5020   79.2140  223.0640 C   0  0  0  0  0  0  0  0  0  0  0  0
  138.6253   77.8289  223.7477 H   0  0  0  0  0  0  0  0  0  0  0  0
  138.8150   78.7123  222.1952 H   0  0  0  0  0  0  0  0  0  0  0  0
  138.6325   76.9253  222.1952 H   0  0  0  0  0  0  0  0  0  0  0  0
  140.8077   77.0845  223.7515 H   0  0  0  0  0  0  0  0  0  0  0  0
  141.7710   76.0660  222.0090 H   0  0  0  0  0  0  0  0  0  0  0  0
  140.5525   76.0568  218.6321 H   0  0  0  0  0  0  0  0  0  0  0  0
  142.7695   76.3177  217.7934 H   0  0  0  0  0  0  0  0  0  0  0  0
  142.6193   77.7798  218.7697 H   0  0  0  0  0  0  0  0  0  0  0  0
  144.6601   76.0502  219.1915 H   0  0  0  0  0  0  0  0  0  0  0  0
  143.9257   76.8256  220.5779 H   0  0  0  0  0  0  0  0  0  0  0  0
  143.6305   74.0203  219.5538 H   0  0  0  0  0  0  0  0  0  0  0  0
  143.4076   74.6106  221.2094 H   0  0  0  0  0  0  0  0  0  0  0  0
  139.3665   74.9588  221.0678 H   0  0  0  0  0  0  0  0  0  0  0  0
  138.7973   73.4369  220.3204 H   0  0  0  0  0  0  0  0  0  0  0  0
  139.7580   73.7720  223.0890 H   0  0  0  0  0  0  0  0  0  0  0  0
  139.0262   69.2796  222.8121 H   0  0  0  0  0  0  0  0  0  0  0  0
  139.2001   68.1586  225.0172 H   0  0  0  0  0  0  0  0  0  0  0  0
  139.8108   68.2478  227.3769 H   0  0  0  0  0  0  0  0  0  0  0  0
  140.6967   69.4687  229.3521 H   0  0  0  0  0  0  0  0  0  0  0  0
  141.4110   71.8648  229.0284 H   0  0  0  0  0  0  0  0  0  0  0  0
  141.2209   72.9279  226.8145 H   0  0  0  0  0  0  0  0  0  0  0  0
  139.2202   79.9030  222.6340 H   0  0  0  0  0  0  0  0  0  0  0  0
  140.1052   82.1777  222.7182 H   0  0  0  0  0  0  0  0  0  0  0  0
  142.5211   82.6477  223.0241 H   0  0  0  0  0  0  0  0  0  0  0  0
  144.0752   80.6778  223.2472 H   0  0  0  0  0  0  0  0  0  0  0  0
  143.1963   78.3668  223.1651 H   0  0  0  0  0  0  0  0  0  0  0  0
  1  2  1  0
  2  3  1  0
  3  4  1  0
  4  5  2  0
  4  6  1  0
  6  7  1  0
  7  8  1  0
  8  9  1  0
  9 10  1  0
 10 11  1  0
 11 12  2  0
 11 13  1  0
 13 14  1  0
 14 15  1  0
 15 16  2  0
 15 17  1  0
 17 18  2  0
 18 19  1  0
 19 20  2  0
 20 21  1  0
 21 22  2  0
 22 23  1  0
 23 24  2  0
 24 25  1  0
 25 26  2  0
  2 27  1  0
 27 28  2  0
 28 29  1  0
 29 30  2  0
 30 31  1  0
 31 32  2  0
 10  6  1  0
 26 17  1  0
 32 27  1  0
 25 20  1  0
  1 33  1  0
  1 34  1  0
  1 35  1  0
  2 36  1  1
  3 37  1  0
  6 38  1  6
  7 39  1  0
  7 40  1  0
  8 41  1  0
  8 42  1  0
  9 43  1  0
  9 44  1  0
 13 45  1  0
 13 46  1  0
 14 47  1  0
 18 48  1  0
 19 49  1  0
 21 50  1  0
 22 51  1  0
 23 52  1  0
 24 53  1  0
 28 54  1  0
 29 55  1  0
 30 56  1  0
 31 57  1  0
 32 58  1  0
M  END
>  <smiles>  (38) 
C[C@@H](NC(=O)[C@H]1CCCN1C(=O)CNC(=O)c1ccc2ccccc2n1)c1ccccc1

>  <score_type>  (38) 
oracle

>  <origin>  (38) 
autodockgpu

>  <m_score__min__energy>  (38) 
-9.4199999999999999

>  <m_primary>  (38) 
energy

>  <rmsd>  (38) 
2.759038940422841

>  <m_score__min__rmsd>  (38) 
2.759038940422841

>  <meeko>  (38) 
{"free_energy": -9.39, "intermolecular_energy": -11.48, "internal_energy": -2.13, "cluster_size": 30, "cluster_id": 1, "rank_in_cluster": 2}

>  <energy>  (38) 
-8.4

>  <cluster_rmsd>  (38) 
1.1

>  <cluster>  (38) 
3

$$$$

     RDKit          3D

 58 61  0  0  0  0  0  0  0  0999 V2000
  138.2340   78.6420  222.1680 C   0  0  0  0  0  0  0  0  0  0  0  0
  139.5460   77.9700  222.4920 C   0  0  1  0  0  0  0  0  0  0  0  0
  140.0310   77.1730  221.3940 N   0  0  0  0  0  0  0  0  0  0  0  0
  140.1850   75.7530  221.4780 C   0  0  0  0  0  0  0  0  0  0  0  0
  139.8900   75.1550  222.5460 O   0  0  0  0  0  0  0  0  0  0  0  0
  140.6930   75.0620  220.2740 C   0  0  1  0  0  0  0  0  0  0  0  0
  142.1830   75.1170  220.1400 C   0  0  0  0  0  0  0  0  0  0  0  0
  142.6870   73.8880  220.8620 C   0  0  0  0  0  0  0  0  0  0  0  0
  141.6010   72.8840  220.6130 C   0  0  0  0  0  0  0  0  0  0  0  0
  140.4090   73.6580  220.2600 N   0  0  0  0  0  0  0  0  0  0  0  0
  139.1740   73.0200  219.9570 C   0  0  0  0  0  0  0  0  0  0  0  0
  139.0790   72.5430  218.7770 O   0  0  0  0  0  0  0  0  0  0  0  0
  138.0700   72.9090  220.9320 C   0  0  0  0  0  0  0  0  0  0  0  0
  138.6400   72.6180  222.2360 N   0  0  0  0  0  0  0  0  0  0  0  0
  138.9010   71.2640  222.6000 C   0  0  0  0  0  0  0  0  0  0  0  0
  138.6420   70.3090  221.7980 O   0  0  0  0  0  0  0  0  0  0  0  0
  139.4740   70.9870  223.9160 C   0  0  0  0  0  0  0  0  0  0  0  0
  140.3370   71.9190  224.4830 C   0  0  0  0  0  0  0  0  0  0  0  0
  140.8780   71.6560  225.7270 C   0  0  0  0  0  0  0  0  0  0  0  0
  140.5800   70.4890  226.4150 C   0  0  0  0  0  0  0  0  0  0  0  0
  141.0980   70.1950  227.6510 C   0  0  0  0  0  0  0  0  0  0  0  0
  140.8040   69.0310  228.3420 C   0  0  0  0  0  0  0  0  0  0  0  0
  139.9300   68.1370  227.7160 C   0  0  0  0  0  0  0  0  0  0  0  0
  139.4030   68.4240  226.4720 C   0  0  0  0  0  0  0  0  0  0  0  0
  139.7180   69.5930  225.8100 C   0  0  0  0  0  0  0  0  0  0  0  0
  139.1750   69.8360  224.5860 N   0  0  0  0  0  0  0  0  0  0  0  0
  140.5090   79.0010  222.9120 C   0  0  0  0  0  0  0  0  0  0  0  0
  140.1360   80.3310  222.7300 C   0  0  0  0  0  0  0  0  0  0  0  0
  140.9910   81.3340  223.1020 C   0  0  0  0  0  0  0  0  0  0  0  0
  142.2310   81.1090  223.6600 C   0  0  0  0  0  0  0  0  0  0  0  0
  142.5950   79.7720  223.8380 C   0  0  0  0  0  0  0  0  0  0  0  0
  141.7410   78.7380  223.4670 C   0  0  0  0  0  0  0  0  0  0  0  0
  137.7171   78.9067  223.1022 H   0  0  0  0  0  0  0  0  0  0  0  0
  138.4238   79.5539  221.5828 H   0  0  0  0  0  0  0  0  0  0  0  0
  137.6049   77.9551  221.5828 H   0  0  0  0  0  0  0  0  0  0  0  0
  139.4005   77.2605  223.3199 H   0  0  0  0  0  0  0  0  0  0  0  0
  140.2790   77.6760  220.4940 H   0  0  0  0  0  0  0  0  0  0  0  0
  140.1796   75.6009  219.4641 H   0  0  0  0  0  0  0  0  0  0  0  0
  142.4770   75.0905  219.0804 H   0  0  0  0  0  0  0  0  0  0  0  0
  142.6015   76.0435  220.5602 H   0  0  0  0  0  0  0  0  0  0  0  0
  143.6448   73.5472  220.4420 H   0  0  0  0  0  0  0  0  0  0  0  0
  142.8816   74.0613  221.9307 H   0  0  0  0  0  0  0  0  0  0  0  0
  141.8812   72.2151  219.7859 H   0  0  0  0  0  0  0  0  0  0  0  0
  141.4248   72.2535  221.4970 H   0  0  0  0  0  0  0  0  0  0  0  0
  137.5131   73.8568  220.9727 H   0  0  0  0  0  0  0  0  0  0  0  0
  137.3796   72.1066  220.6328 H   0  0  0  0  0  0  0  0  0  0  0  0
  138.8600   73.3780  222.9080 H   0  0  0  0  0  0  0  0  0  0  0  0
  140.5845   72.8491  223.9504 H   0  0  0  0  0  0  0  0  0  0  0  0
  141.5606   72.3888  226.1821 H   0  0  0  0  0  0  0  0  0  0  0  0
  141.7813   70.9203  228.1168 H   0  0  0  0  0  0  0  0  0  0  0  0
  141.2357   68.8209  229.3317 H   0  0  0  0  0  0  0  0  0  0  0  0
  139.6597   67.1967  228.2188 H   0  0  0  0  0  0  0  0  0  0  0  0
  138.7176   67.7054  225.9989 H   0  0  0  0  0  0  0  0  0  0  0  0
  139.1581   80.5746  222.2890 H   0  0  0  0  0  0  0  0  0  0  0  0
  140.6710   82.3750  222.9472 H   0  0  0  0  0  0  0  0  0  0  0  0
  142.8967   81.9357  223.9490 H   0  0  0  0  0  0  0  0  0  0  0  0
  143.5738   79.5325  224.2791 H   0  0  0  0  0  0  0  0  0  0  0  0
  142.0550   77.6949  223.6195 H   0  0  0  0  0  0  0  0  0  0  0  0
  1  2  1  0
  2  3  1  0
  3  4  1  0
  4  5  2  0
  4  6  1  0
  6  7  1  0
  7  8  1  0
  8  9  1  0
  9 10  1  0
 10 11  1  0
 11 12  2  0
 11 13  1  0
 13 14  1  0
 14 15  1  0
 15 16  2  0
 15 17  1  0
 17 18  2  0
 18 19  1  0
 19 20  2  0
 20 21  1  0
 21 22  2  0
 22 23  1  0
 23 24  2  0
 24 25  1  0
 25 26  2  0
  2 27  1  0
 27 28  2  0
 28 29  1  0
 29 30  2  0
 30 31  1  0
 31 32  2  0
 10  6  1  0
 26 17  1  0
 32 27  1  0
 25 20  1  0
  1 33  1  0
  1 34  1  0
  1 35  1  0
  2 36  1  1
  3 37  1  0
  6 38  1  6
  7 39  1  0
  7 40  1  0
  8 41  1  0
  8 42  1  0
  9 43  1  0
  9 44  1  0
 13 45  1  0
 13 46  1  0
 14 47  1  0
 18 48  1  0
 19 49  1  0
 21 50  1  0
 22 51  1  0
 23 52  1  0
 24 53  1  0
 28 54  1  0
 29 55  1  0
 30 56  1  0
 31 57  1  0
 32 58  1  0
M  END
>  <smiles>  (39) 
C[C@@H](NC(=O)[C@H]1CCCN1C(=O)CNC(=O)c1ccc2ccccc2n1)c1ccccc1

>  <score_type>  (39) 
oracle

>  <origin>  (39) 
autodockgpu

>  <m_score__min__energy>  (39) 
-9.4199999999999999

>  <m_primary>  (39) 
energy

>  <rmsd>  (39) 
3.464924792519437

>  <m_score__min__rmsd>  (39) 
3.464924792519437

>  <meeko>  (39) 
{"free_energy": -8.83, "intermolecular_energy": -10.92, "internal_energy": -2.69, "cluster_size": 30, "cluster_id": 1, "rank_in_cluster": 15}

>  <energy>  (39) 
-8.12

>  <cluster_rmsd>  (39) 
1.42

>  <cluster>  (39) 
3

$$$$

     RDKit          3D

 58 61  0  0  0  0  0  0  0  0999 V2000
  139.1580   77.2380  222.5390 C   0  0  0  0  0  0  0  0  0  0  0  0
  140.6530   77.0310  222.5490 C   0  0  1  0  0  0  0  0  0  0  0  0
  141.0960   76.2320  221.4350 N   0  0  0  0  0  0  0  0  0  0  0  0
  140.9070   74.8160  221.3750 C   0  0  0  0  0  0  0  0  0  0  0  0
  140.3320   74.2220  222.3250 O   0  0  0  0  0  0  0  0  0  0  0  0
  141.4120   74.1230  220.1710 C   0  0  1  0  0  0  0  0  0  0  0  0
  142.8880   73.8780  220.1990 C   0  0  0  0  0  0  0  0  0  0  0  0
  143.0500   72.5230  220.8510 C   0  0  0  0  0  0  0  0  0  0  0  0
  141.8260   71.7860  220.3960 C   0  0  0  0  0  0  0  0  0  0  0  0
  140.8610   72.8110  219.9940 N   0  0  0  0  0  0  0  0  0  0  0  0
  139.5710   72.4650  219.5050 C   0  0  0  0  0  0  0  0  0  0  0  0
  139.2840   72.9190  218.3470 O   0  0  0  0  0  0  0  0  0  0  0  0
  138.6200   71.6370  220.2740 C   0  0  0  0  0  0  0  0  0  0  0  0
  139.0410   71.6270  221.6640 N   0  0  0  0  0  0  0  0  0  0  0  0
  139.3830   70.3880  222.2830 C   0  0  0  0  0  0  0  0  0  0  0  0
  139.3220   69.2930  221.6340 O   0  0  0  0  0  0  0  0  0  0  0  0
  139.8050   70.3930  223.6820 C   0  0  0  0  0  0  0  0  0  0  0  0
  140.3480   71.5570  224.2160 C   0  0  0  0  0  0  0  0  0  0  0  0
  140.7470   71.5610  225.5390 C   0  0  0  0  0  0  0  0  0  0  0  0
  140.6180   70.4350  226.3380 C   0  0  0  0  0  0  0  0  0  0  0  0
  141.0030   70.4020  227.6550 C   0  0  0  0  0  0  0  0  0  0  0  0
  140.8760   69.2810  228.4570 C   0  0  0  0  0  0  0  0  0  0  0  0
  140.3230   68.1450  227.8590 C   0  0  0  0  0  0  0  0  0  0  0  0
  139.9320   68.1670  226.5350 C   0  0  0  0  0  0  0  0  0  0  0  0
  140.0730   69.3020  225.7630 C   0  0  0  0  0  0  0  0  0  0  0  0
  139.6740   69.2800  224.4610 N   0  0  0  0  0  0  0  0  0  0  0  0
  141.3090   78.3480  222.5980 C   0  0  0  0  0  0  0  0  0  0  0  0
  141.7450   78.7940  223.8440 C   0  0  0  0  0  0  0  0  0  0  0  0
  142.3620   80.0120  223.9530 C   0  0  0  0  0  0  0  0  0  0  0  0
  142.5870   80.8480  222.8810 C   0  0  0  0  0  0  0  0  0  0  0  0
  142.1460   80.3920  221.6360 C   0  0  0  0  0  0  0  0  0  0  0  0
  141.5170   79.1570  221.5050 C   0  0  0  0  0  0  0  0  0  0  0  0
  138.7880   77.2892  223.5736 H   0  0  0  0  0  0  0  0  0  0  0  0
  138.9214   78.1775  222.0180 H   0  0  0  0  0  0  0  0  0  0  0  0
  138.6750   76.3982  222.0180 H   0  0  0  0  0  0  0  0  0  0  0  0
  140.9377   76.4588  223.4443 H   0  0  0  0  0  0  0  0  0  0  0  0
  141.5800   76.7310  220.6350 H   0  0  0  0  0  0  0  0  0  0  0  0
  141.1171   74.8136  219.3672 H   0  0  0  0  0  0  0  0  0  0  0  0
  143.2970   73.8667  219.1779 H   0  0  0  0  0  0  0  0  0  0  0  0
  143.4263   74.6658  220.7463 H   0  0  0  0  0  0  0  0  0  0  0  0
  143.9658   72.0229  220.5028 H   0  0  0  0  0  0  0  0  0  0  0  0
  143.1447   72.5753  221.9457 H   0  0  0  0  0  0  0  0  0  0  0  0
  142.0677   71.1340  219.5437 H   0  0  0  0  0  0  0  0  0  0  0  0
  141.4228   71.1453  221.1941 H   0  0  0  0  0  0  0  0  0  0  0  0
  137.6087   72.0626  220.1951 H   0  0  0  0  0  0  0  0  0  0  0  0
  138.6043   70.6115  219.8764 H   0  0  0  0  0  0  0  0  0  0  0  0
  139.0990   72.5040  222.2140 H   0  0  0  0  0  0  0  0  0  0  0  0
  140.4579   72.4588  223.5958 H   0  0  0  0  0  0  0  0  0  0  0  0
  141.1767   72.4782  225.9681 H   0  0  0  0  0  0  0  0  0  0  0  0
  141.4345   71.3129  228.0956 H   0  0  0  0  0  0  0  0  0  0  0  0
  141.1937   69.2840  229.5101 H   0  0  0  0  0  0  0  0  0  0  0  0
  140.1982   67.2249  228.4488 H   0  0  0  0  0  0  0  0  0  0  0  0
  139.4991   67.2608  226.0862 H   0  0  0  0  0  0  0  0  0  0  0  0
  141.5942   78.1700  224.7372 H   0  0  0  0  0  0  0  0  0  0  0  0
  142.6954   80.3400  224.9486 H   0  0  0  0  0  0  0  0  0  0  0  0
  143.0864   81.8210  222.9989 H   0  0  0  0  0  0  0  0  0  0  0  0
  142.2983   81.0189  220.7451 H   0  0  0  0  0  0  0  0  0  0  0  0
  141.1811   78.8229  220.5122 H   0  0  0  0  0  0  0  0  0  0  0  0
  1  2  1  0
  2  3  1  0
  3  4  1  0
  4  5  2  0
  4  6  1  0
  6  7  1  0
  7  8  1  0
  8  9  1  0
  9 10  1  0
 10 11  1  0
 11 12  2  0
 11 13  1  0
 13 14  1  0
 14 15  1  0
 15 16  2  0
 15 17  1  0
 17 18  2  0
 18 19  1  0
 19 20  2  0
 20 21  1  0
 21 22  2  0
 22 23  1  0
 23 24  2  0
 24 25  1  0
 25 26  2  0
  2 27  1  0
 27 28  2  0
 28 29  1  0
 29 30  2  0
 30 31  1  0
 31 32  2  0
 10  6  1  0
 26 17  1  0
 32 27  1  0
 25 20  1  0
  1 33  1  0
  1 34  1  0
  1 35  1  0
  2 36  1  1
  3 37  1  0
  6 38  1  6
  7 39  1  0
  7 40  1  0
  8 41  1  0
  8 42  1  0
  9 43  1  0
  9 44  1  0
 13 45  1  0
 13 46  1  0
 14 47  1  0
 18 48  1  0
 19 49  1  0
 21 50  1  0
 22 51  1  0
 23 52  1  0
 24 53  1  0
 28 54  1  0
 29 55  1  0
 30 56  1  0
 31 57  1  0
 32 58  1  0
M  END
>  <smiles>  (40) 
C[C@@H](NC(=O)[C@H]1CCCN1C(=O)CNC(=O)c1ccc2ccccc2n1)c1ccccc1

>  <score_type>  (40) 
oracle

>  <origin>  (40) 
autodockgpu

>  <m_score__min__energy>  (40) 
-9.4199999999999999

>  <m_primary>  (40) 
energy

>  <rmsd>  (40) 
3.6650783404869465

>  <m_score__min__rmsd>  (40) 
3.6650783404869465

>  <meeko>  (40) 
{"free_energy": -8.89, "intermolecular_energy": -10.97, "internal_energy": -2.72, "cluster_size": 30, "cluster_id": 1, "rank_in_cluster": 12}

>  <energy>  (40) 
-8.33

>  <cluster_rmsd>  (40) 
0.0

>  <cluster>  (40) 
4

$$$$

     RDKit          3D

 58 61  0  0  0  0  0  0  0  0999 V2000
  138.9930   77.7380  222.6720 C   0  0  0  0  0  0  0  0  0  0  0  0
  140.4990   77.6850  222.7530 C   0  0  1  0  0  0  0  0  0  0  0  0
  141.0700   76.8940  221.6910 N   0  0  0  0  0  0  0  0  0  0  0  0
  140.6720   77.0330  220.3250 C   0  0  0  0  0  0  0  0  0  0  0  0
  139.7880   77.8730  220.0130 O   0  0  0  0  0  0  0  0  0  0  0  0
  141.3410   76.1560  219.3400 C   0  0  1  0  0  0  0  0  0  0  0  0
  142.5590   76.7730  218.7250 C   0  0  0  0  0  0  0  0  0  0  0  0
  143.7030   76.3660  219.6260 C   0  0  0  0  0  0  0  0  0  0  0  0
  143.2860   75.0070  220.1030 C   0  0  0  0  0  0  0  0  0  0  0  0
  141.8360   74.9360  219.9060 N   0  0  0  0  0  0  0  0  0  0  0  0
  141.0960   73.7730  220.2580 C   0  0  0  0  0  0  0  0  0  0  0  0
  141.6720   72.6620  220.0070 O   0  0  0  0  0  0  0  0  0  0  0  0
  139.7540   73.8340  220.8720 C   0  0  0  0  0  0  0  0  0  0  0  0
  139.8120   73.1710  222.1630 N   0  0  0  0  0  0  0  0  0  0  0  0
  139.8620   71.7460  222.2170 C   0  0  0  0  0  0  0  0  0  0  0  0
  139.8570   71.0510  221.1500 O   0  0  0  0  0  0  0  0  0  0  0  0
  139.9200   71.0930  223.5230 C   0  0  0  0  0  0  0  0  0  0  0  0
  139.4360   69.7950  223.6480 C   0  0  0  0  0  0  0  0  0  0  0  0
  139.4920   69.1780  224.8840 C   0  0  0  0  0  0  0  0  0  0  0  0
  140.0160   69.8250  225.9930 C   0  0  0  0  0  0  0  0  0  0  0  0
  140.0880   69.2450  227.2350 C   0  0  0  0  0  0  0  0  0  0  0  0
  140.6110   69.8860  228.3450 C   0  0  0  0  0  0  0  0  0  0  0  0
  141.0810   71.1880  228.1510 C   0  0  0  0  0  0  0  0  0  0  0  0
  141.0140   71.7810  226.9060 C   0  0  0  0  0  0  0  0  0  0  0  0
  140.4860   71.1140  225.8190 C   0  0  0  0  0  0  0  0  0  0  0  0
  140.4400   71.7370  224.6090 N   0  0  0  0  0  0  0  0  0  0  0  0
  141.0170   79.0620  222.7740 C   0  0  0  0  0  0  0  0  0  0  0  0
  142.2480   79.2680  223.3950 C   0  0  0  0  0  0  0  0  0  0  0  0
  142.7810   80.5280  223.4460 C   0  0  0  0  0  0  0  0  0  0  0  0
  142.1640   81.6380  222.9090 C   0  0  0  0  0  0  0  0  0  0  0  0
  140.9310   81.4200  222.2890 C   0  0  0  0  0  0  0  0  0  0  0  0
  140.3720   80.1470  222.2260 C   0  0  0  0  0  0  0  0  0  0  0  0
  138.5715   77.7528  223.6879 H   0  0  0  0  0  0  0  0  0  0  0  0
  138.6865   78.6475  222.1345 H   0  0  0  0  0  0  0  0  0  0  0  0
  138.6233   76.8523  222.1345 H   0  0  0  0  0  0  0  0  0  0  0  0
  140.7984   77.1788  223.6826 H   0  0  0  0  0  0  0  0  0  0  0  0
  141.8140   76.1860  221.9520 H   0  0  0  0  0  0  0  0  0  0  0  0
  140.5419   75.9821  218.6043 H   0  0  0  0  0  0  0  0  0  0  0  0
  142.7142   76.3888  217.7060 H   0  0  0  0  0  0  0  0  0  0  0  0
  142.4696   77.8661  218.6399 H   0  0  0  0  0  0  0  0  0  0  0  0
  144.6489   76.3162  219.0667 H   0  0  0  0  0  0  0  0  0  0  0  0
  143.8851   77.0771  220.4452 H   0  0  0  0  0  0  0  0  0  0  0  0
  143.7900   74.2249  219.5162 H   0  0  0  0  0  0  0  0  0  0  0  0
  143.5570   74.8499  221.1574 H   0  0  0  0  0  0  0  0  0  0  0  0
  139.4538   74.8837  221.0062 H   0  0  0  0  0  0  0  0  0  0  0  0
  139.0178   73.3366  220.2235 H   0  0  0  0  0  0  0  0  0  0  0  0
  139.8180   73.7140  223.0470 H   0  0  0  0  0  0  0  0  0  0  0  0
  139.0159   69.2684  222.7784 H   0  0  0  0  0  0  0  0  0  0  0  0
  139.1125   68.1510  224.9901 H   0  0  0  0  0  0  0  0  0  0  0  0
  139.7109   68.2186  227.3544 H   0  0  0  0  0  0  0  0  0  0  0  0
  140.6544   69.3960  229.3289 H   0  0  0  0  0  0  0  0  0  0  0  0
  141.5081   71.7452  228.9979 H   0  0  0  0  0  0  0  0  0  0  0  0
  141.3894   72.8069  226.7776 H   0  0  0  0  0  0  0  0  0  0  0  0
  142.7891   78.4212  223.8424 H   0  0  0  0  0  0  0  0  0  0  0  0
  143.7537   80.6620  223.9420 H   0  0  0  0  0  0  0  0  0  0  0  0
  142.6170   82.6388  222.9655 H   0  0  0  0  0  0  0  0  0  0  0  0
  140.3927   82.2693  221.8429 H   0  0  0  0  0  0  0  0  0  0  0  0
  139.4000   80.0061  221.7307 H   0  0  0  0  0  0  0  0  0  0  0  0
  1  2  1  0
  2  3  1  0
  3  4  1  0
  4  5  2  0
  4  6  1  0
  6  7  1  0
  7  8  1  0
  8  9  1  0
  9 10  1  0
 10 11  1  0
 11 12  2  0
 11 13  1  0
 13 14  1  0
 14 15  1  0
 15 16  2  0
 15 17  1  0
 17 18  2  0
 18 19  1  0
 19 20  2  0
 20 21  1  0
 21 22  2  0
 22 23  1  0
 23 24  2  0
 24 25  1  0
 25 26  2  0
  2 27  1  0
 27 28  2  0
 28 29  1  0
 29 30  2  0
 30 31  1  0
 31 32  2  0
 10  6  1  0
 26 17  1  0
 32 27  1  0
 25 20  1  0
  1 33  1  0
  1 34  1  0
  1 35  1  0
  2 36  1  1
  3 37  1  0
  6 38  1  6
  7 39  1  0
  7 40  1  0
  8 41  1  0
  8 42  1  0
  9 43  1  0
  9 44  1  0
 13 45  1  0
 13 46  1  0
 14 47  1  0
 18 48  1  0
 19 49  1  0
 21 50  1  0
 22 51  1  0
 23 52  1  0
 24 53  1  0
 28 54  1  0
 29 55  1  0
 30 56  1  0
 31 57  1  0
 32 58  1  0
M  END
>  <smiles>  (41) 
C[C@@H](NC(=O)[C@H]1CCCN1C(=O)CNC(=O)c1ccc2ccccc2n1)c1ccccc1

>  <score_type>  (41) 
oracle

>  <origin>  (41) 
autodockgpu

>  <m_score__min__energy>  (41) 
-9.4199999999999999

>  <m_primary>  (41) 
energy

>  <rmsd>  (41) 
2.7990300170700864

>  <m_score__min__rmsd>  (41) 
2.7990300170700864

>  <meeko>  (41) 
{"free_energy": -9.42, "intermolecular_energy": -11.5, "internal_energy": -2.07, "cluster_size": 30, "cluster_id": 1, "rank_in_cluster": 1}

>  <energy>  (41) 
-8.29

>  <cluster_rmsd>  (41) 
0.0

>  <cluster>  (41) 
5

$$$$

     RDKit          3D

 58 61  0  0  0  0  0  0  0  0999 V2000
  138.2330   80.1800  223.3480 C   0  0  0  0  0  0  0  0  0  0  0  0
  139.1870   79.0140  223.4330 C   0  0  1  0  0  0  0  0  0  0  0  0
  138.9470   78.0420  222.3960 N   0  0  0  0  0  0  0  0  0  0  0  0
  137.6340   77.6020  222.0370 C   0  0  0  0  0  0  0  0  0  0  0  0
  136.6320   78.0710  222.6400 O   0  0  0  0  0  0  0  0  0  0  0  0
  137.5350   76.6000  220.9550 C   0  0  1  0  0  0  0  0  0  0  0  0
  137.2770   77.2010  219.6080 C   0  0  0  0  0  0  0  0  0  0  0  0
  138.6480   77.4610  219.0250 C   0  0  0  0  0  0  0  0  0  0  0  0
  139.4670   76.3370  219.5840 C   0  0  0  0  0  0  0  0  0  0  0  0
  138.7410   75.8510  220.7600 N   0  0  0  0  0  0  0  0  0  0  0  0
  139.2390   74.7760  221.5460 C   0  0  0  0  0  0  0  0  0  0  0  0
  140.1950   75.0740  222.3390 O   0  0  0  0  0  0  0  0  0  0  0  0
  138.6970   73.4050  221.4630 C   0  0  0  0  0  0  0  0  0  0  0  0
  139.1120   72.6750  222.6480 N   0  0  0  0  0  0  0  0  0  0  0  0
  138.8030   71.2870  222.7600 C   0  0  0  0  0  0  0  0  0  0  0  0
  138.1680   70.6820  221.8370 O   0  0  0  0  0  0  0  0  0  0  0  0
  139.2270   70.5660  223.9590 C   0  0  0  0  0  0  0  0  0  0  0  0
  139.0800   69.1840  224.0000 C   0  0  0  0  0  0  0  0  0  0  0  0
  139.4810   68.5030  225.1340 C   0  0  0  0  0  0  0  0  0  0  0  0
  140.0250   69.1680  226.2220 C   0  0  0  0  0  0  0  0  0  0  0  0
  140.4350   68.5260  227.3640 C   0  0  0  0  0  0  0  0  0  0  0  0
  140.9780   69.1850  228.4540 C   0  0  0  0  0  0  0  0  0  0  0  0
  141.0990   70.5730  228.3480 C   0  0  0  0  0  0  0  0  0  0  0  0
  140.6900   71.2290  227.2040 C   0  0  0  0  0  0  0  0  0  0  0  0
  140.1520   70.5420  226.1350 C   0  0  0  0  0  0  0  0  0  0  0  0
  139.7620   71.2290  225.0260 N   0  0  0  0  0  0  0  0  0  0  0  0
  140.5640   79.5320  223.4150 C   0  0  0  0  0  0  0  0  0  0  0  0
  140.7530   80.8490  223.8310 C   0  0  0  0  0  0  0  0  0  0  0  0
  142.0120   81.3870  223.8360 C   0  0  0  0  0  0  0  0  0  0  0  0
  143.1370   80.6930  223.4450 C   0  0  0  0  0  0  0  0  0  0  0  0
  142.9370   79.3740  223.0300 C   0  0  0  0  0  0  0  0  0  0  0  0
  141.6650   78.8080  223.0180 C   0  0  0  0  0  0  0  0  0  0  0  0
  137.9642   80.5085  224.3628 H   0  0  0  0  0  0  0  0  0  0  0  0
  138.7148   81.0095  222.8096 H   0  0  0  0  0  0  0  0  0  0  0  0
  137.3246   79.8720  222.8096 H   0  0  0  0  0  0  0  0  0  0  0  0
  139.0226   78.4742  224.3772 H   0  0  0  0  0  0  0  0  0  0  0  0
  139.7890   77.6470  221.8890 H   0  0  0  0  0  0  0  0  0  0  0  0
  136.7015   75.9698  221.2987 H   0  0  0  0  0  0  0  0  0  0  0  0
  136.7139   76.5005  218.9738 H   0  0  0  0  0  0  0  0  0  0  0  0
  136.6757   78.1197  219.6743 H   0  0  0  0  0  0  0  0  0  0  0  0
  138.6242   77.4250  217.9258 H   0  0  0  0  0  0  0  0  0  0  0  0
  139.0457   78.4554  219.2758 H   0  0  0  0  0  0  0  0  0  0  0  0
  139.5704   75.5333  218.8401 H   0  0  0  0  0  0  0  0  0  0  0  0
  140.4812   76.6713  219.8477 H   0  0  0  0  0  0  0  0  0  0  0  0
  137.5987   73.4421  221.4153 H   0  0  0  0  0  0  0  0  0  0  0  0
  139.0740   72.9038  220.5593 H   0  0  0  0  0  0  0  0  0  0  0  0
  139.6300   73.1450  223.4140 H   0  0  0  0  0  0  0  0  0  0  0  0
  138.6517   68.6416  223.1442 H   0  0  0  0  0  0  0  0  0  0  0  0
  139.3660   67.4098  225.1740 H   0  0  0  0  0  0  0  0  0  0  0  0
  140.3267   67.4326  227.4158 H   0  0  0  0  0  0  0  0  0  0  0  0
  141.2976   68.6438  229.3567 H   0  0  0  0  0  0  0  0  0  0  0  0
  141.5240   71.1483  229.1837 H   0  0  0  0  0  0  0  0  0  0  0  0
  140.7952   72.3223  227.1434 H   0  0  0  0  0  0  0  0  0  0  0  0
  139.8932   81.4542  224.1543 H   0  0  0  0  0  0  0  0  0  0  0  0
  142.1321   82.4283  224.1697 H   0  0  0  0  0  0  0  0  0  0  0  0
  144.1365   81.1521  223.4590 H   0  0  0  0  0  0  0  0  0  0  0  0
  143.7994   78.7723  222.7072 H   0  0  0  0  0  0  0  0  0  0  0  0
  141.5382   77.7669  222.6864 H   0  0  0  0  0  0  0  0  0  0  0  0
  1  2  1  0
  2  3  1  0
  3  4  1  0
  4  5  2  0
  4  6  1  0
  6  7  1  0
  7  8  1  0
  8  9  1  0
  9 10  1  0
 10 11  1  0
 11 12  2  0
 11 13  1  0
 13 14  1  0
 14 15  1  0
 15 16  2  0
 15 17  1  0
 17 18  2  0
 18 19  1  0
 19 20  2  0
 20 21  1  0
 21 22  2  0
 22 23  1  0
 23 24  2  0
 24 25  1  0
 25 26  2  0
  2 27  1  0
 27 28  2  0
 28 29  1  0
 29 30  2  0
 30 31  1  0
 31 32  2  0
 10  6  1  0
 26 17  1  0
 32 27  1  0
 25 20  1  0
  1 33  1  0
  1 34  1  0
  1 35  1  0
  2 36  1  1
  3 37  1  0
  6 38  1  1
  7 39  1  0
  7 40  1  0
  8 41  1  0
  8 42  1  0
  9 43  1  0
  9 44  1  0
 13 45  1  0
 13 46  1  0
 14 47  1  0
 18 48  1  0
 19 49  1  0
 21 50  1  0
 22 51  1  0
 23 52  1  0
 24 53  1  0
 28 54  1  0
 29 55  1  0
 30 56  1  0
 31 57  1  0
 32 58  1  0
M  END
>  <smiles>  (42) 
C[C@@H](NC(=O)[C@H]1CCCN1C(=O)CNC(=O)c1ccc2ccccc2n1)c1ccccc1

>  <score_type>  (42) 
oracle

>  <origin>  (42) 
autodockgpu

>  <m_score__min__energy>  (42) 
-9.4199999999999999

>  <m_primary>  (42) 
energy

>  <rmsd>  (42) 
2.9056970319600564

>  <m_score__min__rmsd>  (42) 
2.9056970319600564

>  <meeko>  (42) 
{"free_energy": -8.65, "intermolecular_energy": -10.74, "internal_energy": -2.62, "cluster_size": 30, "cluster_id": 1, "rank_in_cluster": 24}

>  <energy>  (42) 
-7.51

>  <cluster_rmsd>  (42) 
0.0

>  <cluster>  (42) 
6

$$$$

     RDKit          3D

 58 61  0  0  0  0  0  0  0  0999 V2000
  138.0300   80.4780  223.2520 C   0  0  0  0  0  0  0  0  0  0  0  0
  138.9020   79.2640  223.4640 C   0  0  1  0  0  0  0  0  0  0  0  0
  138.6330   78.2300  222.4970 N   0  0  0  0  0  0  0  0  0  0  0  0
  137.3110   77.9040  222.0600 C   0  0  0  0  0  0  0  0  0  0  0  0
  136.3260   78.5350  222.5270 O   0  0  0  0  0  0  0  0  0  0  0  0
  137.1830   76.8200  221.0630 C   0  0  1  0  0  0  0  0  0  0  0  0
  136.7690   77.3020  219.7080 C   0  0  0  0  0  0  0  0  0  0  0  0
  138.0640   77.5970  218.9840 C   0  0  0  0  0  0  0  0  0  0  0  0
  139.0010   76.5670  219.5420 C   0  0  0  0  0  0  0  0  0  0  0  0
  138.4130   76.1300  220.8100 N   0  0  0  0  0  0  0  0  0  0  0  0
  139.0460   75.1470  221.6200 C   0  0  0  0  0  0  0  0  0  0  0  0
  139.6620   75.5960  222.6450 O   0  0  0  0  0  0  0  0  0  0  0  0
  139.0010   73.7030  221.3100 C   0  0  0  0  0  0  0  0  0  0  0  0
  139.3030   72.9650  222.5240 N   0  0  0  0  0  0  0  0  0  0  0  0
  139.1490   71.5470  222.5370 C   0  0  0  0  0  0  0  0  0  0  0  0
  138.7510   70.9220  221.5010 O   0  0  0  0  0  0  0  0  0  0  0  0
  139.4560   70.8170  223.7660 C   0  0  0  0  0  0  0  0  0  0  0  0
  139.2040   69.4500  223.8170 C   0  0  0  0  0  0  0  0  0  0  0  0
  139.4950   68.7610  224.9800 C   0  0  0  0  0  0  0  0  0  0  0  0
  140.0290   69.4030  226.0860 C   0  0  0  0  0  0  0  0  0  0  0  0
  140.3320   68.7520  227.2570 C   0  0  0  0  0  0  0  0  0  0  0  0
  140.8650   69.3870  228.3650 C   0  0  0  0  0  0  0  0  0  0  0  0
  141.0960   70.7610  228.2460 C   0  0  0  0  0  0  0  0  0  0  0  0
  140.7960   71.4260  227.0740 C   0  0  0  0  0  0  0  0  0  0  0  0
  140.2640   70.7620  225.9870 C   0  0  0  0  0  0  0  0  0  0  0  0
  139.9830   71.4560  224.8500 N   0  0  0  0  0  0  0  0  0  0  0  0
  140.3100   79.6910  223.4600 C   0  0  0  0  0  0  0  0  0  0  0  0
  141.2600   78.7430  223.0860 C   0  0  0  0  0  0  0  0  0  0  0  0
  142.5870   79.0810  223.0630 C   0  0  0  0  0  0  0  0  0  0  0  0
  143.0580   80.3330  223.3940 C   0  0  0  0  0  0  0  0  0  0  0  0
  142.0980   81.2770  223.7680 C   0  0  0  0  0  0  0  0  0  0  0  0
  140.7440   80.9530  223.7970 C   0  0  0  0  0  0  0  0  0  0  0  0
  137.7332   80.8911  224.2273 H   0  0  0  0  0  0  0  0  0  0  0  0
  138.5902   81.2377  222.6871 H   0  0  0  0  0  0  0  0  0  0  0  0
  137.1312   80.1897  222.6871 H   0  0  0  0  0  0  0  0  0  0  0  0
  138.6710   78.8123  224.4400 H   0  0  0  0  0  0  0  0  0  0  0  0
  139.4620   77.6990  222.1040 H   0  0  0  0  0  0  0  0  0  0  0  0
  136.4255   76.1697  221.5249 H   0  0  0  0  0  0  0  0  0  0  0  0
  136.1988   76.5244  219.1787 H   0  0  0  0  0  0  0  0  0  0  0  0
  136.1175   78.1864  219.7657 H   0  0  0  0  0  0  0  0  0  0  0  0
  137.9460   77.4773  217.8969 H   0  0  0  0  0  0  0  0  0  0  0  0
  138.4169   78.6289  219.1274 H   0  0  0  0  0  0  0  0  0  0  0  0
  139.0908   75.7171  218.8495 H   0  0  0  0  0  0  0  0  0  0  0  0
  140.0109   76.9781  219.6871 H   0  0  0  0  0  0  0  0  0  0  0  0
  137.9979   73.4313  220.9496 H   0  0  0  0  0  0  0  0  0  0  0  0
  139.7352   73.4609  220.5274 H   0  0  0  0  0  0  0  0  0  0  0  0
  139.6280   73.4500  223.3810 H   0  0  0  0  0  0  0  0  0  0  0  0
  138.7806   68.9262  222.9473 H   0  0  0  0  0  0  0  0  0  0  0  0
  139.2984   67.6798  225.0284 H   0  0  0  0  0  0  0  0  0  0  0  0
  140.1411   67.6703  227.3171 H   0  0  0  0  0  0  0  0  0  0  0  0
  141.0950   68.8395  229.2910 H   0  0  0  0  0  0  0  0  0  0  0  0
  141.5209   71.3174  229.0945 H   0  0  0  0  0  0  0  0  0  0  0  0
  140.9848   72.5075  227.0049 H   0  0  0  0  0  0  0  0  0  0  0  0
  140.9451   77.7258  222.8099 H   0  0  0  0  0  0  0  0  0  0  0  0
  143.3153   78.3125  222.7646 H   0  0  0  0  0  0  0  0  0  0  0  0
  144.1305   80.5759  223.3654 H   0  0  0  0  0  0  0  0  0  0  0  0
  142.4171   82.2928  224.0441 H   0  0  0  0  0  0  0  0  0  0  0  0
  140.0103   81.7170  224.0936 H   0  0  0  0  0  0  0  0  0  0  0  0
  1  2  1  0
  2  3  1  0
  3  4  1  0
  4  5  2  0
  4  6  1  0
  6  7  1  0
  7  8  1  0
  8  9  1  0
  9 10  1  0
 10 11  1  0
 11 12  2  0
 11 13  1  0
 13 14  1  0
 14 15  1  0
 15 16  2  0
 15 17  1  0
 17 18  2  0
 18 19  1  0
 19 20  2  0
 20 21  1  0
 21 22  2  0
 22 23  1  0
 23 24  2  0
 24 25  1  0
 25 26  2  0
  2 27  1  0
 27 28  2  0
 28 29  1  0
 29 30  2  0
 30 31  1  0
 31 32  2  0
 10  6  1  0
 26 17  1  0
 32 27  1  0
 25 20  1  0
  1 33  1  0
  1 34  1  0
  1 35  1  0
  2 36  1  1
  3 37  1  0
  6 38  1  1
  7 39  1  0
  7 40  1  0
  8 41  1  0
  8 42  1  0
  9 43  1  0
  9 44  1  0
 13 45  1  0
 13 46  1  0
 14 47  1  0
 18 48  1  0
 19 49  1  0
 21 50  1  0
 22 51  1  0
 23 52  1  0
 24 53  1  0
 28 54  1  0
 29 55  1  0
 30 56  1  0
 31 57  1  0
 32 58  1  0
M  END
>  <smiles>  (43) 
C[C@@H](NC(=O)[C@H]1CCCN1C(=O)CNC(=O)c1ccc2ccccc2n1)c1ccccc1

>  <score_type>  (43) 
oracle

>  <origin>  (43) 
autodockgpu

>  <m_score__min__energy>  (43) 
-9.4199999999999999

>  <m_primary>  (43) 
energy

>  <rmsd>  (43) 
3.123851712794764

>  <m_score__min__rmsd>  (43) 
3.123851712794764

>  <meeko>  (43) 
{"free_energy": -8.48, "intermolecular_energy": -10.57, "internal_energy": -3.04, "cluster_size": 30, "cluster_id": 1, "rank_in_cluster": 29}

>  <energy>  (43) 
-7.51

>  <cluster_rmsd>  (43) 
0.97

>  <cluster>  (43) 
6

$$$$

     RDKit          3D

 58 61  0  0  0  0  0  0  0  0999 V2000
  138.5600   79.8310  221.4520 C   0  0  0  0  0  0  0  0  0  0  0  0
  139.3640   78.9260  222.3530 C   0  0  1  0  0  0  0  0  0  0  0  0
  139.6570   77.6620  221.7260 N   0  0  0  0  0  0  0  0  0  0  0  0
  140.0530   77.5510  220.3560 C   0  0  0  0  0  0  0  0  0  0  0  0
  140.1560   78.5890  219.6500 O   0  0  0  0  0  0  0  0  0  0  0  0
  140.3230   76.1910  219.8440 C   0  0  1  0  0  0  0  0  0  0  0  0
  141.5520   76.1060  218.9950 C   0  0  0  0  0  0  0  0  0  0  0  0
  142.6750   75.7930  219.9580 C   0  0  0  0  0  0  0  0  0  0  0  0
  141.9990   74.9450  220.9940 C   0  0  0  0  0  0  0  0  0  0  0  0
  140.5670   75.2300  220.8790 N   0  0  0  0  0  0  0  0  0  0  0  0
  139.6140   74.5940  221.7230 C   0  0  0  0  0  0  0  0  0  0  0  0
  139.2130   75.2880  222.7160 O   0  0  0  0  0  0  0  0  0  0  0  0
  139.1160   73.2250  221.4780 C   0  0  0  0  0  0  0  0  0  0  0  0
  139.3130   72.4440  222.6870 N   0  0  0  0  0  0  0  0  0  0  0  0
  139.2360   71.0210  222.6220 C   0  0  0  0  0  0  0  0  0  0  0  0
  138.9980   70.4290  221.5190 O   0  0  0  0  0  0  0  0  0  0  0  0
  139.4360   70.2490  223.8460 C   0  0  0  0  0  0  0  0  0  0  0  0
  139.0300   68.9180  223.8760 C   0  0  0  0  0  0  0  0  0  0  0  0
  139.2190   68.1890  225.0340 C   0  0  0  0  0  0  0  0  0  0  0  0
  139.8010   68.7540  226.1590 C   0  0  0  0  0  0  0  0  0  0  0  0
  140.0060   68.0610  227.3260 C   0  0  0  0  0  0  0  0  0  0  0  0
  140.5870   68.6200  228.4510 C   0  0  0  0  0  0  0  0  0  0  0  0
  140.9730   69.9600  228.3540 C   0  0  0  0  0  0  0  0  0  0  0  0
  140.7720   70.6670  227.1850 C   0  0  0  0  0  0  0  0  0  0  0  0
  140.1890   70.0790  226.0810 C   0  0  0  0  0  0  0  0  0  0  0  0
  140.0110   70.8120  224.9480 N   0  0  0  0  0  0  0  0  0  0  0  0
  140.5780   79.6430  222.7760 C   0  0  0  0  0  0  0  0  0  0  0  0
  141.7820   78.9440  222.7130 C   0  0  0  0  0  0  0  0  0  0  0  0
  142.9450   79.5570  223.0940 C   0  0  0  0  0  0  0  0  0  0  0  0
  143.0050   80.8580  223.5480 C   0  0  0  0  0  0  0  0  0  0  0  0
  141.7930   81.5490  223.6070 C   0  0  0  0  0  0  0  0  0  0  0  0
  140.6000   80.9430  223.2240 C   0  0  0  0  0  0  0  0  0  0  0  0
  137.9534   80.5138  222.0650 H   0  0  0  0  0  0  0  0  0  0  0  0
  139.2417   80.4160  220.8171 H   0  0  0  0  0  0  0  0  0  0  0  0
  137.8988   79.2229  220.8171 H   0  0  0  0  0  0  0  0  0  0  0  0
  138.7710   78.6749  223.2448 H   0  0  0  0  0  0  0  0  0  0  0  0
  139.5700   76.7880  222.3190 H   0  0  0  0  0  0  0  0  0  0  0  0
  139.4065   75.9725  219.2763 H   0  0  0  0  0  0  0  0  0  0  0  0
  141.4502   75.3057  218.2472 H   0  0  0  0  0  0  0  0  0  0  0  0
  141.7338   77.0373  218.4385 H   0  0  0  0  0  0  0  0  0  0  0  0
  143.4827   75.2385  219.4578 H   0  0  0  0  0  0  0  0  0  0  0  0
  143.1532   76.6913  220.3755 H   0  0  0  0  0  0  0  0  0  0  0  0
  142.1931   73.8795  220.8015 H   0  0  0  0  0  0  0  0  0  0  0  0
  142.3739   75.1681  222.0038 H   0  0  0  0  0  0  0  0  0  0  0  0
  138.0455   73.2581  221.2270 H   0  0  0  0  0  0  0  0  0  0  0  0
  139.6613   72.7682  220.6390 H   0  0  0  0  0  0  0  0  0  0  0  0
  139.5080   72.9020  223.5970 H   0  0  0  0  0  0  0  0  0  0  0  0
  138.5665   68.4545  222.9926 H   0  0  0  0  0  0  0  0  0  0  0  0
  138.9007   67.1365  225.0646 H   0  0  0  0  0  0  0  0  0  0  0  0
  139.6925   67.0075  227.3693 H   0  0  0  0  0  0  0  0  0  0  0  0
  140.7372   68.0399  229.3735 H   0  0  0  0  0  0  0  0  0  0  0  0
  141.4413   70.4559  229.2170 H   0  0  0  0  0  0  0  0  0  0  0  0
  141.0831   71.7208  227.1327 H   0  0  0  0  0  0  0  0  0  0  0  0
  141.7976   77.9029  222.3582 H   0  0  0  0  0  0  0  0  0  0  0  0
  143.8808   78.9819  223.0350 H   0  0  0  0  0  0  0  0  0  0  0  0
  143.9549   81.3253  223.8470 H   0  0  0  0  0  0  0  0  0  0  0  0
  141.7809   82.5900  223.9622 H   0  0  0  0  0  0  0  0  0  0  0  0
  139.6606   81.5125  223.2805 H   0  0  0  0  0  0  0  0  0  0  0  0
  1  2  1  0
  2  3  1  0
  3  4  1  0
  4  5  2  0
  4  6  1  0
  6  7  1  0
  7  8  1  0
  8  9  1  0
  9 10  1  0
 10 11  1  0
 11 12  2  0
 11 13  1  0
 13 14  1  0
 14 15  1  0
 15 16  2  0
 15 17  1  0
 17 18  2  0
 18 19  1  0
 19 20  2  0
 20 21  1  0
 21 22  2  0
 22 23  1  0
 23 24  2  0
 24 25  1  0
 25 26  2  0
  2 27  1  0
 27 28  2  0
 28 29  1  0
 29 30  2  0
 30 31  1  0
 31 32  2  0
 10  6  1  0
 26 17  1  0
 32 27  1  0
 25 20  1  0
  1 33  1  0
  1 34  1  0
  1 35  1  0
  2 36  1  1
  3 37  1  0
  6 38  1  6
  7 39  1  0
  7 40  1  0
  8 41  1  0
  8 42  1  0
  9 43  1  0
  9 44  1  0
 13 45  1  0
 13 46  1  0
 14 47  1  0
 18 48  1  0
 19 49  1  0
 21 50  1  0
 22 51  1  0
 23 52  1  0
 24 53  1  0
 28 54  1  0
 29 55  1  0
 30 56  1  0
 31 57  1  0
 32 58  1  0
M  END
>  <smiles>  (44) 
C[C@@H](NC(=O)[C@H]1CCCN1C(=O)CNC(=O)c1ccc2ccccc2n1)c1ccccc1

>  <score_type>  (44) 
oracle

>  <origin>  (44) 
autodockgpu

>  <m_score__min__energy>  (44) 
-9.4199999999999999

>  <m_primary>  (44) 
energy

>  <rmsd>  (44) 
2.841606873999887

>  <m_score__min__rmsd>  (44) 
2.841606873999887

>  <meeko>  (44) 
{"free_energy": -8.67, "intermolecular_energy": -10.76, "internal_energy": -2.76, "cluster_size": 30, "cluster_id": 1, "rank_in_cluster": 22}

>  <energy>  (44) 
-7.49

>  <cluster_rmsd>  (44) 
0.12

>  <cluster>  (44) 
6

$$$$

     RDKit          3D

 58 61  0  0  0  0  0  0  0  0999 V2000
  138.7440   69.5590  223.6540 C   0  0  0  0  0  0  0  0  0  0  0  0
  139.8020   70.6090  223.8930 C   0  0  1  0  0  0  0  0  0  0  0  0
  139.4270   71.8890  223.3470 N   0  0  0  0  0  0  0  0  0  0  0  0
  140.2670   72.6230  222.4520 C   0  0  0  0  0  0  0  0  0  0  0  0
  141.3840   72.1500  222.1150 O   0  0  0  0  0  0  0  0  0  0  0  0
  139.7560   73.9230  221.9690 C   0  0  1  0  0  0  0  0  0  0  0  0
  140.5470   74.4890  220.8310 C   0  0  0  0  0  0  0  0  0  0  0  0
  139.8840   73.9470  219.5840 C   0  0  0  0  0  0  0  0  0  0  0  0
  138.4410   73.8660  219.9810 C   0  0  0  0  0  0  0  0  0  0  0  0
  138.4230   73.8530  221.4450 N   0  0  0  0  0  0  0  0  0  0  0  0
  137.2020   73.7800  222.1720 C   0  0  0  0  0  0  0  0  0  0  0  0
  136.7540   72.6010  222.3710 O   0  0  0  0  0  0  0  0  0  0  0  0
  136.4920   74.9760  222.6670 C   0  0  0  0  0  0  0  0  0  0  0  0
  137.4800   75.9820  223.0180 N   0  0  0  0  0  0  0  0  0  0  0  0
  137.3750   77.2910  222.4620 C   0  0  0  0  0  0  0  0  0  0  0  0
  136.4280   77.5880  221.6630 O   0  0  0  0  0  0  0  0  0  0  0  0
  138.3760   78.2920  222.8240 C   0  0  0  0  0  0  0  0  0  0  0  0
  137.9550   79.4870  223.3980 C   0  0  0  0  0  0  0  0  0  0  0  0
  138.9030   80.4330  223.7400 C   0  0  0  0  0  0  0  0  0  0  0  0
  140.2550   80.2150  223.5230 C   0  0  0  0  0  0  0  0  0  0  0  0
  141.2240   81.1300  223.8500 C   0  0  0  0  0  0  0  0  0  0  0  0
  142.5750   80.9180  223.6340 C   0  0  0  0  0  0  0  0  0  0  0  0
  142.9300   79.6960  223.0550 C   0  0  0  0  0  0  0  0  0  0  0  0
  141.9640   78.7680  222.7220 C   0  0  0  0  0  0  0  0  0  0  0  0
  140.6250   79.0120  222.9490 C   0  0  0  0  0  0  0  0  0  0  0  0
  139.7050   78.0690  222.6070 N   0  0  0  0  0  0  0  0  0  0  0  0
  140.0830   70.6700  225.3370 C   0  0  0  0  0  0  0  0  0  0  0  0
  140.7670   71.7920  225.8030 C   0  0  0  0  0  0  0  0  0  0  0  0
  141.0580   71.9060  227.1360 C   0  0  0  0  0  0  0  0  0  0  0  0
  140.7090   70.9570  228.0740 C   0  0  0  0  0  0  0  0  0  0  0  0
  140.0240   69.8370  227.5960 C   0  0  0  0  0  0  0  0  0  0  0  0
  139.7190   69.7030  226.2450 C   0  0  0  0  0  0  0  0  0  0  0  0
  138.3705   69.1883  224.6200 H   0  0  0  0  0  0  0  0  0  0  0  0
  137.9126   69.9993  223.0840 H   0  0  0  0  0  0  0  0  0  0  0  0
  139.1780   68.7243  223.0840 H   0  0  0  0  0  0  0  0  0  0  0  0
  140.7238   70.3289  223.3621 H   0  0  0  0  0  0  0  0  0  0  0  0
  138.4870   72.2870  223.6300 H   0  0  0  0  0  0  0  0  0  0  0  0
  139.8188   74.5460  222.8734 H   0  0  0  0  0  0  0  0  0  0  0  0
  140.5083   75.5883  220.8425 H   0  0  0  0  0  0  0  0  0  0  0  0
  141.6095   74.2101  220.8879 H   0  0  0  0  0  0  0  0  0  0  0  0
  140.0227   74.6302  218.7331 H   0  0  0  0  0  0  0  0  0  0  0  0
  140.2991   72.9829  219.2551 H   0  0  0  0  0  0  0  0  0  0  0  0
  137.8906   74.7390  219.6001 H   0  0  0  0  0  0  0  0  0  0  0  0
  137.9594   72.9687  219.5651 H   0  0  0  0  0  0  0  0  0  0  0  0
  135.8277   75.3656  221.8816 H   0  0  0  0  0  0  0  0  0  0  0  0
  135.8850   74.7184  223.5474 H   0  0  0  0  0  0  0  0  0  0  0  0
  138.2600   75.7650  223.6660 H   0  0  0  0  0  0  0  0  0  0  0  0
  136.8862   79.6759  223.5766 H   0  0  0  0  0  0  0  0  0  0  0  0
  138.5775   81.3803  224.1947 H   0  0  0  0  0  0  0  0  0  0  0  0
  140.9114   82.0804  224.3071 H   0  0  0  0  0  0  0  0  0  0  0  0
  143.3295   81.6716  223.9038 H   0  0  0  0  0  0  0  0  0  0  0  0
  143.9896   79.4719  222.8629 H   0  0  0  0  0  0  0  0  0  0  0  0
  142.2679   77.8141  222.2662 H   0  0  0  0  0  0  0  0  0  0  0  0
  141.0718   72.5830  225.1020 H   0  0  0  0  0  0  0  0  0  0  0  0
  141.5985   72.8014  227.4767 H   0  0  0  0  0  0  0  0  0  0  0  0
  140.9562   71.0753  229.1393 H   0  0  0  0  0  0  0  0  0  0  0  0
  139.7207   69.0477  228.2996 H   0  0  0  0  0  0  0  0  0  0  0  0
  139.1785   68.8101  225.8978 H   0  0  0  0  0  0  0  0  0  0  0  0
  1  2  1  0
  2  3  1  0
  3  4  1  0
  4  5  2  0
  4  6  1  0
  6  7  1  0
  7  8  1  0
  8  9  1  0
  9 10  1  0
 10 11  1  0
 11 12  2  0
 11 13  1  0
 13 14  1  0
 14 15  1  0
 15 16  2  0
 15 17  1  0
 17 18  2  0
 18 19  1  0
 19 20  2  0
 20 21  1  0
 21 22  2  0
 22 23  1  0
 23 24  2  0
 24 25  1  0
 25 26  2  0
  2 27  1  0
 27 28  2  0
 28 29  1  0
 29 30  2  0
 30 31  1  0
 31 32  2  0
 10  6  1  0
 26 17  1  0
 32 27  1  0
 25 20  1  0
  1 33  1  0
  1 34  1  0
  1 35  1  0
  2 36  1  6
  3 37  1  0
  6 38  1  1
  7 39  1  0
  7 40  1  0
  8 41  1  0
  8 42  1  0
  9 43  1  0
  9 44  1  0
 13 45  1  0
 13 46  1  0
 14 47  1  0
 18 48  1  0
 19 49  1  0
 21 50  1  0
 22 51  1  0
 23 52  1  0
 24 53  1  0
 28 54  1  0
 29 55  1  0
 30 56  1  0
 31 57  1  0
 32 58  1  0
M  END
>  <smiles>  (45) 
C[C@@H](NC(=O)[C@H]1CCCN1C(=O)CNC(=O)c1ccc2ccccc2n1)c1ccccc1

>  <score_type>  (45) 
oracle

>  <origin>  (45) 
autodockgpu

>  <m_score__min__energy>  (45) 
-9.4199999999999999

>  <m_primary>  (45) 
energy

>  <rmsd>  (45) 
9.073419807723504

>  <m_score__min__rmsd>  (45) 
9.073419807723504

>  <meeko>  (45) 
{"free_energy": -8.73, "intermolecular_energy": -10.82, "internal_energy": -2.82, "cluster_size": 8, "cluster_id": 3, "rank_in_cluster": 4}

>  <energy>  (45) 
-7.48

>  <cluster_rmsd>  (45) 
1.06

>  <cluster>  (45) 
6

$$$$

     RDKit          3D

 58 61  0  0  0  0  0  0  0  0999 V2000
  139.2180   77.6480  221.2760 C   0  0  0  0  0  0  0  0  0  0  0  0
  140.3940   77.4100  222.1900 C   0  0  1  0  0  0  0  0  0  0  0  0
  141.3960   76.5750  221.5760 N   0  0  0  0  0  0  0  0  0  0  0  0
  141.3020   75.1480  221.5470 C   0  0  0  0  0  0  0  0  0  0  0  0
  140.3120   74.5770  222.0750 O   0  0  0  0  0  0  0  0  0  0  0  0
  142.4030   74.4180  220.8830 C   0  0  1  0  0  0  0  0  0  0  0  0
  142.1790   72.9390  220.8120 C   0  0  0  0  0  0  0  0  0  0  0  0
  141.4550   72.7140  219.5040 C   0  0  0  0  0  0  0  0  0  0  0  0
  142.0280   73.7790  218.6170 C   0  0  0  0  0  0  0  0  0  0  0  0
  142.5910   74.7920  219.5130 N   0  0  0  0  0  0  0  0  0  0  0  0
  143.2220   75.9610  219.0050 C   0  0  0  0  0  0  0  0  0  0  0  0
  143.9010   76.6300  219.8550 O   0  0  0  0  0  0  0  0  0  0  0  0
  143.1080   76.3840  217.5940 C   0  0  0  0  0  0  0  0  0  0  0  0
  143.0380   77.8340  217.5560 N   0  0  0  0  0  0  0  0  0  0  0  0
  142.1390   78.5150  218.4310 C   0  0  0  0  0  0  0  0  0  0  0  0
  141.4010   77.8680  219.2430 O   0  0  0  0  0  0  0  0  0  0  0  0
  142.0780   79.9740  218.3820 C   0  0  0  0  0  0  0  0  0  0  0  0
  141.1120   80.6330  219.1340 C   0  0  0  0  0  0  0  0  0  0  0  0
  141.0550   82.0130  219.0870 C   0  0  0  0  0  0  0  0  0  0  0  0
  141.9380   82.7470  218.3090 C   0  0  0  0  0  0  0  0  0  0  0  0
  141.9120   84.1180  218.2370 C   0  0  0  0  0  0  0  0  0  0  0  0
  142.7900   84.8550  217.4620 C   0  0  0  0  0  0  0  0  0  0  0  0
  143.7370   84.1330  216.7310 C   0  0  0  0  0  0  0  0  0  0  0  0
  143.7730   82.7530  216.7960 C   0  0  0  0  0  0  0  0  0  0  0  0
  142.8810   82.0480  217.5790 C   0  0  0  0  0  0  0  0  0  0  0  0
  142.9520   80.6890  217.6140 N   0  0  0  0  0  0  0  0  0  0  0  0
  140.9280   78.7130  222.6180 C   0  0  0  0  0  0  0  0  0  0  0  0
  140.0080   79.6640  223.0540 C   0  0  0  0  0  0  0  0  0  0  0  0
  140.4440   80.8950  223.4640 C   0  0  0  0  0  0  0  0  0  0  0  0
  141.7720   81.2660  223.4760 C   0  0  0  0  0  0  0  0  0  0  0  0
  142.6860   80.3050  223.0370 C   0  0  0  0  0  0  0  0  0  0  0  0
  142.2630   79.0480  222.6160 C   0  0  0  0  0  0  0  0  0  0  0  0
  138.3162   77.8305  221.8788 H   0  0  0  0  0  0  0  0  0  0  0  0
  139.4183   78.5238  220.6413 H   0  0  0  0  0  0  0  0  0  0  0  0
  139.0619   76.7632  220.6413 H   0  0  0  0  0  0  0  0  0  0  0  0
  140.0605   76.8538  223.0785 H   0  0  0  0  0  0  0  0  0  0  0  0
  142.2300   77.0550  221.1320 H   0  0  0  0  0  0  0  0  0  0  0  0
  143.2668   74.6816  221.5110 H   0  0  0  0  0  0  0  0  0  0  0  0
  143.1390   72.4020  220.8196 H   0  0  0  0  0  0  0  0  0  0  0  0
  141.6027   72.5672  221.6720 H   0  0  0  0  0  0  0  0  0  0  0  0
  141.6635   71.7109  219.1036 H   0  0  0  0  0  0  0  0  0  0  0  0
  140.3604   72.7692  219.5980 H   0  0  0  0  0  0  0  0  0  0  0  0
  142.8149   73.3580  217.9738 H   0  0  0  0  0  0  0  0  0  0  0  0
  141.2607   74.2081  217.9558 H   0  0  0  0  0  0  0  0  0  0  0  0
  143.9875   76.0393  217.0303 H   0  0  0  0  0  0  0  0  0  0  0  0
  142.2052   75.9493  217.1402 H   0  0  0  0  0  0  0  0  0  0  0  0
  143.6280   78.3850  216.9050 H   0  0  0  0  0  0  0  0  0  0  0  0
  140.4046   80.0652  219.7563 H   0  0  0  0  0  0  0  0  0  0  0  0
  140.2929   82.5406  219.6793 H   0  0  0  0  0  0  0  0  0  0  0  0
  141.1550   84.6576  218.8251 H   0  0  0  0  0  0  0  0  0  0  0  0
  142.7448   85.9534  217.4233 H   0  0  0  0  0  0  0  0  0  0  0  0
  144.4604   84.6679  216.0981 H   0  0  0  0  0  0  0  0  0  0  0  0
  144.5275   82.2054  216.2122 H   0  0  0  0  0  0  0  0  0  0  0  0
  138.9341   79.4263  223.0687 H   0  0  0  0  0  0  0  0  0  0  0  0
  139.6955   81.6269  223.8017 H   0  0  0  0  0  0  0  0  0  0  0  0
  142.0937   82.2627  223.8123 H   0  0  0  0  0  0  0  0  0  0  0  0
  143.7591   80.5463  223.0239 H   0  0  0  0  0  0  0  0  0  0  0  0
  143.0062   78.3114  222.2767 H   0  0  0  0  0  0  0  0  0  0  0  0
  1  2  1  0
  2  3  1  0
  3  4  1  0
  4  5  2  0
  4  6  1  0
  6  7  1  0
  7  8  1  0
  8  9  1  0
  9 10  1  0
 10 11  1  0
 11 12  2  0
 11 13  1  0
 13 14  1  0
 14 15  1  0
 15 16  2  0
 15 17  1  0
 17 18  2  0
 18 19  1  0
 19 20  2  0
 20 21  1  0
 21 22  2  0
 22 23  1  0
 23 24  2  0
 24 25  1  0
 25 26  2  0
  2 27  1  0
 27 28  2  0
 28 29  1  0
 29 30  2  0
 30 31  1  0
 31 32  2  0
 10  6  1  0
 26 17  1  0
 32 27  1  0
 25 20  1  0
  1 33  1  0
  1 34  1  0
  1 35  1  0
  2 36  1  1
  3 37  1  0
  6 38  1  1
  7 39  1  0
  7 40  1  0
  8 41  1  0
  8 42  1  0
  9 43  1  0
  9 44  1  0
 13 45  1  0
 13 46  1  0
 14 47  1  0
 18 48  1  0
 19 49  1  0
 21 50  1  0
 22 51  1  0
 23 52  1  0
 24 53  1  0
 28 54  1  0
 29 55  1  0
 30 56  1  0
 31 57  1  0
 32 58  1  0
M  END
>  <smiles>  (46) 
C[C@@H](NC(=O)[C@H]1CCCN1C(=O)CNC(=O)c1ccc2ccccc2n1)c1ccccc1

>  <score_type>  (46) 
oracle

>  <origin>  (46) 
autodockgpu

>  <m_score__min__energy>  (46) 
-9.4199999999999999

>  <m_primary>  (46) 
energy

>  <rmsd>  (46) 
9.161894020957908

>  <m_score__min__rmsd>  (46) 
9.161894020957908

>  <meeko>  (46) 
{"free_energy": -7.51, "intermolecular_energy": -9.6, "internal_energy": -4.15, "cluster_size": 9, "cluster_id": 6, "rank_in_cluster": 1}

>  <energy>  (46) 
-7.47

>  <cluster_rmsd>  (46) 
0.12

>  <cluster>  (46) 
6

$$$$

     RDKit          3D

 58 61  0  0  0  0  0  0  0  0999 V2000
  137.9660   80.2150  223.3450 C   0  0  0  0  0  0  0  0  0  0  0  0
  138.9570   79.0840  223.4660 C   0  0  1  0  0  0  0  0  0  0  0  0
  138.7330   78.0610  222.4750 N   0  0  0  0  0  0  0  0  0  0  0  0
  138.8030   78.3170  221.0700 C   0  0  0  0  0  0  0  0  0  0  0  0
  139.0690   79.4770  220.6590 O   0  0  0  0  0  0  0  0  0  0  0  0
  138.5510   77.1740  220.1670 C   0  0  1  0  0  0  0  0  0  0  0  0
  138.5950   77.5390  218.7160 C   0  0  0  0  0  0  0  0  0  0  0  0
  140.0370   77.3390  218.3050 C   0  0  0  0  0  0  0  0  0  0  0  0
  140.4710   76.1840  219.1580 C   0  0  0  0  0  0  0  0  0  0  0  0
  139.5290   76.1320  220.2790 N   0  0  0  0  0  0  0  0  0  0  0  0
  139.6440   75.1470  221.2980 C   0  0  0  0  0  0  0  0  0  0  0  0
  140.0040   75.5840  222.4430 O   0  0  0  0  0  0  0  0  0  0  0  0
  139.3680   73.7150  221.0630 C   0  0  0  0  0  0  0  0  0  0  0  0
  139.5200   73.0080  222.3220 N   0  0  0  0  0  0  0  0  0  0  0  0
  139.5440   71.5810  222.3250 C   0  0  0  0  0  0  0  0  0  0  0  0
  139.4350   70.9230  221.2400 O   0  0  0  0  0  0  0  0  0  0  0  0
  139.6980   70.8820  223.5990 C   0  0  0  0  0  0  0  0  0  0  0  0
  139.2890   69.5560  223.6920 C   0  0  0  0  0  0  0  0  0  0  0  0
  139.4340   68.8960  224.8980 C   0  0  0  0  0  0  0  0  0  0  0  0
  139.9760   69.5270  226.0080 C   0  0  0  0  0  0  0  0  0  0  0  0
  140.1360   68.9040  227.2200 C   0  0  0  0  0  0  0  0  0  0  0  0
  140.6760   69.5290  228.3310 C   0  0  0  0  0  0  0  0  0  0  0  0
  141.0670   70.8620  228.1700 C   0  0  0  0  0  0  0  0  0  0  0  0
  140.9110   71.4980  226.9540 C   0  0  0  0  0  0  0  0  0  0  0  0
  140.3680   70.8460  225.8660 C   0  0  0  0  0  0  0  0  0  0  0  0
  140.2330   71.5110  224.6860 N   0  0  0  0  0  0  0  0  0  0  0  0
  140.3180   79.6420  223.4040 C   0  0  0  0  0  0  0  0  0  0  0  0
  141.3600   78.7510  223.1540 C   0  0  0  0  0  0  0  0  0  0  0  0
  142.6470   79.2120  223.0860 C   0  0  0  0  0  0  0  0  0  0  0  0
  142.9910   80.5360  223.2530 C   0  0  0  0  0  0  0  0  0  0  0  0
  141.9390   81.4210  223.5030 C   0  0  0  0  0  0  0  0  0  0  0  0
  140.6230   80.9730  223.5760 C   0  0  0  0  0  0  0  0  0  0  0  0
  137.6703   80.5524  224.3493 H   0  0  0  0  0  0  0  0  0  0  0  0
  138.4281   81.0505  222.7987 H   0  0  0  0  0  0  0  0  0  0  0  0
  137.0770   79.8667  222.7987 H   0  0  0  0  0  0  0  0  0  0  0  0
  138.8227   78.5820  224.4355 H   0  0  0  0  0  0  0  0  0  0  0  0
  138.5090   77.0840  222.8200 H   0  0  0  0  0  0  0  0  0  0  0  0
  137.5507   76.8450  220.4850 H   0  0  0  0  0  0  0  0  0  0  0  0
  137.9322   76.8833  218.1322 H   0  0  0  0  0  0  0  0  0  0  0  0
  138.2543   78.5698  218.5390 H   0  0  0  0  0  0  0  0  0  0  0  0
  140.1132   77.0920  217.2358 H   0  0  0  0  0  0  0  0  0  0  0  0
  140.6566   78.2375  218.4421 H   0  0  0  0  0  0  0  0  0  0  0  0
  140.4314   75.2477  218.5821 H   0  0  0  0  0  0  0  0  0  0  0  0
  141.5064   76.3088  219.5079 H   0  0  0  0  0  0  0  0  0  0  0  0
  138.3412   73.5908  220.6885 H   0  0  0  0  0  0  0  0  0  0  0  0
  140.0675   73.3122  220.3157 H   0  0  0  0  0  0  0  0  0  0  0  0
  139.6110   73.5200  223.2190 H   0  0  0  0  0  0  0  0  0  0  0  0
  138.8575   69.0412  222.8209 H   0  0  0  0  0  0  0  0  0  0  0  0
  139.1124   67.8472  224.9792 H   0  0  0  0  0  0  0  0  0  0  0  0
  139.8192   67.8548  227.3136 H   0  0  0  0  0  0  0  0  0  0  0  0
  140.7915   69.0042  229.2908 H   0  0  0  0  0  0  0  0  0  0  0  0
  141.5026   71.4088  229.0193 H   0  0  0  0  0  0  0  0  0  0  0  0
  141.2264   72.5467  226.8507 H   0  0  0  0  0  0  0  0  0  0  0  0
  141.1489   77.6809  223.0118 H   0  0  0  0  0  0  0  0  0  0  0  0
  143.4498   78.4867  222.8874 H   0  0  0  0  0  0  0  0  0  0  0  0
  144.0351   80.8770  223.1929 H   0  0  0  0  0  0  0  0  0  0  0  0
  142.1545   82.4904  223.6446 H   0  0  0  0  0  0  0  0  0  0  0  0
  139.8154   81.6931  223.7740 H   0  0  0  0  0  0  0  0  0  0  0  0
  1  2  1  0
  2  3  1  0
  3  4  1  0
  4  5  2  0
  4  6  1  0
  6  7  1  0
  7  8  1  0
  8  9  1  0
  9 10  1  0
 10 11  1  0
 11 12  2  0
 11 13  1  0
 13 14  1  0
 14 15  1  0
 15 16  2  0
 15 17  1  0
 17 18  2  0
 18 19  1  0
 19 20  2  0
 20 21  1  0
 21 22  2  0
 22 23  1  0
 23 24  2  0
 24 25  1  0
 25 26  2  0
  2 27  1  0
 27 28  2  0
 28 29  1  0
 29 30  2  0
 30 31  1  0
 31 32  2  0
 10  6  1  0
 26 17  1  0
 32 27  1  0
 25 20  1  0
  1 33  1  0
  1 34  1  0
  1 35  1  0
  2 36  1  1
  3 37  1  0
  6 38  1  1
  7 39  1  0
  7 40  1  0
  8 41  1  0
  8 42  1  0
  9 43  1  0
  9 44  1  0
 13 45  1  0
 13 46  1  0
 14 47  1  0
 18 48  1  0
 19 49  1  0
 21 50  1  0
 22 51  1  0
 23 52  1  0
 24 53  1  0
 28 54  1  0
 29 55  1  0
 30 56  1  0
 31 57  1  0
 32 58  1  0
M  END
>  <smiles>  (47) 
C[C@@H](NC(=O)[C@H]1CCCN1C(=O)CNC(=O)c1ccc2ccccc2n1)c1ccccc1

>  <score_type>  (47) 
oracle

>  <origin>  (47) 
autodockgpu

>  <m_score__min__energy>  (47) 
-9.4199999999999999

>  <m_primary>  (47) 
energy

>  <rmsd>  (47) 
2.8246692836330656

>  <m_score__min__rmsd>  (47) 
2.8246692836330656

>  <meeko>  (47) 
{"free_energy": -8.61, "intermolecular_energy": -10.69, "internal_energy": -3.26, "cluster_size": 30, "cluster_id": 1, "rank_in_cluster": 25}

>  <energy>  (47) 
-7.46

>  <cluster_rmsd>  (47) 
0.38

>  <cluster>  (47) 
6

$$$$

     RDKit          3D

 58 61  0  0  0  0  0  0  0  0999 V2000
  138.0730   69.2770  224.9140 C   0  0  0  0  0  0  0  0  0  0  0  0
  139.5070   69.6720  224.6590 C   0  0  1  0  0  0  0  0  0  0  0  0
  139.6460   70.4590  223.4590 N   0  0  0  0  0  0  0  0  0  0  0  0
  139.6070   69.8850  222.1500 C   0  0  0  0  0  0  0  0  0  0  0  0
  139.4460   68.6430  222.0170 O   0  0  0  0  0  0  0  0  0  0  0  0
  139.7630   70.8100  221.0080 C   0  0  1  0  0  0  0  0  0  0  0  0
  139.3500   70.2160  219.6980 C   0  0  0  0  0  0  0  0  0  0  0  0
  137.8810   70.5490  219.5610 C   0  0  0  0  0  0  0  0  0  0  0  0
  137.7760   71.8810  220.2400 C   0  0  0  0  0  0  0  0  0  0  0  0
  138.9490   71.9860  221.1110 N   0  0  0  0  0  0  0  0  0  0  0  0
  139.1730   73.1350  221.9180 C   0  0  0  0  0  0  0  0  0  0  0  0
  140.2590   73.1290  222.5900 O   0  0  0  0  0  0  0  0  0  0  0  0
  138.2240   74.2650  221.9840 C   0  0  0  0  0  0  0  0  0  0  0  0
  138.9670   75.4670  222.3190 N   0  0  0  0  0  0  0  0  0  0  0  0
  138.2660   76.6980  222.4930 C   0  0  0  0  0  0  0  0  0  0  0  0
  137.0010   76.7550  222.3580 O   0  0  0  0  0  0  0  0  0  0  0  0
  139.0270   77.8990  222.8310 C   0  0  0  0  0  0  0  0  0  0  0  0
  138.3380   79.0520  223.1910 C   0  0  0  0  0  0  0  0  0  0  0  0
  139.0580   80.1880  223.5100 C   0  0  0  0  0  0  0  0  0  0  0  0
  140.4440   80.1980  223.4770 C   0  0  0  0  0  0  0  0  0  0  0  0
  141.1930   81.3060  223.7880 C   0  0  0  0  0  0  0  0  0  0  0  0
  142.5770   81.3230  223.7570 C   0  0  0  0  0  0  0  0  0  0  0  0
  143.2070   80.1310  223.3890 C   0  0  0  0  0  0  0  0  0  0  0  0
  142.4640   79.0100  223.0740 C   0  0  0  0  0  0  0  0  0  0  0  0
  141.0850   79.0280  223.1140 C   0  0  0  0  0  0  0  0  0  0  0  0
  140.3910   77.9000  222.7970 N   0  0  0  0  0  0  0  0  0  0  0  0
  140.0230   70.3630  225.8520 C   0  0  0  0  0  0  0  0  0  0  0  0
  140.9060   71.4210  225.6410 C   0  0  0  0  0  0  0  0  0  0  0  0
  141.4200   72.1020  226.7110 C   0  0  0  0  0  0  0  0  0  0  0  0
  141.1120   71.8030  228.0210 C   0  0  0  0  0  0  0  0  0  0  0  0
  140.2260   70.7420  228.2220 C   0  0  0  0  0  0  0  0  0  0  0  0
  139.6920   70.0370  227.1470 C   0  0  0  0  0  0  0  0  0  0  0  0
  137.8935   69.2276  225.9981 H   0  0  0  0  0  0  0  0  0  0  0  0
  137.4016   70.0237  224.4649 H   0  0  0  0  0  0  0  0  0  0  0  0
  137.8786   68.2919  224.4649 H   0  0  0  0  0  0  0  0  0  0  0  0
  140.1101   68.7691  224.4827 H   0  0  0  0  0  0  0  0  0  0  0  0
  139.7810   71.5040  223.5700 H   0  0  0  0  0  0  0  0  0  0  0  0
  140.8382   71.0396  221.0429 H   0  0  0  0  0  0  0  0  0  0  0  0
  139.9256   70.6614  218.8732 H   0  0  0  0  0  0  0  0  0  0  0  0
  139.5324   69.1319  219.6609 H   0  0  0  0  0  0  0  0  0  0  0  0
  137.5880   70.6197  218.5031 H   0  0  0  0  0  0  0  0  0  0  0  0
  137.2196   69.7856  219.9966 H   0  0  0  0  0  0  0  0  0  0  0  0
  137.7797   72.6906  219.4953 H   0  0  0  0  0  0  0  0  0  0  0  0
  136.8409   71.9677  220.8127 H   0  0  0  0  0  0  0  0  0  0  0  0
  137.7299   74.3929  221.0096 H   0  0  0  0  0  0  0  0  0  0  0  0
  137.4558   74.0700  222.7467 H   0  0  0  0  0  0  0  0  0  0  0  0
  139.9980   75.4480  222.4350 H   0  0  0  0  0  0  0  0  0  0  0  0
  137.2384   79.0599  223.2214 H   0  0  0  0  0  0  0  0  0  0  0  0
  138.5198   81.1037  223.7961 H   0  0  0  0  0  0  0  0  0  0  0  0
  140.6663   82.2276  224.0766 H   0  0  0  0  0  0  0  0  0  0  0  0
  143.1506   82.2272  224.0088 H   0  0  0  0  0  0  0  0  0  0  0  0
  144.3053   80.0851  223.3498 H   0  0  0  0  0  0  0  0  0  0  0  0
  142.9825   78.0838  222.7853 H   0  0  0  0  0  0  0  0  0  0  0  0
  141.1888   71.7076  224.6173 H   0  0  0  0  0  0  0  0  0  0  0  0
  142.1154   72.9315  226.5155 H   0  0  0  0  0  0  0  0  0  0  0  0
  141.5403   72.3687  228.8616 H   0  0  0  0  0  0  0  0  0  0  0  0
  139.9455   70.4587  229.2472 H   0  0  0  0  0  0  0  0  0  0  0  0
  138.9952   69.2071  227.3357 H   0  0  0  0  0  0  0  0  0  0  0  0
  1  2  1  0
  2  3  1  0
  3  4  1  0
  4  5  2  0
  4  6  1  0
  6  7  1  0
  7  8  1  0
  8  9  1  0
  9 10  1  0
 10 11  1  0
 11 12  2  0
 11 13  1  0
 13 14  1  0
 14 15  1  0
 15 16  2  0
 15 17  1  0
 17 18  2  0
 18 19  1  0
 19 20  2  0
 20 21  1  0
 21 22  2  0
 22 23  1  0
 23 24  2  0
 24 25  1  0
 25 26  2  0
  2 27  1  0
 27 28  2  0
 28 29  1  0
 29 30  2  0
 30 31  1  0
 31 32  2  0
 10  6  1  0
 26 17  1  0
 32 27  1  0
 25 20  1  0
  1 33  1  0
  1 34  1  0
  1 35  1  0
  2 36  1  6
  3 37  1  0
  6 38  1  6
  7 39  1  0
  7 40  1  0
  8 41  1  0
  8 42  1  0
  9 43  1  0
  9 44  1  0
 13 45  1  0
 13 46  1  0
 14 47  1  0
 18 48  1  0
 19 49  1  0
 21 50  1  0
 22 51  1  0
 23 52  1  0
 24 53  1  0
 28 54  1  0
 29 55  1  0
 30 56  1  0
 31 57  1  0
 32 58  1  0
M  END
>  <smiles>  (48) 
C[C@@H](NC(=O)[C@H]1CCCN1C(=O)CNC(=O)c1ccc2ccccc2n1)c1ccccc1

>  <score_type>  (48) 
oracle

>  <origin>  (48) 
autodockgpu

>  <m_score__min__energy>  (48) 
-9.4199999999999999

>  <m_primary>  (48) 
energy

>  <rmsd>  (48) 
9.439231332875604

>  <m_score__min__rmsd>  (48) 
9.439231332875604

>  <meeko>  (48) 
{"free_energy": -8.4, "intermolecular_energy": -10.49, "internal_energy": -3.07, "cluster_size": 8, "cluster_id": 3, "rank_in_cluster": 7}

>  <energy>  (48) 
-7.46

>  <cluster_rmsd>  (48) 
1.08

>  <cluster>  (48) 
6

$$$$

     RDKit          3D

 58 61  0  0  0  0  0  0  0  0999 V2000
  138.2730   80.2640  223.2770 C   0  0  0  0  0  0  0  0  0  0  0  0
  139.2750   79.1480  223.4480 C   0  0  1  0  0  0  0  0  0  0  0  0
  139.1260   78.1290  222.4390 N   0  0  0  0  0  0  0  0  0  0  0  0
  139.3330   78.3830  221.0470 C   0  0  0  0  0  0  0  0  0  0  0  0
  139.6570   79.5380  220.6640 O   0  0  0  0  0  0  0  0  0  0  0  0
  139.1460   77.2440  220.1230 C   0  0  1  0  0  0  0  0  0  0  0  0
  139.5040   77.5620  218.7050 C   0  0  0  0  0  0  0  0  0  0  0  0
  140.9710   77.2140  218.5830 C   0  0  0  0  0  0  0  0  0  0  0  0
  141.1160   76.0480  219.5140 C   0  0  0  0  0  0  0  0  0  0  0  0
  139.9770   76.1180  220.4320 N   0  0  0  0  0  0  0  0  0  0  0  0
  139.7950   75.1550  221.4640 C   0  0  0  0  0  0  0  0  0  0  0  0
  139.9470   75.5930  222.6530 O   0  0  0  0  0  0  0  0  0  0  0  0
  139.4550   73.7440  221.1910 C   0  0  0  0  0  0  0  0  0  0  0  0
  139.5820   72.9960  222.4300 N   0  0  0  0  0  0  0  0  0  0  0  0
  139.5700   71.5700  222.3910 C   0  0  0  0  0  0  0  0  0  0  0  0
  139.4500   70.9470  221.2860 O   0  0  0  0  0  0  0  0  0  0  0  0
  139.6980   70.8310  223.6450 C   0  0  0  0  0  0  0  0  0  0  0  0
  139.2660   69.5090  223.6940 C   0  0  0  0  0  0  0  0  0  0  0  0
  139.3880   68.8110  224.8800 C   0  0  0  0  0  0  0  0  0  0  0  0
  139.9270   69.3990  226.0140 C   0  0  0  0  0  0  0  0  0  0  0  0
  140.0640   68.7370  227.2090 C   0  0  0  0  0  0  0  0  0  0  0  0
  140.6020   69.3200  228.3440 C   0  0  0  0  0  0  0  0  0  0  0  0
  141.0160   70.6500  228.2270 C   0  0  0  0  0  0  0  0  0  0  0  0
  140.8840   71.3250  227.0300 C   0  0  0  0  0  0  0  0  0  0  0  0
  140.3430   70.7150  225.9170 C   0  0  0  0  0  0  0  0  0  0  0  0
  140.2310   71.4170  224.7560 N   0  0  0  0  0  0  0  0  0  0  0  0
  140.6260   79.7300  223.4700 C   0  0  0  0  0  0  0  0  0  0  0  0
  141.6820   78.9000  223.0950 C   0  0  0  0  0  0  0  0  0  0  0  0
  142.9620   79.3850  223.0960 C   0  0  0  0  0  0  0  0  0  0  0  0
  143.2860   80.6760  223.4530 C   0  0  0  0  0  0  0  0  0  0  0  0
  142.2210   81.5000  223.8260 C   0  0  0  0  0  0  0  0  0  0  0  0
  140.9120   81.0260  223.8320 C   0  0  0  0  0  0  0  0  0  0  0  0
  137.9511   80.6225  224.2659 H   0  0  0  0  0  0  0  0  0  0  0  0
  138.7372   81.0914  222.7202 H   0  0  0  0  0  0  0  0  0  0  0  0
  137.4006   79.8913  222.7202 H   0  0  0  0  0  0  0  0  0  0  0  0
  139.0939   78.6352  224.4041 H   0  0  0  0  0  0  0  0  0  0  0  0
  138.8530   77.1570  222.7610 H   0  0  0  0  0  0  0  0  0  0  0  0
  138.0757   77.0208  220.2440 H   0  0  0  0  0  0  0  0  0  0  0  0
  138.9041   76.9563  218.0098 H   0  0  0  0  0  0  0  0  0  0  0  0
  139.3076   78.6153  218.4560 H   0  0  0  0  0  0  0  0  0  0  0  0
  141.2263   76.9309  217.5512 H   0  0  0  0  0  0  0  0  0  0  0  0
  141.6388   78.0527  218.8292 H   0  0  0  0  0  0  0  0  0  0  0  0
  141.0944   75.1039  218.9499 H   0  0  0  0  0  0  0  0  0  0  0  0
  142.0724   76.0830  220.0564 H   0  0  0  0  0  0  0  0  0  0  0  0
  138.4219   73.6756  220.8195 H   0  0  0  0  0  0  0  0  0  0  0  0
  140.1322   73.3318  220.4284 H   0  0  0  0  0  0  0  0  0  0  0  0
  139.6800   73.4800  223.3420 H   0  0  0  0  0  0  0  0  0  0  0  0
  138.8348   69.0280  222.8037 H   0  0  0  0  0  0  0  0  0  0  0  0
  139.0499   67.7652  224.9256 H   0  0  0  0  0  0  0  0  0  0  0  0
  139.7295   67.6907  227.2678 H   0  0  0  0  0  0  0  0  0  0  0  0
  140.6986   68.7651  229.2889 H   0  0  0  0  0  0  0  0  0  0  0  0
  141.4511   71.1637  229.0970 H   0  0  0  0  0  0  0  0  0  0  0  0
  141.2171   72.3711  226.9622 H   0  0  0  0  0  0  0  0  0  0  0  0
  141.4869   77.8586  222.7993 H   0  0  0  0  0  0  0  0  0  0  0  0
  143.7755   78.7081  222.7958 H   0  0  0  0  0  0  0  0  0  0  0  0
  144.3248   81.0375  223.4448 H   0  0  0  0  0  0  0  0  0  0  0  0
  142.4203   82.5411  224.1200 H   0  0  0  0  0  0  0  0  0  0  0  0
  140.0940   81.6980  224.1307 H   0  0  0  0  0  0  0  0  0  0  0  0
  1  2  1  0
  2  3  1  0
  3  4  1  0
  4  5  2  0
  4  6  1  0
  6  7  1  0
  7  8  1  0
  8  9  1  0
  9 10  1  0
 10 11  1  0
 11 12  2  0
 11 13  1  0
 13 14  1  0
 14 15  1  0
 15 16  2  0
 15 17  1  0
 17 18  2  0
 18 19  1  0
 19 20  2  0
 20 21  1  0
 21 22  2  0
 22 23  1  0
 23 24  2  0
 24 25  1  0
 25 26  2  0
  2 27  1  0
 27 28  2  0
 28 29  1  0
 29 30  2  0
 30 31  1  0
 31 32  2  0
 10  6  1  0
 26 17  1  0
 32 27  1  0
 25 20  1  0
  1 33  1  0
  1 34  1  0
  1 35  1  0
  2 36  1  1
  3 37  1  0
  6 38  1  6
  7 39  1  0
  7 40  1  0
  8 41  1  0
  8 42  1  0
  9 43  1  0
  9 44  1  0
 13 45  1  0
 13 46  1  0
 14 47  1  0
 18 48  1  0
 19 49  1  0
 21 50  1  0
 22 51  1  0
 23 52  1  0
 24 53  1  0
 28 54  1  0
 29 55  1  0
 30 56  1  0
 31 57  1  0
 32 58  1  0
M  END
>  <smiles>  (49) 
C[C@@H](NC(=O)[C@H]1CCCN1C(=O)CNC(=O)c1ccc2ccccc2n1)c1ccccc1

>  <score_type>  (49) 
oracle

>  <origin>  (49) 
autodockgpu

>  <m_score__min__energy>  (49) 
-9.4199999999999999

>  <m_primary>  (49) 
energy

>  <rmsd>  (49) 
2.799061241930895

>  <m_score__min__rmsd>  (49) 
2.799061241930895

>  <meeko>  (49) 
{"free_energy": -8.73, "intermolecular_energy": -10.82, "internal_energy": -3.22, "cluster_size": 30, "cluster_id": 1, "rank_in_cluster": 18}

>  <energy>  (49) 
-7.46

>  <cluster_rmsd>  (49) 
0.15

>  <cluster>  (49) 
6

$$$$

     RDKit          3D

 58 61  0  0  0  0  0  0  0  0999 V2000
  139.2090   77.6650  221.5100 C   0  0  0  0  0  0  0  0  0  0  0  0
  140.4410   77.4250  222.3470 C   0  0  1  0  0  0  0  0  0  0  0  0
  141.4080   76.6040  221.6630 N   0  0  0  0  0  0  0  0  0  0  0  0
  141.2900   75.1820  221.5750 C   0  0  0  0  0  0  0  0  0  0  0  0
  140.3090   74.6020  222.1110 O   0  0  0  0  0  0  0  0  0  0  0  0
  142.3560   74.4650  220.8430 C   0  0  1  0  0  0  0  0  0  0  0  0
  142.0490   73.0190  220.6070 C   0  0  0  0  0  0  0  0  0  0  0  0
  141.3320   72.9820  219.2760 C   0  0  0  0  0  0  0  0  0  0  0  0
  141.9770   74.1030  218.5180 C   0  0  0  0  0  0  0  0  0  0  0  0
  142.5850   74.9760  219.5240 N   0  0  0  0  0  0  0  0  0  0  0  0
  143.2900   76.1550  219.1540 C   0  0  0  0  0  0  0  0  0  0  0  0
  143.9940   76.6850  220.0780 O   0  0  0  0  0  0  0  0  0  0  0  0
  143.2200   76.7370  217.7990 C   0  0  0  0  0  0  0  0  0  0  0  0
  142.9900   78.1660  217.9260 N   0  0  0  0  0  0  0  0  0  0  0  0
  141.9290   78.6330  218.7570 C   0  0  0  0  0  0  0  0  0  0  0  0
  141.1840   77.8150  219.3880 O   0  0  0  0  0  0  0  0  0  0  0  0
  141.7100   80.0730  218.8760 C   0  0  0  0  0  0  0  0  0  0  0  0
  142.2830   80.9200  217.9330 C   0  0  0  0  0  0  0  0  0  0  0  0
  142.0750   82.2820  218.0460 C   0  0  0  0  0  0  0  0  0  0  0  0
  141.3110   82.8150  219.0730 C   0  0  0  0  0  0  0  0  0  0  0  0
  141.0820   84.1610  219.2170 C   0  0  0  0  0  0  0  0  0  0  0  0
  140.3210   84.6980  220.2400 C   0  0  0  0  0  0  0  0  0  0  0  0
  139.7730   83.7920  221.1530 C   0  0  0  0  0  0  0  0  0  0  0  0
  139.9960   82.4360  221.0180 C   0  0  0  0  0  0  0  0  0  0  0  0
  140.7610   81.9330  219.9860 C   0  0  0  0  0  0  0  0  0  0  0  0
  140.9560   80.5890  219.8900 N   0  0  0  0  0  0  0  0  0  0  0  0
  140.9920   78.7280  222.7550 C   0  0  0  0  0  0  0  0  0  0  0  0
  142.3030   79.0100  222.3750 C   0  0  0  0  0  0  0  0  0  0  0  0
  142.8700   80.2060  222.7260 C   0  0  0  0  0  0  0  0  0  0  0  0
  142.2120   81.1760  223.4500 C   0  0  0  0  0  0  0  0  0  0  0  0
  140.8980   80.8840  223.8260 C   0  0  0  0  0  0  0  0  0  0  0  0
  140.3040   79.6740  223.4790 C   0  0  0  0  0  0  0  0  0  0  0  0
  138.3448   77.8334  222.1694 H   0  0  0  0  0  0  0  0  0  0  0  0
  139.3637   78.5499  220.8751 H   0  0  0  0  0  0  0  0  0  0  0  0
  139.0202   76.7867  220.8751 H   0  0  0  0  0  0  0  0  0  0  0  0
  140.1672   76.8568  223.2482 H   0  0  0  0  0  0  0  0  0  0  0  0
  142.2350   77.0910  221.2130 H   0  0  0  0  0  0  0  0  0  0  0  0
  143.2241   74.6060  221.5036 H   0  0  0  0  0  0  0  0  0  0  0  0
  142.9765   72.4293  220.5628 H   0  0  0  0  0  0  0  0  0  0  0  0
  141.4400   72.5890  221.4159 H   0  0  0  0  0  0  0  0  0  0  0  0
  141.4891   72.0189  218.7683 H   0  0  0  0  0  0  0  0  0  0  0  0
  140.2410   73.0896  219.3667 H   0  0  0  0  0  0  0  0  0  0  0  0
  142.7470   73.7104  217.8376 H   0  0  0  0  0  0  0  0  0  0  0  0
  141.2442   74.6469  217.9038 H   0  0  0  0  0  0  0  0  0  0  0  0
  144.1670   76.5587  217.2685 H   0  0  0  0  0  0  0  0  0  0  0  0
  142.4025   76.2714  217.2290 H   0  0  0  0  0  0  0  0  0  0  0  0
  143.5830   78.8530  217.4230 H   0  0  0  0  0  0  0  0  0  0  0  0
  142.8911   80.5131  217.1116 H   0  0  0  0  0  0  0  0  0  0  0  0
  142.5257   82.9581  217.3045 H   0  0  0  0  0  0  0  0  0  0  0  0
  141.5263   84.8476  218.4814 H   0  0  0  0  0  0  0  0  0  0  0  0
  140.1556   85.7817  220.3304 H   0  0  0  0  0  0  0  0  0  0  0  0
  139.1585   84.1628  221.9866 H   0  0  0  0  0  0  0  0  0  0  0  0
  139.5544   81.7423  221.7486 H   0  0  0  0  0  0  0  0  0  0  0  0
  142.8801   78.2745  221.7953 H   0  0  0  0  0  0  0  0  0  0  0  0
  143.9061   80.4028  222.4132 H   0  0  0  0  0  0  0  0  0  0  0  0
  142.6943   82.1278  223.7174 H   0  0  0  0  0  0  0  0  0  0  0  0
  140.3241   81.6222  224.4054 H   0  0  0  0  0  0  0  0  0  0  0  0
  139.2682   79.4710  223.7886 H   0  0  0  0  0  0  0  0  0  0  0  0
  1  2  1  0
  2  3  1  0
  3  4  1  0
  4  5  2  0
  4  6  1  0
  6  7  1  0
  7  8  1  0
  8  9  1  0
  9 10  1  0
 10 11  1  0
 11 12  2  0
 11 13  1  0
 13 14  1  0
 14 15  1  0
 15 16  2  0
 15 17  1  0
 17 18  2  0
 18 19  1  0
 19 20  2  0
 20 21  1  0
 21 22  2  0
 22 23  1  0
 23 24  2  0
 24 25  1  0
 25 26  2  0
  2 27  1  0
 27 28  2  0
 28 29  1  0
 29 30  2  0
 30 31  1  0
 31 32  2  0
 10  6  1  0
 26 17  1  0
 32 27  1  0
 25 20  1  0
  1 33  1  0
  1 34  1  0
  1 35  1  0
  2 36  1  1
  3 37  1  0
  6 38  1  1
  7 39  1  0
  7 40  1  0
  8 41  1  0
  8 42  1  0
  9 43  1  0
  9 44  1  0
 13 45  1  0
 13 46  1  0
 14 47  1  0
 18 48  1  0
 19 49  1  0
 21 50  1  0
 22 51  1  0
 23 52  1  0
 24 53  1  0
 28 54  1  0
 29 55  1  0
 30 56  1  0
 31 57  1  0
 32 58  1  0
M  END
>  <smiles>  (50) 
C[C@@H](NC(=O)[C@H]1CCCN1C(=O)CNC(=O)c1ccc2ccccc2n1)c1ccccc1

>  <score_type>  (50) 
oracle

>  <origin>  (50) 
autodockgpu

>  <m_score__min__energy>  (50) 
-9.4199999999999999

>  <m_primary>  (50) 
energy

>  <rmsd>  (50) 
8.78889904351596

>  <m_score__min__rmsd>  (50) 
8.78889904351596

>  <meeko>  (50) 
{"free_energy": -7.48, "intermolecular_energy": -9.57, "internal_energy": -4.4, "cluster_size": 9, "cluster_id": 6, "rank_in_cluster": 4}

>  <energy>  (50) 
-7.45

>  <cluster_rmsd>  (50) 
1.12

>  <cluster>  (50) 
6

$$$$
