@<TRIPOS>MOLECULE
*****
 65 69 0 0 0
SMALL
GASTEIGER

@<TRIPOS>ATOM
      1 O         146.2820   73.1650  218.2860 O.3     1  UNL1       -0.3917
      2 C         144.9800   72.6880  218.4080 C.3     1  UNL1        0.0581
      3 C         144.8950   71.8550  219.6500 C.3     1  UNL1       -0.0109
      4 C         143.5580   71.8580  220.3040 C.3     1  UNL1        0.0172
      5 N         142.9430   73.1670  220.3550 N.pl3   1  UNL1       -0.2993
      6 C         141.7150   73.2710  221.0970 C.ar    1  UNL1        0.2237
      7 N         140.8290   74.2160  220.7110 N.ar    1  UNL1       -0.1809
      8 C         139.6270   74.3780  221.3300 C.ar    1  UNL1        0.2211
      9 N         138.8230   75.4330  220.8560 N.pl3   1  UNL1       -0.3133
     10 C         138.1730   76.4310  221.6750 C.3     1  UNL1        0.0121
     11 C         139.1370   76.9620  222.7250 C.3     1  UNL1       -0.0334
     12 C         140.4260   77.4610  222.1410 C.3     1  UNL1       -0.0263
     13 C         140.8790   78.7420  222.6820 C.ar    1  UNL1       -0.0473
     14 C         142.2440   79.0100  222.6410 C.ar    1  UNL1       -0.0586
     15 C         142.7920   80.1760  223.1190 C.ar    1  UNL1       -0.0615
     16 C         141.9700   81.1610  223.6770 C.ar    1  UNL1       -0.0617
     17 C         140.6230   80.9010  223.7180 C.ar    1  UNL1       -0.0615
     18 C         140.0840   79.7150  223.2320 C.ar    1  UNL1       -0.0586
     19 N         139.3320   73.5640  222.3530 N.ar    1  UNL1       -0.1809
     20 C         140.2100   72.6000  222.7640 C.ar    1  UNL1        0.2240
     21 N         139.8780   71.7320  223.8470 N.pl3   1  UNL1       -0.2948
     22 C         138.6220   70.9700  223.7200 C.3     1  UNL1        0.0192
     23 C         139.0950   69.5080  223.6780 C.3     1  UNL1       -0.0115
     24 C         139.6610   69.2670  225.0460 C.ar    1  UNL1       -0.0412
     25 C         139.4200   68.0540  225.6440 C.ar    1  UNL1       -0.0582
     26 C         139.9130   67.7760  226.9130 C.ar    1  UNL1       -0.0615
     27 C         140.6500   68.7820  227.5250 C.ar    1  UNL1       -0.0614
     28 C         140.8880   70.0030  226.9100 C.ar    1  UNL1       -0.0568
     29 C         140.3810   70.2600  225.6350 C.ar    1  UNL1       -0.0269
     30 C         140.6730   71.5840  225.0320 C.3     1  UNL1        0.0402
     31 N         141.4110   72.4620  222.1240 N.ar    1  UNL1       -0.1807
     32 C         143.5210   74.2990  219.6940 C.3     1  UNL1        0.0172
     33 C         144.0340   73.8240  218.3510 C.3     1  UNL1       -0.0109
     34 H         146.3260   74.1460  218.2800 H       1  UNL1        0.2098
     35 H         144.6961   72.0299  217.5736 H       1  UNL1        0.0594
     36 H         145.1460   70.8172  219.3856 H       1  UNL1        0.0305
     37 H         145.5978   72.2965  220.3719 H       1  UNL1        0.0305
     38 H         142.8946   71.1833  219.7431 H       1  UNL1        0.0465
     39 H         143.7056   71.5293  221.3433 H       1  UNL1        0.0465
     40 H         138.6840   75.4970  219.8230 H       1  UNL1        0.1489
     41 H         137.8379   77.2619  221.0369 H       1  UNL1        0.0462
     42 H         137.3104   75.9724  222.1806 H       1  UNL1        0.0462
     43 H         138.6505   77.7912  223.2596 H       1  UNL1        0.0283
     44 H         139.3828   76.1268  223.3973 H       1  UNL1        0.0283
     45 H         141.2057   76.7101  222.3365 H       1  UNL1        0.0314
     46 H         140.2433   77.6206  221.0681 H       1  UNL1        0.0314
     47 H         142.9147   78.2542  222.2063 H       1  UNL1        0.0620
     48 H         143.8790   80.3352  223.0628 H       1  UNL1        0.0618
     49 H         142.3851   82.1026  224.0658 H       1  UNL1        0.0618
     50 H         139.9482   81.6551  224.1492 H       1  UNL1        0.0618
     51 H         138.9974   79.5537  223.2898 H       1  UNL1        0.0620
     52 H         137.9653   71.1466  224.5847 H       1  UNL1        0.0468
     53 H         138.0334   71.2565  222.8360 H       1  UNL1        0.0468
     54 H         138.2516   68.8303  223.4794 H       1  UNL1        0.0328
     55 H         139.8287   69.3245  222.8793 H       1  UNL1        0.0328
     56 H         138.8296   67.2936  225.1118 H       1  UNL1        0.0620
     57 H         139.7294   66.8104  227.4069 H       1  UNL1        0.0618
     58 H         141.0586   68.6048  228.5308 H       1  UNL1        0.0618
     59 H         141.4788   70.7718  227.4295 H       1  UNL1        0.0621
     60 H         140.4229   72.3807  225.7480 H       1  UNL1        0.0514
     61 H         141.7413   71.6548  224.7794 H       1  UNL1        0.0514
     62 H         142.7600   75.0803  219.5511 H       1  UNL1        0.0465
     63 H         144.3386   74.7244  220.2944 H       1  UNL1        0.0465
     64 H         143.1690   73.5173  217.7446 H       1  UNL1        0.0305
     65 H         144.5931   74.6677  217.9202 H       1  UNL1        0.0305
@<TRIPOS>BOND
     1     1     2    1
     2     2     3    1
     3     3     4    1
     4     4     5    1
     5     5     6    1
     6     6     7   ar
     7     7     8   ar
     8     8     9    1
     9     9    10    1
    10    10    11    1
    11    11    12    1
    12    12    13    1
    13    13    14   ar
    14    14    15   ar
    15    15    16   ar
    16    16    17   ar
    17    17    18   ar
    18     8    19   ar
    19    19    20   ar
    20    20    21    1
    21    21    22    1
    22    22    23    1
    23    23    24    1
    24    24    25   ar
    25    25    26   ar
    26    26    27   ar
    27    27    28   ar
    28    28    29   ar
    29    29    30    1
    30    20    31   ar
    31     5    32    1
    32    32    33    1
    33    33     2    1
    34    31     6   ar
    35    18    13   ar
    36    30    21    1
    37    29    24   ar
    38     1    34    1
    39     2    35    1
    40     3    36    1
    41     3    37    1
    42     4    38    1
    43     4    39    1
    44     9    40    1
    45    10    41    1
    46    10    42    1
    47    11    43    1
    48    11    44    1
    49    12    45    1
    50    12    46    1
    51    14    47    1
    52    15    48    1
    53    16    49    1
    54    17    50    1
    55    18    51    1
    56    22    52    1
    57    22    53    1
    58    23    54    1
    59    23    55    1
    60    25    56    1
    61    26    57    1
    62    27    58    1
    63    28    59    1
    64    30    60    1
    65    30    61    1
    66    32    62    1
    67    32    63    1
    68    33    64    1
    69    33    65    1
