
     RDKit          3D

 61 66  0  0  1  0  0  0  0  0999 V2000
  137.1800   80.3040  221.7540 O   0  0  0  0  0  0  0  0  0  0  0  0
  138.0390   80.5130  222.7180 C   0  0  0  0  0  0  0  0  0  0  0  0
  137.5240   81.2860  223.8040 C   0  0  0  0  0  0  0  0  0  0  0  0
  137.3690   80.7370  225.0860 C   0  0  0  0  0  0  0  0  0  0  0  0
  136.7960   81.6580  225.9140 C   0  0  0  0  0  0  0  0  0  0  0  0
  136.4350   81.5690  227.2290 C   0  0  0  0  0  0  0  0  0  0  0  0
  135.8350   82.6280  227.8770 C   0  0  0  0  0  0  0  0  0  0  0  0
  135.6130   83.7860  227.1430 C   0  0  0  0  0  0  0  0  0  0  0  0
  135.0380   84.8160  227.7880 F   0  0  0  0  0  0  0  0  0  0  0  0
  135.9920   83.8530  225.7920 C   0  0  0  0  0  0  0  0  0  0  0  0
  136.5920   82.7780  225.1650 C   0  0  0  0  0  0  0  0  0  0  0  0
  137.0340   82.5290  223.9050 N   0  0  0  0  0  0  0  0  0  0  0  0
  139.3060   79.9340  222.4740 N   0  0  0  0  0  0  0  0  0  0  0  0
  139.3980   78.8440  221.4630 C   0  0  0  0  0  0  0  0  0  0  0  0
  140.8350   78.5490  221.3450 C   0  0  2  0  0  0  0  0  0  0  0  0
  141.3660   78.6080  219.9380 C   0  0  0  0  0  0  0  0  0  0  0  0
  142.0680   77.3030  219.7310 C   0  0  0  0  0  0  0  0  0  0  0  0
  141.7970   76.4540  220.8270 N   0  0  0  0  0  0  0  0  0  0  0  0
  141.3390   75.1240  220.5520 C   0  0  0  0  0  0  0  0  0  0  0  0
  142.4160   74.1350  220.8250 C   0  0  0  0  0  0  0  0  0  0  0  0
  143.7510   74.4670  220.2190 C   0  0  2  0  0  0  0  0  0  0  0  0
  143.7430   74.2210  218.7440 C   0  0  0  0  0  0  0  0  0  0  0  0
  144.7930   73.1300  218.5540 C   0  0  0  0  0  0  0  0  0  0  0  0
  145.7300   73.4190  219.6150 N   0  0  0  0  0  0  0  0  0  0  0  0
  144.9030   73.7030  220.7930 C   0  0  0  0  0  0  0  0  0  0  0  0
  141.0920   77.1310  221.8430 C   0  0  0  0  0  0  0  0  0  0  0  0
  141.5180   79.4860  222.2450 C   0  0  0  0  0  0  0  0  0  0  0  0
  142.8880   79.6060  222.4580 C   0  0  0  0  0  0  0  0  0  0  0  0
  143.3710   80.5020  223.3670 C   0  0  0  0  0  0  0  0  0  0  0  0
  142.4440   81.2830  224.0680 C   0  0  0  0  0  0  0  0  0  0  0  0
  141.0900   81.1500  223.8410 C   0  0  0  0  0  0  0  0  0  0  0  0
  140.6000   80.2520  222.9240 C   0  0  0  0  0  0  0  0  0  0  0  0
  137.6645   79.7188  225.3791 H   0  0  0  0  0  0  0  0  0  0  0  0
  136.6264   80.6364  227.7801 H   0  0  0  0  0  0  0  0  0  0  0  0
  135.5432   82.5583  228.9353 H   0  0  0  0  0  0  0  0  0  0  0  0
  135.8080   84.7768  225.2238 H   0  0  0  0  0  0  0  0  0  0  0  0
  136.9570   83.2410  223.1470 H   0  0  0  0  0  0  0  0  0  0  0  0
  138.8481   77.9543  221.8036 H   0  0  0  0  0  0  0  0  0  0  0  0
  138.9578   79.1386  220.4989 H   0  0  0  0  0  0  0  0  0  0  0  0
  140.5416   78.7214  219.2186 H   0  0  0  0  0  0  0  0  0  0  0  0
  142.0378   79.4658  219.7868 H   0  0  0  0  0  0  0  0  0  0  0  0
  141.7077   76.8338  218.8036 H   0  0  0  0  0  0  0  0  0  0  0  0
  143.1519   77.4733  219.6530 H   0  0  0  0  0  0  0  0  0  0  0  0
  140.4719   74.9005  221.1909 H   0  0  0  0  0  0  0  0  0  0  0  0
  141.0558   75.0576  219.4912 H   0  0  0  0  0  0  0  0  0  0  0  0
  142.5445   74.0624  221.9151 H   0  0  0  0  0  0  0  0  0  0  0  0
  142.0929   73.1920  220.3599 H   0  0  0  0  0  0  0  0  0  0  0  0
  143.8980   75.5310  220.4562 H   0  0  0  0  0  0  0  0  0  0  0  0
  142.7536   73.8759  218.4092 H   0  0  0  0  0  0  0  0  0  0  0  0
  143.9591   75.1273  218.1593 H   0  0  0  0  0  0  0  0  0  0  0  0
  144.3534   72.1286  218.6721 H   0  0  0  0  0  0  0  0  0  0  0  0
  145.2481   73.1252  217.5526 H   0  0  0  0  0  0  0  0  0  0  0  0
  146.2050   74.3380  219.3650 H   0  0  0  0  0  0  0  0  0  0  0  0
  144.5618   72.7725  221.2702 H   0  0  0  0  0  0  0  0  0  0  0  0
  145.4412   74.2547  221.5778 H   0  0  0  0  0  0  0  0  0  0  0  0
  140.1371   76.6226  222.0422 H   0  0  0  0  0  0  0  0  0  0  0  0
  141.6712   77.1444  222.7780 H   0  0  0  0  0  0  0  0  0  0  0  0
  143.5865   78.9742  221.8897 H   0  0  0  0  0  0  0  0  0  0  0  0
  144.4517   80.6071  223.5430 H   0  0  0  0  0  0  0  0  0  0  0  0
  142.8005   82.0127  224.8099 H   0  0  0  0  0  0  0  0  0  0  0  0
  140.3861   81.7775  224.4074 H   0  0  0  0  0  0  0  0  0  0  0  0
  1  2  2  0
  2  3  1  0
  3  4  2  0
  4  5  1  0
  5  6  2  0
  6  7  1  0
  7  8  2  0
  8  9  1  0
  8 10  1  0
 10 11  2  0
 11 12  1  0
  2 13  1  0
 13 14  1  0
 15 14  1  6
 15 16  1  0
 16 17  1  0
 17 18  1  0
 18 19  1  0
 19 20  1  0
 20 21  1  0
 21 22  1  0
 22 23  1  0
 23 24  1  0
 24 25  1  0
 18 26  1  0
 15 27  1  0
 27 28  2  0
 28 29  1  0
 29 30  2  0
 30 31  1  0
 31 32  2  0
 12  3  1  0
 32 13  1  0
 11  5  1  0
 26 15  1  0
 32 27  1  0
 25 21  1  0
  4 33  1  0
  6 34  1  0
  7 35  1  0
 10 36  1  0
 12 37  1  0
 14 38  1  0
 14 39  1  0
 16 40  1  0
 16 41  1  0
 17 42  1  0
 17 43  1  0
 19 44  1  0
 19 45  1  0
 20 46  1  0
 20 47  1  0
 21 48  1  6
 22 49  1  0
 22 50  1  0
 23 51  1  0
 23 52  1  0
 24 53  1  0
 25 54  1  0
 25 55  1  0
 26 56  1  0
 26 57  1  0
 28 58  1  0
 29 59  1  0
 30 60  1  0
 31 61  1  0
M  END
