
     RDKit          3D

 63 67  0  0  0  0  0  0  0  0999 V2000
  141.4260   71.9730  221.7030 O   0  0  0  0  0  0  0  0  0  0  0  0
  140.4670   72.2420  222.5040 C   0  0  0  0  0  0  0  0  0  0  0  0
  139.6260   73.3400  222.2080 N   0  0  0  0  0  0  0  0  0  0  0  0
  139.8950   74.1150  220.9930 C   0  0  0  0  0  0  0  0  0  0  0  0
  140.7940   75.2590  221.2870 C   0  0  0  0  0  0  0  0  0  0  0  0
  140.4410   76.0690  222.1810 O   0  0  0  0  0  0  0  0  0  0  0  0
  141.9970   75.3750  220.5450 N   0  0  0  0  0  0  0  0  0  0  0  0
  142.9380   74.3280  220.1450 C   0  0  0  0  0  0  0  0  0  0  0  0
  143.2900   74.7370  218.7220 C   0  0  0  0  0  0  0  0  0  0  0  0
  142.7120   76.1450  218.5310 C   0  0  0  0  0  0  0  0  0  0  0  0
  142.5990   76.6010  219.9810 C   0  0  1  0  0  0  0  0  0  0  0  0
  141.7150   77.7790  220.1390 C   0  0  0  0  0  0  0  0  0  0  0  0
  142.1970   78.6930  221.0950 N   0  0  0  0  0  0  0  0  0  0  0  0
  141.8490   78.5910  222.4350 C   0  0  0  0  0  0  0  0  0  0  0  0
  140.6700   79.2680  222.9750 C   0  0  0  0  0  0  0  0  0  0  0  0
  140.8380   80.5850  223.4180 C   0  0  0  0  0  0  0  0  0  0  0  0
  139.7330   81.2660  223.8860 C   0  0  0  0  0  0  0  0  0  0  0  0
  138.4750   80.6940  223.9340 C   0  0  0  0  0  0  0  0  0  0  0  0
  137.3300   81.4430  224.4370 C   0  0  0  0  0  0  0  0  0  0  0  0
  137.0840   81.6790  225.7520 N   0  0  0  0  0  0  0  0  0  0  0  0
  135.9470   82.4010  225.8960 C   0  0  0  0  0  0  0  0  0  0  0  0
  135.4860   82.6100  224.6060 C   0  0  0  0  0  0  0  0  0  0  0  0
  136.3270   82.0260  223.7150 N   0  0  0  0  0  0  0  0  0  0  0  0
  138.3020   79.3910  223.4980 C   0  0  0  0  0  0  0  0  0  0  0  0
  139.3980   78.6690  223.0150 C   0  0  0  0  0  0  0  0  0  0  0  0
  140.2850   71.4030  223.6870 C   0  0  0  0  0  0  0  0  0  0  0  0
  139.5980   70.2140  223.5860 C   0  0  0  0  0  0  0  0  0  0  0  0
  139.3780   69.3650  224.6500 C   0  0  0  0  0  0  0  0  0  0  0  0
  139.8760   69.7280  225.8900 C   0  0  0  0  0  0  0  0  0  0  0  0
  139.6690   68.9030  226.9560 C   0  0  0  0  0  0  0  0  0  0  0  0
  140.1770   69.2820  228.2020 C   0  0  0  0  0  0  0  0  0  0  0  0
  139.9870   68.4800  229.2780 F   0  0  0  0  0  0  0  0  0  0  0  0
  140.8690   70.4690  228.3290 C   0  0  0  0  0  0  0  0  0  0  0  0
  141.0620   71.2840  227.2300 C   0  0  0  0  0  0  0  0  0  0  0  0
  140.5690   70.9360  225.9760 C   0  0  0  0  0  0  0  0  0  0  0  0
  140.7570   71.7310  224.9030 N   0  0  0  0  0  0  0  0  0  0  0  0
  138.8480   73.5660  222.8560 H   0  0  0  0  0  0  0  0  0  0  0  0
  140.3731   73.4627  220.2474 H   0  0  0  0  0  0  0  0  0  0  0  0
  138.9425   74.5051  220.6050 H   0  0  0  0  0  0  0  0  0  0  0  0
  143.8286   74.3246  220.7906 H   0  0  0  0  0  0  0  0  0  0  0  0
  142.5256   73.3112  220.2225 H   0  0  0  0  0  0  0  0  0  0  0  0
  144.3816   74.7505  218.5872 H   0  0  0  0  0  0  0  0  0  0  0  0
  142.8791   74.0298  217.9864 H   0  0  0  0  0  0  0  0  0  0  0  0
  143.3935   76.7886  217.9553 H   0  0  0  0  0  0  0  0  0  0  0  0
  141.7689   76.1794  217.9660 H   0  0  0  0  0  0  0  0  0  0  0  0
  143.5366   76.9373  220.4477 H   0  0  0  0  0  0  0  0  0  0  0  0
  141.6355   78.2924  219.1694 H   0  0  0  0  0  0  0  0  0  0  0  0
  140.7366   77.4170  220.4878 H   0  0  0  0  0  0  0  0  0  0  0  0
  142.8760   79.4030  220.7940 H   0  0  0  0  0  0  0  0  0  0  0  0
  141.7108   77.5188  222.6383 H   0  0  0  0  0  0  0  0  0  0  0  0
  142.6736   79.1220  222.9331 H   0  0  0  0  0  0  0  0  0  0  0  0
  141.8272   81.0656  223.3936 H   0  0  0  0  0  0  0  0  0  0  0  0
  139.8574   82.3021  224.2337 H   0  0  0  0  0  0  0  0  0  0  0  0
  135.4886   82.7467  226.8343 H   0  0  0  0  0  0  0  0  0  0  0  0
  134.5742   83.1664  224.3432 H   0  0  0  0  0  0  0  0  0  0  0  0
  136.2310   82.0200  222.6610 H   0  0  0  0  0  0  0  0  0  0  0  0
  137.3059   78.9255  223.5315 H   0  0  0  0  0  0  0  0  0  0  0  0
  139.2655   77.6340  222.6668 H   0  0  0  0  0  0  0  0  0  0  0  0
  139.2024   69.9252  222.6011 H   0  0  0  0  0  0  0  0  0  0  0  0
  138.8221   68.4251  224.5174 H   0  0  0  0  0  0  0  0  0  0  0  0
  139.1146   67.9603  226.8380 H   0  0  0  0  0  0  0  0  0  0  0  0
  141.2687   70.7677  229.3093 H   0  0  0  0  0  0  0  0  0  0  0  0
  141.6164   72.2267  227.3487 H   0  0  0  0  0  0  0  0  0  0  0  0
  1  2  2  0
  2  3  1  0
  3  4  1  0
  4  5  1  0
  5  6  2  0
  5  7  1  0
  7  8  1  0
  8  9  1  0
  9 10  1  0
 10 11  1  0
 11 12  1  0
 12 13  1  0
 13 14  1  0
 14 15  1  0
 15 16  2  0
 16 17  1  0
 17 18  2  0
 18 19  1  0
 19 20  2  0
 20 21  1  0
 21 22  2  0
 22 23  1  0
 18 24  1  0
 24 25  2  0
  2 26  1  0
 26 27  2  0
 27 28  1  0
 28 29  2  0
 29 30  1  0
 30 31  2  0
 31 32  1  0
 31 33  1  0
 33 34  2  0
 34 35  1  0
 35 36  2  0
 11  7  1  0
 25 15  1  0
 36 26  1  0
 23 19  1  0
 35 29  1  0
  3 37  1  0
  4 38  1  0
  4 39  1  0
  8 40  1  0
  8 41  1  0
  9 42  1  0
  9 43  1  0
 10 44  1  0
 10 45  1  0
 11 46  1  1
 12 47  1  0
 12 48  1  0
 13 49  1  0
 14 50  1  0
 14 51  1  0
 16 52  1  0
 17 53  1  0
 21 54  1  0
 22 55  1  0
 23 56  1  0
 24 57  1  0
 25 58  1  0
 27 59  1  0
 28 60  1  0
 30 61  1  0
 33 62  1  0
 34 63  1  0
M  END
