
 69 75  0  0  0  0  0  0  0  0999 V2000
  141.5490   75.3770  220.0590 O   0  0  0  0  0  0  0  0  0  0  0  0
  140.7860   75.5040  221.0680 C   0  0  0  0  0  0  0  0  0  0  0  0
  140.7210   76.8410  221.6340 C   0  0  0  0  0  0  0  0  0  0  0  0
  139.7220   77.5490  222.2310 C   0  0  0  0  0  0  0  0  0  0  0  0
  140.2360   78.7950  222.5480 C   0  0  0  0  0  0  0  0  0  0  0  0
  139.7040   79.9110  223.1440 C   0  0  0  0  0  0  0  0  0  0  0  0
  138.3590   80.0230  223.6680 C   0  0  0  0  0  0  0  0  0  0  0  0
  137.3080   79.3240  223.0880 C   0  0  0  0  0  0  0  0  0  0  0  0
  135.9970   79.4730  223.5400 C   0  0  0  0  0  0  0  0  0  0  0  0
  135.7540   80.3490  224.6050 C   0  0  0  0  0  0  0  0  0  0  0  0
  136.8190   81.0490  225.1870 C   0  0  0  0  0  0  0  0  0  0  0  0
  138.1170   80.8770  224.7080 C   0  0  0  0  0  0  0  0  0  0  0  0
  140.5210   81.0320  223.3080 C   0  0  0  0  0  0  0  0  0  0  0  0
  141.8170   81.0610  222.9040 C   0  0  0  0  0  0  0  0  0  0  0  0
  142.3590   79.9580  222.3080 C   0  0  0  0  0  0  0  0  0  0  0  0
  141.5580   78.8280  222.1360 C   0  0  0  0  0  0  0  0  0  0  0  0
  141.8210   77.6470  221.5950 N   0  0  0  0  0  0  0  0  0  0  0  0
  140.0580   74.3760  221.5960 N   0  0  0  0  0  0  0  0  0  0  0  0
  140.7730   73.1980  222.0630 C   0  0  0  0  0  0  0  0  0  0  0  0
  139.7100   72.2570  222.5320 C   0  0  1  0  0  0  0  0  0  0  0  0
  139.7610   70.9470  221.7800 C   0  0  0  0  0  0  0  0  0  0  0  0
  139.2160   69.9640  222.7780 C   0  0  0  0  0  0  0  0  0  0  0  0
  139.3490   70.5250  224.0840 N   0  0  0  0  0  0  0  0  0  0  0  0
  140.1870   69.6620  224.9510 C   0  0  0  0  0  0  0  0  0  0  0  0
  139.4920   68.3850  225.2870 C   0  0  0  0  0  0  0  0  0  0  0  0
  139.7890   67.7740  226.5950 C   0  0  0  0  0  0  0  0  0  0  0  0
  139.9800   68.7350  227.7260 C   0  0  0  0  0  0  0  0  0  0  0  0
  141.0700   69.7050  227.2840 C   0  0  0  0  0  0  0  0  0  0  0  0
  140.5050   70.5100  226.1520 C   0  0  0  0  0  0  0  0  0  0  0  0
  139.9230   71.8220  223.9650 C   0  0  0  0  0  0  0  0  0  0  0  0
  138.4600   72.9900  222.3350 C   0  0  0  0  0  0  0  0  0  0  0  0
  137.1540   72.6150  222.6020 C   0  0  0  0  0  0  0  0  0  0  0  0
  136.0810   73.4460  222.3440 C   0  0  0  0  0  0  0  0  0  0  0  0
  136.3300   74.6870  221.8040 C   0  0  0  0  0  0  0  0  0  0  0  0
  137.6140   75.0960  221.5280 C   0  0  0  0  0  0  0  0  0  0  0  0
  138.6640   74.2420  221.7960 C   0  0  0  0  0  0  0  0  0  0  0  0
  138.6982   77.1967  222.4250 H   0  0  0  0  0  0  0  0  0  0  0  0
  137.5143   78.6376  222.2536 H   0  0  0  0  0  0  0  0  0  0  0  0
  135.1731   78.9153  223.0708 H   0  0  0  0  0  0  0  0  0  0  0  0
  134.7304   80.4871  224.9834 H   0  0  0  0  0  0  0  0  0  0  0  0
  136.6304   81.7366  226.0247 H   0  0  0  0  0  0  0  0  0  0  0  0
  138.9490   81.4301  225.1682 H   0  0  0  0  0  0  0  0  0  0  0  0
  140.0969   81.9284  223.7841 H   0  0  0  0  0  0  0  0  0  0  0  0
  142.4252   81.9650  223.0554 H   0  0  0  0  0  0  0  0  0  0  0  0
  143.4059   79.9602  221.9703 H   0  0  0  0  0  0  0  0  0  0  0  0
  142.7600   77.3970  221.1960 H   0  0  0  0  0  0  0  0  0  0  0  0
  141.3527   72.7481  221.2435 H   0  0  0  0  0  0  0  0  0  0  0  0
  141.4897   73.4407  222.8614 H   0  0  0  0  0  0  0  0  0  0  0  0
  139.1328   70.9841  220.8778 H   0  0  0  0  0  0  0  0  0  0  0  0
  140.7696   70.6900  221.4241 H   0  0  0  0  0  0  0  0  0  0  0  0
  138.1549   69.7679  222.5645 H   0  0  0  0  0  0  0  0  0  0  0  0
  139.7712   69.0164  222.7161 H   0  0  0  0  0  0  0  0  0  0  0  0
  141.1127   69.3344  224.4552 H   0  0  0  0  0  0  0  0  0  0  0  0
  138.4099   68.5794  225.2519 H   0  0  0  0  0  0  0  0  0  0  0  0
  139.8633   67.6602  224.5476 H   0  0  0  0  0  0  0  0  0  0  0  0
  138.9542   67.1065  226.8547 H   0  0  0  0  0  0  0  0  0  0  0  0
  140.7510   67.2543  226.4743 H   0  0  0  0  0  0  0  0  0  0  0  0
  139.0448   69.2785  227.9261 H   0  0  0  0  0  0  0  0  0  0  0  0
  140.2617   68.2119  228.6518 H   0  0  0  0  0  0  0  0  0  0  0  0
  141.3475   70.3672  228.1173 H   0  0  0  0  0  0  0  0  0  0  0  0
  141.9742   69.1636  226.9688 H   0  0  0  0  0  0  0  0  0  0  0  0
  139.5814   71.0004  226.4932 H   0  0  0  0  0  0  0  0  0  0  0  0
  141.2642   71.2472  225.8517 H   0  0  0  0  0  0  0  0  0  0  0  0
  139.4256   72.5221  224.6524 H   0  0  0  0  0  0  0  0  0  0  0  0
  140.9926   71.8083  224.2214 H   0  0  0  0  0  0  0  0  0  0  0  0
  136.9645   71.6214  223.0343 H   0  0  0  0  0  0  0  0  0  0  0  0
  135.0527   73.1236  222.5648 H   0  0  0  0  0  0  0  0  0  0  0  0
  135.4889   75.3627  221.5897 H   0  0  0  0  0  0  0  0  0  0  0  0
  137.8013   76.0914  221.0990 H   0  0  0  0  0  0  0  0  0  0  0  0
  1  2  2  0
  2  3  1  0
  3  4  2  0
  4  5  1  0
  5  6  2  0
  6  7  1  0
  7  8  2  0
  8  9  1  0
  9 10  2  0
 10 11  1  0
 11 12  2  0
  6 13  1  0
 13 14  2  0
 14 15  1  0
 15 16  2  0
 16 17  1  0
  2 18  1  0
 18 19  1  0
 20 19  1  6
 20 21  1  0
 21 22  1  0
 22 23  1  0
 23 24  1  0
 24 25  1  0
 25 26  1  0
 26 27  1  0
 27 28  1  0
 28 29  1  0
 23 30  1  0
 20 31  1  0
 31 32  2  0
 32 33  1  0
 33 34  2  0
 34 35  1  0
 35 36  2  0
 17  3  1  0
 36 18  1  0
 16  5  1  0
 30 20  1  0
 36 31  1  0
 12  7  1  0
 29 24  1  0
  4 37  1  0
  8 38  1  0
  9 39  1  0
 10 40  1  0
 11 41  1  0
 12 42  1  0
 13 43  1  0
 14 44  1  0
 15 45  1  0
 17 46  1  0
 19 47  1  0
 19 48  1  0
 21 49  1  0
 21 50  1  0
 22 51  1  0
 22 52  1  0
 24 53  1  0
 25 54  1  0
 25 55  1  0
 26 56  1  0
 26 57  1  0
 27 58  1  0
 27 59  1  0
 28 60  1  0
 28 61  1  0
 29 62  1  0
 29 63  1  0
 30 64  1  0
 30 65  1  0
 32 66  1  0
 33 67  1  0
 34 68  1  0
 35 69  1  0
M  END
