
 54 58  0  0  0  0  0  0  0  0999 V2000
  139.0150   70.0660  221.6250 O   0  0  0  0  0  0  0  0  0  0  0  0
  139.5820   70.6220  222.6160 C   0  0  0  0  0  0  0  0  0  0  0  0
  140.0930   71.9410  222.3750 N   0  0  0  0  0  0  0  0  0  0  0  0
  139.9980   72.6260  221.1300 C   0  0  0  0  0  0  0  0  0  0  0  0
  140.3110   74.0180  221.0080 C   0  0  0  0  0  0  0  0  0  0  0  0
  139.7350   74.7790  221.9260 O   0  0  0  0  0  0  0  0  0  0  0  0
  141.0940   74.7800  220.1270 N   0  0  0  0  0  0  0  0  0  0  0  0
  142.5880   74.6790  220.2270 C   0  0  0  0  0  0  0  0  0  0  0  0
  143.1100   75.0070  218.8720 C   0  0  0  0  0  0  0  0  0  0  0  0
  141.8950   75.2920  218.0140 C   0  0  0  0  0  0  0  0  0  0  0  0
  140.8920   75.7320  219.1010 C   0  0  2  0  0  0  0  0  0  0  0  0
  141.3390   77.1180  219.5280 C   0  0  0  0  0  0  0  0  0  0  0  0
  141.3350   77.6510  220.7480 N   0  0  0  0  0  0  0  0  0  0  0  0
  141.8150   78.9180  220.7130 C   0  0  0  0  0  0  0  0  0  0  0  0
  141.9830   79.8600  221.8140 C   0  0  0  0  0  0  0  0  0  0  0  0
  142.5760   79.4520  222.9910 C   0  0  0  0  0  0  0  0  0  0  0  0
  142.7530   80.3110  224.0540 C   0  0  0  0  0  0  0  0  0  0  0  0
  142.3160   81.6090  223.9130 C   0  0  0  0  0  0  0  0  0  0  0  0
  141.7280   82.0040  222.7390 C   0  0  0  0  0  0  0  0  0  0  0  0
  141.5410   81.1580  221.6610 C   0  0  0  0  0  0  0  0  0  0  0  0
  142.1180   79.1340  219.3810 C   0  0  0  0  0  0  0  0  0  0  0  0
  141.8180   78.0390  218.7260 O   0  0  0  0  0  0  0  0  0  0  0  0
  139.7020   69.9740  223.8940 C   0  0  0  0  0  0  0  0  0  0  0  0
  139.1450   68.7240  224.0540 C   0  0  0  0  0  0  0  0  0  0  0  0
  139.2270   68.0430  225.2650 C   0  0  0  0  0  0  0  0  0  0  0  0
  139.8970   68.6860  226.3010 C   0  0  0  0  0  0  0  0  0  0  0  0
  140.0410   68.1050  227.5470 C   0  0  0  0  0  0  0  0  0  0  0  0
  140.7180   68.7820  228.5510 C   0  0  0  0  0  0  0  0  0  0  0  0
  141.2650   70.0360  228.3540 C   0  0  0  0  0  0  0  0  0  0  0  0
  141.1210   70.6150  227.1100 C   0  0  0  0  0  0  0  0  0  0  0  0
  140.4430   69.9370  226.1040 C   0  0  0  0  0  0  0  0  0  0  0  0
  140.3560   70.5890  224.9170 N   0  0  0  0  0  0  0  0  0  0  0  0
  140.5580   72.3750  223.2250 H   0  0  0  0  0  0  0  0  0  0  0  0
  140.6667   72.0972  220.4349 H   0  0  0  0  0  0  0  0  0  0  0  0
  138.9147   72.6135  220.9395 H   0  0  0  0  0  0  0  0  0  0  0  0
  142.9713   75.3954  220.9686 H   0  0  0  0  0  0  0  0  0  0  0  0
  142.9046   73.6764  220.5503 H   0  0  0  0  0  0  0  0  0  0  0  0
  143.7618   75.8919  218.9175 H   0  0  0  0  0  0  0  0  0  0  0  0
  143.7091   74.1813  218.4604 H   0  0  0  0  0  0  0  0  0  0  0  0
  142.0880   76.0956  217.2881 H   0  0  0  0  0  0  0  0  0  0  0  0
  141.5611   74.4489  217.3914 H   0  0  0  0  0  0  0  0  0  0  0  0
  139.8331   75.7759  218.8064 H   0  0  0  0  0  0  0  0  0  0  0  0
  142.9175   78.4105  223.0837 H   0  0  0  0  0  0  0  0  0  0  0  0
  143.2284   79.9704  224.9857 H   0  0  0  0  0  0  0  0  0  0  0  0
  142.4380   82.3258  224.7384 H   0  0  0  0  0  0  0  0  0  0  0  0
  141.3879   83.0463  222.6501 H   0  0  0  0  0  0  0  0  0  0  0  0
  141.0650   81.5018  220.7308 H   0  0  0  0  0  0  0  0  0  0  0  0
  142.5347   80.0563  218.9500 H   0  0  0  0  0  0  0  0  0  0  0  0
  138.6244   68.2542  223.2065 H   0  0  0  0  0  0  0  0  0  0  0  0
  138.7837   67.0449  225.3966 H   0  0  0  0  0  0  0  0  0  0  0  0
  139.6196   67.1078  227.7421 H   0  0  0  0  0  0  0  0  0  0  0  0
  140.8230   68.3050  229.5366 H   0  0  0  0  0  0  0  0  0  0  0  0
  141.7983   70.5559  229.1635 H   0  0  0  0  0  0  0  0  0  0  0  0
  141.5424   71.6121  226.9146 H   0  0  0  0  0  0  0  0  0  0  0  0
  1  2  2  0
  2  3  1  0
  3  4  1  0
  4  5  1  0
  5  6  2  0
  5  7  1  0
  7  8  1  0
  8  9  1  0
  9 10  1  0
 10 11  1  0
 11 12  1  0
 12 13  2  0
 13 14  1  0
 14 15  1  0
 15 16  2  0
 16 17  1  0
 17 18  2  0
 18 19  1  0
 19 20  2  0
 14 21  2  0
 21 22  1  0
  2 23  1  0
 23 24  2  0
 24 25  1  0
 25 26  2  0
 26 27  1  0
 27 28  2  0
 28 29  1  0
 29 30  2  0
 30 31  1  0
 31 32  2  0
 11  7  1  0
 22 12  1  0
 32 23  1  0
 20 15  1  0
 31 26  1  0
  3 33  1  0
  4 34  1  0
  4 35  1  0
  8 36  1  0
  8 37  1  0
  9 38  1  0
  9 39  1  0
 10 40  1  0
 10 41  1  0
 11 42  1  6
 16 43  1  0
 17 44  1  0
 18 45  1  0
 19 46  1  0
 20 47  1  0
 21 48  1  0
 24 49  1  0
 25 50  1  0
 27 51  1  0
 28 52  1  0
 29 53  1  0
 30 54  1  0
M  END
