
 61 66  0  0  0  0  0  0  0  0999 V2000
  137.7970   72.0570  221.4930 O   0  0  0  0  0  0  0  0  0  0  0  0
  138.9770   72.1990  221.9560 C   0  0  0  0  0  0  0  0  0  0  0  0
  139.3010   71.3420  223.0800 C   0  0  0  0  0  0  0  0  0  0  0  0
  139.0720   69.9950  223.2740 C   0  0  0  0  0  0  0  0  0  0  0  0
  139.5840   69.6210  224.5080 C   0  0  0  0  0  0  0  0  0  0  0  0
  139.6670   68.4720  225.2440 C   0  0  0  0  0  0  0  0  0  0  0  0
  140.2700   68.4310  226.4990 C   0  0  0  0  0  0  0  0  0  0  0  0
  140.7970   69.6110  226.9980 C   0  0  0  0  0  0  0  0  0  0  0  0
  140.7380   70.7930  226.2980 C   0  0  0  0  0  0  0  0  0  0  0  0
  141.4100   72.2730  226.9500 Cl  0  0  0  0  0  0  0  0  0  0  0  0
  140.1310   70.7920  225.0540 C   0  0  0  0  0  0  0  0  0  0  0  0
  139.9450   71.7920  224.1810 N   0  0  0  0  0  0  0  0  0  0  0  0
  139.8580   73.1460  221.3730 N   0  0  0  0  0  0  0  0  0  0  0  0
  139.4190   74.4620  220.9540 C   0  0  0  0  0  0  0  0  0  0  0  0
  140.6900   75.2760  221.0790 C   0  0  1  0  0  0  0  0  0  0  0  0
  140.7750   76.2990  219.9510 C   0  0  0  0  0  0  0  0  0  0  0  0
  140.0610   77.4690  220.6230 C   0  0  0  0  0  0  0  0  0  0  0  0
  140.3710   77.4030  221.9860 N   0  0  0  0  0  0  0  0  0  0  0  0
  140.8030   78.4760  222.7270 C   0  0  0  0  0  0  0  0  0  0  0  0
  142.0900   79.1530  222.5060 C   0  0  0  0  0  0  0  0  0  0  0  0
  142.3710   79.9720  223.7780 C   0  0  0  0  0  0  0  0  0  0  0  0
  142.0260   81.4150  223.6300 C   0  0  0  0  0  0  0  0  0  0  0  0
  140.8670   81.5000  222.7470 N   0  0  0  0  0  0  0  0  0  0  0  0
  141.3170   81.2540  221.3700 C   0  0  0  0  0  0  0  0  0  0  0  0
  142.1820   80.0420  221.3050 C   0  0  0  0  0  0  0  0  0  0  0  0
  140.6930   76.0690  222.3570 C   0  0  0  0  0  0  0  0  0  0  0  0
  141.7490   74.2730  220.9950 C   0  0  0  0  0  0  0  0  0  0  0  0
  143.1170   74.4720  220.7700 C   0  0  0  0  0  0  0  0  0  0  0  0
  143.9910   73.4180  220.6740 C   0  0  0  0  0  0  0  0  0  0  0  0
  143.4540   72.1360  220.8090 C   0  0  0  0  0  0  0  0  0  0  0  0
  142.1120   71.9460  221.0310 C   0  0  0  0  0  0  0  0  0  0  0  0
  141.2440   73.0040  221.1270 C   0  0  0  0  0  0  0  0  0  0  0  0
  138.5648   69.3252  222.5640 H   0  0  0  0  0  0  0  0  0  0  0  0
  139.2420   67.5458  224.8299 H   0  0  0  0  0  0  0  0  0  0  0  0
  140.3258   67.4947  227.0736 H   0  0  0  0  0  0  0  0  0  0  0  0
  141.2786   69.6021  227.9869 H   0  0  0  0  0  0  0  0  0  0  0  0
  140.2540   72.7620  224.3450 H   0  0  0  0  0  0  0  0  0  0  0  0
  139.0535   74.4493  219.9166 H   0  0  0  0  0  0  0  0  0  0  0  0
  138.5804   74.8577  221.5457 H   0  0  0  0  0  0  0  0  0  0  0  0
  141.8166   76.5446  219.6965 H   0  0  0  0  0  0  0  0  0  0  0  0
  140.3463   75.9761  218.9908 H   0  0  0  0  0  0  0  0  0  0  0  0
  140.4138   78.4212  220.2001 H   0  0  0  0  0  0  0  0  0  0  0  0
  138.9742   77.4130  220.4623 H   0  0  0  0  0  0  0  0  0  0  0  0
  140.0319   79.2516  222.6096 H   0  0  0  0  0  0  0  0  0  0  0  0
  140.9756   78.0039  223.7054 H   0  0  0  0  0  0  0  0  0  0  0  0
  142.8332   78.3686  222.3002 H   0  0  0  0  0  0  0  0  0  0  0  0
  141.7770   79.5525  224.6033 H   0  0  0  0  0  0  0  0  0  0  0  0
  143.4511   79.9107  223.9768 H   0  0  0  0  0  0  0  0  0  0  0  0
  141.7822   81.8457  224.6124 H   0  0  0  0  0  0  0  0  0  0  0  0
  142.8746   81.9755  223.2109 H   0  0  0  0  0  0  0  0  0  0  0  0
  140.5570   82.5190  222.7910 H   0  0  0  0  0  0  0  0  0  0  0  0
  140.4387   81.1054  220.7246 H   0  0  0  0  0  0  0  0  0  0  0  0
  141.9000   82.1222  221.0289 H   0  0  0  0  0  0  0  0  0  0  0  0
  141.8893   79.4572  220.4205 H   0  0  0  0  0  0  0  0  0  0  0  0
  143.2212   80.3995  221.2572 H   0  0  0  0  0  0  0  0  0  0  0  0
  141.6861   76.0317  222.8286 H   0  0  0  0  0  0  0  0  0  0  0  0
  139.9733   75.6664  223.0849 H   0  0  0  0  0  0  0  0  0  0  0  0
  143.5003   75.4980  220.6678 H   0  0  0  0  0  0  0  0  0  0  0  0
  145.0654   73.5759  220.4987 H   0  0  0  0  0  0  0  0  0  0  0  0
  144.1181   71.2621  220.7362 H   0  0  0  0  0  0  0  0  0  0  0  0
  141.7242   70.9218  221.1342 H   0  0  0  0  0  0  0  0  0  0  0  0
  1  2  2  0
  2  3  1  0
  3  4  2  0
  4  5  1  0
  5  6  2  0
  6  7  1  0
  7  8  2  0
  8  9  1  0
  9 10  1  0
  9 11  2  0
 11 12  1  0
  2 13  1  0
 13 14  1  0
 15 14  1  6
 15 16  1  0
 16 17  1  0
 17 18  1  0
 18 19  1  0
 19 20  1  0
 20 21  1  0
 21 22  1  0
 22 23  1  0
 23 24  1  0
 24 25  1  0
 18 26  1  0
 15 27  1  0
 27 28  2  0
 28 29  1  0
 29 30  2  0
 30 31  1  0
 31 32  2  0
 12  3  1  0
 32 13  1  0
 11  5  1  0
 26 15  1  0
 32 27  1  0
 25 20  1  0
  4 33  1  0
  6 34  1  0
  7 35  1  0
  8 36  1  0
 12 37  1  0
 14 38  1  0
 14 39  1  0
 16 40  1  0
 16 41  1  0
 17 42  1  0
 17 43  1  0
 19 44  1  0
 19 45  1  0
 20 46  1  0
 21 47  1  0
 21 48  1  0
 22 49  1  0
 22 50  1  0
 23 51  1  0
 24 52  1  0
 24 53  1  0
 25 54  1  0
 25 55  1  0
 26 56  1  0
 26 57  1  0
 28 58  1  0
 29 59  1  0
 30 60  1  0
 31 61  1  0
M  END
