
 74 79  0  0  0  0  0  0  0  0999 V2000
  143.1200   79.3900  222.9370 N   0  0  0  0  0  0  0  0  0  0  0  0
  142.1150   80.7890  223.0550 S   0  0  0  0  0  0  0  0  0  0  0  0
  142.2160   81.6100  221.8160 O   0  0  0  0  0  0  0  0  0  0  0  0
  142.5880   81.5620  224.2450 O   0  0  0  0  0  0  0  0  0  0  0  0
  140.4090   80.2680  223.2750 C   0  0  0  0  0  0  0  0  0  0  0  0
  139.9510   79.5470  222.0390 C   0  0  0  0  0  0  0  0  0  0  0  0
  139.6790   78.0800  222.2820 C   0  0  1  0  0  0  0  0  0  0  0  0
  138.5230   77.5340  221.5160 C   0  0  0  0  0  0  0  0  0  0  0  0
  138.9140   76.5050  220.4830 C   0  0  0  0  0  0  0  0  0  0  0  0
  139.7810   75.4060  220.9950 C   0  0  2  0  0  0  0  0  0  0  0  0
  139.0470   74.1390  221.2960 C   0  0  0  0  0  0  0  0  0  0  0  0
  137.9640   73.7490  220.5840 N   0  0  0  0  0  0  0  0  0  0  0  0
  137.3590   72.5860  220.9280 C   0  0  0  0  0  0  0  0  0  0  0  0
  136.2240   72.2040  220.1570 N   0  0  0  0  0  0  0  0  0  0  0  0
  134.9720   71.9640  220.8310 C   0  0  0  0  0  0  0  0  0  0  0  0
  134.5060   70.5750  220.4520 C   0  0  0  0  0  0  0  0  0  0  0  0
  134.4020   70.5340  218.9720 C   0  0  0  0  0  0  0  0  0  0  0  0
  133.3910   69.7650  218.4090 C   0  0  0  0  0  0  0  0  0  0  0  0
  133.3010   69.7330  217.0230 C   0  0  0  0  0  0  0  0  0  0  0  0
  134.1710   70.4290  216.2130 C   0  0  0  0  0  0  0  0  0  0  0  0
  135.1520   71.1720  216.8260 C   0  0  0  0  0  0  0  0  0  0  0  0
  135.2910   71.2440  218.1980 C   0  0  0  0  0  0  0  0  0  0  0  0
  136.3840   72.0770  218.7430 C   0  0  0  0  0  0  0  0  0  0  0  0
  137.8220   71.8400  221.9500 N   0  0  0  0  0  0  0  0  0  0  0  0
  138.8980   72.2200  222.6630 C   0  0  0  0  0  0  0  0  0  0  0  0
  139.4140   71.4600  223.7460 N   0  0  0  0  0  0  0  0  0  0  0  0
  138.7210   70.2700  224.1930 C   0  0  0  0  0  0  0  0  0  0  0  0
  139.7720   69.3790  224.8440 C   0  0  0  0  0  0  0  0  0  0  0  0
  140.2640   70.1300  226.0390 C   0  0  0  0  0  0  0  0  0  0  0  0
  140.2780   69.5690  227.3070 C   0  0  0  0  0  0  0  0  0  0  0  0
  140.7600   70.3770  228.3220 C   0  0  0  0  0  0  0  0  0  0  0  0
  141.2010   71.6560  228.1170 C   0  0  0  0  0  0  0  0  0  0  0  0
  141.1830   72.2150  226.8320 C   0  0  0  0  0  0  0  0  0  0  0  0
  140.7050   71.4230  225.8010 C   0  0  0  0  0  0  0  0  0  0  0  0
  140.6330   71.8930  224.3920 C   0  0  0  0  0  0  0  0  0  0  0  0
  139.4780   73.3810  222.2970 N   0  0  0  0  0  0  0  0  0  0  0  0
  140.4510   75.7900  222.3210 C   0  0  0  0  0  0  0  0  0  0  0  0
  140.9010   77.2330  222.1120 C   0  0  0  0  0  0  0  0  0  0  0  0
  143.9360   79.6540  222.3280 H   0  0  0  0  0  0  0  0  0  0  0  0
  142.5720   78.7050  222.3410 H   0  0  0  0  0  0  0  0  0  0  0  0
  140.3386   79.5942  224.1417 H   0  0  0  0  0  0  0  0  0  0  0  0
  139.7723   81.1483  223.4474 H   0  0  0  0  0  0  0  0  0  0  0  0
  139.0260   80.0207  221.6785 H   0  0  0  0  0  0  0  0  0  0  0  0
  140.7607   79.6148  221.2975 H   0  0  0  0  0  0  0  0  0  0  0  0
  139.3826   78.0288  223.3401 H   0  0  0  0  0  0  0  0  0  0  0  0
  138.0206   78.3676  221.0035 H   0  0  0  0  0  0  0  0  0  0  0  0
  137.8654   77.0304  222.2399 H   0  0  0  0  0  0  0  0  0  0  0  0
  139.4544   77.0193  219.6747 H   0  0  0  0  0  0  0  0  0  0  0  0
  137.9795   76.0321  220.1467 H   0  0  0  0  0  0  0  0  0  0  0  0
  140.5006   75.2476  220.1782 H   0  0  0  0  0  0  0  0  0  0  0  0
  135.1142   72.0276  221.9199 H   0  0  0  0  0  0  0  0  0  0  0  0
  134.2248   72.7155  220.5362 H   0  0  0  0  0  0  0  0  0  0  0  0
  135.2329   69.8260  220.7994 H   0  0  0  0  0  0  0  0  0  0  0  0
  133.5353   70.3489  220.9175 H   0  0  0  0  0  0  0  0  0  0  0  0
  132.6867   69.2014  219.0385 H   0  0  0  0  0  0  0  0  0  0  0  0
  132.5074   69.1310  216.5562 H   0  0  0  0  0  0  0  0  0  0  0  0
  134.0842   70.3917  215.1171 H   0  0  0  0  0  0  0  0  0  0  0  0
  135.8572   71.7338  216.1958 H   0  0  0  0  0  0  0  0  0  0  0  0
  137.3516   71.6017  218.5244 H   0  0  0  0  0  0  0  0  0  0  0  0
  136.3529   73.0737  218.2787 H   0  0  0  0  0  0  0  0  0  0  0  0
  137.9419   70.5350  224.9229 H   0  0  0  0  0  0  0  0  0  0  0  0
  138.2275   69.7571  223.3543 H   0  0  0  0  0  0  0  0  0  0  0  0
  139.3250   68.4220  225.1511 H   0  0  0  0  0  0  0  0  0  0  0  0
  140.5915   69.1470  224.1478 H   0  0  0  0  0  0  0  0  0  0  0  0
  139.9271   68.5435  227.4949 H   0  0  0  0  0  0  0  0  0  0  0  0
  140.7900   69.9710  229.3439 H   0  0  0  0  0  0  0  0  0  0  0  0
  141.5719   72.2490  228.9660 H   0  0  0  0  0  0  0  0  0  0  0  0
  141.5343   73.2413  226.6495 H   0  0  0  0  0  0  0  0  0  0  0  0
  140.6717   72.9923  224.3804 H   0  0  0  0  0  0  0  0  0  0  0  0
  141.4837   71.4631  223.8429 H   0  0  0  0  0  0  0  0  0  0  0  0
  141.3135   75.1385  222.5248 H   0  0  0  0  0  0  0  0  0  0  0  0
  139.7738   75.6813  223.1810 H   0  0  0  0  0  0  0  0  0  0  0  0
  141.3158   77.3605  221.1012 H   0  0  0  0  0  0  0  0  0  0  0  0
  141.6873   77.5154  222.8276 H   0  0  0  0  0  0  0  0  0  0  0  0
  1  2  1  0
  2  3  2  0
  2  4  2  0
  2  5  1  0
  5  6  1  0
  6  7  1  0
  7  8  1  0
  8  9  1  0
  9 10  1  0
 10 11  1  0
 11 12  2  0
 12 13  1  0
 13 14  1  0
 14 15  1  0
 15 16  1  0
 16 17  1  0
 17 18  2  0
 18 19  1  0
 19 20  2  0
 20 21  1  0
 21 22  2  0
 22 23  1  0
 13 24  2  0
 24 25  1  0
 25 26  1  0
 26 27  1  0
 27 28  1  0
 28 29  1  0
 29 30  2  0
 30 31  1  0
 31 32  2  0
 32 33  1  0
 33 34  2  0
 34 35  1  0
 25 36  2  0
 10 37  1  0
 37 38  1  0
 38  7  1  0
 36 11  1  0
 23 14  1  0
 35 26  1  0
 22 17  1  0
 34 29  1  0
  1 39  1  0
  1 40  1  0
  5 41  1  0
  5 42  1  0
  6 43  1  0
  6 44  1  0
  7 45  1  1
  8 46  1  0
  8 47  1  0
  9 48  1  0
  9 49  1  0
 10 50  1  6
 15 51  1  0
 15 52  1  0
 16 53  1  0
 16 54  1  0
 18 55  1  0
 19 56  1  0
 20 57  1  0
 21 58  1  0
 23 59  1  0
 23 60  1  0
 27 61  1  0
 27 62  1  0
 28 63  1  0
 28 64  1  0
 30 65  1  0
 31 66  1  0
 32 67  1  0
 33 68  1  0
 35 69  1  0
 35 70  1  0
 37 71  1  0
 37 72  1  0
 38 73  1  0
 38 74  1  0
M  END
