@<TRIPOS>MOLECULE
*****
 73 78 0 0 0
SMALL
GASTEIGER

@<TRIPOS>ATOM
      1 C         142.7080   76.3290  219.5210 C.3     1  UNL1       -0.0152
      2 N         142.3760   77.3850  220.4210 N.3     1  UNL1       -0.3122
      3 C         141.0080   77.4750  220.8110 C.3     1  UNL1        0.0344
      4 C         140.1350   76.3410  220.3410 C.3     1  UNL1        0.0301
      5 N         139.7460   75.4620  221.4070 N.pl3   1  UNL1       -0.3116
      6 C         140.3210   74.2020  221.6760 C.ar    1  UNL1        0.2211
      7 N         141.3080   73.7730  220.8710 N.ar    1  UNL1       -0.1809
      8 C         141.8920   72.5750  221.0940 C.ar    1  UNL1        0.2240
      9 N         142.9360   72.1460  220.2040 N.pl3   1  UNL1       -0.2948
     10 C         144.2000   72.8270  220.3230 C.3     1  UNL1        0.0192
     11 C         145.2300   72.3000  219.3580 C.3     1  UNL1       -0.0115
     12 C         145.1860   70.8210  219.2490 C.ar    1  UNL1       -0.0412
     13 C         146.3450   70.0790  219.1980 C.ar    1  UNL1       -0.0582
     14 C         146.2610   68.7080  219.0980 C.ar    1  UNL1       -0.0615
     15 C         145.0130   68.0780  219.0480 C.ar    1  UNL1       -0.0614
     16 C         143.8820   68.8710  219.1020 C.ar    1  UNL1       -0.0568
     17 C         143.9250   70.2450  219.2020 C.ar    1  UNL1       -0.0269
     18 C         142.6770   71.0770  219.2580 C.3     1  UNL1        0.0402
     19 N         141.4930   71.8000  222.1240 N.ar    1  UNL1       -0.1807
     20 C         140.4910   72.2170  222.9540 C.ar    1  UNL1        0.2240
     21 N         140.0400   71.4300  224.0480 N.pl3   1  UNL1       -0.2948
     22 C         138.8890   70.5610  223.9010 C.3     1  UNL1        0.0192
     23 C         139.2220   69.1350  224.2910 C.3     1  UNL1       -0.0115
     24 C         139.7350   69.2060  225.6910 C.ar    1  UNL1       -0.0412
     25 C         139.4970   68.1260  226.5490 C.ar    1  UNL1       -0.0582
     26 C         139.9670   68.1800  227.8530 C.ar    1  UNL1       -0.0615
     27 C         140.6690   69.2690  228.3410 C.ar    1  UNL1       -0.0614
     28 C         140.8920   70.3290  227.4700 C.ar    1  UNL1       -0.0568
     29 C         140.4320   70.3040  226.1560 C.ar    1  UNL1       -0.0269
     30 C         140.7300   71.4920  225.3200 C.3     1  UNL1        0.0402
     31 N         139.9250   73.4160  222.7090 N.ar    1  UNL1       -0.1809
     32 C         140.9240   77.5360  222.3200 C.3     1  UNL1       -0.0332
     33 C         141.8290   78.6250  222.8280 C.3     1  UNL1       -0.0513
     34 C         141.4230   79.9360  222.2110 C.3     1  UNL1       -0.0529
     35 C         141.4160   79.8580  220.7060 C.3     1  UNL1       -0.0513
     36 C         140.4270   78.7810  220.3000 C.3     1  UNL1       -0.0332
     37 H         142.9895   75.4335  220.0944 H       1  UNL1        0.0388
     38 H         141.8384   76.1003  218.8873 H       1  UNL1        0.0388
     39 H         143.5520   76.6390  218.8873 H       1  UNL1        0.0388
     40 H         143.0530   77.4770  221.2150 H       1  UNL1        0.1222
     41 H         139.2276   76.7620  219.8833 H       1  UNL1        0.0480
     42 H         140.7183   75.7500  219.6196 H       1  UNL1        0.0480
     43 H         138.9770   75.7800  222.0360 H       1  UNL1        0.1490
     44 H         144.0445   73.8976  220.1237 H       1  UNL1        0.0468
     45 H         144.5776   72.6571  221.3421 H       1  UNL1        0.0468
     46 H         145.0415   72.7348  218.3653 H       1  UNL1        0.0328
     47 H         146.2240   72.5829  219.7348 H       1  UNL1        0.0328
     48 H         147.3259   70.5753  219.2367 H       1  UNL1        0.0620
     49 H         147.1802   68.1051  219.0572 H       1  UNL1        0.0618
     50 H         144.9340   66.9838  218.9681 H       1  UNL1        0.0618
     51 H         142.8981   68.3807  219.0632 H       1  UNL1        0.0621
     52 H         142.4537   71.4943  218.2650 H       1  UNL1        0.0514
     53 H         141.8106   70.4738  219.5671 H       1  UNL1        0.0514
     54 H         138.0777   70.9288  224.5464 H       1  UNL1        0.0468
     55 H         138.5806   70.5691  222.8451 H       1  UNL1        0.0468
     56 H         138.3216   68.5048  224.2444 H       1  UNL1        0.0328
     57 H         139.9633   68.6914  223.6100 H       1  UNL1        0.0328
     58 H         138.9435   67.2444  226.1933 H       1  UNL1        0.0620
     59 H         139.7754   67.3284  228.5223 H       1  UNL1        0.0618
     60 H         141.0360   69.2943  229.3777 H       1  UNL1        0.0618
     61 H         141.4457   71.2096  227.8277 H       1  UNL1        0.0621
     62 H         140.4097   72.3970  225.8571 H       1  UNL1        0.0514
     63 H         141.8124   71.5157  225.1257 H       1  UNL1        0.0514
     64 H         139.8879   77.7497  222.6214 H       1  UNL1        0.0283
     65 H         141.2371   76.5707  222.7444 H       1  UNL1        0.0283
     66 H         141.7447   78.6922  223.9227 H       1  UNL1        0.0266
     67 H         142.8700   78.3961  222.5563 H       1  UNL1        0.0266
     68 H         140.4134   80.1983  222.5603 H       1  UNL1        0.0265
     69 H         142.1526   80.7014  222.5141 H       1  UNL1        0.0265
     70 H         141.1093   80.8259  220.2829 H       1  UNL1        0.0266
     71 H         142.4212   79.6170  220.3298 H       1  UNL1        0.0266
     72 H         139.4452   78.9694  220.7589 H       1  UNL1        0.0283
     73 H         140.2757   78.7590  219.2107 H       1  UNL1        0.0283
@<TRIPOS>BOND
     1     1     2    1
     2     2     3    1
     3     3     4    1
     4     4     5    1
     5     5     6    1
     6     6     7   ar
     7     7     8   ar
     8     8     9    1
     9     9    10    1
    10    10    11    1
    11    11    12    1
    12    12    13   ar
    13    13    14   ar
    14    14    15   ar
    15    15    16   ar
    16    16    17   ar
    17    17    18    1
    18     8    19   ar
    19    19    20   ar
    20    20    21    1
    21    21    22    1
    22    22    23    1
    23    23    24    1
    24    24    25   ar
    25    25    26   ar
    26    26    27   ar
    27    27    28   ar
    28    28    29   ar
    29    29    30    1
    30    20    31   ar
    31     3    32    1
    32    32    33    1
    33    33    34    1
    34    34    35    1
    35    35    36    1
    36    36     3    1
    37    31     6   ar
    38    18     9    1
    39    30    21    1
    40    17    12   ar
    41    29    24   ar
    42     1    37    1
    43     1    38    1
    44     1    39    1
    45     2    40    1
    46     4    41    1
    47     4    42    1
    48     5    43    1
    49    10    44    1
    50    10    45    1
    51    11    46    1
    52    11    47    1
    53    13    48    1
    54    14    49    1
    55    15    50    1
    56    16    51    1
    57    18    52    1
    58    18    53    1
    59    22    54    1
    60    22    55    1
    61    23    56    1
    62    23    57    1
    63    25    58    1
    64    26    59    1
    65    27    60    1
    66    28    61    1
    67    30    62    1
    68    30    63    1
    69    32    64    1
    70    32    65    1
    71    33    66    1
    72    33    67    1
    73    34    68    1
    74    34    69    1
    75    35    70    1
    76    35    71    1
    77    36    72    1
    78    36    73    1
