
     RDKit          3D

 52 55  0  0  0  0  0  0  0  0999 V2000
  140.8980   71.7120  221.1640 O   0  0  0  0  0  0  0  0  0  0  0  0
  140.3850   72.2420  222.1970 C   0  0  0  0  0  0  0  0  0  0  0  0
  139.9920   73.6170  222.2030 N   0  0  0  0  0  0  0  0  0  0  0  0
  140.1620   74.4550  221.0360 C   0  0  0  0  0  0  0  0  0  0  0  0
  140.3800   75.8880  221.4550 C   0  0  0  0  0  0  0  0  0  0  0  0
  139.9510   76.1760  222.6030 O   0  0  0  0  0  0  0  0  0  0  0  0
  141.0250   76.8250  220.6000 N   0  0  0  0  0  0  0  0  0  0  0  0
  140.9360   76.7460  219.1540 C   0  0  0  0  0  0  0  0  0  0  0  0
  141.8100   77.9210  218.7050 C   0  0  2  0  0  0  0  0  0  0  0  0
  143.1330   77.4950  218.5410 O   0  0  0  0  0  0  0  0  0  0  0  0
  141.8070   78.8690  219.8950 C   0  0  0  0  0  0  0  0  0  0  0  0
  141.8150   77.9190  221.0480 C   0  0  1  0  0  0  0  0  0  0  0  0
  141.4670   78.5300  222.3530 C   0  0  0  0  0  0  0  0  0  0  0  0
  140.2170   79.3280  222.4030 C   0  0  0  0  0  0  0  0  0  0  0  0
  140.3530   79.9830  223.7870 C   0  0  0  0  0  0  0  0  0  0  0  0
  141.8130   80.3920  223.8260 C   0  0  0  0  0  0  0  0  0  0  0  0
  142.5080   79.5950  222.7260 C   0  0  0  0  0  0  0  0  0  0  0  0
  140.1930   71.4410  223.3970 C   0  0  0  0  0  0  0  0  0  0  0  0
  139.5360   70.2300  223.3250 C   0  0  0  0  0  0  0  0  0  0  0  0
  139.3240   69.4280  224.4280 C   0  0  0  0  0  0  0  0  0  0  0  0
  139.8070   69.8950  225.6380 C   0  0  0  0  0  0  0  0  0  0  0  0
  139.6240   69.1360  226.7730 C   0  0  0  0  0  0  0  0  0  0  0  0
  140.0970   69.5930  227.9610 C   0  0  0  0  0  0  0  0  0  0  0  0
  139.9250   68.8540  229.0960 F   0  0  0  0  0  0  0  0  0  0  0  0
  140.7570   70.8030  228.0530 C   0  0  0  0  0  0  0  0  0  0  0  0
  140.9550   71.5850  226.9370 C   0  0  0  0  0  0  0  0  0  0  0  0
  140.4710   71.1200  225.7130 C   0  0  0  0  0  0  0  0  0  0  0  0
  140.6470   71.8630  224.5840 N   0  0  0  0  0  0  0  0  0  0  0  0
  139.5740   73.9860  223.0960 H   0  0  0  0  0  0  0  0  0  0  0  0
  141.0334   74.1071  220.4619 H   0  0  0  0  0  0  0  0  0  0  0  0
  139.2565   74.3951  220.4143 H   0  0  0  0  0  0  0  0  0  0  0  0
  141.3335   75.7899  218.7827 H   0  0  0  0  0  0  0  0  0  0  0  0
  139.9049   76.7954  218.7742 H   0  0  0  0  0  0  0  0  0  0  0  0
  141.4444   78.3608  217.7653 H   0  0  0  0  0  0  0  0  0  0  0  0
  143.7280   77.8820  219.2280 H   0  0  0  0  0  0  0  0  0  0  0  0
  142.7014   79.5093  219.8983 H   0  0  0  0  0  0  0  0  0  0  0  0
  140.9585   79.5690  219.9026 H   0  0  0  0  0  0  0  0  0  0  0  0
  142.8234   77.5659  221.3097 H   0  0  0  0  0  0  0  0  0  0  0  0
  141.3911   77.6465  223.0039 H   0  0  0  0  0  0  0  0  0  0  0  0
  140.1833   80.0794  221.6004 H   0  0  0  0  0  0  0  0  0  0  0  0
  139.2958   78.7433  222.2628 H   0  0  0  0  0  0  0  0  0  0  0  0
  139.6940   80.8592  223.8767 H   0  0  0  0  0  0  0  0  0  0  0  0
  140.0664   79.3160  224.6134 H   0  0  0  0  0  0  0  0  0  0  0  0
  141.9120   81.4709  223.6357 H   0  0  0  0  0  0  0  0  0  0  0  0
  142.2597   80.1898  224.8107 H   0  0  0  0  0  0  0  0  0  0  0  0
  142.7433   80.2357  221.8634 H   0  0  0  0  0  0  0  0  0  0  0  0
  143.4688   79.1655  223.0460 H   0  0  0  0  0  0  0  0  0  0  0  0
  139.1654   69.8892  222.3470 H   0  0  0  0  0  0  0  0  0  0  0  0
  138.7973   68.4655  224.3493 H   0  0  0  0  0  0  0  0  0  0  0  0
  139.1004   68.1702  226.7175 H   0  0  0  0  0  0  0  0  0  0  0  0
  141.1290   71.1461  229.0297 H   0  0  0  0  0  0  0  0  0  0  0  0
  141.4799   72.5491  227.0080 H   0  0  0  0  0  0  0  0  0  0  0  0
  1  2  2  0
  2  3  1  0
  3  4  1  0
  4  5  1  0
  5  6  2  0
  5  7  1  0
  7  8  1  0
  8  9  1  0
  9 10  1  0
  9 11  1  0
 11 12  1  0
 12 13  1  0
 13 14  1  0
 14 15  1  0
 15 16  1  0
 16 17  1  0
  2 18  1  0
 18 19  2  0
 19 20  1  0
 20 21  2  0
 21 22  1  0
 22 23  2  0
 23 24  1  0
 23 25  1  0
 25 26  2  0
 26 27  1  0
 27 28  2  0
 12  7  1  0
 17 13  1  0
 28 18  1  0
 27 21  1  0
  3 29  1  0
  4 30  1  0
  4 31  1  0
  8 32  1  0
  8 33  1  0
  9 34  1  6
 10 35  1  0
 11 36  1  0
 11 37  1  0
 12 38  1  1
 13 39  1  0
 14 40  1  0
 14 41  1  0
 15 42  1  0
 15 43  1  0
 16 44  1  0
 16 45  1  0
 17 46  1  0
 17 47  1  0
 19 48  1  0
 20 49  1  0
 22 50  1  0
 25 51  1  0
 26 52  1  0
M  END
>  <smiles>  (1) 
O=C(NCC(=O)N1C[C@H](O)C[C@H]1C1CCCC1)c1ccc2cc(F)ccc2n1

>  <score_type>  (1) 
oracle

>  <origin>  (1) 
autodockgpu

>  <m_score__min__energy>  (1) 
-8.7899999999999991

>  <m_primary>  (1) 
energy

>  <rmsd>  (1) 
1.8296686042159427

>  <m_score__min__rmsd>  (1) 
1.8296686042159427

>  <meeko>  (1) 
{"free_energy": -8.75, "intermolecular_energy": -10.54, "internal_energy": -1.7, "cluster_size": 37, "cluster_id": 1, "rank_in_cluster": 4}

>  <energy>  (1) 
-8.79

>  <cluster_rmsd>  (1) 
0.0

>  <cluster>  (1) 
1

$$$$

     RDKit          3D

 52 55  0  0  0  0  0  0  0  0999 V2000
  140.6120   71.5510  221.0630 O   0  0  0  0  0  0  0  0  0  0  0  0
  140.2180   72.1100  222.1320 C   0  0  0  0  0  0  0  0  0  0  0  0
  139.9100   73.5060  222.1660 N   0  0  0  0  0  0  0  0  0  0  0  0
  140.0360   74.3340  220.9860 C   0  0  0  0  0  0  0  0  0  0  0  0
  140.0510   75.7910  221.3760 C   0  0  0  0  0  0  0  0  0  0  0  0
  139.6280   76.0340  222.5360 O   0  0  0  0  0  0  0  0  0  0  0  0
  140.5150   76.7980  220.4820 N   0  0  0  0  0  0  0  0  0  0  0  0
  140.0740   76.8730  219.1020 C   0  0  0  0  0  0  0  0  0  0  0  0
  140.8690   78.0670  218.5660 C   0  0  2  0  0  0  0  0  0  0  0  0
  142.0900   77.6300  218.0420 O   0  0  0  0  0  0  0  0  0  0  0  0
  141.2010   78.8850  219.8050 C   0  0  0  0  0  0  0  0  0  0  0  0
  141.4420   77.8190  220.8240 C   0  0  1  0  0  0  0  0  0  0  0  0
  141.4520   78.2980  222.2280 C   0  0  0  0  0  0  0  0  0  0  0  0
  140.2120   78.9510  222.7170 C   0  0  0  0  0  0  0  0  0  0  0  0
  140.7020   79.5200  224.0590 C   0  0  0  0  0  0  0  0  0  0  0  0
  142.0680   80.0800  223.7100 C   0  0  0  0  0  0  0  0  0  0  0  0
  142.4650   79.4400  222.3840 C   0  0  0  0  0  0  0  0  0  0  0  0
  140.0750   71.3200  223.3460 C   0  0  0  0  0  0  0  0  0  0  0  0
  139.5540   70.0430  223.2860 C   0  0  0  0  0  0  0  0  0  0  0  0
  139.3950   69.2480  224.4030 C   0  0  0  0  0  0  0  0  0  0  0  0
  139.7860   69.7920  225.6150 C   0  0  0  0  0  0  0  0  0  0  0  0
  139.6500   69.0430  226.7630 C   0  0  0  0  0  0  0  0  0  0  0  0
  140.0340   69.5760  227.9520 C   0  0  0  0  0  0  0  0  0  0  0  0
  139.9060   68.8480  229.1000 F   0  0  0  0  0  0  0  0  0  0  0  0
  140.5570   70.8510  228.0310 C   0  0  0  0  0  0  0  0  0  0  0  0
  140.7050   71.6240  226.9020 C   0  0  0  0  0  0  0  0  0  0  0  0
  140.3130   71.0830  225.6760 C   0  0  0  0  0  0  0  0  0  0  0  0
  140.4430   71.8140  224.5350 N   0  0  0  0  0  0  0  0  0  0  0  0
  139.5890   73.8980  223.0880 H   0  0  0  0  0  0  0  0  0  0  0  0
  140.9732   74.0866  220.4660 H   0  0  0  0  0  0  0  0  0  0  0  0
  139.1796   74.1474  220.3214 H   0  0  0  0  0  0  0  0  0  0  0  0
  140.3222   75.9518  218.5545 H   0  0  0  0  0  0  0  0  0  0  0  0
  138.9852   76.9866  218.9946 H   0  0  0  0  0  0  0  0  0  0  0  0
  140.3081   78.6107  217.7915 H   0  0  0  0  0  0  0  0  0  0  0  0
  142.1490   76.6450  218.0260 H   0  0  0  0  0  0  0  0  0  0  0  0
  142.0997   79.4999  219.6493 H   0  0  0  0  0  0  0  0  0  0  0  0
  140.4151   79.6006  220.0883 H   0  0  0  0  0  0  0  0  0  0  0  0
  142.4652   77.4162  220.7939 H   0  0  0  0  0  0  0  0  0  0  0  0
  141.6483   77.3692  222.7837 H   0  0  0  0  0  0  0  0  0  0  0  0
  139.8777   79.7479  222.0364 H   0  0  0  0  0  0  0  0  0  0  0  0
  139.3425   78.2816  222.7942 H   0  0  0  0  0  0  0  0  0  0  0  0
  140.0304   80.3119  224.4221 H   0  0  0  0  0  0  0  0  0  0  0  0
  140.7319   78.7709  224.8639 H   0  0  0  0  0  0  0  0  0  0  0  0
  142.0161   81.1737  223.6049 H   0  0  0  0  0  0  0  0  0  0  0  0
  142.8041   79.8599  224.4972 H   0  0  0  0  0  0  0  0  0  0  0  0
  142.3780   80.1600  221.5569 H   0  0  0  0  0  0  0  0  0  0  0  0
  143.5094   79.0952  222.3673 H   0  0  0  0  0  0  0  0  0  0  0  0
  139.2529   69.6422  222.3068 H   0  0  0  0  0  0  0  0  0  0  0  0
  138.9783   68.2324  224.3339 H   0  0  0  0  0  0  0  0  0  0  0  0
  139.2353   68.0252  226.7175 H   0  0  0  0  0  0  0  0  0  0  0  0
  140.8593   71.2543  229.0087 H   0  0  0  0  0  0  0  0  0  0  0  0
  141.1208   72.6405  226.9638 H   0  0  0  0  0  0  0  0  0  0  0  0
  1  2  2  0
  2  3  1  0
  3  4  1  0
  4  5  1  0
  5  6  2  0
  5  7  1  0
  7  8  1  0
  8  9  1  0
  9 10  1  0
  9 11  1  0
 11 12  1  0
 12 13  1  0
 13 14  1  0
 14 15  1  0
 15 16  1  0
 16 17  1  0
  2 18  1  0
 18 19  2  0
 19 20  1  0
 20 21  2  0
 21 22  1  0
 22 23  2  0
 23 24  1  0
 23 25  1  0
 25 26  2  0
 26 27  1  0
 27 28  2  0
 12  7  1  0
 17 13  1  0
 28 18  1  0
 27 21  1  0
  3 29  1  0
  4 30  1  0
  4 31  1  0
  8 32  1  0
  8 33  1  0
  9 34  1  6
 10 35  1  0
 11 36  1  0
 11 37  1  0
 12 38  1  6
 13 39  1  0
 14 40  1  0
 14 41  1  0
 15 42  1  0
 15 43  1  0
 16 44  1  0
 16 45  1  0
 17 46  1  0
 17 47  1  0
 19 48  1  0
 20 49  1  0
 22 50  1  0
 25 51  1  0
 26 52  1  0
M  END
>  <smiles>  (2) 
O=C(NCC(=O)N1C[C@H](O)C[C@H]1C1CCCC1)c1ccc2cc(F)ccc2n1

>  <score_type>  (2) 
oracle

>  <origin>  (2) 
autodockgpu

>  <m_score__min__energy>  (2) 
-8.7899999999999991

>  <m_primary>  (2) 
energy

>  <rmsd>  (2) 
1.6515748792876237

>  <m_score__min__rmsd>  (2) 
1.6515748792876237

>  <meeko>  (2) 
{"free_energy": -7.66, "intermolecular_energy": -9.45, "internal_energy": -1.86, "cluster_size": 37, "cluster_id": 1, "rank_in_cluster": 35}

>  <energy>  (2) 
-8.78

>  <cluster_rmsd>  (2) 
0.07

>  <cluster>  (2) 
1

$$$$

     RDKit          3D

 52 55  0  0  0  0  0  0  0  0999 V2000
  140.8610   71.6600  221.1190 O   0  0  0  0  0  0  0  0  0  0  0  0
  140.3790   72.2060  222.1590 C   0  0  0  0  0  0  0  0  0  0  0  0
  140.0200   73.5900  222.1680 N   0  0  0  0  0  0  0  0  0  0  0  0
  140.1900   74.4210  220.9950 C   0  0  0  0  0  0  0  0  0  0  0  0
  140.3530   75.8640  221.4030 C   0  0  0  0  0  0  0  0  0  0  0  0
  139.8660   76.1560  222.5270 O   0  0  0  0  0  0  0  0  0  0  0  0
  141.0110   76.8070  220.5640 N   0  0  0  0  0  0  0  0  0  0  0  0
  140.9760   76.7140  219.1160 C   0  0  0  0  0  0  0  0  0  0  0  0
  141.8430   77.9020  218.6880 C   0  0  2  0  0  0  0  0  0  0  0  0
  143.1790   77.5000  218.5770 O   0  0  0  0  0  0  0  0  0  0  0  0
  141.7800   78.8590  219.8690 C   0  0  0  0  0  0  0  0  0  0  0  0
  141.7630   77.9190  221.0300 C   0  0  1  0  0  0  0  0  0  0  0  0
  141.3570   78.5340  222.3170 C   0  0  0  0  0  0  0  0  0  0  0  0
  140.0900   79.3070  222.3150 C   0  0  0  0  0  0  0  0  0  0  0  0
  140.1630   79.9760  223.6960 C   0  0  0  0  0  0  0  0  0  0  0  0
  141.6130   80.4140  223.7830 C   0  0  0  0  0  0  0  0  0  0  0  0
  142.3630   79.6220  222.7170 C   0  0  0  0  0  0  0  0  0  0  0  0
  140.1880   71.4130  223.3650 C   0  0  0  0  0  0  0  0  0  0  0  0
  139.5610   70.1860  223.2960 C   0  0  0  0  0  0  0  0  0  0  0  0
  139.3520   69.3910  224.4040 C   0  0  0  0  0  0  0  0  0  0  0  0
  139.8050   69.8820  225.6170 C   0  0  0  0  0  0  0  0  0  0  0  0
  139.6230   69.1300  226.7570 C   0  0  0  0  0  0  0  0  0  0  0  0
  140.0660   69.6110  227.9470 C   0  0  0  0  0  0  0  0  0  0  0  0
  139.8950   68.8800  229.0870 F   0  0  0  0  0  0  0  0  0  0  0  0
  140.6960   70.8380  228.0350 C   0  0  0  0  0  0  0  0  0  0  0  0
  140.8920   71.6120  226.9140 C   0  0  0  0  0  0  0  0  0  0  0  0
  140.4380   71.1230  225.6880 C   0  0  0  0  0  0  0  0  0  0  0  0
  140.6130   71.8580  224.5540 N   0  0  0  0  0  0  0  0  0  0  0  0
  139.6270   73.9720  223.0660 H   0  0  0  0  0  0  0  0  0  0  0  0
  141.0848   74.0950  220.4444 H   0  0  0  0  0  0  0  0  0  0  0  0
  139.3014   74.3257  220.3537 H   0  0  0  0  0  0  0  0  0  0  0  0
  141.4049   75.7627  218.7680 H   0  0  0  0  0  0  0  0  0  0  0  0
  139.9585   76.7401  218.6988 H   0  0  0  0  0  0  0  0  0  0  0  0
  141.5031   78.3268  217.7319 H   0  0  0  0  0  0  0  0  0  0  0  0
  143.6570   77.5820  219.4360 H   0  0  0  0  0  0  0  0  0  0  0  0
  142.6622   79.5153  219.8991 H   0  0  0  0  0  0  0  0  0  0  0  0
  140.9193   79.5434  219.8398 H   0  0  0  0  0  0  0  0  0  0  0  0
  142.7676   77.5873  221.3311 H   0  0  0  0  0  0  0  0  0  0  0  0
  141.2755   77.6550  222.9733 H   0  0  0  0  0  0  0  0  0  0  0  0
  140.0701   80.0507  221.5048 H   0  0  0  0  0  0  0  0  0  0  0  0
  139.1864   78.7025  222.1475 H   0  0  0  0  0  0  0  0  0  0  0  0
  139.4843   80.8397  223.7539 H   0  0  0  0  0  0  0  0  0  0  0  0
  139.8596   79.3109  224.5179 H   0  0  0  0  0  0  0  0  0  0  0  0
  141.6976   81.4929  223.5861 H   0  0  0  0  0  0  0  0  0  0  0  0
  142.0276   80.2288  224.7849 H   0  0  0  0  0  0  0  0  0  0  0  0
  142.6171   80.2597  221.8575 H   0  0  0  0  0  0  0  0  0  0  0  0
  143.3199   79.2145  223.0753 H   0  0  0  0  0  0  0  0  0  0  0  0
  139.2131   69.8264  222.3164 H   0  0  0  0  0  0  0  0  0  0  0  0
  138.8502   68.4151  224.3277 H   0  0  0  0  0  0  0  0  0  0  0  0
  139.1244   68.1509  226.7037 H   0  0  0  0  0  0  0  0  0  0  0  0
  141.0451   71.2004  229.0132 H   0  0  0  0  0  0  0  0  0  0  0  0
  141.3926   72.5891  226.9823 H   0  0  0  0  0  0  0  0  0  0  0  0
  1  2  2  0
  2  3  1  0
  3  4  1  0
  4  5  1  0
  5  6  2  0
  5  7  1  0
  7  8  1  0
  8  9  1  0
  9 10  1  0
  9 11  1  0
 11 12  1  0
 12 13  1  0
 13 14  1  0
 14 15  1  0
 15 16  1  0
 16 17  1  0
  2 18  1  0
 18 19  2  0
 19 20  1  0
 20 21  2  0
 21 22  1  0
 22 23  2  0
 23 24  1  0
 23 25  1  0
 25 26  2  0
 26 27  1  0
 27 28  2  0
 12  7  1  0
 17 13  1  0
 28 18  1  0
 27 21  1  0
  3 29  1  0
  4 30  1  0
  4 31  1  0
  8 32  1  0
  8 33  1  0
  9 34  1  6
 10 35  1  0
 11 36  1  0
 11 37  1  0
 12 38  1  1
 13 39  1  0
 14 40  1  0
 14 41  1  0
 15 42  1  0
 15 43  1  0
 16 44  1  0
 16 45  1  0
 17 46  1  0
 17 47  1  0
 19 48  1  0
 20 49  1  0
 22 50  1  0
 25 51  1  0
 26 52  1  0
M  END
>  <smiles>  (3) 
O=C(NCC(=O)N1C[C@H](O)C[C@H]1C1CCCC1)c1ccc2cc(F)ccc2n1

>  <score_type>  (3) 
oracle

>  <origin>  (3) 
autodockgpu

>  <m_score__min__energy>  (3) 
-8.7899999999999991

>  <m_primary>  (3) 
energy

>  <rmsd>  (3) 
1.8179125701271819

>  <m_score__min__rmsd>  (3) 
1.8179125701271819

>  <meeko>  (3) 
{"free_energy": -8.63, "intermolecular_energy": -10.42, "internal_energy": -1.73, "cluster_size": 37, "cluster_id": 1, "rank_in_cluster": 13}

>  <energy>  (3) 
-8.77

>  <cluster_rmsd>  (3) 
0.66

>  <cluster>  (3) 
1

$$$$

     RDKit          3D

 52 55  0  0  0  0  0  0  0  0999 V2000
  140.4080   71.6380  221.0400 O   0  0  0  0  0  0  0  0  0  0  0  0
  140.1060   72.1890  222.1430 C   0  0  0  0  0  0  0  0  0  0  0  0
  139.8200   73.5880  222.2160 N   0  0  0  0  0  0  0  0  0  0  0  0
  139.8620   74.4290  221.0380 C   0  0  0  0  0  0  0  0  0  0  0  0
  140.7730   75.6070  221.2760 C   0  0  0  0  0  0  0  0  0  0  0  0
  140.7230   76.0900  222.4370 O   0  0  0  0  0  0  0  0  0  0  0  0
  141.6180   76.1160  220.2490 N   0  0  0  0  0  0  0  0  0  0  0  0
  141.4560   77.4500  219.7010 C   0  0  0  0  0  0  0  0  0  0  0  0
  142.5480   77.5010  218.6290 C   0  0  2  0  0  0  0  0  0  0  0  0
  142.0370   77.0510  217.4070 O   0  0  0  0  0  0  0  0  0  0  0  0
  143.5660   76.4630  219.0780 C   0  0  0  0  0  0  0  0  0  0  0  0
  142.6890   75.3980  219.6510 C   0  0  1  0  0  0  0  0  0  0  0  0
  143.3980   74.3980  220.4860 C   0  0  0  0  0  0  0  0  0  0  0  0
  144.8810   74.4130  220.4290 C   0  0  0  0  0  0  0  0  0  0  0  0
  145.2080   73.1140  221.1820 C   0  0  0  0  0  0  0  0  0  0  0  0
  144.1870   72.1370  220.6300 C   0  0  0  0  0  0  0  0  0  0  0  0
  143.1000   72.9820  219.9720 C   0  0  0  0  0  0  0  0  0  0  0  0
  140.0500   71.3870  223.3560 C   0  0  0  0  0  0  0  0  0  0  0  0
  139.5660   70.0960  223.3130 C   0  0  0  0  0  0  0  0  0  0  0  0
  139.4890   69.2890  224.4290 C   0  0  0  0  0  0  0  0  0  0  0  0
  139.9240   69.8370  225.6240 C   0  0  0  0  0  0  0  0  0  0  0  0
  139.8700   69.0760  226.7710 C   0  0  0  0  0  0  0  0  0  0  0  0
  140.2960   69.6120  227.9440 C   0  0  0  0  0  0  0  0  0  0  0  0
  140.2500   68.8730  229.0910 F   0  0  0  0  0  0  0  0  0  0  0  0
  140.7830   70.9030  228.0070 C   0  0  0  0  0  0  0  0  0  0  0  0
  140.8500   71.6880  226.8780 C   0  0  0  0  0  0  0  0  0  0  0  0
  140.4130   71.1420  225.6700 C   0  0  0  0  0  0  0  0  0  0  0  0
  140.4620   71.8850  224.5290 N   0  0  0  0  0  0  0  0  0  0  0  0
  139.5770   73.9740  223.1640 H   0  0  0  0  0  0  0  0  0  0  0  0
  140.2386   73.8438  220.1861 H   0  0  0  0  0  0  0  0  0  0  0  0
  138.8480   74.7956  220.8203 H   0  0  0  0  0  0  0  0  0  0  0  0
  140.4575   77.5796  219.2581 H   0  0  0  0  0  0  0  0  0  0  0  0
  141.5421   78.2474  220.4538 H   0  0  0  0  0  0  0  0  0  0  0  0
  142.9496   78.5181  218.5097 H   0  0  0  0  0  0  0  0  0  0  0  0
  141.4460   76.2700  217.5240 H   0  0  0  0  0  0  0  0  0  0  0  0
  144.1522   76.0839  218.2279 H   0  0  0  0  0  0  0  0  0  0  0  0
  144.3136   76.8511  219.7855 H   0  0  0  0  0  0  0  0  0  0  0  0
  142.2941   74.7086  218.8903 H   0  0  0  0  0  0  0  0  0  0  0  0
  143.0451   74.6545  221.4958 H   0  0  0  0  0  0  0  0  0  0  0  0
  145.2471   74.3836  219.3921 H   0  0  0  0  0  0  0  0  0  0  0  0
  145.3452   75.3157  220.8528 H   0  0  0  0  0  0  0  0  0  0  0  0
  146.2333   72.7789  220.9666 H   0  0  0  0  0  0  0  0  0  0  0  0
  145.1597   73.2216  222.2757 H   0  0  0  0  0  0  0  0  0  0  0  0
  144.6561   71.4742  219.8879 H   0  0  0  0  0  0  0  0  0  0  0  0
  143.7724   71.4995  221.4248 H   0  0  0  0  0  0  0  0  0  0  0  0
  143.1745   72.9365  218.8755 H   0  0  0  0  0  0  0  0  0  0  0  0
  142.0826   72.6405  220.2132 H   0  0  0  0  0  0  0  0  0  0  0  0
  139.2269   69.6928  222.3474 H   0  0  0  0  0  0  0  0  0  0  0  0
  139.1013   68.2611  224.3725 H   0  0  0  0  0  0  0  0  0  0  0  0
  139.4861   68.0457  226.7373 H   0  0  0  0  0  0  0  0  0  0  0  0
  141.1216   71.3091  228.9716 H   0  0  0  0  0  0  0  0  0  0  0  0
  141.2370   72.7165  226.9265 H   0  0  0  0  0  0  0  0  0  0  0  0
  1  2  2  0
  2  3  1  0
  3  4  1  0
  4  5  1  0
  5  6  2  0
  5  7  1  0
  7  8  1  0
  8  9  1  0
  9 10  1  0
  9 11  1  0
 11 12  1  0
 12 13  1  0
 13 14  1  0
 14 15  1  0
 15 16  1  0
 16 17  1  0
  2 18  1  0
 18 19  2  0
 19 20  1  0
 20 21  2  0
 21 22  1  0
 22 23  2  0
 23 24  1  0
 23 25  1  0
 25 26  2  0
 26 27  1  0
 27 28  2  0
 12  7  1  0
 17 13  1  0
 28 18  1  0
 27 21  1  0
  3 29  1  0
  4 30  1  0
  4 31  1  0
  8 32  1  0
  8 33  1  0
  9 34  1  6
 10 35  1  0
 11 36  1  0
 11 37  1  0
 12 38  1  6
 13 39  1  0
 14 40  1  0
 14 41  1  0
 15 42  1  0
 15 43  1  0
 16 44  1  0
 16 45  1  0
 17 46  1  0
 17 47  1  0
 19 48  1  0
 20 49  1  0
 22 50  1  0
 25 51  1  0
 26 52  1  0
M  END
>  <smiles>  (4) 
O=C(NCC(=O)N1C[C@H](O)C[C@H]1C1CCCC1)c1ccc2cc(F)ccc2n1

>  <score_type>  (4) 
oracle

>  <origin>  (4) 
autodockgpu

>  <m_score__min__energy>  (4) 
-8.7899999999999991

>  <m_primary>  (4) 
energy

>  <rmsd>  (4) 
2.2067089136063354

>  <m_score__min__rmsd>  (4) 
2.2067089136063354

>  <meeko>  (4) 
{"free_energy": -7.7, "intermolecular_energy": -9.49, "internal_energy": -2.01, "cluster_size": 8, "cluster_id": 2, "rank_in_cluster": 4}

>  <energy>  (4) 
-8.75

>  <cluster_rmsd>  (4) 
0.68

>  <cluster>  (4) 
1

$$$$

     RDKit          3D

 52 55  0  0  0  0  0  0  0  0999 V2000
  140.6660   71.7250  221.1140 O   0  0  0  0  0  0  0  0  0  0  0  0
  140.2470   72.2600  222.1860 C   0  0  0  0  0  0  0  0  0  0  0  0
  139.9260   73.6520  222.2420 N   0  0  0  0  0  0  0  0  0  0  0  0
  140.0640   74.5040  221.0800 C   0  0  0  0  0  0  0  0  0  0  0  0
  140.4980   75.8860  221.5010 C   0  0  0  0  0  0  0  0  0  0  0  0
  140.2840   76.1640  222.7110 O   0  0  0  0  0  0  0  0  0  0  0  0
  141.1030   76.7900  220.5830 N   0  0  0  0  0  0  0  0  0  0  0  0
  141.0500   76.5890  219.1470 C   0  0  0  0  0  0  0  0  0  0  0  0
  141.8600   77.7770  218.6180 C   0  0  2  0  0  0  0  0  0  0  0  0
  143.2100   77.4230  218.5120 O   0  0  0  0  0  0  0  0  0  0  0  0
  141.7740   78.8160  219.7260 C   0  0  0  0  0  0  0  0  0  0  0  0
  141.8150   77.9640  220.9530 C   0  0  1  0  0  0  0  0  0  0  0  0
  141.4030   78.6550  222.1990 C   0  0  0  0  0  0  0  0  0  0  0  0
  140.4440   79.7780  222.0510 C   0  0  0  0  0  0  0  0  0  0  0  0
  140.4830   80.3730  223.4670 C   0  0  0  0  0  0  0  0  0  0  0  0
  141.9610   80.3460  223.8050 C   0  0  0  0  0  0  0  0  0  0  0  0
  142.6070   79.3780  222.8180 C   0  0  0  0  0  0  0  0  0  0  0  0
  140.0910   71.4450  223.3820 C   0  0  0  0  0  0  0  0  0  0  0  0
  139.4550   70.2220  223.3110 C   0  0  0  0  0  0  0  0  0  0  0  0
  139.2770   69.4070  224.4100 C   0  0  0  0  0  0  0  0  0  0  0  0
  139.7720   69.8730  225.6170 C   0  0  0  0  0  0  0  0  0  0  0  0
  139.6230   69.1010  226.7480 C   0  0  0  0  0  0  0  0  0  0  0  0
  140.1070   69.5570  227.9320 C   0  0  0  0  0  0  0  0  0  0  0  0
  139.9690   68.8050  229.0630 F   0  0  0  0  0  0  0  0  0  0  0  0
  140.7460   70.7780  228.0220 C   0  0  0  0  0  0  0  0  0  0  0  0
  140.9110   71.5730  226.9110 C   0  0  0  0  0  0  0  0  0  0  0  0
  140.4150   71.1090  225.6900 C   0  0  0  0  0  0  0  0  0  0  0  0
  140.5570   71.8650  224.5660 N   0  0  0  0  0  0  0  0  0  0  0  0
  139.5850   74.0230  223.1650 H   0  0  0  0  0  0  0  0  0  0  0  0
  140.8176   74.0763  220.4024 H   0  0  0  0  0  0  0  0  0  0  0  0
  139.0943   74.5717  220.5652 H   0  0  0  0  0  0  0  0  0  0  0  0
  141.5133   75.6330  218.8617 H   0  0  0  0  0  0  0  0  0  0  0  0
  140.0262   76.5425  218.7474 H   0  0  0  0  0  0  0  0  0  0  0  0
  141.4881   78.1156  217.6397 H   0  0  0  0  0  0  0  0  0  0  0  0
  143.7430   78.1400  218.0920 H   0  0  0  0  0  0  0  0  0  0  0  0
  142.6276   79.5089  219.6916 H   0  0  0  0  0  0  0  0  0  0  0  0
  140.8848   79.4604  219.6624 H   0  0  0  0  0  0  0  0  0  0  0  0
  142.8373   77.6970  221.2589 H   0  0  0  0  0  0  0  0  0  0  0  0
  140.9545   77.8338  222.7773 H   0  0  0  0  0  0  0  0  0  0  0  0
  140.7826   80.5036  221.2968 H   0  0  0  0  0  0  0  0  0  0  0  0
  139.4421   79.4810  221.7075 H   0  0  0  0  0  0  0  0  0  0  0  0
  140.0939   81.4019  223.4748 H   0  0  0  0  0  0  0  0  0  0  0  0
  139.8623   79.8204  224.1877 H   0  0  0  0  0  0  0  0  0  0  0  0
  142.3958   81.3503  223.6938 H   0  0  0  0  0  0  0  0  0  0  0  0
  142.1282   80.0285  224.8448 H   0  0  0  0  0  0  0  0  0  0  0  0
  143.1791   79.9201  222.0506 H   0  0  0  0  0  0  0  0  0  0  0  0
  143.3252   78.6929  223.2922 H   0  0  0  0  0  0  0  0  0  0  0  0
  139.0738   69.8826  222.3366 H   0  0  0  0  0  0  0  0  0  0  0  0
  138.7673   68.4354  224.3316 H   0  0  0  0  0  0  0  0  0  0  0  0
  139.1174   68.1256  226.6927 H   0  0  0  0  0  0  0  0  0  0  0  0
  141.1283   71.1197  228.9952 H   0  0  0  0  0  0  0  0  0  0  0  0
  141.4189   72.5461  226.9821 H   0  0  0  0  0  0  0  0  0  0  0  0
  1  2  2  0
  2  3  1  0
  3  4  1  0
  4  5  1  0
  5  6  2  0
  5  7  1  0
  7  8  1  0
  8  9  1  0
  9 10  1  0
  9 11  1  0
 11 12  1  0
 12 13  1  0
 13 14  1  0
 14 15  1  0
 15 16  1  0
 16 17  1  0
  2 18  1  0
 18 19  2  0
 19 20  1  0
 20 21  2  0
 21 22  1  0
 22 23  2  0
 23 24  1  0
 23 25  1  0
 25 26  2  0
 26 27  1  0
 27 28  2  0
 12  7  1  0
 17 13  1  0
 28 18  1  0
 27 21  1  0
  3 29  1  0
  4 30  1  0
  4 31  1  0
  8 32  1  0
  8 33  1  0
  9 34  1  6
 10 35  1  0
 11 36  1  0
 11 37  1  0
 12 38  1  1
 13 39  1  0
 14 40  1  0
 14 41  1  0
 15 42  1  0
 15 43  1  0
 16 44  1  0
 16 45  1  0
 17 46  1  0
 17 47  1  0
 19 48  1  0
 20 49  1  0
 22 50  1  0
 25 51  1  0
 26 52  1  0
M  END
>  <smiles>  (5) 
O=C(NCC(=O)N1C[C@H](O)C[C@H]1C1CCCC1)c1ccc2cc(F)ccc2n1

>  <score_type>  (5) 
oracle

>  <origin>  (5) 
autodockgpu

>  <m_score__min__energy>  (5) 
-8.7899999999999991

>  <m_primary>  (5) 
energy

>  <rmsd>  (5) 
1.7586979349429672

>  <m_score__min__rmsd>  (5) 
1.7586979349429672

>  <meeko>  (5) 
{"free_energy": -8.3, "intermolecular_energy": -10.09, "internal_energy": -1.67, "cluster_size": 37, "cluster_id": 1, "rank_in_cluster": 22}

>  <energy>  (5) 
-8.74

>  <cluster_rmsd>  (5) 
0.71

>  <cluster>  (5) 
1

$$$$

     RDKit          3D

 52 55  0  0  0  0  0  0  0  0999 V2000
  140.3660   71.4950  221.0400 O   0  0  0  0  0  0  0  0  0  0  0  0
  140.0630   72.0730  222.1290 C   0  0  0  0  0  0  0  0  0  0  0  0
  139.8160   73.4800  222.1740 N   0  0  0  0  0  0  0  0  0  0  0  0
  139.8990   74.3000  220.9840 C   0  0  0  0  0  0  0  0  0  0  0  0
  140.7240   75.5310  221.2610 C   0  0  0  0  0  0  0  0  0  0  0  0
  140.5790   76.0190  222.4130 O   0  0  0  0  0  0  0  0  0  0  0  0
  141.5950   76.0830  220.2790 N   0  0  0  0  0  0  0  0  0  0  0  0
  141.4350   77.4330  219.7710 C   0  0  0  0  0  0  0  0  0  0  0  0
  142.5600   77.5300  218.7360 C   0  0  2  0  0  0  0  0  0  0  0  0
  142.0920   77.1170  217.4840 O   0  0  0  0  0  0  0  0  0  0  0  0
  143.5740   76.4870  219.1810 C   0  0  0  0  0  0  0  0  0  0  0  0
  142.6910   75.3950  219.6910 C   0  0  1  0  0  0  0  0  0  0  0  0
  143.3840   74.3750  220.5140 C   0  0  0  0  0  0  0  0  0  0  0  0
  144.8660   74.3490  220.4350 C   0  0  0  0  0  0  0  0  0  0  0  0
  145.1680   73.0400  221.1810 C   0  0  0  0  0  0  0  0  0  0  0  0
  144.1130   72.0930  220.6430 C   0  0  0  0  0  0  0  0  0  0  0  0
  143.0400   72.9690  220.0020 C   0  0  0  0  0  0  0  0  0  0  0  0
  139.9660   71.2930  223.3540 C   0  0  0  0  0  0  0  0  0  0  0  0
  139.4310   70.0210  223.3260 C   0  0  0  0  0  0  0  0  0  0  0  0
  139.3130   69.2360  224.4550 C   0  0  0  0  0  0  0  0  0  0  0  0
  139.7620   69.7840  225.6440 C   0  0  0  0  0  0  0  0  0  0  0  0
  139.6700   69.0440  226.8020 C   0  0  0  0  0  0  0  0  0  0  0  0
  140.1100   69.5810  227.9700 C   0  0  0  0  0  0  0  0  0  0  0  0
  140.0260   68.8630  229.1280 F   0  0  0  0  0  0  0  0  0  0  0  0
  140.6480   70.8520  228.0170 C   0  0  0  0  0  0  0  0  0  0  0  0
  140.7540   71.6160  226.8770 C   0  0  0  0  0  0  0  0  0  0  0  0
  140.3030   71.0700  225.6730 C   0  0  0  0  0  0  0  0  0  0  0  0
  140.3910   71.7920  224.5220 N   0  0  0  0  0  0  0  0  0  0  0  0
  139.5700   73.8880  223.1130 H   0  0  0  0  0  0  0  0  0  0  0  0
  140.3689   73.7213  220.1752 H   0  0  0  0  0  0  0  0  0  0  0  0
  138.8853   74.6051  220.6850 H   0  0  0  0  0  0  0  0  0  0  0  0
  140.4494   77.5673  219.3013 H   0  0  0  0  0  0  0  0  0  0  0  0
  141.4882   78.2058  220.5520 H   0  0  0  0  0  0  0  0  0  0  0  0
  142.9547   78.5542  218.6641 H   0  0  0  0  0  0  0  0  0  0  0  0
  142.4790   77.6560  216.7530 H   0  0  0  0  0  0  0  0  0  0  0  0
  144.1896   76.1422  218.3371 H   0  0  0  0  0  0  0  0  0  0  0  0
  144.2956   76.8579  219.9238 H   0  0  0  0  0  0  0  0  0  0  0  0
  142.3270   74.7275  218.8961 H   0  0  0  0  0  0  0  0  0  0  0  0
  143.0532   74.6394  221.5292 H   0  0  0  0  0  0  0  0  0  0  0  0
  145.2157   74.3115  219.3928 H   0  0  0  0  0  0  0  0  0  0  0  0
  145.3612   75.2377  220.8533 H   0  0  0  0  0  0  0  0  0  0  0  0
  146.1804   72.6772  220.9499 H   0  0  0  0  0  0  0  0  0  0  0  0
  145.1387   73.1468  222.2754 H   0  0  0  0  0  0  0  0  0  0  0  0
  144.5527   71.4189  219.8932 H   0  0  0  0  0  0  0  0  0  0  0  0
  143.6926   71.4658  221.4429 H   0  0  0  0  0  0  0  0  0  0  0  0
  143.0975   72.9238  218.9044 H   0  0  0  0  0  0  0  0  0  0  0  0
  142.0171   72.6550  220.2572 H   0  0  0  0  0  0  0  0  0  0  0  0
  139.0842   69.6161  222.3638 H   0  0  0  0  0  0  0  0  0  0  0  0
  138.8832   68.2244  224.4120 H   0  0  0  0  0  0  0  0  0  0  0  0
  139.2451   68.0296  226.7815 H   0  0  0  0  0  0  0  0  0  0  0  0
  140.9963   71.2590  228.9777 H   0  0  0  0  0  0  0  0  0  0  0  0
  141.1821   72.6286  226.9131 H   0  0  0  0  0  0  0  0  0  0  0  0
  1  2  2  0
  2  3  1  0
  3  4  1  0
  4  5  1  0
  5  6  2  0
  5  7  1  0
  7  8  1  0
  8  9  1  0
  9 10  1  0
  9 11  1  0
 11 12  1  0
 12 13  1  0
 13 14  1  0
 14 15  1  0
 15 16  1  0
 16 17  1  0
  2 18  1  0
 18 19  2  0
 19 20  1  0
 20 21  2  0
 21 22  1  0
 22 23  2  0
 23 24  1  0
 23 25  1  0
 25 26  2  0
 26 27  1  0
 27 28  2  0
 12  7  1  0
 17 13  1  0
 28 18  1  0
 27 21  1  0
  3 29  1  0
  4 30  1  0
  4 31  1  0
  8 32  1  0
  8 33  1  0
  9 34  1  6
 10 35  1  0
 11 36  1  0
 11 37  1  0
 12 38  1  6
 13 39  1  0
 14 40  1  0
 14 41  1  0
 15 42  1  0
 15 43  1  0
 16 44  1  0
 16 45  1  0
 17 46  1  0
 17 47  1  0
 19 48  1  0
 20 49  1  0
 22 50  1  0
 25 51  1  0
 26 52  1  0
M  END
>  <smiles>  (6) 
O=C(NCC(=O)N1C[C@H](O)C[C@H]1C1CCCC1)c1ccc2cc(F)ccc2n1

>  <score_type>  (6) 
oracle

>  <origin>  (6) 
autodockgpu

>  <m_score__min__energy>  (6) 
-8.7899999999999991

>  <m_primary>  (6) 
energy

>  <rmsd>  (6) 
2.201616412563532

>  <m_score__min__rmsd>  (6) 
2.201616412563532

>  <meeko>  (6) 
{"free_energy": -7.78, "intermolecular_energy": -9.57, "internal_energy": -2.01, "cluster_size": 8, "cluster_id": 2, "rank_in_cluster": 3}

>  <energy>  (6) 
-8.73

>  <cluster_rmsd>  (6) 
0.65

>  <cluster>  (6) 
1

$$$$

     RDKit          3D

 52 55  0  0  0  0  0  0  0  0999 V2000
  140.9470   71.4880  221.4010 O   0  0  0  0  0  0  0  0  0  0  0  0
  140.3130   71.9530  222.3980 C   0  0  0  0  0  0  0  0  0  0  0  0
  139.7480   73.2660  222.3670 N   0  0  0  0  0  0  0  0  0  0  0  0
  139.8770   74.1150  221.2020 C   0  0  0  0  0  0  0  0  0  0  0  0
  141.0650   75.0310  221.3580 C   0  0  0  0  0  0  0  0  0  0  0  0
  140.9240   75.9430  222.2140 O   0  0  0  0  0  0  0  0  0  0  0  0
  142.2480   74.8570  220.5840 N   0  0  0  0  0  0  0  0  0  0  0  0
  142.9170   73.5750  220.4670 C   0  0  0  0  0  0  0  0  0  0  0  0
  144.1260   73.9130  219.5890 C   0  0  2  0  0  0  0  0  0  0  0  0
  145.2080   74.2860  220.3920 O   0  0  0  0  0  0  0  0  0  0  0  0
  143.7030   75.1620  218.8300 C   0  0  0  0  0  0  0  0  0  0  0  0
  142.8980   75.8910  219.8570 C   0  0  1  0  0  0  0  0  0  0  0  0
  142.0580   76.9880  219.3190 C   0  0  0  0  0  0  0  0  0  0  0  0
  142.6430   77.7980  218.2220 C   0  0  0  0  0  0  0  0  0  0  0  0
  141.6220   78.9430  218.1380 C   0  0  0  0  0  0  0  0  0  0  0  0
  141.3530   79.2630  219.5960 C   0  0  0  0  0  0  0  0  0  0  0  0
  141.8480   78.0620  220.3950 C   0  0  0  0  0  0  0  0  0  0  0  0
  140.1560   71.1390  223.5940 C   0  0  0  0  0  0  0  0  0  0  0  0
  139.5370   69.9080  223.5190 C   0  0  0  0  0  0  0  0  0  0  0  0
  139.3590   69.0920  224.6180 C   0  0  0  0  0  0  0  0  0  0  0  0
  139.8370   69.5670  225.8280 C   0  0  0  0  0  0  0  0  0  0  0  0
  139.6870   68.7940  226.9590 C   0  0  0  0  0  0  0  0  0  0  0  0
  140.1550   69.2590  228.1470 C   0  0  0  0  0  0  0  0  0  0  0  0
  140.0150   68.5070  229.2780 F   0  0  0  0  0  0  0  0  0  0  0  0
  140.7770   70.4890  228.2410 C   0  0  0  0  0  0  0  0  0  0  0  0
  140.9410   71.2830  227.1290 C   0  0  0  0  0  0  0  0  0  0  0  0
  140.4630   70.8110  225.9060 C   0  0  0  0  0  0  0  0  0  0  0  0
  140.6050   71.5660  224.7810 N   0  0  0  0  0  0  0  0  0  0  0  0
  139.2370   73.5830  223.2310 H   0  0  0  0  0  0  0  0  0  0  0  0
  140.0154   73.4884  220.3086 H   0  0  0  0  0  0  0  0  0  0  0  0
  138.9657   74.7218  221.0957 H   0  0  0  0  0  0  0  0  0  0  0  0
  143.2328   73.1997  221.4516 H   0  0  0  0  0  0  0  0  0  0  0  0
  142.2784   72.7828  220.0491 H   0  0  0  0  0  0  0  0  0  0  0  0
  144.4136   73.0628  218.9530 H   0  0  0  0  0  0  0  0  0  0  0  0
  145.9650   74.6210  219.8540 H   0  0  0  0  0  0  0  0  0  0  0  0
  144.5756   75.7521  218.5132 H   0  0  0  0  0  0  0  0  0  0  0  0
  143.1521   74.9518  217.9014 H   0  0  0  0  0  0  0  0  0  0  0  0
  143.5138   76.4942  220.5403 H   0  0  0  0  0  0  0  0  0  0  0  0
  141.1693   76.4424  218.9688 H   0  0  0  0  0  0  0  0  0  0  0  0
  143.6461   78.1675  218.4815 H   0  0  0  0  0  0  0  0  0  0  0  0
  142.7934   77.2502  217.2800 H   0  0  0  0  0  0  0  0  0  0  0  0
  142.0445   79.8125  217.6132 H   0  0  0  0  0  0  0  0  0  0  0  0
  140.7144   78.6761  217.5767 H   0  0  0  0  0  0  0  0  0  0  0  0
  141.8990   80.1702  219.8940 H   0  0  0  0  0  0  0  0  0  0  0  0
  140.2836   79.4491  219.7742 H   0  0  0  0  0  0  0  0  0  0  0  0
  142.7915   78.2932  220.9111 H   0  0  0  0  0  0  0  0  0  0  0  0
  141.1482   77.7508  221.1846 H   0  0  0  0  0  0  0  0  0  0  0  0
  139.1697   69.5621  222.5415 H   0  0  0  0  0  0  0  0  0  0  0  0
  138.8625   68.1138  224.5369 H   0  0  0  0  0  0  0  0  0  0  0  0
  139.1943   67.8122  226.9008 H   0  0  0  0  0  0  0  0  0  0  0  0
  141.1457   70.8380  229.2168 H   0  0  0  0  0  0  0  0  0  0  0  0
  141.4354   72.2629  227.2023 H   0  0  0  0  0  0  0  0  0  0  0  0
  1  2  2  0
  2  3  1  0
  3  4  1  0
  4  5  1  0
  5  6  2  0
  5  7  1  0
  7  8  1  0
  8  9  1  0
  9 10  1  0
  9 11  1  0
 11 12  1  0
 12 13  1  0
 13 14  1  0
 14 15  1  0
 15 16  1  0
 16 17  1  0
  2 18  1  0
 18 19  2  0
 19 20  1  0
 20 21  2  0
 21 22  1  0
 22 23  2  0
 23 24  1  0
 23 25  1  0
 25 26  2  0
 26 27  1  0
 27 28  2  0
 12  7  1  0
 17 13  1  0
 28 18  1  0
 27 21  1  0
  3 29  1  0
  4 30  1  0
  4 31  1  0
  8 32  1  0
  8 33  1  0
  9 34  1  6
 10 35  1  0
 11 36  1  0
 11 37  1  0
 12 38  1  1
 13 39  1  0
 14 40  1  0
 14 41  1  0
 15 42  1  0
 15 43  1  0
 16 44  1  0
 16 45  1  0
 17 46  1  0
 17 47  1  0
 19 48  1  0
 20 49  1  0
 22 50  1  0
 25 51  1  0
 26 52  1  0
M  END
>  <smiles>  (7) 
O=C(NCC(=O)N1C[C@H](O)C[C@H]1C1CCCC1)c1ccc2cc(F)ccc2n1

>  <score_type>  (7) 
oracle

>  <origin>  (7) 
autodockgpu

>  <m_score__min__energy>  (7) 
-8.7899999999999991

>  <m_primary>  (7) 
energy

>  <rmsd>  (7) 
2.430317535298514

>  <m_score__min__rmsd>  (7) 
2.430317535298514

>  <meeko>  (7) 
{"free_energy": -7.95, "intermolecular_energy": -9.74, "internal_energy": -1.34, "cluster_size": 37, "cluster_id": 1, "rank_in_cluster": 33}

>  <energy>  (7) 
-8.71

>  <cluster_rmsd>  (7) 
0.56

>  <cluster>  (7) 
1

$$$$

     RDKit          3D

 52 55  0  0  0  0  0  0  0  0999 V2000
  140.4770   71.5300  221.0320 O   0  0  0  0  0  0  0  0  0  0  0  0
  140.1320   72.0910  222.1170 C   0  0  0  0  0  0  0  0  0  0  0  0
  139.8400   73.4900  222.1650 N   0  0  0  0  0  0  0  0  0  0  0  0
  139.9260   74.3190  220.9820 C   0  0  0  0  0  0  0  0  0  0  0  0
  140.7900   75.5250  221.2560 C   0  0  0  0  0  0  0  0  0  0  0  0
  140.6930   75.9920  222.4210 O   0  0  0  0  0  0  0  0  0  0  0  0
  141.6420   76.0750  220.2580 N   0  0  0  0  0  0  0  0  0  0  0  0
  141.5010   77.4390  219.7820 C   0  0  0  0  0  0  0  0  0  0  0  0
  142.5940   77.5300  218.7140 C   0  0  2  0  0  0  0  0  0  0  0  0
  142.0770   77.1550  217.4690 O   0  0  0  0  0  0  0  0  0  0  0  0
  143.5950   76.4540  219.1050 C   0  0  0  0  0  0  0  0  0  0  0  0
  142.7020   75.3730  219.6220 C   0  0  1  0  0  0  0  0  0  0  0  0
  143.3950   74.3190  220.4020 C   0  0  0  0  0  0  0  0  0  0  0  0
  144.8780   74.3780  220.4300 C   0  0  0  0  0  0  0  0  0  0  0  0
  145.2040   73.0240  221.0790 C   0  0  0  0  0  0  0  0  0  0  0  0
  144.2450   72.0760  220.3840 C   0  0  0  0  0  0  0  0  0  0  0  0
  143.1700   72.9500  219.7450 C   0  0  0  0  0  0  0  0  0  0  0  0
  140.0310   71.3010  223.3350 C   0  0  0  0  0  0  0  0  0  0  0  0
  139.4930   70.0300  223.2960 C   0  0  0  0  0  0  0  0  0  0  0  0
  139.3710   69.2350  224.4170 C   0  0  0  0  0  0  0  0  0  0  0  0
  139.8190   69.7730  225.6120 C   0  0  0  0  0  0  0  0  0  0  0  0
  139.7220   69.0230  226.7640 C   0  0  0  0  0  0  0  0  0  0  0  0
  140.1600   69.5500  227.9370 C   0  0  0  0  0  0  0  0  0  0  0  0
  140.0720   68.8210  229.0880 F   0  0  0  0  0  0  0  0  0  0  0  0
  140.7010   70.8190  227.9960 C   0  0  0  0  0  0  0  0  0  0  0  0
  140.8110   71.5920  226.8620 C   0  0  0  0  0  0  0  0  0  0  0  0
  140.3620   71.0570  225.6530 C   0  0  0  0  0  0  0  0  0  0  0  0
  140.4530   71.7890  224.5080 N   0  0  0  0  0  0  0  0  0  0  0  0
  139.5610   73.8840  223.1000 H   0  0  0  0  0  0  0  0  0  0  0  0
  140.3660   73.7354  220.1599 H   0  0  0  0  0  0  0  0  0  0  0  0
  138.9163   74.6551  220.7036 H   0  0  0  0  0  0  0  0  0  0  0  0
  140.5048   77.6076  219.3471 H   0  0  0  0  0  0  0  0  0  0  0  0
  141.5991   78.1937  220.5762 H   0  0  0  0  0  0  0  0  0  0  0  0
  143.0113   78.5458  218.6502 H   0  0  0  0  0  0  0  0  0  0  0  0
  142.6400   77.4780  216.7270 H   0  0  0  0  0  0  0  0  0  0  0  0
  144.1745   76.1119  218.2349 H   0  0  0  0  0  0  0  0  0  0  0  0
  144.3489   76.7920  219.8312 H   0  0  0  0  0  0  0  0  0  0  0  0
  142.2971   74.7305  218.8262 H   0  0  0  0  0  0  0  0  0  0  0  0
  142.9801   74.4713  221.4093 H   0  0  0  0  0  0  0  0  0  0  0  0
  145.2999   74.4541  219.4170 H   0  0  0  0  0  0  0  0  0  0  0  0
  145.2906   75.2495  220.9594 H   0  0  0  0  0  0  0  0  0  0  0  0
  146.2493   72.7369  220.8922 H   0  0  0  0  0  0  0  0  0  0  0  0
  145.0936   73.0288  222.1734 H   0  0  0  0  0  0  0  0  0  0  0  0
  144.7736   71.4967  219.6127 H   0  0  0  0  0  0  0  0  0  0  0  0
  143.8079   71.3573  221.0929 H   0  0  0  0  0  0  0  0  0  0  0  0
  143.3056   73.0085  218.6550 H   0  0  0  0  0  0  0  0  0  0  0  0
  142.1521   72.5612  219.8956 H   0  0  0  0  0  0  0  0  0  0  0  0
  139.1468   69.6343  222.3298 H   0  0  0  0  0  0  0  0  0  0  0  0
  138.9396   68.2245  224.3643 H   0  0  0  0  0  0  0  0  0  0  0  0
  139.2950   68.0097  226.7341 H   0  0  0  0  0  0  0  0  0  0  0  0
  141.0483   71.2172  228.9608 H   0  0  0  0  0  0  0  0  0  0  0  0
  141.2409   72.6035  226.9072 H   0  0  0  0  0  0  0  0  0  0  0  0
  1  2  2  0
  2  3  1  0
  3  4  1  0
  4  5  1  0
  5  6  2  0
  5  7  1  0
  7  8  1  0
  8  9  1  0
  9 10  1  0
  9 11  1  0
 11 12  1  0
 12 13  1  0
 13 14  1  0
 14 15  1  0
 15 16  1  0
 16 17  1  0
  2 18  1  0
 18 19  2  0
 19 20  1  0
 20 21  2  0
 21 22  1  0
 22 23  2  0
 23 24  1  0
 23 25  1  0
 25 26  2  0
 26 27  1  0
 27 28  2  0
 12  7  1  0
 17 13  1  0
 28 18  1  0
 27 21  1  0
  3 29  1  0
  4 30  1  0
  4 31  1  0
  8 32  1  0
  8 33  1  0
  9 34  1  6
 10 35  1  0
 11 36  1  0
 11 37  1  0
 12 38  1  6
 13 39  1  0
 14 40  1  0
 14 41  1  0
 15 42  1  0
 15 43  1  0
 16 44  1  0
 16 45  1  0
 17 46  1  0
 17 47  1  0
 19 48  1  0
 20 49  1  0
 22 50  1  0
 25 51  1  0
 26 52  1  0
M  END
>  <smiles>  (8) 
O=C(NCC(=O)N1C[C@H](O)C[C@H]1C1CCCC1)c1ccc2cc(F)ccc2n1

>  <score_type>  (8) 
oracle

>  <origin>  (8) 
autodockgpu

>  <m_score__min__energy>  (8) 
-8.7899999999999991

>  <m_primary>  (8) 
energy

>  <rmsd>  (8) 
2.2245932760260443

>  <m_score__min__rmsd>  (8) 
2.2245932760260443

>  <meeko>  (8) 
{"free_energy": -7.81, "intermolecular_energy": -9.6, "internal_energy": -1.97, "cluster_size": 8, "cluster_id": 2, "rank_in_cluster": 2}

>  <energy>  (8) 
-8.71

>  <cluster_rmsd>  (8) 
0.69

>  <cluster>  (8) 
1

$$$$

     RDKit          3D

 52 55  0  0  0  0  0  0  0  0999 V2000
  140.8940   71.7390  221.1850 O   0  0  0  0  0  0  0  0  0  0  0  0
  140.3770   72.2660  222.2170 C   0  0  0  0  0  0  0  0  0  0  0  0
  139.9790   73.6390  222.2260 N   0  0  0  0  0  0  0  0  0  0  0  0
  140.1500   74.4810  221.0610 C   0  0  0  0  0  0  0  0  0  0  0  0
  140.3890   75.9090  221.4840 C   0  0  0  0  0  0  0  0  0  0  0  0
  139.9730   76.1970  222.6370 O   0  0  0  0  0  0  0  0  0  0  0  0
  141.0390   76.8420  220.6280 N   0  0  0  0  0  0  0  0  0  0  0  0
  140.9690   76.7480  219.1820 C   0  0  0  0  0  0  0  0  0  0  0  0
  141.8410   77.9240  218.7320 C   0  0  2  0  0  0  0  0  0  0  0  0
  143.1680   77.5050  218.5890 O   0  0  0  0  0  0  0  0  0  0  0  0
  141.8190   78.8840  219.9130 C   0  0  0  0  0  0  0  0  0  0  0  0
  141.8180   77.9440  221.0750 C   0  0  1  0  0  0  0  0  0  0  0  0
  141.4510   78.5660  222.3700 C   0  0  0  0  0  0  0  0  0  0  0  0
  140.1870   79.3430  222.4020 C   0  0  0  0  0  0  0  0  0  0  0  0
  140.3020   80.0170  223.7780 C   0  0  0  0  0  0  0  0  0  0  0  0
  141.7550   80.4510  223.8220 C   0  0  0  0  0  0  0  0  0  0  0  0
  142.4710   79.6520  222.7370 C   0  0  0  0  0  0  0  0  0  0  0  0
  140.1830   71.4620  223.4150 C   0  0  0  0  0  0  0  0  0  0  0  0
  139.5270   70.2510  223.3390 C   0  0  0  0  0  0  0  0  0  0  0  0
  139.3140   69.4460  224.4400 C   0  0  0  0  0  0  0  0  0  0  0  0
  139.7950   69.9100  225.6520 C   0  0  0  0  0  0  0  0  0  0  0  0
  139.6100   69.1480  226.7850 C   0  0  0  0  0  0  0  0  0  0  0  0
  140.0820   69.6020  227.9750 C   0  0  0  0  0  0  0  0  0  0  0  0
  139.9080   68.8600  229.1070 F   0  0  0  0  0  0  0  0  0  0  0  0
  140.7410   70.8120  228.0700 C   0  0  0  0  0  0  0  0  0  0  0  0
  140.9400   71.5970  226.9570 C   0  0  0  0  0  0  0  0  0  0  0  0
  140.4580   71.1350  225.7300 C   0  0  0  0  0  0  0  0  0  0  0  0
  140.6350   71.8800  224.6040 N   0  0  0  0  0  0  0  0  0  0  0  0
  139.5580   74.0060  223.1170 H   0  0  0  0  0  0  0  0  0  0  0  0
  141.0123   74.1250  220.4782 H   0  0  0  0  0  0  0  0  0  0  0  0
  139.2386   74.4352  220.4468 H   0  0  0  0  0  0  0  0  0  0  0  0
  141.3773   75.7908  218.8254 H   0  0  0  0  0  0  0  0  0  0  0  0
  139.9424   76.7870  218.7888 H   0  0  0  0  0  0  0  0  0  0  0  0
  141.4835   78.3519  217.7838 H   0  0  0  0  0  0  0  0  0  0  0  0
  143.6990   77.6900  219.4000 H   0  0  0  0  0  0  0  0  0  0  0  0
  142.7101   79.5289  219.9209 H   0  0  0  0  0  0  0  0  0  0  0  0
  140.9673   79.5801  219.9039 H   0  0  0  0  0  0  0  0  0  0  0  0
  142.8248   77.5979  221.3518 H   0  0  0  0  0  0  0  0  0  0  0  0
  141.3857   77.6895  223.0314 H   0  0  0  0  0  0  0  0  0  0  0  0
  140.1459   80.0838  221.5899 H   0  0  0  0  0  0  0  0  0  0  0  0
  139.2771   78.7407  222.2631 H   0  0  0  0  0  0  0  0  0  0  0  0
  139.6278   80.8830  223.8521 H   0  0  0  0  0  0  0  0  0  0  0  0
  140.0206   79.3556  224.6107 H   0  0  0  0  0  0  0  0  0  0  0  0
  141.8373   81.5289  223.6188 H   0  0  0  0  0  0  0  0  0  0  0  0
  142.1980   80.2687  224.8122 H   0  0  0  0  0  0  0  0  0  0  0  0
  142.7021   80.2858  221.8682 H   0  0  0  0  0  0  0  0  0  0  0  0
  143.4363   79.2424  223.0692 H   0  0  0  0  0  0  0  0  0  0  0  0
  139.1580   69.9124  222.3596 H   0  0  0  0  0  0  0  0  0  0  0  0
  138.7880   68.4834  224.3581 H   0  0  0  0  0  0  0  0  0  0  0  0
  139.0859   68.1827  226.7265 H   0  0  0  0  0  0  0  0  0  0  0  0
  141.1117   71.1529  229.0480 H   0  0  0  0  0  0  0  0  0  0  0  0
  141.4640   72.5613  227.0317 H   0  0  0  0  0  0  0  0  0  0  0  0
  1  2  2  0
  2  3  1  0
  3  4  1  0
  4  5  1  0
  5  6  2  0
  5  7  1  0
  7  8  1  0
  8  9  1  0
  9 10  1  0
  9 11  1  0
 11 12  1  0
 12 13  1  0
 13 14  1  0
 14 15  1  0
 15 16  1  0
 16 17  1  0
  2 18  1  0
 18 19  2  0
 19 20  1  0
 20 21  2  0
 21 22  1  0
 22 23  2  0
 23 24  1  0
 23 25  1  0
 25 26  2  0
 26 27  1  0
 27 28  2  0
 12  7  1  0
 17 13  1  0
 28 18  1  0
 27 21  1  0
  3 29  1  0
  4 30  1  0
  4 31  1  0
  8 32  1  0
  8 33  1  0
  9 34  1  6
 10 35  1  0
 11 36  1  0
 11 37  1  0
 12 38  1  1
 13 39  1  0
 14 40  1  0
 14 41  1  0
 15 42  1  0
 15 43  1  0
 16 44  1  0
 16 45  1  0
 17 46  1  0
 17 47  1  0
 19 48  1  0
 20 49  1  0
 22 50  1  0
 25 51  1  0
 26 52  1  0
M  END
>  <smiles>  (9) 
O=C(NCC(=O)N1C[C@H](O)C[C@H]1C1CCCC1)c1ccc2cc(F)ccc2n1

>  <score_type>  (9) 
oracle

>  <origin>  (9) 
autodockgpu

>  <m_score__min__energy>  (9) 
-8.7899999999999991

>  <m_primary>  (9) 
energy

>  <rmsd>  (9) 
1.8456350285703784

>  <m_score__min__rmsd>  (9) 
1.8456350285703784

>  <meeko>  (9) 
{"free_energy": -8.77, "intermolecular_energy": -10.56, "internal_energy": -1.69, "cluster_size": 37, "cluster_id": 1, "rank_in_cluster": 3}

>  <energy>  (9) 
-8.7

>  <cluster_rmsd>  (9) 
0.66

>  <cluster>  (9) 
1

$$$$

     RDKit          3D

 52 55  0  0  0  0  0  0  0  0999 V2000
  140.9790   71.6600  221.2160 O   0  0  0  0  0  0  0  0  0  0  0  0
  140.4340   72.1990  222.2270 C   0  0  0  0  0  0  0  0  0  0  0  0
  140.0250   73.5690  222.2030 N   0  0  0  0  0  0  0  0  0  0  0  0
  140.2160   74.3930  221.0280 C   0  0  0  0  0  0  0  0  0  0  0  0
  140.3390   75.8420  221.4260 C   0  0  0  0  0  0  0  0  0  0  0  0
  139.8790   76.1200  222.5650 O   0  0  0  0  0  0  0  0  0  0  0  0
  140.9350   76.8050  220.5640 N   0  0  0  0  0  0  0  0  0  0  0  0
  140.7940   76.7470  219.1210 C   0  0  0  0  0  0  0  0  0  0  0  0
  141.6300   77.9440  218.6590 C   0  0  2  0  0  0  0  0  0  0  0  0
  142.9530   77.5460  218.4410 O   0  0  0  0  0  0  0  0  0  0  0  0
  141.6540   78.8740  219.8640 C   0  0  0  0  0  0  0  0  0  0  0  0
  141.7210   77.9060  221.0000 C   0  0  1  0  0  0  0  0  0  0  0  0
  141.4120   78.4890  222.3280 C   0  0  0  0  0  0  0  0  0  0  0  0
  140.1880   79.3250  222.4180 C   0  0  0  0  0  0  0  0  0  0  0  0
  140.3640   79.9350  223.8180 C   0  0  0  0  0  0  0  0  0  0  0  0
  141.8370   80.2960  223.8470 C   0  0  0  0  0  0  0  0  0  0  0  0
  142.4910   79.5090  222.7150 C   0  0  0  0  0  0  0  0  0  0  0  0
  140.2200   71.4140  223.4330 C   0  0  0  0  0  0  0  0  0  0  0  0
  139.5480   70.2100  223.3680 C   0  0  0  0  0  0  0  0  0  0  0  0
  139.3150   69.4230  224.4770 C   0  0  0  0  0  0  0  0  0  0  0  0
  139.7910   69.8970  225.6870 C   0  0  0  0  0  0  0  0  0  0  0  0
  139.5870   69.1520  226.8280 C   0  0  0  0  0  0  0  0  0  0  0  0
  140.0550   69.6160  228.0160 C   0  0  0  0  0  0  0  0  0  0  0  0
  139.8620   68.8910  229.1570 F   0  0  0  0  0  0  0  0  0  0  0  0
  140.7290   70.8180  228.1010 C   0  0  0  0  0  0  0  0  0  0  0  0
  140.9480   71.5850  226.9800 C   0  0  0  0  0  0  0  0  0  0  0  0
  140.4710   71.1140  225.7550 C   0  0  0  0  0  0  0  0  0  0  0  0
  140.6670   71.8420  224.6210 N   0  0  0  0  0  0  0  0  0  0  0  0
  139.5800   73.9470  223.0790 H   0  0  0  0  0  0  0  0  0  0  0  0
  141.1335   74.0791  220.5087 H   0  0  0  0  0  0  0  0  0  0  0  0
  139.3495   74.2751  220.3608 H   0  0  0  0  0  0  0  0  0  0  0  0
  141.1940   75.8041  218.7199 H   0  0  0  0  0  0  0  0  0  0  0  0
  139.7488   76.7840  218.7803 H   0  0  0  0  0  0  0  0  0  0  0  0
  141.2224   78.3904  217.7400 H   0  0  0  0  0  0  0  0  0  0  0  0
  143.0180   76.5780  218.2590 H   0  0  0  0  0  0  0  0  0  0  0  0
  142.5366   79.5303  219.8452 H   0  0  0  0  0  0  0  0  0  0  0  0
  140.7945   79.5586  219.9139 H   0  0  0  0  0  0  0  0  0  0  0  0
  142.7447   77.5677  221.2179 H   0  0  0  0  0  0  0  0  0  0  0  0
  141.3180   77.5904  222.9554 H   0  0  0  0  0  0  0  0  0  0  0  0
  140.1678   80.0999  221.6375 H   0  0  0  0  0  0  0  0  0  0  0  0
  139.2466   78.7744  222.2742 H   0  0  0  0  0  0  0  0  0  0  0  0
  139.7349   80.8287  223.9423 H   0  0  0  0  0  0  0  0  0  0  0  0
  140.0674   79.2539  224.6293 H   0  0  0  0  0  0  0  0  0  0  0  0
  141.9681   81.3762  223.6857 H   0  0  0  0  0  0  0  0  0  0  0  0
  142.2904   80.0516  224.8190 H   0  0  0  0  0  0  0  0  0  0  0  0
  142.7347   80.1662  221.8672 H   0  0  0  0  0  0  0  0  0  0  0  0
  143.4419   79.0405  223.0086 H   0  0  0  0  0  0  0  0  0  0  0  0
  139.1826   69.8632  222.3901 H   0  0  0  0  0  0  0  0  0  0  0  0
  138.7775   68.4661  224.4031 H   0  0  0  0  0  0  0  0  0  0  0  0
  139.0514   68.1925  226.7776 H   0  0  0  0  0  0  0  0  0  0  0  0
  141.0957   71.1669  229.0776 H   0  0  0  0  0  0  0  0  0  0  0  0
  141.4842   72.5431  227.0469 H   0  0  0  0  0  0  0  0  0  0  0  0
  1  2  2  0
  2  3  1  0
  3  4  1  0
  4  5  1  0
  5  6  2  0
  5  7  1  0
  7  8  1  0
  8  9  1  0
  9 10  1  0
  9 11  1  0
 11 12  1  0
 12 13  1  0
 13 14  1  0
 14 15  1  0
 15 16  1  0
 16 17  1  0
  2 18  1  0
 18 19  2  0
 19 20  1  0
 20 21  2  0
 21 22  1  0
 22 23  2  0
 23 24  1  0
 23 25  1  0
 25 26  2  0
 26 27  1  0
 27 28  2  0
 12  7  1  0
 17 13  1  0
 28 18  1  0
 27 21  1  0
  3 29  1  0
  4 30  1  0
  4 31  1  0
  8 32  1  0
  8 33  1  0
  9 34  1  6
 10 35  1  0
 11 36  1  0
 11 37  1  0
 12 38  1  1
 13 39  1  0
 14 40  1  0
 14 41  1  0
 15 42  1  0
 15 43  1  0
 16 44  1  0
 16 45  1  0
 17 46  1  0
 17 47  1  0
 19 48  1  0
 20 49  1  0
 22 50  1  0
 25 51  1  0
 26 52  1  0
M  END
>  <smiles>  (10) 
O=C(NCC(=O)N1C[C@H](O)C[C@H]1C1CCCC1)c1ccc2cc(F)ccc2n1

>  <score_type>  (10) 
oracle

>  <origin>  (10) 
autodockgpu

>  <m_score__min__energy>  (10) 
-8.7899999999999991

>  <m_primary>  (10) 
energy

>  <rmsd>  (10) 
1.8057727814834472

>  <m_score__min__rmsd>  (10) 
1.8057727814834472

>  <meeko>  (10) 
{"free_energy": -8.1, "intermolecular_energy": -9.89, "internal_energy": -1.74, "cluster_size": 37, "cluster_id": 1, "rank_in_cluster": 28}

>  <energy>  (10) 
-8.69

>  <cluster_rmsd>  (10) 
0.7

>  <cluster>  (10) 
1

$$$$

     RDKit          3D

 52 55  0  0  0  0  0  0  0  0999 V2000
  141.0790   72.0190  221.3790 O   0  0  0  0  0  0  0  0  0  0  0  0
  140.2510   72.3220  222.2920 C   0  0  0  0  0  0  0  0  0  0  0  0
  139.4250   73.4840  222.1840 N   0  0  0  0  0  0  0  0  0  0  0  0
  139.4990   74.3580  221.0330 C   0  0  0  0  0  0  0  0  0  0  0  0
  140.8790   74.9570  220.9270 C   0  0  0  0  0  0  0  0  0  0  0  0
  141.4380   75.2020  222.0280 O   0  0  0  0  0  0  0  0  0  0  0  0
  141.4840   75.2180  219.6650 N   0  0  0  0  0  0  0  0  0  0  0  0
  141.0940   76.3420  218.8340 C   0  0  0  0  0  0  0  0  0  0  0  0
  141.9830   76.1640  217.6000 C   0  0  2  0  0  0  0  0  0  0  0  0
  141.3270   75.3720  216.6510 O   0  0  0  0  0  0  0  0  0  0  0  0
  143.1640   75.3450  218.1000 C   0  0  0  0  0  0  0  0  0  0  0  0
  142.5110   74.4270  219.0810 C   0  0  1  0  0  0  0  0  0  0  0  0
  143.4480   73.7320  219.9950 C   0  0  0  0  0  0  0  0  0  0  0  0
  144.6000   74.5240  220.4950 C   0  0  0  0  0  0  0  0  0  0  0  0
  145.4380   73.4190  221.1580 C   0  0  0  0  0  0  0  0  0  0  0  0
  145.3530   72.2830  220.1560 C   0  0  0  0  0  0  0  0  0  0  0  0
  144.1720   72.6050  219.2450 C   0  0  0  0  0  0  0  0  0  0  0  0
  140.1380   71.4750  223.4700 C   0  0  0  0  0  0  0  0  0  0  0  0
  139.5390   70.2350  223.3790 C   0  0  0  0  0  0  0  0  0  0  0  0
  139.4030   69.3900  224.4610 C   0  0  0  0  0  0  0  0  0  0  0  0
  139.9020   69.8420  225.6710 C   0  0  0  0  0  0  0  0  0  0  0  0
  139.7940   69.0390  226.7850 C   0  0  0  0  0  0  0  0  0  0  0  0
  140.2830   69.4820  227.9720 C   0  0  0  0  0  0  0  0  0  0  0  0
  140.1850   68.7000  229.0870 F   0  0  0  0  0  0  0  0  0  0  0  0
  140.8850   70.7200  228.0830 C   0  0  0  0  0  0  0  0  0  0  0  0
  141.0080   71.5450  226.9880 C   0  0  0  0  0  0  0  0  0  0  0  0
  140.5080   71.0960  225.7640 C   0  0  0  0  0  0  0  0  0  0  0  0
  140.6090   71.8810  224.6560 N   0  0  0  0  0  0  0  0  0  0  0  0
  138.7630   73.6710  222.9810 H   0  0  0  0  0  0  0  0  0  0  0  0
  139.2819   73.7802  220.1225 H   0  0  0  0  0  0  0  0  0  0  0  0
  138.7623   75.1670  221.1464 H   0  0  0  0  0  0  0  0  0  0  0  0
  140.0281   76.2887  218.5674 H   0  0  0  0  0  0  0  0  0  0  0  0
  141.2182   77.3171  219.3277 H   0  0  0  0  0  0  0  0  0  0  0  0
  142.2509   77.1326  217.1527 H   0  0  0  0  0  0  0  0  0  0  0  0
  140.6050   74.8370  217.0590 H   0  0  0  0  0  0  0  0  0  0  0  0
  143.6368   74.7837  217.2806 H   0  0  0  0  0  0  0  0  0  0  0  0
  143.9741   75.9516  218.5310 H   0  0  0  0  0  0  0  0  0  0  0  0
  142.0704   73.5358  218.6102 H   0  0  0  0  0  0  0  0  0  0  0  0
  142.7847   73.4428  220.8235 H   0  0  0  0  0  0  0  0  0  0  0  0
  145.1463   75.0088  219.6725 H   0  0  0  0  0  0  0  0  0  0  0  0
  144.3280   75.3543  221.1633 H   0  0  0  0  0  0  0  0  0  0  0  0
  146.4792   73.7437  221.3010 H   0  0  0  0  0  0  0  0  0  0  0  0
  145.0782   73.1426  222.1601 H   0  0  0  0  0  0  0  0  0  0  0  0
  146.2814   72.2220  219.5693 H   0  0  0  0  0  0  0  0  0  0  0  0
  145.2179   71.3143  220.6594 H   0  0  0  0  0  0  0  0  0  0  0  0
  144.5169   72.9462  218.2577 H   0  0  0  0  0  0  0  0  0  0  0  0
  143.5287   71.7346  219.0486 H   0  0  0  0  0  0  0  0  0  0  0  0
  139.1537   69.9065  222.4024 H   0  0  0  0  0  0  0  0  0  0  0  0
  138.9217   68.4053  224.3671 H   0  0  0  0  0  0  0  0  0  0  0  0
  139.3172   68.0503  226.7140 H   0  0  0  0  0  0  0  0  0  0  0  0
  141.2709   71.0509  229.0585 H   0  0  0  0  0  0  0  0  0  0  0  0
  141.4872   72.5313  227.0749 H   0  0  0  0  0  0  0  0  0  0  0  0
  1  2  2  0
  2  3  1  0
  3  4  1  0
  4  5  1  0
  5  6  2  0
  5  7  1  0
  7  8  1  0
  8  9  1  0
  9 10  1  0
  9 11  1  0
 11 12  1  0
 12 13  1  0
 13 14  1  0
 14 15  1  0
 15 16  1  0
 16 17  1  0
  2 18  1  0
 18 19  2  0
 19 20  1  0
 20 21  2  0
 21 22  1  0
 22 23  2  0
 23 24  1  0
 23 25  1  0
 25 26  2  0
 26 27  1  0
 27 28  2  0
 12  7  1  0
 17 13  1  0
 28 18  1  0
 27 21  1  0
  3 29  1  0
  4 30  1  0
  4 31  1  0
  8 32  1  0
  8 33  1  0
  9 34  1  6
 10 35  1  0
 11 36  1  0
 11 37  1  0
 12 38  1  6
 13 39  1  0
 14 40  1  0
 14 41  1  0
 15 42  1  0
 15 43  1  0
 16 44  1  0
 16 45  1  0
 17 46  1  0
 17 47  1  0
 19 48  1  0
 20 49  1  0
 22 50  1  0
 25 51  1  0
 26 52  1  0
M  END
>  <smiles>  (11) 
O=C(NCC(=O)N1C[C@H](O)C[C@H]1C1CCCC1)c1ccc2cc(F)ccc2n1

>  <score_type>  (11) 
oracle

>  <origin>  (11) 
autodockgpu

>  <m_score__min__energy>  (11) 
-8.7899999999999991

>  <m_primary>  (11) 
energy

>  <rmsd>  (11) 
2.0092450846962517

>  <m_score__min__rmsd>  (11) 
2.0092450846962517

>  <meeko>  (11) 
{"free_energy": -7.4, "intermolecular_energy": -9.19, "internal_energy": -1.63, "cluster_size": 8, "cluster_id": 2, "rank_in_cluster": 6}

>  <energy>  (11) 
-8.69

>  <cluster_rmsd>  (11) 
0.64

>  <cluster>  (11) 
1

$$$$

     RDKit          3D

 52 55  0  0  0  0  0  0  0  0999 V2000
  141.1740   72.1810  221.5220 O   0  0  0  0  0  0  0  0  0  0  0  0
  140.2900   72.3940  222.4080 C   0  0  0  0  0  0  0  0  0  0  0  0
  139.3770   73.4870  222.2930 N   0  0  0  0  0  0  0  0  0  0  0  0
  139.4230   74.3930  221.1650 C   0  0  0  0  0  0  0  0  0  0  0  0
  140.1990   75.6340  221.5290 C   0  0  0  0  0  0  0  0  0  0  0  0
  139.9620   76.0890  222.6790 O   0  0  0  0  0  0  0  0  0  0  0  0
  141.1250   76.2280  220.6250 N   0  0  0  0  0  0  0  0  0  0  0  0
  141.4780   75.6110  219.3600 C   0  0  0  0  0  0  0  0  0  0  0  0
  142.5100   76.5900  218.7930 C   0  0  2  0  0  0  0  0  0  0  0  0
  143.7940   76.2230  219.2100 O   0  0  0  0  0  0  0  0  0  0  0  0
  142.1960   77.9100  219.4810 C   0  0  0  0  0  0  0  0  0  0  0  0
  141.7980   77.4590  220.8490 C   0  0  1  0  0  0  0  0  0  0  0  0
  141.1020   78.4870  221.6600 C   0  0  0  0  0  0  0  0  0  0  0  0
  141.3860   79.9040  221.3240 C   0  0  0  0  0  0  0  0  0  0  0  0
  140.7180   80.6170  222.5110 C   0  0  0  0  0  0  0  0  0  0  0  0
  141.1270   79.7580  223.6940 C   0  0  0  0  0  0  0  0  0  0  0  0
  141.5930   78.4270  223.1130 C   0  0  0  0  0  0  0  0  0  0  0  0
  140.2020   71.5110  223.5620 C   0  0  0  0  0  0  0  0  0  0  0  0
  139.6240   70.2640  223.4390 C   0  0  0  0  0  0  0  0  0  0  0  0
  139.5120   69.3850  224.4970 C   0  0  0  0  0  0  0  0  0  0  0  0
  140.0140   69.8110  225.7150 C   0  0  0  0  0  0  0  0  0  0  0  0
  139.9290   68.9740  226.8070 C   0  0  0  0  0  0  0  0  0  0  0  0
  140.4210   69.3920  228.0020 C   0  0  0  0  0  0  0  0  0  0  0  0
  140.3460   68.5760  229.0950 F   0  0  0  0  0  0  0  0  0  0  0  0
  141.0020   70.6360  228.1440 C   0  0  0  0  0  0  0  0  0  0  0  0
  141.1010   71.4950  227.0730 C   0  0  0  0  0  0  0  0  0  0  0  0
  140.5980   71.0720  225.8410 C   0  0  0  0  0  0  0  0  0  0  0  0
  140.6770   71.8910  224.7550 N   0  0  0  0  0  0  0  0  0  0  0  0
  138.6720   73.6000  223.0660 H   0  0  0  0  0  0  0  0  0  0  0  0
  139.9131   73.8931  220.3165 H   0  0  0  0  0  0  0  0  0  0  0  0
  138.3968   74.6776  220.8895 H   0  0  0  0  0  0  0  0  0  0  0  0
  141.9171   74.6140  219.5124 H   0  0  0  0  0  0  0  0  0  0  0  0
  140.6167   75.4468  218.6957 H   0  0  0  0  0  0  0  0  0  0  0  0
  142.4733   76.6233  217.6941 H   0  0  0  0  0  0  0  0  0  0  0  0
  144.4360   76.2230  218.4600 H   0  0  0  0  0  0  0  0  0  0  0  0
  143.0807   78.5627  219.5167 H   0  0  0  0  0  0  0  0  0  0  0  0
  141.4263   78.5057  218.9685 H   0  0  0  0  0  0  0  0  0  0  0  0
  142.6568   77.2958  221.5167 H   0  0  0  0  0  0  0  0  0  0  0  0
  140.0449   78.2469  221.4732 H   0  0  0  0  0  0  0  0  0  0  0  0
  142.4672   80.1032  221.2877 H   0  0  0  0  0  0  0  0  0  0  0  0
  141.0207   80.2213  220.3361 H   0  0  0  0  0  0  0  0  0  0  0  0
  141.0949   81.6448  222.6187 H   0  0  0  0  0  0  0  0  0  0  0  0
  139.6280   80.7162  222.4015 H   0  0  0  0  0  0  0  0  0  0  0  0
  141.9456   80.2390  224.2495 H   0  0  0  0  0  0  0  0  0  0  0  0
  140.2914   79.6183  224.3956 H   0  0  0  0  0  0  0  0  0  0  0  0
  142.6887   78.3400  223.1558 H   0  0  0  0  0  0  0  0  0  0  0  0
  141.2057   77.5570  223.6635 H   0  0  0  0  0  0  0  0  0  0  0  0
  139.2362   69.9577  222.4563 H   0  0  0  0  0  0  0  0  0  0  0  0
  139.0470   68.3952  224.3785 H   0  0  0  0  0  0  0  0  0  0  0  0
  139.4683   67.9797  226.7118 H   0  0  0  0  0  0  0  0  0  0  0  0
  141.3908   70.9449  229.1255 H   0  0  0  0  0  0  0  0  0  0  0  0
  141.5634   72.4869  227.1845 H   0  0  0  0  0  0  0  0  0  0  0  0
  1  2  2  0
  2  3  1  0
  3  4  1  0
  4  5  1  0
  5  6  2  0
  5  7  1  0
  7  8  1  0
  8  9  1  0
  9 10  1  0
  9 11  1  0
 11 12  1  0
 12 13  1  0
 13 14  1  0
 14 15  1  0
 15 16  1  0
 16 17  1  0
  2 18  1  0
 18 19  2  0
 19 20  1  0
 20 21  2  0
 21 22  1  0
 22 23  2  0
 23 24  1  0
 23 25  1  0
 25 26  2  0
 26 27  1  0
 27 28  2  0
 12  7  1  0
 17 13  1  0
 28 18  1  0
 27 21  1  0
  3 29  1  0
  4 30  1  0
  4 31  1  0
  8 32  1  0
  8 33  1  0
  9 34  1  6
 10 35  1  0
 11 36  1  0
 11 37  1  0
 12 38  1  1
 13 39  1  0
 14 40  1  0
 14 41  1  0
 15 42  1  0
 15 43  1  0
 16 44  1  0
 16 45  1  0
 17 46  1  0
 17 47  1  0
 19 48  1  0
 20 49  1  0
 22 50  1  0
 25 51  1  0
 26 52  1  0
M  END
>  <smiles>  (12) 
O=C(NCC(=O)N1C[C@H](O)C[C@H]1C1CCCC1)c1ccc2cc(F)ccc2n1

>  <score_type>  (12) 
oracle

>  <origin>  (12) 
autodockgpu

>  <m_score__min__energy>  (12) 
-8.7899999999999991

>  <m_primary>  (12) 
energy

>  <rmsd>  (12) 
1.604982131417762

>  <m_score__min__rmsd>  (12) 
1.604982131417762

>  <meeko>  (12) 
{"free_energy": -8.57, "intermolecular_energy": -10.36, "internal_energy": -1.24, "cluster_size": 37, "cluster_id": 1, "rank_in_cluster": 17}

>  <energy>  (12) 
-8.69

>  <cluster_rmsd>  (12) 
0.65

>  <cluster>  (12) 
1

$$$$

     RDKit          3D

 52 55  0  0  0  0  0  0  0  0999 V2000
  141.2380   72.0610  221.3520 O   0  0  0  0  0  0  0  0  0  0  0  0
  140.3700   72.3620  222.2280 C   0  0  0  0  0  0  0  0  0  0  0  0
  139.5340   73.5110  222.0740 N   0  0  0  0  0  0  0  0  0  0  0  0
  139.6420   74.3740  220.9170 C   0  0  0  0  0  0  0  0  0  0  0  0
  140.9840   75.0610  220.9080 C   0  0  0  0  0  0  0  0  0  0  0  0
  141.4680   75.2960  222.0460 O   0  0  0  0  0  0  0  0  0  0  0  0
  141.6370   75.4080  219.6910 N   0  0  0  0  0  0  0  0  0  0  0  0
  141.2750   76.5860  218.9250 C   0  0  0  0  0  0  0  0  0  0  0  0
  142.2120   76.4930  217.7160 C   0  0  2  0  0  0  0  0  0  0  0  0
  141.5970   75.7670  216.6910 O   0  0  0  0  0  0  0  0  0  0  0  0
  143.3760   75.6450  218.2060 C   0  0  0  0  0  0  0  0  0  0  0  0
  142.6890   74.6600  219.0950 C   0  0  1  0  0  0  0  0  0  0  0  0
  143.5930   73.9060  219.9970 C   0  0  0  0  0  0  0  0  0  0  0  0
  144.8070   74.6180  220.4690 C   0  0  0  0  0  0  0  0  0  0  0  0
  145.5790   73.4600  221.1230 C   0  0  0  0  0  0  0  0  0  0  0  0
  145.3950   72.3280  220.1300 C   0  0  0  0  0  0  0  0  0  0  0  0
  144.2220   72.7270  219.2400 C   0  0  0  0  0  0  0  0  0  0  0  0
  140.2220   71.5270  223.4110 C   0  0  0  0  0  0  0  0  0  0  0  0
  139.5900   70.3030  223.3220 C   0  0  0  0  0  0  0  0  0  0  0  0
  139.4200   69.4690  224.4070 C   0  0  0  0  0  0  0  0  0  0  0  0
  139.9180   69.9160  225.6190 C   0  0  0  0  0  0  0  0  0  0  0  0
  139.7770   69.1240  226.7380 C   0  0  0  0  0  0  0  0  0  0  0  0
  140.2650   69.5620  227.9270 C   0  0  0  0  0  0  0  0  0  0  0  0
  140.1340   68.7910  229.0460 F   0  0  0  0  0  0  0  0  0  0  0  0
  140.9000   70.7840  228.0360 C   0  0  0  0  0  0  0  0  0  0  0  0
  141.0570   71.5980  226.9370 C   0  0  0  0  0  0  0  0  0  0  0  0
  140.5570   71.1530  225.7110 C   0  0  0  0  0  0  0  0  0  0  0  0
  140.6920   71.9280  224.5990 N   0  0  0  0  0  0  0  0  0  0  0  0
  138.8380   73.6970  222.8420 H   0  0  0  0  0  0  0  0  0  0  0  0
  139.5351   73.7720  220.0026 H   0  0  0  0  0  0  0  0  0  0  0  0
  138.8481   75.1342  220.9589 H   0  0  0  0  0  0  0  0  0  0  0  0
  140.2203   76.5503  218.6147 H   0  0  0  0  0  0  0  0  0  0  0  0
  141.3766   77.5251  219.4886 H   0  0  0  0  0  0  0  0  0  0  0  0
  142.4927   77.4898  217.3450 H   0  0  0  0  0  0  0  0  0  0  0  0
  142.2040   75.6310  215.9250 H   0  0  0  0  0  0  0  0  0  0  0  0
  143.8843   75.1424  217.3699 H   0  0  0  0  0  0  0  0  0  0  0  0
  144.1649   76.2228  218.7098 H   0  0  0  0  0  0  0  0  0  0  0  0
  142.2716   73.8023  218.5471 H   0  0  0  0  0  0  0  0  0  0  0  0
  142.9278   73.6687  220.8403 H   0  0  0  0  0  0  0  0  0  0  0  0
  145.3693   75.0591  219.6328 H   0  0  0  0  0  0  0  0  0  0  0  0
  144.6071   75.4689  221.1369 H   0  0  0  0  0  0  0  0  0  0  0  0
  146.6430   73.7117  221.2438 H   0  0  0  0  0  0  0  0  0  0  0  0
  145.2207   73.2145  222.1336 H   0  0  0  0  0  0  0  0  0  0  0  0
  146.3052   72.1994  219.5259 H   0  0  0  0  0  0  0  0  0  0  0  0
  145.2024   71.3737  220.6421 H   0  0  0  0  0  0  0  0  0  0  0  0
  144.5704   73.0383  218.2442 H   0  0  0  0  0  0  0  0  0  0  0  0
  143.5158   71.9027  219.0614 H   0  0  0  0  0  0  0  0  0  0  0  0
  139.2055   69.9790  222.3437 H   0  0  0  0  0  0  0  0  0  0  0  0
  138.9138   68.4968  224.3141 H   0  0  0  0  0  0  0  0  0  0  0  0
  139.2747   68.1478  226.6687 H   0  0  0  0  0  0  0  0  0  0  0  0
  141.2850   71.1107  229.0133 H   0  0  0  0  0  0  0  0  0  0  0  0
  141.5620   72.5715  227.0219 H   0  0  0  0  0  0  0  0  0  0  0  0
  1  2  2  0
  2  3  1  0
  3  4  1  0
  4  5  1  0
  5  6  2  0
  5  7  1  0
  7  8  1  0
  8  9  1  0
  9 10  1  0
  9 11  1  0
 11 12  1  0
 12 13  1  0
 13 14  1  0
 14 15  1  0
 15 16  1  0
 16 17  1  0
  2 18  1  0
 18 19  2  0
 19 20  1  0
 20 21  2  0
 21 22  1  0
 22 23  2  0
 23 24  1  0
 23 25  1  0
 25 26  2  0
 26 27  1  0
 27 28  2  0
 12  7  1  0
 17 13  1  0
 28 18  1  0
 27 21  1  0
  3 29  1  0
  4 30  1  0
  4 31  1  0
  8 32  1  0
  8 33  1  0
  9 34  1  6
 10 35  1  0
 11 36  1  0
 11 37  1  0
 12 38  1  6
 13 39  1  0
 14 40  1  0
 14 41  1  0
 15 42  1  0
 15 43  1  0
 16 44  1  0
 16 45  1  0
 17 46  1  0
 17 47  1  0
 19 48  1  0
 20 49  1  0
 22 50  1  0
 25 51  1  0
 26 52  1  0
M  END
>  <smiles>  (13) 
O=C(NCC(=O)N1C[C@H](O)C[C@H]1C1CCCC1)c1ccc2cc(F)ccc2n1

>  <score_type>  (13) 
oracle

>  <origin>  (13) 
autodockgpu

>  <m_score__min__energy>  (13) 
-8.7899999999999991

>  <m_primary>  (13) 
energy

>  <rmsd>  (13) 
2.090105179790735

>  <m_score__min__rmsd>  (13) 
2.090105179790735

>  <meeko>  (13) 
{"free_energy": -7.54, "intermolecular_energy": -9.33, "internal_energy": -1.6, "cluster_size": 8, "cluster_id": 2, "rank_in_cluster": 5}

>  <energy>  (13) 
-8.63

>  <cluster_rmsd>  (13) 
0.66

>  <cluster>  (13) 
1

$$$$

     RDKit          3D

 52 55  0  0  0  0  0  0  0  0999 V2000
  141.0220   73.0250  222.3120 O   0  0  0  0  0  0  0  0  0  0  0  0
  139.9440   72.5960  222.8260 C   0  0  0  0  0  0  0  0  0  0  0  0
  138.6720   73.0790  222.3870 N   0  0  0  0  0  0  0  0  0  0  0  0
  138.5640   74.0750  221.3430 C   0  0  0  0  0  0  0  0  0  0  0  0
  139.2110   75.3630  221.7860 C   0  0  0  0  0  0  0  0  0  0  0  0
  138.6630   75.9200  222.7730 O   0  0  0  0  0  0  0  0  0  0  0  0
  140.3560   75.8890  221.1230 N   0  0  0  0  0  0  0  0  0  0  0  0
  140.8320   75.3600  219.8580 C   0  0  0  0  0  0  0  0  0  0  0  0
  142.0780   76.2110  219.5920 C   0  0  2  0  0  0  0  0  0  0  0  0
  143.2030   75.5970  220.1520 O   0  0  0  0  0  0  0  0  0  0  0  0
  141.8410   77.4840  220.3910 C   0  0  0  0  0  0  0  0  0  0  0  0
  141.1510   76.9630  221.6090 C   0  0  1  0  0  0  0  0  0  0  0  0
  140.4790   77.9990  222.4290 C   0  0  0  0  0  0  0  0  0  0  0  0
  139.9700   79.1930  221.7080 C   0  0  0  0  0  0  0  0  0  0  0  0
  139.6080   80.1060  222.8910 C   0  0  0  0  0  0  0  0  0  0  0  0
  140.7820   79.9200  223.8330 C   0  0  0  0  0  0  0  0  0  0  0  0
  141.4910   78.6450  223.3860 C   0  0  0  0  0  0  0  0  0  0  0  0
  140.0000   71.5940  223.8800 C   0  0  0  0  0  0  0  0  0  0  0  0
  139.5460   70.3120  223.6450 C   0  0  0  0  0  0  0  0  0  0  0  0
  139.5730   69.3210  224.6050 C   0  0  0  0  0  0  0  0  0  0  0  0
  140.0840   69.6690  225.8430 C   0  0  0  0  0  0  0  0  0  0  0  0
  140.1360   68.7200  226.8400 C   0  0  0  0  0  0  0  0  0  0  0  0
  140.6370   69.0600  228.0560 C   0  0  0  0  0  0  0  0  0  0  0  0
  140.6960   68.1320  229.0560 F   0  0  0  0  0  0  0  0  0  0  0  0
  141.0960   70.3380  228.3100 C   0  0  0  0  0  0  0  0  0  0  0  0
  141.0570   71.3090  227.3350 C   0  0  0  0  0  0  0  0  0  0  0  0
  140.5430   70.9650  226.0830 C   0  0  0  0  0  0  0  0  0  0  0  0
  140.4880   71.8960  225.0900 N   0  0  0  0  0  0  0  0  0  0  0  0
  137.8230   72.6770  222.8610 H   0  0  0  0  0  0  0  0  0  0  0  0
  139.0676   73.7079  220.4366 H   0  0  0  0  0  0  0  0  0  0  0  0
  137.5006   74.2607  221.1315 H   0  0  0  0  0  0  0  0  0  0  0  0
  141.0894   74.2940  219.9443 H   0  0  0  0  0  0  0  0  0  0  0  0
  140.0852   75.4111  219.0519 H   0  0  0  0  0  0  0  0  0  0  0  0
  142.2393   76.3656  218.5149 H   0  0  0  0  0  0  0  0  0  0  0  0
  143.1580   75.5820  221.1380 H   0  0  0  0  0  0  0  0  0  0  0  0
  142.7902   77.9762  220.6493 H   0  0  0  0  0  0  0  0  0  0  0  0
  141.2650   78.2476  219.8477 H   0  0  0  0  0  0  0  0  0  0  0  0
  141.8487   76.5925  222.3745 H   0  0  0  0  0  0  0  0  0  0  0  0
  139.6495   77.4321  222.8768 H   0  0  0  0  0  0  0  0  0  0  0  0
  140.7455   79.6431  221.0709 H   0  0  0  0  0  0  0  0  0  0  0  0
  139.1389   78.9896  221.0167 H   0  0  0  0  0  0  0  0  0  0  0  0
  139.5205   81.1544  222.5697 H   0  0  0  0  0  0  0  0  0  0  0  0
  138.6391   79.8595  223.3498 H   0  0  0  0  0  0  0  0  0  0  0  0
  141.4650   80.7796  223.7649 H   0  0  0  0  0  0  0  0  0  0  0  0
  140.4483   79.8466  224.8786 H   0  0  0  0  0  0  0  0  0  0  0  0
  142.4321   78.8782  222.8664 H   0  0  0  0  0  0  0  0  0  0  0  0
  141.7712   77.9902  224.2243 H   0  0  0  0  0  0  0  0  0  0  0  0
  139.1454   70.0697  222.6496 H   0  0  0  0  0  0  0  0  0  0  0  0
  139.2065   68.3050  224.3965 H   0  0  0  0  0  0  0  0  0  0  0  0
  139.7756   67.6976  226.6535 H   0  0  0  0  0  0  0  0  0  0  0  0
  141.4978   70.5829  229.3043 H   0  0  0  0  0  0  0  0  0  0  0  0
  141.4206   72.3274  227.5365 H   0  0  0  0  0  0  0  0  0  0  0  0
  1  2  2  0
  2  3  1  0
  3  4  1  0
  4  5  1  0
  5  6  2  0
  5  7  1  0
  7  8  1  0
  8  9  1  0
  9 10  1  0
  9 11  1  0
 11 12  1  0
 12 13  1  0
 13 14  1  0
 14 15  1  0
 15 16  1  0
 16 17  1  0
  2 18  1  0
 18 19  2  0
 19 20  1  0
 20 21  2  0
 21 22  1  0
 22 23  2  0
 23 24  1  0
 23 25  1  0
 25 26  2  0
 26 27  1  0
 27 28  2  0
 12  7  1  0
 17 13  1  0
 28 18  1  0
 27 21  1  0
  3 29  1  0
  4 30  1  0
  4 31  1  0
  8 32  1  0
  8 33  1  0
  9 34  1  6
 10 35  1  0
 11 36  1  0
 11 37  1  0
 12 38  1  1
 13 39  1  0
 14 40  1  0
 14 41  1  0
 15 42  1  0
 15 43  1  0
 16 44  1  0
 16 45  1  0
 17 46  1  0
 17 47  1  0
 19 48  1  0
 20 49  1  0
 22 50  1  0
 25 51  1  0
 26 52  1  0
M  END
>  <smiles>  (14) 
O=C(NCC(=O)N1C[C@H](O)C[C@H]1C1CCCC1)c1ccc2cc(F)ccc2n1

>  <score_type>  (14) 
oracle

>  <origin>  (14) 
autodockgpu

>  <m_score__min__energy>  (14) 
-8.7899999999999991

>  <m_primary>  (14) 
energy

>  <rmsd>  (14) 
1.6438389553212274

>  <m_score__min__rmsd>  (14) 
1.6438389553212274

>  <meeko>  (14) 
{"free_energy": -8.26, "intermolecular_energy": -10.05, "internal_energy": -1.33, "cluster_size": 37, "cluster_id": 1, "rank_in_cluster": 25}

>  <energy>  (14) 
-8.62

>  <cluster_rmsd>  (14) 
0.67

>  <cluster>  (14) 
1

$$$$

     RDKit          3D

 52 55  0  0  0  0  0  0  0  0999 V2000
  140.3990   71.7210  221.0730 O   0  0  0  0  0  0  0  0  0  0  0  0
  140.0870   72.2560  222.1810 C   0  0  0  0  0  0  0  0  0  0  0  0
  139.8230   73.6580  222.2760 N   0  0  0  0  0  0  0  0  0  0  0  0
  139.9010   74.5200  221.1150 C   0  0  0  0  0  0  0  0  0  0  0  0
  140.2680   75.9210  221.5360 C   0  0  0  0  0  0  0  0  0  0  0  0
  139.9100   76.2370  222.7000 O   0  0  0  0  0  0  0  0  0  0  0  0
  140.9690   76.8020  220.6640 N   0  0  0  0  0  0  0  0  0  0  0  0
  140.9330   76.6560  219.2200 C   0  0  0  0  0  0  0  0  0  0  0  0
  141.8530   77.7880  218.7520 C   0  0  2  0  0  0  0  0  0  0  0  0
  143.1690   77.3240  218.6600 O   0  0  0  0  0  0  0  0  0  0  0  0
  141.8290   78.7910  219.8960 C   0  0  0  0  0  0  0  0  0  0  0  0
  141.7690   77.8960  221.0910 C   0  0  1  0  0  0  0  0  0  0  0  0
  141.3880   78.5760  222.3520 C   0  0  0  0  0  0  0  0  0  0  0  0
  140.2520   79.5290  222.2790 C   0  0  0  0  0  0  0  0  0  0  0  0
  140.3470   80.1920  223.6620 C   0  0  0  0  0  0  0  0  0  0  0  0
  141.8380   80.4110  223.8300 C   0  0  0  0  0  0  0  0  0  0  0  0
  142.5200   79.5070  222.8070 C   0  0  0  0  0  0  0  0  0  0  0  0
  139.9950   71.4320  223.3770 C   0  0  0  0  0  0  0  0  0  0  0  0
  139.4450   70.1680  223.3090 C   0  0  0  0  0  0  0  0  0  0  0  0
  139.3310   69.3420  224.4090 C   0  0  0  0  0  0  0  0  0  0  0  0
  139.7990   69.8420  225.6120 C   0  0  0  0  0  0  0  0  0  0  0  0
  139.7110   69.0600  226.7440 C   0  0  0  0  0  0  0  0  0  0  0  0
  140.1700   69.5490  227.9250 C   0  0  0  0  0  0  0  0  0  0  0  0
  140.0910   68.7890  229.0570 F   0  0  0  0  0  0  0  0  0  0  0  0
  140.7230   70.8120  228.0130 C   0  0  0  0  0  0  0  0  0  0  0  0
  140.8250   71.6160  226.9010 C   0  0  0  0  0  0  0  0  0  0  0  0
  140.3550   71.1190  225.6830 C   0  0  0  0  0  0  0  0  0  0  0  0
  140.4370   71.8830  224.5580 N   0  0  0  0  0  0  0  0  0  0  0  0
  139.5700   74.0300  223.2270 H   0  0  0  0  0  0  0  0  0  0  0  0
  140.6668   74.1344  220.4259 H   0  0  0  0  0  0  0  0  0  0  0  0
  138.9224   74.5387  220.6129 H   0  0  0  0  0  0  0  0  0  0  0  0
  141.3202   75.6743  218.9095 H   0  0  0  0  0  0  0  0  0  0  0  0
  139.9187   76.7109  218.7978 H   0  0  0  0  0  0  0  0  0  0  0  0
  141.5345   78.1916  217.7796 H   0  0  0  0  0  0  0  0  0  0  0  0
  143.7160   77.6240  219.4250 H   0  0  0  0  0  0  0  0  0  0  0  0
  142.7387   79.4094  219.9048 H   0  0  0  0  0  0  0  0  0  0  0  0
  140.9991   79.5107  219.8382 H   0  0  0  0  0  0  0  0  0  0  0  0
  142.7574   77.5313  221.4074 H   0  0  0  0  0  0  0  0  0  0  0  0
  141.1406   77.7242  223.0026 H   0  0  0  0  0  0  0  0  0  0  0  0
  140.3879   80.2604  221.4687 H   0  0  0  0  0  0  0  0  0  0  0  0
  139.2792   79.0639  222.0615 H   0  0  0  0  0  0  0  0  0  0  0  0
  139.8019   81.1472  223.6814 H   0  0  0  0  0  0  0  0  0  0  0  0
  139.9033   79.5863  224.4659 H   0  0  0  0  0  0  0  0  0  0  0  0
  142.0926   81.4638  223.6380 H   0  0  0  0  0  0  0  0  0  0  0  0
  142.1646   80.1751  224.8536 H   0  0  0  0  0  0  0  0  0  0  0  0
  142.9125   80.0927  221.9626 H   0  0  0  0  0  0  0  0  0  0  0  0
  143.3847   78.9657  223.2183 H   0  0  0  0  0  0  0  0  0  0  0  0
  139.0820   69.8033  222.3368 H   0  0  0  0  0  0  0  0  0  0  0  0
  138.8904   68.3369  224.3335 H   0  0  0  0  0  0  0  0  0  0  0  0
  139.2742   68.0518  226.6913 H   0  0  0  0  0  0  0  0  0  0  0  0
  141.0863   71.1794  228.9841 H   0  0  0  0  0  0  0  0  0  0  0  0
  141.2644   72.6221  226.9692 H   0  0  0  0  0  0  0  0  0  0  0  0
  1  2  2  0
  2  3  1  0
  3  4  1  0
  4  5  1  0
  5  6  2  0
  5  7  1  0
  7  8  1  0
  8  9  1  0
  9 10  1  0
  9 11  1  0
 11 12  1  0
 12 13  1  0
 13 14  1  0
 14 15  1  0
 15 16  1  0
 16 17  1  0
  2 18  1  0
 18 19  2  0
 19 20  1  0
 20 21  2  0
 21 22  1  0
 22 23  2  0
 23 24  1  0
 23 25  1  0
 25 26  2  0
 26 27  1  0
 27 28  2  0
 12  7  1  0
 17 13  1  0
 28 18  1  0
 27 21  1  0
  3 29  1  0
  4 30  1  0
  4 31  1  0
  8 32  1  0
  8 33  1  0
  9 34  1  6
 10 35  1  0
 11 36  1  0
 11 37  1  0
 12 38  1  1
 13 39  1  0
 14 40  1  0
 14 41  1  0
 15 42  1  0
 15 43  1  0
 16 44  1  0
 16 45  1  0
 17 46  1  0
 17 47  1  0
 19 48  1  0
 20 49  1  0
 22 50  1  0
 25 51  1  0
 26 52  1  0
M  END
>  <smiles>  (15) 
O=C(NCC(=O)N1C[C@H](O)C[C@H]1C1CCCC1)c1ccc2cc(F)ccc2n1

>  <score_type>  (15) 
oracle

>  <origin>  (15) 
autodockgpu

>  <m_score__min__energy>  (15) 
-8.7899999999999991

>  <m_primary>  (15) 
energy

>  <rmsd>  (15) 
1.7419039456968144

>  <m_score__min__rmsd>  (15) 
1.7419039456968144

>  <meeko>  (15) 
{"free_energy": -8.69, "intermolecular_energy": -10.48, "internal_energy": -1.74, "cluster_size": 37, "cluster_id": 1, "rank_in_cluster": 12}

>  <energy>  (15) 
-8.61

>  <cluster_rmsd>  (15) 
0.7

>  <cluster>  (15) 
1

$$$$

     RDKit          3D

 52 55  0  0  0  0  0  0  0  0999 V2000
  140.2930   72.2930  220.9340 O   0  0  0  0  0  0  0  0  0  0  0  0
  139.9190   72.7020  222.0760 C   0  0  0  0  0  0  0  0  0  0  0  0
  139.5610   74.0700  222.2890 N   0  0  0  0  0  0  0  0  0  0  0  0
  139.6110   75.0390  221.2150 C   0  0  0  0  0  0  0  0  0  0  0  0
  141.0220   75.5390  221.0350 C   0  0  0  0  0  0  0  0  0  0  0  0
  141.9040   74.8640  221.6270 O   0  0  0  0  0  0  0  0  0  0  0  0
  141.3110   76.6910  220.2490 N   0  0  0  0  0  0  0  0  0  0  0  0
  141.1150   76.7190  218.8120 C   0  0  0  0  0  0  0  0  0  0  0  0
  141.5970   78.1250  218.4410 C   0  0  2  0  0  0  0  0  0  0  0  0
  142.9640   78.0980  218.1480 O   0  0  0  0  0  0  0  0  0  0  0  0
  141.4470   78.9260  219.7260 C   0  0  0  0  0  0  0  0  0  0  0  0
  141.8150   77.9160  220.7640 C   0  0  1  0  0  0  0  0  0  0  0  0
  141.4360   78.2890  222.1490 C   0  0  0  0  0  0  0  0  0  0  0  0
  140.0930   78.8950  222.3310 C   0  0  0  0  0  0  0  0  0  0  0  0
  140.1900   79.3650  223.7910 C   0  0  0  0  0  0  0  0  0  0  0  0
  141.5830   79.9600  223.8630 C   0  0  0  0  0  0  0  0  0  0  0  0
  142.3390   79.4240  222.6500 C   0  0  0  0  0  0  0  0  0  0  0  0
  139.8510   71.7670  223.1890 C   0  0  0  0  0  0  0  0  0  0  0  0
  139.2160   70.5520  223.0370 C   0  0  0  0  0  0  0  0  0  0  0  0
  139.1200   69.6260  224.0560 C   0  0  0  0  0  0  0  0  0  0  0  0
  139.7000   69.9700  225.2660 C   0  0  0  0  0  0  0  0  0  0  0  0
  139.6350   69.0840  226.3180 C   0  0  0  0  0  0  0  0  0  0  0  0
  140.2030   69.4210  227.5050 C   0  0  0  0  0  0  0  0  0  0  0  0
  140.1480   68.5550  228.5600 F   0  0  0  0  0  0  0  0  0  0  0  0
  140.8420   70.6330  227.6760 C   0  0  0  0  0  0  0  0  0  0  0  0
  140.9230   71.5390  226.6440 C   0  0  0  0  0  0  0  0  0  0  0  0
  140.3420   71.1990  225.4210 C   0  0  0  0  0  0  0  0  0  0  0  0
  140.4000   72.0680  224.3730 N   0  0  0  0  0  0  0  0  0  0  0  0
  139.2600   74.3350  223.2620 H   0  0  0  0  0  0  0  0  0  0  0  0
  139.2705   74.5662  220.2820 H   0  0  0  0  0  0  0  0  0  0  0  0
  138.9569   75.8875  221.4643 H   0  0  0  0  0  0  0  0  0  0  0  0
  141.7189   75.9468  218.3130 H   0  0  0  0  0  0  0  0  0  0  0  0
  140.0783   76.5150  218.5060 H   0  0  0  0  0  0  0  0  0  0  0  0
  141.0432   78.5280  217.5803 H   0  0  0  0  0  0  0  0  0  0  0  0
  143.5140   78.1960  218.9620 H   0  0  0  0  0  0  0  0  0  0  0  0
  142.1328   79.7859  219.7437 H   0  0  0  0  0  0  0  0  0  0  0  0
  140.4461   79.3608  219.8643 H   0  0  0  0  0  0  0  0  0  0  0  0
  142.9007   77.8331  220.9205 H   0  0  0  0  0  0  0  0  0  0  0  0
  141.5014   77.3230  222.6711 H   0  0  0  0  0  0  0  0  0  0  0  0
  139.9319   79.7383  221.6433 H   0  0  0  0  0  0  0  0  0  0  0  0
  139.2530   78.2156  222.1242 H   0  0  0  0  0  0  0  0  0  0  0  0
  139.4241   80.1222  224.0148 H   0  0  0  0  0  0  0  0  0  0  0  0
  140.0241   78.5576  224.5194 H   0  0  0  0  0  0  0  0  0  0  0  0
  141.5309   81.0581  223.8250 H   0  0  0  0  0  0  0  0  0  0  0  0
  142.0871   79.6871  224.8019 H   0  0  0  0  0  0  0  0  0  0  0  0
  142.4564   80.2030  221.8823 H   0  0  0  0  0  0  0  0  0  0  0  0
  143.3593   79.0902  222.8899 H   0  0  0  0  0  0  0  0  0  0  0  0
  138.7670   70.3108  222.0622 H   0  0  0  0  0  0  0  0  0  0  0  0
  138.6083   68.6626  223.9143 H   0  0  0  0  0  0  0  0  0  0  0  0
  139.1290   68.1146  226.1986 H   0  0  0  0  0  0  0  0  0  0  0  0
  141.2919   70.8772  228.6496 H   0  0  0  0  0  0  0  0  0  0  0  0
  141.4317   72.5050  226.7788 H   0  0  0  0  0  0  0  0  0  0  0  0
  1  2  2  0
  2  3  1  0
  3  4  1  0
  4  5  1  0
  5  6  2  0
  5  7  1  0
  7  8  1  0
  8  9  1  0
  9 10  1  0
  9 11  1  0
 11 12  1  0
 12 13  1  0
 13 14  1  0
 14 15  1  0
 15 16  1  0
 16 17  1  0
  2 18  1  0
 18 19  2  0
 19 20  1  0
 20 21  2  0
 21 22  1  0
 22 23  2  0
 23 24  1  0
 23 25  1  0
 25 26  2  0
 26 27  1  0
 27 28  2  0
 12  7  1  0
 17 13  1  0
 28 18  1  0
 27 21  1  0
  3 29  1  0
  4 30  1  0
  4 31  1  0
  8 32  1  0
  8 33  1  0
  9 34  1  6
 10 35  1  0
 11 36  1  0
 11 37  1  0
 12 38  1  1
 13 39  1  0
 14 40  1  0
 14 41  1  0
 15 42  1  0
 15 43  1  0
 16 44  1  0
 16 45  1  0
 17 46  1  0
 17 47  1  0
 19 48  1  0
 20 49  1  0
 22 50  1  0
 25 51  1  0
 26 52  1  0
M  END
>  <smiles>  (16) 
O=C(NCC(=O)N1C[C@H](O)C[C@H]1C1CCCC1)c1ccc2cc(F)ccc2n1

>  <score_type>  (16) 
oracle

>  <origin>  (16) 
autodockgpu

>  <m_score__min__energy>  (16) 
-8.7899999999999991

>  <m_primary>  (16) 
energy

>  <rmsd>  (16) 
1.7868947661074612

>  <m_score__min__rmsd>  (16) 
1.7868947661074612

>  <meeko>  (16) 
{"free_energy": -7.92, "intermolecular_energy": -9.71, "internal_energy": -1.37, "cluster_size": 37, "cluster_id": 1, "rank_in_cluster": 34}

>  <energy>  (16) 
-8.58

>  <cluster_rmsd>  (16) 
0.63

>  <cluster>  (16) 
1

$$$$

     RDKit          3D

 52 55  0  0  0  0  0  0  0  0999 V2000
  141.4450   72.3630  221.9280 O   0  0  0  0  0  0  0  0  0  0  0  0
  140.3720   72.4920  222.5920 C   0  0  0  0  0  0  0  0  0  0  0  0
  139.3830   73.4550  222.2180 N   0  0  0  0  0  0  0  0  0  0  0  0
  139.5660   74.3170  221.0700 C   0  0  0  0  0  0  0  0  0  0  0  0
  139.9160   75.7130  221.5220 C   0  0  0  0  0  0  0  0  0  0  0  0
  139.4280   76.0480  222.6330 O   0  0  0  0  0  0  0  0  0  0  0  0
  140.7380   76.5680  220.7360 N   0  0  0  0  0  0  0  0  0  0  0  0
  140.8250   76.4480  219.2920 C   0  0  0  0  0  0  0  0  0  0  0  0
  141.8430   77.5340  218.9310 C   0  0  2  0  0  0  0  0  0  0  0  0
  143.1360   77.0000  218.9480 O   0  0  0  0  0  0  0  0  0  0  0  0
  141.7690   78.5190  220.0890 C   0  0  0  0  0  0  0  0  0  0  0  0
  141.5530   77.6090  221.2550 C   0  0  1  0  0  0  0  0  0  0  0  0
  141.0970   78.2890  222.4920 C   0  0  0  0  0  0  0  0  0  0  0  0
  139.8200   79.0410  222.4050 C   0  0  0  0  0  0  0  0  0  0  0  0
  139.8390   79.7870  223.7490 C   0  0  0  0  0  0  0  0  0  0  0  0
  141.2780   80.2520  223.8580 C   0  0  0  0  0  0  0  0  0  0  0  0
  142.0740   79.4130  222.8620 C   0  0  0  0  0  0  0  0  0  0  0  0
  140.1400   71.6480  223.7550 C   0  0  0  0  0  0  0  0  0  0  0  0
  139.2450   70.6000  223.6850 C   0  0  0  0  0  0  0  0  0  0  0  0
  138.9840   69.7670  224.7540 C   0  0  0  0  0  0  0  0  0  0  0  0
  139.6690   70.0300  225.9280 C   0  0  0  0  0  0  0  0  0  0  0  0
  139.4480   69.2300  227.0280 C   0  0  0  0  0  0  0  0  0  0  0  0
  140.1190   69.4870  228.1810 C   0  0  0  0  0  0  0  0  0  0  0  0
  139.9120   68.7050  229.2810 F   0  0  0  0  0  0  0  0  0  0  0  0
  141.0170   70.5320  228.2710 C   0  0  0  0  0  0  0  0  0  0  0  0
  141.2590   71.3480  227.1890 C   0  0  0  0  0  0  0  0  0  0  0  0
  140.5730   71.0900  226.0010 C   0  0  0  0  0  0  0  0  0  0  0  0
  140.7840   71.8740  224.9080 N   0  0  0  0  0  0  0  0  0  0  0  0
  138.5190   73.5040  222.8170 H   0  0  0  0  0  0  0  0  0  0  0  0
  140.3800   73.9221  220.4443 H   0  0  0  0  0  0  0  0  0  0  0  0
  138.6314   74.3493  220.4908 H   0  0  0  0  0  0  0  0  0  0  0  0
  141.1850   75.4514  218.9967 H   0  0  0  0  0  0  0  0  0  0  0  0
  139.8573   76.5667  218.7826 H   0  0  0  0  0  0  0  0  0  0  0  0
  141.6362   77.9689  217.9420 H   0  0  0  0  0  0  0  0  0  0  0  0
  143.7500   77.5490  219.4910 H   0  0  0  0  0  0  0  0  0  0  0  0
  142.7059   79.0861  220.1923 H   0  0  0  0  0  0  0  0  0  0  0  0
  140.9877   79.2844  219.9720 H   0  0  0  0  0  0  0  0  0  0  0  0
  142.4878   77.1849  221.6504 H   0  0  0  0  0  0  0  0  0  0  0  0
  141.0066   77.4473  223.1944 H   0  0  0  0  0  0  0  0  0  0  0  0
  139.8169   79.7381  221.5541 H   0  0  0  0  0  0  0  0  0  0  0  0
  138.9305   78.4147  222.2421 H   0  0  0  0  0  0  0  0  0  0  0  0
  139.1467   80.6418  223.7370 H   0  0  0  0  0  0  0  0  0  0  0  0
  139.5187   79.1633  224.5966 H   0  0  0  0  0  0  0  0  0  0  0  0
  141.3540   81.3195  223.6036 H   0  0  0  0  0  0  0  0  0  0  0  0
  141.6620   80.1298  224.8816 H   0  0  0  0  0  0  0  0  0  0  0  0
  142.3473   80.0056  221.9765 H   0  0  0  0  0  0  0  0  0  0  0  0
  143.0242   79.0412  223.2730 H   0  0  0  0  0  0  0  0  0  0  0  0
  138.7171   70.4209  222.7367 H   0  0  0  0  0  0  0  0  0  0  0  0
  138.2676   68.9358  224.6771 H   0  0  0  0  0  0  0  0  0  0  0  0
  138.7365   68.3929  226.9732 H   0  0  0  0  0  0  0  0  0  0  0  0
  141.5452   70.7146  229.2184 H   0  0  0  0  0  0  0  0  0  0  0  0
  141.9739   72.1811  227.2587 H   0  0  0  0  0  0  0  0  0  0  0  0
  1  2  2  0
  2  3  1  0
  3  4  1  0
  4  5  1  0
  5  6  2  0
  5  7  1  0
  7  8  1  0
  8  9  1  0
  9 10  1  0
  9 11  1  0
 11 12  1  0
 12 13  1  0
 13 14  1  0
 14 15  1  0
 15 16  1  0
 16 17  1  0
  2 18  1  0
 18 19  2  0
 19 20  1  0
 20 21  2  0
 21 22  1  0
 22 23  2  0
 23 24  1  0
 23 25  1  0
 25 26  2  0
 26 27  1  0
 27 28  2  0
 12  7  1  0
 17 13  1  0
 28 18  1  0
 27 21  1  0
  3 29  1  0
  4 30  1  0
  4 31  1  0
  8 32  1  0
  8 33  1  0
  9 34  1  6
 10 35  1  0
 11 36  1  0
 11 37  1  0
 12 38  1  1
 13 39  1  0
 14 40  1  0
 14 41  1  0
 15 42  1  0
 15 43  1  0
 16 44  1  0
 16 45  1  0
 17 46  1  0
 17 47  1  0
 19 48  1  0
 20 49  1  0
 22 50  1  0
 25 51  1  0
 26 52  1  0
M  END
>  <smiles>  (17) 
O=C(NCC(=O)N1C[C@H](O)C[C@H]1C1CCCC1)c1ccc2cc(F)ccc2n1

>  <score_type>  (17) 
oracle

>  <origin>  (17) 
autodockgpu

>  <m_score__min__energy>  (17) 
-8.7899999999999991

>  <m_primary>  (17) 
energy

>  <rmsd>  (17) 
1.7921507646194765

>  <m_score__min__rmsd>  (17) 
1.7921507646194765

>  <meeko>  (17) 
{"free_energy": -8.55, "intermolecular_energy": -10.34, "internal_energy": -1.25, "cluster_size": 37, "cluster_id": 1, "rank_in_cluster": 19}

>  <energy>  (17) 
-8.57

>  <cluster_rmsd>  (17) 
0.73

>  <cluster>  (17) 
1

$$$$

     RDKit          3D

 52 55  0  0  0  0  0  0  0  0999 V2000
  141.1990   71.6380  221.4120 O   0  0  0  0  0  0  0  0  0  0  0  0
  140.5570   72.1920  222.3570 C   0  0  0  0  0  0  0  0  0  0  0  0
  140.1170   73.5480  222.2560 N   0  0  0  0  0  0  0  0  0  0  0  0
  140.3850   74.3420  221.0750 C   0  0  0  0  0  0  0  0  0  0  0  0
  140.4030   75.8080  221.4300 C   0  0  0  0  0  0  0  0  0  0  0  0
  139.8380   76.0970  222.5180 O   0  0  0  0  0  0  0  0  0  0  0  0
  141.0190   76.7730  220.5840 N   0  0  0  0  0  0  0  0  0  0  0  0
  140.9290   76.7060  219.1370 C   0  0  0  0  0  0  0  0  0  0  0  0
  141.7670   77.9110  218.6990 C   0  0  2  0  0  0  0  0  0  0  0  0
  143.1010   77.5260  218.5280 O   0  0  0  0  0  0  0  0  0  0  0  0
  141.7400   78.8460  219.8990 C   0  0  0  0  0  0  0  0  0  0  0  0
  141.7770   77.8840  221.0420 C   0  0  1  0  0  0  0  0  0  0  0  0
  141.4150   78.4700  222.3550 C   0  0  0  0  0  0  0  0  0  0  0  0
  140.1540   79.2510  222.4110 C   0  0  0  0  0  0  0  0  0  0  0  0
  140.2750   79.8860  223.8050 C   0  0  0  0  0  0  0  0  0  0  0  0
  141.7290   80.3140  223.8570 C   0  0  0  0  0  0  0  0  0  0  0  0
  142.4400   79.5430  222.7490 C   0  0  0  0  0  0  0  0  0  0  0  0
  140.2630   71.4360  223.5650 C   0  0  0  0  0  0  0  0  0  0  0  0
  139.5570   70.2530  223.4900 C   0  0  0  0  0  0  0  0  0  0  0  0
  139.2480   69.4940  224.6000 C   0  0  0  0  0  0  0  0  0  0  0  0
  139.6820   69.9770  225.8230 C   0  0  0  0  0  0  0  0  0  0  0  0
  139.4020   69.2600  226.9660 C   0  0  0  0  0  0  0  0  0  0  0  0
  139.8280   69.7320  228.1660 C   0  0  0  0  0  0  0  0  0  0  0  0
  139.5590   69.0360  229.3090 F   0  0  0  0  0  0  0  0  0  0  0  0
  140.5350   70.9150  228.2620 C   0  0  0  0  0  0  0  0  0  0  0  0
  140.8300   71.6530  227.1390 C   0  0  0  0  0  0  0  0  0  0  0  0
  140.3960   71.1730  225.9020 C   0  0  0  0  0  0  0  0  0  0  0  0
  140.6670   71.8730  224.7650 N   0  0  0  0  0  0  0  0  0  0  0  0
  139.5910   73.9390  223.0790 H   0  0  0  0  0  0  0  0  0  0  0  0
  141.3622   74.0564  220.6584 H   0  0  0  0  0  0  0  0  0  0  0  0
  139.5944   74.1609  220.3320 H   0  0  0  0  0  0  0  0  0  0  0  0
  141.3537   75.7660  218.7550 H   0  0  0  0  0  0  0  0  0  0  0  0
  139.8961   76.7285  218.7594 H   0  0  0  0  0  0  0  0  0  0  0  0
  141.3858   78.3497  217.7651 H   0  0  0  0  0  0  0  0  0  0  0  0
  143.6810   77.8970  219.2350 H   0  0  0  0  0  0  0  0  0  0  0  0
  142.6162   79.5110  219.9075 H   0  0  0  0  0  0  0  0  0  0  0  0
  140.8724   79.5220  219.9156 H   0  0  0  0  0  0  0  0  0  0  0  0
  142.7958   77.5577  221.2981 H   0  0  0  0  0  0  0  0  0  0  0  0
  141.3479   77.5758  222.9921 H   0  0  0  0  0  0  0  0  0  0  0  0
  140.1143   80.0142  221.6198 H   0  0  0  0  0  0  0  0  0  0  0  0
  139.2412   78.6567  222.2573 H   0  0  0  0  0  0  0  0  0  0  0  0
  139.6038   80.7517  223.9052 H   0  0  0  0  0  0  0  0  0  0  0  0
  139.9939   79.2025  224.6197 H   0  0  0  0  0  0  0  0  0  0  0  0
  141.8141   81.3968  223.6831 H   0  0  0  0  0  0  0  0  0  0  0  0
  142.1738   80.1032  224.8407 H   0  0  0  0  0  0  0  0  0  0  0  0
  142.6710   80.1996  221.8972 H   0  0  0  0  0  0  0  0  0  0  0  0
  143.4049   79.1216  223.0674 H   0  0  0  0  0  0  0  0  0  0  0  0
  139.2261   69.8996  222.5023 H   0  0  0  0  0  0  0  0  0  0  0  0
  138.6852   68.5525  224.5176 H   0  0  0  0  0  0  0  0  0  0  0  0
  138.8399   68.3163  226.9071 H   0  0  0  0  0  0  0  0  0  0  0  0
  140.8662   71.2713  229.2486 H   0  0  0  0  0  0  0  0  0  0  0  0
  141.3924   72.5954  227.2138 H   0  0  0  0  0  0  0  0  0  0  0  0
  1  2  2  0
  2  3  1  0
  3  4  1  0
  4  5  1  0
  5  6  2  0
  5  7  1  0
  7  8  1  0
  8  9  1  0
  9 10  1  0
  9 11  1  0
 11 12  1  0
 12 13  1  0
 13 14  1  0
 14 15  1  0
 15 16  1  0
 16 17  1  0
  2 18  1  0
 18 19  2  0
 19 20  1  0
 20 21  2  0
 21 22  1  0
 22 23  2  0
 23 24  1  0
 23 25  1  0
 25 26  2  0
 26 27  1  0
 27 28  2  0
 12  7  1  0
 17 13  1  0
 28 18  1  0
 27 21  1  0
  3 29  1  0
  4 30  1  0
  4 31  1  0
  8 32  1  0
  8 33  1  0
  9 34  1  6
 10 35  1  0
 11 36  1  0
 11 37  1  0
 12 38  1  1
 13 39  1  0
 14 40  1  0
 14 41  1  0
 15 42  1  0
 15 43  1  0
 16 44  1  0
 16 45  1  0
 17 46  1  0
 17 47  1  0
 19 48  1  0
 20 49  1  0
 22 50  1  0
 25 51  1  0
 26 52  1  0
M  END
>  <smiles>  (18) 
O=C(NCC(=O)N1C[C@H](O)C[C@H]1C1CCCC1)c1ccc2cc(F)ccc2n1

>  <score_type>  (18) 
oracle

>  <origin>  (18) 
autodockgpu

>  <m_score__min__energy>  (18) 
-8.7899999999999991

>  <m_primary>  (18) 
energy

>  <rmsd>  (18) 
1.8939624189657307

>  <m_score__min__rmsd>  (18) 
1.8939624189657307

>  <meeko>  (18) 
{"free_energy": -8.61, "intermolecular_energy": -10.4, "internal_energy": -1.73, "cluster_size": 37, "cluster_id": 1, "rank_in_cluster": 15}

>  <energy>  (18) 
-8.55

>  <cluster_rmsd>  (18) 
0.74

>  <cluster>  (18) 
1

$$$$

     RDKit          3D

 52 55  0  0  0  0  0  0  0  0999 V2000
  141.0250   71.6250  221.2990 O   0  0  0  0  0  0  0  0  0  0  0  0
  140.4530   72.1690  222.2930 C   0  0  0  0  0  0  0  0  0  0  0  0
  140.0390   73.5370  222.2510 N   0  0  0  0  0  0  0  0  0  0  0  0
  140.2560   74.3540  221.0760 C   0  0  0  0  0  0  0  0  0  0  0  0
  140.3800   75.8040  221.4700 C   0  0  0  0  0  0  0  0  0  0  0  0
  139.8780   76.0950  222.5870 O   0  0  0  0  0  0  0  0  0  0  0  0
  141.0230   76.7540  220.6260 N   0  0  0  0  0  0  0  0  0  0  0  0
  140.9670   76.6690  219.1780 C   0  0  0  0  0  0  0  0  0  0  0  0
  141.8240   77.8620  218.7450 C   0  0  2  0  0  0  0  0  0  0  0  0
  143.1590   77.4670  218.6120 O   0  0  0  0  0  0  0  0  0  0  0  0
  141.7730   78.8130  219.9310 C   0  0  0  0  0  0  0  0  0  0  0  0
  141.7770   77.8670  221.0870 C   0  0  1  0  0  0  0  0  0  0  0  0
  141.3870   78.4730  222.3830 C   0  0  0  0  0  0  0  0  0  0  0  0
  140.1020   79.2150  222.4110 C   0  0  0  0  0  0  0  0  0  0  0  0
  140.1920   79.8870  223.7900 C   0  0  0  0  0  0  0  0  0  0  0  0
  141.6320   80.3610  223.8420 C   0  0  0  0  0  0  0  0  0  0  0  0
  142.3750   79.5860  222.7580 C   0  0  0  0  0  0  0  0  0  0  0  0
  140.2110   71.3900  223.4990 C   0  0  0  0  0  0  0  0  0  0  0  0
  139.5250   70.1940  223.4280 C   0  0  0  0  0  0  0  0  0  0  0  0
  139.2660   69.4140  224.5360 C   0  0  0  0  0  0  0  0  0  0  0  0
  139.7320   69.8860  225.7510 C   0  0  0  0  0  0  0  0  0  0  0  0
  139.5020   69.1470  226.8910 C   0  0  0  0  0  0  0  0  0  0  0  0
  139.9580   69.6090  228.0840 C   0  0  0  0  0  0  0  0  0  0  0  0
  139.7400   68.8900  229.2240 F   0  0  0  0  0  0  0  0  0  0  0  0
  140.6470   70.8030  228.1760 C   0  0  0  0  0  0  0  0  0  0  0  0
  140.8920   71.5630  227.0550 C   0  0  0  0  0  0  0  0  0  0  0  0
  140.4260   71.0940  225.8250 C   0  0  0  0  0  0  0  0  0  0  0  0
  140.6470   71.8160  224.6920 N   0  0  0  0  0  0  0  0  0  0  0  0
  139.5720   73.9180  223.1130 H   0  0  0  0  0  0  0  0  0  0  0  0
  141.1810   74.0326  220.5749 H   0  0  0  0  0  0  0  0  0  0  0  0
  139.4013   74.2378  220.3934 H   0  0  0  0  0  0  0  0  0  0  0  0
  141.3937   75.7211  218.8182 H   0  0  0  0  0  0  0  0  0  0  0  0
  139.9436   76.6941  218.7756 H   0  0  0  0  0  0  0  0  0  0  0  0
  141.4694   78.2900  217.7958 H   0  0  0  0  0  0  0  0  0  0  0  0
  143.6740   77.6360  219.4370 H   0  0  0  0  0  0  0  0  0  0  0  0
  142.6523   79.4736  219.9519 H   0  0  0  0  0  0  0  0  0  0  0  0
  140.9089   79.4935  219.9174 H   0  0  0  0  0  0  0  0  0  0  0  0
  142.7875   77.5385  221.3717 H   0  0  0  0  0  0  0  0  0  0  0  0
  141.3429   77.5929  223.0414 H   0  0  0  0  0  0  0  0  0  0  0  0
  140.0447   79.9573  221.6012 H   0  0  0  0  0  0  0  0  0  0  0  0
  139.2095   78.5887  222.2653 H   0  0  0  0  0  0  0  0  0  0  0  0
  139.4937   80.7337  223.8641 H   0  0  0  0  0  0  0  0  0  0  0  0
  139.9254   79.2151  224.6191 H   0  0  0  0  0  0  0  0  0  0  0  0
  141.6852   81.4415  223.6426 H   0  0  0  0  0  0  0  0  0  0  0  0
  142.0753   80.1877  224.8337 H   0  0  0  0  0  0  0  0  0  0  0  0
  142.5923   80.2288  221.8922 H   0  0  0  0  0  0  0  0  0  0  0  0
  143.3499   79.2025  223.0933 H   0  0  0  0  0  0  0  0  0  0  0  0
  139.1698   69.8483  222.4460 H   0  0  0  0  0  0  0  0  0  0  0  0
  138.7166   68.4643  224.4579 H   0  0  0  0  0  0  0  0  0  0  0  0
  138.9555   68.1940  226.8355 H   0  0  0  0  0  0  0  0  0  0  0  0
  141.0040   71.1503  229.1568 H   0  0  0  0  0  0  0  0  0  0  0  0
  141.4400   72.5141  227.1260 H   0  0  0  0  0  0  0  0  0  0  0  0
  1  2  2  0
  2  3  1  0
  3  4  1  0
  4  5  1  0
  5  6  2  0
  5  7  1  0
  7  8  1  0
  8  9  1  0
  9 10  1  0
  9 11  1  0
 11 12  1  0
 12 13  1  0
 13 14  1  0
 14 15  1  0
 15 16  1  0
 16 17  1  0
  2 18  1  0
 18 19  2  0
 19 20  1  0
 20 21  2  0
 21 22  1  0
 22 23  2  0
 23 24  1  0
 23 25  1  0
 25 26  2  0
 26 27  1  0
 27 28  2  0
 12  7  1  0
 17 13  1  0
 28 18  1  0
 27 21  1  0
  3 29  1  0
  4 30  1  0
  4 31  1  0
  8 32  1  0
  8 33  1  0
  9 34  1  6
 10 35  1  0
 11 36  1  0
 11 37  1  0
 12 38  1  1
 13 39  1  0
 14 40  1  0
 14 41  1  0
 15 42  1  0
 15 43  1  0
 16 44  1  0
 16 45  1  0
 17 46  1  0
 17 47  1  0
 19 48  1  0
 20 49  1  0
 22 50  1  0
 25 51  1  0
 26 52  1  0
M  END
>  <smiles>  (19) 
O=C(NCC(=O)N1C[C@H](O)C[C@H]1C1CCCC1)c1ccc2cc(F)ccc2n1

>  <score_type>  (19) 
oracle

>  <origin>  (19) 
autodockgpu

>  <m_score__min__energy>  (19) 
-8.7899999999999991

>  <m_primary>  (19) 
energy

>  <rmsd>  (19) 
1.8400817697291245

>  <m_score__min__rmsd>  (19) 
1.8400817697291245

>  <meeko>  (19) 
{"free_energy": -8.69, "intermolecular_energy": -10.48, "internal_energy": -1.71, "cluster_size": 37, "cluster_id": 1, "rank_in_cluster": 11}

>  <energy>  (19) 
-8.55

>  <cluster_rmsd>  (19) 
0.35

>  <cluster>  (19) 
1

$$$$

     RDKit          3D

 52 55  0  0  0  0  0  0  0  0999 V2000
  140.7780   71.7050  221.1270 O   0  0  0  0  0  0  0  0  0  0  0  0
  140.3250   72.2420  222.1840 C   0  0  0  0  0  0  0  0  0  0  0  0
  139.9760   73.6280  222.2170 N   0  0  0  0  0  0  0  0  0  0  0  0
  140.1250   74.4710  221.0500 C   0  0  0  0  0  0  0  0  0  0  0  0
  140.3500   75.9020  221.4710 C   0  0  0  0  0  0  0  0  0  0  0  0
  139.9500   76.1830  222.6320 O   0  0  0  0  0  0  0  0  0  0  0  0
  140.9710   76.8460  220.6050 N   0  0  0  0  0  0  0  0  0  0  0  0
  140.8340   76.7820  219.1620 C   0  0  0  0  0  0  0  0  0  0  0  0
  141.6980   77.9570  218.6960 C   0  0  2  0  0  0  0  0  0  0  0  0
  143.0130   77.5280  218.4850 O   0  0  0  0  0  0  0  0  0  0  0  0
  141.7400   78.8930  219.8960 C   0  0  0  0  0  0  0  0  0  0  0  0
  141.7810   77.9310  221.0380 C   0  0  1  0  0  0  0  0  0  0  0  0
  141.4800   78.5290  222.3610 C   0  0  0  0  0  0  0  0  0  0  0  0
  140.2740   79.3900  222.4430 C   0  0  0  0  0  0  0  0  0  0  0  0
  140.4590   80.0060  223.8390 C   0  0  0  0  0  0  0  0  0  0  0  0
  141.9400   80.3360  223.8690 C   0  0  0  0  0  0  0  0  0  0  0  0
  142.5800   79.5290  222.7440 C   0  0  0  0  0  0  0  0  0  0  0  0
  140.1570   71.4360  223.3850 C   0  0  0  0  0  0  0  0  0  0  0  0
  139.5390   70.2040  223.3130 C   0  0  0  0  0  0  0  0  0  0  0  0
  139.3510   69.3970  224.4160 C   0  0  0  0  0  0  0  0  0  0  0  0
  139.8160   69.8820  225.6270 C   0  0  0  0  0  0  0  0  0  0  0  0
  139.6550   69.1170  226.7630 C   0  0  0  0  0  0  0  0  0  0  0  0
  140.1100   69.5920  227.9520 C   0  0  0  0  0  0  0  0  0  0  0  0
  139.9600   68.8490  229.0870 F   0  0  0  0  0  0  0  0  0  0  0  0
  140.7300   70.8230  228.0430 C   0  0  0  0  0  0  0  0  0  0  0  0
  140.9050   71.6090  226.9270 C   0  0  0  0  0  0  0  0  0  0  0  0
  140.4400   71.1270  225.7020 C   0  0  0  0  0  0  0  0  0  0  0  0
  140.5930   71.8740  224.5730 N   0  0  0  0  0  0  0  0  0  0  0  0
  139.6070   74.0020  223.1290 H   0  0  0  0  0  0  0  0  0  0  0  0
  140.9861   74.1257  220.4590 H   0  0  0  0  0  0  0  0  0  0  0  0
  139.2087   74.4133  220.4442 H   0  0  0  0  0  0  0  0  0  0  0  0
  141.2144   75.8279  218.7683 H   0  0  0  0  0  0  0  0  0  0  0  0
  139.7911   76.8400  218.8170 H   0  0  0  0  0  0  0  0  0  0  0  0
  141.3030   78.4070  217.7732 H   0  0  0  0  0  0  0  0  0  0  0  0
  143.0630   76.5480  218.3730 H   0  0  0  0  0  0  0  0  0  0  0  0
  142.6377   79.5285  219.8761 H   0  0  0  0  0  0  0  0  0  0  0  0
  140.8962   79.5974  219.9392 H   0  0  0  0  0  0  0  0  0  0  0  0
  142.7959   77.5707  221.2623 H   0  0  0  0  0  0  0  0  0  0  0  0
  141.3648   77.6367  222.9939 H   0  0  0  0  0  0  0  0  0  0  0  0
  140.2713   80.1598  221.6573 H   0  0  0  0  0  0  0  0  0  0  0  0
  139.3220   78.8575  222.3011 H   0  0  0  0  0  0  0  0  0  0  0  0
  139.8486   80.9137  223.9553 H   0  0  0  0  0  0  0  0  0  0  0  0
  140.1458   79.3374  224.6544 H   0  0  0  0  0  0  0  0  0  0  0  0
  142.0941   81.4122  223.7014 H   0  0  0  0  0  0  0  0  0  0  0  0
  142.3858   80.0877  224.8435 H   0  0  0  0  0  0  0  0  0  0  0  0
  142.8393   80.1756  221.8927 H   0  0  0  0  0  0  0  0  0  0  0  0
  143.5205   79.0428  223.0425 H   0  0  0  0  0  0  0  0  0  0  0  0
  139.1812   69.8506  222.3347 H   0  0  0  0  0  0  0  0  0  0  0  0
  138.8566   68.4175  224.3376 H   0  0  0  0  0  0  0  0  0  0  0  0
  139.1642   68.1341  226.7073 H   0  0  0  0  0  0  0  0  0  0  0  0
  141.0884   71.1796  229.0199 H   0  0  0  0  0  0  0  0  0  0  0  0
  141.3976   72.5899  226.9982 H   0  0  0  0  0  0  0  0  0  0  0  0
  1  2  2  0
  2  3  1  0
  3  4  1  0
  4  5  1  0
  5  6  2  0
  5  7  1  0
  7  8  1  0
  8  9  1  0
  9 10  1  0
  9 11  1  0
 11 12  1  0
 12 13  1  0
 13 14  1  0
 14 15  1  0
 15 16  1  0
 16 17  1  0
  2 18  1  0
 18 19  2  0
 19 20  1  0
 20 21  2  0
 21 22  1  0
 22 23  2  0
 23 24  1  0
 23 25  1  0
 25 26  2  0
 26 27  1  0
 27 28  2  0
 12  7  1  0
 17 13  1  0
 28 18  1  0
 27 21  1  0
  3 29  1  0
  4 30  1  0
  4 31  1  0
  8 32  1  0
  8 33  1  0
  9 34  1  6
 10 35  1  0
 11 36  1  0
 11 37  1  0
 12 38  1  1
 13 39  1  0
 14 40  1  0
 14 41  1  0
 15 42  1  0
 15 43  1  0
 16 44  1  0
 16 45  1  0
 17 46  1  0
 17 47  1  0
 19 48  1  0
 20 49  1  0
 22 50  1  0
 25 51  1  0
 26 52  1  0
M  END
>  <smiles>  (20) 
O=C(NCC(=O)N1C[C@H](O)C[C@H]1C1CCCC1)c1ccc2cc(F)ccc2n1

>  <score_type>  (20) 
oracle

>  <origin>  (20) 
autodockgpu

>  <m_score__min__energy>  (20) 
-8.7899999999999991

>  <m_primary>  (20) 
energy

>  <rmsd>  (20) 
1.8067875460732294

>  <m_score__min__rmsd>  (20) 
1.8067875460732294

>  <meeko>  (20) 
{"free_energy": -8.1, "intermolecular_energy": -9.89, "internal_energy": -1.76, "cluster_size": 37, "cluster_id": 1, "rank_in_cluster": 29}

>  <energy>  (20) 
-8.55

>  <cluster_rmsd>  (20) 
0.7

>  <cluster>  (20) 
1

$$$$

     RDKit          3D

 52 55  0  0  0  0  0  0  0  0999 V2000
  141.4210   72.5230  221.8770 O   0  0  0  0  0  0  0  0  0  0  0  0
  140.3790   72.5400  222.6010 C   0  0  0  0  0  0  0  0  0  0  0  0
  139.3270   73.4790  222.3610 N   0  0  0  0  0  0  0  0  0  0  0  0
  139.4100   74.4440  221.2850 C   0  0  0  0  0  0  0  0  0  0  0  0
  139.8760   75.7750  221.8190 C   0  0  0  0  0  0  0  0  0  0  0  0
  141.1200   75.8740  221.9860 O   0  0  0  0  0  0  0  0  0  0  0  0
  138.9600   76.8270  222.1050 N   0  0  0  0  0  0  0  0  0  0  0  0
  137.5490   76.5830  222.3420 C   0  0  0  0  0  0  0  0  0  0  0  0
  137.0010   77.9980  222.5560 C   0  0  2  0  0  0  0  0  0  0  0  0
  136.5940   78.5410  221.3330 O   0  0  0  0  0  0  0  0  0  0  0  0
  138.2100   78.8060  223.0040 C   0  0  0  0  0  0  0  0  0  0  0  0
  139.3060   78.2020  222.1870 C   0  0  1  0  0  0  0  0  0  0  0  0
  140.6760   78.5410  222.6440 C   0  0  0  0  0  0  0  0  0  0  0  0
  140.7810   79.4280  223.8300 C   0  0  0  0  0  0  0  0  0  0  0  0
  142.2850   79.7440  223.8150 C   0  0  0  0  0  0  0  0  0  0  0  0
  142.5650   79.9880  222.3440 C   0  0  0  0  0  0  0  0  0  0  0  0
  141.3870   79.3890  221.5810 C   0  0  0  0  0  0  0  0  0  0  0  0
  140.2480   71.5890  223.6950 C   0  0  0  0  0  0  0  0  0  0  0  0
  139.6450   70.3660  223.4840 C   0  0  0  0  0  0  0  0  0  0  0  0
  139.4920   69.4260  224.4830 C   0  0  0  0  0  0  0  0  0  0  0  0
  139.9780   69.7640  225.7340 C   0  0  0  0  0  0  0  0  0  0  0  0
  139.8530   68.8630  226.7690 C   0  0  0  0  0  0  0  0  0  0  0  0
  140.3290   69.1930  227.9980 C   0  0  0  0  0  0  0  0  0  0  0  0
  140.2140   68.3130  229.0350 F   0  0  0  0  0  0  0  0  0  0  0  0
  140.9350   70.4130  228.2280 C   0  0  0  0  0  0  0  0  0  0  0  0
  141.0740   71.3340  227.2150 C   0  0  0  0  0  0  0  0  0  0  0  0
  140.5870   71.0000  225.9500 C   0  0  0  0  0  0  0  0  0  0  0  0
  140.7060   71.8830  224.9190 N   0  0  0  0  0  0  0  0  0  0  0  0
  138.4950   73.4330  223.0020 H   0  0  0  0  0  0  0  0  0  0  0  0
  140.1235   74.0853  220.5285 H   0  0  0  0  0  0  0  0  0  0  0  0
  138.4149   74.5656  220.8322 H   0  0  0  0  0  0  0  0  0  0  0  0
  137.0772   76.1009  221.4731 H   0  0  0  0  0  0  0  0  0  0  0  0
  137.3563   75.9050  223.1865 H   0  0  0  0  0  0  0  0  0  0  0  0
  136.1569   78.0020  223.2614 H   0  0  0  0  0  0  0  0  0  0  0  0
  136.5790   79.5270  221.3580 H   0  0  0  0  0  0  0  0  0  0  0  0
  138.0836   79.8746  222.7759 H   0  0  0  0  0  0  0  0  0  0  0  0
  138.3921   78.7684  224.0882 H   0  0  0  0  0  0  0  0  0  0  0  0
  139.3739   78.6280  221.1751 H   0  0  0  0  0  0  0  0  0  0  0  0
  141.0957   77.5478  222.8617 H   0  0  0  0  0  0  0  0  0  0  0  0
  140.1742   80.3378  223.7111 H   0  0  0  0  0  0  0  0  0  0  0  0
  140.4167   78.9828  224.7676 H   0  0  0  0  0  0  0  0  0  0  0  0
  142.5073   80.6394  224.4141 H   0  0  0  0  0  0  0  0  0  0  0  0
  142.9018   78.9425  224.2477 H   0  0  0  0  0  0  0  0  0  0  0  0
  142.6398   81.0671  222.1440 H   0  0  0  0  0  0  0  0  0  0  0  0
  143.5165   79.5301  222.0359 H   0  0  0  0  0  0  0  0  0  0  0  0
  140.7235   80.1779  221.1970 H   0  0  0  0  0  0  0  0  0  0  0  0
  141.6947   78.8071  220.6997 H   0  0  0  0  0  0  0  0  0  0  0  0
  139.2704   70.1302  222.4770 H   0  0  0  0  0  0  0  0  0  0  0  0
  139.0079   68.4565  224.2943 H   0  0  0  0  0  0  0  0  0  0  0  0
  139.3731   67.8874  226.6021 H   0  0  0  0  0  0  0  0  0  0  0  0
  141.3112   70.6513  229.2338 H   0  0  0  0  0  0  0  0  0  0  0  0
  141.5554   72.3062  227.3969 H   0  0  0  0  0  0  0  0  0  0  0  0
  1  2  2  0
  2  3  1  0
  3  4  1  0
  4  5  1  0
  5  6  2  0
  5  7  1  0
  7  8  1  0
  8  9  1  0
  9 10  1  0
  9 11  1  0
 11 12  1  0
 12 13  1  0
 13 14  1  0
 14 15  1  0
 15 16  1  0
 16 17  1  0
  2 18  1  0
 18 19  2  0
 19 20  1  0
 20 21  2  0
 21 22  1  0
 22 23  2  0
 23 24  1  0
 23 25  1  0
 25 26  2  0
 26 27  1  0
 27 28  2  0
 12  7  1  0
 17 13  1  0
 28 18  1  0
 27 21  1  0
  3 29  1  0
  4 30  1  0
  4 31  1  0
  8 32  1  0
  8 33  1  0
  9 34  1  1
 10 35  1  0
 11 36  1  0
 11 37  1  0
 12 38  1  6
 13 39  1  0
 14 40  1  0
 14 41  1  0
 15 42  1  0
 15 43  1  0
 16 44  1  0
 16 45  1  0
 17 46  1  0
 17 47  1  0
 19 48  1  0
 20 49  1  0
 22 50  1  0
 25 51  1  0
 26 52  1  0
M  END
>  <smiles>  (21) 
O=C(NCC(=O)N1C[C@H](O)C[C@H]1C1CCCC1)c1ccc2cc(F)ccc2n1

>  <score_type>  (21) 
oracle

>  <origin>  (21) 
autodockgpu

>  <m_score__min__energy>  (21) 
-8.7899999999999991

>  <m_primary>  (21) 
energy

>  <rmsd>  (21) 
3.0605953235296837

>  <m_score__min__rmsd>  (21) 
3.0605953235296837

>  <meeko>  (21) 
{"free_energy": -8.31, "intermolecular_energy": -10.1, "internal_energy": -1.11, "cluster_size": 37, "cluster_id": 1, "rank_in_cluster": 21}

>  <energy>  (21) 
-8.31

>  <cluster_rmsd>  (21) 
1.73

>  <cluster>  (21) 
1

$$$$

     RDKit          3D

 52 55  0  0  0  0  0  0  0  0999 V2000
  141.2050   72.4570  221.1770 O   0  0  0  0  0  0  0  0  0  0  0  0
  140.3550   72.7310  222.0790 C   0  0  0  0  0  0  0  0  0  0  0  0
  139.5850   73.9350  222.0260 N   0  0  0  0  0  0  0  0  0  0  0  0
  139.7440   74.8860  220.9470 C   0  0  0  0  0  0  0  0  0  0  0  0
  140.8800   75.8300  221.2520 C   0  0  0  0  0  0  0  0  0  0  0  0
  141.4420   75.6430  222.3630 O   0  0  0  0  0  0  0  0  0  0  0  0
  141.2690   76.8490  220.3370 N   0  0  0  0  0  0  0  0  0  0  0  0
  141.1340   76.6950  218.9000 C   0  0  0  0  0  0  0  0  0  0  0  0
  141.7150   78.0100  218.3720 C   0  0  2  0  0  0  0  0  0  0  0  0
  143.0890   77.8690  218.1510 O   0  0  0  0  0  0  0  0  0  0  0  0
  141.5630   78.9830  219.5320 C   0  0  0  0  0  0  0  0  0  0  0  0
  141.8260   78.1020  220.7100 C   0  0  1  0  0  0  0  0  0  0  0  0
  141.4150   78.6770  222.0140 C   0  0  0  0  0  0  0  0  0  0  0  0
  140.3860   79.7450  221.9760 C   0  0  0  0  0  0  0  0  0  0  0  0
  140.4370   80.2400  223.4300 C   0  0  0  0  0  0  0  0  0  0  0  0
  141.9250   80.2830  223.7210 C   0  0  0  0  0  0  0  0  0  0  0  0
  142.5940   79.4290  222.6480 C   0  0  0  0  0  0  0  0  0  0  0  0
  140.1570   71.8080  223.1860 C   0  0  0  0  0  0  0  0  0  0  0  0
  139.4210   70.6540  223.0050 C   0  0  0  0  0  0  0  0  0  0  0  0
  139.2000   69.7420  224.0170 C   0  0  0  0  0  0  0  0  0  0  0  0
  139.7570   70.0350  225.2500 C   0  0  0  0  0  0  0  0  0  0  0  0
  139.5690   69.1600  226.2970 C   0  0  0  0  0  0  0  0  0  0  0  0
  140.1140   69.4460  227.5080 C   0  0  0  0  0  0  0  0  0  0  0  0
  139.9380   68.5900  228.5570 F   0  0  0  0  0  0  0  0  0  0  0  0
  140.8530   70.5960  227.7080 C   0  0  0  0  0  0  0  0  0  0  0  0
  141.0590   71.4900  226.6820 C   0  0  0  0  0  0  0  0  0  0  0  0
  140.5010   71.2010  225.4350 C   0  0  0  0  0  0  0  0  0  0  0  0
  140.6810   72.0590  224.3930 N   0  0  0  0  0  0  0  0  0  0  0  0
  138.9000   74.0940  222.8090 H   0  0  0  0  0  0  0  0  0  0  0  0
  139.9609   74.3450  220.0141 H   0  0  0  0  0  0  0  0  0  0  0  0
  138.8148   75.4643  220.8367 H   0  0  0  0  0  0  0  0  0  0  0  0
  141.7100   75.8312  218.5365 H   0  0  0  0  0  0  0  0  0  0  0  0
  140.1003   76.5088  218.5732 H   0  0  0  0  0  0  0  0  0  0  0  0
  141.2213   78.3240  217.4405 H   0  0  0  0  0  0  0  0  0  0  0  0
  143.6000   77.9120  218.9940 H   0  0  0  0  0  0  0  0  0  0  0  0
  142.2992   79.7980  219.4697 H   0  0  0  0  0  0  0  0  0  0  0  0
  140.5861   79.4876  219.5637 H   0  0  0  0  0  0  0  0  0  0  0  0
  142.8974   77.9809  220.9276 H   0  0  0  0  0  0  0  0  0  0  0  0
  141.0362   77.7908  222.5443 H   0  0  0  0  0  0  0  0  0  0  0  0
  140.6545   80.5418  221.2667 H   0  0  0  0  0  0  0  0  0  0  0  0
  139.3928   79.4110  221.6415 H   0  0  0  0  0  0  0  0  0  0  0  0
  139.9863   81.2390  223.5240 H   0  0  0  0  0  0  0  0  0  0  0  0
  139.8763   79.5997  224.1269 H   0  0  0  0  0  0  0  0  0  0  0  0
  142.2938   81.3180  223.6693 H   0  0  0  0  0  0  0  0  0  0  0  0
  142.1470   79.9051  224.7299 H   0  0  0  0  0  0  0  0  0  0  0  0
  143.1060   80.0583  221.9051 H   0  0  0  0  0  0  0  0  0  0  0  0
  143.3678   78.7585  223.0501 H   0  0  0  0  0  0  0  0  0  0  0  0
  138.9926   70.4529  222.0120 H   0  0  0  0  0  0  0  0  0  0  0  0
  138.6107   68.8279  223.8521 H   0  0  0  0  0  0  0  0  0  0  0  0
  138.9839   68.2396  226.1541 H   0  0  0  0  0  0  0  0  0  0  0  0
  141.2823   70.7998  228.7000 H   0  0  0  0  0  0  0  0  0  0  0  0
  141.6467   72.4064  226.8399 H   0  0  0  0  0  0  0  0  0  0  0  0
  1  2  2  0
  2  3  1  0
  3  4  1  0
  4  5  1  0
  5  6  2  0
  5  7  1  0
  7  8  1  0
  8  9  1  0
  9 10  1  0
  9 11  1  0
 11 12  1  0
 12 13  1  0
 13 14  1  0
 14 15  1  0
 15 16  1  0
 16 17  1  0
  2 18  1  0
 18 19  2  0
 19 20  1  0
 20 21  2  0
 21 22  1  0
 22 23  2  0
 23 24  1  0
 23 25  1  0
 25 26  2  0
 26 27  1  0
 27 28  2  0
 12  7  1  0
 17 13  1  0
 28 18  1  0
 27 21  1  0
  3 29  1  0
  4 30  1  0
  4 31  1  0
  8 32  1  0
  8 33  1  0
  9 34  1  6
 10 35  1  0
 11 36  1  0
 11 37  1  0
 12 38  1  1
 13 39  1  0
 14 40  1  0
 14 41  1  0
 15 42  1  0
 15 43  1  0
 16 44  1  0
 16 45  1  0
 17 46  1  0
 17 47  1  0
 19 48  1  0
 20 49  1  0
 22 50  1  0
 25 51  1  0
 26 52  1  0
M  END
>  <smiles>  (22) 
O=C(NCC(=O)N1C[C@H](O)C[C@H]1C1CCCC1)c1ccc2cc(F)ccc2n1

>  <score_type>  (22) 
oracle

>  <origin>  (22) 
autodockgpu

>  <m_score__min__energy>  (22) 
-8.7899999999999991

>  <m_primary>  (22) 
energy

>  <rmsd>  (22) 
1.8342562277410086

>  <m_score__min__rmsd>  (22) 
1.8342562277410086

>  <meeko>  (22) 
{"free_energy": -8.25, "intermolecular_energy": -10.04, "internal_energy": -1.28, "cluster_size": 37, "cluster_id": 1, "rank_in_cluster": 27}

>  <energy>  (22) 
-8.3

>  <cluster_rmsd>  (22) 
0.81

>  <cluster>  (22) 
1

$$$$

     RDKit          3D

 52 55  0  0  0  0  0  0  0  0999 V2000
  139.8030   70.6750  221.1520 O   0  0  0  0  0  0  0  0  0  0  0  0
  140.0060   71.3070  222.2340 C   0  0  0  0  0  0  0  0  0  0  0  0
  140.3370   72.6980  222.2250 N   0  0  0  0  0  0  0  0  0  0  0  0
  140.4510   73.4380  220.9870 C   0  0  0  0  0  0  0  0  0  0  0  0
  140.7900   74.8790  221.2750 C   0  0  0  0  0  0  0  0  0  0  0  0
  140.3240   75.3290  222.3540 O   0  0  0  0  0  0  0  0  0  0  0  0
  141.5810   75.6540  220.3790 N   0  0  0  0  0  0  0  0  0  0  0  0
  141.2680   77.0360  220.0640 C   0  0  0  0  0  0  0  0  0  0  0  0
  142.3590   77.3980  219.0520 C   0  0  2  0  0  0  0  0  0  0  0  0
  141.9190   77.1140  217.7550 O   0  0  0  0  0  0  0  0  0  0  0  0
  143.4870   76.4200  219.3470 C   0  0  0  0  0  0  0  0  0  0  0  0
  142.7350   75.1780  219.7000 C   0  0  1  0  0  0  0  0  0  0  0  0
  143.5480   74.1350  220.3720 C   0  0  0  0  0  0  0  0  0  0  0  0
  145.0040   74.3960  220.4860 C   0  0  0  0  0  0  0  0  0  0  0  0
  145.5010   73.0250  220.9710 C   0  0  0  0  0  0  0  0  0  0  0  0
  144.7140   72.0560  220.1090 C   0  0  0  0  0  0  0  0  0  0  0  0
  143.5460   72.8500  219.5330 C   0  0  0  0  0  0  0  0  0  0  0  0
  139.9030   70.6080  223.5060 C   0  0  0  0  0  0  0  0  0  0  0  0
  139.2910   69.3730  223.5720 C   0  0  0  0  0  0  0  0  0  0  0  0
  139.1630   68.6640  224.7490 C   0  0  0  0  0  0  0  0  0  0  0  0
  139.6840   69.2520  225.8890 C   0  0  0  0  0  0  0  0  0  0  0  0
  139.5850   68.5880  227.0920 C   0  0  0  0  0  0  0  0  0  0  0  0
  140.0960   69.1640  228.2110 C   0  0  0  0  0  0  0  0  0  0  0  0
  140.0070   68.5220  229.4120 F   0  0  0  0  0  0  0  0  0  0  0  0
  140.7120   70.4000  228.1650 C   0  0  0  0  0  0  0  0  0  0  0  0
  140.8260   71.0870  226.9780 C   0  0  0  0  0  0  0  0  0  0  0  0
  140.3030   70.5000  225.8240 C   0  0  0  0  0  0  0  0  0  0  0  0
  140.3960   71.1470  224.6290 N   0  0  0  0  0  0  0  0  0  0  0  0
  140.4910   73.1550  223.1610 H   0  0  0  0  0  0  0  0  0  0  0  0
  141.2453   72.9937  220.3692 H   0  0  0  0  0  0  0  0  0  0  0  0
  139.4915   73.3937  220.4509 H   0  0  0  0  0  0  0  0  0  0  0  0
  140.2663   77.1255  219.6183 H   0  0  0  0  0  0  0  0  0  0  0  0
  141.2500   77.6943  220.9451 H   0  0  0  0  0  0  0  0  0  0  0  0
  142.6392   78.4593  219.1232 H   0  0  0  0  0  0  0  0  0  0  0  0
  140.9690   77.3510  217.6320 H   0  0  0  0  0  0  0  0  0  0  0  0
  144.1231   76.2648  218.4631 H   0  0  0  0  0  0  0  0  0  0  0  0
  144.1758   76.7609  220.1340 H   0  0  0  0  0  0  0  0  0  0  0  0
  142.4319   74.5915  218.8202 H   0  0  0  0  0  0  0  0  0  0  0  0
  143.0820   74.0900  221.3674 H   0  0  0  0  0  0  0  0  0  0  0  0
  145.4446   74.6668  219.5152 H   0  0  0  0  0  0  0  0  0  0  0  0
  145.2674   75.2367  221.1446 H   0  0  0  0  0  0  0  0  0  0  0  0
  146.5827   72.9144  220.8045 H   0  0  0  0  0  0  0  0  0  0  0  0
  145.3539   72.8658  222.0494 H   0  0  0  0  0  0  0  0  0  0  0  0
  145.3470   71.6665  219.2980 H   0  0  0  0  0  0  0  0  0  0  0  0
  144.3623   71.1937  220.6944 H   0  0  0  0  0  0  0  0  0  0  0  0
  143.7081   73.0738  218.4683 H   0  0  0  0  0  0  0  0  0  0  0  0
  142.5907   72.3065  219.5785 H   0  0  0  0  0  0  0  0  0  0  0  0
  138.8880   68.9350  222.6470 H   0  0  0  0  0  0  0  0  0  0  0  0
  138.6714   67.6805  224.7799 H   0  0  0  0  0  0  0  0  0  0  0  0
  139.0980   67.6031  227.1457 H   0  0  0  0  0  0  0  0  0  0  0  0
  141.1162   70.8402  229.0885 H   0  0  0  0  0  0  0  0  0  0  0  0
  141.3156   72.0713  226.9394 H   0  0  0  0  0  0  0  0  0  0  0  0
  1  2  2  0
  2  3  1  0
  3  4  1  0
  4  5  1  0
  5  6  2  0
  5  7  1  0
  7  8  1  0
  8  9  1  0
  9 10  1  0
  9 11  1  0
 11 12  1  0
 12 13  1  0
 13 14  1  0
 14 15  1  0
 15 16  1  0
 16 17  1  0
  2 18  1  0
 18 19  2  0
 19 20  1  0
 20 21  2  0
 21 22  1  0
 22 23  2  0
 23 24  1  0
 23 25  1  0
 25 26  2  0
 26 27  1  0
 27 28  2  0
 12  7  1  0
 17 13  1  0
 28 18  1  0
 27 21  1  0
  3 29  1  0
  4 30  1  0
  4 31  1  0
  8 32  1  0
  8 33  1  0
  9 34  1  6
 10 35  1  0
 11 36  1  0
 11 37  1  0
 12 38  1  6
 13 39  1  0
 14 40  1  0
 14 41  1  0
 15 42  1  0
 15 43  1  0
 16 44  1  0
 16 45  1  0
 17 46  1  0
 17 47  1  0
 19 48  1  0
 20 49  1  0
 22 50  1  0
 25 51  1  0
 26 52  1  0
M  END
>  <smiles>  (23) 
O=C(NCC(=O)N1C[C@H](O)C[C@H]1C1CCCC1)c1ccc2cc(F)ccc2n1

>  <score_type>  (23) 
oracle

>  <origin>  (23) 
autodockgpu

>  <m_score__min__energy>  (23) 
-8.7899999999999991

>  <m_primary>  (23) 
energy

>  <rmsd>  (23) 
2.199420086604121

>  <m_score__min__rmsd>  (23) 
2.199420086604121

>  <meeko>  (23) 
{"free_energy": -7.32, "intermolecular_energy": -9.11, "internal_energy": -2.05, "cluster_size": 8, "cluster_id": 2, "rank_in_cluster": 7}

>  <energy>  (23) 
-8.27

>  <cluster_rmsd>  (23) 
0.86

>  <cluster>  (23) 
1

$$$$

     RDKit          3D

 52 55  0  0  0  0  0  0  0  0999 V2000
  138.7420   72.3820  221.5520 O   0  0  0  0  0  0  0  0  0  0  0  0
  139.7560   72.3430  222.3150 C   0  0  0  0  0  0  0  0  0  0  0  0
  140.9260   73.1140  222.0290 N   0  0  0  0  0  0  0  0  0  0  0  0
  141.0010   73.9660  220.8620 C   0  0  0  0  0  0  0  0  0  0  0  0
  140.7980   75.4070  221.2600 C   0  0  0  0  0  0  0  0  0  0  0  0
  140.1970   75.5760  222.3530 O   0  0  0  0  0  0  0  0  0  0  0  0
  141.2620   76.4780  220.4450 N   0  0  0  0  0  0  0  0  0  0  0  0
  141.2200   76.4250  218.9960 C   0  0  0  0  0  0  0  0  0  0  0  0
  141.8530   77.7620  218.5980 C   0  0  2  0  0  0  0  0  0  0  0  0
  143.2370   77.6120  218.4590 O   0  0  0  0  0  0  0  0  0  0  0  0
  141.6380   78.6560  219.8110 C   0  0  0  0  0  0  0  0  0  0  0  0
  141.8100   77.6930  220.9400 C   0  0  1  0  0  0  0  0  0  0  0  0
  141.3220   78.1840  222.2510 C   0  0  0  0  0  0  0  0  0  0  0  0
  140.0000   78.8600  222.2590 C   0  0  0  0  0  0  0  0  0  0  0  0
  139.9830   79.4340  223.6840 C   0  0  0  0  0  0  0  0  0  0  0  0
  141.3920   79.9720  223.8490 C   0  0  0  0  0  0  0  0  0  0  0  0
  142.2300   79.3140  222.7570 C   0  0  0  0  0  0  0  0  0  0  0  0
  139.7310   71.5010  223.5010 C   0  0  0  0  0  0  0  0  0  0  0  0
  139.0090   70.3250  223.5030 C   0  0  0  0  0  0  0  0  0  0  0  0
  138.9470   69.4870  224.5970 C   0  0  0  0  0  0  0  0  0  0  0  0
  139.6530   69.8790  225.7220 C   0  0  0  0  0  0  0  0  0  0  0  0
  139.6280   69.0810  226.8440 C   0  0  0  0  0  0  0  0  0  0  0  0
  140.3200   69.4650  227.9480 C   0  0  0  0  0  0  0  0  0  0  0  0
  140.3060   68.6860  229.0690 F   0  0  0  0  0  0  0  0  0  0  0  0
  141.0480   70.6390  227.9650 C   0  0  0  0  0  0  0  0  0  0  0  0
  141.0920   71.4580  226.8600 C   0  0  0  0  0  0  0  0  0  0  0  0
  140.3830   71.0680  225.7220 C   0  0  0  0  0  0  0  0  0  0  0  0
  140.4020   71.8500  224.6070 N   0  0  0  0  0  0  0  0  0  0  0  0
  141.7260   73.0300  222.7070 H   0  0  0  0  0  0  0  0  0  0  0  0
  141.9893   73.8538  220.3922 H   0  0  0  0  0  0  0  0  0  0  0  0
  140.2141   73.6739  220.1511 H   0  0  0  0  0  0  0  0  0  0  0  0
  141.8064   75.5773  218.6119 H   0  0  0  0  0  0  0  0  0  0  0  0
  140.2074   76.2810  218.5912 H   0  0  0  0  0  0  0  0  0  0  0  0
  141.4269   78.1468  217.6597 H   0  0  0  0  0  0  0  0  0  0  0  0
  143.7170   77.8710  219.2810 H   0  0  0  0  0  0  0  0  0  0  0  0
  142.3879   79.4597  219.8533 H   0  0  0  0  0  0  0  0  0  0  0  0
  140.6679   79.1745  219.8138 H   0  0  0  0  0  0  0  0  0  0  0  0
  142.8629   77.5391  221.2187 H   0  0  0  0  0  0  0  0  0  0  0  0
  141.2895   77.2574  222.8429 H   0  0  0  0  0  0  0  0  0  0  0  0
  139.9467   79.6553  221.5009 H   0  0  0  0  0  0  0  0  0  0  0  0
  139.1499   78.2038  222.0206 H   0  0  0  0  0  0  0  0  0  0  0  0
  139.2386   80.2384  223.7779 H   0  0  0  0  0  0  0  0  0  0  0  0
  139.7089   78.6918  224.4482 H   0  0  0  0  0  0  0  0  0  0  0  0
  141.3992   81.0653  223.7283 H   0  0  0  0  0  0  0  0  0  0  0  0
  141.7913   79.7492  224.8494 H   0  0  0  0  0  0  0  0  0  0  0  0
  142.4583   80.0273  221.9513 H   0  0  0  0  0  0  0  0  0  0  0  0
  143.2048   78.9549  223.1187 H   0  0  0  0  0  0  0  0  0  0  0  0
  138.4591   70.0436  222.5928 H   0  0  0  0  0  0  0  0  0  0  0  0
  138.3655   68.5535  224.5767 H   0  0  0  0  0  0  0  0  0  0  0  0
  139.0539   68.1427  226.8462 H   0  0  0  0  0  0  0  0  0  0  0  0
  141.5996   70.9227  228.8734 H   0  0  0  0  0  0  0  0  0  0  0  0
  141.6697   72.3940  226.8728 H   0  0  0  0  0  0  0  0  0  0  0  0
  1  2  2  0
  2  3  1  0
  3  4  1  0
  4  5  1  0
  5  6  2  0
  5  7  1  0
  7  8  1  0
  8  9  1  0
  9 10  1  0
  9 11  1  0
 11 12  1  0
 12 13  1  0
 13 14  1  0
 14 15  1  0
 15 16  1  0
 16 17  1  0
  2 18  1  0
 18 19  2  0
 19 20  1  0
 20 21  2  0
 21 22  1  0
 22 23  2  0
 23 24  1  0
 23 25  1  0
 25 26  2  0
 26 27  1  0
 27 28  2  0
 12  7  1  0
 17 13  1  0
 28 18  1  0
 27 21  1  0
  3 29  1  0
  4 30  1  0
  4 31  1  0
  8 32  1  0
  8 33  1  0
  9 34  1  6
 10 35  1  0
 11 36  1  0
 11 37  1  0
 12 38  1  1
 13 39  1  0
 14 40  1  0
 14 41  1  0
 15 42  1  0
 15 43  1  0
 16 44  1  0
 16 45  1  0
 17 46  1  0
 17 47  1  0
 19 48  1  0
 20 49  1  0
 22 50  1  0
 25 51  1  0
 26 52  1  0
M  END
>  <smiles>  (24) 
O=C(NCC(=O)N1C[C@H](O)C[C@H]1C1CCCC1)c1ccc2cc(F)ccc2n1

>  <score_type>  (24) 
oracle

>  <origin>  (24) 
autodockgpu

>  <m_score__min__energy>  (24) 
-8.7899999999999991

>  <m_primary>  (24) 
energy

>  <rmsd>  (24) 
1.9039015846188954

>  <m_score__min__rmsd>  (24) 
1.9039015846188954

>  <meeko>  (24) 
{"free_energy": -8.02, "intermolecular_energy": -9.81, "internal_energy": -1.42, "cluster_size": 37, "cluster_id": 1, "rank_in_cluster": 31}

>  <energy>  (24) 
-8.27

>  <cluster_rmsd>  (24) 
0.85

>  <cluster>  (24) 
1

$$$$

     RDKit          3D

 52 55  0  0  0  0  0  0  0  0999 V2000
  140.8520   71.8380  221.2050 O   0  0  0  0  0  0  0  0  0  0  0  0
  140.3660   72.3280  222.2700 C   0  0  0  0  0  0  0  0  0  0  0  0
  139.9630   73.6980  222.3370 N   0  0  0  0  0  0  0  0  0  0  0  0
  140.0930   74.5780  221.1950 C   0  0  0  0  0  0  0  0  0  0  0  0
  139.5970   75.9590  221.5470 C   0  0  0  0  0  0  0  0  0  0  0  0
  139.0680   76.0580  222.6850 O   0  0  0  0  0  0  0  0  0  0  0  0
  139.7300   77.0520  220.6450 N   0  0  0  0  0  0  0  0  0  0  0  0
  138.7700   77.3040  219.5850 C   0  0  0  0  0  0  0  0  0  0  0  0
  139.3650   78.5310  218.8870 C   0  0  2  0  0  0  0  0  0  0  0  0
  140.2290   78.1250  217.8650 O   0  0  0  0  0  0  0  0  0  0  0  0
  140.2340   79.1850  219.9510 C   0  0  0  0  0  0  0  0  0  0  0  0
  140.7890   77.9980  220.6690 C   0  0  1  0  0  0  0  0  0  0  0  0
  141.4080   78.3050  221.9820 C   0  0  0  0  0  0  0  0  0  0  0  0
  140.4820   78.6570  223.0880 C   0  0  0  0  0  0  0  0  0  0  0  0
  141.4810   79.1480  224.1480 C   0  0  0  0  0  0  0  0  0  0  0  0
  142.4500   79.9860  223.3380 C   0  0  0  0  0  0  0  0  0  0  0  0
  142.2430   79.5890  221.8800 C   0  0  0  0  0  0  0  0  0  0  0  0
  140.2150   71.4840  223.4460 C   0  0  0  0  0  0  0  0  0  0  0  0
  139.6090   70.2480  223.3400 C   0  0  0  0  0  0  0  0  0  0  0  0
  139.4370   69.4050  224.4190 C   0  0  0  0  0  0  0  0  0  0  0  0
  139.9060   69.8560  225.6420 C   0  0  0  0  0  0  0  0  0  0  0  0
  139.7620   69.0550  226.7530 C   0  0  0  0  0  0  0  0  0  0  0  0
  140.2210   69.4970  227.9530 C   0  0  0  0  0  0  0  0  0  0  0  0
  140.0870   68.7170  229.0660 F   0  0  0  0  0  0  0  0  0  0  0  0
  140.8300   70.7310  228.0780 C   0  0  0  0  0  0  0  0  0  0  0  0
  140.9880   71.5530  226.9860 C   0  0  0  0  0  0  0  0  0  0  0  0
  140.5180   71.1050  225.7500 C   0  0  0  0  0  0  0  0  0  0  0  0
  140.6560   71.8880  224.6440 N   0  0  0  0  0  0  0  0  0  0  0  0
  139.5690   74.0320  223.2530 H   0  0  0  0  0  0  0  0  0  0  0  0
  141.1507   74.6357  220.8984 H   0  0  0  0  0  0  0  0  0  0  0  0
  139.4928   74.1804  220.3633 H   0  0  0  0  0  0  0  0  0  0  0  0
  138.7031   76.4483  218.8971 H   0  0  0  0  0  0  0  0  0  0  0  0
  137.7439   77.4602  219.9494 H   0  0  0  0  0  0  0  0  0  0  0  0
  138.5800   79.1796  218.4710 H   0  0  0  0  0  0  0  0  0  0  0  0
  140.5260   77.1920  217.9860 H   0  0  0  0  0  0  0  0  0  0  0  0
  141.0343   79.7888  219.4982 H   0  0  0  0  0  0  0  0  0  0  0  0
  139.6883   79.8832  220.6027 H   0  0  0  0  0  0  0  0  0  0  0  0
  141.6766   77.5729  220.1776 H   0  0  0  0  0  0  0  0  0  0  0  0
  141.9438   77.3705  222.2047 H   0  0  0  0  0  0  0  0  0  0  0  0
  139.7808   79.4514  222.7927 H   0  0  0  0  0  0  0  0  0  0  0  0
  139.8314   77.8341  223.4191 H   0  0  0  0  0  0  0  0  0  0  0  0
  140.9778   79.7553  224.9148 H   0  0  0  0  0  0  0  0  0  0  0  0
  141.9689   78.3293  224.6972 H   0  0  0  0  0  0  0  0  0  0  0  0
  142.2356   81.0561  223.4756 H   0  0  0  0  0  0  0  0  0  0  0  0
  143.4892   79.8150  223.6556 H   0  0  0  0  0  0  0  0  0  0  0  0
  141.6981   80.3715  221.3316 H   0  0  0  0  0  0  0  0  0  0  0  0
  143.1868   79.4478  221.3329 H   0  0  0  0  0  0  0  0  0  0  0  0
  139.2479   69.9213  222.3536 H   0  0  0  0  0  0  0  0  0  0  0  0
  138.9516   68.4236  224.3132 H   0  0  0  0  0  0  0  0  0  0  0  0
  139.2811   68.0692  226.6699 H   0  0  0  0  0  0  0  0  0  0  0  0
  141.1930   71.0603  229.0628 H   0  0  0  0  0  0  0  0  0  0  0  0
  141.4714   72.5362  227.0841 H   0  0  0  0  0  0  0  0  0  0  0  0
  1  2  2  0
  2  3  1  0
  3  4  1  0
  4  5  1  0
  5  6  2  0
  5  7  1  0
  7  8  1  0
  8  9  1  0
  9 10  1  0
  9 11  1  0
 11 12  1  0
 12 13  1  0
 13 14  1  0
 14 15  1  0
 15 16  1  0
 16 17  1  0
  2 18  1  0
 18 19  2  0
 19 20  1  0
 20 21  2  0
 21 22  1  0
 22 23  2  0
 23 24  1  0
 23 25  1  0
 25 26  2  0
 26 27  1  0
 27 28  2  0
 12  7  1  0
 17 13  1  0
 28 18  1  0
 27 21  1  0
  3 29  1  0
  4 30  1  0
  4 31  1  0
  8 32  1  0
  8 33  1  0
  9 34  1  6
 10 35  1  0
 11 36  1  0
 11 37  1  0
 12 38  1  6
 13 39  1  0
 14 40  1  0
 14 41  1  0
 15 42  1  0
 15 43  1  0
 16 44  1  0
 16 45  1  0
 17 46  1  0
 17 47  1  0
 19 48  1  0
 20 49  1  0
 22 50  1  0
 25 51  1  0
 26 52  1  0
M  END
>  <smiles>  (25) 
O=C(NCC(=O)N1C[C@H](O)C[C@H]1C1CCCC1)c1ccc2cc(F)ccc2n1

>  <score_type>  (25) 
oracle

>  <origin>  (25) 
autodockgpu

>  <m_score__min__energy>  (25) 
-8.7899999999999991

>  <m_primary>  (25) 
energy

>  <rmsd>  (25) 
1.9133884934728094

>  <m_score__min__rmsd>  (25) 
1.9133884934728094

>  <meeko>  (25) 
{"free_energy": -7.47, "intermolecular_energy": -9.26, "internal_energy": -1.87, "cluster_size": 37, "cluster_id": 1, "rank_in_cluster": 37}

>  <energy>  (25) 
-8.26

>  <cluster_rmsd>  (25) 
0.78

>  <cluster>  (25) 
1

$$$$

     RDKit          3D

 52 55  0  0  0  0  0  0  0  0999 V2000
  140.9910   71.7430  221.2060 O   0  0  0  0  0  0  0  0  0  0  0  0
  140.4520   72.2780  222.2230 C   0  0  0  0  0  0  0  0  0  0  0  0
  140.0550   73.6520  222.2120 N   0  0  0  0  0  0  0  0  0  0  0  0
  140.2510   74.4840  221.0440 C   0  0  0  0  0  0  0  0  0  0  0  0
  140.5270   75.9060  221.4620 C   0  0  0  0  0  0  0  0  0  0  0  0
  140.1720   76.1930  222.6360 O   0  0  0  0  0  0  0  0  0  0  0  0
  141.1440   76.8370  220.5800 N   0  0  0  0  0  0  0  0  0  0  0  0
  141.1140   76.6780  219.1380 C   0  0  0  0  0  0  0  0  0  0  0  0
  141.9300   77.8800  218.6550 C   0  0  2  0  0  0  0  0  0  0  0  0
  143.2810   77.5320  218.5590 O   0  0  0  0  0  0  0  0  0  0  0  0
  141.8250   78.8870  219.7920 C   0  0  0  0  0  0  0  0  0  0  0  0
  141.8490   78.0000  220.9940 C   0  0  1  0  0  0  0  0  0  0  0  0
  141.4170   78.6550  222.2520 C   0  0  0  0  0  0  0  0  0  0  0  0
  140.3510   79.6820  222.1370 C   0  0  0  0  0  0  0  0  0  0  0  0
  140.3830   80.2840  223.5510 C   0  0  0  0  0  0  0  0  0  0  0  0
  141.8680   80.3990  223.8360 C   0  0  0  0  0  0  0  0  0  0  0  0
  142.5680   79.4920  222.8280 C   0  0  0  0  0  0  0  0  0  0  0  0
  140.2330   71.4840  223.4230 C   0  0  0  0  0  0  0  0  0  0  0  0
  139.5300   70.2990  223.3520 C   0  0  0  0  0  0  0  0  0  0  0  0
  139.2910   69.5040  224.4550 C   0  0  0  0  0  0  0  0  0  0  0  0
  139.7950   69.9520  225.6640 C   0  0  0  0  0  0  0  0  0  0  0  0
  139.5860   69.1980  226.7990 C   0  0  0  0  0  0  0  0  0  0  0  0
  140.0800   69.6360  227.9860 C   0  0  0  0  0  0  0  0  0  0  0  0
  139.8840   68.9030  229.1200 F   0  0  0  0  0  0  0  0  0  0  0  0
  140.7860   70.8200  228.0760 C   0  0  0  0  0  0  0  0  0  0  0  0
  141.0110   71.5940  226.9610 C   0  0  0  0  0  0  0  0  0  0  0  0
  140.5060   71.1500  225.7370 C   0  0  0  0  0  0  0  0  0  0  0  0
  140.7060   71.8860  224.6090 N   0  0  0  0  0  0  0  0  0  0  0  0
  139.6150   74.0250  223.0920 H   0  0  0  0  0  0  0  0  0  0  0  0
  141.1048   74.1027  220.4647 H   0  0  0  0  0  0  0  0  0  0  0  0
  139.3403   74.4600  220.4276 H   0  0  0  0  0  0  0  0  0  0  0  0
  141.5827   75.7308  218.8327 H   0  0  0  0  0  0  0  0  0  0  0  0
  140.0964   76.6431  218.7218 H   0  0  0  0  0  0  0  0  0  0  0  0
  141.5730   78.2452  217.6808 H   0  0  0  0  0  0  0  0  0  0  0  0
  143.7370   77.5920  219.4330 H   0  0  0  0  0  0  0  0  0  0  0  0
  142.6777   79.5819  219.7907 H   0  0  0  0  0  0  0  0  0  0  0  0
  140.9356   79.5316  219.7335 H   0  0  0  0  0  0  0  0  0  0  0  0
  142.8668   77.7246  221.3073 H   0  0  0  0  0  0  0  0  0  0  0  0
  141.0685   77.7973  222.8461 H   0  0  0  0  0  0  0  0  0  0  0  0
  140.5928   80.4334  221.3708 H   0  0  0  0  0  0  0  0  0  0  0  0
  139.3703   79.2902  221.8292 H   0  0  0  0  0  0  0  0  0  0  0  0
  139.8983   81.2712  223.5720 H   0  0  0  0  0  0  0  0  0  0  0  0
  139.8435   79.6779  224.2937 H   0  0  0  0  0  0  0  0  0  0  0  0
  142.2011   81.4395  223.7080 H   0  0  0  0  0  0  0  0  0  0  0  0
  142.1012   80.1036  224.8696 H   0  0  0  0  0  0  0  0  0  0  0  0
  143.0591   80.0824  222.0405 H   0  0  0  0  0  0  0  0  0  0  0  0
  143.3638   78.8800  223.2777 H   0  0  0  0  0  0  0  0  0  0  0  0
  139.1435   69.9738  222.3748 H   0  0  0  0  0  0  0  0  0  0  0  0
  138.7284   68.5620  224.3771 H   0  0  0  0  0  0  0  0  0  0  0  0
  139.0258   68.2529  226.7440 H   0  0  0  0  0  0  0  0  0  0  0  0
  141.1733   71.1482  229.0518 H   0  0  0  0  0  0  0  0  0  0  0  0
  141.5733   72.5368  227.0317 H   0  0  0  0  0  0  0  0  0  0  0  0
  1  2  2  0
  2  3  1  0
  3  4  1  0
  4  5  1  0
  5  6  2  0
  5  7  1  0
  7  8  1  0
  8  9  1  0
  9 10  1  0
  9 11  1  0
 11 12  1  0
 12 13  1  0
 13 14  1  0
 14 15  1  0
 15 16  1  0
 16 17  1  0
  2 18  1  0
 18 19  2  0
 19 20  1  0
 20 21  2  0
 21 22  1  0
 22 23  2  0
 23 24  1  0
 23 25  1  0
 25 26  2  0
 26 27  1  0
 27 28  2  0
 12  7  1  0
 17 13  1  0
 28 18  1  0
 27 21  1  0
  3 29  1  0
  4 30  1  0
  4 31  1  0
  8 32  1  0
  8 33  1  0
  9 34  1  6
 10 35  1  0
 11 36  1  0
 11 37  1  0
 12 38  1  1
 13 39  1  0
 14 40  1  0
 14 41  1  0
 15 42  1  0
 15 43  1  0
 16 44  1  0
 16 45  1  0
 17 46  1  0
 17 47  1  0
 19 48  1  0
 20 49  1  0
 22 50  1  0
 25 51  1  0
 26 52  1  0
M  END
>  <smiles>  (26) 
O=C(NCC(=O)N1C[C@H](O)C[C@H]1C1CCCC1)c1ccc2cc(F)ccc2n1

>  <score_type>  (26) 
oracle

>  <origin>  (26) 
autodockgpu

>  <m_score__min__energy>  (26) 
-8.7899999999999991

>  <m_primary>  (26) 
energy

>  <rmsd>  (26) 
1.8678388658568628

>  <m_score__min__rmsd>  (26) 
1.8678388658568628

>  <meeko>  (26) 
{"free_energy": -8.74, "intermolecular_energy": -10.53, "internal_energy": -1.67, "cluster_size": 37, "cluster_id": 1, "rank_in_cluster": 5}

>  <energy>  (26) 
-8.26

>  <cluster_rmsd>  (26) 
0.91

>  <cluster>  (26) 
1

$$$$

     RDKit          3D

 52 55  0  0  0  0  0  0  0  0999 V2000
  140.3280   71.7130  221.0950 O   0  0  0  0  0  0  0  0  0  0  0  0
  140.0330   72.2560  222.2030 C   0  0  0  0  0  0  0  0  0  0  0  0
  139.7940   73.6620  222.2970 N   0  0  0  0  0  0  0  0  0  0  0  0
  139.8780   74.5200  221.1340 C   0  0  0  0  0  0  0  0  0  0  0  0
  140.4400   75.8650  221.5220 C   0  0  0  0  0  0  0  0  0  0  0  0
  140.2430   76.1960  222.7210 O   0  0  0  0  0  0  0  0  0  0  0  0
  141.1380   76.6800  220.5870 N   0  0  0  0  0  0  0  0  0  0  0  0
  141.2850   76.3090  219.1920 C   0  0  0  0  0  0  0  0  0  0  0  0
  142.1260   77.4590  218.6320 C   0  0  2  0  0  0  0  0  0  0  0  0
  143.4870   77.1550  218.7470 O   0  0  0  0  0  0  0  0  0  0  0  0
  141.8630   78.6170  219.5830 C   0  0  0  0  0  0  0  0  0  0  0  0
  141.7610   77.9190  220.9000 C   0  0  1  0  0  0  0  0  0  0  0  0
  141.1650   78.7340  221.9870 C   0  0  0  0  0  0  0  0  0  0  0  0
  140.7180   80.1020  221.6240 C   0  0  0  0  0  0  0  0  0  0  0  0
  140.4300   80.6840  223.0170 C   0  0  0  0  0  0  0  0  0  0  0  0
  141.6050   80.1920  223.8390 C   0  0  0  0  0  0  0  0  0  0  0  0
  142.2290   79.0460  223.0490 C   0  0  0  0  0  0  0  0  0  0  0  0
  139.9360   71.4360  223.4020 C   0  0  0  0  0  0  0  0  0  0  0  0
  139.3570   70.1850  223.3430 C   0  0  0  0  0  0  0  0  0  0  0  0
  139.2370   69.3640  224.4460 C   0  0  0  0  0  0  0  0  0  0  0  0
  139.7310   69.8540  225.6430 C   0  0  0  0  0  0  0  0  0  0  0  0
  139.6380   69.0770  226.7760 C   0  0  0  0  0  0  0  0  0  0  0  0
  140.1220   69.5570  227.9510 C   0  0  0  0  0  0  0  0  0  0  0  0
  140.0380   68.8010  229.0850 F   0  0  0  0  0  0  0  0  0  0  0  0
  140.7040   70.8070  228.0300 C   0  0  0  0  0  0  0  0  0  0  0  0
  140.8110   71.6070  226.9150 C   0  0  0  0  0  0  0  0  0  0  0  0
  140.3160   71.1190  225.7040 C   0  0  0  0  0  0  0  0  0  0  0  0
  140.4030   71.8790  224.5770 N   0  0  0  0  0  0  0  0  0  0  0  0
  139.5540   74.0400  223.2490 H   0  0  0  0  0  0  0  0  0  0  0  0
  140.5345   74.0538  220.3845 H   0  0  0  0  0  0  0  0  0  0  0  0
  138.8705   74.6580  220.7147 H   0  0  0  0  0  0  0  0  0  0  0  0
  141.8082   75.3468  219.0893 H   0  0  0  0  0  0  0  0  0  0  0  0
  140.3262   76.1717  218.6707 H   0  0  0  0  0  0  0  0  0  0  0  0
  141.8804   77.6624  217.5793 H   0  0  0  0  0  0  0  0  0  0  0  0
  143.9610   77.8120  219.3110 H   0  0  0  0  0  0  0  0  0  0  0  0
  142.6944   79.3373  219.5755 H   0  0  0  0  0  0  0  0  0  0  0  0
  140.9733   79.2101  219.3249 H   0  0  0  0  0  0  0  0  0  0  0  0
  142.7394   77.7351  221.3678 H   0  0  0  0  0  0  0  0  0  0  0  0
  140.3101   78.1140  222.2946 H   0  0  0  0  0  0  0  0  0  0  0  0
  141.5094   80.6632  221.1055 H   0  0  0  0  0  0  0  0  0  0  0  0
  139.8660   80.1356  220.9290 H   0  0  0  0  0  0  0  0  0  0  0  0
  140.3998   81.7832  222.9882 H   0  0  0  0  0  0  0  0  0  0  0  0
  139.4557   80.3755  223.4238 H   0  0  0  0  0  0  0  0  0  0  0  0
  142.3370   81.0009  223.9795 H   0  0  0  0  0  0  0  0  0  0  0  0
  141.2841   79.8614  224.8379 H   0  0  0  0  0  0  0  0  0  0  0  0
  143.1743   79.3580  222.5809 H   0  0  0  0  0  0  0  0  0  0  0  0
  142.4825   78.1776  223.6748 H   0  0  0  0  0  0  0  0  0  0  0  0
  138.9748   69.8267  222.3758 H   0  0  0  0  0  0  0  0  0  0  0  0
  138.7719   68.3695  224.3774 H   0  0  0  0  0  0  0  0  0  0  0  0
  139.1772   68.0792  226.7302 H   0  0  0  0  0  0  0  0  0  0  0  0
  141.0868   71.1678  228.9961 H   0  0  0  0  0  0  0  0  0  0  0  0
  141.2736   72.6031  226.9763 H   0  0  0  0  0  0  0  0  0  0  0  0
  1  2  2  0
  2  3  1  0
  3  4  1  0
  4  5  1  0
  5  6  2  0
  5  7  1  0
  7  8  1  0
  8  9  1  0
  9 10  1  0
  9 11  1  0
 11 12  1  0
 12 13  1  0
 13 14  1  0
 14 15  1  0
 15 16  1  0
 16 17  1  0
  2 18  1  0
 18 19  2  0
 19 20  1  0
 20 21  2  0
 21 22  1  0
 22 23  2  0
 23 24  1  0
 23 25  1  0
 25 26  2  0
 26 27  1  0
 27 28  2  0
 12  7  1  0
 17 13  1  0
 28 18  1  0
 27 21  1  0
  3 29  1  0
  4 30  1  0
  4 31  1  0
  8 32  1  0
  8 33  1  0
  9 34  1  6
 10 35  1  0
 11 36  1  0
 11 37  1  0
 12 38  1  1
 13 39  1  0
 14 40  1  0
 14 41  1  0
 15 42  1  0
 15 43  1  0
 16 44  1  0
 16 45  1  0
 17 46  1  0
 17 47  1  0
 19 48  1  0
 20 49  1  0
 22 50  1  0
 25 51  1  0
 26 52  1  0
M  END
>  <smiles>  (27) 
O=C(NCC(=O)N1C[C@H](O)C[C@H]1C1CCCC1)c1ccc2cc(F)ccc2n1

>  <score_type>  (27) 
oracle

>  <origin>  (27) 
autodockgpu

>  <m_score__min__energy>  (27) 
-8.7899999999999991

>  <m_primary>  (27) 
energy

>  <rmsd>  (27) 
1.6803788267523831

>  <m_score__min__rmsd>  (27) 
1.6803788267523831

>  <meeko>  (27) 
{"free_energy": -8.55, "intermolecular_energy": -10.34, "internal_energy": -1.69, "cluster_size": 37, "cluster_id": 1, "rank_in_cluster": 18}

>  <energy>  (27) 
-8.25

>  <cluster_rmsd>  (27) 
0.92

>  <cluster>  (27) 
1

$$$$

     RDKit          3D

 52 55  0  0  0  0  0  0  0  0999 V2000
  141.2300   72.4660  221.4050 O   0  0  0  0  0  0  0  0  0  0  0  0
  140.2860   72.6900  222.2230 C   0  0  0  0  0  0  0  0  0  0  0  0
  139.4370   73.8310  222.0770 N   0  0  0  0  0  0  0  0  0  0  0  0
  139.6190   74.7730  220.9940 C   0  0  0  0  0  0  0  0  0  0  0  0
  140.8060   75.6600  221.2750 C   0  0  0  0  0  0  0  0  0  0  0  0
  141.4190   75.4050  222.3450 O   0  0  0  0  0  0  0  0  0  0  0  0
  141.1870   76.7020  220.3820 N   0  0  0  0  0  0  0  0  0  0  0  0
  141.0250   76.5890  218.9440 C   0  0  0  0  0  0  0  0  0  0  0  0
  141.6060   77.9140  218.4420 C   0  0  2  0  0  0  0  0  0  0  0  0
  142.9750   77.7700  218.1930 O   0  0  0  0  0  0  0  0  0  0  0  0
  141.4820   78.8550  219.6310 C   0  0  0  0  0  0  0  0  0  0  0  0
  141.7600   77.9400  220.7800 C   0  0  1  0  0  0  0  0  0  0  0  0
  141.3770   78.4810  222.1060 C   0  0  0  0  0  0  0  0  0  0  0  0
  140.2150   79.4040  222.1390 C   0  0  0  0  0  0  0  0  0  0  0  0
  140.3100   79.9290  223.5800 C   0  0  0  0  0  0  0  0  0  0  0  0
  141.7970   80.1720  223.7540 C   0  0  0  0  0  0  0  0  0  0  0  0
  142.4900   79.3930  222.6400 C   0  0  0  0  0  0  0  0  0  0  0  0
  140.0610   71.7720  223.3300 C   0  0  0  0  0  0  0  0  0  0  0  0
  139.2470   70.6700  223.1640 C   0  0  0  0  0  0  0  0  0  0  0  0
  138.9960   69.7660  224.1760 C   0  0  0  0  0  0  0  0  0  0  0  0
  139.6060   70.0120  225.3940 C   0  0  0  0  0  0  0  0  0  0  0  0
  139.3920   69.1420  226.4410 C   0  0  0  0  0  0  0  0  0  0  0  0
  139.9890   69.3820  227.6370 C   0  0  0  0  0  0  0  0  0  0  0  0
  139.7880   68.5310  228.6850 F   0  0  0  0  0  0  0  0  0  0  0  0
  140.8060   70.4800  227.8220 C   0  0  0  0  0  0  0  0  0  0  0  0
  141.0400   71.3680  226.7960 C   0  0  0  0  0  0  0  0  0  0  0  0
  140.4290   71.1260  225.5640 C   0  0  0  0  0  0  0  0  0  0  0  0
  140.6340   71.9790  224.5230 N   0  0  0  0  0  0  0  0  0  0  0  0
  138.6750   73.9500  222.7940 H   0  0  0  0  0  0  0  0  0  0  0  0
  139.7896   74.2223  220.0572 H   0  0  0  0  0  0  0  0  0  0  0  0
  138.7170   75.3958  220.9021 H   0  0  0  0  0  0  0  0  0  0  0  0
  141.5879   75.7317  218.5464 H   0  0  0  0  0  0  0  0  0  0  0  0
  139.9842   76.4191  218.6312 H   0  0  0  0  0  0  0  0  0  0  0  0
  141.0982   78.2570  217.5285 H   0  0  0  0  0  0  0  0  0  0  0  0
  143.5120   77.9190  219.0070 H   0  0  0  0  0  0  0  0  0  0  0  0
  142.2227   79.6665  219.5777 H   0  0  0  0  0  0  0  0  0  0  0  0
  140.5092   79.3646  219.6944 H   0  0  0  0  0  0  0  0  0  0  0  0
  142.8341   77.8059  220.9755 H   0  0  0  0  0  0  0  0  0  0  0  0
  141.1605   77.5628  222.6717 H   0  0  0  0  0  0  0  0  0  0  0  0
  140.3208   80.2155  221.4040 H   0  0  0  0  0  0  0  0  0  0  0  0
  139.2523   78.9358  221.8859 H   0  0  0  0  0  0  0  0  0  0  0  0
  139.7397   80.8620  223.6998 H   0  0  0  0  0  0  0  0  0  0  0  0
  139.8931   79.2344  224.3241 H   0  0  0  0  0  0  0  0  0  0  0  0
  142.0208   81.2453  223.6647 H   0  0  0  0  0  0  0  0  0  0  0  0
  142.1427   79.8454  224.7459 H   0  0  0  0  0  0  0  0  0  0  0  0
  142.8565   80.0699  221.8542 H   0  0  0  0  0  0  0  0  0  0  0  0
  143.3739   78.8376  222.9870 H   0  0  0  0  0  0  0  0  0  0  0  0
  138.7780   70.5051  222.1827 H   0  0  0  0  0  0  0  0  0  0  0  0
  138.3438   68.8936  224.0225 H   0  0  0  0  0  0  0  0  0  0  0  0
  138.7445   68.2625  226.3095 H   0  0  0  0  0  0  0  0  0  0  0  0
  141.2762   70.6474  228.8023 H   0  0  0  0  0  0  0  0  0  0  0  0
  141.6899   72.2433  226.9428 H   0  0  0  0  0  0  0  0  0  0  0  0
  1  2  2  0
  2  3  1  0
  3  4  1  0
  4  5  1  0
  5  6  2  0
  5  7  1  0
  7  8  1  0
  8  9  1  0
  9 10  1  0
  9 11  1  0
 11 12  1  0
 12 13  1  0
 13 14  1  0
 14 15  1  0
 15 16  1  0
 16 17  1  0
  2 18  1  0
 18 19  2  0
 19 20  1  0
 20 21  2  0
 21 22  1  0
 22 23  2  0
 23 24  1  0
 23 25  1  0
 25 26  2  0
 26 27  1  0
 27 28  2  0
 12  7  1  0
 17 13  1  0
 28 18  1  0
 27 21  1  0
  3 29  1  0
  4 30  1  0
  4 31  1  0
  8 32  1  0
  8 33  1  0
  9 34  1  6
 10 35  1  0
 11 36  1  0
 11 37  1  0
 12 38  1  1
 13 39  1  0
 14 40  1  0
 14 41  1  0
 15 42  1  0
 15 43  1  0
 16 44  1  0
 16 45  1  0
 17 46  1  0
 17 47  1  0
 19 48  1  0
 20 49  1  0
 22 50  1  0
 25 51  1  0
 26 52  1  0
M  END
>  <smiles>  (28) 
O=C(NCC(=O)N1C[C@H](O)C[C@H]1C1CCCC1)c1ccc2cc(F)ccc2n1

>  <score_type>  (28) 
oracle

>  <origin>  (28) 
autodockgpu

>  <m_score__min__energy>  (28) 
-8.7899999999999991

>  <m_primary>  (28) 
energy

>  <rmsd>  (28) 
1.7632950766091047

>  <m_score__min__rmsd>  (28) 
1.7632950766091047

>  <meeko>  (28) 
{"free_energy": -8.27, "intermolecular_energy": -10.06, "internal_energy": -1.24, "cluster_size": 37, "cluster_id": 1, "rank_in_cluster": 24}

>  <energy>  (28) 
-8.1

>  <cluster_rmsd>  (28) 
0.77

>  <cluster>  (28) 
1

$$$$

     RDKit          3D

 52 55  0  0  0  0  0  0  0  0999 V2000
  141.2320   71.5750  221.4270 O   0  0  0  0  0  0  0  0  0  0  0  0
  140.5800   72.1260  222.3660 C   0  0  0  0  0  0  0  0  0  0  0  0
  140.1260   73.4780  222.2550 N   0  0  0  0  0  0  0  0  0  0  0  0
  140.3900   74.2680  221.0720 C   0  0  0  0  0  0  0  0  0  0  0  0
  140.4150   75.7340  221.4240 C   0  0  0  0  0  0  0  0  0  0  0  0
  139.8520   76.0280  222.5110 O   0  0  0  0  0  0  0  0  0  0  0  0
  141.0340   76.6950  220.5750 N   0  0  0  0  0  0  0  0  0  0  0  0
  140.9630   76.6110  219.1280 C   0  0  0  0  0  0  0  0  0  0  0  0
  141.7980   77.8180  218.6870 C   0  0  2  0  0  0  0  0  0  0  0  0
  143.1370   77.4420  218.5380 O   0  0  0  0  0  0  0  0  0  0  0  0
  141.7460   78.7660  219.8760 C   0  0  0  0  0  0  0  0  0  0  0  0
  141.7770   77.8180  221.0300 C   0  0  1  0  0  0  0  0  0  0  0  0
  141.3930   78.4160  222.3310 C   0  0  0  0  0  0  0  0  0  0  0  0
  140.1160   79.1720  222.3650 C   0  0  0  0  0  0  0  0  0  0  0  0
  140.2130   79.8300  223.7510 C   0  0  0  0  0  0  0  0  0  0  0  0
  141.6580   80.2870  223.8090 C   0  0  0  0  0  0  0  0  0  0  0  0
  142.3940   79.5140  222.7180 C   0  0  0  0  0  0  0  0  0  0  0  0
  140.2880   71.3740  223.5770 C   0  0  0  0  0  0  0  0  0  0  0  0
  139.5900   70.1860  223.5050 C   0  0  0  0  0  0  0  0  0  0  0  0
  139.2830   69.4300  224.6180 C   0  0  0  0  0  0  0  0  0  0  0  0
  139.7130   69.9200  225.8400 C   0  0  0  0  0  0  0  0  0  0  0  0
  139.4350   69.2070  226.9850 C   0  0  0  0  0  0  0  0  0  0  0  0
  139.8550   69.6870  228.1840 C   0  0  0  0  0  0  0  0  0  0  0  0
  139.5890   68.9930  229.3300 F   0  0  0  0  0  0  0  0  0  0  0  0
  140.5550   70.8740  228.2760 C   0  0  0  0  0  0  0  0  0  0  0  0
  140.8470   71.6100  227.1500 C   0  0  0  0  0  0  0  0  0  0  0  0
  140.4180   71.1220  225.9150 C   0  0  0  0  0  0  0  0  0  0  0  0
  140.6870   71.8190  224.7760 N   0  0  0  0  0  0  0  0  0  0  0  0
  139.5920   73.8670  223.0740 H   0  0  0  0  0  0  0  0  0  0  0  0
  141.3639   73.9782  220.6506 H   0  0  0  0  0  0  0  0  0  0  0  0
  139.5947   74.0881  220.3336 H   0  0  0  0  0  0  0  0  0  0  0  0
  141.3996   75.6700  218.7621 H   0  0  0  0  0  0  0  0  0  0  0  0
  139.9349   76.6214  218.7371 H   0  0  0  0  0  0  0  0  0  0  0  0
  141.4270   78.2431  217.7427 H   0  0  0  0  0  0  0  0  0  0  0  0
  143.6550   77.6030  219.3630 H   0  0  0  0  0  0  0  0  0  0  0  0
  142.6156   79.4396  219.8885 H   0  0  0  0  0  0  0  0  0  0  0  0
  140.8716   79.4334  219.8734 H   0  0  0  0  0  0  0  0  0  0  0  0
  142.7951   77.5035  221.3028 H   0  0  0  0  0  0  0  0  0  0  0  0
  141.3383   77.5303  222.9811 H   0  0  0  0  0  0  0  0  0  0  0  0
  140.0675   79.9225  221.5623 H   0  0  0  0  0  0  0  0  0  0  0  0
  139.2166   78.5573  222.2127 H   0  0  0  0  0  0  0  0  0  0  0  0
  139.5243   80.6839  223.8327 H   0  0  0  0  0  0  0  0  0  0  0  0
  139.9383   79.1530  224.5733 H   0  0  0  0  0  0  0  0  0  0  0  0
  141.7236   81.3687  223.6201 H   0  0  0  0  0  0  0  0  0  0  0  0
  142.0981   80.0990  224.7994 H   0  0  0  0  0  0  0  0  0  0  0  0
  142.6199   80.1627  221.8588 H   0  0  0  0  0  0  0  0  0  0  0  0
  143.3641   79.1161  223.0505 H   0  0  0  0  0  0  0  0  0  0  0  0
  139.2642   69.8260  222.5180 H   0  0  0  0  0  0  0  0  0  0  0  0
  138.7247   68.4855  224.5386 H   0  0  0  0  0  0  0  0  0  0  0  0
  138.8791   68.2595  226.9290 H   0  0  0  0  0  0  0  0  0  0  0  0
  140.8833   71.2358  229.2615 H   0  0  0  0  0  0  0  0  0  0  0  0
  141.4030   72.5564  227.2217 H   0  0  0  0  0  0  0  0  0  0  0  0
  1  2  2  0
  2  3  1  0
  3  4  1  0
  4  5  1  0
  5  6  2  0
  5  7  1  0
  7  8  1  0
  8  9  1  0
  9 10  1  0
  9 11  1  0
 11 12  1  0
 12 13  1  0
 13 14  1  0
 14 15  1  0
 15 16  1  0
 16 17  1  0
  2 18  1  0
 18 19  2  0
 19 20  1  0
 20 21  2  0
 21 22  1  0
 22 23  2  0
 23 24  1  0
 23 25  1  0
 25 26  2  0
 26 27  1  0
 27 28  2  0
 12  7  1  0
 17 13  1  0
 28 18  1  0
 27 21  1  0
  3 29  1  0
  4 30  1  0
  4 31  1  0
  8 32  1  0
  8 33  1  0
  9 34  1  6
 10 35  1  0
 11 36  1  0
 11 37  1  0
 12 38  1  1
 13 39  1  0
 14 40  1  0
 14 41  1  0
 15 42  1  0
 15 43  1  0
 16 44  1  0
 16 45  1  0
 17 46  1  0
 17 47  1  0
 19 48  1  0
 20 49  1  0
 22 50  1  0
 25 51  1  0
 26 52  1  0
M  END
>  <smiles>  (29) 
O=C(NCC(=O)N1C[C@H](O)C[C@H]1C1CCCC1)c1ccc2cc(F)ccc2n1

>  <score_type>  (29) 
oracle

>  <origin>  (29) 
autodockgpu

>  <m_score__min__energy>  (29) 
-8.7899999999999991

>  <m_primary>  (29) 
energy

>  <rmsd>  (29) 
1.8580375579601691

>  <m_score__min__rmsd>  (29) 
1.8580375579601691

>  <meeko>  (29) 
{"free_energy": -8.62, "intermolecular_energy": -10.41, "internal_energy": -1.72, "cluster_size": 37, "cluster_id": 1, "rank_in_cluster": 14}

>  <energy>  (29) 
-8.1

>  <cluster_rmsd>  (29) 
0.77

>  <cluster>  (29) 
1

$$$$

     RDKit          3D

 52 55  0  0  0  0  0  0  0  0999 V2000
  140.0070   71.5610  221.1070 O   0  0  0  0  0  0  0  0  0  0  0  0
  139.8580   72.1020  222.2450 C   0  0  0  0  0  0  0  0  0  0  0  0
  139.6830   73.5150  222.3740 N   0  0  0  0  0  0  0  0  0  0  0  0
  139.6700   74.3820  221.2150 C   0  0  0  0  0  0  0  0  0  0  0  0
  140.3290   75.6980  221.5460 C   0  0  0  0  0  0  0  0  0  0  0  0
  140.0620   76.1520  222.6890 O   0  0  0  0  0  0  0  0  0  0  0  0
  141.1850   76.3570  220.6190 N   0  0  0  0  0  0  0  0  0  0  0  0
  141.5030   75.7940  219.3200 C   0  0  0  0  0  0  0  0  0  0  0  0
  142.4650   76.8330  218.7360 C   0  0  2  0  0  0  0  0  0  0  0  0
  143.7820   76.5090  219.0810 O   0  0  0  0  0  0  0  0  0  0  0  0
  142.1290   78.1170  219.4800 C   0  0  0  0  0  0  0  0  0  0  0  0
  141.8170   77.6090  220.8500 C   0  0  1  0  0  0  0  0  0  0  0  0
  141.1180   78.5820  221.7240 C   0  0  0  0  0  0  0  0  0  0  0  0
  141.1740   80.0070  221.3140 C   0  0  0  0  0  0  0  0  0  0  0  0
  140.5950   80.6860  222.5650 C   0  0  0  0  0  0  0  0  0  0  0  0
  141.2670   79.9360  223.6990 C   0  0  0  0  0  0  0  0  0  0  0  0
  141.8100   78.6450  223.0930 C   0  0  0  0  0  0  0  0  0  0  0  0
  139.8640   71.2730  223.4420 C   0  0  0  0  0  0  0  0  0  0  0  0
  139.3850   69.9800  223.3930 C   0  0  0  0  0  0  0  0  0  0  0  0
  139.3650   69.1480  224.4940 C   0  0  0  0  0  0  0  0  0  0  0  0
  139.8550   69.6730  225.6780 C   0  0  0  0  0  0  0  0  0  0  0  0
  139.8600   68.8860  226.8090 C   0  0  0  0  0  0  0  0  0  0  0  0
  140.3400   69.4000  227.9720 C   0  0  0  0  0  0  0  0  0  0  0  0
  140.3520   68.6360  229.1030 F   0  0  0  0  0  0  0  0  0  0  0  0
  140.8230   70.6920  228.0400 C   0  0  0  0  0  0  0  0  0  0  0  0
  140.8310   71.5020  226.9270 C   0  0  0  0  0  0  0  0  0  0  0  0
  140.3390   70.9800  225.7290 C   0  0  0  0  0  0  0  0  0  0  0  0
  140.3300   71.7480  224.6040 N   0  0  0  0  0  0  0  0  0  0  0  0
  139.5650   73.8910  223.3500 H   0  0  0  0  0  0  0  0  0  0  0  0
  140.2165   73.8980  220.3922 H   0  0  0  0  0  0  0  0  0  0  0  0
  138.6281   74.5662  220.9142 H   0  0  0  0  0  0  0  0  0  0  0  0
  141.9903   74.8129  219.4203 H   0  0  0  0  0  0  0  0  0  0  0  0
  140.6185   75.6128  218.6917 H   0  0  0  0  0  0  0  0  0  0  0  0
  142.3747   76.8977  217.6416 H   0  0  0  0  0  0  0  0  0  0  0  0
  144.3490   76.3870  218.2830 H   0  0  0  0  0  0  0  0  0  0  0  0
  142.9860   78.8064  219.4948 H   0  0  0  0  0  0  0  0  0  0  0  0
  141.3108   78.6932  219.0234 H   0  0  0  0  0  0  0  0  0  0  0  0
  142.7131   77.4629  221.4710 H   0  0  0  0  0  0  0  0  0  0  0  0
  140.0833   78.2098  221.6959 H   0  0  0  0  0  0  0  0  0  0  0  0
  142.2063   80.3320  221.1175 H   0  0  0  0  0  0  0  0  0  0  0  0
  140.6378   80.2352  220.3810 H   0  0  0  0  0  0  0  0  0  0  0  0
  140.8526   81.7551  222.5901 H   0  0  0  0  0  0  0  0  0  0  0  0
  139.4966   80.6490  222.6104 H   0  0  0  0  0  0  0  0  0  0  0  0
  142.0885   80.5353  224.1185 H   0  0  0  0  0  0  0  0  0  0  0  0
  140.5608   79.7289  224.5165 H   0  0  0  0  0  0  0  0  0  0  0  0
  142.9033   78.6913  222.9806 H   0  0  0  0  0  0  0  0  0  0  0  0
  141.6143   77.7601  223.7164 H   0  0  0  0  0  0  0  0  0  0  0  0
  139.0028   69.5959  222.4357 H   0  0  0  0  0  0  0  0  0  0  0  0
  138.9793   68.1196  224.4340 H   0  0  0  0  0  0  0  0  0  0  0  0
  139.4802   67.8544  226.7711 H   0  0  0  0  0  0  0  0  0  0  0  0
  141.2062   71.0788  228.9958 H   0  0  0  0  0  0  0  0  0  0  0  0
  141.2143   72.5317  226.9799 H   0  0  0  0  0  0  0  0  0  0  0  0
  1  2  2  0
  2  3  1  0
  3  4  1  0
  4  5  1  0
  5  6  2  0
  5  7  1  0
  7  8  1  0
  8  9  1  0
  9 10  1  0
  9 11  1  0
 11 12  1  0
 12 13  1  0
 13 14  1  0
 14 15  1  0
 15 16  1  0
 16 17  1  0
  2 18  1  0
 18 19  2  0
 19 20  1  0
 20 21  2  0
 21 22  1  0
 22 23  2  0
 23 24  1  0
 23 25  1  0
 25 26  2  0
 26 27  1  0
 27 28  2  0
 12  7  1  0
 17 13  1  0
 28 18  1  0
 27 21  1  0
  3 29  1  0
  4 30  1  0
  4 31  1  0
  8 32  1  0
  8 33  1  0
  9 34  1  6
 10 35  1  0
 11 36  1  0
 11 37  1  0
 12 38  1  1
 13 39  1  0
 14 40  1  0
 14 41  1  0
 15 42  1  0
 15 43  1  0
 16 44  1  0
 16 45  1  0
 17 46  1  0
 17 47  1  0
 19 48  1  0
 20 49  1  0
 22 50  1  0
 25 51  1  0
 26 52  1  0
M  END
>  <smiles>  (30) 
O=C(NCC(=O)N1C[C@H](O)C[C@H]1C1CCCC1)c1ccc2cc(F)ccc2n1

>  <score_type>  (30) 
oracle

>  <origin>  (30) 
autodockgpu

>  <m_score__min__energy>  (30) 
-8.7899999999999991

>  <m_primary>  (30) 
energy

>  <rmsd>  (30) 
1.55602613158081

>  <m_score__min__rmsd>  (30) 
1.55602613158081

>  <meeko>  (30) 
{"free_energy": -8.27, "intermolecular_energy": -10.06, "internal_energy": -1.64, "cluster_size": 37, "cluster_id": 1, "rank_in_cluster": 23}

>  <energy>  (30) 
-8.04

>  <cluster_rmsd>  (30) 
1.01

>  <cluster>  (30) 
1

$$$$

     RDKit          3D

 52 55  0  0  0  0  0  0  0  0999 V2000
  141.3500   72.4240  221.8320 O   0  0  0  0  0  0  0  0  0  0  0  0
  140.3250   72.4600  222.5790 C   0  0  0  0  0  0  0  0  0  0  0  0
  139.2660   73.3900  222.3360 N   0  0  0  0  0  0  0  0  0  0  0  0
  139.3210   74.3230  221.2310 C   0  0  0  0  0  0  0  0  0  0  0  0
  139.7820   75.6740  221.7180 C   0  0  0  0  0  0  0  0  0  0  0  0
  139.2900   76.0380  222.8180 O   0  0  0  0  0  0  0  0  0  0  0  0
  140.7060   76.4610  220.9730 N   0  0  0  0  0  0  0  0  0  0  0  0
  140.9930   76.2030  219.5740 C   0  0  0  0  0  0  0  0  0  0  0  0
  142.0490   77.2640  219.2530 C   0  0  2  0  0  0  0  0  0  0  0  0
  143.3280   76.7530  219.5000 O   0  0  0  0  0  0  0  0  0  0  0  0
  141.8150   78.3550  220.2880 C   0  0  0  0  0  0  0  0  0  0  0  0
  141.4400   77.5600  221.4960 C   0  0  1  0  0  0  0  0  0  0  0  0
  140.8150   78.3490  222.5850 C   0  0  0  0  0  0  0  0  0  0  0  0
  139.6100   79.1400  222.2270 C   0  0  0  0  0  0  0  0  0  0  0  0
  139.4390   79.9860  223.4990 C   0  0  0  0  0  0  0  0  0  0  0  0
  140.8610   80.4030  223.8220 C   0  0  0  0  0  0  0  0  0  0  0  0
  141.7700   79.4610  223.0390 C   0  0  0  0  0  0  0  0  0  0  0  0
  140.2210   71.5420  223.7030 C   0  0  0  0  0  0  0  0  0  0  0  0
  139.6260   70.3080  223.5390 C   0  0  0  0  0  0  0  0  0  0  0  0
  139.4990   69.3960  224.5670 C   0  0  0  0  0  0  0  0  0  0  0  0
  140.0020   69.7760  225.8000 C   0  0  0  0  0  0  0  0  0  0  0  0
  139.9030   68.9050  226.8630 C   0  0  0  0  0  0  0  0  0  0  0  0
  140.3960   69.2760  228.0730 C   0  0  0  0  0  0  0  0  0  0  0  0
  140.3070   68.4260  229.1380 F   0  0  0  0  0  0  0  0  0  0  0  0
  140.9950   70.5070  228.2570 C   0  0  0  0  0  0  0  0  0  0  0  0
  141.1090   71.3990  227.2140 C   0  0  0  0  0  0  0  0  0  0  0  0
  140.6040   71.0230  225.9680 C   0  0  0  0  0  0  0  0  0  0  0  0
  140.6970   71.8760  224.9100 N   0  0  0  0  0  0  0  0  0  0  0  0
  138.4480   73.3610  222.9970 H   0  0  0  0  0  0  0  0  0  0  0  0
  140.0256   73.9491  220.4735 H   0  0  0  0  0  0  0  0  0  0  0  0
  138.3174   74.4212  220.7915 H   0  0  0  0  0  0  0  0  0  0  0  0
  141.3923   75.1881  219.4304 H   0  0  0  0  0  0  0  0  0  0  0  0
  140.1054   76.2568  218.9264 H   0  0  0  0  0  0  0  0  0  0  0  0
  141.9798   77.5987  218.2075 H   0  0  0  0  0  0  0  0  0  0  0  0
  143.8710   77.3750  220.0410 H   0  0  0  0  0  0  0  0  0  0  0  0
  142.7284   78.9423  220.4635 H   0  0  0  0  0  0  0  0  0  0  0  0
  141.0570   79.0944  219.9901 H   0  0  0  0  0  0  0  0  0  0  0  0
  142.3113   77.1909  222.0569 H   0  0  0  0  0  0  0  0  0  0  0  0
  140.5644   77.5674  223.3174 H   0  0  0  0  0  0  0  0  0  0  0  0
  139.7859   79.7691  221.3420 H   0  0  0  0  0  0  0  0  0  0  0  0
  138.7305   78.5369  221.9571 H   0  0  0  0  0  0  0  0  0  0  0  0
  138.8030   80.8630  223.3085 H   0  0  0  0  0  0  0  0  0  0  0  0
  138.9486   79.4422  224.3198 H   0  0  0  0  0  0  0  0  0  0  0  0
  141.0328   81.4442  223.5114 H   0  0  0  0  0  0  0  0  0  0  0  0
  141.0597   80.3452  224.9024 H   0  0  0  0  0  0  0  0  0  0  0  0
  142.2183   79.9731  222.1748 H   0  0  0  0  0  0  0  0  0  0  0  0
  142.6170   79.0865  223.6325 H   0  0  0  0  0  0  0  0  0  0  0  0
  139.2361   70.0395  222.5461 H   0  0  0  0  0  0  0  0  0  0  0  0
  139.0222   68.4165  224.4146 H   0  0  0  0  0  0  0  0  0  0  0  0
  139.4301   67.9204  226.7332 H   0  0  0  0  0  0  0  0  0  0  0  0
  141.3858   70.7782  229.2489 H   0  0  0  0  0  0  0  0  0  0  0  0
  141.5846   72.3803  227.3586 H   0  0  0  0  0  0  0  0  0  0  0  0
  1  2  2  0
  2  3  1  0
  3  4  1  0
  4  5  1  0
  5  6  2  0
  5  7  1  0
  7  8  1  0
  8  9  1  0
  9 10  1  0
  9 11  1  0
 11 12  1  0
 12 13  1  0
 13 14  1  0
 14 15  1  0
 15 16  1  0
 16 17  1  0
  2 18  1  0
 18 19  2  0
 19 20  1  0
 20 21  2  0
 21 22  1  0
 22 23  2  0
 23 24  1  0
 23 25  1  0
 25 26  2  0
 26 27  1  0
 27 28  2  0
 12  7  1  0
 17 13  1  0
 28 18  1  0
 27 21  1  0
  3 29  1  0
  4 30  1  0
  4 31  1  0
  8 32  1  0
  8 33  1  0
  9 34  1  6
 10 35  1  0
 11 36  1  0
 11 37  1  0
 12 38  1  1
 13 39  1  0
 14 40  1  0
 14 41  1  0
 15 42  1  0
 15 43  1  0
 16 44  1  0
 16 45  1  0
 17 46  1  0
 17 47  1  0
 19 48  1  0
 20 49  1  0
 22 50  1  0
 25 51  1  0
 26 52  1  0
M  END
>  <smiles>  (31) 
O=C(NCC(=O)N1C[C@H](O)C[C@H]1C1CCCC1)c1ccc2cc(F)ccc2n1

>  <score_type>  (31) 
oracle

>  <origin>  (31) 
autodockgpu

>  <m_score__min__energy>  (31) 
-8.7899999999999991

>  <m_primary>  (31) 
energy

>  <rmsd>  (31) 
1.7443814772221609

>  <m_score__min__rmsd>  (31) 
1.7443814772221609

>  <meeko>  (31) 
{"free_energy": -8.78, "intermolecular_energy": -10.57, "internal_energy": -1.25, "cluster_size": 37, "cluster_id": 1, "rank_in_cluster": 2}

>  <energy>  (31) 
-8.02

>  <cluster_rmsd>  (31) 
1.08

>  <cluster>  (31) 
1

$$$$

     RDKit          3D

 52 55  0  0  0  0  0  0  0  0999 V2000
  140.8580   71.7120  221.1450 O   0  0  0  0  0  0  0  0  0  0  0  0
  140.3650   72.2500  222.1830 C   0  0  0  0  0  0  0  0  0  0  0  0
  139.9910   73.6300  222.1940 N   0  0  0  0  0  0  0  0  0  0  0  0
  140.1590   74.4660  221.0250 C   0  0  0  0  0  0  0  0  0  0  0  0
  140.3560   75.9020  221.4410 C   0  0  0  0  0  0  0  0  0  0  0  0
  139.9070   76.1910  222.5810 O   0  0  0  0  0  0  0  0  0  0  0  0
  141.0050   76.8430  220.5910 N   0  0  0  0  0  0  0  0  0  0  0  0
  140.9110   76.7750  219.1440 C   0  0  0  0  0  0  0  0  0  0  0  0
  141.7910   77.9480  218.7020 C   0  0  2  0  0  0  0  0  0  0  0  0
  143.1100   77.5160  218.5310 O   0  0  0  0  0  0  0  0  0  0  0  0
  141.7970   78.8870  219.8990 C   0  0  0  0  0  0  0  0  0  0  0  0
  141.8020   77.9280  221.0440 C   0  0  1  0  0  0  0  0  0  0  0  0
  141.4630   78.5310  222.3560 C   0  0  0  0  0  0  0  0  0  0  0  0
  140.2400   79.3710  222.4050 C   0  0  0  0  0  0  0  0  0  0  0  0
  140.3840   80.0000  223.8000 C   0  0  0  0  0  0  0  0  0  0  0  0
  141.8570   80.3570  223.8600 C   0  0  0  0  0  0  0  0  0  0  0  0
  142.5360   79.5530  222.7550 C   0  0  0  0  0  0  0  0  0  0  0  0
  140.1750   71.4510  223.3850 C   0  0  0  0  0  0  0  0  0  0  0  0
  139.5200   70.2380  223.3170 C   0  0  0  0  0  0  0  0  0  0  0  0
  139.3110   69.4390  224.4220 C   0  0  0  0  0  0  0  0  0  0  0  0
  139.7930   69.9100  225.6310 C   0  0  0  0  0  0  0  0  0  0  0  0
  139.6120   69.1520  226.7670 C   0  0  0  0  0  0  0  0  0  0  0  0
  140.0850   69.6140  227.9540 C   0  0  0  0  0  0  0  0  0  0  0  0
  139.9150   68.8770  229.0910 F   0  0  0  0  0  0  0  0  0  0  0  0
  140.7420   70.8260  228.0430 C   0  0  0  0  0  0  0  0  0  0  0  0
  140.9380   71.6050  226.9250 C   0  0  0  0  0  0  0  0  0  0  0  0
  140.4550   71.1360  225.7020 C   0  0  0  0  0  0  0  0  0  0  0  0
  140.6280   71.8760  224.5720 N   0  0  0  0  0  0  0  0  0  0  0  0
  139.5880   74.0050  223.0920 H   0  0  0  0  0  0  0  0  0  0  0  0
  141.0388   74.1271  220.4583 H   0  0  0  0  0  0  0  0  0  0  0  0
  139.2591   74.3926  220.3966 H   0  0  0  0  0  0  0  0  0  0  0  0
  141.3015   75.8193  218.7643 H   0  0  0  0  0  0  0  0  0  0  0  0
  139.8791   76.8332  218.7673 H   0  0  0  0  0  0  0  0  0  0  0  0
  141.4254   78.3970  217.7667 H   0  0  0  0  0  0  0  0  0  0  0  0
  143.7120   77.9030  219.2100 H   0  0  0  0  0  0  0  0  0  0  0  0
  142.6954   79.5217  219.9049 H   0  0  0  0  0  0  0  0  0  0  0  0
  140.9532   79.5925  219.9143 H   0  0  0  0  0  0  0  0  0  0  0  0
  142.8090   77.5664  221.2992 H   0  0  0  0  0  0  0  0  0  0  0  0
  141.3510   77.6416  222.9935 H   0  0  0  0  0  0  0  0  0  0  0  0
  140.2407   80.1350  221.6136 H   0  0  0  0  0  0  0  0  0  0  0  0
  139.3008   78.8208  222.2463 H   0  0  0  0  0  0  0  0  0  0  0  0
  139.7550   80.8973  223.8964 H   0  0  0  0  0  0  0  0  0  0  0  0
  140.0655   79.3312  224.6132 H   0  0  0  0  0  0  0  0  0  0  0  0
  141.9954   81.4345  223.6874 H   0  0  0  0  0  0  0  0  0  0  0  0
  142.2857   80.1243  224.8459 H   0  0  0  0  0  0  0  0  0  0  0  0
  142.8023   80.1979  221.9046 H   0  0  0  0  0  0  0  0  0  0  0  0
  143.4782   79.0859  223.0777 H   0  0  0  0  0  0  0  0  0  0  0  0
  139.1489   69.8938  222.3404 H   0  0  0  0  0  0  0  0  0  0  0  0
  138.7870   68.4748  224.3460 H   0  0  0  0  0  0  0  0  0  0  0  0
  139.0910   68.1847  226.7138 H   0  0  0  0  0  0  0  0  0  0  0  0
  141.1129   71.1727  229.0188 H   0  0  0  0  0  0  0  0  0  0  0  0
  141.4608   72.5704  226.9934 H   0  0  0  0  0  0  0  0  0  0  0  0
  1  2  2  0
  2  3  1  0
  3  4  1  0
  4  5  1  0
  5  6  2  0
  5  7  1  0
  7  8  1  0
  8  9  1  0
  9 10  1  0
  9 11  1  0
 11 12  1  0
 12 13  1  0
 13 14  1  0
 14 15  1  0
 15 16  1  0
 16 17  1  0
  2 18  1  0
 18 19  2  0
 19 20  1  0
 20 21  2  0
 21 22  1  0
 22 23  2  0
 23 24  1  0
 23 25  1  0
 25 26  2  0
 26 27  1  0
 27 28  2  0
 12  7  1  0
 17 13  1  0
 28 18  1  0
 27 21  1  0
  3 29  1  0
  4 30  1  0
  4 31  1  0
  8 32  1  0
  8 33  1  0
  9 34  1  6
 10 35  1  0
 11 36  1  0
 11 37  1  0
 12 38  1  1
 13 39  1  0
 14 40  1  0
 14 41  1  0
 15 42  1  0
 15 43  1  0
 16 44  1  0
 16 45  1  0
 17 46  1  0
 17 47  1  0
 19 48  1  0
 20 49  1  0
 22 50  1  0
 25 51  1  0
 26 52  1  0
M  END
>  <smiles>  (32) 
O=C(NCC(=O)N1C[C@H](O)C[C@H]1C1CCCC1)c1ccc2cc(F)ccc2n1

>  <score_type>  (32) 
oracle

>  <origin>  (32) 
autodockgpu

>  <m_score__min__energy>  (32) 
-8.7899999999999991

>  <m_primary>  (32) 
energy

>  <rmsd>  (32) 
1.8333295888846954

>  <m_score__min__rmsd>  (32) 
1.8333295888846954

>  <meeko>  (32) 
{"free_energy": -8.71, "intermolecular_energy": -10.5, "internal_energy": -1.72, "cluster_size": 37, "cluster_id": 1, "rank_in_cluster": 8}

>  <energy>  (32) 
-7.96

>  <cluster_rmsd>  (32) 
1.16

>  <cluster>  (32) 
1

$$$$

     RDKit          3D

 52 55  0  0  0  0  0  0  0  0999 V2000
  134.7140   68.5120  225.2210 O   0  0  0  0  0  0  0  0  0  0  0  0
  135.0580   69.7090  224.9750 C   0  0  0  0  0  0  0  0  0  0  0  0
  136.1250   70.0000  224.0700 N   0  0  0  0  0  0  0  0  0  0  0  0
  136.8540   68.9440  223.4000 C   0  0  0  0  0  0  0  0  0  0  0  0
  138.2900   68.9330  223.8630 C   0  0  0  0  0  0  0  0  0  0  0  0
  138.6920   67.8300  224.3170 O   0  0  0  0  0  0  0  0  0  0  0  0
  139.1100   70.0940  223.7810 N   0  0  0  0  0  0  0  0  0  0  0  0
  138.9370   71.0950  222.7440 C   0  0  0  0  0  0  0  0  0  0  0  0
  140.0560   72.0920  223.0580 C   0  0  2  0  0  0  0  0  0  0  0  0
  141.2200   71.7330  222.3710 O   0  0  0  0  0  0  0  0  0  0  0  0
  140.3470   71.8780  224.5370 C   0  0  0  0  0  0  0  0  0  0  0  0
  140.1690   70.4010  224.6770 C   0  0  1  0  0  0  0  0  0  0  0  0
  140.0470   69.9240  226.0760 C   0  0  0  0  0  0  0  0  0  0  0  0
  140.6720   70.7690  227.1240 C   0  0  0  0  0  0  0  0  0  0  0  0
  140.5680   69.8360  228.3410 C   0  0  0  0  0  0  0  0  0  0  0  0
  140.9580   68.4870  227.7670 C   0  0  0  0  0  0  0  0  0  0  0  0
  140.8290   68.6150  226.2520 C   0  0  0  0  0  0  0  0  0  0  0  0
  134.3550   70.8070  225.6240 C   0  0  0  0  0  0  0  0  0  0  0  0
  133.3420   70.5470  226.5240 C   0  0  0  0  0  0  0  0  0  0  0  0
  132.6420   71.5460  227.1690 C   0  0  0  0  0  0  0  0  0  0  0  0
  133.0010   72.8490  226.8720 C   0  0  0  0  0  0  0  0  0  0  0  0
  132.3350   73.8870  227.4870 C   0  0  0  0  0  0  0  0  0  0  0  0
  132.6860   75.1660  227.1950 C   0  0  0  0  0  0  0  0  0  0  0  0
  132.0370   76.2070  227.7950 F   0  0  0  0  0  0  0  0  0  0  0  0
  133.6970   75.4450  226.2960 C   0  0  0  0  0  0  0  0  0  0  0  0
  134.3800   74.4310  225.6660 C   0  0  0  0  0  0  0  0  0  0  0  0
  134.0240   73.1130  225.9610 C   0  0  0  0  0  0  0  0  0  0  0  0
  134.6760   72.0800  225.3590 N   0  0  0  0  0  0  0  0  0  0  0  0
  136.3530   71.0160  223.9160 H   0  0  0  0  0  0  0  0  0  0  0  0
  136.3886   67.9752  223.6339 H   0  0  0  0  0  0  0  0  0  0  0  0
  136.8264   69.1192  222.3144 H   0  0  0  0  0  0  0  0  0  0  0  0
  139.0639   70.6568  221.7430 H   0  0  0  0  0  0  0  0  0  0  0  0
  137.9349   71.5484  222.7342 H   0  0  0  0  0  0  0  0  0  0  0  0
  139.7692   73.1192  222.7884 H   0  0  0  0  0  0  0  0  0  0  0  0
  141.0360   71.0750  221.6590 H   0  0  0  0  0  0  0  0  0  0  0  0
  141.3729   72.1830  224.7909 H   0  0  0  0  0  0  0  0  0  0  0  0
  139.7034   72.4681  225.2060 H   0  0  0  0  0  0  0  0  0  0  0  0
  141.0671   69.8297  224.3995 H   0  0  0  0  0  0  0  0  0  0  0  0
  138.9557   69.8829  226.2080 H   0  0  0  0  0  0  0  0  0  0  0  0
  141.7188   71.0058  226.8830 H   0  0  0  0  0  0  0  0  0  0  0  0
  140.1984   71.7524  227.2605 H   0  0  0  0  0  0  0  0  0  0  0  0
  141.2629   70.1437  229.1363 H   0  0  0  0  0  0  0  0  0  0  0  0
  139.5715   69.8386  228.8069 H   0  0  0  0  0  0  0  0  0  0  0  0
  141.9943   68.2409  228.0419 H   0  0  0  0  0  0  0  0  0  0  0  0
  140.3150   67.6845  228.1574 H   0  0  0  0  0  0  0  0  0  0  0  0
  141.8185   68.6796  225.7759 H   0  0  0  0  0  0  0  0  0  0  0  0
  140.3331   67.7504  225.7867 H   0  0  0  0  0  0  0  0  0  0  0  0
  133.0815   69.4996  226.7362 H   0  0  0  0  0  0  0  0  0  0  0  0
  131.8380   71.3178  227.8842 H   0  0  0  0  0  0  0  0  0  0  0  0
  131.5283   73.6819  228.2062 H   0  0  0  0  0  0  0  0  0  0  0  0
  133.9592   76.4915  226.0813 H   0  0  0  0  0  0  0  0  0  0  0  0
  135.1847   74.6520  224.9493 H   0  0  0  0  0  0  0  0  0  0  0  0
  1  2  2  0
  2  3  1  0
  3  4  1  0
  4  5  1  0
  5  6  2  0
  5  7  1  0
  7  8  1  0
  8  9  1  0
  9 10  1  0
  9 11  1  0
 11 12  1  0
 12 13  1  0
 13 14  1  0
 14 15  1  0
 15 16  1  0
 16 17  1  0
  2 18  1  0
 18 19  2  0
 19 20  1  0
 20 21  2  0
 21 22  1  0
 22 23  2  0
 23 24  1  0
 23 25  1  0
 25 26  2  0
 26 27  1  0
 27 28  2  0
 12  7  1  0
 17 13  1  0
 28 18  1  0
 27 21  1  0
  3 29  1  0
  4 30  1  0
  4 31  1  0
  8 32  1  0
  8 33  1  0
  9 34  1  1
 10 35  1  0
 11 36  1  0
 11 37  1  0
 12 38  1  6
 13 39  1  0
 14 40  1  0
 14 41  1  0
 15 42  1  0
 15 43  1  0
 16 44  1  0
 16 45  1  0
 17 46  1  0
 17 47  1  0
 19 48  1  0
 20 49  1  0
 22 50  1  0
 25 51  1  0
 26 52  1  0
M  END
>  <smiles>  (33) 
O=C(NCC(=O)N1C[C@H](O)C[C@H]1C1CCCC1)c1ccc2cc(F)ccc2n1

>  <score_type>  (33) 
oracle

>  <origin>  (33) 
autodockgpu

>  <m_score__min__energy>  (33) 
-8.7899999999999991

>  <m_primary>  (33) 
energy

>  <rmsd>  (33) 
7.400122626059207

>  <m_score__min__rmsd>  (33) 
7.400122626059207

>  <meeko>  (33) 
{"free_energy": -7.46, "intermolecular_energy": -9.25, "internal_energy": -1.71, "cluster_size": 2, "cluster_id": 4, "rank_in_cluster": 1}

>  <energy>  (33) 
-7.95

>  <cluster_rmsd>  (33) 
1.66

>  <cluster>  (33) 
1

$$$$

     RDKit          3D

 52 55  0  0  0  0  0  0  0  0999 V2000
  140.4240   71.7150  221.0760 O   0  0  0  0  0  0  0  0  0  0  0  0
  140.0960   72.2500  222.1790 C   0  0  0  0  0  0  0  0  0  0  0  0
  139.8270   73.6520  222.2700 N   0  0  0  0  0  0  0  0  0  0  0  0
  139.9180   74.5130  221.1100 C   0  0  0  0  0  0  0  0  0  0  0  0
  140.4180   75.8770  221.5160 C   0  0  0  0  0  0  0  0  0  0  0  0
  140.2040   76.1840  222.7180 O   0  0  0  0  0  0  0  0  0  0  0  0
  141.0810   76.7340  220.5930 N   0  0  0  0  0  0  0  0  0  0  0  0
  141.0860   76.4800  219.1640 C   0  0  0  0  0  0  0  0  0  0  0  0
  141.9430   77.6300  218.6280 C   0  0  2  0  0  0  0  0  0  0  0  0
  143.2880   77.2460  218.5940 O   0  0  0  0  0  0  0  0  0  0  0  0
  141.8320   78.7120  219.6930 C   0  0  0  0  0  0  0  0  0  0  0  0
  141.8020   77.9060  220.9500 C   0  0  1  0  0  0  0  0  0  0  0  0
  141.3510   78.6510  222.1510 C   0  0  0  0  0  0  0  0  0  0  0  0
  140.4070   79.7740  221.9220 C   0  0  0  0  0  0  0  0  0  0  0  0
  140.4010   80.4270  223.3130 C   0  0  0  0  0  0  0  0  0  0  0  0
  141.8660   80.4050  223.7040 C   0  0  0  0  0  0  0  0  0  0  0  0
  142.5380   79.3920  222.7820 C   0  0  0  0  0  0  0  0  0  0  0  0
  139.9910   71.4270  223.3750 C   0  0  0  0  0  0  0  0  0  0  0  0
  139.4270   70.1690  223.3040 C   0  0  0  0  0  0  0  0  0  0  0  0
  139.3000   69.3440  224.4030 C   0  0  0  0  0  0  0  0  0  0  0  0
  139.7710   69.8370  225.6080 C   0  0  0  0  0  0  0  0  0  0  0  0
  139.6710   69.0560  226.7390 C   0  0  0  0  0  0  0  0  0  0  0  0
  140.1330   69.5380  227.9220 C   0  0  0  0  0  0  0  0  0  0  0  0
  140.0420   68.7790  229.0520 F   0  0  0  0  0  0  0  0  0  0  0  0
  140.7010   70.7940  228.0120 C   0  0  0  0  0  0  0  0  0  0  0  0
  140.8150   71.5980  226.9000 C   0  0  0  0  0  0  0  0  0  0  0  0
  140.3420   71.1080  225.6810 C   0  0  0  0  0  0  0  0  0  0  0  0
  140.4360   71.8710  224.5570 N   0  0  0  0  0  0  0  0  0  0  0  0
  139.5610   74.0230  223.2180 H   0  0  0  0  0  0  0  0  0  0  0  0
  140.6152   74.0714  220.3827 H   0  0  0  0  0  0  0  0  0  0  0  0
  138.9206   74.6147  220.6575 H   0  0  0  0  0  0  0  0  0  0  0  0
  141.5405   75.5048  218.9348 H   0  0  0  0  0  0  0  0  0  0  0  0
  140.0797   76.4389  218.7216 H   0  0  0  0  0  0  0  0  0  0  0  0
  141.6207   77.9386  217.6226 H   0  0  0  0  0  0  0  0  0  0  0  0
  143.7760   77.5520  219.3960 H   0  0  0  0  0  0  0  0  0  0  0  0
  142.7011   79.3859  219.6706 H   0  0  0  0  0  0  0  0  0  0  0  0
  140.9606   79.3714  219.5672 H   0  0  0  0  0  0  0  0  0  0  0  0
  142.8046   77.6305  221.3089 H   0  0  0  0  0  0  0  0  0  0  0  0
  140.8755   77.8575  222.7462 H   0  0  0  0  0  0  0  0  0  0  0  0
  140.7783   80.4652  221.1511 H   0  0  0  0  0  0  0  0  0  0  0  0
  139.4154   79.4702  221.5552 H   0  0  0  0  0  0  0  0  0  0  0  0
  140.0198   81.4577  223.2647 H   0  0  0  0  0  0  0  0  0  0  0  0
  139.7513   79.9085  224.0335 H   0  0  0  0  0  0  0  0  0  0  0  0
  142.3124   81.4008  223.5661 H   0  0  0  0  0  0  0  0  0  0  0  0
  141.9943   80.1310  224.7616 H   0  0  0  0  0  0  0  0  0  0  0  0
  143.1411   79.8975  222.0134 H   0  0  0  0  0  0  0  0  0  0  0  0
  143.2331   78.7227  223.3100 H   0  0  0  0  0  0  0  0  0  0  0  0
  139.0634   69.8089  222.3303 H   0  0  0  0  0  0  0  0  0  0  0  0
  138.8471   68.3445  224.3255 H   0  0  0  0  0  0  0  0  0  0  0  0
  139.2220   68.0533  226.6844 H   0  0  0  0  0  0  0  0  0  0  0  0
  141.0668   71.1563  228.9841 H   0  0  0  0  0  0  0  0  0  0  0  0
  141.2663   72.5987  226.9700 H   0  0  0  0  0  0  0  0  0  0  0  0
  1  2  2  0
  2  3  1  0
  3  4  1  0
  4  5  1  0
  5  6  2  0
  5  7  1  0
  7  8  1  0
  8  9  1  0
  9 10  1  0
  9 11  1  0
 11 12  1  0
 12 13  1  0
 13 14  1  0
 14 15  1  0
 15 16  1  0
 16 17  1  0
  2 18  1  0
 18 19  2  0
 19 20  1  0
 20 21  2  0
 21 22  1  0
 22 23  2  0
 23 24  1  0
 23 25  1  0
 25 26  2  0
 26 27  1  0
 27 28  2  0
 12  7  1  0
 17 13  1  0
 28 18  1  0
 27 21  1  0
  3 29  1  0
  4 30  1  0
  4 31  1  0
  8 32  1  0
  8 33  1  0
  9 34  1  6
 10 35  1  0
 11 36  1  0
 11 37  1  0
 12 38  1  1
 13 39  1  0
 14 40  1  0
 14 41  1  0
 15 42  1  0
 15 43  1  0
 16 44  1  0
 16 45  1  0
 17 46  1  0
 17 47  1  0
 19 48  1  0
 20 49  1  0
 22 50  1  0
 25 51  1  0
 26 52  1  0
M  END
>  <smiles>  (34) 
O=C(NCC(=O)N1C[C@H](O)C[C@H]1C1CCCC1)c1ccc2cc(F)ccc2n1

>  <score_type>  (34) 
oracle

>  <origin>  (34) 
autodockgpu

>  <m_score__min__energy>  (34) 
-8.7899999999999991

>  <m_primary>  (34) 
energy

>  <rmsd>  (34) 
1.6954467120798646

>  <m_score__min__rmsd>  (34) 
1.6954467120798646

>  <meeko>  (34) 
{"free_energy": -8.69, "intermolecular_energy": -10.48, "internal_energy": -1.7, "cluster_size": 37, "cluster_id": 1, "rank_in_cluster": 10}

>  <energy>  (34) 
-7.92

>  <cluster_rmsd>  (34) 
1.0

>  <cluster>  (34) 
1

$$$$

     RDKit          3D

 52 55  0  0  0  0  0  0  0  0999 V2000
  141.3940   72.4360  221.8290 O   0  0  0  0  0  0  0  0  0  0  0  0
  140.3340   72.5110  222.5220 C   0  0  0  0  0  0  0  0  0  0  0  0
  139.3100   73.4580  222.2050 N   0  0  0  0  0  0  0  0  0  0  0  0
  139.4420   74.3650  221.0860 C   0  0  0  0  0  0  0  0  0  0  0  0
  140.1340   75.6320  221.5250 C   0  0  0  0  0  0  0  0  0  0  0  0
  139.8670   76.0020  222.6980 O   0  0  0  0  0  0  0  0  0  0  0  0
  141.0180   76.3370  220.6610 N   0  0  0  0  0  0  0  0  0  0  0  0
  141.3920   75.8320  219.3520 C   0  0  0  0  0  0  0  0  0  0  0  0
  142.3650   76.9030  218.8510 C   0  0  2  0  0  0  0  0  0  0  0  0
  143.6700   76.5770  219.2330 O   0  0  0  0  0  0  0  0  0  0  0  0
  141.9870   78.1520  219.6340 C   0  0  0  0  0  0  0  0  0  0  0  0
  141.6270   77.5840  220.9680 C   0  0  1  0  0  0  0  0  0  0  0  0
  140.8850   78.5120  221.8550 C   0  0  0  0  0  0  0  0  0  0  0  0
  140.7670   79.9190  221.3970 C   0  0  0  0  0  0  0  0  0  0  0  0
  140.1970   80.5820  222.6610 C   0  0  0  0  0  0  0  0  0  0  0  0
  141.0110   79.9480  223.7730 C   0  0  0  0  0  0  0  0  0  0  0  0
  141.6480   78.6970  223.1740 C   0  0  0  0  0  0  0  0  0  0  0  0
  140.1530   71.6200  223.6590 C   0  0  0  0  0  0  0  0  0  0  0  0
  139.4210   70.4580  223.5200 C   0  0  0  0  0  0  0  0  0  0  0  0
  139.2160   69.5760  224.5620 C   0  0  0  0  0  0  0  0  0  0  0  0
  139.7840   69.9090  225.7800 C   0  0  0  0  0  0  0  0  0  0  0  0
  139.6110   69.0640  226.8540 C   0  0  0  0  0  0  0  0  0  0  0  0
  140.1680   69.3900  228.0500 C   0  0  0  0  0  0  0  0  0  0  0  0
  140.0070   68.5650  229.1260 F   0  0  0  0  0  0  0  0  0  0  0  0
  140.9030   70.5490  228.2070 C   0  0  0  0  0  0  0  0  0  0  0  0
  141.0930   71.4120  227.1530 C   0  0  0  0  0  0  0  0  0  0  0  0
  140.5230   71.0830  225.9210 C   0  0  0  0  0  0  0  0  0  0  0  0
  140.6880   71.9110  224.8510 N   0  0  0  0  0  0  0  0  0  0  0  0
  138.4590   73.4610  222.8250 H   0  0  0  0  0  0  0  0  0  0  0  0
  140.0341   73.8825  220.2944 H   0  0  0  0  0  0  0  0  0  0  0  0
  138.4409   74.6148  220.7047 H   0  0  0  0  0  0  0  0  0  0  0  0
  141.8850   74.8517  219.4298 H   0  0  0  0  0  0  0  0  0  0  0  0
  140.5345   75.6700  218.6824 H   0  0  0  0  0  0  0  0  0  0  0  0
  142.3165   77.0127  217.7576 H   0  0  0  0  0  0  0  0  0  0  0  0
  144.0980   77.3110  219.7350 H   0  0  0  0  0  0  0  0  0  0  0  0
  142.8357   78.8475  219.7114 H   0  0  0  0  0  0  0  0  0  0  0  0
  141.1815   78.7400  219.1699 H   0  0  0  0  0  0  0  0  0  0  0  0
  142.5004   77.4206  221.6164 H   0  0  0  0  0  0  0  0  0  0  0  0
  139.8952   78.0349  221.9062 H   0  0  0  0  0  0  0  0  0  0  0  0
  141.7459   80.3402  221.1245 H   0  0  0  0  0  0  0  0  0  0  0  0
  140.1547   80.0557  220.4935 H   0  0  0  0  0  0  0  0  0  0  0  0
  140.3426   81.6720  222.6361 H   0  0  0  0  0  0  0  0  0  0  0  0
  139.1132   80.4344  222.7778 H   0  0  0  0  0  0  0  0  0  0  0  0
  141.7894   80.6435  224.1200 H   0  0  0  0  0  0  0  0  0  0  0  0
  140.3811   79.7011  224.6403 H   0  0  0  0  0  0  0  0  0  0  0  0
  142.7217   78.8504  222.9904 H   0  0  0  0  0  0  0  0  0  0  0  0
  141.5836   77.8209  223.8361 H   0  0  0  0  0  0  0  0  0  0  0  0
  138.9829   70.2252  222.5383 H   0  0  0  0  0  0  0  0  0  0  0  0
  138.6303   68.6541  224.4311 H   0  0  0  0  0  0  0  0  0  0  0  0
  139.0292   68.1368  226.7450 H   0  0  0  0  0  0  0  0  0  0  0  0
  141.3420   70.7848  229.1876 H   0  0  0  0  0  0  0  0  0  0  0  0
  141.6776   72.3356  227.2768 H   0  0  0  0  0  0  0  0  0  0  0  0
  1  2  2  0
  2  3  1  0
  3  4  1  0
  4  5  1  0
  5  6  2  0
  5  7  1  0
  7  8  1  0
  8  9  1  0
  9 10  1  0
  9 11  1  0
 11 12  1  0
 12 13  1  0
 13 14  1  0
 14 15  1  0
 15 16  1  0
 16 17  1  0
  2 18  1  0
 18 19  2  0
 19 20  1  0
 20 21  2  0
 21 22  1  0
 22 23  2  0
 23 24  1  0
 23 25  1  0
 25 26  2  0
 26 27  1  0
 27 28  2  0
 12  7  1  0
 17 13  1  0
 28 18  1  0
 27 21  1  0
  3 29  1  0
  4 30  1  0
  4 31  1  0
  8 32  1  0
  8 33  1  0
  9 34  1  6
 10 35  1  0
 11 36  1  0
 11 37  1  0
 12 38  1  1
 13 39  1  0
 14 40  1  0
 14 41  1  0
 15 42  1  0
 15 43  1  0
 16 44  1  0
 16 45  1  0
 17 46  1  0
 17 47  1  0
 19 48  1  0
 20 49  1  0
 22 50  1  0
 25 51  1  0
 26 52  1  0
M  END
>  <smiles>  (35) 
O=C(NCC(=O)N1C[C@H](O)C[C@H]1C1CCCC1)c1ccc2cc(F)ccc2n1

>  <score_type>  (35) 
oracle

>  <origin>  (35) 
autodockgpu

>  <m_score__min__energy>  (35) 
-8.7899999999999991

>  <m_primary>  (35) 
energy

>  <rmsd>  (35) 
1.6712239149721393

>  <m_score__min__rmsd>  (35) 
1.6712239149721393

>  <meeko>  (35) 
{"free_energy": -8.71, "intermolecular_energy": -10.5, "internal_energy": -1.25, "cluster_size": 37, "cluster_id": 1, "rank_in_cluster": 7}

>  <energy>  (35) 
-7.66

>  <cluster_rmsd>  (35) 
0.96

>  <cluster>  (35) 
1

$$$$

     RDKit          3D

 52 55  0  0  0  0  0  0  0  0999 V2000
  140.0170   71.5740  221.0870 O   0  0  0  0  0  0  0  0  0  0  0  0
  139.8600   72.1120  222.2260 C   0  0  0  0  0  0  0  0  0  0  0  0
  139.6790   73.5240  222.3580 N   0  0  0  0  0  0  0  0  0  0  0  0
  139.6680   74.3940  221.2010 C   0  0  0  0  0  0  0  0  0  0  0  0
  140.3920   75.6800  221.5140 C   0  0  0  0  0  0  0  0  0  0  0  0
  140.1790   76.1420  222.6660 O   0  0  0  0  0  0  0  0  0  0  0  0
  141.2460   76.3050  220.5630 N   0  0  0  0  0  0  0  0  0  0  0  0
  141.5780   75.6860  219.2930 C   0  0  0  0  0  0  0  0  0  0  0  0
  142.5330   76.7080  218.6680 C   0  0  2  0  0  0  0  0  0  0  0  0
  143.8510   76.4150  219.0350 O   0  0  0  0  0  0  0  0  0  0  0  0
  142.1790   78.0210  219.3490 C   0  0  0  0  0  0  0  0  0  0  0  0
  141.8630   77.5730  220.7390 C   0  0  1  0  0  0  0  0  0  0  0  0
  141.1490   78.5770  221.5640 C   0  0  0  0  0  0  0  0  0  0  0  0
  141.2590   79.9930  221.1330 C   0  0  0  0  0  0  0  0  0  0  0  0
  140.6390   80.7080  222.3440 C   0  0  0  0  0  0  0  0  0  0  0  0
  141.2400   79.9620  223.5210 C   0  0  0  0  0  0  0  0  0  0  0  0
  141.7780   78.6480  222.9630 C   0  0  0  0  0  0  0  0  0  0  0  0
  139.8630   71.2810  223.4210 C   0  0  0  0  0  0  0  0  0  0  0  0
  139.3850   69.9870  223.3680 C   0  0  0  0  0  0  0  0  0  0  0  0
  139.3620   69.1530  224.4670 C   0  0  0  0  0  0  0  0  0  0  0  0
  139.8490   69.6740  225.6530 C   0  0  0  0  0  0  0  0  0  0  0  0
  139.8520   68.8850  226.7830 C   0  0  0  0  0  0  0  0  0  0  0  0
  140.3290   69.3960  227.9480 C   0  0  0  0  0  0  0  0  0  0  0  0
  140.3390   68.6290  229.0770 F   0  0  0  0  0  0  0  0  0  0  0  0
  140.8110   70.6880  228.0200 C   0  0  0  0  0  0  0  0  0  0  0  0
  140.8220   71.5010  226.9090 C   0  0  0  0  0  0  0  0  0  0  0  0
  140.3330   70.9820  225.7090 C   0  0  0  0  0  0  0  0  0  0  0  0
  140.3260   71.7520  224.5860 N   0  0  0  0  0  0  0  0  0  0  0  0
  139.5550   73.8970  223.3340 H   0  0  0  0  0  0  0  0  0  0  0  0
  140.1685   73.8895  220.3614 H   0  0  0  0  0  0  0  0  0  0  0  0
  138.6263   74.6230  220.9320 H   0  0  0  0  0  0  0  0  0  0  0  0
  142.0749   74.7158  219.4411 H   0  0  0  0  0  0  0  0  0  0  0  0
  140.6996   75.4663  218.6684 H   0  0  0  0  0  0  0  0  0  0  0  0
  142.4488   76.7209  217.5713 H   0  0  0  0  0  0  0  0  0  0  0  0
  144.4370   76.3220  218.2460 H   0  0  0  0  0  0  0  0  0  0  0  0
  143.0288   78.7194  219.3374 H   0  0  0  0  0  0  0  0  0  0  0  0
  141.3583   78.5672  218.8611 H   0  0  0  0  0  0  0  0  0  0  0  0
  142.7570   77.4655  221.3708 H   0  0  0  0  0  0  0  0  0  0  0  0
  140.1080   78.2285  221.4947 H   0  0  0  0  0  0  0  0  0  0  0  0
  142.3070   80.2899  220.9798 H   0  0  0  0  0  0  0  0  0  0  0  0
  140.7727   80.2170  220.1721 H   0  0  0  0  0  0  0  0  0  0  0  0
  140.9211   81.7710  222.3632 H   0  0  0  0  0  0  0  0  0  0  0  0
  139.5391   80.6980  222.3386 H   0  0  0  0  0  0  0  0  0  0  0  0
  142.0560   80.5489  223.9679 H   0  0  0  0  0  0  0  0  0  0  0  0
  140.4920   79.7865  224.3082 H   0  0  0  0  0  0  0  0  0  0  0  0
  142.8761   78.6659  222.9013 H   0  0  0  0  0  0  0  0  0  0  0  0
  141.5314   77.7795  223.5913 H   0  0  0  0  0  0  0  0  0  0  0  0
  139.0063   69.6045  222.4087 H   0  0  0  0  0  0  0  0  0  0  0  0
  138.9757   68.1250  224.4036 H   0  0  0  0  0  0  0  0  0  0  0  0
  139.4725   67.8533  226.7421 H   0  0  0  0  0  0  0  0  0  0  0  0
  141.1912   71.0728  228.9778 H   0  0  0  0  0  0  0  0  0  0  0  0
  141.2053   72.5305  226.9654 H   0  0  0  0  0  0  0  0  0  0  0  0
  1  2  2  0
  2  3  1  0
  3  4  1  0
  4  5  1  0
  5  6  2  0
  5  7  1  0
  7  8  1  0
  8  9  1  0
  9 10  1  0
  9 11  1  0
 11 12  1  0
 12 13  1  0
 13 14  1  0
 14 15  1  0
 15 16  1  0
 16 17  1  0
  2 18  1  0
 18 19  2  0
 19 20  1  0
 20 21  2  0
 21 22  1  0
 22 23  2  0
 23 24  1  0
 23 25  1  0
 25 26  2  0
 26 27  1  0
 27 28  2  0
 12  7  1  0
 17 13  1  0
 28 18  1  0
 27 21  1  0
  3 29  1  0
  4 30  1  0
  4 31  1  0
  8 32  1  0
  8 33  1  0
  9 34  1  6
 10 35  1  0
 11 36  1  0
 11 37  1  0
 12 38  1  1
 13 39  1  0
 14 40  1  0
 14 41  1  0
 15 42  1  0
 15 43  1  0
 16 44  1  0
 16 45  1  0
 17 46  1  0
 17 47  1  0
 19 48  1  0
 20 49  1  0
 22 50  1  0
 25 51  1  0
 26 52  1  0
M  END
>  <smiles>  (36) 
O=C(NCC(=O)N1C[C@H](O)C[C@H]1C1CCCC1)c1ccc2cc(F)ccc2n1

>  <score_type>  (36) 
oracle

>  <origin>  (36) 
autodockgpu

>  <m_score__min__energy>  (36) 
-8.7899999999999991

>  <m_primary>  (36) 
energy

>  <rmsd>  (36) 
1.54315763676446

>  <m_score__min__rmsd>  (36) 
1.54315763676446

>  <meeko>  (36) 
{"free_energy": -8.26, "intermolecular_energy": -10.05, "internal_energy": -1.63, "cluster_size": 37, "cluster_id": 1, "rank_in_cluster": 26}

>  <energy>  (36) 
-7.5

>  <cluster_rmsd>  (36) 
1.45

>  <cluster>  (36) 
1

$$$$

     RDKit          3D

 52 55  0  0  0  0  0  0  0  0999 V2000
  140.6690   71.7010  221.1380 O   0  0  0  0  0  0  0  0  0  0  0  0
  140.2450   72.2360  222.2080 C   0  0  0  0  0  0  0  0  0  0  0  0
  139.9090   73.6250  222.2580 N   0  0  0  0  0  0  0  0  0  0  0  0
  140.0380   74.4730  221.0920 C   0  0  0  0  0  0  0  0  0  0  0  0
  140.3440   75.8880  221.5150 C   0  0  0  0  0  0  0  0  0  0  0  0
  139.9690   76.1880  222.6790 O   0  0  0  0  0  0  0  0  0  0  0  0
  141.0080   76.7990  220.6460 N   0  0  0  0  0  0  0  0  0  0  0  0
  140.9540   76.6730  219.2010 C   0  0  0  0  0  0  0  0  0  0  0  0
  141.8380   77.8340  218.7350 C   0  0  2  0  0  0  0  0  0  0  0  0
  143.1640   77.4060  218.6170 O   0  0  0  0  0  0  0  0  0  0  0  0
  141.8060   78.8200  219.8940 C   0  0  0  0  0  0  0  0  0  0  0  0
  141.7870   77.9080  221.0760 C   0  0  1  0  0  0  0  0  0  0  0  0
  141.4080   78.5600  222.3530 C   0  0  0  0  0  0  0  0  0  0  0  0
  140.2040   79.4270  222.3260 C   0  0  0  0  0  0  0  0  0  0  0  0
  140.3060   80.0970  223.7060 C   0  0  0  0  0  0  0  0  0  0  0  0
  141.7830   80.4240  223.8150 C   0  0  0  0  0  0  0  0  0  0  0  0
  142.4870   79.5710  222.7650 C   0  0  0  0  0  0  0  0  0  0  0  0
  140.0970   71.4250  223.4080 C   0  0  0  0  0  0  0  0  0  0  0  0
  139.5160   70.1750  223.3340 C   0  0  0  0  0  0  0  0  0  0  0  0
  139.3490   69.3620  224.4360 C   0  0  0  0  0  0  0  0  0  0  0  0
  139.7970   69.8590  225.6490 C   0  0  0  0  0  0  0  0  0  0  0  0
  139.6560   69.0890  226.7830 C   0  0  0  0  0  0  0  0  0  0  0  0
  140.0950   69.5760  227.9730 C   0  0  0  0  0  0  0  0  0  0  0  0
  139.9640   68.8280  229.1080 F   0  0  0  0  0  0  0  0  0  0  0  0
  140.6790   70.8240  228.0670 C   0  0  0  0  0  0  0  0  0  0  0  0
  140.8330   71.6160  226.9520 C   0  0  0  0  0  0  0  0  0  0  0  0
  140.3840   71.1220  225.7250 C   0  0  0  0  0  0  0  0  0  0  0  0
  140.5190   71.8740  224.5970 N   0  0  0  0  0  0  0  0  0  0  0  0
  139.5640   73.9960  223.1800 H   0  0  0  0  0  0  0  0  0  0  0  0
  140.8543   74.0979  220.4572 H   0  0  0  0  0  0  0  0  0  0  0  0
  139.0926   74.4605  220.5298 H   0  0  0  0  0  0  0  0  0  0  0  0
  141.3608   75.7059  218.8706 H   0  0  0  0  0  0  0  0  0  0  0  0
  139.9323   76.7088  218.7951 H   0  0  0  0  0  0  0  0  0  0  0  0
  141.4947   78.2420  217.7729 H   0  0  0  0  0  0  0  0  0  0  0  0
  143.6890   77.6150  219.4260 H   0  0  0  0  0  0  0  0  0  0  0  0
  142.6997   79.4613  219.8981 H   0  0  0  0  0  0  0  0  0  0  0  0
  140.9572   79.5188  219.8589 H   0  0  0  0  0  0  0  0  0  0  0  0
  142.7895   77.5651  221.3715 H   0  0  0  0  0  0  0  0  0  0  0  0
  141.2493   77.6936  223.0119 H   0  0  0  0  0  0  0  0  0  0  0  0
  140.2540   80.1652  221.5121 H   0  0  0  0  0  0  0  0  0  0  0  0
  139.2596   78.8924  222.1461 H   0  0  0  0  0  0  0  0  0  0  0  0
  139.6942   81.0102  223.7489 H   0  0  0  0  0  0  0  0  0  0  0  0
  139.9399   79.4614  224.5258 H   0  0  0  0  0  0  0  0  0  0  0  0
  141.9527   81.4922  223.6147 H   0  0  0  0  0  0  0  0  0  0  0  0
  142.1663   80.2139  224.8244 H   0  0  0  0  0  0  0  0  0  0  0  0
  142.8026   80.1826  221.9069 H   0  0  0  0  0  0  0  0  0  0  0  0
  143.4040   79.0938  223.1411 H   0  0  0  0  0  0  0  0  0  0  0  0
  139.1715   69.8117  222.3546 H   0  0  0  0  0  0  0  0  0  0  0  0
  138.8833   68.3687  224.3555 H   0  0  0  0  0  0  0  0  0  0  0  0
  139.1938   68.0925  226.7255 H   0  0  0  0  0  0  0  0  0  0  0  0
  141.0253   71.1895  229.0450 H   0  0  0  0  0  0  0  0  0  0  0  0
  141.2969   72.6107  227.0251 H   0  0  0  0  0  0  0  0  0  0  0  0
  1  2  2  0
  2  3  1  0
  3  4  1  0
  4  5  1  0
  5  6  2  0
  5  7  1  0
  7  8  1  0
  8  9  1  0
  9 10  1  0
  9 11  1  0
 11 12  1  0
 12 13  1  0
 13 14  1  0
 14 15  1  0
 15 16  1  0
 16 17  1  0
  2 18  1  0
 18 19  2  0
 19 20  1  0
 20 21  2  0
 21 22  1  0
 22 23  2  0
 23 24  1  0
 23 25  1  0
 25 26  2  0
 26 27  1  0
 27 28  2  0
 12  7  1  0
 17 13  1  0
 28 18  1  0
 27 21  1  0
  3 29  1  0
  4 30  1  0
  4 31  1  0
  8 32  1  0
  8 33  1  0
  9 34  1  6
 10 35  1  0
 11 36  1  0
 11 37  1  0
 12 38  1  1
 13 39  1  0
 14 40  1  0
 14 41  1  0
 15 42  1  0
 15 43  1  0
 16 44  1  0
 16 45  1  0
 17 46  1  0
 17 47  1  0
 19 48  1  0
 20 49  1  0
 22 50  1  0
 25 51  1  0
 26 52  1  0
M  END
>  <smiles>  (37) 
O=C(NCC(=O)N1C[C@H](O)C[C@H]1C1CCCC1)c1ccc2cc(F)ccc2n1

>  <score_type>  (37) 
oracle

>  <origin>  (37) 
autodockgpu

>  <m_score__min__energy>  (37) 
-8.7899999999999991

>  <m_primary>  (37) 
energy

>  <rmsd>  (37) 
1.7808843014578932

>  <m_score__min__rmsd>  (37) 
1.7808843014578932

>  <meeko>  (37) 
{"free_energy": -8.73, "intermolecular_energy": -10.52, "internal_energy": -1.72, "cluster_size": 37, "cluster_id": 1, "rank_in_cluster": 6}

>  <energy>  (37) 
-7.47

>  <cluster_rmsd>  (37) 
1.4

>  <cluster>  (37) 
1

$$$$

     RDKit          3D

 52 55  0  0  0  0  0  0  0  0999 V2000
  141.3370   72.3930  221.7760 O   0  0  0  0  0  0  0  0  0  0  0  0
  140.3170   72.4570  222.5280 C   0  0  0  0  0  0  0  0  0  0  0  0
  139.2760   73.4060  222.2820 N   0  0  0  0  0  0  0  0  0  0  0  0
  139.3450   74.3300  221.1700 C   0  0  0  0  0  0  0  0  0  0  0  0
  139.7640   75.6950  221.6560 C   0  0  0  0  0  0  0  0  0  0  0  0
  139.2320   76.0600  222.7360 O   0  0  0  0  0  0  0  0  0  0  0  0
  140.6950   76.4920  220.9300 N   0  0  0  0  0  0  0  0  0  0  0  0
  140.9750   76.2700  219.5240 C   0  0  0  0  0  0  0  0  0  0  0  0
  142.0430   77.3280  219.2300 C   0  0  2  0  0  0  0  0  0  0  0  0
  143.3160   76.7960  219.4590 O   0  0  0  0  0  0  0  0  0  0  0  0
  141.8230   78.3920  220.2960 C   0  0  0  0  0  0  0  0  0  0  0  0
  141.4420   77.5670  221.4820 C   0  0  1  0  0  0  0  0  0  0  0  0
  140.8290   78.3320  222.5950 C   0  0  0  0  0  0  0  0  0  0  0  0
  139.5630   79.0460  222.2940 C   0  0  0  0  0  0  0  0  0  0  0  0
  139.4070   79.8960  223.5640 C   0  0  0  0  0  0  0  0  0  0  0  0
  140.8170   80.4010  223.8080 C   0  0  0  0  0  0  0  0  0  0  0  0
  141.7390   79.5040  222.9870 C   0  0  0  0  0  0  0  0  0  0  0  0
  140.2000   71.5500  223.6600 C   0  0  0  0  0  0  0  0  0  0  0  0
  139.5830   70.3240  223.5070 C   0  0  0  0  0  0  0  0  0  0  0  0
  139.4430   69.4240  224.5440 C   0  0  0  0  0  0  0  0  0  0  0  0
  139.9550   69.8050  225.7720 C   0  0  0  0  0  0  0  0  0  0  0  0
  139.8440   68.9450  226.8430 C   0  0  0  0  0  0  0  0  0  0  0  0
  140.3460   69.3180  228.0490 C   0  0  0  0  0  0  0  0  0  0  0  0
  140.2440   68.4790  229.1210 F   0  0  0  0  0  0  0  0  0  0  0  0
  140.9650   70.5400  228.2210 C   0  0  0  0  0  0  0  0  0  0  0  0
  141.0920   71.4210  227.1700 C   0  0  0  0  0  0  0  0  0  0  0  0
  140.5780   71.0440  225.9280 C   0  0  0  0  0  0  0  0  0  0  0  0
  140.6840   71.8860  224.8630 N   0  0  0  0  0  0  0  0  0  0  0  0
  138.4620   73.4000  222.9480 H   0  0  0  0  0  0  0  0  0  0  0  0
  140.0790   73.9635  220.4373 H   0  0  0  0  0  0  0  0  0  0  0  0
  138.3528   74.4036  220.7008 H   0  0  0  0  0  0  0  0  0  0  0  0
  141.3621   75.2550  219.3508 H   0  0  0  0  0  0  0  0  0  0  0  0
  140.0865   76.3520  218.8807 H   0  0  0  0  0  0  0  0  0  0  0  0
  141.9759   77.6929  218.1944 H   0  0  0  0  0  0  0  0  0  0  0  0
  143.8420   77.3600  220.0760 H   0  0  0  0  0  0  0  0  0  0  0  0
  142.7431   78.9643  220.4858 H   0  0  0  0  0  0  0  0  0  0  0  0
  141.0725   79.1477  220.0210 H   0  0  0  0  0  0  0  0  0  0  0  0
  142.3101   77.1720  222.0301 H   0  0  0  0  0  0  0  0  0  0  0  0
  140.6637   77.5464  223.3470 H   0  0  0  0  0  0  0  0  0  0  0  0
  139.6552   79.6733  221.3951 H   0  0  0  0  0  0  0  0  0  0  0  0
  138.7084   78.3885  222.0767 H   0  0  0  0  0  0  0  0  0  0  0  0
  138.7105   80.7311  223.3984 H   0  0  0  0  0  0  0  0  0  0  0  0
  138.9928   79.3348  224.4146 H   0  0  0  0  0  0  0  0  0  0  0  0
  140.9099   81.4464  223.4787 H   0  0  0  0  0  0  0  0  0  0  0  0
  141.0746   80.3691  224.8769 H   0  0  0  0  0  0  0  0  0  0  0  0
  142.1104   80.0305  222.0954 H   0  0  0  0  0  0  0  0  0  0  0  0
  142.6367   79.1877  223.5384 H   0  0  0  0  0  0  0  0  0  0  0  0
  139.1865   70.0534  222.5173 H   0  0  0  0  0  0  0  0  0  0  0  0
  138.9487   68.4517  224.4014 H   0  0  0  0  0  0  0  0  0  0  0  0
  139.3544   67.9674  226.7228 H   0  0  0  0  0  0  0  0  0  0  0  0
  141.3617   70.8134  229.2098 H   0  0  0  0  0  0  0  0  0  0  0  0
  141.5849   72.3950  227.3055 H   0  0  0  0  0  0  0  0  0  0  0  0
  1  2  2  0
  2  3  1  0
  3  4  1  0
  4  5  1  0
  5  6  2  0
  5  7  1  0
  7  8  1  0
  8  9  1  0
  9 10  1  0
  9 11  1  0
 11 12  1  0
 12 13  1  0
 13 14  1  0
 14 15  1  0
 15 16  1  0
 16 17  1  0
  2 18  1  0
 18 19  2  0
 19 20  1  0
 20 21  2  0
 21 22  1  0
 22 23  2  0
 23 24  1  0
 23 25  1  0
 25 26  2  0
 26 27  1  0
 27 28  2  0
 12  7  1  0
 17 13  1  0
 28 18  1  0
 27 21  1  0
  3 29  1  0
  4 30  1  0
  4 31  1  0
  8 32  1  0
  8 33  1  0
  9 34  1  6
 10 35  1  0
 11 36  1  0
 11 37  1  0
 12 38  1  1
 13 39  1  0
 14 40  1  0
 14 41  1  0
 15 42  1  0
 15 43  1  0
 16 44  1  0
 16 45  1  0
 17 46  1  0
 17 47  1  0
 19 48  1  0
 20 49  1  0
 22 50  1  0
 25 51  1  0
 26 52  1  0
M  END
>  <smiles>  (38) 
O=C(NCC(=O)N1C[C@H](O)C[C@H]1C1CCCC1)c1ccc2cc(F)ccc2n1

>  <score_type>  (38) 
oracle

>  <origin>  (38) 
autodockgpu

>  <m_score__min__energy>  (38) 
-8.7899999999999991

>  <m_primary>  (38) 
energy

>  <rmsd>  (38) 
1.749099020389004

>  <m_score__min__rmsd>  (38) 
1.749099020389004

>  <meeko>  (38) 
{"free_energy": -8.79, "intermolecular_energy": -10.58, "internal_energy": -1.24, "cluster_size": 37, "cluster_id": 1, "rank_in_cluster": 1}

>  <energy>  (38) 
-7.83

>  <cluster_rmsd>  (38) 
0.0

>  <cluster>  (38) 
2

$$$$

     RDKit          3D

 52 55  0  0  0  0  0  0  0  0999 V2000
  139.3210   72.4590  220.6020 O   0  0  0  0  0  0  0  0  0  0  0  0
  139.8980   72.8020  221.6790 C   0  0  0  0  0  0  0  0  0  0  0  0
  140.5730   74.0580  221.7880 N   0  0  0  0  0  0  0  0  0  0  0  0
  140.6250   74.9850  220.6780 C   0  0  0  0  0  0  0  0  0  0  0  0
  141.0220   76.3560  221.1660 C   0  0  0  0  0  0  0  0  0  0  0  0
  141.0460   76.4870  222.4180 O   0  0  0  0  0  0  0  0  0  0  0  0
  141.3430   77.4060  220.2610 N   0  0  0  0  0  0  0  0  0  0  0  0
  141.1860   77.2680  218.8250 C   0  0  0  0  0  0  0  0  0  0  0  0
  141.6910   78.6180  218.3070 C   0  0  2  0  0  0  0  0  0  0  0  0
  143.0650   78.5490  218.0570 O   0  0  0  0  0  0  0  0  0  0  0  0
  141.5160   79.5640  219.4860 C   0  0  0  0  0  0  0  0  0  0  0  0
  141.8460   78.6800  220.6440 C   0  0  1  0  0  0  0  0  0  0  0  0
  141.4340   79.2130  221.9650 C   0  0  0  0  0  0  0  0  0  0  0  0
  140.5800   80.4270  221.9560 C   0  0  0  0  0  0  0  0  0  0  0  0
  140.6020   80.8000  223.4470 C   0  0  0  0  0  0  0  0  0  0  0  0
  142.0550   80.5910  223.8270 C   0  0  0  0  0  0  0  0  0  0  0  0
  142.6640   79.7260  222.7270 C   0  0  0  0  0  0  0  0  0  0  0  0
  139.8740   71.9050  222.8250 C   0  0  0  0  0  0  0  0  0  0  0  0
  139.2630   70.6710  222.7280 C   0  0  0  0  0  0  0  0  0  0  0  0
  139.2090   69.7800  223.7800 C   0  0  0  0  0  0  0  0  0  0  0  0
  139.8040   70.1790  224.9650 C   0  0  0  0  0  0  0  0  0  0  0  0
  139.7810   69.3280  226.0480 C   0  0  0  0  0  0  0  0  0  0  0  0
  140.3640   69.7190  227.2110 C   0  0  0  0  0  0  0  0  0  0  0  0
  140.3500   68.8890  228.2950 F   0  0  0  0  0  0  0  0  0  0  0  0
  140.9800   70.9490  227.3270 C   0  0  0  0  0  0  0  0  0  0  0  0
  141.0200   71.8210  226.2630 C   0  0  0  0  0  0  0  0  0  0  0  0
  140.4220   71.4260  225.0640 C   0  0  0  0  0  0  0  0  0  0  0  0
  140.4400   72.2590  223.9870 N   0  0  0  0  0  0  0  0  0  0  0  0
  141.0270   74.2740  222.7130 H   0  0  0  0  0  0  0  0  0  0  0  0
  141.3640   74.6321  219.9435 H   0  0  0  0  0  0  0  0  0  0  0  0
  139.6310   75.0431  220.2104 H   0  0  0  0  0  0  0  0  0  0  0  0
  141.7958   76.4393  218.4359 H   0  0  0  0  0  0  0  0  0  0  0  0
  140.1560   77.0364  218.5160 H   0  0  0  0  0  0  0  0  0  0  0  0
  141.1633   78.9212  217.3907 H   0  0  0  0  0  0  0  0  0  0  0  0
  143.3370   79.1640  217.3340 H   0  0  0  0  0  0  0  0  0  0  0  0
  142.2100   80.4151  219.4222 H   0  0  0  0  0  0  0  0  0  0  0  0
  140.5162   80.0188  219.5455 H   0  0  0  0  0  0  0  0  0  0  0  0
  142.9263   78.6097  220.8388 H   0  0  0  0  0  0  0  0  0  0  0  0
  140.8913   78.3590  222.3965 H   0  0  0  0  0  0  0  0  0  0  0  0
  141.0131   81.2229  221.3324 H   0  0  0  0  0  0  0  0  0  0  0  0
  139.5741   80.2753  221.5375 H   0  0  0  0  0  0  0  0  0  0  0  0
  140.3002   81.8470  223.5975 H   0  0  0  0  0  0  0  0  0  0  0  0
  139.9042   80.2046  224.0541 H   0  0  0  0  0  0  0  0  0  0  0  0
  142.5767   81.5577  223.8844 H   0  0  0  0  0  0  0  0  0  0  0  0
  142.1459   80.1091  224.8116 H   0  0  0  0  0  0  0  0  0  0  0  0
  143.3146   80.3225  222.0705 H   0  0  0  0  0  0  0  0  0  0  0  0
  143.2997   78.9169  223.1159 H   0  0  0  0  0  0  0  0  0  0  0  0
  138.7997   70.3861  221.7719 H   0  0  0  0  0  0  0  0  0  0  0  0
  138.7175   68.8008  223.6822 H   0  0  0  0  0  0  0  0  0  0  0  0
  139.2963   68.3435  225.9720 H   0  0  0  0  0  0  0  0  0  0  0  0
  141.4447   71.2357  228.2819 H   0  0  0  0  0  0  0  0  0  0  0  0
  141.5094   72.8019  226.3542 H   0  0  0  0  0  0  0  0  0  0  0  0
  1  2  2  0
  2  3  1  0
  3  4  1  0
  4  5  1  0
  5  6  2  0
  5  7  1  0
  7  8  1  0
  8  9  1  0
  9 10  1  0
  9 11  1  0
 11 12  1  0
 12 13  1  0
 13 14  1  0
 14 15  1  0
 15 16  1  0
 16 17  1  0
  2 18  1  0
 18 19  2  0
 19 20  1  0
 20 21  2  0
 21 22  1  0
 22 23  2  0
 23 24  1  0
 23 25  1  0
 25 26  2  0
 26 27  1  0
 27 28  2  0
 12  7  1  0
 17 13  1  0
 28 18  1  0
 27 21  1  0
  3 29  1  0
  4 30  1  0
  4 31  1  0
  8 32  1  0
  8 33  1  0
  9 34  1  6
 10 35  1  0
 11 36  1  0
 11 37  1  0
 12 38  1  1
 13 39  1  0
 14 40  1  0
 14 41  1  0
 15 42  1  0
 15 43  1  0
 16 44  1  0
 16 45  1  0
 17 46  1  0
 17 47  1  0
 19 48  1  0
 20 49  1  0
 22 50  1  0
 25 51  1  0
 26 52  1  0
M  END
>  <smiles>  (39) 
O=C(NCC(=O)N1C[C@H](O)C[C@H]1C1CCCC1)c1ccc2cc(F)ccc2n1

>  <score_type>  (39) 
oracle

>  <origin>  (39) 
autodockgpu

>  <m_score__min__energy>  (39) 
-8.7899999999999991

>  <m_primary>  (39) 
energy

>  <rmsd>  (39) 
2.1851661857537845

>  <m_score__min__rmsd>  (39) 
2.1851661857537845

>  <meeko>  (39) 
{"free_energy": -7.5, "intermolecular_energy": -9.29, "internal_energy": -1.94, "cluster_size": 37, "cluster_id": 1, "rank_in_cluster": 36}

>  <energy>  (39) 
-7.81

>  <cluster_rmsd>  (39) 
0.56

>  <cluster>  (39) 
2

$$$$

     RDKit          3D

 52 55  0  0  0  0  0  0  0  0999 V2000
  136.1670   70.9270  223.1440 O   0  0  0  0  0  0  0  0  0  0  0  0
  136.1530   72.1610  223.4420 C   0  0  0  0  0  0  0  0  0  0  0  0
  137.0670   73.0780  222.8340 N   0  0  0  0  0  0  0  0  0  0  0  0
  138.0410   72.6370  221.8590 C   0  0  0  0  0  0  0  0  0  0  0  0
  139.1380   71.8570  222.5390 C   0  0  0  0  0  0  0  0  0  0  0  0
  140.2100   72.4940  222.7140 O   0  0  0  0  0  0  0  0  0  0  0  0
  138.9520   70.5050  222.9440 N   0  0  0  0  0  0  0  0  0  0  0  0
  138.8630   69.4150  221.9910 C   0  0  0  0  0  0  0  0  0  0  0  0
  138.6280   68.2030  222.8970 C   0  0  2  0  0  0  0  0  0  0  0  0
  137.2560   68.0090  223.0870 O   0  0  0  0  0  0  0  0  0  0  0  0
  139.1930   68.6250  224.2450 C   0  0  0  0  0  0  0  0  0  0  0  0
  138.8300   70.0740  224.2930 C   0  0  1  0  0  0  0  0  0  0  0  0
  139.5430   70.8550  225.3320 C   0  0  0  0  0  0  0  0  0  0  0  0
  140.9880   71.1070  225.1020 C   0  0  0  0  0  0  0  0  0  0  0  0
  141.3970   71.6800  226.4680 C   0  0  0  0  0  0  0  0  0  0  0  0
  140.6750   70.7730  227.4460 C   0  0  0  0  0  0  0  0  0  0  0  0
  139.5910   70.0590  226.6440 C   0  0  0  0  0  0  0  0  0  0  0  0
  135.1920   72.6550  224.4170 C   0  0  0  0  0  0  0  0  0  0  0  0
  134.3110   71.7840  225.0260 C   0  0  0  0  0  0  0  0  0  0  0  0
  133.3790   72.1940  225.9570 C   0  0  0  0  0  0  0  0  0  0  0  0
  133.3600   73.5440  226.2650 C   0  0  0  0  0  0  0  0  0  0  0  0
  132.4500   74.0090  227.1890 C   0  0  0  0  0  0  0  0  0  0  0  0
  132.4300   75.3330  227.4930 C   0  0  0  0  0  0  0  0  0  0  0  0
  131.5350   75.8120  228.4050 F   0  0  0  0  0  0  0  0  0  0  0  0
  133.3040   76.2190  226.8940 C   0  0  0  0  0  0  0  0  0  0  0  0
  134.2240   75.7850  225.9670 C   0  0  0  0  0  0  0  0  0  0  0  0
  134.2500   74.4250  225.6510 C   0  0  0  0  0  0  0  0  0  0  0  0
  135.1460   73.9540  224.7400 N   0  0  0  0  0  0  0  0  0  0  0  0
  136.9950   74.0850  223.1310 H   0  0  0  0  0  0  0  0  0  0  0  0
  137.5462   71.9957  221.1147 H   0  0  0  0  0  0  0  0  0  0  0  0
  138.4783   73.5164  221.3636 H   0  0  0  0  0  0  0  0  0  0  0  0
  138.0226   69.5614  221.2966 H   0  0  0  0  0  0  0  0  0  0  0  0
  139.7518   69.3184  221.3501 H   0  0  0  0  0  0  0  0  0  0  0  0
  139.0753   67.2909  222.4751 H   0  0  0  0  0  0  0  0  0  0  0  0
  136.7600   68.8620  223.0680 H   0  0  0  0  0  0  0  0  0  0  0  0
  138.7223   68.0674  225.0681 H   0  0  0  0  0  0  0  0  0  0  0  0
  140.2707   68.4335  224.3543 H   0  0  0  0  0  0  0  0  0  0  0  0
  137.8041   70.2508  224.6482 H   0  0  0  0  0  0  0  0  0  0  0  0
  138.9784   71.7991  225.3333 H   0  0  0  0  0  0  0  0  0  0  0  0
  141.5303   70.1777  224.8732 H   0  0  0  0  0  0  0  0  0  0  0  0
  141.2070   71.7634  224.2469 H   0  0  0  0  0  0  0  0  0  0  0  0
  142.4866   71.6267  226.6093 H   0  0  0  0  0  0  0  0  0  0  0  0
  141.1382   72.7423  226.5885 H   0  0  0  0  0  0  0  0  0  0  0  0
  141.3752   70.0417  227.8760 H   0  0  0  0  0  0  0  0  0  0  0  0
  140.2444   71.3456  228.2807 H   0  0  0  0  0  0  0  0  0  0  0  0
  139.8641   69.0096  226.4589 H   0  0  0  0  0  0  0  0  0  0  0  0
  138.6220   70.0251  227.1635 H   0  0  0  0  0  0  0  0  0  0  0  0
  134.3539   70.7181  224.7577 H   0  0  0  0  0  0  0  0  0  0  0  0
  132.6855   71.4839  226.4311 H   0  0  0  0  0  0  0  0  0  0  0  0
  131.7475   73.3161  227.6751 H   0  0  0  0  0  0  0  0  0  0  0  0
  133.2642   77.2853  227.1613 H   0  0  0  0  0  0  0  0  0  0  0  0
  134.9196   76.4899  225.4882 H   0  0  0  0  0  0  0  0  0  0  0  0
  1  2  2  0
  2  3  1  0
  3  4  1  0
  4  5  1  0
  5  6  2  0
  5  7  1  0
  7  8  1  0
  8  9  1  0
  9 10  1  0
  9 11  1  0
 11 12  1  0
 12 13  1  0
 13 14  1  0
 14 15  1  0
 15 16  1  0
 16 17  1  0
  2 18  1  0
 18 19  2  0
 19 20  1  0
 20 21  2  0
 21 22  1  0
 22 23  2  0
 23 24  1  0
 23 25  1  0
 25 26  2  0
 26 27  1  0
 27 28  2  0
 12  7  1  0
 17 13  1  0
 28 18  1  0
 27 21  1  0
  3 29  1  0
  4 30  1  0
  4 31  1  0
  8 32  1  0
  8 33  1  0
  9 34  1  6
 10 35  1  0
 11 36  1  0
 11 37  1  0
 12 38  1  1
 13 39  1  0
 14 40  1  0
 14 41  1  0
 15 42  1  0
 15 43  1  0
 16 44  1  0
 16 45  1  0
 17 46  1  0
 17 47  1  0
 19 48  1  0
 20 49  1  0
 22 50  1  0
 25 51  1  0
 26 52  1  0
M  END
>  <smiles>  (40) 
O=C(NCC(=O)N1C[C@H](O)C[C@H]1C1CCCC1)c1ccc2cc(F)ccc2n1

>  <score_type>  (40) 
oracle

>  <origin>  (40) 
autodockgpu

>  <m_score__min__energy>  (40) 
-8.7899999999999991

>  <m_primary>  (40) 
energy

>  <rmsd>  (40) 
7.4460861626635975

>  <m_score__min__rmsd>  (40) 
7.4460861626635975

>  <meeko>  (40) 
{"free_energy": -6.39, "intermolecular_energy": -8.17, "internal_energy": -2.67, "cluster_size": 2, "cluster_id": 4, "rank_in_cluster": 2}

>  <energy>  (40) 
-7.78

>  <cluster_rmsd>  (40) 
0.61

>  <cluster>  (40) 
2

$$$$

     RDKit          3D

 52 55  0  0  0  0  0  0  0  0999 V2000
  136.2350   77.4940  222.6860 O   0  0  0  0  0  0  0  0  0  0  0  0
  136.7040   76.3860  223.0910 C   0  0  0  0  0  0  0  0  0  0  0  0
  138.0610   76.0190  222.8290 N   0  0  0  0  0  0  0  0  0  0  0  0
  138.9510   76.8930  222.0950 C   0  0  0  0  0  0  0  0  0  0  0  0
  140.1620   76.1250  221.6280 C   0  0  0  0  0  0  0  0  0  0  0  0
  140.2920   74.9800  222.1350 O   0  0  0  0  0  0  0  0  0  0  0  0
  141.0760   76.6730  220.6840 N   0  0  0  0  0  0  0  0  0  0  0  0
  141.3190   76.0590  219.3920 C   0  0  0  0  0  0  0  0  0  0  0  0
  142.3820   76.9790  218.7850 C   0  0  2  0  0  0  0  0  0  0  0  0
  143.6590   76.5200  219.1250 O   0  0  0  0  0  0  0  0  0  0  0  0
  142.1940   78.3030  219.5100 C   0  0  0  0  0  0  0  0  0  0  0  0
  141.8410   77.8530  220.8900 C   0  0  1  0  0  0  0  0  0  0  0  0
  141.2600   78.9090  221.7550 C   0  0  0  0  0  0  0  0  0  0  0  0
  141.6690   80.3060  221.4650 C   0  0  0  0  0  0  0  0  0  0  0  0
  141.0940   81.0300  222.6930 C   0  0  0  0  0  0  0  0  0  0  0  0
  141.4420   80.0920  223.8330 C   0  0  0  0  0  0  0  0  0  0  0  0
  141.7710   78.7470  223.1930 C   0  0  0  0  0  0  0  0  0  0  0  0
  135.8500   75.4710  223.8340 C   0  0  0  0  0  0  0  0  0  0  0  0
  135.8210   74.1300  223.5100 C   0  0  0  0  0  0  0  0  0  0  0  0
  135.0310   73.2170  224.1780 C   0  0  0  0  0  0  0  0  0  0  0  0
  134.2500   73.7080  225.2100 C   0  0  0  0  0  0  0  0  0  0  0  0
  133.4420   72.8410  225.9120 C   0  0  0  0  0  0  0  0  0  0  0  0
  132.6750   73.3220  226.9250 C   0  0  0  0  0  0  0  0  0  0  0  0
  131.8680   72.4770  227.6320 F   0  0  0  0  0  0  0  0  0  0  0  0
  132.6910   74.6600  227.2640 C   0  0  0  0  0  0  0  0  0  0  0  0
  133.4870   75.5510  226.5810 C   0  0  0  0  0  0  0  0  0  0  0  0
  134.2780   75.0640  225.5390 C   0  0  0  0  0  0  0  0  0  0  0  0
  135.0810   75.9120  224.8380 N   0  0  0  0  0  0  0  0  0  0  0  0
  138.3790   75.0850  223.1960 H   0  0  0  0  0  0  0  0  0  0  0  0
  138.4210   77.3025  221.2224 H   0  0  0  0  0  0  0  0  0  0  0  0
  139.2757   77.7120  222.7536 H   0  0  0  0  0  0  0  0  0  0  0  0
  141.6983   75.0326  219.5043 H   0  0  0  0  0  0  0  0  0  0  0  0
  140.4144   75.9647  218.7733 H   0  0  0  0  0  0  0  0  0  0  0  0
  142.2888   77.0364  217.6905 H   0  0  0  0  0  0  0  0  0  0  0  0
  144.1220   77.1450  219.7320 H   0  0  0  0  0  0  0  0  0  0  0  0
  143.1209   78.8954  219.5074 H   0  0  0  0  0  0  0  0  0  0  0  0
  141.4392   78.9577  219.0499 H   0  0  0  0  0  0  0  0  0  0  0  0
  142.7218   77.6208  221.5067 H   0  0  0  0  0  0  0  0  0  0  0  0
  140.1816   78.7755  221.5840 H   0  0  0  0  0  0  0  0  0  0  0  0
  142.7632   80.4054  221.4110 H   0  0  0  0  0  0  0  0  0  0  0  0
  141.3161   80.6945  220.4983 H   0  0  0  0  0  0  0  0  0  0  0  0
  141.5679   82.0131  222.8307 H   0  0  0  0  0  0  0  0  0  0  0  0
  140.0161   81.2339  222.6118 H   0  0  0  0  0  0  0  0  0  0  0  0
  142.3119   80.4730  224.3881 H   0  0  0  0  0  0  0  0  0  0  0  0
  140.6098   80.0031  224.5468 H   0  0  0  0  0  0  0  0  0  0  0  0
  142.8545   78.5576  223.2077 H   0  0  0  0  0  0  0  0  0  0  0  0
  141.3152   77.8955  223.7196 H   0  0  0  0  0  0  0  0  0  0  0  0
  136.4545   73.7738  222.6843 H   0  0  0  0  0  0  0  0  0  0  0  0
  135.0223   72.1517  223.9040 H   0  0  0  0  0  0  0  0  0  0  0  0
  133.4180   71.7716  225.6554 H   0  0  0  0  0  0  0  0  0  0  0  0
  132.0596   75.0185  228.0904 H   0  0  0  0  0  0  0  0  0  0  0  0
  133.4996   76.6178  226.8489 H   0  0  0  0  0  0  0  0  0  0  0  0
  1  2  2  0
  2  3  1  0
  3  4  1  0
  4  5  1  0
  5  6  2  0
  5  7  1  0
  7  8  1  0
  8  9  1  0
  9 10  1  0
  9 11  1  0
 11 12  1  0
 12 13  1  0
 13 14  1  0
 14 15  1  0
 15 16  1  0
 16 17  1  0
  2 18  1  0
 18 19  2  0
 19 20  1  0
 20 21  2  0
 21 22  1  0
 22 23  2  0
 23 24  1  0
 23 25  1  0
 25 26  2  0
 26 27  1  0
 27 28  2  0
 12  7  1  0
 17 13  1  0
 28 18  1  0
 27 21  1  0
  3 29  1  0
  4 30  1  0
  4 31  1  0
  8 32  1  0
  8 33  1  0
  9 34  1  6
 10 35  1  0
 11 36  1  0
 11 37  1  0
 12 38  1  1
 13 39  1  0
 14 40  1  0
 14 41  1  0
 15 42  1  0
 15 43  1  0
 16 44  1  0
 16 45  1  0
 17 46  1  0
 17 47  1  0
 19 48  1  0
 20 49  1  0
 22 50  1  0
 25 51  1  0
 26 52  1  0
M  END
>  <smiles>  (41) 
O=C(NCC(=O)N1C[C@H](O)C[C@H]1C1CCCC1)c1ccc2cc(F)ccc2n1

>  <score_type>  (41) 
oracle

>  <origin>  (41) 
autodockgpu

>  <m_score__min__energy>  (41) 
-8.7899999999999991

>  <m_primary>  (41) 
energy

>  <rmsd>  (41) 
5.636909087110112

>  <m_score__min__rmsd>  (41) 
5.636909087110112

>  <meeko>  (41) 
{"free_energy": -7.46, "intermolecular_energy": -9.25, "internal_energy": -1.7, "cluster_size": 2, "cluster_id": 3, "rank_in_cluster": 1}

>  <energy>  (41) 
-7.7

>  <cluster_rmsd>  (41) 
0.52

>  <cluster>  (41) 
2

$$$$

     RDKit          3D

 52 55  0  0  0  0  0  0  0  0999 V2000
  140.5670   71.7710  221.0710 O   0  0  0  0  0  0  0  0  0  0  0  0
  140.1810   72.2890  222.1640 C   0  0  0  0  0  0  0  0  0  0  0  0
  139.8630   73.6800  222.2490 N   0  0  0  0  0  0  0  0  0  0  0  0
  139.9670   74.5500  221.0970 C   0  0  0  0  0  0  0  0  0  0  0  0
  140.3620   75.9390  221.5320 C   0  0  0  0  0  0  0  0  0  0  0  0
  140.0340   76.2410  222.7090 O   0  0  0  0  0  0  0  0  0  0  0  0
  141.0550   76.8250  220.6590 N   0  0  0  0  0  0  0  0  0  0  0  0
  141.1200   76.6090  219.2250 C   0  0  0  0  0  0  0  0  0  0  0  0
  141.9890   77.7800  218.7550 C   0  0  2  0  0  0  0  0  0  0  0  0
  143.3370   77.4070  218.7650 O   0  0  0  0  0  0  0  0  0  0  0  0
  141.8250   78.8320  219.8420 C   0  0  0  0  0  0  0  0  0  0  0  0
  141.7500   77.9930  221.0760 C   0  0  1  0  0  0  0  0  0  0  0  0
  141.2450   78.7030  222.2760 C   0  0  0  0  0  0  0  0  0  0  0  0
  140.0600   79.5760  222.0830 C   0  0  0  0  0  0  0  0  0  0  0  0
  140.0230   80.3060  223.4350 C   0  0  0  0  0  0  0  0  0  0  0  0
  141.4840   80.6280  223.6860 C   0  0  0  0  0  0  0  0  0  0  0  0
  142.2860   79.7250  222.7550 C   0  0  0  0  0  0  0  0  0  0  0  0
  140.0600   71.4570  223.3510 C   0  0  0  0  0  0  0  0  0  0  0  0
  139.5150   70.1920  223.2600 C   0  0  0  0  0  0  0  0  0  0  0  0
  139.3750   69.3580  224.3510 C   0  0  0  0  0  0  0  0  0  0  0  0
  139.8110   69.8500  225.5690 C   0  0  0  0  0  0  0  0  0  0  0  0
  139.6950   69.0600  226.6930 C   0  0  0  0  0  0  0  0  0  0  0  0
  140.1220   69.5420  227.8890 C   0  0  0  0  0  0  0  0  0  0  0  0
  140.0150   68.7740  229.0120 F   0  0  0  0  0  0  0  0  0  0  0  0
  140.6690   70.8050  228.0000 C   0  0  0  0  0  0  0  0  0  0  0  0
  140.7980   71.6170  226.8960 C   0  0  0  0  0  0  0  0  0  0  0  0
  140.3610   71.1280  225.6630 C   0  0  0  0  0  0  0  0  0  0  0  0
  140.4710   71.9000  224.5460 N   0  0  0  0  0  0  0  0  0  0  0  0
  139.5500   74.0380  223.1880 H   0  0  0  0  0  0  0  0  0  0  0  0
  140.7283   74.1537  220.4090 H   0  0  0  0  0  0  0  0  0  0  0  0
  138.9920   74.5947  220.5898 H   0  0  0  0  0  0  0  0  0  0  0  0
  141.5915   75.6436  218.9889 H   0  0  0  0  0  0  0  0  0  0  0  0
  140.1329   76.5721  218.7409 H   0  0  0  0  0  0  0  0  0  0  0  0
  141.7056   78.1133  217.7458 H   0  0  0  0  0  0  0  0  0  0  0  0
  143.6760   77.2910  219.6850 H   0  0  0  0  0  0  0  0  0  0  0  0
  142.6885   79.5127  219.8732 H   0  0  0  0  0  0  0  0  0  0  0  0
  140.9537   79.4877  219.6974 H   0  0  0  0  0  0  0  0  0  0  0  0
  142.7390   77.7153  221.4695 H   0  0  0  0  0  0  0  0  0  0  0  0
  141.0077   77.8681  222.9518 H   0  0  0  0  0  0  0  0  0  0  0  0
  140.2042   80.2768  221.2475 H   0  0  0  0  0  0  0  0  0  0  0  0
  139.1340   79.0401  221.8272 H   0  0  0  0  0  0  0  0  0  0  0  0
  139.4204   81.2241  223.3727 H   0  0  0  0  0  0  0  0  0  0  0  0
  139.5652   79.7100  224.2382 H   0  0  0  0  0  0  0  0  0  0  0  0
  141.6858   81.6852  223.4587 H   0  0  0  0  0  0  0  0  0  0  0  0
  141.7558   80.4602  224.7386 H   0  0  0  0  0  0  0  0  0  0  0  0
  142.6969   80.2957  221.9092 H   0  0  0  0  0  0  0  0  0  0  0  0
  143.1533   79.2598  223.2463 H   0  0  0  0  0  0  0  0  0  0  0  0
  139.1779   69.8333  222.2763 H   0  0  0  0  0  0  0  0  0  0  0  0
  138.9387   68.3526  224.2571 H   0  0  0  0  0  0  0  0  0  0  0  0
  139.2618   68.0514  226.6220 H   0  0  0  0  0  0  0  0  0  0  0  0
  141.0058   71.1667  228.9827 H   0  0  0  0  0  0  0  0  0  0  0  0
  141.2334   72.6235  226.9826 H   0  0  0  0  0  0  0  0  0  0  0  0
  1  2  2  0
  2  3  1  0
  3  4  1  0
  4  5  1  0
  5  6  2  0
  5  7  1  0
  7  8  1  0
  8  9  1  0
  9 10  1  0
  9 11  1  0
 11 12  1  0
 12 13  1  0
 13 14  1  0
 14 15  1  0
 15 16  1  0
 16 17  1  0
  2 18  1  0
 18 19  2  0
 19 20  1  0
 20 21  2  0
 21 22  1  0
 22 23  2  0
 23 24  1  0
 23 25  1  0
 25 26  2  0
 26 27  1  0
 27 28  2  0
 12  7  1  0
 17 13  1  0
 28 18  1  0
 27 21  1  0
  3 29  1  0
  4 30  1  0
  4 31  1  0
  8 32  1  0
  8 33  1  0
  9 34  1  6
 10 35  1  0
 11 36  1  0
 11 37  1  0
 12 38  1  1
 13 39  1  0
 14 40  1  0
 14 41  1  0
 15 42  1  0
 15 43  1  0
 16 44  1  0
 16 45  1  0
 17 46  1  0
 17 47  1  0
 19 48  1  0
 20 49  1  0
 22 50  1  0
 25 51  1  0
 26 52  1  0
M  END
>  <smiles>  (42) 
O=C(NCC(=O)N1C[C@H](O)C[C@H]1C1CCCC1)c1ccc2cc(F)ccc2n1

>  <score_type>  (42) 
oracle

>  <origin>  (42) 
autodockgpu

>  <m_score__min__energy>  (42) 
-8.7899999999999991

>  <m_primary>  (42) 
energy

>  <rmsd>  (42) 
1.783487083731277

>  <m_score__min__rmsd>  (42) 
1.783487083731277

>  <meeko>  (42) 
{"free_energy": -8.58, "intermolecular_energy": -10.37, "internal_energy": -1.7, "cluster_size": 37, "cluster_id": 1, "rank_in_cluster": 16}

>  <energy>  (42) 
-7.54

>  <cluster_rmsd>  (42) 
0.45

>  <cluster>  (42) 
2

$$$$

     RDKit          3D

 52 55  0  0  0  0  0  0  0  0999 V2000
  139.0830   74.9550  222.3680 O   0  0  0  0  0  0  0  0  0  0  0  0
  139.0890   76.0080  221.6590 C   0  0  0  0  0  0  0  0  0  0  0  0
  138.6510   75.9840  220.2980 N   0  0  0  0  0  0  0  0  0  0  0  0
  138.1850   74.7630  219.6770 C   0  0  0  0  0  0  0  0  0  0  0  0
  139.3330   73.8010  219.5010 C   0  0  0  0  0  0  0  0  0  0  0  0
  139.7670   73.7020  218.3230 O   0  0  0  0  0  0  0  0  0  0  0  0
  139.8710   73.0710  220.5990 N   0  0  0  0  0  0  0  0  0  0  0  0
  139.1440   71.9950  221.2470 C   0  0  0  0  0  0  0  0  0  0  0  0
  140.1040   71.5740  222.3630 C   0  0  2  0  0  0  0  0  0  0  0  0
  139.8380   72.3090  223.5230 O   0  0  0  0  0  0  0  0  0  0  0  0
  141.4720   72.0230  221.8730 C   0  0  0  0  0  0  0  0  0  0  0  0
  141.1470   73.3060  221.1790 C   0  0  1  0  0  0  0  0  0  0  0  0
  142.2210   73.8190  220.2950 C   0  0  0  0  0  0  0  0  0  0  0  0
  143.6150   73.4800  220.6760 C   0  0  0  0  0  0  0  0  0  0  0  0
  144.4000   74.3830  219.7110 C   0  0  0  0  0  0  0  0  0  0  0  0
  143.6290   75.6880  219.7660 C   0  0  0  0  0  0  0  0  0  0  0  0
  142.2650   75.3520  220.3620 C   0  0  0  0  0  0  0  0  0  0  0  0
  139.5490   77.2620  222.2370 C   0  0  0  0  0  0  0  0  0  0  0  0
  138.6470   78.1300  222.8180 C   0  0  0  0  0  0  0  0  0  0  0  0
  139.0240   79.3330  223.3810 C   0  0  0  0  0  0  0  0  0  0  0  0
  140.3730   79.6430  223.3400 C   0  0  0  0  0  0  0  0  0  0  0  0
  140.8060   80.8310  223.8880 C   0  0  0  0  0  0  0  0  0  0  0  0
  142.1290   81.1360  223.8470 C   0  0  0  0  0  0  0  0  0  0  0  0
  142.5760   82.3090  224.3850 F   0  0  0  0  0  0  0  0  0  0  0  0
  143.0460   80.2800  223.2700 C   0  0  0  0  0  0  0  0  0  0  0  0
  142.6440   79.0870  222.7140 C   0  0  0  0  0  0  0  0  0  0  0  0
  141.2850   78.7660  222.7530 C   0  0  0  0  0  0  0  0  0  0  0  0
  140.8460   77.5950  222.2150 N   0  0  0  0  0  0  0  0  0  0  0  0
  138.6850   76.8960  219.7730 H   0  0  0  0  0  0  0  0  0  0  0  0
  137.4171   74.3005  220.3145 H   0  0  0  0  0  0  0  0  0  0  0  0
  137.7592   75.0001  218.6909 H   0  0  0  0  0  0  0  0  0  0  0  0
  138.1881   72.3518  221.6581 H   0  0  0  0  0  0  0  0  0  0  0  0
  138.8752   71.1741  220.5660 H   0  0  0  0  0  0  0  0  0  0  0  0
  140.0232   70.4988  222.5806 H   0  0  0  0  0  0  0  0  0  0  0  0
  139.3840   73.1610  223.3190 H   0  0  0  0  0  0  0  0  0  0  0  0
  142.1635   72.1867  222.7127 H   0  0  0  0  0  0  0  0  0  0  0  0
  141.9770   71.2866  221.2306 H   0  0  0  0  0  0  0  0  0  0  0  0
  141.0912   74.1653  221.8635 H   0  0  0  0  0  0  0  0  0  0  0  0
  141.9588   73.3621  219.3293 H   0  0  0  0  0  0  0  0  0  0  0  0
  143.8213   73.7329  221.7265 H   0  0  0  0  0  0  0  0  0  0  0  0
  143.8614   72.4104  220.6039 H   0  0  0  0  0  0  0  0  0  0  0  0
  145.4365   74.5209  220.0526 H   0  0  0  0  0  0  0  0  0  0  0  0
  144.4800   73.9680  218.6954 H   0  0  0  0  0  0  0  0  0  0  0  0
  144.1547   76.4149  220.4026 H   0  0  0  0  0  0  0  0  0  0  0  0
  143.5301   76.1375  218.7669 H   0  0  0  0  0  0  0  0  0  0  0  0
  142.1914   75.7037  221.4017 H   0  0  0  0  0  0  0  0  0  0  0  0
  141.4311   75.8312  219.8282 H   0  0  0  0  0  0  0  0  0  0  0  0
  137.5829   77.8517  222.8332 H   0  0  0  0  0  0  0  0  0  0  0  0
  138.2893   80.0114  223.8393 H   0  0  0  0  0  0  0  0  0  0  0  0
  140.0891   81.5237  224.3529 H   0  0  0  0  0  0  0  0  0  0  0  0
  144.1110   80.5550  223.2546 H   0  0  0  0  0  0  0  0  0  0  0  0
  143.3727   78.4050  222.2516 H   0  0  0  0  0  0  0  0  0  0  0  0
  1  2  2  0
  2  3  1  0
  3  4  1  0
  4  5  1  0
  5  6  2  0
  5  7  1  0
  7  8  1  0
  8  9  1  0
  9 10  1  0
  9 11  1  0
 11 12  1  0
 12 13  1  0
 13 14  1  0
 14 15  1  0
 15 16  1  0
 16 17  1  0
  2 18  1  0
 18 19  2  0
 19 20  1  0
 20 21  2  0
 21 22  1  0
 22 23  2  0
 23 24  1  0
 23 25  1  0
 25 26  2  0
 26 27  1  0
 27 28  2  0
 12  7  1  0
 17 13  1  0
 28 18  1  0
 27 21  1  0
  3 29  1  0
  4 30  1  0
  4 31  1  0
  8 32  1  0
  8 33  1  0
  9 34  1  1
 10 35  1  0
 11 36  1  0
 11 37  1  0
 12 38  1  1
 13 39  1  0
 14 40  1  0
 14 41  1  0
 15 42  1  0
 15 43  1  0
 16 44  1  0
 16 45  1  0
 17 46  1  0
 17 47  1  0
 19 48  1  0
 20 49  1  0
 22 50  1  0
 25 51  1  0
 26 52  1  0
M  END
>  <smiles>  (43) 
O=C(NCC(=O)N1C[C@H](O)C[C@H]1C1CCCC1)c1ccc2cc(F)ccc2n1

>  <score_type>  (43) 
oracle

>  <origin>  (43) 
autodockgpu

>  <m_score__min__energy>  (43) 
-8.7899999999999991

>  <m_primary>  (43) 
energy

>  <rmsd>  (43) 
7.8986208866343555

>  <m_score__min__rmsd>  (43) 
7.8986208866343555

>  <meeko>  (43) 
{"free_energy": -6.12, "intermolecular_energy": -7.91, "internal_energy": -2.67, "cluster_size": 1, "cluster_id": 5, "rank_in_cluster": 1}

>  <energy>  (43) 
-7.4

>  <cluster_rmsd>  (43) 
0.64

>  <cluster>  (43) 
2

$$$$

     RDKit          3D

 52 55  0  0  0  0  0  0  0  0999 V2000
  140.7090   71.6910  221.1530 O   0  0  0  0  0  0  0  0  0  0  0  0
  140.2640   72.2240  222.2150 C   0  0  0  0  0  0  0  0  0  0  0  0
  139.9180   73.6110  222.2560 N   0  0  0  0  0  0  0  0  0  0  0  0
  140.0610   74.4590  221.0910 C   0  0  0  0  0  0  0  0  0  0  0  0
  140.4070   75.8640  221.5140 C   0  0  0  0  0  0  0  0  0  0  0  0
  140.0620   76.1660  222.6860 O   0  0  0  0  0  0  0  0  0  0  0  0
  141.0750   76.7640  220.6350 N   0  0  0  0  0  0  0  0  0  0  0  0
  141.0860   76.5790  219.1960 C   0  0  0  0  0  0  0  0  0  0  0  0
  141.9460   77.7530  218.7190 C   0  0  2  0  0  0  0  0  0  0  0  0
  143.2910   77.3700  218.6730 O   0  0  0  0  0  0  0  0  0  0  0  0
  141.8310   78.7820  219.8340 C   0  0  0  0  0  0  0  0  0  0  0  0
  141.7940   77.9170  221.0520 C   0  0  1  0  0  0  0  0  0  0  0  0
  141.3390   78.6050  222.2840 C   0  0  0  0  0  0  0  0  0  0  0  0
  140.2730   79.6240  222.1230 C   0  0  0  0  0  0  0  0  0  0  0  0
  140.2790   80.2650  223.5200 C   0  0  0  0  0  0  0  0  0  0  0  0
  141.7590   80.3930  223.8270 C   0  0  0  0  0  0  0  0  0  0  0  0
  142.4780   79.4610  222.8560 C   0  0  0  0  0  0  0  0  0  0  0  0
  140.1020   71.4150  223.4130 C   0  0  0  0  0  0  0  0  0  0  0  0
  139.4900   70.1800  223.3400 C   0  0  0  0  0  0  0  0  0  0  0  0
  139.3080   69.3690  224.4410 C   0  0  0  0  0  0  0  0  0  0  0  0
  139.7730   69.8520  225.6520 C   0  0  0  0  0  0  0  0  0  0  0  0
  139.6190   69.0840  226.7860 C   0  0  0  0  0  0  0  0  0  0  0  0
  140.0740   69.5570  227.9750 C   0  0  0  0  0  0  0  0  0  0  0  0
  139.9300   68.8100  229.1090 F   0  0  0  0  0  0  0  0  0  0  0  0
  140.6890   70.7900  228.0680 C   0  0  0  0  0  0  0  0  0  0  0  0
  140.8570   71.5810  226.9540 C   0  0  0  0  0  0  0  0  0  0  0  0
  140.3920   71.1000  225.7290 C   0  0  0  0  0  0  0  0  0  0  0  0
  140.5390   71.8510  224.6020 N   0  0  0  0  0  0  0  0  0  0  0  0
  139.5560   73.9830  223.1710 H   0  0  0  0  0  0  0  0  0  0  0  0
  140.8625   74.0641  220.4494 H   0  0  0  0  0  0  0  0  0  0  0  0
  139.1112   74.4729  220.5363 H   0  0  0  0  0  0  0  0  0  0  0  0
  141.5409   75.6156  218.9223 H   0  0  0  0  0  0  0  0  0  0  0  0
  140.0815   76.5600  218.7480 H   0  0  0  0  0  0  0  0  0  0  0  0
  141.6284   78.1097  217.7281 H   0  0  0  0  0  0  0  0  0  0  0  0
  143.8940   78.1510  218.6960 H   0  0  0  0  0  0  0  0  0  0  0  0
  142.7009   79.4551  219.8480 H   0  0  0  0  0  0  0  0  0  0  0  0
  140.9605   79.4472  219.7357 H   0  0  0  0  0  0  0  0  0  0  0  0
  142.7938   77.6230  221.4041 H   0  0  0  0  0  0  0  0  0  0  0  0
  140.9828   77.7630  222.8957 H   0  0  0  0  0  0  0  0  0  0  0  0
  140.5255   80.3548  221.3406 H   0  0  0  0  0  0  0  0  0  0  0  0
  139.2988   79.2204  221.8098 H   0  0  0  0  0  0  0  0  0  0  0  0
  139.7911   81.2507  223.5054 H   0  0  0  0  0  0  0  0  0  0  0  0
  139.7287   79.6779  224.2700 H   0  0  0  0  0  0  0  0  0  0  0  0
  142.0913   81.4307  223.6761 H   0  0  0  0  0  0  0  0  0  0  0  0
  141.9758   80.1272  224.8722 H   0  0  0  0  0  0  0  0  0  0  0  0
  142.9807   80.0312  222.0609 H   0  0  0  0  0  0  0  0  0  0  0  0
  143.2677   78.8640  223.3355 H   0  0  0  0  0  0  0  0  0  0  0  0
  139.1319   69.8272  222.3616 H   0  0  0  0  0  0  0  0  0  0  0  0
  138.8178   68.3875  224.3606 H   0  0  0  0  0  0  0  0  0  0  0  0
  139.1330   68.0989  226.7287 H   0  0  0  0  0  0  0  0  0  0  0  0
  141.0493   71.1446  229.0449 H   0  0  0  0  0  0  0  0  0  0  0  0
  141.3440   72.5646  227.0272 H   0  0  0  0  0  0  0  0  0  0  0  0
  1  2  2  0
  2  3  1  0
  3  4  1  0
  4  5  1  0
  5  6  2  0
  5  7  1  0
  7  8  1  0
  8  9  1  0
  9 10  1  0
  9 11  1  0
 11 12  1  0
 12 13  1  0
 13 14  1  0
 14 15  1  0
 15 16  1  0
 16 17  1  0
  2 18  1  0
 18 19  2  0
 19 20  1  0
 20 21  2  0
 21 22  1  0
 22 23  2  0
 23 24  1  0
 23 25  1  0
 25 26  2  0
 26 27  1  0
 27 28  2  0
 12  7  1  0
 17 13  1  0
 28 18  1  0
 27 21  1  0
  3 29  1  0
  4 30  1  0
  4 31  1  0
  8 32  1  0
  8 33  1  0
  9 34  1  6
 10 35  1  0
 11 36  1  0
 11 37  1  0
 12 38  1  1
 13 39  1  0
 14 40  1  0
 14 41  1  0
 15 42  1  0
 15 43  1  0
 16 44  1  0
 16 45  1  0
 17 46  1  0
 17 47  1  0
 19 48  1  0
 20 49  1  0
 22 50  1  0
 25 51  1  0
 26 52  1  0
M  END
>  <smiles>  (44) 
O=C(NCC(=O)N1C[C@H](O)C[C@H]1C1CCCC1)c1ccc2cc(F)ccc2n1

>  <score_type>  (44) 
oracle

>  <origin>  (44) 
autodockgpu

>  <m_score__min__energy>  (44) 
-8.7899999999999991

>  <m_primary>  (44) 
energy

>  <rmsd>  (44) 
1.7768895953725659

>  <m_score__min__rmsd>  (44) 
1.7768895953725659

>  <meeko>  (44) 
{"free_energy": -8.55, "intermolecular_energy": -10.34, "internal_energy": -1.68, "cluster_size": 37, "cluster_id": 1, "rank_in_cluster": 20}

>  <energy>  (44) 
-7.32

>  <cluster_rmsd>  (44) 
0.92

>  <cluster>  (44) 
2

$$$$

     RDKit          3D

 52 55  0  0  0  0  0  0  0  0999 V2000
  135.8090   77.4720  223.2160 O   0  0  0  0  0  0  0  0  0  0  0  0
  136.3240   76.3410  223.4710 C   0  0  0  0  0  0  0  0  0  0  0  0
  137.6460   76.0150  223.0340 N   0  0  0  0  0  0  0  0  0  0  0  0
  138.4470   76.9600  222.2850 C   0  0  0  0  0  0  0  0  0  0  0  0
  139.7260   76.3050  221.8280 C   0  0  0  0  0  0  0  0  0  0  0  0
  139.9240   75.1490  222.2850 O   0  0  0  0  0  0  0  0  0  0  0  0
  140.6280   76.9650  220.9450 N   0  0  0  0  0  0  0  0  0  0  0  0
  140.7230   76.6250  219.5370 C   0  0  0  0  0  0  0  0  0  0  0  0
  141.8320   77.5600  219.0460 C   0  0  2  0  0  0  0  0  0  0  0  0
  143.0750   76.9320  219.1740 O   0  0  0  0  0  0  0  0  0  0  0  0
  141.8260   78.7080  220.0450 C   0  0  0  0  0  0  0  0  0  0  0  0
  141.5200   78.0030  221.3260 C   0  0  1  0  0  0  0  0  0  0  0  0
  141.1060   78.8930  222.4370 C   0  0  0  0  0  0  0  0  0  0  0  0
  140.2570   80.0560  222.0780 C   0  0  0  0  0  0  0  0  0  0  0  0
  140.2750   80.8400  223.4000 C   0  0  0  0  0  0  0  0  0  0  0  0
  141.7260   80.7440  223.8300 C   0  0  0  0  0  0  0  0  0  0  0  0
  142.3350   79.5990  223.0270 C   0  0  0  0  0  0  0  0  0  0  0  0
  135.5600   75.3550  224.2220 C   0  0  0  0  0  0  0  0  0  0  0  0
  134.6480   75.7630  225.1740 C   0  0  0  0  0  0  0  0  0  0  0  0
  133.8950   74.8750  225.9160 C   0  0  0  0  0  0  0  0  0  0  0  0
  134.0940   73.5290  225.6640 C   0  0  0  0  0  0  0  0  0  0  0  0
  133.3700   72.5980  226.3750 C   0  0  0  0  0  0  0  0  0  0  0  0
  133.5640   71.2760  226.1290 C   0  0  0  0  0  0  0  0  0  0  0  0
  132.8550   70.3390  226.8240 F   0  0  0  0  0  0  0  0  0  0  0  0
  134.4730   70.8490  225.1800 C   0  0  0  0  0  0  0  0  0  0  0  0
  135.2120   71.7550  224.4530 C   0  0  0  0  0  0  0  0  0  0  0  0
  135.0160   73.1150  224.7020 C   0  0  0  0  0  0  0  0  0  0  0  0
  135.7270   74.0440  224.0040 N   0  0  0  0  0  0  0  0  0  0  0  0
  138.0050   75.0580  223.2830 H   0  0  0  0  0  0  0  0  0  0  0  0
  137.8797   77.3029  221.4072 H   0  0  0  0  0  0  0  0  0  0  0  0
  138.6911   77.8169  222.9301 H   0  0  0  0  0  0  0  0  0  0  0  0
  141.0028   75.5700  219.4005 H   0  0  0  0  0  0  0  0  0  0  0  0
  139.7751   76.7437  218.9917 H   0  0  0  0  0  0  0  0  0  0  0  0
  141.6746   77.8590  217.9992 H   0  0  0  0  0  0  0  0  0  0  0  0
  143.7000   77.4660  219.7200 H   0  0  0  0  0  0  0  0  0  0  0  0
  142.8057   79.2063  220.0871 H   0  0  0  0  0  0  0  0  0  0  0  0
  141.1126   79.5078  219.7974 H   0  0  0  0  0  0  0  0  0  0  0  0
  142.4111   77.5695  221.8035 H   0  0  0  0  0  0  0  0  0  0  0  0
  140.5584   78.1992  223.0918 H   0  0  0  0  0  0  0  0  0  0  0  0
  140.6954   80.6392  221.2548 H   0  0  0  0  0  0  0  0  0  0  0  0
  139.2519   79.7935  221.7162 H   0  0  0  0  0  0  0  0  0  0  0  0
  139.9770   81.8872  223.2433 H   0  0  0  0  0  0  0  0  0  0  0  0
  139.5726   80.4455  224.1490 H   0  0  0  0  0  0  0  0  0  0  0  0
  142.2515   81.6851  223.6104 H   0  0  0  0  0  0  0  0  0  0  0  0
  141.8116   80.5638  224.9118 H   0  0  0  0  0  0  0  0  0  0  0  0
  142.9910   79.9807  222.2307 H   0  0  0  0  0  0  0  0  0  0  0  0
  142.9653   78.9329  223.6346 H   0  0  0  0  0  0  0  0  0  0  0  0
  134.5154   76.8409  225.3490 H   0  0  0  0  0  0  0  0  0  0  0  0
  133.1726   75.2204  226.6702 H   0  0  0  0  0  0  0  0  0  0  0  0
  132.6424   72.9213  227.1340 H   0  0  0  0  0  0  0  0  0  0  0  0
  134.6079   69.7717  225.0031 H   0  0  0  0  0  0  0  0  0  0  0  0
  135.9364   71.4171  223.6973 H   0  0  0  0  0  0  0  0  0  0  0  0
  1  2  2  0
  2  3  1  0
  3  4  1  0
  4  5  1  0
  5  6  2  0
  5  7  1  0
  7  8  1  0
  8  9  1  0
  9 10  1  0
  9 11  1  0
 11 12  1  0
 12 13  1  0
 13 14  1  0
 14 15  1  0
 15 16  1  0
 16 17  1  0
  2 18  1  0
 18 19  2  0
 19 20  1  0
 20 21  2  0
 21 22  1  0
 22 23  2  0
 23 24  1  0
 23 25  1  0
 25 26  2  0
 26 27  1  0
 27 28  2  0
 12  7  1  0
 17 13  1  0
 28 18  1  0
 27 21  1  0
  3 29  1  0
  4 30  1  0
  4 31  1  0
  8 32  1  0
  8 33  1  0
  9 34  1  6
 10 35  1  0
 11 36  1  0
 11 37  1  0
 12 38  1  1
 13 39  1  0
 14 40  1  0
 14 41  1  0
 15 42  1  0
 15 43  1  0
 16 44  1  0
 16 45  1  0
 17 46  1  0
 17 47  1  0
 19 48  1  0
 20 49  1  0
 22 50  1  0
 25 51  1  0
 26 52  1  0
M  END
>  <smiles>  (45) 
O=C(NCC(=O)N1C[C@H](O)C[C@H]1C1CCCC1)c1ccc2cc(F)ccc2n1

>  <score_type>  (45) 
oracle

>  <origin>  (45) 
autodockgpu

>  <m_score__min__energy>  (45) 
-8.7899999999999991

>  <m_primary>  (45) 
energy

>  <rmsd>  (45) 
5.5723863159783

>  <m_score__min__rmsd>  (45) 
5.5723863159783

>  <meeko>  (45) 
{"free_energy": -7.0, "intermolecular_energy": -8.79, "internal_energy": -1.99, "cluster_size": 2, "cluster_id": 3, "rank_in_cluster": 2}

>  <energy>  (45) 
-6.07

>  <cluster_rmsd>  (45) 
1.92

>  <cluster>  (45) 
2

$$$$

     RDKit          3D

 52 55  0  0  0  0  0  0  0  0999 V2000
  141.3490   72.1960  221.5320 O   0  0  0  0  0  0  0  0  0  0  0  0
  140.3910   72.4150  222.3350 C   0  0  0  0  0  0  0  0  0  0  0  0
  139.4720   73.4880  222.1140 N   0  0  0  0  0  0  0  0  0  0  0  0
  139.5960   74.3630  220.9680 C   0  0  0  0  0  0  0  0  0  0  0  0
  140.7690   75.2940  221.1530 C   0  0  0  0  0  0  0  0  0  0  0  0
  141.0330   75.5820  222.3500 O   0  0  0  0  0  0  0  0  0  0  0  0
  141.5060   75.7960  220.0430 N   0  0  0  0  0  0  0  0  0  0  0  0
  141.2160   77.0820  219.4380 C   0  0  0  0  0  0  0  0  0  0  0  0
  142.2280   77.1410  218.2890 C   0  0  2  0  0  0  0  0  0  0  0  0
  141.6680   76.5890  217.1320 O   0  0  0  0  0  0  0  0  0  0  0  0
  143.3420   76.1980  218.7190 C   0  0  0  0  0  0  0  0  0  0  0  0
  142.5800   75.1140  219.4100 C   0  0  1  0  0  0  0  0  0  0  0  0
  143.4100   74.2120  220.2450 C   0  0  0  0  0  0  0  0  0  0  0  0
  144.8220   74.6150  220.4600 C   0  0  0  0  0  0  0  0  0  0  0  0
  145.3840   73.3420  221.1120 C   0  0  0  0  0  0  0  0  0  0  0  0
  144.7670   72.2340  220.2810 C   0  0  0  0  0  0  0  0  0  0  0  0
  143.5950   72.8640  219.5330 C   0  0  0  0  0  0  0  0  0  0  0  0
  140.2220   71.5630  223.5030 C   0  0  0  0  0  0  0  0  0  0  0  0
  139.5520   70.3610  223.3950 C   0  0  0  0  0  0  0  0  0  0  0  0
  139.3620   69.5130  224.4660 C   0  0  0  0  0  0  0  0  0  0  0  0
  139.8790   69.9220  225.6830 C   0  0  0  0  0  0  0  0  0  0  0  0
  139.7190   69.1140  226.7870 C   0  0  0  0  0  0  0  0  0  0  0  0
  140.2260   69.5140  227.9820 C   0  0  0  0  0  0  0  0  0  0  0  0
  140.0760   68.7260  229.0870 F   0  0  0  0  0  0  0  0  0  0  0  0
  140.8990   70.7130  228.1100 C   0  0  0  0  0  0  0  0  0  0  0  0
  141.0750   71.5420  227.0250 C   0  0  0  0  0  0  0  0  0  0  0  0
  140.5560   71.1360  225.7940 C   0  0  0  0  0  0  0  0  0  0  0  0
  140.7100   71.9270  224.6960 N   0  0  0  0  0  0  0  0  0  0  0  0
  138.7040   73.6080  222.8230 H   0  0  0  0  0  0  0  0  0  0  0  0
  139.7508   73.7576  220.0627 H   0  0  0  0  0  0  0  0  0  0  0  0
  138.6760   74.9575  220.8669 H   0  0  0  0  0  0  0  0  0  0  0  0
  140.1833   77.1206  219.0611 H   0  0  0  0  0  0  0  0  0  0  0  0
  141.2974   77.9258  220.1390 H   0  0  0  0  0  0  0  0  0  0  0  0
  142.5502   78.1733  218.0876 H   0  0  0  0  0  0  0  0  0  0  0  0
  142.2070   75.8380  216.7880 H   0  0  0  0  0  0  0  0  0  0  0  0
  143.8934   75.8082  217.8507 H   0  0  0  0  0  0  0  0  0  0  0  0
  144.1079   76.6736  219.3493 H   0  0  0  0  0  0  0  0  0  0  0  0
  142.1824   74.3571  218.7179 H   0  0  0  0  0  0  0  0  0  0  0  0
  142.8574   74.2099  221.1961 H   0  0  0  0  0  0  0  0  0  0  0  0
  145.3282   74.8415  219.5101 H   0  0  0  0  0  0  0  0  0  0  0  0
  144.9504   75.5295  221.0576 H   0  0  0  0  0  0  0  0  0  0  0  0
  146.4820   73.3178  221.0507 H   0  0  0  0  0  0  0  0  0  0  0  0
  145.1489   73.2631  222.1837 H   0  0  0  0  0  0  0  0  0  0  0  0
  145.5045   71.8362  219.5684 H   0  0  0  0  0  0  0  0  0  0  0  0
  144.4355   71.3967  220.9127 H   0  0  0  0  0  0  0  0  0  0  0  0
  143.8375   73.0092  218.4699 H   0  0  0  0  0  0  0  0  0  0  0  0
  142.6888   72.2406  219.5463 H   0  0  0  0  0  0  0  0  0  0  0  0
  139.1527   70.0670  222.4131 H   0  0  0  0  0  0  0  0  0  0  0  0
  138.8259   68.5585  224.3583 H   0  0  0  0  0  0  0  0  0  0  0  0
  139.1865   68.1553  226.7019 H   0  0  0  0  0  0  0  0  0  0  0  0
  141.2993   71.0093  229.0908 H   0  0  0  0  0  0  0  0  0  0  0  0
  141.6098   72.4980  227.1251 H   0  0  0  0  0  0  0  0  0  0  0  0
  1  2  2  0
  2  3  1  0
  3  4  1  0
  4  5  1  0
  5  6  2  0
  5  7  1  0
  7  8  1  0
  8  9  1  0
  9 10  1  0
  9 11  1  0
 11 12  1  0
 12 13  1  0
 13 14  1  0
 14 15  1  0
 15 16  1  0
 16 17  1  0
  2 18  1  0
 18 19  2  0
 19 20  1  0
 20 21  2  0
 21 22  1  0
 22 23  2  0
 23 24  1  0
 23 25  1  0
 25 26  2  0
 26 27  1  0
 27 28  2  0
 12  7  1  0
 17 13  1  0
 28 18  1  0
 27 21  1  0
  3 29  1  0
  4 30  1  0
  4 31  1  0
  8 32  1  0
  8 33  1  0
  9 34  1  6
 10 35  1  0
 11 36  1  0
 11 37  1  0
 12 38  1  6
 13 39  1  0
 14 40  1  0
 14 41  1  0
 15 42  1  0
 15 43  1  0
 16 44  1  0
 16 45  1  0
 17 46  1  0
 17 47  1  0
 19 48  1  0
 20 49  1  0
 22 50  1  0
 25 51  1  0
 26 52  1  0
M  END
>  <smiles>  (46) 
O=C(NCC(=O)N1C[C@H](O)C[C@H]1C1CCCC1)c1ccc2cc(F)ccc2n1

>  <score_type>  (46) 
oracle

>  <origin>  (46) 
autodockgpu

>  <m_score__min__energy>  (46) 
-8.7899999999999991

>  <m_primary>  (46) 
energy

>  <rmsd>  (46) 
2.103075681737407

>  <m_score__min__rmsd>  (46) 
2.103075681737407

>  <meeko>  (46) 
{"free_energy": -7.83, "intermolecular_energy": -9.62, "internal_energy": -1.65, "cluster_size": 8, "cluster_id": 2, "rank_in_cluster": 1}

>  <energy>  (46) 
-7.46

>  <cluster_rmsd>  (46) 
0.0

>  <cluster>  (46) 
3

$$$$

     RDKit          3D

 52 55  0  0  0  0  0  0  0  0999 V2000
  140.4750   71.7020  221.1060 O   0  0  0  0  0  0  0  0  0  0  0  0
  140.1260   72.2420  222.2000 C   0  0  0  0  0  0  0  0  0  0  0  0
  139.8510   73.6430  222.2770 N   0  0  0  0  0  0  0  0  0  0  0  0
  139.9580   74.4980  221.1140 C   0  0  0  0  0  0  0  0  0  0  0  0
  140.3260   75.8990  221.5330 C   0  0  0  0  0  0  0  0  0  0  0  0
  139.9810   76.2100  222.7040 O   0  0  0  0  0  0  0  0  0  0  0  0
  141.0110   76.7860  220.6550 N   0  0  0  0  0  0  0  0  0  0  0  0
  140.9730   76.6320  219.2130 C   0  0  0  0  0  0  0  0  0  0  0  0
  141.8750   77.7750  218.7360 C   0  0  2  0  0  0  0  0  0  0  0  0
  143.1980   77.3300  218.6430 O   0  0  0  0  0  0  0  0  0  0  0  0
  141.8390   78.7830  219.8750 C   0  0  0  0  0  0  0  0  0  0  0  0
  141.7960   77.8940  221.0740 C   0  0  1  0  0  0  0  0  0  0  0  0
  141.4080   78.5750  222.3340 C   0  0  0  0  0  0  0  0  0  0  0  0
  140.3070   79.5660  222.2430 C   0  0  0  0  0  0  0  0  0  0  0  0
  140.3920   80.2130  223.6350 C   0  0  0  0  0  0  0  0  0  0  0  0
  141.8860   80.3790  223.8400 C   0  0  0  0  0  0  0  0  0  0  0  0
  142.5610   79.4620  222.8250 C   0  0  0  0  0  0  0  0  0  0  0  0
  140.0030   71.4260  223.3980 C   0  0  0  0  0  0  0  0  0  0  0  0
  139.4350   70.1700  223.3280 C   0  0  0  0  0  0  0  0  0  0  0  0
  139.2920   69.3520  224.4300 C   0  0  0  0  0  0  0  0  0  0  0  0
  139.7500   69.8490  225.6380 C   0  0  0  0  0  0  0  0  0  0  0  0
  139.6330   69.0750  226.7710 C   0  0  0  0  0  0  0  0  0  0  0  0
  140.0820   69.5620  227.9570 C   0  0  0  0  0  0  0  0  0  0  0  0
  139.9740   68.8090  229.0900 F   0  0  0  0  0  0  0  0  0  0  0  0
  140.6530   70.8160  228.0470 C   0  0  0  0  0  0  0  0  0  0  0  0
  140.7840   71.6140  226.9330 C   0  0  0  0  0  0  0  0  0  0  0  0
  140.3240   71.1190  225.7110 C   0  0  0  0  0  0  0  0  0  0  0  0
  140.4360   71.8750  224.5840 N   0  0  0  0  0  0  0  0  0  0  0  0
  139.5670   74.0200  223.2170 H   0  0  0  0  0  0  0  0  0  0  0  0
  140.7346   74.1033  220.4424 H   0  0  0  0  0  0  0  0  0  0  0  0
  138.9892   74.5206  220.5934 H   0  0  0  0  0  0  0  0  0  0  0  0
  141.3737   75.6545  218.9065 H   0  0  0  0  0  0  0  0  0  0  0  0
  139.9568   76.6699  218.7936 H   0  0  0  0  0  0  0  0  0  0  0  0
  141.5482   78.1686  217.7622 H   0  0  0  0  0  0  0  0  0  0  0  0
  143.7440   77.6480  219.4000 H   0  0  0  0  0  0  0  0  0  0  0  0
  142.7392   79.4151  219.8781 H   0  0  0  0  0  0  0  0  0  0  0  0
  140.9980   79.4895  219.8160 H   0  0  0  0  0  0  0  0  0  0  0  0
  142.7908   77.5461  221.3891 H   0  0  0  0  0  0  0  0  0  0  0  0
  141.1162   77.7269  222.9709 H   0  0  0  0  0  0  0  0  0  0  0  0
  140.4867   80.2995  221.4432 H   0  0  0  0  0  0  0  0  0  0  0  0
  139.3245   79.1364  221.9978 H   0  0  0  0  0  0  0  0  0  0  0  0
  139.8796   81.1862  223.6511 H   0  0  0  0  0  0  0  0  0  0  0  0
  139.9089   79.6157  224.4223 H   0  0  0  0  0  0  0  0  0  0  0  0
  142.1809   81.4241  223.6645 H   0  0  0  0  0  0  0  0  0  0  0  0
  142.1797   80.1224  224.8685 H   0  0  0  0  0  0  0  0  0  0  0  0
  142.9937   80.0415  221.9961 H   0  0  0  0  0  0  0  0  0  0  0  0
  143.3967   78.8874  223.2510 H   0  0  0  0  0  0  0  0  0  0  0  0
  139.0813   69.8056  222.3522 H   0  0  0  0  0  0  0  0  0  0  0  0
  138.8364   68.3538  224.3523 H   0  0  0  0  0  0  0  0  0  0  0  0
  139.1810   68.0736  226.7162 H   0  0  0  0  0  0  0  0  0  0  0  0
  141.0079   71.1821  229.0217 H   0  0  0  0  0  0  0  0  0  0  0  0
  141.2382   72.6134  227.0035 H   0  0  0  0  0  0  0  0  0  0  0  0
  1  2  2  0
  2  3  1  0
  3  4  1  0
  4  5  1  0
  5  6  2  0
  5  7  1  0
  7  8  1  0
  8  9  1  0
  9 10  1  0
  9 11  1  0
 11 12  1  0
 12 13  1  0
 13 14  1  0
 14 15  1  0
 15 16  1  0
 16 17  1  0
  2 18  1  0
 18 19  2  0
 19 20  1  0
 20 21  2  0
 21 22  1  0
 22 23  2  0
 23 24  1  0
 23 25  1  0
 25 26  2  0
 26 27  1  0
 27 28  2  0
 12  7  1  0
 17 13  1  0
 28 18  1  0
 27 21  1  0
  3 29  1  0
  4 30  1  0
  4 31  1  0
  8 32  1  0
  8 33  1  0
  9 34  1  6
 10 35  1  0
 11 36  1  0
 11 37  1  0
 12 38  1  1
 13 39  1  0
 14 40  1  0
 14 41  1  0
 15 42  1  0
 15 43  1  0
 16 44  1  0
 16 45  1  0
 17 46  1  0
 17 47  1  0
 19 48  1  0
 20 49  1  0
 22 50  1  0
 25 51  1  0
 26 52  1  0
M  END
>  <smiles>  (47) 
O=C(NCC(=O)N1C[C@H](O)C[C@H]1C1CCCC1)c1ccc2cc(F)ccc2n1

>  <score_type>  (47) 
oracle

>  <origin>  (47) 
autodockgpu

>  <m_score__min__energy>  (47) 
-8.7899999999999991

>  <m_primary>  (47) 
energy

>  <rmsd>  (47) 
1.7520628054408711

>  <m_score__min__rmsd>  (47) 
1.7520628054408711

>  <meeko>  (47) 
{"free_energy": -8.7, "intermolecular_energy": -10.49, "internal_energy": -1.73, "cluster_size": 37, "cluster_id": 1, "rank_in_cluster": 9}

>  <energy>  (47) 
-7.0

>  <cluster_rmsd>  (47) 
1.06

>  <cluster>  (47) 
3

$$$$

     RDKit          3D

 52 55  0  0  0  0  0  0  0  0999 V2000
  140.8540   71.0240  221.8810 O   0  0  0  0  0  0  0  0  0  0  0  0
  140.4480   71.7090  222.8690 C   0  0  0  0  0  0  0  0  0  0  0  0
  139.9320   73.0310  222.6890 N   0  0  0  0  0  0  0  0  0  0  0  0
  139.8520   73.6370  221.3780 C   0  0  0  0  0  0  0  0  0  0  0  0
  140.1960   75.1030  221.4630 C   0  0  0  0  0  0  0  0  0  0  0  0
  139.6040   75.7340  222.3780 O   0  0  0  0  0  0  0  0  0  0  0  0
  141.1230   75.7060  220.5660 N   0  0  0  0  0  0  0  0  0  0  0  0
  141.5270   75.0710  219.3260 C   0  0  0  0  0  0  0  0  0  0  0  0
  142.5390   76.0710  218.7590 C   0  0  2  0  0  0  0  0  0  0  0  0
  143.8240   75.7590  219.2150 O   0  0  0  0  0  0  0  0  0  0  0  0
  142.1630   77.3960  219.4060 C   0  0  0  0  0  0  0  0  0  0  0  0
  141.7480   76.9650  220.7750 C   0  0  1  0  0  0  0  0  0  0  0  0
  140.9980   77.9880  221.5430 C   0  0  0  0  0  0  0  0  0  0  0  0
  141.2650   79.4070  221.1990 C   0  0  0  0  0  0  0  0  0  0  0  0
  140.5340   80.1190  222.3490 C   0  0  0  0  0  0  0  0  0  0  0  0
  140.9130   79.2850  223.5580 C   0  0  0  0  0  0  0  0  0  0  0  0
  141.4310   77.9570  223.0150 C   0  0  0  0  0  0  0  0  0  0  0  0
  140.5070   71.1450  224.2100 C   0  0  0  0  0  0  0  0  0  0  0  0
  141.0130   71.8900  225.2550 C   0  0  0  0  0  0  0  0  0  0  0  0
  141.0940   71.4080  226.5460 C   0  0  0  0  0  0  0  0  0  0  0  0
  140.6390   70.1180  226.7570 C   0  0  0  0  0  0  0  0  0  0  0  0
  140.6960   69.5850  228.0270 C   0  0  0  0  0  0  0  0  0  0  0  0
  140.2490   68.3190  228.2360 C   0  0  0  0  0  0  0  0  0  0  0  0
  140.2980   67.7750  229.4870 F   0  0  0  0  0  0  0  0  0  0  0  0
  139.7400   67.5580  227.2020 C   0  0  0  0  0  0  0  0  0  0  0  0
  139.6710   68.0620  225.9230 C   0  0  0  0  0  0  0  0  0  0  0  0
  140.1270   69.3630  225.7020 C   0  0  0  0  0  0  0  0  0  0  0  0
  140.0760   69.9000  224.4510 N   0  0  0  0  0  0  0  0  0  0  0  0
  139.6140   73.5380  223.5550 H   0  0  0  0  0  0  0  0  0  0  0  0
  140.5600   73.1358  220.7016 H   0  0  0  0  0  0  0  0  0  0  0  0
  138.8270   73.5293  220.9935 H   0  0  0  0  0  0  0  0  0  0  0  0
  141.9956   74.0937  219.5136 H   0  0  0  0  0  0  0  0  0  0  0  0
  140.6882   74.8611  218.6460 H   0  0  0  0  0  0  0  0  0  0  0  0
  142.5284   76.0762  217.6591 H   0  0  0  0  0  0  0  0  0  0  0  0
  144.4750   75.7190  218.4740 H   0  0  0  0  0  0  0  0  0  0  0  0
  143.0235   78.0800  219.4458 H   0  0  0  0  0  0  0  0  0  0  0  0
  141.3858   77.9516  218.8608 H   0  0  0  0  0  0  0  0  0  0  0  0
  142.5951   76.8478  221.4669 H   0  0  0  0  0  0  0  0  0  0  0  0
  139.9546   77.7229  221.3172 H   0  0  0  0  0  0  0  0  0  0  0  0
  142.3422   79.6298  221.2034 H   0  0  0  0  0  0  0  0  0  0  0  0
  140.9337   79.7040  220.1930 H   0  0  0  0  0  0  0  0  0  0  0  0
  140.8835   81.1563  222.4582 H   0  0  0  0  0  0  0  0  0  0  0  0
  139.4474   80.1919  222.1944 H   0  0  0  0  0  0  0  0  0  0  0  0
  141.6978   79.7912  224.1393 H   0  0  0  0  0  0  0  0  0  0  0  0
  140.0527   79.1357  224.2270 H   0  0  0  0  0  0  0  0  0  0  0  0
  142.5257   77.8948  223.1030 H   0  0  0  0  0  0  0  0  0  0  0  0
  141.0409   77.0856  223.5614 H   0  0  0  0  0  0  0  0  0  0  0  0
  141.3669   72.9113  225.0509 H   0  0  0  0  0  0  0  0  0  0  0  0
  141.4998   72.0186  227.3660 H   0  0  0  0  0  0  0  0  0  0  0  0
  141.0987   70.1777  228.8616 H   0  0  0  0  0  0  0  0  0  0  0  0
  139.3853   66.5363  227.4031 H   0  0  0  0  0  0  0  0  0  0  0  0
  139.2678   67.4566  225.0979 H   0  0  0  0  0  0  0  0  0  0  0  0
  1  2  2  0
  2  3  1  0
  3  4  1  0
  4  5  1  0
  5  6  2  0
  5  7  1  0
  7  8  1  0
  8  9  1  0
  9 10  1  0
  9 11  1  0
 11 12  1  0
 12 13  1  0
 13 14  1  0
 14 15  1  0
 15 16  1  0
 16 17  1  0
  2 18  1  0
 18 19  2  0
 19 20  1  0
 20 21  2  0
 21 22  1  0
 22 23  2  0
 23 24  1  0
 23 25  1  0
 25 26  2  0
 26 27  1  0
 27 28  2  0
 12  7  1  0
 17 13  1  0
 28 18  1  0
 27 21  1  0
  3 29  1  0
  4 30  1  0
  4 31  1  0
  8 32  1  0
  8 33  1  0
  9 34  1  6
 10 35  1  0
 11 36  1  0
 11 37  1  0
 12 38  1  1
 13 39  1  0
 14 40  1  0
 14 41  1  0
 15 42  1  0
 15 43  1  0
 16 44  1  0
 16 45  1  0
 17 46  1  0
 17 47  1  0
 19 48  1  0
 20 49  1  0
 22 50  1  0
 25 51  1  0
 26 52  1  0
M  END
>  <smiles>  (48) 
O=C(NCC(=O)N1C[C@H](O)C[C@H]1C1CCCC1)c1ccc2cc(F)ccc2n1

>  <score_type>  (48) 
oracle

>  <origin>  (48) 
autodockgpu

>  <m_score__min__energy>  (48) 
-8.7899999999999991

>  <m_primary>  (48) 
energy

>  <rmsd>  (48) 
2.755971010697846

>  <m_score__min__rmsd>  (48) 
2.755971010697846

>  <meeko>  (48) 
{"free_energy": -7.96, "intermolecular_energy": -9.75, "internal_energy": -1.32, "cluster_size": 37, "cluster_id": 1, "rank_in_cluster": 32}

>  <energy>  (48) 
-7.46

>  <cluster_rmsd>  (48) 
0.0

>  <cluster>  (48) 
4

$$$$

     RDKit          3D

 52 55  0  0  0  0  0  0  0  0999 V2000
  138.9090   72.0070  221.3590 O   0  0  0  0  0  0  0  0  0  0  0  0
  139.7870   72.2300  222.2490 C   0  0  0  0  0  0  0  0  0  0  0  0
  140.7550   73.2700  222.0870 N   0  0  0  0  0  0  0  0  0  0  0  0
  140.7730   74.1070  220.9060 C   0  0  0  0  0  0  0  0  0  0  0  0
  140.6790   75.5590  221.3000 C   0  0  0  0  0  0  0  0  0  0  0  0
  140.1190   75.7730  222.4080 O   0  0  0  0  0  0  0  0  0  0  0  0
  141.1920   76.5930  220.4670 N   0  0  0  0  0  0  0  0  0  0  0  0
  141.1150   76.5330  219.0190 C   0  0  0  0  0  0  0  0  0  0  0  0
  141.8230   77.8240  218.5980 C   0  0  2  0  0  0  0  0  0  0  0  0
  143.1910   77.5850  218.4300 O   0  0  0  0  0  0  0  0  0  0  0  0
  141.6910   78.7380  219.8070 C   0  0  0  0  0  0  0  0  0  0  0  0
  141.8260   77.7740  220.9400 C   0  0  1  0  0  0  0  0  0  0  0  0
  141.3980   78.3050  222.2570 C   0  0  0  0  0  0  0  0  0  0  0  0
  140.1210   79.0610  222.2870 C   0  0  0  0  0  0  0  0  0  0  0  0
  140.1700   79.6460  223.7070 C   0  0  0  0  0  0  0  0  0  0  0  0
  141.6130   80.0970  223.8370 C   0  0  0  0  0  0  0  0  0  0  0  0
  142.3850   79.3800  222.7330 C   0  0  0  0  0  0  0  0  0  0  0  0
  139.8110   71.4160  223.4550 C   0  0  0  0  0  0  0  0  0  0  0  0
  139.2270   70.1650  223.4600 C   0  0  0  0  0  0  0  0  0  0  0  0
  139.2190   69.3490  224.5730 C   0  0  0  0  0  0  0  0  0  0  0  0
  139.8330   69.8440  225.7110 C   0  0  0  0  0  0  0  0  0  0  0  0
  139.8550   69.0710  226.8520 C   0  0  0  0  0  0  0  0  0  0  0  0
  140.4570   69.5550  227.9690 C   0  0  0  0  0  0  0  0  0  0  0  0
  140.4880   68.8040  229.1090 F   0  0  0  0  0  0  0  0  0  0  0  0
  141.0470   70.8040  227.9830 C   0  0  0  0  0  0  0  0  0  0  0  0
  141.0410   71.5990  226.8590 C   0  0  0  0  0  0  0  0  0  0  0  0
  140.4240   71.1070  225.7070 C   0  0  0  0  0  0  0  0  0  0  0  0
  140.3960   71.8620  224.5740 N   0  0  0  0  0  0  0  0  0  0  0  0
  141.4510   73.3950  222.8660 H   0  0  0  0  0  0  0  0  0  0  0  0
  141.7102   73.9392  220.3552 H   0  0  0  0  0  0  0  0  0  0  0  0
  139.9139   73.8500  220.2689 H   0  0  0  0  0  0  0  0  0  0  0  0
  141.6378   75.6472  218.6291 H   0  0  0  0  0  0  0  0  0  0  0  0
  140.0869   76.4509  218.6367 H   0  0  0  0  0  0  0  0  0  0  0  0
  141.4021   78.2294  217.6661 H   0  0  0  0  0  0  0  0  0  0  0  0
  143.7080   77.8470  219.2290 H   0  0  0  0  0  0  0  0  0  0  0  0
  142.4909   79.4929  219.8268 H   0  0  0  0  0  0  0  0  0  0  0  0
  140.7559   79.3170  219.8258 H   0  0  0  0  0  0  0  0  0  0  0  0
  142.8727   77.5551  221.1979 H   0  0  0  0  0  0  0  0  0  0  0  0
  141.3212   77.3870  222.8582 H   0  0  0  0  0  0  0  0  0  0  0  0
  140.1003   79.8522  221.5231 H   0  0  0  0  0  0  0  0  0  0  0  0
  139.2273   78.4566  222.0727 H   0  0  0  0  0  0  0  0  0  0  0  0
  139.4789   80.4957  223.8092 H   0  0  0  0  0  0  0  0  0  0  0  0
  139.8671   78.9283  224.4836 H   0  0  0  0  0  0  0  0  0  0  0  0
  141.6850   81.1869  223.7065 H   0  0  0  0  0  0  0  0  0  0  0  0
  142.0196   79.8574  224.8306 H   0  0  0  0  0  0  0  0  0  0  0  0
  142.6393   80.0716  221.9163 H   0  0  0  0  0  0  0  0  0  0  0  0
  143.3435   78.9640  223.0768 H   0  0  0  0  0  0  0  0  0  0  0  0
  138.7480   69.8035  222.5382 H   0  0  0  0  0  0  0  0  0  0  0  0
  138.7483   68.3549  224.5568 H   0  0  0  0  0  0  0  0  0  0  0  0
  139.3905   68.0739  226.8578 H   0  0  0  0  0  0  0  0  0  0  0  0
  141.5274   71.1678  228.9033 H   0  0  0  0  0  0  0  0  0  0  0  0
  141.5093   72.5943  226.8682 H   0  0  0  0  0  0  0  0  0  0  0  0
  1  2  2  0
  2  3  1  0
  3  4  1  0
  4  5  1  0
  5  6  2  0
  5  7  1  0
  7  8  1  0
  8  9  1  0
  9 10  1  0
  9 11  1  0
 11 12  1  0
 12 13  1  0
 13 14  1  0
 14 15  1  0
 15 16  1  0
 16 17  1  0
  2 18  1  0
 18 19  2  0
 19 20  1  0
 20 21  2  0
 21 22  1  0
 22 23  2  0
 23 24  1  0
 23 25  1  0
 25 26  2  0
 26 27  1  0
 27 28  2  0
 12  7  1  0
 17 13  1  0
 28 18  1  0
 27 21  1  0
  3 29  1  0
  4 30  1  0
  4 31  1  0
  8 32  1  0
  8 33  1  0
  9 34  1  6
 10 35  1  0
 11 36  1  0
 11 37  1  0
 12 38  1  1
 13 39  1  0
 14 40  1  0
 14 41  1  0
 15 42  1  0
 15 43  1  0
 16 44  1  0
 16 45  1  0
 17 46  1  0
 17 47  1  0
 19 48  1  0
 20 49  1  0
 22 50  1  0
 25 51  1  0
 26 52  1  0
M  END
>  <smiles>  (49) 
O=C(NCC(=O)N1C[C@H](O)C[C@H]1C1CCCC1)c1ccc2cc(F)ccc2n1

>  <score_type>  (49) 
oracle

>  <origin>  (49) 
autodockgpu

>  <m_score__min__energy>  (49) 
-8.7899999999999991

>  <m_primary>  (49) 
energy

>  <rmsd>  (49) 
1.841141191335745

>  <m_score__min__rmsd>  (49) 
1.841141191335745

>  <meeko>  (49) 
{"free_energy": -8.04, "intermolecular_energy": -9.83, "internal_energy": -1.5, "cluster_size": 37, "cluster_id": 1, "rank_in_cluster": 30}

>  <energy>  (49) 
-6.39

>  <cluster_rmsd>  (49) 
1.7

>  <cluster>  (49) 
4

$$$$

     RDKit          3D

 52 55  0  0  0  0  0  0  0  0999 V2000
  138.3410   71.1910  221.4730 O   0  0  0  0  0  0  0  0  0  0  0  0
  138.9890   71.7150  222.4300 C   0  0  0  0  0  0  0  0  0  0  0  0
  139.4130   73.0800  222.3750 N   0  0  0  0  0  0  0  0  0  0  0  0
  139.1210   73.9150  221.2290 C   0  0  0  0  0  0  0  0  0  0  0  0
  140.0720   73.5980  220.1030 C   0  0  0  0  0  0  0  0  0  0  0  0
  140.3080   74.5570  219.3220 O   0  0  0  0  0  0  0  0  0  0  0  0
  140.6470   72.3040  219.9530 N   0  0  0  0  0  0  0  0  0  0  0  0
  140.0170   71.2610  219.1650 C   0  0  0  0  0  0  0  0  0  0  0  0
  140.9790   70.0830  219.3480 C   0  0  2  0  0  0  0  0  0  0  0  0
  140.5990   69.3260  220.4610 O   0  0  0  0  0  0  0  0  0  0  0  0
  142.3080   70.7340  219.7050 C   0  0  0  0  0  0  0  0  0  0  0  0
  141.8720   71.8900  220.5450 C   0  0  1  0  0  0  0  0  0  0  0  0
  142.9140   72.9210  220.7650 C   0  0  0  0  0  0  0  0  0  0  0  0
  143.1440   73.8820  219.6570 C   0  0  0  0  0  0  0  0  0  0  0  0
  144.4250   74.5770  220.1460 C   0  0  0  0  0  0  0  0  0  0  0  0
  145.2570   73.4230  220.6700 C   0  0  0  0  0  0  0  0  0  0  0  0
  144.2940   72.2570  220.8670 C   0  0  0  0  0  0  0  0  0  0  0  0
  139.3070   70.9180  223.6050 C   0  0  0  0  0  0  0  0  0  0  0  0
  139.0120   69.5700  223.6300 C   0  0  0  0  0  0  0  0  0  0  0  0
  139.2900   68.7640  224.7150 C   0  0  0  0  0  0  0  0  0  0  0  0
  139.8900   69.3730  225.8040 C   0  0  0  0  0  0  0  0  0  0  0  0
  140.1910   68.6160  226.9160 C   0  0  0  0  0  0  0  0  0  0  0  0
  140.7800   69.2120  227.9850 C   0  0  0  0  0  0  0  0  0  0  0  0
  141.0860   68.4780  229.0950 F   0  0  0  0  0  0  0  0  0  0  0  0
  141.0830   70.5590  227.9780 C   0  0  0  0  0  0  0  0  0  0  0  0
  140.7950   71.3420  226.8830 C   0  0  0  0  0  0  0  0  0  0  0  0
  140.1900   70.7350  225.7800 C   0  0  0  0  0  0  0  0  0  0  0  0
  139.8880   71.4740  224.6760 N   0  0  0  0  0  0  0  0  0  0  0  0
  139.9450   73.4450  223.2060 H   0  0  0  0  0  0  0  0  0  0  0  0
  138.0889   73.7295  220.8969 H   0  0  0  0  0  0  0  0  0  0  0  0
  139.2379   74.9712  221.5132 H   0  0  0  0  0  0  0  0  0  0  0  0
  139.0155   71.0205  219.5513 H   0  0  0  0  0  0  0  0  0  0  0  0
  139.8595   71.5401  218.1127 H   0  0  0  0  0  0  0  0  0  0  0  0
  141.0052   69.4407  218.4554 H   0  0  0  0  0  0  0  0  0  0  0  0
  139.8060   69.7070  220.9080 H   0  0  0  0  0  0  0  0  0  0  0  0
  142.9499   70.0458  220.2745 H   0  0  0  0  0  0  0  0  0  0  0  0
  142.9093   71.0231  218.8304 H   0  0  0  0  0  0  0  0  0  0  0  0
  141.7028   71.6200  221.5978 H   0  0  0  0  0  0  0  0  0  0  0  0
  142.5354   73.4395  221.6582 H   0  0  0  0  0  0  0  0  0  0  0  0
  143.3032   73.3657  218.6988 H   0  0  0  0  0  0  0  0  0  0  0  0
  142.3021   74.5618  219.4592 H   0  0  0  0  0  0  0  0  0  0  0  0
  144.9370   75.0906  219.3190 H   0  0  0  0  0  0  0  0  0  0  0  0
  144.2365   75.3547  220.9007 H   0  0  0  0  0  0  0  0  0  0  0  0
  146.0369   73.1543  219.9423 H   0  0  0  0  0  0  0  0  0  0  0  0
  145.7618   73.6884  221.6106 H   0  0  0  0  0  0  0  0  0  0  0  0
  144.4262   71.4991  220.0808 H   0  0  0  0  0  0  0  0  0  0  0  0
  144.4481   71.7261  221.8180 H   0  0  0  0  0  0  0  0  0  0  0  0
  138.5349   69.1189  222.7474 H   0  0  0  0  0  0  0  0  0  0  0  0
  139.0470   67.6912  224.7147 H   0  0  0  0  0  0  0  0  0  0  0  0
  139.9568   67.5414  226.9374 H   0  0  0  0  0  0  0  0  0  0  0  0
  141.5608   71.0125  228.8590 H   0  0  0  0  0  0  0  0  0  0  0  0
  141.0346   72.4156  226.8768 H   0  0  0  0  0  0  0  0  0  0  0  0
  1  2  2  0
  2  3  1  0
  3  4  1  0
  4  5  1  0
  5  6  2  0
  5  7  1  0
  7  8  1  0
  8  9  1  0
  9 10  1  0
  9 11  1  0
 11 12  1  0
 12 13  1  0
 13 14  1  0
 14 15  1  0
 15 16  1  0
 16 17  1  0
  2 18  1  0
 18 19  2  0
 19 20  1  0
 20 21  2  0
 21 22  1  0
 22 23  2  0
 23 24  1  0
 23 25  1  0
 25 26  2  0
 26 27  1  0
 27 28  2  0
 12  7  1  0
 17 13  1  0
 28 18  1  0
 27 21  1  0
  3 29  1  0
  4 30  1  0
  4 31  1  0
  8 32  1  0
  8 33  1  0
  9 34  1  6
 10 35  1  0
 11 36  1  0
 11 37  1  0
 12 38  1  1
 13 39  1  0
 14 40  1  0
 14 41  1  0
 15 42  1  0
 15 43  1  0
 16 44  1  0
 16 45  1  0
 17 46  1  0
 17 47  1  0
 19 48  1  0
 20 49  1  0
 22 50  1  0
 25 51  1  0
 26 52  1  0
M  END
>  <smiles>  (50) 
O=C(NCC(=O)N1C[C@H](O)C[C@H]1C1CCCC1)c1ccc2cc(F)ccc2n1

>  <score_type>  (50) 
oracle

>  <origin>  (50) 
autodockgpu

>  <m_score__min__energy>  (50) 
-8.7899999999999991

>  <m_primary>  (50) 
energy

>  <rmsd>  (50) 
3.2570441264943746

>  <m_score__min__rmsd>  (50) 
3.2570441264943746

>  <meeko>  (50) 
{"free_energy": -6.07, "intermolecular_energy": -7.86, "internal_energy": -2.75, "cluster_size": 8, "cluster_id": 2, "rank_in_cluster": 8}

>  <energy>  (50) 
-6.12

>  <cluster_rmsd>  (50) 
0.0

>  <cluster>  (50) 
5

$$$$
