
 62 65  0  0  0  0  0  0  0  0999 V2000
  140.5700   84.1080  221.1530 C   0  0  0  0  0  0  0  0  0  0  0  0
  140.6180   82.6840  221.5930 C   0  0  0  0  0  0  0  0  0  0  0  0
  139.4240   82.0110  221.6630 C   0  0  0  0  0  0  0  0  0  0  0  0
  139.4570   80.6970  222.0670 C   0  0  0  0  0  0  0  0  0  0  0  0
  140.6450   80.0550  222.3960 C   0  0  0  0  0  0  0  0  0  0  0  0
  140.5630   78.6380  222.8180 C   0  0  1  0  0  0  0  0  0  0  0  0
  139.1240   78.1430  222.7190 C   0  0  0  0  0  0  0  0  0  0  0  0
  141.4330   77.7620  222.0610 N   0  0  0  0  0  0  0  0  0  0  0  0
  141.4430   77.7910  220.6520 C   0  0  0  0  0  0  0  0  0  0  0  0
  140.7230   78.5520  219.9520 O   0  0  0  0  0  0  0  0  0  0  0  0
  142.3520   76.8730  219.9380 C   0  0  2  0  0  0  0  0  0  0  0  0
  142.8520   77.3860  218.6310 C   0  0  0  0  0  0  0  0  0  0  0  0
  142.8010   76.1380  217.7660 C   0  0  1  0  0  0  0  0  0  0  0  0
  143.7730   75.2040  218.1170 O   0  0  0  0  0  0  0  0  0  0  0  0
  141.4480   75.6090  218.2320 C   0  0  0  0  0  0  0  0  0  0  0  0
  141.7240   75.5840  219.6770 N   0  0  0  0  0  0  0  0  0  0  0  0
  141.4480   74.5510  220.6030 C   0  0  0  0  0  0  0  0  0  0  0  0
  142.4070   73.8570  221.0350 O   0  0  0  0  0  0  0  0  0  0  0  0
  140.0410   74.3450  221.0100 C   0  0  0  0  0  0  0  0  0  0  0  0
  139.9030   73.4890  222.1560 N   0  0  0  0  0  0  0  0  0  0  0  0
  140.1850   72.1010  222.1030 C   0  0  0  0  0  0  0  0  0  0  0  0
  140.5730   71.5800  221.0140 O   0  0  0  0  0  0  0  0  0  0  0  0
  140.0270   71.2650  223.3100 C   0  0  0  0  0  0  0  0  0  0  0  0
  139.4330   70.0290  223.1920 C   0  0  0  0  0  0  0  0  0  0  0  0
  139.2970   69.2620  224.3490 C   0  0  0  0  0  0  0  0  0  0  0  0
  139.7440   69.7250  225.5730 C   0  0  0  0  0  0  0  0  0  0  0  0
  139.6230   68.9890  226.7360 C   0  0  0  0  0  0  0  0  0  0  0  0
  140.0830   69.4910  227.9310 C   0  0  0  0  0  0  0  0  0  0  0  0
  139.9800   68.7910  229.0930 F   0  0  0  0  0  0  0  0  0  0  0  0
  140.6660   70.7370  227.9610 C   0  0  0  0  0  0  0  0  0  0  0  0
  140.8020   71.5050  226.8030 C   0  0  0  0  0  0  0  0  0  0  0  0
  140.3230   70.9600  225.6090 C   0  0  0  0  0  0  0  0  0  0  0  0
  140.4650   71.7160  224.5160 N   0  0  0  0  0  0  0  0  0  0  0  0
  141.8280   80.7430  222.3200 C   0  0  0  0  0  0  0  0  0  0  0  0
  141.8010   82.0650  221.9150 C   0  0  0  0  0  0  0  0  0  0  0  0
  140.5479   84.7640  222.0357 H   0  0  0  0  0  0  0  0  0  0  0  0
  141.4610   84.3355  220.5494 H   0  0  0  0  0  0  0  0  0  0  0  0
  139.6657   84.2750  220.5494 H   0  0  0  0  0  0  0  0  0  0  0  0
  138.4753   82.5046  221.4054 H   0  0  0  0  0  0  0  0  0  0  0  0
  138.5130   80.1361  222.1319 H   0  0  0  0  0  0  0  0  0  0  0  0
  140.9071   78.6052  223.8623 H   0  0  0  0  0  0  0  0  0  0  0  0
  138.7143   78.0021  223.7301 H   0  0  0  0  0  0  0  0  0  0  0  0
  138.5177   78.8842  222.1777 H   0  0  0  0  0  0  0  0  0  0  0  0
  139.1020   77.1856  222.1777 H   0  0  0  0  0  0  0  0  0  0  0  0
  142.0400   77.1210  222.5970 H   0  0  0  0  0  0  0  0  0  0  0  0
  143.2056   76.7750  220.6248 H   0  0  0  0  0  0  0  0  0  0  0  0
  142.1970   78.1755  218.2338 H   0  0  0  0  0  0  0  0  0  0  0  0
  143.8484   77.8488  218.6863 H   0  0  0  0  0  0  0  0  0  0  0  0
  142.9492   76.3246  216.6921 H   0  0  0  0  0  0  0  0  0  0  0  0
  144.6850   75.4570  217.8480 H   0  0  0  0  0  0  0  0  0  0  0  0
  140.6237   76.2913  217.9771 H   0  0  0  0  0  0  0  0  0  0  0  0
  141.1224   74.6575  217.7864 H   0  0  0  0  0  0  0  0  0  0  0  0
  139.5994   75.3236  221.2493 H   0  0  0  0  0  0  0  0  0  0  0  0
  139.5265   73.8537  220.1710 H   0  0  0  0  0  0  0  0  0  0  0  0
  139.5820   73.8560  223.0990 H   0  0  0  0  0  0  0  0  0  0  0  0
  139.0778   69.6589  222.2189 H   0  0  0  0  0  0  0  0  0  0  0  0
  138.8253   68.2702  224.2867 H   0  0  0  0  0  0  0  0  0  0  0  0
  139.1552   67.9939  226.7059 H   0  0  0  0  0  0  0  0  0  0  0  0
  141.0328   71.1366  228.9179 H   0  0  0  0  0  0  0  0  0  0  0  0
  141.2684   72.5009  226.8297 H   0  0  0  0  0  0  0  0  0  0  0  0
  142.7794   80.2537  222.5759 H   0  0  0  0  0  0  0  0  0  0  0  0
  142.7425   82.6301  221.8496 H   0  0  0  0  0  0  0  0  0  0  0  0
  1  2  1  0
  2  3  2  0
  3  4  1  0
  4  5  2  0
  5  6  1  0
  6  7  1  0
  6  8  1  0
  8  9  1  0
  9 10  2  0
  9 11  1  0
 11 12  1  0
 12 13  1  0
 13 14  1  0
 13 15  1  0
 15 16  1  0
 16 17  1  0
 17 18  2  0
 17 19  1  0
 19 20  1  0
 20 21  1  0
 21 22  2  0
 21 23  1  0
 23 24  2  0
 24 25  1  0
 25 26  2  0
 26 27  1  0
 27 28  2  0
 28 29  1  0
 28 30  1  0
 30 31  2  0
 31 32  1  0
 32 33  2  0
  5 34  1  0
 34 35  2  0
 35  2  1  0
 16 11  1  0
 33 23  1  0
 32 26  1  0
  1 36  1  0
  1 37  1  0
  1 38  1  0
  3 39  1  0
  4 40  1  0
  6 41  1  1
  7 42  1  0
  7 43  1  0
  7 44  1  0
  8 45  1  0
 11 46  1  1
 12 47  1  0
 12 48  1  0
 13 49  1  6
 14 50  1  0
 15 51  1  0
 15 52  1  0
 19 53  1  0
 19 54  1  0
 20 55  1  0
 24 56  1  0
 25 57  1  0
 27 58  1  0
 30 59  1  0
 31 60  1  0
 34 61  1  0
 35 62  1  0
M  END
