
 58 62  0  0  0  0  0  0  0  0999 V2000
  139.1640   70.5010  221.5020 O   0  0  0  0  0  0  0  0  0  0  0  0
  139.4250   71.1900  222.5420 C   0  0  0  0  0  0  0  0  0  0  0  0
  139.5420   72.6130  222.4910 N   0  0  0  0  0  0  0  0  0  0  0  0
  139.3500   73.2510  221.1640 C   0  0  0  0  0  0  0  0  0  0  0  0
  139.7200   74.6300  221.1700 C   0  0  0  0  0  0  0  0  0  0  0  0
  139.8400   75.1620  222.3660 O   0  0  0  0  0  0  0  0  0  0  0  0
  139.9910   75.5830  220.1570 N   0  0  0  0  0  0  0  0  0  0  0  0
  139.2140   75.2510  218.8730 C   0  0  0  0  0  0  0  0  0  0  0  0
  139.6090   76.3540  217.9560 C   0  0  2  0  0  0  0  0  0  0  0  0
  140.6970   75.9020  217.1830 O   0  0  0  0  0  0  0  0  0  0  0  0
  140.0110   77.4980  218.8700 C   0  0  0  0  0  0  0  0  0  0  0  0
  140.7980   76.7110  219.9170 C   0  0  1  0  0  0  0  0  0  0  0  0
  141.4970   77.5170  220.9020 C   0  0  0  0  0  0  0  0  0  0  0  0
  140.8610   78.4130  221.8530 C   0  0  0  0  0  0  0  0  0  0  0  0
  139.4910   78.3580  222.0480 C   0  0  0  0  0  0  0  0  0  0  0  0
  138.7960   79.1990  222.8820 C   0  0  0  0  0  0  0  0  0  0  0  0
  139.4630   80.1620  223.5840 C   0  0  0  0  0  0  0  0  0  0  0  0
  140.8240   80.2620  223.4380 C   0  0  0  0  0  0  0  0  0  0  0  0
  141.4670   81.2160  224.2010 C   0  0  0  0  0  0  0  0  0  0  0  0
  142.8380   81.3300  224.1330 C   0  0  0  0  0  0  0  0  0  0  0  0
  143.5580   80.4930  223.3090 C   0  0  0  0  0  0  0  0  0  0  0  0
  142.8770   79.5590  222.5660 C   0  0  0  0  0  0  0  0  0  0  0  0
  141.5120   79.4000  222.5870 C   0  0  0  0  0  0  0  0  0  0  0  0
  139.6110   70.5070  223.8320 C   0  0  0  0  0  0  0  0  0  0  0  0
  139.2100   69.1940  223.9680 C   0  0  0  0  0  0  0  0  0  0  0  0
  139.3510   68.4830  225.1300 C   0  0  0  0  0  0  0  0  0  0  0  0
  139.9260   69.1340  226.2100 C   0  0  0  0  0  0  0  0  0  0  0  0
  140.0590   68.3980  227.3680 C   0  0  0  0  0  0  0  0  0  0  0  0
  140.6400   69.0650  228.4450 C   0  0  0  0  0  0  0  0  0  0  0  0
  141.0460   70.3730  228.3340 C   0  0  0  0  0  0  0  0  0  0  0  0
  140.8970   71.0820  227.1560 C   0  0  0  0  0  0  0  0  0  0  0  0
  140.3210   70.4350  226.0710 C   0  0  0  0  0  0  0  0  0  0  0  0
  140.1610   71.1060  224.8940 N   0  0  0  0  0  0  0  0  0  0  0  0
  139.7500   73.1350  223.3470 H   0  0  0  0  0  0  0  0  0  0  0  0
  139.9679   72.7217  220.4237 H   0  0  0  0  0  0  0  0  0  0  0  0
  138.2813   73.1892  220.9110 H   0  0  0  0  0  0  0  0  0  0  0  0
  139.5147   74.2729  218.4693 H   0  0  0  0  0  0  0  0  0  0  0  0
  138.1272   75.1800  219.0270 H   0  0  0  0  0  0  0  0  0  0  0  0
  138.8139   76.6722  217.2657 H   0  0  0  0  0  0  0  0  0  0  0  0
  141.0590   75.0310  217.5310 H   0  0  0  0  0  0  0  0  0  0  0  0
  140.6402   78.2368  218.3520 H   0  0  0  0  0  0  0  0  0  0  0  0
  139.1792   78.1017  219.2621 H   0  0  0  0  0  0  0  0  0  0  0  0
  141.7746   76.2786  219.6537 H   0  0  0  0  0  0  0  0  0  0  0  0
  142.0701   76.8026  221.5113 H   0  0  0  0  0  0  0  0  0  0  0  0
  141.9912   78.2470  220.2441 H   0  0  0  0  0  0  0  0  0  0  0  0
  138.9233   77.5917  221.4998 H   0  0  0  0  0  0  0  0  0  0  0  0
  137.7055   79.0973  222.9843 H   0  0  0  0  0  0  0  0  0  0  0  0
  138.9196   80.8447  224.2539 H   0  0  0  0  0  0  0  0  0  0  0  0
  140.8882   81.8808  224.8590 H   0  0  0  0  0  0  0  0  0  0  0  0
  143.3577   82.0889  224.7363 H   0  0  0  0  0  0  0  0  0  0  0  0
  144.6535   80.5706  223.2473 H   0  0  0  0  0  0  0  0  0  0  0  0
  143.4622   78.8957  221.9121 H   0  0  0  0  0  0  0  0  0  0  0  0
  138.7547   68.6936  223.1006 H   0  0  0  0  0  0  0  0  0  0  0  0
  139.0208   67.4363  225.2033 H   0  0  0  0  0  0  0  0  0  0  0  0
  139.7278   67.3514  227.4375 H   0  0  0  0  0  0  0  0  0  0  0  0
  140.7758   68.5356  229.3996 H   0  0  0  0  0  0  0  0  0  0  0  0
  141.5011   70.8687  229.2041 H   0  0  0  0  0  0  0  0  0  0  0  0
  141.2256   72.1291  227.0808 H   0  0  0  0  0  0  0  0  0  0  0  0
  1  2  2  0
  2  3  1  0
  3  4  1  0
  4  5  1  0
  5  6  2  0
  5  7  1  0
  7  8  1  0
  8  9  1  0
  9 10  1  0
  9 11  1  0
 11 12  1  0
 12 13  1  0
 13 14  1  0
 14 15  2  0
 15 16  1  0
 16 17  2  0
 17 18  1  0
 18 19  2  0
 19 20  1  0
 20 21  2  0
 21 22  1  0
 22 23  2  0
  2 24  1  0
 24 25  2  0
 25 26  1  0
 26 27  2  0
 27 28  1  0
 28 29  2  0
 29 30  1  0
 30 31  2  0
 31 32  1  0
 32 33  2  0
 12  7  1  0
 23 14  1  0
 33 24  1  0
 23 18  1  0
 32 27  1  0
  3 34  1  0
  4 35  1  0
  4 36  1  0
  8 37  1  0
  8 38  1  0
  9 39  1  6
 10 40  1  0
 11 41  1  0
 11 42  1  0
 12 43  1  6
 13 44  1  0
 13 45  1  0
 15 46  1  0
 16 47  1  0
 17 48  1  0
 19 49  1  0
 20 50  1  0
 21 51  1  0
 22 52  1  0
 25 53  1  0
 26 54  1  0
 28 55  1  0
 29 56  1  0
 30 57  1  0
 31 58  1  0
M  END
