@<TRIPOS>MOLECULE
*****
 72 77 0 0 0
SMALL
GASTEIGER

@<TRIPOS>ATOM
      1 C         137.3170   72.6590  219.7900 C.3     1  UNL1        0.0034
      2 N         138.0230   72.7000  221.0680 N.pl3   1  UNL1       -0.3013
      3 C         137.4500   71.8860  222.1330 C.3     1  UNL1        0.0273
      4 C         138.4990   71.8350  223.2200 C.3     1  UNL1        0.0150
      5 N         139.6620   71.0740  222.8940 N.3     1  UNL1       -0.2964
      6 C         139.3770   69.6730  223.1440 C.3     1  UNL1        0.0033
      7 C         138.9250   69.3950  224.5550 C.3     1  UNL1       -0.0146
      8 C         139.6950   70.1800  225.5520 C.ar    1  UNL1       -0.0418
      9 C         139.4940   69.8910  226.8920 C.ar    1  UNL1       -0.0582
     10 C         140.2070   70.6260  227.8370 C.ar    1  UNL1       -0.0615
     11 C         141.0860   71.6080  227.4810 C.ar    1  UNL1       -0.0614
     12 C         141.2720   71.8830  226.1210 C.ar    1  UNL1       -0.0571
     13 C         140.5850   71.1770  225.1490 C.ar    1  UNL1       -0.0302
     14 C         140.7930   71.4760  223.7110 C.3     1  UNL1        0.0244
     15 C         139.1950   73.4740  221.2700 C.ar    1  UNL1        0.2235
     16 N         140.4340   73.0520  220.9840 N.ar    1  UNL1       -0.1807
     17 C         141.5240   73.8300  221.1880 C.ar    1  UNL1        0.2237
     18 N         142.8060   73.3350  220.8610 N.pl3   1  UNL1       -0.2971
     19 C         143.0070   71.8750  220.8510 C.3     1  UNL1        0.0274
     20 C         143.4920   71.5860  219.4500 C.3     1  UNL1        0.0118
     21 N         144.7730   72.1700  219.2500 N.3     1  UNL1       -0.3130
     22 C         145.1100   73.3000  220.0390 C.3     1  UNL1        0.0118
     23 C         143.9510   74.1330  220.5290 C.3     1  UNL1        0.0274
     24 N         141.3040   75.0510  221.6930 N.ar    1  UNL1       -0.1807
     25 C         140.0860   75.5340  222.0010 C.ar    1  UNL1        0.2240
     26 N         139.9570   76.8550  222.5330 N.pl3   1  UNL1       -0.2948
     27 C         138.6580   77.4620  222.4700 C.3     1  UNL1        0.0192
     28 C         138.5930   78.8580  222.9840 C.3     1  UNL1       -0.0115
     29 C         139.8410   79.6420  222.7990 C.ar    1  UNL1       -0.0412
     30 C         139.8440   80.9980  222.5750 C.ar    1  UNL1       -0.0582
     31 C         141.0010   81.7380  222.4010 C.ar    1  UNL1       -0.0615
     32 C         142.2040   81.0290  222.4630 C.ar    1  UNL1       -0.0614
     33 C         142.2050   79.6670  222.6880 C.ar    1  UNL1       -0.0568
     34 C         141.0290   78.9410  222.8610 C.ar    1  UNL1       -0.0269
     35 C         141.1300   77.4980  223.0960 C.3     1  UNL1        0.0402
     36 N         139.0250   74.7300  221.7830 N.ar    1  UNL1       -0.1807
     37 H         136.2339   72.5961  219.9713 H       1  UNL1        0.0429
     38 H         137.5406   73.5716  219.2181 H       1  UNL1        0.0429
     39 H         137.6448   71.7784  219.2181 H       1  UNL1        0.0429
     40 H         136.5263   72.3469  222.5130 H       1  UNL1        0.0477
     41 H         137.1861   70.8793  221.7766 H       1  UNL1        0.0477
     42 H         138.8148   72.8656  223.4395 H       1  UNL1        0.0442
     43 H         138.0307   71.3324  224.0791 H       1  UNL1        0.0442
     44 H         138.5834   69.3504  222.4540 H       1  UNL1        0.0430
     45 H         140.3145   69.1189  222.9889 H       1  UNL1        0.0430
     46 H         137.8600   69.6554  224.6442 H       1  UNL1        0.0326
     47 H         139.0931   68.3276  224.7608 H       1  UNL1        0.0326
     48 H         138.7912   69.1033  227.2012 H       1  UNL1        0.0620
     49 H         140.0567   70.4079  228.9046 H       1  UNL1        0.0618
     50 H         141.6373   72.1721  228.2477 H       1  UNL1        0.0618
     51 H         141.9757   72.6731  225.8201 H       1  UNL1        0.0621
     52 H         140.9466   72.5589  223.5937 H       1  UNL1        0.0476
     53 H         141.6710   70.9060  223.3730 H       1  UNL1        0.0476
     54 H         143.7607   71.5784  221.5953 H       1  UNL1        0.0477
     55 H         142.0933   71.3187  221.1074 H       1  UNL1        0.0477
     56 H         143.5609   70.4977  219.3053 H       1  UNL1        0.0439
     57 H         142.7826   72.0137  218.7263 H       1  UNL1        0.0439
     58 H         145.5240   71.4360  219.3410 H       1  UNL1        0.1220
     59 H         145.6639   72.9427  220.9196 H       1  UNL1        0.0439
     60 H         145.6920   73.9601  219.3790 H       1  UNL1        0.0439
     61 H         144.2678   74.6865  221.4253 H       1  UNL1        0.0477
     62 H         143.6605   74.8147  219.7161 H       1  UNL1        0.0477
     63 H         138.3350   77.4696  221.4185 H       1  UNL1        0.0468
     64 H         138.0053   76.8625  223.1216 H       1  UNL1        0.0468
     65 H         137.7789   79.3795  222.4594 H       1  UNL1        0.0328
     66 H         138.4283   78.7842  224.0691 H       1  UNL1        0.0328
     67 H         138.8778   81.5220  222.5318 H       1  UNL1        0.0620
     68 H         140.9751   82.8233  222.2239 H       1  UNL1        0.0618
     69 H         143.1579   81.5608  222.3314 H       1  UNL1        0.0618
     70 H         143.1678   79.1368  222.7322 H       1  UNL1        0.0621
     71 H         142.0363   77.1059  222.6113 H       1  UNL1        0.0514
     72 H         141.1881   77.2958  224.1757 H       1  UNL1        0.0514
@<TRIPOS>BOND
     1     1     2    1
     2     2     3    1
     3     3     4    1
     4     4     5    1
     5     5     6    1
     6     6     7    1
     7     7     8    1
     8     8     9   ar
     9     9    10   ar
    10    10    11   ar
    11    11    12   ar
    12    12    13   ar
    13    13    14    1
    14     2    15    1
    15    15    16   ar
    16    16    17   ar
    17    17    18    1
    18    18    19    1
    19    19    20    1
    20    20    21    1
    21    21    22    1
    22    22    23    1
    23    17    24   ar
    24    24    25   ar
    25    25    26    1
    26    26    27    1
    27    27    28    1
    28    28    29    1
    29    29    30   ar
    30    30    31   ar
    31    31    32   ar
    32    32    33   ar
    33    33    34   ar
    34    34    35    1
    35    25    36   ar
    36    14     5    1
    37    36    15   ar
    38    13     8   ar
    39    23    18    1
    40    35    26    1
    41    34    29   ar
    42     1    37    1
    43     1    38    1
    44     1    39    1
    45     3    40    1
    46     3    41    1
    47     4    42    1
    48     4    43    1
    49     6    44    1
    50     6    45    1
    51     7    46    1
    52     7    47    1
    53     9    48    1
    54    10    49    1
    55    11    50    1
    56    12    51    1
    57    14    52    1
    58    14    53    1
    59    19    54    1
    60    19    55    1
    61    20    56    1
    62    20    57    1
    63    21    58    1
    64    22    59    1
    65    22    60    1
    66    23    61    1
    67    23    62    1
    68    27    63    1
    69    27    64    1
    70    28    65    1
    71    28    66    1
    72    30    67    1
    73    31    68    1
    74    32    69    1
    75    33    70    1
    76    35    71    1
    77    35    72    1
