
 67 73  0  0  0  0  0  0  0  0999 V2000
  140.9880   80.7510  223.5090 C   0  0  0  0  0  0  0  0  0  0  0  0
  142.1460   80.4610  222.8270 C   0  0  0  0  0  0  0  0  0  0  0  0
  142.2340   79.2940  222.0830 C   0  0  0  0  0  0  0  0  0  0  0  0
  141.1730   78.4160  222.0160 C   0  0  0  0  0  0  0  0  0  0  0  0
  140.0160   78.6900  222.6870 C   0  0  0  0  0  0  0  0  0  0  0  0
  139.9300   79.8650  223.4350 C   0  0  0  0  0  0  0  0  0  0  0  0
  138.8140   77.8170  222.6850 C   0  0  0  0  0  0  0  0  0  0  0  0
  138.8880   76.8800  221.5160 C   0  0  0  0  0  0  0  0  0  0  0  0
  140.2030   76.2670  221.4460 N   0  0  0  0  0  0  0  0  0  0  0  0
  140.4440   74.8890  221.6040 C   0  0  0  0  0  0  0  0  0  0  0  0
  139.6340   74.0540  222.3430 C   0  0  0  0  0  0  0  0  0  0  0  0
  139.8790   72.7010  222.4940 C   0  0  0  0  0  0  0  0  0  0  0  0
  139.0010   71.8840  223.2740 N   0  0  0  0  0  0  0  0  0  0  0  0
  139.5500   70.6510  223.7890 C   0  0  2  0  0  0  0  0  0  0  0  0
  138.5540   69.5600  223.9580 C   0  0  0  0  0  0  0  0  0  0  0  0
  138.6040   69.0800  225.3840 C   0  0  0  0  0  0  0  0  0  0  0  0
  139.5590   69.9890  226.0530 C   0  0  0  0  0  0  0  0  0  0  0  0
  139.9570   70.0580  227.3690 C   0  0  0  0  0  0  0  0  0  0  0  0
  140.8640   71.0010  227.7360 C   0  0  0  0  0  0  0  0  0  0  0  0
  141.4250   71.9120  226.8600 C   0  0  0  0  0  0  0  0  0  0  0  0
  141.0250   71.8410  225.5400 C   0  0  0  0  0  0  0  0  0  0  0  0
  140.0920   70.8780  225.1430 C   0  0  0  0  0  0  0  0  0  0  0  0
  140.9690   72.2140  221.8750 N   0  0  0  0  0  0  0  0  0  0  0  0
  141.7890   73.0150  221.1370 C   0  0  0  0  0  0  0  0  0  0  0  0
  142.9190   72.4110  220.5190 N   0  0  0  0  0  0  0  0  0  0  0  0
  143.9860   73.2460  220.0070 C   0  0  0  0  0  0  0  0  0  0  0  0
  144.1320   72.8380  218.5340 C   0  0  0  0  0  0  0  0  0  0  0  0
  144.6220   71.4170  218.5980 C   0  0  0  0  0  0  0  0  0  0  0  0
  145.6270   71.0190  217.7540 C   0  0  0  0  0  0  0  0  0  0  0  0
  146.0920   69.7180  217.7960 C   0  0  0  0  0  0  0  0  0  0  0  0
  145.5260   68.8520  218.6920 C   0  0  0  0  0  0  0  0  0  0  0  0
  144.5140   69.2660  219.5370 C   0  0  0  0  0  0  0  0  0  0  0  0
  144.0360   70.5730  219.5050 C   0  0  0  0  0  0  0  0  0  0  0  0
  142.9470   70.9730  220.4300 C   0  0  0  0  0  0  0  0  0  0  0  0
  141.5140   74.3250  221.0160 N   0  0  0  0  0  0  0  0  0  0  0  0
  141.3170   77.1710  221.2020 C   0  0  0  0  0  0  0  0  0  0  0  0
  140.9050   81.6727  224.1036 H   0  0  0  0  0  0  0  0  0  0  0  0
  143.0002   81.1526  222.8713 H   0  0  0  0  0  0  0  0  0  0  0  0
  143.1625   79.0658  221.5391 H   0  0  0  0  0  0  0  0  0  0  0  0
  139.0000   80.0908  223.9774 H   0  0  0  0  0  0  0  0  0  0  0  0
  138.7783   77.2377  223.6194 H   0  0  0  0  0  0  0  0  0  0  0  0
  137.9077   78.4355  222.6066 H   0  0  0  0  0  0  0  0  0  0  0  0
  138.1267   76.0944  221.6314 H   0  0  0  0  0  0  0  0  0  0  0  0
  138.7066   77.4462  220.5905 H   0  0  0  0  0  0  0  0  0  0  0  0
  138.7501   74.4842  222.8365 H   0  0  0  0  0  0  0  0  0  0  0  0
  138.0100   72.1450  223.4750 H   0  0  0  0  0  0  0  0  0  0  0  0
  140.3025   70.3495  223.0455 H   0  0  0  0  0  0  0  0  0  0  0  0
  137.5469   69.9391  223.7298 H   0  0  0  0  0  0  0  0  0  0  0  0
  138.7861   68.7303  223.2741 H   0  0  0  0  0  0  0  0  0  0  0  0
  137.6106   69.1488  225.8515 H   0  0  0  0  0  0  0  0  0  0  0  0
  138.9111   68.0263  225.4578 H   0  0  0  0  0  0  0  0  0  0  0  0
  139.5466   69.3595  228.1131 H   0  0  0  0  0  0  0  0  0  0  0  0
  141.1698   71.0420  228.7918 H   0  0  0  0  0  0  0  0  0  0  0  0
  142.1570   72.6597  227.1992 H   0  0  0  0  0  0  0  0  0  0  0  0
  141.4403   72.5420  224.8010 H   0  0  0  0  0  0  0  0  0  0  0  0
  143.7189   74.3099  220.0896 H   0  0  0  0  0  0  0  0  0  0  0  0
  144.9223   73.1137  220.5689 H   0  0  0  0  0  0  0  0  0  0  0  0
  143.1641   72.8950  218.0145 H   0  0  0  0  0  0  0  0  0  0  0  0
  144.8145   73.4970  217.9773 H   0  0  0  0  0  0  0  0  0  0  0  0
  146.0635   71.7358  217.0429 H   0  0  0  0  0  0  0  0  0  0  0  0
  146.8981   69.3864  217.1250 H   0  0  0  0  0  0  0  0  0  0  0  0
  145.8815   67.8122  218.7402 H   0  0  0  0  0  0  0  0  0  0  0  0
  144.0779   68.5492  220.2484 H   0  0  0  0  0  0  0  0  0  0  0  0
  141.9830   70.6074  220.0465 H   0  0  0  0  0  0  0  0  0  0  0  0
  143.1240   70.5400  221.4256 H   0  0  0  0  0  0  0  0  0  0  0  0
  142.2568   76.6681  221.4740 H   0  0  0  0  0  0  0  0  0  0  0  0
  141.3254   77.4434  220.1363 H   0  0  0  0  0  0  0  0  0  0  0  0
  1  2  2  0
  2  3  1  0
  3  4  2  0
  4  5  1  0
  5  6  2  0
  5  7  1  0
  7  8  1  0
  8  9  1  0
  9 10  1  0
 10 11  2  0
 11 12  1  0
 12 13  1  0
 13 14  1  0
 14 15  1  0
 15 16  1  0
 16 17  1  0
 17 18  2  0
 18 19  1  0
 19 20  2  0
 20 21  1  0
 21 22  2  0
 12 23  2  0
 23 24  1  0
 24 25  1  0
 25 26  1  0
 26 27  1  0
 27 28  1  0
 28 29  2  0
 29 30  1  0
 30 31  2  0
 31 32  1  0
 32 33  2  0
 33 34  1  0
 24 35  2  0
  9 36  1  0
  6  1  1  0
 35 10  1  0
 36  4  1  0
 22 14  1  0
 34 25  1  0
 22 17  1  0
 33 28  1  0
  1 37  1  0
  2 38  1  0
  3 39  1  0
  6 40  1  0
  7 41  1  0
  7 42  1  0
  8 43  1  0
  8 44  1  0
 11 45  1  0
 13 46  1  0
 14 47  1  6
 15 48  1  0
 15 49  1  0
 16 50  1  0
 16 51  1  0
 18 52  1  0
 19 53  1  0
 20 54  1  0
 21 55  1  0
 26 56  1  0
 26 57  1  0
 27 58  1  0
 27 59  1  0
 29 60  1  0
 30 61  1  0
 31 62  1  0
 32 63  1  0
 34 64  1  0
 34 65  1  0
 36 66  1  0
 36 67  1  0
M  END
