@<TRIPOS>MOLECULE
*****
 61 65 0 0 0
SMALL
GASTEIGER

@<TRIPOS>ATOM
      1 O         138.9860   70.3800  221.3570 O.2     1  UNL1       -0.2685
      2 C         139.2740   70.9850  222.4350 C.2     1  UNL1        0.2628
      3 N         139.4340   72.3970  222.4780 N.am    1  UNL1       -0.3015
      4 C         139.2700   73.1850  221.2770 C.3     1  UNL1        0.0887
      5 C         139.7540   74.5650  221.4270 C.2     1  UNL1        0.2334
      6 O         139.6620   75.2050  222.5060 O.2     1  UNL1       -0.2739
      7 N         140.3490   75.1900  220.2970 N.am    1  UNL1       -0.2861
      8 C         139.7450   75.4340  218.9780 C.3     1  UNL1        0.0416
      9 C         140.8750   74.9600  218.0890 C.3     1  UNL1        0.0731
     10 O         140.9670   73.5630  218.1730 O.3     1  UNL1       -0.3902
     11 C         142.0730   75.6260  218.7330 C.3     1  UNL1        0.0019
     12 C         141.6900   75.7350  220.1790 C.3     1  UNL1        0.1050
     13 C         141.7380   77.1450  220.6650 C.2     1  UNL1        0.2378
     14 O         142.0410   78.0170  219.8240 O.2     1  UNL1       -0.2734
     15 N         141.4450   77.4370  222.0190 N.am    1  UNL1       -0.2839
     16 C         141.4510   78.7080  222.6110 C.ar    1  UNL1        0.0341
     17 C         142.5570   79.4650  222.9030 C.ar    1  UNL1       -0.0404
     18 C         142.4880   80.7210  223.4910 C.ar    1  UNL1       -0.0593
     19 C         141.2710   81.2660  223.8110 C.ar    1  UNL1       -0.0509
     20 C         140.1510   80.5140  223.5230 C.ar    1  UNL1        0.0208
     21 C         138.8370   81.0510  223.8430 C.ar    1  UNL1        0.1597
     22 N         138.2090   80.6960  224.9830 N.ar    1  UNL1       -0.2357
     23 C         136.9980   81.1440  225.3510 C.ar    1  UNL1        0.0314
     24 C         136.3630   82.0290  224.4980 C.ar    1  UNL1       -0.0254
     25 C         136.9950   82.3980  223.3340 C.ar    1  UNL1        0.0314
     26 N         138.2180   81.9220  222.9980 N.ar    1  UNL1       -0.2357
     27 C         140.2240   79.2690  222.9400 C.ar    1  UNL1       -0.0298
     28 C         139.4480   70.2150  223.6760 C.ar    1  UNL1        0.1260
     29 C         139.0430   68.8980  223.7370 C.ar    1  UNL1       -0.0306
     30 C         139.2200   68.1870  224.9290 C.ar    1  UNL1       -0.0503
     31 C         139.7950   68.8100  226.0220 C.ar    1  UNL1        0.0031
     32 C         139.9920   68.1460  227.2270 C.ar    1  UNL1       -0.0173
     33 C         140.5730   68.8090  228.2990 C.ar    1  UNL1        0.1241
     34 F         140.7550   68.1340  229.4700 F       1  UNL1       -0.2055
     35 C         140.9740   70.1300  228.2190 C.ar    1  UNL1       -0.0244
     36 C         140.7670   70.7640  227.0110 C.ar    1  UNL1       -0.0330
     37 C         140.1890   70.1300  225.9240 C.ar    1  UNL1        0.0720
     38 N         140.0070   70.7880  224.7660 N.ar    1  UNL1       -0.2421
     39 H         139.6750   72.8290  223.4140 H       1  UNL1        0.1496
     40 H         139.8303   72.7033  220.4621 H       1  UNL1        0.0558
     41 H         138.1928   73.2350  221.0598 H       1  UNL1        0.0558
     42 H         138.8308   74.8404  218.8300 H       1  UNL1        0.0490
     43 H         139.4142   76.4679  218.8005 H       1  UNL1        0.0490
     44 H         140.7653   75.2021  217.0216 H       1  UNL1        0.0610
     45 H         141.5530   73.2280  217.4450 H       1  UNL1        0.2098
     46 H         142.9757   75.0090  218.6125 H       1  UNL1        0.0313
     47 H         142.3102   76.6008  218.2820 H       1  UNL1        0.0313
     48 H         142.4032   75.1775  220.8040 H       1  UNL1        0.0598
     49 H         141.2050   76.6030  222.6180 H       1  UNL1        0.1549
     50 H         143.5487   79.0564  222.6590 H       1  UNL1        0.0636
     51 H         143.4118   81.2802  223.7006 H       1  UNL1        0.0618
     52 H         141.1914   82.2593  224.2769 H       1  UNL1        0.0625
     53 H         136.5298   80.8206  226.2924 H       1  UNL1        0.0831
     54 H         135.3696   82.4305  224.7468 H       1  UNL1        0.0648
     55 H         136.4919   83.1016  222.6544 H       1  UNL1        0.0831
     56 H         139.2988   78.7116  222.7322 H       1  UNL1        0.0643
     57 H         138.5873   68.4134  222.8609 H       1  UNL1        0.0641
     58 H         138.9029   67.1359  224.9967 H       1  UNL1        0.0625
     59 H         139.6872   67.0942  227.3312 H       1  UNL1        0.0653
     60 H         141.4338   70.6482  229.0734 H       1  UNL1        0.0647
     61 H         141.0735   71.8153  226.9073 H       1  UNL1        0.0640
@<TRIPOS>BOND
     1     1     2    2
     2     2     3   am
     3     3     4    1
     4     4     5    1
     5     5     6    2
     6     5     7   am
     7     7     8    1
     8     8     9    1
     9     9    10    1
    10     9    11    1
    11    11    12    1
    12    12    13    1
    13    13    14    2
    14    13    15   am
    15    15    16    1
    16    16    17   ar
    17    17    18   ar
    18    18    19   ar
    19    19    20   ar
    20    20    21    1
    21    21    22   ar
    22    22    23   ar
    23    23    24   ar
    24    24    25   ar
    25    25    26   ar
    26    20    27   ar
    27     2    28    1
    28    28    29   ar
    29    29    30   ar
    30    30    31   ar
    31    31    32   ar
    32    32    33   ar
    33    33    34    1
    34    33    35   ar
    35    35    36   ar
    36    36    37   ar
    37    37    38   ar
    38    12     7    1
    39    27    16   ar
    40    38    28   ar
    41    26    21   ar
    42    37    31   ar
    43     3    39    1
    44     4    40    1
    45     4    41    1
    46     8    42    1
    47     8    43    1
    48     9    44    1
    49    10    45    1
    50    11    46    1
    51    11    47    1
    52    12    48    1
    53    15    49    1
    54    17    50    1
    55    18    51    1
    56    19    52    1
    57    23    53    1
    58    24    54    1
    59    25    55    1
    60    27    56    1
    61    29    57    1
    62    30    58    1
    63    32    59    1
    64    35    60    1
    65    36    61    1
