@<TRIPOS>MOLECULE
*****
 58 62 0 0 0
SMALL
GASTEIGER

@<TRIPOS>ATOM
      1 O         140.8470   71.2210  222.5990 O.2     1  UNL1       -0.2685
      2 C         139.7410   71.2660  223.2300 C.2     1  UNL1        0.2634
      3 N         138.7450   72.0900  222.6560 N.am    1  UNL1       -0.3015
      4 C         139.0890   72.8030  221.4460 C.3     1  UNL1        0.0887
      5 C         139.7960   74.0680  221.6740 C.2     1  UNL1        0.2332
      6 O         139.5850   74.7710  222.7220 O.2     1  UNL1       -0.2739
      7 N         140.7360   74.5120  220.7030 N.am    1  UNL1       -0.2931
      8 C         140.4270   75.1070  219.3950 C.3     1  UNL1        0.0154
      9 C         141.6990   75.6870  218.8770 C.3     1  UNL1       -0.0351
     10 C         142.6850   75.6320  220.0000 C.3     1  UNL1       -0.0287
     11 C         142.1620   74.4610  220.8340 C.3     1  UNL1        0.0512
     12 C         142.7910   73.1960  220.4490 C.ar    1  UNL1       -0.0270
     13 C         144.1700   73.0390  220.4800 C.ar    1  UNL1       -0.0562
     14 C         144.7970   71.8640  220.1240 C.ar    1  UNL1       -0.0537
     15 C         144.0470   70.7710  219.7130 C.ar    1  UNL1       -0.0179
     16 C         144.7570   69.5520  219.3450 C.ar    1  UNL1       -0.0179
     17 C         144.6330   68.3750  220.0760 C.ar    1  UNL1       -0.0540
     18 C         145.3300   67.2610  219.6730 C.ar    1  UNL1       -0.0612
     19 C         146.1520   67.2860  218.5570 C.ar    1  UNL1       -0.0617
     20 C         146.2870   68.4430  217.8210 C.ar    1  UNL1       -0.0612
     21 C         145.5870   69.5620  218.2250 C.ar    1  UNL1       -0.0540
     22 C         142.6790   70.8970  219.6730 C.ar    1  UNL1       -0.0537
     23 C         142.0630   72.0890  220.0350 C.ar    1  UNL1       -0.0562
     24 C         139.6460   70.4770  224.4220 C.ar    1  UNL1        0.1330
     25 N         138.9790   69.2850  224.3020 N.ar    1  UNL1       -0.2497
     26 C         138.8380   68.4540  225.3430 C.ar    1  UNL1        0.0290
     27 C         139.3390   68.7130  226.6050 C.ar    1  UNL1       -0.0358
     28 C         140.0210   69.9110  226.7500 C.ar    1  UNL1       -0.0143
     29 C         140.5620   70.1900  227.9850 C.ar    1  UNL1       -0.0539
     30 C         141.2800   71.3520  228.1800 C.ar    1  UNL1       -0.0612
     31 C         141.4130   72.1850  227.0860 C.ar    1  UNL1       -0.0611
     32 C         140.8700   71.9060  225.8510 C.ar    1  UNL1       -0.0518
     33 C         140.1530   70.7550  225.6560 C.ar    1  UNL1        0.0126
     34 H         137.7840   72.1810  223.0280 H       1  UNL1        0.1496
     35 H         139.7323   72.1537  220.8340 H       1  UNL1        0.0558
     36 H         138.1415   73.0557  220.9477 H       1  UNL1        0.0558
     37 H         140.0541   74.3350  218.7059 H       1  UNL1        0.0465
     38 H         139.6482   75.8786  219.4853 H       1  UNL1        0.0465
     39 H         142.0641   75.0979  218.0228 H       1  UNL1        0.0281
     40 H         141.5506   76.7206  218.5310 H       1  UNL1        0.0281
     41 H         143.7014   75.4344  219.6287 H       1  UNL1        0.0287
     42 H         142.7650   76.5735  220.5632 H       1  UNL1        0.0287
     43 H         142.4269   74.5354  221.8990 H       1  UNL1        0.0550
     44 H         144.7892   73.8890  220.8026 H       1  UNL1        0.0621
     45 H         145.8939   71.7926  220.1658 H       1  UNL1        0.0624
     46 H         143.9858   68.3363  220.9646 H       1  UNL1        0.0624
     47 H         145.2334   66.3288  220.2489 H       1  UNL1        0.0618
     48 H         146.6982   66.3792  218.2581 H       1  UNL1        0.0618
     49 H         146.9364   68.4742  216.9337 H       1  UNL1        0.0618
     50 H         145.6873   70.4911  217.6448 H       1  UNL1        0.0624
     51 H         142.0641   70.0438  219.3505 H       1  UNL1        0.0624
     52 H         140.9660   72.1573  219.9922 H       1  UNL1        0.0621
     53 H         138.2925   67.5120  225.1846 H       1  UNL1        0.0830
     54 H         139.2048   68.0121  227.4421 H       1  UNL1        0.0639
     55 H         140.4215   69.4852  228.8178 H       1  UNL1        0.0624
     56 H         141.7232   71.6019  229.1552 H       1  UNL1        0.0618
     57 H         141.9815   73.1188  227.2072 H       1  UNL1        0.0618
     58 H         141.0127   72.6102  225.0181 H       1  UNL1        0.0624
@<TRIPOS>BOND
     1     1     2    2
     2     2     3   am
     3     3     4    1
     4     4     5    1
     5     5     6    2
     6     5     7   am
     7     7     8    1
     8     8     9    1
     9     9    10    1
    10    10    11    1
    11    11    12    1
    12    12    13   ar
    13    13    14   ar
    14    14    15   ar
    15    15    16    1
    16    16    17   ar
    17    17    18   ar
    18    18    19   ar
    19    19    20   ar
    20    20    21   ar
    21    15    22   ar
    22    22    23   ar
    23     2    24    1
    24    24    25   ar
    25    25    26   ar
    26    26    27   ar
    27    27    28   ar
    28    28    29   ar
    29    29    30   ar
    30    30    31   ar
    31    31    32   ar
    32    32    33   ar
    33    11     7    1
    34    23    12   ar
    35    33    24   ar
    36    21    16   ar
    37    33    28   ar
    38     3    34    1
    39     4    35    1
    40     4    36    1
    41     8    37    1
    42     8    38    1
    43     9    39    1
    44     9    40    1
    45    10    41    1
    46    10    42    1
    47    11    43    1
    48    13    44    1
    49    14    45    1
    50    17    46    1
    51    18    47    1
    52    19    48    1
    53    20    49    1
    54    21    50    1
    55    22    51    1
    56    23    52    1
    57    26    53    1
    58    27    54    1
    59    29    55    1
    60    30    56    1
    61    31    57    1
    62    32    58    1
