
     RDKit          3D

 65 69  0  0  1  0  0  0  0  0999 V2000
  138.9730   75.3200  219.6740 O   0  0  0  0  0  0  0  0  0  0  0  0
  139.3380   74.7210  220.7140 C   0  0  0  0  0  0  0  0  0  0  0  0
  138.5520   74.6320  221.8940 N   0  0  0  0  0  0  0  0  0  0  0  0
  137.2390   75.2800  221.8930 C   0  0  0  0  0  0  0  0  0  0  0  0
  137.1890   76.4610  222.7320 C   0  0  0  0  0  0  0  0  0  0  0  0
  136.5330   76.3420  223.8420 O   0  0  0  0  0  0  0  0  0  0  0  0
  137.7540   77.7250  222.5120 N   0  0  0  0  0  0  0  0  0  0  0  0
  136.8540   78.8800  222.1880 C   0  0  0  0  0  0  0  0  0  0  0  0
  137.4600   79.9220  223.1020 C   0  0  0  0  0  0  0  0  0  0  0  0
  138.8510   79.4570  223.4670 C   0  0  0  0  0  0  0  0  0  0  0  0
  139.0470   78.2850  222.4850 C   0  0  1  0  0  0  0  0  0  0  0  0
  140.2520   77.5230  222.7250 C   0  0  0  0  0  0  0  0  0  0  0  0
  141.1120   77.1590  221.6760 N   0  0  0  0  0  0  0  0  0  0  0  0
  141.8340   78.2220  221.0550 C   0  0  2  0  0  0  0  0  0  0  0  0
  141.9310   79.4170  221.9230 C   0  0  0  0  0  0  0  0  0  0  0  0
  141.2790   80.6050  221.6680 C   0  0  0  0  0  0  0  0  0  0  0  0
  141.3830   81.7130  222.4940 C   0  0  0  0  0  0  0  0  0  0  0  0
  142.1640   81.6560  223.6260 C   0  0  0  0  0  0  0  0  0  0  0  0
  142.8330   80.4790  223.9110 C   0  0  0  0  0  0  0  0  0  0  0  0
  142.7180   79.3910  223.0800 C   0  0  0  0  0  0  0  0  0  0  0  0
  141.3130   78.5710  219.7070 C   0  0  0  0  0  0  0  0  0  0  0  0
  140.0030   78.3550  219.3250 C   0  0  0  0  0  0  0  0  0  0  0  0
  139.6280   78.7230  218.0360 C   0  0  0  0  0  0  0  0  0  0  0  0
  140.4840   79.2730  217.1670 N   0  0  0  0  0  0  0  0  0  0  0  0
  141.7700   79.4880  217.5310 C   0  0  0  0  0  0  0  0  0  0  0  0
  142.1930   79.1410  218.7980 C   0  0  0  0  0  0  0  0  0  0  0  0
  140.6560   74.0650  220.7320 C   0  0  0  0  0  0  0  0  0  0  0  0
  140.7450   72.6850  220.9390 C   0  0  0  0  0  0  0  0  0  0  0  0
  141.9660   72.0580  220.9580 C   0  0  0  0  0  0  0  0  0  0  0  0
  143.1160   72.7920  220.7710 C   0  0  0  0  0  0  0  0  0  0  0  0
  144.3310   72.1390  220.7940 C   0  0  0  0  0  0  0  0  0  0  0  0
  145.4830   72.8770  220.6060 C   0  0  0  0  0  0  0  0  0  0  0  0
  146.6550   72.1990  220.6360 F   0  0  0  0  0  0  0  0  0  0  0  0
  145.4130   74.2400  220.4000 C   0  0  0  0  0  0  0  0  0  0  0  0
  144.1830   74.8990  220.3770 C   0  0  0  0  0  0  0  0  0  0  0  0
  143.0100   74.1650  220.5650 C   0  0  0  0  0  0  0  0  0  0  0  0
  141.8000   74.7270  220.5560 N   0  0  0  0  0  0  0  0  0  0  0  0
  138.9260   74.1150  222.7200 H   0  0  0  0  0  0  0  0  0  0  0  0
  136.9933   75.5723  220.8614 H   0  0  0  0  0  0  0  0  0  0  0  0
  136.5155   74.5576  222.2988 H   0  0  0  0  0  0  0  0  0  0  0  0
  136.9226   79.1710  221.1294 H   0  0  0  0  0  0  0  0  0  0  0  0
  135.7793   78.6948  222.3317 H   0  0  0  0  0  0  0  0  0  0  0  0
  137.5124   80.8907  222.5835 H   0  0  0  0  0  0  0  0  0  0  0  0
  136.8453   80.0475  224.0056 H   0  0  0  0  0  0  0  0  0  0  0  0
  139.5963   80.2491  223.3021 H   0  0  0  0  0  0  0  0  0  0  0  0
  138.9700   79.1818  224.5253 H   0  0  0  0  0  0  0  0  0  0  0  0
  139.3156   78.4938  221.4389 H   0  0  0  0  0  0  0  0  0  0  0  0
  140.8559   78.1119  223.4310 H   0  0  0  0  0  0  0  0  0  0  0  0
  139.8552   76.5509  223.0531 H   0  0  0  0  0  0  0  0  0  0  0  0
  141.7720   76.4020  221.9310 H   0  0  0  0  0  0  0  0  0  0  0  0
  142.8543   77.8385  220.9068 H   0  0  0  0  0  0  0  0  0  0  0  0
  140.6486   80.6764  220.7694 H   0  0  0  0  0  0  0  0  0  0  0  0
  140.8416   82.6376  222.2451 H   0  0  0  0  0  0  0  0  0  0  0  0
  142.2544   82.5281  224.2903 H   0  0  0  0  0  0  0  0  0  0  0  0
  143.4624   80.4137  224.8107 H   0  0  0  0  0  0  0  0  0  0  0  0
  143.2624   78.4691  223.3323 H   0  0  0  0  0  0  0  0  0  0  0  0
  139.2776   77.9054  220.0191 H   0  0  0  0  0  0  0  0  0  0  0  0
  138.5879   78.5552  217.7196 H   0  0  0  0  0  0  0  0  0  0  0  0
  142.4765   79.9384  216.8183 H   0  0  0  0  0  0  0  0  0  0  0  0
  143.2385   79.3181  219.0903 H   0  0  0  0  0  0  0  0  0  0  0  0
  139.8279   72.0962  221.0880 H   0  0  0  0  0  0  0  0  0  0  0  0
  142.0256   70.9720  221.1222 H   0  0  0  0  0  0  0  0  0  0  0  0
  144.3812   71.0526  220.9588 H   0  0  0  0  0  0  0  0  0  0  0  0
  146.3392   74.8146  220.2519 H   0  0  0  0  0  0  0  0  0  0  0  0
  144.1380   75.9857  220.2124 H   0  0  0  0  0  0  0  0  0  0  0  0
  1  2  2  0
  2  3  1  0
  3  4  1  0
  4  5  1  0
  5  6  2  0
  5  7  1  0
  7  8  1  0
  8  9  1  0
  9 10  1  0
 10 11  1  0
 11 12  1  0
 12 13  1  0
 13 14  1  0
 14 15  1  0
 15 16  2  0
 16 17  1  0
 17 18  2  0
 18 19  1  0
 19 20  2  0
 14 21  1  0
 21 22  2  0
 22 23  1  0
 23 24  2  0
 24 25  1  0
 25 26  2  0
  2 27  1  0
 27 28  2  0
 28 29  1  0
 29 30  2  0
 30 31  1  0
 31 32  2  0
 32 33  1  0
 32 34  1  0
 34 35  2  0
 35 36  1  0
 36 37  2  0
 11  7  1  0
 20 15  1  0
 26 21  1  0
 37 27  1  0
 36 30  1  0
  3 38  1  0
  4 39  1  0
  4 40  1  0
  8 41  1  0
  8 42  1  0
  9 43  1  0
  9 44  1  0
 10 45  1  0
 10 46  1  0
 11 47  1  6
 12 48  1  0
 12 49  1  0
 13 50  1  0
 14 51  1  6
 16 52  1  0
 17 53  1  0
 18 54  1  0
 19 55  1  0
 20 56  1  0
 22 57  1  0
 23 58  1  0
 25 59  1  0
 26 60  1  0
 28 61  1  0
 29 62  1  0
 31 63  1  0
 34 64  1  0
 35 65  1  0
M  END
>  <smiles>  (1) 
O=C(NCC(=O)N1CCC[C@H]1CNC(c1ccccc1)c1ccncc1)c1ccc2cc(F)ccc2n1

>  <score_type>  (1) 
oracle

>  <origin>  (1) 
autodockgpu

>  <m_score__min__energy>  (1) 
-9.6600000000000001

>  <m_primary>  (1) 
energy

>  <rmsd>  (1) 
5.523949852339484

>  <m_score__min__rmsd>  (1) 
5.523949852339484

>  <meeko>  (1) 
{"free_energy": -7.84, "intermolecular_energy": -10.53, "internal_energy": -4.09, "cluster_size": 2, "cluster_id": 7, "rank_in_cluster": 1}

>  <energy>  (1) 
-9.66

>  <cluster_rmsd>  (1) 
0.0

>  <cluster>  (1) 
1

$$$$

     RDKit          3D

 65 69  0  0  1  0  0  0  0  0999 V2000
  138.8320   71.0620  221.5220 O   0  0  0  0  0  0  0  0  0  0  0  0
  139.2800   71.6040  222.5610 C   0  0  0  0  0  0  0  0  0  0  0  0
  139.5770   72.9880  222.6660 N   0  0  0  0  0  0  0  0  0  0  0  0
  139.3480   73.8300  221.4910 C   0  0  0  0  0  0  0  0  0  0  0  0
  139.3810   75.2470  221.7940 C   0  0  0  0  0  0  0  0  0  0  0  0
  140.4660   75.6850  222.3490 O   0  0  0  0  0  0  0  0  0  0  0  0
  138.3990   76.2220  221.5690 N   0  0  0  0  0  0  0  0  0  0  0  0
  137.0830   76.1080  222.2800 C   0  0  0  0  0  0  0  0  0  0  0  0
  136.9230   77.5450  222.7220 C   0  0  0  0  0  0  0  0  0  0  0  0
  137.8380   78.3920  221.8670 C   0  0  0  0  0  0  0  0  0  0  0  0
  138.2600   77.3820  220.7810 C   0  0  1  0  0  0  0  0  0  0  0  0
  139.2930   77.8770  219.9000 C   0  0  0  0  0  0  0  0  0  0  0  0
  139.7790   79.1900  220.0050 N   0  0  0  0  0  0  0  0  0  0  0  0
  141.1930   79.3320  220.1430 C   0  0  2  0  0  0  0  0  0  0  0  0
  141.9320   78.2170  219.5080 C   0  0  0  0  0  0  0  0  0  0  0  0
  142.3140   78.2060  218.1830 C   0  0  0  0  0  0  0  0  0  0  0  0
  143.0060   77.1520  217.6080 C   0  0  0  0  0  0  0  0  0  0  0  0
  143.3420   76.0540  218.3660 C   0  0  0  0  0  0  0  0  0  0  0  0
  142.9730   76.0320  219.6990 C   0  0  0  0  0  0  0  0  0  0  0  0
  142.2870   77.0860  220.2520 C   0  0  0  0  0  0  0  0  0  0  0  0
  141.6240   79.5360  221.5510 C   0  0  0  0  0  0  0  0  0  0  0  0
  142.5670   80.4730  221.9240 C   0  0  0  0  0  0  0  0  0  0  0  0
  142.8920   80.5750  223.2730 C   0  0  0  0  0  0  0  0  0  0  0  0
  142.3260   79.8040  224.2090 N   0  0  0  0  0  0  0  0  0  0  0  0
  141.4010   78.8810  223.8550 C   0  0  0  0  0  0  0  0  0  0  0  0
  141.0430   78.7400  222.5290 C   0  0  0  0  0  0  0  0  0  0  0  0
  139.5160   70.7710  223.7520 C   0  0  0  0  0  0  0  0  0  0  0  0
  139.1620   69.4190  223.7390 C   0  0  0  0  0  0  0  0  0  0  0  0
  139.3770   68.6290  224.8420 C   0  0  0  0  0  0  0  0  0  0  0  0
  139.9450   69.1720  225.9720 C   0  0  0  0  0  0  0  0  0  0  0  0
  140.1510   68.3570  227.0670 C   0  0  0  0  0  0  0  0  0  0  0  0
  140.7220   68.9030  228.2000 C   0  0  0  0  0  0  0  0  0  0  0  0
  140.9060   68.0710  229.2530 F   0  0  0  0  0  0  0  0  0  0  0  0
  141.0770   70.2370  228.2300 C   0  0  0  0  0  0  0  0  0  0  0  0
  140.8690   71.0590  227.1210 C   0  0  0  0  0  0  0  0  0  0  0  0
  140.2930   70.5200  225.9690 C   0  0  0  0  0  0  0  0  0  0  0  0
  140.0640   71.2440  224.8730 N   0  0  0  0  0  0  0  0  0  0  0  0
  139.9470   73.3650  223.5670 H   0  0  0  0  0  0  0  0  0  0  0  0
  140.1282   73.6126  220.7466 H   0  0  0  0  0  0  0  0  0  0  0  0
  138.3419   73.5983  221.1114 H   0  0  0  0  0  0  0  0  0  0  0  0
  136.2752   75.7930  221.6031 H   0  0  0  0  0  0  0  0  0  0  0  0
  137.0455   75.3599  223.0856 H   0  0  0  0  0  0  0  0  0  0  0  0
  135.8795   77.8653  222.5855 H   0  0  0  0  0  0  0  0  0  0  0  0
  137.1804   77.6523  223.7861 H   0  0  0  0  0  0  0  0  0  0  0  0
  137.3033   79.2497  221.4329 H   0  0  0  0  0  0  0  0  0  0  0  0
  138.6794   78.8402  222.4159 H   0  0  0  0  0  0  0  0  0  0  0  0
  137.5740   77.1604  219.9501 H   0  0  0  0  0  0  0  0  0  0  0  0
  140.1599   77.2134  220.0345 H   0  0  0  0  0  0  0  0  0  0  0  0
  138.7856   77.8898  218.9241 H   0  0  0  0  0  0  0  0  0  0  0  0
  139.4480   79.8120  219.2450 H   0  0  0  0  0  0  0  0  0  0  0  0
  141.4522   80.2529  219.6001 H   0  0  0  0  0  0  0  0  0  0  0  0
  142.0581   79.0720  217.5548 H   0  0  0  0  0  0  0  0  0  0  0  0
  143.2868   77.1932  216.5452 H   0  0  0  0  0  0  0  0  0  0  0  0
  143.8923   75.2116  217.9215 H   0  0  0  0  0  0  0  0  0  0  0  0
  143.2312   75.1628  220.3218 H   0  0  0  0  0  0  0  0  0  0  0  0
  142.0074   77.0395  221.3149 H   0  0  0  0  0  0  0  0  0  0  0  0
  143.0477   81.1205  221.1759 H   0  0  0  0  0  0  0  0  0  0  0  0
  143.6426   81.3175  223.5818 H   0  0  0  0  0  0  0  0  0  0  0  0
  140.9356   78.2447  224.6222 H   0  0  0  0  0  0  0  0  0  0  0  0
  140.2903   77.9899  222.2447 H   0  0  0  0  0  0  0  0  0  0  0  0
  138.7070   68.9835  222.8372 H   0  0  0  0  0  0  0  0  0  0  0  0
  139.0961   67.5657  224.8222 H   0  0  0  0  0  0  0  0  0  0  0  0
  139.8663   67.2949  227.0378 H   0  0  0  0  0  0  0  0  0  0  0  0
  141.5298   70.6577  229.1399 H   0  0  0  0  0  0  0  0  0  0  0  0
  141.1559   72.1204  227.1544 H   0  0  0  0  0  0  0  0  0  0  0  0
  1  2  2  0
  2  3  1  0
  3  4  1  0
  4  5  1  0
  5  6  2  0
  5  7  1  0
  7  8  1  0
  8  9  1  0
  9 10  1  0
 10 11  1  0
 11 12  1  0
 12 13  1  0
 13 14  1  0
 14 15  1  0
 15 16  2  0
 16 17  1  0
 17 18  2  0
 18 19  1  0
 19 20  2  0
 14 21  1  0
 21 22  2  0
 22 23  1  0
 23 24  2  0
 24 25  1  0
 25 26  2  0
  2 27  1  0
 27 28  2  0
 28 29  1  0
 29 30  2  0
 30 31  1  0
 31 32  2  0
 32 33  1  0
 32 34  1  0
 34 35  2  0
 35 36  1  0
 36 37  2  0
 11  7  1  0
 20 15  1  0
 26 21  1  0
 37 27  1  0
 36 30  1  0
  3 38  1  0
  4 39  1  0
  4 40  1  0
  8 41  1  0
  8 42  1  0
  9 43  1  0
  9 44  1  0
 10 45  1  0
 10 46  1  0
 11 47  1  6
 12 48  1  0
 12 49  1  0
 13 50  1  0
 14 51  1  6
 16 52  1  0
 17 53  1  0
 18 54  1  0
 19 55  1  0
 20 56  1  0
 22 57  1  0
 23 58  1  0
 25 59  1  0
 26 60  1  0
 28 61  1  0
 29 62  1  0
 31 63  1  0
 34 64  1  0
 35 65  1  0
M  END
>  <smiles>  (2) 
O=C(NCC(=O)N1CCC[C@H]1CNC(c1ccccc1)c1ccncc1)c1ccc2cc(F)ccc2n1

>  <score_type>  (2) 
oracle

>  <origin>  (2) 
autodockgpu

>  <m_score__min__energy>  (2) 
-9.6600000000000001

>  <m_primary>  (2) 
energy

>  <rmsd>  (2) 
3.7179673390539847

>  <m_score__min__rmsd>  (2) 
3.7179673390539847

>  <meeko>  (2) 
{"free_energy": -9.05, "intermolecular_energy": -11.73, "internal_energy": -2.87, "cluster_size": 8, "cluster_id": 3, "rank_in_cluster": 5}

>  <energy>  (2) 
-9.6

>  <cluster_rmsd>  (2) 
1.54

>  <cluster>  (2) 
1

$$$$

     RDKit          3D

 65 69  0  0  1  0  0  0  0  0999 V2000
  140.3280   72.8990  222.5070 O   0  0  0  0  0  0  0  0  0  0  0  0
  139.5380   72.0400  222.9660 C   0  0  0  0  0  0  0  0  0  0  0  0
  138.3240   71.6630  222.3340 N   0  0  0  0  0  0  0  0  0  0  0  0
  137.9760   72.3190  221.0720 C   0  0  0  0  0  0  0  0  0  0  0  0
  137.8630   73.7590  221.1930 C   0  0  0  0  0  0  0  0  0  0  0  0
  138.7930   74.4520  220.6170 O   0  0  0  0  0  0  0  0  0  0  0  0
  136.8840   74.5160  221.8510 N   0  0  0  0  0  0  0  0  0  0  0  0
  135.4550   74.0630  221.8000 C   0  0  0  0  0  0  0  0  0  0  0  0
  135.0900   74.2530  223.2540 C   0  0  0  0  0  0  0  0  0  0  0  0
  136.1050   75.1940  223.8630 C   0  0  0  0  0  0  0  0  0  0  0  0
  136.8360   75.7060  222.6050 C   0  0  1  0  0  0  0  0  0  0  0  0
  137.9990   76.5120  222.9000 C   0  0  0  0  0  0  0  0  0  0  0  0
  138.9230   76.8590  221.9010 N   0  0  0  0  0  0  0  0  0  0  0  0
  140.2870   76.9630  222.3100 C   0  0  2  0  0  0  0  0  0  0  0  0
  140.6300   78.3260  222.7730 C   0  0  0  0  0  0  0  0  0  0  0  0
  139.8030   79.4190  222.6210 C   0  0  0  0  0  0  0  0  0  0  0  0
  140.1430   80.6880  223.0620 C   0  0  0  0  0  0  0  0  0  0  0  0
  141.3530   80.8990  223.6830 C   0  0  0  0  0  0  0  0  0  0  0  0
  142.2080   79.8240  223.8510 C   0  0  0  0  0  0  0  0  0  0  0  0
  141.8530   78.5730  223.4070 C   0  0  0  0  0  0  0  0  0  0  0  0
  141.2440   76.4830  221.2780 C   0  0  0  0  0  0  0  0  0  0  0  0
  141.6960   75.1800  221.2150 C   0  0  0  0  0  0  0  0  0  0  0  0
  142.5920   74.8460  220.2030 C   0  0  0  0  0  0  0  0  0  0  0  0
  143.0220   75.7360  219.3010 N   0  0  0  0  0  0  0  0  0  0  0  0
  142.5850   77.0160  219.3530 C   0  0  0  0  0  0  0  0  0  0  0  0
  141.6960   77.3990  220.3370 C   0  0  0  0  0  0  0  0  0  0  0  0
  139.8720   71.3710  224.2340 C   0  0  0  0  0  0  0  0  0  0  0  0
  140.7200   71.9990  225.1510 C   0  0  0  0  0  0  0  0  0  0  0  0
  141.0410   71.3890  226.3390 C   0  0  0  0  0  0  0  0  0  0  0  0
  140.5250   70.1470  226.6310 C   0  0  0  0  0  0  0  0  0  0  0  0
  140.8620   69.5540  227.8310 C   0  0  0  0  0  0  0  0  0  0  0  0
  140.3430   68.3090  228.1240 C   0  0  0  0  0  0  0  0  0  0  0  0
  140.6980   67.7620  229.3110 F   0  0  0  0  0  0  0  0  0  0  0  0
  139.5030   67.6740  227.2300 C   0  0  0  0  0  0  0  0  0  0  0  0
  139.1630   68.2760  226.0170 C   0  0  0  0  0  0  0  0  0  0  0  0
  139.6810   69.5350  225.7080 C   0  0  0  0  0  0  0  0  0  0  0  0
  139.4000   70.1690  224.5690 N   0  0  0  0  0  0  0  0  0  0  0  0
  137.7180   70.9380  222.7790 H   0  0  0  0  0  0  0  0  0  0  0  0
  138.7563   72.0899  220.3313 H   0  0  0  0  0  0  0  0  0  0  0  0
  136.9915   71.9371  220.7639 H   0  0  0  0  0  0  0  0  0  0  0  0
  134.8462   74.6950  221.1367 H   0  0  0  0  0  0  0  0  0  0  0  0
  135.2956   73.0498  221.4025 H   0  0  0  0  0  0  0  0  0  0  0  0
  134.0821   74.6863  223.3338 H   0  0  0  0  0  0  0  0  0  0  0  0
  135.0938   73.2879  223.7817 H   0  0  0  0  0  0  0  0  0  0  0  0
  135.6165   76.0157  224.4072 H   0  0  0  0  0  0  0  0  0  0  0  0
  136.7648   74.7243  224.6073 H   0  0  0  0  0  0  0  0  0  0  0  0
  136.3729   76.4913  221.9895 H   0  0  0  0  0  0  0  0  0  0  0  0
  137.6235   77.4578  223.3176 H   0  0  0  0  0  0  0  0  0  0  0  0
  138.5893   75.8476  223.5481 H   0  0  0  0  0  0  0  0  0  0  0  0
  138.8650   76.2540  221.0610 H   0  0  0  0  0  0  0  0  0  0  0  0
  140.3901   76.2856  223.1706 H   0  0  0  0  0  0  0  0  0  0  0  0
  138.8301   79.2772  222.1277 H   0  0  0  0  0  0  0  0  0  0  0  0
  139.4461   81.5264  222.9158 H   0  0  0  0  0  0  0  0  0  0  0  0
  141.6345   81.9012  224.0384 H   0  0  0  0  0  0  0  0  0  0  0  0
  143.1800   79.9722  224.3441 H   0  0  0  0  0  0  0  0  0  0  0  0
  142.5534   77.7378  223.5548 H   0  0  0  0  0  0  0  0  0  0  0  0
  141.3581   74.4278  221.9430 H   0  0  0  0  0  0  0  0  0  0  0  0
  142.9604   73.8113  220.1427 H   0  0  0  0  0  0  0  0  0  0  0  0
  142.9375   77.7493  218.6128 H   0  0  0  0  0  0  0  0  0  0  0  0
  141.3421   78.4398  220.3763 H   0  0  0  0  0  0  0  0  0  0  0  0
  141.1342   72.9913  224.9189 H   0  0  0  0  0  0  0  0  0  0  0  0
  141.7083   71.8915  227.0547 H   0  0  0  0  0  0  0  0  0  0  0  0
  141.5311   70.0636  228.5399 H   0  0  0  0  0  0  0  0  0  0  0  0
  139.0970   66.6819  227.4768 H   0  0  0  0  0  0  0  0  0  0  0  0
  138.4931   67.7630  225.3113 H   0  0  0  0  0  0  0  0  0  0  0  0
  1  2  2  0
  2  3  1  0
  3  4  1  0
  4  5  1  0
  5  6  2  0
  5  7  1  0
  7  8  1  0
  8  9  1  0
  9 10  1  0
 10 11  1  0
 11 12  1  0
 12 13  1  0
 13 14  1  0
 14 15  1  0
 15 16  2  0
 16 17  1  0
 17 18  2  0
 18 19  1  0
 19 20  2  0
 14 21  1  0
 21 22  2  0
 22 23  1  0
 23 24  2  0
 24 25  1  0
 25 26  2  0
  2 27  1  0
 27 28  2  0
 28 29  1  0
 29 30  2  0
 30 31  1  0
 31 32  2  0
 32 33  1  0
 32 34  1  0
 34 35  2  0
 35 36  1  0
 36 37  2  0
 11  7  1  0
 20 15  1  0
 26 21  1  0
 37 27  1  0
 36 30  1  0
  3 38  1  0
  4 39  1  0
  4 40  1  0
  8 41  1  0
  8 42  1  0
  9 43  1  0
  9 44  1  0
 10 45  1  0
 10 46  1  0
 11 47  1  6
 12 48  1  0
 12 49  1  0
 13 50  1  0
 14 51  1  1
 16 52  1  0
 17 53  1  0
 18 54  1  0
 19 55  1  0
 20 56  1  0
 22 57  1  0
 23 58  1  0
 25 59  1  0
 26 60  1  0
 28 61  1  0
 29 62  1  0
 31 63  1  0
 34 64  1  0
 35 65  1  0
M  END
>  <smiles>  (3) 
O=C(NCC(=O)N1CCC[C@H]1CNC(c1ccccc1)c1ccncc1)c1ccc2cc(F)ccc2n1

>  <score_type>  (3) 
oracle

>  <origin>  (3) 
autodockgpu

>  <m_score__min__energy>  (3) 
-9.6600000000000001

>  <m_primary>  (3) 
energy

>  <rmsd>  (3) 
4.2783857712955795

>  <m_score__min__rmsd>  (3) 
4.2783857712955795

>  <meeko>  (3) 
{"free_energy": -8.7, "intermolecular_energy": -11.38, "internal_energy": -3.49, "cluster_size": 8, "cluster_id": 3, "rank_in_cluster": 7}

>  <energy>  (3) 
-9.48

>  <cluster_rmsd>  (3) 
1.57

>  <cluster>  (3) 
1

$$$$

     RDKit          3D

 65 69  0  0  1  0  0  0  0  0999 V2000
  141.1430   71.5650  221.5690 O   0  0  0  0  0  0  0  0  0  0  0  0
  140.3270   71.9380  222.4450 C   0  0  0  0  0  0  0  0  0  0  0  0
  139.5180   73.0990  222.3310 N   0  0  0  0  0  0  0  0  0  0  0  0
  139.6470   73.9080  221.1180 C   0  0  0  0  0  0  0  0  0  0  0  0
  140.8710   74.6830  221.0790 C   0  0  0  0  0  0  0  0  0  0  0  0
  141.0830   75.4600  222.0930 O   0  0  0  0  0  0  0  0  0  0  0  0
  141.8670   74.7130  220.0940 N   0  0  0  0  0  0  0  0  0  0  0  0
  142.5090   73.4270  219.6660 C   0  0  0  0  0  0  0  0  0  0  0  0
  142.4850   73.6310  218.1680 C   0  0  0  0  0  0  0  0  0  0  0  0
  142.3030   75.1100  217.9100 C   0  0  0  0  0  0  0  0  0  0  0  0
  142.5220   75.6930  219.3210 C   0  0  1  0  0  0  0  0  0  0  0  0
  142.2350   77.1060  219.4140 C   0  0  0  0  0  0  0  0  0  0  0  0
  142.2290   77.7730  220.6500 N   0  0  0  0  0  0  0  0  0  0  0  0
  141.1580   78.6920  220.8660 C   0  0  2  0  0  0  0  0  0  0  0  0
  141.5020   79.7290  221.8650 C   0  0  0  0  0  0  0  0  0  0  0  0
  141.0890   81.0420  221.7820 C   0  0  0  0  0  0  0  0  0  0  0  0
  141.4220   81.9980  222.7280 C   0  0  0  0  0  0  0  0  0  0  0  0
  142.1980   81.6520  223.8110 C   0  0  0  0  0  0  0  0  0  0  0  0
  142.6310   80.3430  223.9250 C   0  0  0  0  0  0  0  0  0  0  0  0
  142.2900   79.4090  222.9760 C   0  0  0  0  0  0  0  0  0  0  0  0
  139.8730   78.0220  221.2000 C   0  0  0  0  0  0  0  0  0  0  0  0
  139.4270   77.8480  222.4950 C   0  0  0  0  0  0  0  0  0  0  0  0
  138.2070   77.2050  222.6870 C   0  0  0  0  0  0  0  0  0  0  0  0
  137.4630   76.7580  221.6690 N   0  0  0  0  0  0  0  0  0  0  0  0
  137.8910   76.9230  220.3960 C   0  0  0  0  0  0  0  0  0  0  0  0
  139.0940   77.5540  220.1520 C   0  0  0  0  0  0  0  0  0  0  0  0
  140.1860   71.1370  223.6720 C   0  0  0  0  0  0  0  0  0  0  0  0
  139.5240   69.9060  223.6290 C   0  0  0  0  0  0  0  0  0  0  0  0
  139.3850   69.1460  224.7650 C   0  0  0  0  0  0  0  0  0  0  0  0
  139.8990   69.5990  225.9580 C   0  0  0  0  0  0  0  0  0  0  0  0
  139.7460   68.8180  227.0850 C   0  0  0  0  0  0  0  0  0  0  0  0
  140.2630   69.2730  228.2820 C   0  0  0  0  0  0  0  0  0  0  0  0
  140.0910   68.4770  229.3640 F   0  0  0  0  0  0  0  0  0  0  0  0
  140.9190   70.4860  228.3430 C   0  0  0  0  0  0  0  0  0  0  0  0
  141.0730   71.2750  227.2020 C   0  0  0  0  0  0  0  0  0  0  0  0
  140.5550   70.8270  225.9850 C   0  0  0  0  0  0  0  0  0  0  0  0
  140.6650   71.5260  224.8550 N   0  0  0  0  0  0  0  0  0  0  0  0
  138.8610   73.3440  223.1050 H   0  0  0  0  0  0  0  0  0  0  0  0
  139.6294   73.2372  220.2463 H   0  0  0  0  0  0  0  0  0  0  0  0
  138.8080   74.6193  221.1074 H   0  0  0  0  0  0  0  0  0  0  0  0
  143.5346   73.3307  220.0518 H   0  0  0  0  0  0  0  0  0  0  0  0
  142.0151   72.5119  220.0246 H   0  0  0  0  0  0  0  0  0  0  0  0
  143.4326   73.2874  217.7276 H   0  0  0  0  0  0  0  0  0  0  0  0
  141.6649   73.0561  217.7132 H   0  0  0  0  0  0  0  0  0  0  0  0
  143.0502   75.4892  217.1973 H   0  0  0  0  0  0  0  0  0  0  0  0
  141.3343   75.3726  217.4598 H   0  0  0  0  0  0  0  0  0  0  0  0
  143.5457   75.8141  219.7050 H   0  0  0  0  0  0  0  0  0  0  0  0
  142.9828   77.6165  218.7893 H   0  0  0  0  0  0  0  0  0  0  0  0
  141.1777   77.1531  219.1143 H   0  0  0  0  0  0  0  0  0  0  0  0
  142.2970   77.1330  221.4620 H   0  0  0  0  0  0  0  0  0  0  0  0
  141.0053   79.1994  219.9020 H   0  0  0  0  0  0  0  0  0  0  0  0
  140.4673   81.3440  220.9263 H   0  0  0  0  0  0  0  0  0  0  0  0
  141.0665   83.0327  222.6137 H   0  0  0  0  0  0  0  0  0  0  0  0
  142.4682   82.4008  224.5701 H   0  0  0  0  0  0  0  0  0  0  0  0
  143.2534   80.0472  224.7824 H   0  0  0  0  0  0  0  0  0  0  0  0
  142.6485   78.3757  223.0939 H   0  0  0  0  0  0  0  0  0  0  0  0
  140.0183   78.2069  223.3503 H   0  0  0  0  0  0  0  0  0  0  0  0
  137.8413   77.0591  223.7141 H   0  0  0  0  0  0  0  0  0  0  0  0
  137.2815   76.5550  219.5575 H   0  0  0  0  0  0  0  0  0  0  0  0
  139.4386   77.6872  219.1159 H   0  0  0  0  0  0  0  0  0  0  0  0
  139.1106   69.5427  222.6766 H   0  0  0  0  0  0  0  0  0  0  0  0
  138.8642   68.1781  224.7208 H   0  0  0  0  0  0  0  0  0  0  0  0
  139.2226   67.8520  227.0312 H   0  0  0  0  0  0  0  0  0  0  0  0
  141.3257   70.8354  229.3035 H   0  0  0  0  0  0  0  0  0  0  0  0
  141.5973   72.2402  227.2608 H   0  0  0  0  0  0  0  0  0  0  0  0
  1  2  2  0
  2  3  1  0
  3  4  1  0
  4  5  1  0
  5  6  2  0
  5  7  1  0
  7  8  1  0
  8  9  1  0
  9 10  1  0
 10 11  1  0
 11 12  1  0
 12 13  1  0
 13 14  1  0
 14 15  1  0
 15 16  2  0
 16 17  1  0
 17 18  2  0
 18 19  1  0
 19 20  2  0
 14 21  1  0
 21 22  2  0
 22 23  1  0
 23 24  2  0
 24 25  1  0
 25 26  2  0
  2 27  1  0
 27 28  2  0
 28 29  1  0
 29 30  2  0
 30 31  1  0
 31 32  2  0
 32 33  1  0
 32 34  1  0
 34 35  2  0
 35 36  1  0
 36 37  2  0
 11  7  1  0
 20 15  1  0
 26 21  1  0
 37 27  1  0
 36 30  1  0
  3 38  1  0
  4 39  1  0
  4 40  1  0
  8 41  1  0
  8 42  1  0
  9 43  1  0
  9 44  1  0
 10 45  1  0
 10 46  1  0
 11 47  1  1
 12 48  1  0
 12 49  1  0
 13 50  1  0
 14 51  1  6
 16 52  1  0
 17 53  1  0
 18 54  1  0
 19 55  1  0
 20 56  1  0
 22 57  1  0
 23 58  1  0
 25 59  1  0
 26 60  1  0
 28 61  1  0
 29 62  1  0
 31 63  1  0
 34 64  1  0
 35 65  1  0
M  END
>  <smiles>  (4) 
O=C(NCC(=O)N1CCC[C@H]1CNC(c1ccccc1)c1ccncc1)c1ccc2cc(F)ccc2n1

>  <score_type>  (4) 
oracle

>  <origin>  (4) 
autodockgpu

>  <m_score__min__energy>  (4) 
-9.6600000000000001

>  <m_primary>  (4) 
energy

>  <rmsd>  (4) 
2.5178351906633836

>  <m_score__min__rmsd>  (4) 
2.5178351906633836

>  <meeko>  (4) 
{"free_energy": -9.6, "intermolecular_energy": -12.29, "internal_energy": -3.33, "cluster_size": 24, "cluster_id": 1, "rank_in_cluster": 2}

>  <energy>  (4) 
-9.42

>  <cluster_rmsd>  (4) 
0.55

>  <cluster>  (4) 
1

$$$$

     RDKit          3D

 65 69  0  0  1  0  0  0  0  0999 V2000
  139.5690   73.3740  222.3300 O   0  0  0  0  0  0  0  0  0  0  0  0
  139.6010   72.1240  222.2360 C   0  0  0  0  0  0  0  0  0  0  0  0
  139.4970   71.4200  221.0070 N   0  0  0  0  0  0  0  0  0  0  0  0
  139.3420   72.2020  219.7800 C   0  0  0  0  0  0  0  0  0  0  0  0
  140.2300   73.3470  219.7210 C   0  0  0  0  0  0  0  0  0  0  0  0
  139.7570   74.4030  219.1400 O   0  0  0  0  0  0  0  0  0  0  0  0
  141.5380   73.4760  220.2060 N   0  0  0  0  0  0  0  0  0  0  0  0
  142.4820   72.3170  220.0770 C   0  0  0  0  0  0  0  0  0  0  0  0
  143.7060   73.0560  219.5860 C   0  0  0  0  0  0  0  0  0  0  0  0
  143.5260   74.5180  219.9250 C   0  0  0  0  0  0  0  0  0  0  0  0
  142.3010   74.4630  220.8610 C   0  0  1  0  0  0  0  0  0  0  0  0
  141.7850   75.7660  221.2160 C   0  0  0  0  0  0  0  0  0  0  0  0
  140.4670   75.9340  221.6710 N   0  0  0  0  0  0  0  0  0  0  0  0
  139.9270   77.2520  221.5710 C   0  0  2  0  0  0  0  0  0  0  0  0
  140.8430   78.2750  222.1240 C   0  0  0  0  0  0  0  0  0  0  0  0
  141.2480   78.3110  223.4410 C   0  0  0  0  0  0  0  0  0  0  0  0
  142.1070   79.2780  223.9390 C   0  0  0  0  0  0  0  0  0  0  0  0
  142.5930   80.2610  223.1070 C   0  0  0  0  0  0  0  0  0  0  0  0
  142.2050   80.2550  221.7790 C   0  0  0  0  0  0  0  0  0  0  0  0
  141.3530   79.2870  221.3040 C   0  0  0  0  0  0  0  0  0  0  0  0
  138.5650   77.3690  222.1560 C   0  0  0  0  0  0  0  0  0  0  0  0
  137.9260   78.5790  222.3410 C   0  0  0  0  0  0  0  0  0  0  0  0
  136.6500   78.5660  222.8980 C   0  0  0  0  0  0  0  0  0  0  0  0
  136.0330   77.4340  223.2550 N   0  0  0  0  0  0  0  0  0  0  0  0
  136.6500   76.2430  223.0780 C   0  0  0  0  0  0  0  0  0  0  0  0
  137.9160   76.2010  222.5290 C   0  0  0  0  0  0  0  0  0  0  0  0
  139.7570   71.3220  223.4600 C   0  0  0  0  0  0  0  0  0  0  0  0
  139.3700   69.9790  223.4680 C   0  0  0  0  0  0  0  0  0  0  0  0
  139.5090   69.2170  224.6020 C   0  0  0  0  0  0  0  0  0  0  0  0
  140.0330   69.7790  225.7440 C   0  0  0  0  0  0  0  0  0  0  0  0
  140.1620   68.9920  226.8700 C   0  0  0  0  0  0  0  0  0  0  0  0
  140.6890   69.5570  228.0150 C   0  0  0  0  0  0  0  0  0  0  0  0
  140.8000   68.7520  229.0990 F   0  0  0  0  0  0  0  0  0  0  0  0
  141.0770   70.8820  228.0260 C   0  0  0  0  0  0  0  0  0  0  0  0
  140.9450   71.6760  226.8850 C   0  0  0  0  0  0  0  0  0  0  0  0
  140.4140   71.1170  225.7200 C   0  0  0  0  0  0  0  0  0  0  0  0
  140.2590   71.8140  224.5940 N   0  0  0  0  0  0  0  0  0  0  0  0
  139.5340   70.3760  221.0100 H   0  0  0  0  0  0  0  0  0  0  0  0
  139.5535   71.5498  218.9198 H   0  0  0  0  0  0  0  0  0  0  0  0
  138.3108   72.5845  219.7620 H   0  0  0  0  0  0  0  0  0  0  0  0
  142.6601   71.8217  221.0429 H   0  0  0  0  0  0  0  0  0  0  0  0
  142.1358   71.4970  219.4307 H   0  0  0  0  0  0  0  0  0  0  0  0
  144.6052   72.6639  220.0836 H   0  0  0  0  0  0  0  0  0  0  0  0
  143.8266   72.9239  218.5006 H   0  0  0  0  0  0  0  0  0  0  0  0
  144.4090   74.9234  220.4408 H   0  0  0  0  0  0  0  0  0  0  0  0
  143.3947   75.1705  219.0492 H   0  0  0  0  0  0  0  0  0  0  0  0
  142.4336   74.1625  221.9108 H   0  0  0  0  0  0  0  0  0  0  0  0
  142.4395   76.1530  222.0109 H   0  0  0  0  0  0  0  0  0  0  0  0
  141.7688   76.2861  220.2468 H   0  0  0  0  0  0  0  0  0  0  0  0
  139.8000   75.2600  221.2520 H   0  0  0  0  0  0  0  0  0  0  0  0
  139.8228   77.4493  220.4939 H   0  0  0  0  0  0  0  0  0  0  0  0
  140.8727   77.5377  224.1275 H   0  0  0  0  0  0  0  0  0  0  0  0
  142.4003   79.2599  224.9990 H   0  0  0  0  0  0  0  0  0  0  0  0
  143.2751   81.0345  223.4897 H   0  0  0  0  0  0  0  0  0  0  0  0
  142.5818   81.0318  221.0974 H   0  0  0  0  0  0  0  0  0  0  0  0
  141.0623   79.3087  220.2433 H   0  0  0  0  0  0  0  0  0  0  0  0
  138.4105   79.5248  222.0569 H   0  0  0  0  0  0  0  0  0  0  0  0
  136.1294   79.5230  223.0503 H   0  0  0  0  0  0  0  0  0  0  0  0
  136.1444   75.3109  223.3706 H   0  0  0  0  0  0  0  0  0  0  0  0
  138.4153   75.2314  222.3859 H   0  0  0  0  0  0  0  0  0  0  0  0
  138.9499   69.5279  222.5569 H   0  0  0  0  0  0  0  0  0  0  0  0
  139.2025   68.1606  224.5977 H   0  0  0  0  0  0  0  0  0  0  0  0
  139.8517   67.9368  226.8561 H   0  0  0  0  0  0  0  0  0  0  0  0
  141.4954   71.3177  228.9453 H   0  0  0  0  0  0  0  0  0  0  0  0
  141.2560   72.7310  226.9033 H   0  0  0  0  0  0  0  0  0  0  0  0
  1  2  2  0
  2  3  1  0
  3  4  1  0
  4  5  1  0
  5  6  2  0
  5  7  1  0
  7  8  1  0
  8  9  1  0
  9 10  1  0
 10 11  1  0
 11 12  1  0
 12 13  1  0
 13 14  1  0
 14 15  1  0
 15 16  2  0
 16 17  1  0
 17 18  2  0
 18 19  1  0
 19 20  2  0
 14 21  1  0
 21 22  2  0
 22 23  1  0
 23 24  2  0
 24 25  1  0
 25 26  2  0
  2 27  1  0
 27 28  2  0
 28 29  1  0
 29 30  2  0
 30 31  1  0
 31 32  2  0
 32 33  1  0
 32 34  1  0
 34 35  2  0
 35 36  1  0
 36 37  2  0
 11  7  1  0
 20 15  1  0
 26 21  1  0
 37 27  1  0
 36 30  1  0
  3 38  1  0
  4 39  1  0
  4 40  1  0
  8 41  1  0
  8 42  1  0
  9 43  1  0
  9 44  1  0
 10 45  1  0
 10 46  1  0
 11 47  1  1
 12 48  1  0
 12 49  1  0
 13 50  1  0
 14 51  1  6
 16 52  1  0
 17 53  1  0
 18 54  1  0
 19 55  1  0
 20 56  1  0
 22 57  1  0
 23 58  1  0
 25 59  1  0
 26 60  1  0
 28 61  1  0
 29 62  1  0
 31 63  1  0
 34 64  1  0
 35 65  1  0
M  END
>  <smiles>  (5) 
O=C(NCC(=O)N1CCC[C@H]1CNC(c1ccccc1)c1ccncc1)c1ccc2cc(F)ccc2n1

>  <score_type>  (5) 
oracle

>  <origin>  (5) 
autodockgpu

>  <m_score__min__energy>  (5) 
-9.6600000000000001

>  <m_primary>  (5) 
energy

>  <rmsd>  (5) 
3.3054649398783256

>  <m_score__min__rmsd>  (5) 
3.3054649398783256

>  <meeko>  (5) 
{"free_energy": -8.64, "intermolecular_energy": -11.33, "internal_energy": -3.65, "cluster_size": 24, "cluster_id": 1, "rank_in_cluster": 16}

>  <energy>  (5) 
-9.41

>  <cluster_rmsd>  (5) 
1.55

>  <cluster>  (5) 
1

$$$$

     RDKit          3D

 65 69  0  0  1  0  0  0  0  0999 V2000
  140.2560   73.1080  222.7910 O   0  0  0  0  0  0  0  0  0  0  0  0
  140.3630   71.8620  222.8830 C   0  0  0  0  0  0  0  0  0  0  0  0
  140.4410   70.9890  221.7660 N   0  0  0  0  0  0  0  0  0  0  0  0
  140.3920   71.5810  220.4280 C   0  0  0  0  0  0  0  0  0  0  0  0
  141.7060   71.8480  219.8770 C   0  0  0  0  0  0  0  0  0  0  0  0
  142.0330   71.1590  218.8300 O   0  0  0  0  0  0  0  0  0  0  0  0
  142.6830   72.7510  220.3190 N   0  0  0  0  0  0  0  0  0  0  0  0
  144.0830   72.2610  220.5410 C   0  0  0  0  0  0  0  0  0  0  0  0
  144.8400   73.3840  219.8710 C   0  0  0  0  0  0  0  0  0  0  0  0
  143.9090   74.5700  219.7710 C   0  0  0  0  0  0  0  0  0  0  0  0
  142.7410   74.1150  220.6690 C   0  0  1  0  0  0  0  0  0  0  0  0
  141.5980   75.0000  220.6270 C   0  0  0  0  0  0  0  0  0  0  0  0
  141.1340   75.6540  221.7790 N   0  0  0  0  0  0  0  0  0  0  0  0
  140.3970   76.8580  221.5680 C   0  0  2  0  0  0  0  0  0  0  0  0
  141.1090   78.0490  222.0840 C   0  0  0  0  0  0  0  0  0  0  0  0
  141.5110   79.1050  221.2940 C   0  0  0  0  0  0  0  0  0  0  0  0
  142.1760   80.2120  221.7970 C   0  0  0  0  0  0  0  0  0  0  0  0
  142.4630   80.2900  223.1410 C   0  0  0  0  0  0  0  0  0  0  0  0
  142.0740   79.2460  223.9630 C   0  0  0  0  0  0  0  0  0  0  0  0
  141.4150   78.1580  223.4450 C   0  0  0  0  0  0  0  0  0  0  0  0
  139.0060   76.7890  222.0890 C   0  0  0  0  0  0  0  0  0  0  0  0
  138.3500   75.5990  222.3320 C   0  0  0  0  0  0  0  0  0  0  0  0
  137.0470   75.6580  222.8200 C   0  0  0  0  0  0  0  0  0  0  0  0
  136.4200   76.8150  223.0580 N   0  0  0  0  0  0  0  0  0  0  0  0
  137.0540   77.9880  222.8230 C   0  0  0  0  0  0  0  0  0  0  0  0
  138.3470   77.9850  222.3390 C   0  0  0  0  0  0  0  0  0  0  0  0
  140.4140   71.2490  224.2210 C   0  0  0  0  0  0  0  0  0  0  0  0
  140.7440   72.0290  225.3330 C   0  0  0  0  0  0  0  0  0  0  0  0
  140.7950   71.4730  226.5880 C   0  0  0  0  0  0  0  0  0  0  0  0
  140.5200   70.1350  226.7550 C   0  0  0  0  0  0  0  0  0  0  0  0
  140.5770   69.6000  228.0250 C   0  0  0  0  0  0  0  0  0  0  0  0
  140.3000   68.2570  228.1920 C   0  0  0  0  0  0  0  0  0  0  0  0
  140.3680   67.7700  229.4530 F   0  0  0  0  0  0  0  0  0  0  0  0
  139.9720   67.4720  227.1040 C   0  0  0  0  0  0  0  0  0  0  0  0
  139.9140   68.0150  225.8200 C   0  0  0  0  0  0  0  0  0  0  0  0
  140.1920   69.3720  225.6370 C   0  0  0  0  0  0  0  0  0  0  0  0
  140.1560   69.9590  224.4410 N   0  0  0  0  0  0  0  0  0  0  0  0
  140.5300   69.9600  221.9250 H   0  0  0  0  0  0  0  0  0  0  0  0
  139.8652   70.8867  219.7568 H   0  0  0  0  0  0  0  0  0  0  0  0
  139.8699   72.5453  220.5144 H   0  0  0  0  0  0  0  0  0  0  0  0
  144.3265   72.1810  221.6107 H   0  0  0  0  0  0  0  0  0  0  0  0
  144.2964   71.2530  220.1558 H   0  0  0  0  0  0  0  0  0  0  0  0
  145.7231   73.6504  220.4704 H   0  0  0  0  0  0  0  0  0  0  0  0
  145.1807   73.0763  218.8714 H   0  0  0  0  0  0  0  0  0  0  0  0
  144.3806   75.4857  220.1572 H   0  0  0  0  0  0  0  0  0  0  0  0
  143.6133   74.8247  218.7425 H   0  0  0  0  0  0  0  0  0  0  0  0
  142.8351   74.1923  221.7622 H   0  0  0  0  0  0  0  0  0  0  0  0
  141.8425   75.7884  219.8999 H   0  0  0  0  0  0  0  0  0  0  0  0
  140.7727   74.3095  220.3986 H   0  0  0  0  0  0  0  0  0  0  0  0
  140.6000   75.0350  222.4150 H   0  0  0  0  0  0  0  0  0  0  0  0
  140.3173   76.9681  220.4764 H   0  0  0  0  0  0  0  0  0  0  0  0
  141.2942   79.0672  220.2162 H   0  0  0  0  0  0  0  0  0  0  0  0
  142.4744   81.0280  221.1224 H   0  0  0  0  0  0  0  0  0  0  0  0
  142.9901   81.1631  223.5531 H   0  0  0  0  0  0  0  0  0  0  0  0
  142.2946   79.2883  225.0398 H   0  0  0  0  0  0  0  0  0  0  0  0
  141.1176   77.3446  224.1232 H   0  0  0  0  0  0  0  0  0  0  0  0
  138.8418   74.6329  222.1457 H   0  0  0  0  0  0  0  0  0  0  0  0
  136.5130   74.7168  223.0173 H   0  0  0  0  0  0  0  0  0  0  0  0
  136.5402   78.9410  223.0172 H   0  0  0  0  0  0  0  0  0  0  0  0
  138.8600   78.9395  222.1497 H   0  0  0  0  0  0  0  0  0  0  0  0
  140.9650   73.0985  225.2018 H   0  0  0  0  0  0  0  0  0  0  0  0
  141.0549   72.0954  227.4569 H   0  0  0  0  0  0  0  0  0  0  0  0
  140.8379   70.2303  228.8879 H   0  0  0  0  0  0  0  0  0  0  0  0
  139.7535   66.4041  227.2518 H   0  0  0  0  0  0  0  0  0  0  0  0
  139.6520   67.3809  224.9602 H   0  0  0  0  0  0  0  0  0  0  0  0
  1  2  2  0
  2  3  1  0
  3  4  1  0
  4  5  1  0
  5  6  2  0
  5  7  1  0
  7  8  1  0
  8  9  1  0
  9 10  1  0
 10 11  1  0
 11 12  1  0
 12 13  1  0
 13 14  1  0
 14 15  1  0
 15 16  2  0
 16 17  1  0
 17 18  2  0
 18 19  1  0
 19 20  2  0
 14 21  1  0
 21 22  2  0
 22 23  1  0
 23 24  2  0
 24 25  1  0
 25 26  2  0
  2 27  1  0
 27 28  2  0
 28 29  1  0
 29 30  2  0
 30 31  1  0
 31 32  2  0
 32 33  1  0
 32 34  1  0
 34 35  2  0
 35 36  1  0
 36 37  2  0
 11  7  1  0
 20 15  1  0
 26 21  1  0
 37 27  1  0
 36 30  1  0
  3 38  1  0
  4 39  1  0
  4 40  1  0
  8 41  1  0
  8 42  1  0
  9 43  1  0
  9 44  1  0
 10 45  1  0
 10 46  1  0
 11 47  1  1
 12 48  1  0
 12 49  1  0
 13 50  1  0
 14 51  1  6
 16 52  1  0
 17 53  1  0
 18 54  1  0
 19 55  1  0
 20 56  1  0
 22 57  1  0
 23 58  1  0
 25 59  1  0
 26 60  1  0
 28 61  1  0
 29 62  1  0
 31 63  1  0
 34 64  1  0
 35 65  1  0
M  END
>  <smiles>  (6) 
O=C(NCC(=O)N1CCC[C@H]1CNC(c1ccccc1)c1ccncc1)c1ccc2cc(F)ccc2n1

>  <score_type>  (6) 
oracle

>  <origin>  (6) 
autodockgpu

>  <m_score__min__energy>  (6) 
-9.6600000000000001

>  <m_primary>  (6) 
energy

>  <rmsd>  (6) 
4.0107493668264675

>  <m_score__min__rmsd>  (6) 
4.0107493668264675

>  <meeko>  (6) 
{"free_energy": -9.27, "intermolecular_energy": -11.95, "internal_energy": -3.25, "cluster_size": 24, "cluster_id": 1, "rank_in_cluster": 7}

>  <energy>  (6) 
-9.39

>  <cluster_rmsd>  (6) 
1.54

>  <cluster>  (6) 
1

$$$$

     RDKit          3D

 65 69  0  0  1  0  0  0  0  0999 V2000
  140.3200   72.2680  221.9200 O   0  0  0  0  0  0  0  0  0  0  0  0
  139.4040   72.0920  222.7590 C   0  0  0  0  0  0  0  0  0  0  0  0
  138.1460   72.7490  222.7070 N   0  0  0  0  0  0  0  0  0  0  0  0
  137.9080   73.6870  221.6090 C   0  0  0  0  0  0  0  0  0  0  0  0
  138.2520   75.0540  221.9470 C   0  0  0  0  0  0  0  0  0  0  0  0
  139.4500   75.2420  222.4020 O   0  0  0  0  0  0  0  0  0  0  0  0
  137.4680   76.2120  221.8520 N   0  0  0  0  0  0  0  0  0  0  0  0
  136.0530   76.1780  222.3470 C   0  0  0  0  0  0  0  0  0  0  0  0
  136.0310   77.4850  223.1070 C   0  0  0  0  0  0  0  0  0  0  0  0
  137.1840   78.3260  222.6060 C   0  0  0  0  0  0  0  0  0  0  0  0
  137.6250   77.5250  221.3640 C   0  0  1  0  0  0  0  0  0  0  0  0
  138.8470   78.0140  220.7650 C   0  0  0  0  0  0  0  0  0  0  0  0
  139.7710   77.1410  220.1670 N   0  0  0  0  0  0  0  0  0  0  0  0
  141.1480   77.4870  220.3070 C   0  0  2  0  0  0  0  0  0  0  0  0
  142.0320   76.3000  220.2570 C   0  0  0  0  0  0  0  0  0  0  0  0
  141.7590   75.1130  220.9040 C   0  0  0  0  0  0  0  0  0  0  0  0
  142.5990   74.0120  220.8440 C   0  0  0  0  0  0  0  0  0  0  0  0
  143.7650   74.0760  220.1160 C   0  0  0  0  0  0  0  0  0  0  0  0
  144.0700   75.2530  219.4550 C   0  0  0  0  0  0  0  0  0  0  0  0
  143.2240   76.3330  219.5260 C   0  0  0  0  0  0  0  0  0  0  0  0
  141.4220   78.3170  221.5100 C   0  0  0  0  0  0  0  0  0  0  0  0
  141.2420   77.8590  222.8000 C   0  0  0  0  0  0  0  0  0  0  0  0
  141.5320   78.7260  223.8490 C   0  0  0  0  0  0  0  0  0  0  0  0
  141.9740   79.9730  223.6490 N   0  0  0  0  0  0  0  0  0  0  0  0
  142.1540   80.4330  222.3890 C   0  0  0  0  0  0  0  0  0  0  0  0
  141.8810   79.6120  221.3130 C   0  0  0  0  0  0  0  0  0  0  0  0
  139.6270   71.1510  223.8690 C   0  0  0  0  0  0  0  0  0  0  0  0
  139.3020   69.8010  223.7150 C   0  0  0  0  0  0  0  0  0  0  0  0
  139.5040   68.9110  224.7410 C   0  0  0  0  0  0  0  0  0  0  0  0
  140.0330   69.3500  225.9340 C   0  0  0  0  0  0  0  0  0  0  0  0
  140.2270   68.4360  226.9500 C   0  0  0  0  0  0  0  0  0  0  0  0
  140.7580   68.8780  228.1450 C   0  0  0  0  0  0  0  0  0  0  0  0
  140.9330   67.9510  229.1170 F   0  0  0  0  0  0  0  0  0  0  0  0
  141.0860   70.2090  228.3150 C   0  0  0  0  0  0  0  0  0  0  0  0
  140.8890   71.1320  227.2860 C   0  0  0  0  0  0  0  0  0  0  0  0
  140.3530   70.6980  226.0710 C   0  0  0  0  0  0  0  0  0  0  0  0
  140.1370   71.5220  225.0450 N   0  0  0  0  0  0  0  0  0  0  0  0
  137.4330   72.5480  223.4430 H   0  0  0  0  0  0  0  0  0  0  0  0
  138.5141   73.3764  220.7451 H   0  0  0  0  0  0  0  0  0  0  0  0
  136.8313   73.6646  221.3847 H   0  0  0  0  0  0  0  0  0  0  0  0
  135.3277   76.1705  221.5200 H   0  0  0  0  0  0  0  0  0  0  0  0
  135.7802   75.2878  222.9328 H   0  0  0  0  0  0  0  0  0  0  0  0
  135.0799   78.0074  222.9269 H   0  0  0  0  0  0  0  0  0  0  0  0
  136.1261   77.3045  224.1879 H   0  0  0  0  0  0  0  0  0  0  0  0
  136.8549   79.3401  222.3352 H   0  0  0  0  0  0  0  0  0  0  0  0
  137.9817   78.4839  223.3468 H   0  0  0  0  0  0  0  0  0  0  0  0
  137.0562   77.6190  220.4272 H   0  0  0  0  0  0  0  0  0  0  0  0
  138.5460   78.7292  219.9853 H   0  0  0  0  0  0  0  0  0  0  0  0
  139.4045   78.3883  221.6363 H   0  0  0  0  0  0  0  0  0  0  0  0
  139.6380   76.1510  220.4450 H   0  0  0  0  0  0  0  0  0  0  0  0
  141.3851   78.1133  219.4343 H   0  0  0  0  0  0  0  0  0  0  0  0
  140.8336   75.0366  221.4938 H   0  0  0  0  0  0  0  0  0  0  0  0
  142.3337   73.0876  221.3780 H   0  0  0  0  0  0  0  0  0  0  0  0
  144.4406   73.2097  220.0606 H   0  0  0  0  0  0  0  0  0  0  0  0
  144.9975   75.3243  218.8679 H   0  0  0  0  0  0  0  0  0  0  0  0
  143.4931   77.2550  218.9898 H   0  0  0  0  0  0  0  0  0  0  0  0
  140.8799   76.8384  222.9929 H   0  0  0  0  0  0  0  0  0  0  0  0
  141.3926   78.3730  224.8815 H   0  0  0  0  0  0  0  0  0  0  0  0
  142.5168   81.4580  222.2226 H   0  0  0  0  0  0  0  0  0  0  0  0
  142.0287   79.9878  220.2898 H   0  0  0  0  0  0  0  0  0  0  0  0
  138.8802   69.4476  222.7625 H   0  0  0  0  0  0  0  0  0  0  0  0
  139.2439   67.8502  224.6102 H   0  0  0  0  0  0  0  0  0  0  0  0
  139.9639   67.3771  226.8102 H   0  0  0  0  0  0  0  0  0  0  0  0
  141.5078   70.5461  229.2734 H   0  0  0  0  0  0  0  0  0  0  0  0
  141.1531   72.1900  227.4305 H   0  0  0  0  0  0  0  0  0  0  0  0
  1  2  2  0
  2  3  1  0
  3  4  1  0
  4  5  1  0
  5  6  2  0
  5  7  1  0
  7  8  1  0
  8  9  1  0
  9 10  1  0
 10 11  1  0
 11 12  1  0
 12 13  1  0
 13 14  1  0
 14 15  1  0
 15 16  2  0
 16 17  1  0
 17 18  2  0
 18 19  1  0
 19 20  2  0
 14 21  1  0
 21 22  2  0
 22 23  1  0
 23 24  2  0
 24 25  1  0
 25 26  2  0
  2 27  1  0
 27 28  2  0
 28 29  1  0
 29 30  2  0
 30 31  1  0
 31 32  2  0
 32 33  1  0
 32 34  1  0
 34 35  2  0
 35 36  1  0
 36 37  2  0
 11  7  1  0
 20 15  1  0
 26 21  1  0
 37 27  1  0
 36 30  1  0
  3 38  1  0
  4 39  1  0
  4 40  1  0
  8 41  1  0
  8 42  1  0
  9 43  1  0
  9 44  1  0
 10 45  1  0
 10 46  1  0
 11 47  1  6
 12 48  1  0
 12 49  1  0
 13 50  1  0
 14 51  1  6
 16 52  1  0
 17 53  1  0
 18 54  1  0
 19 55  1  0
 20 56  1  0
 22 57  1  0
 23 58  1  0
 25 59  1  0
 26 60  1  0
 28 61  1  0
 29 62  1  0
 31 63  1  0
 34 64  1  0
 35 65  1  0
M  END
>  <smiles>  (7) 
O=C(NCC(=O)N1CCC[C@H]1CNC(c1ccccc1)c1ccncc1)c1ccc2cc(F)ccc2n1

>  <score_type>  (7) 
oracle

>  <origin>  (7) 
autodockgpu

>  <m_score__min__energy>  (7) 
-9.6600000000000001

>  <m_primary>  (7) 
energy

>  <rmsd>  (7) 
4.539095193276713

>  <m_score__min__rmsd>  (7) 
4.539095193276713

>  <meeko>  (7) 
{"free_energy": -9.07, "intermolecular_energy": -11.75, "internal_energy": -3.22, "cluster_size": 6, "cluster_id": 5, "rank_in_cluster": 1}

>  <energy>  (7) 
-9.27

>  <cluster_rmsd>  (7) 
0.84

>  <cluster>  (7) 
1

$$$$

     RDKit          3D

 65 69  0  0  1  0  0  0  0  0999 V2000
  139.1860   71.9270  220.7990 O   0  0  0  0  0  0  0  0  0  0  0  0
  140.0190   72.1960  221.6970 C   0  0  0  0  0  0  0  0  0  0  0  0
  141.0850   73.1190  221.5380 N   0  0  0  0  0  0  0  0  0  0  0  0
  141.2190   73.7960  220.2470 C   0  0  0  0  0  0  0  0  0  0  0  0
  142.5100   74.4320  220.0710 C   0  0  0  0  0  0  0  0  0  0  0  0
  143.2560   74.5050  221.1270 O   0  0  0  0  0  0  0  0  0  0  0  0
  143.0720   74.9830  218.9110 N   0  0  0  0  0  0  0  0  0  0  0  0
  143.6650   74.0690  217.8810 C   0  0  0  0  0  0  0  0  0  0  0  0
  143.0770   74.6930  216.6370 C   0  0  0  0  0  0  0  0  0  0  0  0
  142.6400   76.0970  216.9910 C   0  0  0  0  0  0  0  0  0  0  0  0
  143.2820   76.2720  218.3810 C   0  0  1  0  0  0  0  0  0  0  0  0
  142.8810   77.4870  219.0550 C   0  0  0  0  0  0  0  0  0  0  0  0
  142.5260   77.4900  220.4130 N   0  0  0  0  0  0  0  0  0  0  0  0
  141.2780   78.1020  220.7390 C   0  0  2  0  0  0  0  0  0  0  0  0
  141.4130   79.1140  221.8110 C   0  0  0  0  0  0  0  0  0  0  0  0
  140.3670   79.8810  222.2770 C   0  0  0  0  0  0  0  0  0  0  0  0
  140.5140   80.8240  223.2820 C   0  0  0  0  0  0  0  0  0  0  0  0
  141.7470   81.0270  223.8600 C   0  0  0  0  0  0  0  0  0  0  0  0
  142.8190   80.2740  223.4150 C   0  0  0  0  0  0  0  0  0  0  0  0
  142.6530   79.3440  222.4170 C   0  0  0  0  0  0  0  0  0  0  0  0
  140.2110   77.1160  221.0550 C   0  0  0  0  0  0  0  0  0  0  0  0
  139.2440   76.7330  220.1460 C   0  0  0  0  0  0  0  0  0  0  0  0
  138.2940   75.8020  220.5550 C   0  0  0  0  0  0  0  0  0  0  0  0
  138.2880   75.2730  221.7840 N   0  0  0  0  0  0  0  0  0  0  0  0
  139.2300   75.6410  222.6830 C   0  0  0  0  0  0  0  0  0  0  0  0
  140.1960   76.5620  222.3270 C   0  0  0  0  0  0  0  0  0  0  0  0
  139.8990   71.5240  223.0020 C   0  0  0  0  0  0  0  0  0  0  0  0
  139.0560   70.4170  223.1420 C   0  0  0  0  0  0  0  0  0  0  0  0
  138.9340   69.7790  224.3520 C   0  0  0  0  0  0  0  0  0  0  0  0
  139.6470   70.2320  225.4390 C   0  0  0  0  0  0  0  0  0  0  0  0
  139.5070   69.5730  226.6440 C   0  0  0  0  0  0  0  0  0  0  0  0
  140.2230   70.0280  227.7340 C   0  0  0  0  0  0  0  0  0  0  0  0
  140.0580   69.3550  228.8970 F   0  0  0  0  0  0  0  0  0  0  0  0
  141.0600   71.1200  227.6140 C   0  0  0  0  0  0  0  0  0  0  0  0
  141.2000   71.7840  226.3940 C   0  0  0  0  0  0  0  0  0  0  0  0
  140.4820   71.3340  225.2830 C   0  0  0  0  0  0  0  0  0  0  0  0
  140.5660   71.9190  224.0880 N   0  0  0  0  0  0  0  0  0  0  0  0
  141.7380   73.2900  222.3350 H   0  0  0  0  0  0  0  0  0  0  0  0
  141.0819   73.0541  219.4465 H   0  0  0  0  0  0  0  0  0  0  0  0
  140.4553   74.5868  220.2099 H   0  0  0  0  0  0  0  0  0  0  0  0
  144.7643   74.1075  217.8806 H   0  0  0  0  0  0  0  0  0  0  0  0
  143.4479   72.9995  218.0193 H   0  0  0  0  0  0  0  0  0  0  0  0
  143.8346   74.7259  215.8401 H   0  0  0  0  0  0  0  0  0  0  0  0
  142.2221   74.1023  216.2762 H   0  0  0  0  0  0  0  0  0  0  0  0
  143.0292   76.8331  216.2722 H   0  0  0  0  0  0  0  0  0  0  0  0
  141.5503   76.2467  216.9761 H   0  0  0  0  0  0  0  0  0  0  0  0
  144.3531   76.5108  218.4571 H   0  0  0  0  0  0  0  0  0  0  0  0
  143.7205   78.1903  218.9523 H   0  0  0  0  0  0  0  0  0  0  0  0
  141.9279   77.7274  218.5612 H   0  0  0  0  0  0  0  0  0  0  0  0
  142.5690   76.5510  220.8500 H   0  0  0  0  0  0  0  0  0  0  0  0
  140.9591   78.6277  219.8269 H   0  0  0  0  0  0  0  0  0  0  0  0
  139.3714   79.7384  221.8315 H   0  0  0  0  0  0  0  0  0  0  0  0
  139.6458   81.4101  223.6178 H   0  0  0  0  0  0  0  0  0  0  0  0
  141.8770   81.7721  224.6587 H   0  0  0  0  0  0  0  0  0  0  0  0
  143.8125   80.4210  223.8638 H   0  0  0  0  0  0  0  0  0  0  0  0
  143.5241   78.7609  222.0834 H   0  0  0  0  0  0  0  0  0  0  0  0
  139.2254   77.1515  219.1289 H   0  0  0  0  0  0  0  0  0  0  0  0
  137.5183   75.4890  219.8406 H   0  0  0  0  0  0  0  0  0  0  0  0
  139.2265   75.2081  223.6942 H   0  0  0  0  0  0  0  0  0  0  0  0
  140.9611   76.8592  223.0593 H   0  0  0  0  0  0  0  0  0  0  0  0
  138.4852   70.0538  222.2747 H   0  0  0  0  0  0  0  0  0  0  0  0
  138.2687   68.9088  224.4523 H   0  0  0  0  0  0  0  0  0  0  0  0
  138.8391   68.7036  226.7342 H   0  0  0  0  0  0  0  0  0  0  0  0
  141.6236   71.4711  228.4910 H   0  0  0  0  0  0  0  0  0  0  0  0
  141.8690   72.6529  226.3082 H   0  0  0  0  0  0  0  0  0  0  0  0
  1  2  2  0
  2  3  1  0
  3  4  1  0
  4  5  1  0
  5  6  2  0
  5  7  1  0
  7  8  1  0
  8  9  1  0
  9 10  1  0
 10 11  1  0
 11 12  1  0
 12 13  1  0
 13 14  1  0
 14 15  1  0
 15 16  2  0
 16 17  1  0
 17 18  2  0
 18 19  1  0
 19 20  2  0
 14 21  1  0
 21 22  2  0
 22 23  1  0
 23 24  2  0
 24 25  1  0
 25 26  2  0
  2 27  1  0
 27 28  2  0
 28 29  1  0
 29 30  2  0
 30 31  1  0
 31 32  2  0
 32 33  1  0
 32 34  1  0
 34 35  2  0
 35 36  1  0
 36 37  2  0
 11  7  1  0
 20 15  1  0
 26 21  1  0
 37 27  1  0
 36 30  1  0
  3 38  1  0
  4 39  1  0
  4 40  1  0
  8 41  1  0
  8 42  1  0
  9 43  1  0
  9 44  1  0
 10 45  1  0
 10 46  1  0
 11 47  1  6
 12 48  1  0
 12 49  1  0
 13 50  1  0
 14 51  1  6
 16 52  1  0
 17 53  1  0
 18 54  1  0
 19 55  1  0
 20 56  1  0
 22 57  1  0
 23 58  1  0
 25 59  1  0
 26 60  1  0
 28 61  1  0
 29 62  1  0
 31 63  1  0
 34 64  1  0
 35 65  1  0
M  END
>  <smiles>  (8) 
O=C(NCC(=O)N1CCC[C@H]1CNC(c1ccccc1)c1ccncc1)c1ccc2cc(F)ccc2n1

>  <score_type>  (8) 
oracle

>  <origin>  (8) 
autodockgpu

>  <m_score__min__energy>  (8) 
-9.6600000000000001

>  <m_primary>  (8) 
energy

>  <rmsd>  (8) 
2.9894826174483726

>  <m_score__min__rmsd>  (8) 
2.9894826174483726

>  <meeko>  (8) 
{"free_energy": -8.05, "intermolecular_energy": -10.74, "internal_energy": -4.25, "cluster_size": 24, "cluster_id": 1, "rank_in_cluster": 22}

>  <energy>  (8) 
-9.17

>  <cluster_rmsd>  (8) 
1.62

>  <cluster>  (8) 
1

$$$$

     RDKit          3D

 65 69  0  0  1  0  0  0  0  0999 V2000
  139.2530   70.9050  221.0470 O   0  0  0  0  0  0  0  0  0  0  0  0
  138.9230   71.4560  222.1250 C   0  0  0  0  0  0  0  0  0  0  0  0
  138.1840   72.6660  222.2020 N   0  0  0  0  0  0  0  0  0  0  0  0
  137.7860   73.3070  220.9470 C   0  0  0  0  0  0  0  0  0  0  0  0
  137.6460   74.7450  221.0640 C   0  0  0  0  0  0  0  0  0  0  0  0
  138.5230   75.4550  220.4280 O   0  0  0  0  0  0  0  0  0  0  0  0
  136.6900   75.4850  221.7730 N   0  0  0  0  0  0  0  0  0  0  0  0
  135.2470   75.0840  221.6890 C   0  0  0  0  0  0  0  0  0  0  0  0
  134.8850   75.1810  223.1540 C   0  0  0  0  0  0  0  0  0  0  0  0
  135.9280   76.0420  223.8290 C   0  0  0  0  0  0  0  0  0  0  0  0
  136.6790   76.6180  222.6120 C   0  0  1  0  0  0  0  0  0  0  0  0
  137.8670   77.3630  222.9640 C   0  0  0  0  0  0  0  0  0  0  0  0
  138.8790   77.6170  222.0240 N   0  0  0  0  0  0  0  0  0  0  0  0
  140.2220   77.4720  222.4850 C   0  0  2  0  0  0  0  0  0  0  0  0
  140.8670   78.7770  222.7500 C   0  0  0  0  0  0  0  0  0  0  0  0
  141.9250   78.9480  223.6190 C   0  0  0  0  0  0  0  0  0  0  0  0
  142.5160   80.1790  223.8530 C   0  0  0  0  0  0  0  0  0  0  0  0
  142.0500   81.3010  223.2040 C   0  0  0  0  0  0  0  0  0  0  0  0
  140.9890   81.1650  222.3260 C   0  0  0  0  0  0  0  0  0  0  0  0
  140.4160   79.9350  222.1070 C   0  0  0  0  0  0  0  0  0  0  0  0
  141.0570   76.6240  221.5940 C   0  0  0  0  0  0  0  0  0  0  0  0
  141.1530   75.2530  221.7280 C   0  0  0  0  0  0  0  0  0  0  0  0
  141.9660   74.5630  220.8340 C   0  0  0  0  0  0  0  0  0  0  0  0
  142.6480   75.1780  219.8610 N   0  0  0  0  0  0  0  0  0  0  0  0
  142.5610   76.5210  219.7200 C   0  0  0  0  0  0  0  0  0  0  0  0
  141.7680   77.2530  220.5810 C   0  0  0  0  0  0  0  0  0  0  0  0
  139.3150   70.8250  223.3960 C   0  0  0  0  0  0  0  0  0  0  0  0
  139.1480   69.4490  223.5720 C   0  0  0  0  0  0  0  0  0  0  0  0
  139.5100   68.8450  224.7510 C   0  0  0  0  0  0  0  0  0  0  0  0
  140.0410   69.6000  225.7720 C   0  0  0  0  0  0  0  0  0  0  0  0
  140.3960   68.9700  226.9470 C   0  0  0  0  0  0  0  0  0  0  0  0
  140.9300   69.7300  227.9700 C   0  0  0  0  0  0  0  0  0  0  0  0
  141.2650   69.0740  229.1070 F   0  0  0  0  0  0  0  0  0  0  0  0
  141.1010   71.0910  227.8140 C   0  0  0  0  0  0  0  0  0  0  0  0
  140.7410   71.7260  226.6240 C   0  0  0  0  0  0  0  0  0  0  0  0
  140.2010   70.9700  225.5810 C   0  0  0  0  0  0  0  0  0  0  0  0
  139.8350   71.5090  224.4170 N   0  0  0  0  0  0  0  0  0  0  0  0
  137.9460   73.0630  223.1380 H   0  0  0  0  0  0  0  0  0  0  0  0
  138.5494   73.0901  220.1853 H   0  0  0  0  0  0  0  0  0  0  0  0
  136.8015   72.9025  220.6692 H   0  0  0  0  0  0  0  0  0  0  0  0
  134.6608   75.7817  221.0728 H   0  0  0  0  0  0  0  0  0  0  0  0
  135.0552   74.1079  221.2194 H   0  0  0  0  0  0  0  0  0  0  0  0
  133.8915   75.6399  223.2648 H   0  0  0  0  0  0  0  0  0  0  0  0
  134.8566   74.1808  223.6109 H   0  0  0  0  0  0  0  0  0  0  0  0
  135.4649   76.8384  224.4301 H   0  0  0  0  0  0  0  0  0  0  0  0
  136.5698   75.4988  224.5383 H   0  0  0  0  0  0  0  0  0  0  0  0
  136.2433   77.4604  222.0549 H   0  0  0  0  0  0  0  0  0  0  0  0
  137.5230   78.3444  223.3226 H   0  0  0  0  0  0  0  0  0  0  0  0
  138.3676   76.6882  223.6740 H   0  0  0  0  0  0  0  0  0  0  0  0
  138.7630   77.0840  221.1420 H   0  0  0  0  0  0  0  0  0  0  0  0
  140.1489   76.9387  223.4443 H   0  0  0  0  0  0  0  0  0  0  0  0
  142.3167   78.0677  224.1497 H   0  0  0  0  0  0  0  0  0  0  0  0
  143.3573   80.2603  224.5570 H   0  0  0  0  0  0  0  0  0  0  0  0
  142.5113   82.2840  223.3798 H   0  0  0  0  0  0  0  0  0  0  0  0
  140.6008   82.0490  221.7988 H   0  0  0  0  0  0  0  0  0  0  0  0
  139.5746   79.8584  221.4026 H   0  0  0  0  0  0  0  0  0  0  0  0
  140.6027   74.7217  222.5185 H   0  0  0  0  0  0  0  0  0  0  0  0
  142.0512   73.4706  220.9309 H   0  0  0  0  0  0  0  0  0  0  0  0
  143.1211   77.0286  218.9208 H   0  0  0  0  0  0  0  0  0  0  0  0
  141.6989   78.3445  220.4633 H   0  0  0  0  0  0  0  0  0  0  0  0
  138.7224   68.8436  222.7582 H   0  0  0  0  0  0  0  0  0  0  0  0
  139.3759   67.7607  224.8791 H   0  0  0  0  0  0  0  0  0  0  0  0
  140.2568   67.8854  227.0669 H   0  0  0  0  0  0  0  0  0  0  0  0
  141.5264   71.6827  228.6380 H   0  0  0  0  0  0  0  0  0  0  0  0
  140.8812   72.8109  226.5089 H   0  0  0  0  0  0  0  0  0  0  0  0
  1  2  2  0
  2  3  1  0
  3  4  1  0
  4  5  1  0
  5  6  2  0
  5  7  1  0
  7  8  1  0
  8  9  1  0
  9 10  1  0
 10 11  1  0
 11 12  1  0
 12 13  1  0
 13 14  1  0
 14 15  1  0
 15 16  2  0
 16 17  1  0
 17 18  2  0
 18 19  1  0
 19 20  2  0
 14 21  1  0
 21 22  2  0
 22 23  1  0
 23 24  2  0
 24 25  1  0
 25 26  2  0
  2 27  1  0
 27 28  2  0
 28 29  1  0
 29 30  2  0
 30 31  1  0
 31 32  2  0
 32 33  1  0
 32 34  1  0
 34 35  2  0
 35 36  1  0
 36 37  2  0
 11  7  1  0
 20 15  1  0
 26 21  1  0
 37 27  1  0
 36 30  1  0
  3 38  1  0
  4 39  1  0
  4 40  1  0
  8 41  1  0
  8 42  1  0
  9 43  1  0
  9 44  1  0
 10 45  1  0
 10 46  1  0
 11 47  1  6
 12 48  1  0
 12 49  1  0
 13 50  1  0
 14 51  1  1
 16 52  1  0
 17 53  1  0
 18 54  1  0
 19 55  1  0
 20 56  1  0
 22 57  1  0
 23 58  1  0
 25 59  1  0
 26 60  1  0
 28 61  1  0
 29 62  1  0
 31 63  1  0
 34 64  1  0
 35 65  1  0
M  END
>  <smiles>  (9) 
O=C(NCC(=O)N1CCC[C@H]1CNC(c1ccccc1)c1ccncc1)c1ccc2cc(F)ccc2n1

>  <score_type>  (9) 
oracle

>  <origin>  (9) 
autodockgpu

>  <m_score__min__energy>  (9) 
-9.6600000000000001

>  <m_primary>  (9) 
energy

>  <rmsd>  (9) 
3.7234177165342595

>  <m_score__min__rmsd>  (9) 
3.7234177165342595

>  <meeko>  (9) 
{"free_energy": -8.66, "intermolecular_energy": -11.34, "internal_energy": -3.23, "cluster_size": 8, "cluster_id": 3, "rank_in_cluster": 8}

>  <energy>  (9) 
-9.12

>  <cluster_rmsd>  (9) 
0.63

>  <cluster>  (9) 
1

$$$$

     RDKit          3D

 65 69  0  0  1  0  0  0  0  0999 V2000
  138.8940   71.0260  220.8270 O   0  0  0  0  0  0  0  0  0  0  0  0
  138.8680   71.7240  221.8690 C   0  0  0  0  0  0  0  0  0  0  0  0
  138.5840   73.1160  221.8820 N   0  0  0  0  0  0  0  0  0  0  0  0
  138.3050   73.7710  220.6030 C   0  0  0  0  0  0  0  0  0  0  0  0
  137.0110   74.4220  220.5690 C   0  0  0  0  0  0  0  0  0  0  0  0
  136.4870   74.5860  219.3960 O   0  0  0  0  0  0  0  0  0  0  0  0
  136.2370   74.9050  221.6340 N   0  0  0  0  0  0  0  0  0  0  0  0
  134.7830   74.5430  221.7030 C   0  0  0  0  0  0  0  0  0  0  0  0
  134.6930   74.1860  223.1690 C   0  0  0  0  0  0  0  0  0  0  0  0
  135.8850   74.8030  223.8650 C   0  0  0  0  0  0  0  0  0  0  0  0
  136.4350   75.7280  222.7610 C   0  0  1  0  0  0  0  0  0  0  0  0
  137.7050   76.3340  223.0930 C   0  0  0  0  0  0  0  0  0  0  0  0
  138.9200   75.7720  222.6680 N   0  0  0  0  0  0  0  0  0  0  0  0
  139.7540   76.6060  221.8630 C   0  0  2  0  0  0  0  0  0  0  0  0
  140.8820   75.8580  221.2640 C   0  0  0  0  0  0  0  0  0  0  0  0
  141.1790   74.5450  221.5650 C   0  0  0  0  0  0  0  0  0  0  0  0
  142.2390   73.8620  220.9930 C   0  0  0  0  0  0  0  0  0  0  0  0
  143.0510   74.4940  220.0780 C   0  0  0  0  0  0  0  0  0  0  0  0
  142.7820   75.8120  219.7530 C   0  0  0  0  0  0  0  0  0  0  0  0
  141.7250   76.4720  220.3320 C   0  0  0  0  0  0  0  0  0  0  0  0
  140.2270   77.8200  222.5780 C   0  0  0  0  0  0  0  0  0  0  0  0
  141.4430   77.8870  223.2300 C   0  0  0  0  0  0  0  0  0  0  0  0
  141.7810   79.0780  223.8650 C   0  0  0  0  0  0  0  0  0  0  0  0
  140.9760   80.1470  223.8640 N   0  0  0  0  0  0  0  0  0  0  0  0
  139.7820   80.0930  223.2280 C   0  0  0  0  0  0  0  0  0  0  0  0
  139.4000   78.9340  222.5820 C   0  0  0  0  0  0  0  0  0  0  0  0
  139.1460   71.0820  223.1640 C   0  0  0  0  0  0  0  0  0  0  0  0
  138.6870   69.7850  223.4110 C   0  0  0  0  0  0  0  0  0  0  0  0
  138.9390   69.1710  224.6140 C   0  0  0  0  0  0  0  0  0  0  0  0
  139.6490   69.8370  225.5870 C   0  0  0  0  0  0  0  0  0  0  0  0
  139.8890   69.1990  226.7860 C   0  0  0  0  0  0  0  0  0  0  0  0
  140.6020   69.8680  227.7620 C   0  0  0  0  0  0  0  0  0  0  0  0
  140.8160   69.2080  228.9240 F   0  0  0  0  0  0  0  0  0  0  0  0
  141.0630   71.1500  227.5340 C   0  0  0  0  0  0  0  0  0  0  0  0
  140.8190   71.7930  226.3190 C   0  0  0  0  0  0  0  0  0  0  0  0
  140.0990   71.1280  225.3240 C   0  0  0  0  0  0  0  0  0  0  0  0
  139.8290   71.6800  224.1410 N   0  0  0  0  0  0  0  0  0  0  0  0
  138.5800   73.6290  222.7920 H   0  0  0  0  0  0  0  0  0  0  0  0
  139.0825   74.5273  220.4199 H   0  0  0  0  0  0  0  0  0  0  0  0
  138.3001   72.9900  219.8283 H   0  0  0  0  0  0  0  0  0  0  0  0
  134.1343   75.3933  221.4457 H   0  0  0  0  0  0  0  0  0  0  0  0
  134.4594   73.7564  221.0055 H   0  0  0  0  0  0  0  0  0  0  0  0
  133.7613   74.5859  223.5957 H   0  0  0  0  0  0  0  0  0  0  0  0
  134.6919   73.0939  223.3008 H   0  0  0  0  0  0  0  0  0  0  0  0
  135.5806   75.3744  224.7543 H   0  0  0  0  0  0  0  0  0  0  0  0
  136.6138   74.0712  224.2436 H   0  0  0  0  0  0  0  0  0  0  0  0
  135.9513   76.6984  222.5756 H   0  0  0  0  0  0  0  0  0  0  0  0
  137.6769   77.3558  222.6867 H   0  0  0  0  0  0  0  0  0  0  0  0
  137.7521   76.2013  224.1840 H   0  0  0  0  0  0  0  0  0  0  0  0
  139.4820   75.3750  223.4430 H   0  0  0  0  0  0  0  0  0  0  0  0
  139.1152   76.9568  221.0391 H   0  0  0  0  0  0  0  0  0  0  0  0
  140.5451   74.0167  222.2923 H   0  0  0  0  0  0  0  0  0  0  0  0
  142.4323   72.8150  221.2694 H   0  0  0  0  0  0  0  0  0  0  0  0
  143.8956   73.9625  219.6152 H   0  0  0  0  0  0  0  0  0  0  0  0
  143.4195   76.3355  219.0253 H   0  0  0  0  0  0  0  0  0  0  0  0
  141.5354   77.5190  220.0530 H   0  0  0  0  0  0  0  0  0  0  0  0
  142.1244   77.0237  223.2467 H   0  0  0  0  0  0  0  0  0  0  0  0
  142.7467   79.1434  224.3877 H   0  0  0  0  0  0  0  0  0  0  0  0
  139.1181   80.9700  223.2259 H   0  0  0  0  0  0  0  0  0  0  0  0
  138.4298   78.8935  222.0651 H   0  0  0  0  0  0  0  0  0  0  0  0
  138.1188   69.2510  222.6351 H   0  0  0  0  0  0  0  0  0  0  0  0
  138.5743   68.1498  224.7990 H   0  0  0  0  0  0  0  0  0  0  0  0
  139.5200   68.1777  226.9616 H   0  0  0  0  0  0  0  0  0  0  0  0
  141.6296   71.6710  228.3198 H   0  0  0  0  0  0  0  0  0  0  0  0
  141.1904   72.8140  226.1470 H   0  0  0  0  0  0  0  0  0  0  0  0
  1  2  2  0
  2  3  1  0
  3  4  1  0
  4  5  1  0
  5  6  2  0
  5  7  1  0
  7  8  1  0
  8  9  1  0
  9 10  1  0
 10 11  1  0
 11 12  1  0
 12 13  1  0
 13 14  1  0
 14 15  1  0
 15 16  2  0
 16 17  1  0
 17 18  2  0
 18 19  1  0
 19 20  2  0
 14 21  1  0
 21 22  2  0
 22 23  1  0
 23 24  2  0
 24 25  1  0
 25 26  2  0
  2 27  1  0
 27 28  2  0
 28 29  1  0
 29 30  2  0
 30 31  1  0
 31 32  2  0
 32 33  1  0
 32 34  1  0
 34 35  2  0
 35 36  1  0
 36 37  2  0
 11  7  1  0
 20 15  1  0
 26 21  1  0
 37 27  1  0
 36 30  1  0
  3 38  1  0
  4 39  1  0
  4 40  1  0
  8 41  1  0
  8 42  1  0
  9 43  1  0
  9 44  1  0
 10 45  1  0
 10 46  1  0
 11 47  1  6
 12 48  1  0
 12 49  1  0
 13 50  1  0
 14 51  1  6
 16 52  1  0
 17 53  1  0
 18 54  1  0
 19 55  1  0
 20 56  1  0
 22 57  1  0
 23 58  1  0
 25 59  1  0
 26 60  1  0
 28 61  1  0
 29 62  1  0
 31 63  1  0
 34 64  1  0
 35 65  1  0
M  END
>  <smiles>  (10) 
O=C(NCC(=O)N1CCC[C@H]1CNC(c1ccccc1)c1ccncc1)c1ccc2cc(F)ccc2n1

>  <score_type>  (10) 
oracle

>  <origin>  (10) 
autodockgpu

>  <m_score__min__energy>  (10) 
-9.6600000000000001

>  <m_primary>  (10) 
energy

>  <rmsd>  (10) 
4.907169473874844

>  <m_score__min__rmsd>  (10) 
4.907169473874844

>  <meeko>  (10) 
{"free_energy": -8.41, "intermolecular_energy": -11.09, "internal_energy": -3.46, "cluster_size": 6, "cluster_id": 5, "rank_in_cluster": 2}

>  <energy>  (10) 
-9.06

>  <cluster_rmsd>  (10) 
1.42

>  <cluster>  (10) 
1

$$$$

     RDKit          3D

 65 69  0  0  1  0  0  0  0  0999 V2000
  139.1720   70.9160  221.5470 O   0  0  0  0  0  0  0  0  0  0  0  0
  139.4710   71.4550  222.6380 C   0  0  0  0  0  0  0  0  0  0  0  0
  139.6680   72.8520  222.8040 N   0  0  0  0  0  0  0  0  0  0  0  0
  139.5120   73.7100  221.6280 C   0  0  0  0  0  0  0  0  0  0  0  0
  139.1650   75.0760  221.9640 C   0  0  0  0  0  0  0  0  0  0  0  0
  140.1430   75.8320  222.3510 O   0  0  0  0  0  0  0  0  0  0  0  0
  137.9110   75.7020  221.9320 N   0  0  0  0  0  0  0  0  0  0  0  0
  136.6780   74.8790  222.1560 C   0  0  0  0  0  0  0  0  0  0  0  0
  135.9470   75.7940  223.1120 C   0  0  0  0  0  0  0  0  0  0  0  0
  136.5470   77.1750  222.9740 C   0  0  0  0  0  0  0  0  0  0  0  0
  137.4150   77.0030  221.7110 C   0  0  1  0  0  0  0  0  0  0  0  0
  138.2600   78.1430  221.4300 C   0  0  0  0  0  0  0  0  0  0  0  0
  137.9900   79.4080  221.9760 N   0  0  0  0  0  0  0  0  0  0  0  0
  138.4900   79.6480  223.2910 C   0  0  2  0  0  0  0  0  0  0  0  0
  137.8030   80.7800  223.9540 C   0  0  0  0  0  0  0  0  0  0  0  0
  137.2820   81.8630  223.2780 C   0  0  0  0  0  0  0  0  0  0  0  0
  136.6420   82.9120  223.9170 C   0  0  0  0  0  0  0  0  0  0  0  0
  136.5040   82.9020  225.2870 C   0  0  0  0  0  0  0  0  0  0  0  0
  137.0170   81.8300  225.9960 C   0  0  0  0  0  0  0  0  0  0  0  0
  137.6480   80.7990  225.3440 C   0  0  0  0  0  0  0  0  0  0  0  0
  139.9680   79.8120  223.3310 C   0  0  0  0  0  0  0  0  0  0  0  0
  140.8400   78.7540  223.4920 C   0  0  0  0  0  0  0  0  0  0  0  0
  142.2050   79.0280  223.5150 C   0  0  0  0  0  0  0  0  0  0  0  0
  142.6910   80.2680  223.3880 N   0  0  0  0  0  0  0  0  0  0  0  0
  141.8450   81.3130  223.2300 C   0  0  0  0  0  0  0  0  0  0  0  0
  140.4820   81.0940  223.2010 C   0  0  0  0  0  0  0  0  0  0  0  0
  139.6320   70.6070  223.8310 C   0  0  0  0  0  0  0  0  0  0  0  0
  139.1900   69.2810  223.8080 C   0  0  0  0  0  0  0  0  0  0  0  0
  139.3330   68.4770  224.9120 C   0  0  0  0  0  0  0  0  0  0  0  0
  139.9160   68.9790  226.0540 C   0  0  0  0  0  0  0  0  0  0  0  0
  140.0480   68.1510  227.1500 C   0  0  0  0  0  0  0  0  0  0  0  0
  140.6340   68.6560  228.2940 C   0  0  0  0  0  0  0  0  0  0  0  0
  140.7450   67.8120  229.3480 F   0  0  0  0  0  0  0  0  0  0  0  0
  141.0750   69.9640  228.3340 C   0  0  0  0  0  0  0  0  0  0  0  0
  140.9410   70.7990  227.2240 C   0  0  0  0  0  0  0  0  0  0  0  0
  140.3510   70.3010  226.0600 C   0  0  0  0  0  0  0  0  0  0  0  0
  140.1890   71.0410  224.9630 N   0  0  0  0  0  0  0  0  0  0  0  0
  139.9150   73.2260  223.7470 H   0  0  0  0  0  0  0  0  0  0  0  0
  140.4605   73.7165  221.0709 H   0  0  0  0  0  0  0  0  0  0  0  0
  138.6858   73.2992  221.0291 H   0  0  0  0  0  0  0  0  0  0  0  0
  136.1139   74.7210  221.2250 H   0  0  0  0  0  0  0  0  0  0  0  0
  136.8539   73.8572  222.5235 H   0  0  0  0  0  0  0  0  0  0  0  0
  134.8770   75.8232  222.8587 H   0  0  0  0  0  0  0  0  0  0  0  0
  136.0472   75.4314  224.1457 H   0  0  0  0  0  0  0  0  0  0  0  0
  135.7693   77.9390  222.8271 H   0  0  0  0  0  0  0  0  0  0  0  0
  137.1034   77.5148  223.8600 H   0  0  0  0  0  0  0  0  0  0  0  0
  136.9412   77.0325  220.7187 H   0  0  0  0  0  0  0  0  0  0  0  0
  139.2715   77.8697  221.7650 H   0  0  0  0  0  0  0  0  0  0  0  0
  138.0869   78.3069  220.3561 H   0  0  0  0  0  0  0  0  0  0  0  0
  138.2710   80.1900  221.3570 H   0  0  0  0  0  0  0  0  0  0  0  0
  138.2593   78.7390  223.8659 H   0  0  0  0  0  0  0  0  0  0  0  0
  137.3790   81.8953  222.1828 H   0  0  0  0  0  0  0  0  0  0  0  0
  136.2440   83.7530  223.3302 H   0  0  0  0  0  0  0  0  0  0  0  0
  135.9969   83.7283  225.8067 H   0  0  0  0  0  0  0  0  0  0  0  0
  136.9185   81.8034  227.0913 H   0  0  0  0  0  0  0  0  0  0  0  0
  138.0448   79.9601  225.9347 H   0  0  0  0  0  0  0  0  0  0  0  0
  140.4674   77.7246  223.5990 H   0  0  0  0  0  0  0  0  0  0  0  0
  142.9103   78.1935  223.6424 H   0  0  0  0  0  0  0  0  0  0  0  0
  142.2422   82.3334  223.1250 H   0  0  0  0  0  0  0  0  0  0  0  0
  139.7966   81.9449  223.0735 H   0  0  0  0  0  0  0  0  0  0  0  0
  138.7233   68.8779  222.8971 H   0  0  0  0  0  0  0  0  0  0  0  0
  138.9827   67.4346  224.8841 H   0  0  0  0  0  0  0  0  0  0  0  0
  139.6938   67.1102  227.1132 H   0  0  0  0  0  0  0  0  0  0  0  0
  141.5380   70.3528  229.2529 H   0  0  0  0  0  0  0  0  0  0  0  0
  141.2965   71.8392  227.2653 H   0  0  0  0  0  0  0  0  0  0  0  0
  1  2  2  0
  2  3  1  0
  3  4  1  0
  4  5  1  0
  5  6  2  0
  5  7  1  0
  7  8  1  0
  8  9  1  0
  9 10  1  0
 10 11  1  0
 11 12  1  0
 12 13  1  0
 13 14  1  0
 14 15  1  0
 15 16  2  0
 16 17  1  0
 17 18  2  0
 18 19  1  0
 19 20  2  0
 14 21  1  0
 21 22  2  0
 22 23  1  0
 23 24  2  0
 24 25  1  0
 25 26  2  0
  2 27  1  0
 27 28  2  0
 28 29  1  0
 29 30  2  0
 30 31  1  0
 31 32  2  0
 32 33  1  0
 32 34  1  0
 34 35  2  0
 35 36  1  0
 36 37  2  0
 11  7  1  0
 20 15  1  0
 26 21  1  0
 37 27  1  0
 36 30  1  0
  3 38  1  0
  4 39  1  0
  4 40  1  0
  8 41  1  0
  8 42  1  0
  9 43  1  0
  9 44  1  0
 10 45  1  0
 10 46  1  0
 11 47  1  6
 12 48  1  0
 12 49  1  0
 13 50  1  0
 14 51  1  1
 16 52  1  0
 17 53  1  0
 18 54  1  0
 19 55  1  0
 20 56  1  0
 22 57  1  0
 23 58  1  0
 25 59  1  0
 26 60  1  0
 28 61  1  0
 29 62  1  0
 31 63  1  0
 34 64  1  0
 35 65  1  0
M  END
>  <smiles>  (11) 
O=C(NCC(=O)N1CCC[C@H]1CNC(c1ccccc1)c1ccncc1)c1ccc2cc(F)ccc2n1

>  <score_type>  (11) 
oracle

>  <origin>  (11) 
autodockgpu

>  <m_score__min__energy>  (11) 
-9.6600000000000001

>  <m_primary>  (11) 
energy

>  <rmsd>  (11) 
3.5598201799553046

>  <m_score__min__rmsd>  (11) 
3.5598201799553046

>  <meeko>  (11) 
{"free_energy": -9.21, "intermolecular_energy": -11.89, "internal_energy": -2.43, "cluster_size": 2, "cluster_id": 4, "rank_in_cluster": 1}

>  <energy>  (11) 
-9.04

>  <cluster_rmsd>  (11) 
1.85

>  <cluster>  (11) 
1

$$$$

     RDKit          3D

 65 69  0  0  1  0  0  0  0  0999 V2000
  138.3610   70.3920  221.7440 O   0  0  0  0  0  0  0  0  0  0  0  0
  138.9120   70.9820  222.7040 C   0  0  0  0  0  0  0  0  0  0  0  0
  139.2460   72.3620  222.6990 N   0  0  0  0  0  0  0  0  0  0  0  0
  138.9290   73.1390  221.5000 C   0  0  0  0  0  0  0  0  0  0  0  0
  139.9970   74.0380  221.1070 C   0  0  0  0  0  0  0  0  0  0  0  0
  140.8680   74.3190  222.0230 O   0  0  0  0  0  0  0  0  0  0  0  0
  140.2230   74.6510  219.8670 N   0  0  0  0  0  0  0  0  0  0  0  0
  140.2260   73.8100  218.6260 C   0  0  0  0  0  0  0  0  0  0  0  0
  139.3840   74.6940  217.7340 C   0  0  0  0  0  0  0  0  0  0  0  0
  139.3900   76.0840  218.3290 C   0  0  0  0  0  0  0  0  0  0  0  0
  140.4950   75.9520  219.3970 C   0  0  1  0  0  0  0  0  0  0  0  0
  140.6060   77.1070  220.2600 C   0  0  0  0  0  0  0  0  0  0  0  0
  141.4470   77.1030  221.3850 N   0  0  0  0  0  0  0  0  0  0  0  0
  140.9140   77.6860  222.5730 C   0  0  2  0  0  0  0  0  0  0  0  0
  139.4370   77.6050  222.6240 C   0  0  0  0  0  0  0  0  0  0  0  0
  138.6060   78.7040  222.5780 C   0  0  0  0  0  0  0  0  0  0  0  0
  137.2240   78.6070  222.6270 C   0  0  0  0  0  0  0  0  0  0  0  0
  136.6240   77.3710  222.7250 C   0  0  0  0  0  0  0  0  0  0  0  0
  137.4290   76.2470  222.7740 C   0  0  0  0  0  0  0  0  0  0  0  0
  138.7970   76.3640  222.7240 C   0  0  0  0  0  0  0  0  0  0  0  0
  141.3890   79.0760  222.8040 C   0  0  0  0  0  0  0  0  0  0  0  0
  141.8490   79.5230  224.0270 C   0  0  0  0  0  0  0  0  0  0  0  0
  142.2690   80.8460  224.1250 C   0  0  0  0  0  0  0  0  0  0  0  0
  142.2410   81.6880  223.0850 N   0  0  0  0  0  0  0  0  0  0  0  0
  141.7910   81.2610  221.8820 C   0  0  0  0  0  0  0  0  0  0  0  0
  141.3630   79.9570  221.7320 C   0  0  0  0  0  0  0  0  0  0  0  0
  139.2390   70.2140  223.9170 C   0  0  0  0  0  0  0  0  0  0  0  0
  138.9090   68.8580  223.9940 C   0  0  0  0  0  0  0  0  0  0  0  0
  139.2080   68.1280  225.1190 C   0  0  0  0  0  0  0  0  0  0  0  0
  139.8370   68.7360  226.1820 C   0  0  0  0  0  0  0  0  0  0  0  0
  140.1260   67.9810  227.3000 C   0  0  0  0  0  0  0  0  0  0  0  0
  140.7580   68.5920  228.3660 C   0  0  0  0  0  0  0  0  0  0  0  0
  141.0240   67.8170  229.4440 F   0  0  0  0  0  0  0  0  0  0  0  0
  141.0900   69.9300  228.3070 C   0  0  0  0  0  0  0  0  0  0  0  0
  140.7970   70.6920  227.1740 C   0  0  0  0  0  0  0  0  0  0  0  0
  140.1590   70.0870  226.0890 C   0  0  0  0  0  0  0  0  0  0  0  0
  139.8480   70.7520  224.9760 N   0  0  0  0  0  0  0  0  0  0  0  0
  139.7040   72.7810  223.5390 H   0  0  0  0  0  0  0  0  0  0  0  0
  138.7356   72.4416  220.6716 H   0  0  0  0  0  0  0  0  0  0  0  0
  138.0487   73.7564  221.7320 H   0  0  0  0  0  0  0  0  0  0  0  0
  141.2411   73.6694  218.2264 H   0  0  0  0  0  0  0  0  0  0  0  0
  139.8581   72.7811  218.7528 H   0  0  0  0  0  0  0  0  0  0  0  0
  139.8103   74.7183  216.7202 H   0  0  0  0  0  0  0  0  0  0  0  0
  138.3563   74.3074  217.6669 H   0  0  0  0  0  0  0  0  0  0  0  0
  139.6470   76.8432  217.5756 H   0  0  0  0  0  0  0  0  0  0  0  0
  138.4166   76.4078  218.7261 H   0  0  0  0  0  0  0  0  0  0  0  0
  141.5517   76.0009  219.0953 H   0  0  0  0  0  0  0  0  0  0  0  0
  140.9423   77.9389  219.6238 H   0  0  0  0  0  0  0  0  0  0  0  0
  139.6049   77.1618  220.7126 H   0  0  0  0  0  0  0  0  0  0  0  0
  141.8290   76.1660  221.6070 H   0  0  0  0  0  0  0  0  0  0  0  0
  141.3069   77.0785  223.4016 H   0  0  0  0  0  0  0  0  0  0  0  0
  139.0600   79.7028  222.4989 H   0  0  0  0  0  0  0  0  0  0  0  0
  136.6068   79.5167  222.5876 H   0  0  0  0  0  0  0  0  0  0  0  0
  135.5285   77.2797  222.7635 H   0  0  0  0  0  0  0  0  0  0  0  0
  136.9697   75.2507  222.8537 H   0  0  0  0  0  0  0  0  0  0  0  0
  139.4101   75.4516  222.7639 H   0  0  0  0  0  0  0  0  0  0  0  0
  141.8824   78.8526  224.8985 H   0  0  0  0  0  0  0  0  0  0  0  0
  142.6380   81.2137  225.0938 H   0  0  0  0  0  0  0  0  0  0  0  0
  141.7664   81.9513  221.0259 H   0  0  0  0  0  0  0  0  0  0  0  0
  140.9978   79.6129  220.7531 H   0  0  0  0  0  0  0  0  0  0  0  0
  138.4053   68.3708  223.1462 H   0  0  0  0  0  0  0  0  0  0  0  0
  138.9456   67.0610  225.1701 H   0  0  0  0  0  0  0  0  0  0  0  0
  139.8588   66.9148  227.3418 H   0  0  0  0  0  0  0  0  0  0  0  0
  141.5922   70.4028  229.1639 H   0  0  0  0  0  0  0  0  0  0  0  0
  141.0660   71.7579  227.1365 H   0  0  0  0  0  0  0  0  0  0  0  0
  1  2  2  0
  2  3  1  0
  3  4  1  0
  4  5  1  0
  5  6  2  0
  5  7  1  0
  7  8  1  0
  8  9  1  0
  9 10  1  0
 10 11  1  0
 11 12  1  0
 12 13  1  0
 13 14  1  0
 14 15  1  0
 15 16  2  0
 16 17  1  0
 17 18  2  0
 18 19  1  0
 19 20  2  0
 14 21  1  0
 21 22  2  0
 22 23  1  0
 23 24  2  0
 24 25  1  0
 25 26  2  0
  2 27  1  0
 27 28  2  0
 28 29  1  0
 29 30  2  0
 30 31  1  0
 31 32  2  0
 32 33  1  0
 32 34  1  0
 34 35  2  0
 35 36  1  0
 36 37  2  0
 11  7  1  0
 20 15  1  0
 26 21  1  0
 37 27  1  0
 36 30  1  0
  3 38  1  0
  4 39  1  0
  4 40  1  0
  8 41  1  0
  8 42  1  0
  9 43  1  0
  9 44  1  0
 10 45  1  0
 10 46  1  0
 11 47  1  6
 12 48  1  0
 12 49  1  0
 13 50  1  0
 14 51  1  1
 16 52  1  0
 17 53  1  0
 18 54  1  0
 19 55  1  0
 20 56  1  0
 22 57  1  0
 23 58  1  0
 25 59  1  0
 26 60  1  0
 28 61  1  0
 29 62  1  0
 31 63  1  0
 34 64  1  0
 35 65  1  0
M  END
>  <smiles>  (12) 
O=C(NCC(=O)N1CCC[C@H]1CNC(c1ccccc1)c1ccncc1)c1ccc2cc(F)ccc2n1

>  <score_type>  (12) 
oracle

>  <origin>  (12) 
autodockgpu

>  <m_score__min__energy>  (12) 
-9.6600000000000001

>  <m_primary>  (12) 
energy

>  <rmsd>  (12) 
2.576258072237474

>  <m_score__min__rmsd>  (12) 
2.576258072237474

>  <meeko>  (12) 
{"free_energy": -9.04, "intermolecular_energy": -11.73, "internal_energy": -3.54, "cluster_size": 24, "cluster_id": 1, "rank_in_cluster": 11}

>  <energy>  (12) 
-9.02

>  <cluster_rmsd>  (12) 
1.86

>  <cluster>  (12) 
1

$$$$

     RDKit          3D

 65 69  0  0  1  0  0  0  0  0999 V2000
  139.9200   73.6810  222.6820 O   0  0  0  0  0  0  0  0  0  0  0  0
  140.3950   72.5230  222.6000 C   0  0  0  0  0  0  0  0  0  0  0  0
  141.0820   72.0280  221.4590 N   0  0  0  0  0  0  0  0  0  0  0  0
  141.2420   72.9250  220.3130 C   0  0  0  0  0  0  0  0  0  0  0  0
  142.5590   73.5280  220.2450 C   0  0  0  0  0  0  0  0  0  0  0  0
  143.4970   72.9180  220.8960 O   0  0  0  0  0  0  0  0  0  0  0  0
  142.9650   74.6870  219.5700 N   0  0  0  0  0  0  0  0  0  0  0  0
  144.0660   74.5930  218.5560 C   0  0  0  0  0  0  0  0  0  0  0  0
  143.4500   75.4250  217.4540 C   0  0  0  0  0  0  0  0  0  0  0  0
  142.3590   76.2690  218.0720 C   0  0  0  0  0  0  0  0  0  0  0  0
  142.6250   76.0550  219.5750 C   0  0  1  0  0  0  0  0  0  0  0  0
  141.6060   76.6210  220.4300 C   0  0  0  0  0  0  0  0  0  0  0  0
  141.4200   76.1700  221.7470 N   0  0  0  0  0  0  0  0  0  0  0  0
  140.7310   77.0580  222.6270 C   0  0  2  0  0  0  0  0  0  0  0  0
  139.2730   77.0820  222.3690 C   0  0  0  0  0  0  0  0  0  0  0  0
  138.4310   78.0760  222.8210 C   0  0  0  0  0  0  0  0  0  0  0  0
  137.0680   78.0810  222.5690 C   0  0  0  0  0  0  0  0  0  0  0  0
  136.5000   77.0620  221.8380 C   0  0  0  0  0  0  0  0  0  0  0  0
  137.3170   76.0480  221.3700 C   0  0  0  0  0  0  0  0  0  0  0  0
  138.6660   76.0610  221.6300 C   0  0  0  0  0  0  0  0  0  0  0  0
  141.3030   78.4300  222.6370 C   0  0  0  0  0  0  0  0  0  0  0  0
  141.1750   79.3090  221.5800 C   0  0  0  0  0  0  0  0  0  0  0  0
  141.7530   80.5690  221.7030 C   0  0  0  0  0  0  0  0  0  0  0  0
  142.4190   80.9510  222.7980 N   0  0  0  0  0  0  0  0  0  0  0  0
  142.5510   80.0970  223.8410 C   0  0  0  0  0  0  0  0  0  0  0  0
  141.9960   78.8350  223.7690 C   0  0  0  0  0  0  0  0  0  0  0  0
  140.2420   71.6080  223.7430 C   0  0  0  0  0  0  0  0  0  0  0  0
  139.5910   70.3830  223.5730 C   0  0  0  0  0  0  0  0  0  0  0  0
  139.4410   69.5180  224.6300 C   0  0  0  0  0  0  0  0  0  0  0  0
  139.9350   69.8590  225.8690 C   0  0  0  0  0  0  0  0  0  0  0  0
  139.7720   68.9730  226.9140 C   0  0  0  0  0  0  0  0  0  0  0  0
  140.2690   69.3160  228.1560 C   0  0  0  0  0  0  0  0  0  0  0  0
  140.0880   68.4200  229.1550 F   0  0  0  0  0  0  0  0  0  0  0  0
  140.9150   70.5220  228.3410 C   0  0  0  0  0  0  0  0  0  0  0  0
  141.0790   71.4160  227.2820 C   0  0  0  0  0  0  0  0  0  0  0  0
  140.5820   71.0820  226.0210 C   0  0  0  0  0  0  0  0  0  0  0  0
  140.7020   71.8870  224.9640 N   0  0  0  0  0  0  0  0  0  0  0  0
  141.4500   71.0510  221.4670 H   0  0  0  0  0  0  0  0  0  0  0  0
  141.0719   72.3496  219.3911 H   0  0  0  0  0  0  0  0  0  0  0  0
  140.5125   73.7401  220.4288 H   0  0  0  0  0  0  0  0  0  0  0  0
  145.0051   75.0302  218.9261 H   0  0  0  0  0  0  0  0  0  0  0  0
  144.3569   73.5717  218.2692 H   0  0  0  0  0  0  0  0  0  0  0  0
  144.2148   76.0735  217.0018 H   0  0  0  0  0  0  0  0  0  0  0  0
  143.0372   74.7773  216.6665 H   0  0  0  0  0  0  0  0  0  0  0  0
  142.4617   77.3277  217.7918 H   0  0  0  0  0  0  0  0  0  0  0  0
  141.3427   75.9961  217.7515 H   0  0  0  0  0  0  0  0  0  0  0  0
  143.4340   76.6145  220.0674 H   0  0  0  0  0  0  0  0  0  0  0  0
  141.8208   77.6977  220.4980 H   0  0  0  0  0  0  0  0  0  0  0  0
  140.6773   76.2990  219.9363 H   0  0  0  0  0  0  0  0  0  0  0  0
  140.9850   75.2310  221.8020 H   0  0  0  0  0  0  0  0  0  0  0  0
  140.8819   76.6494  223.6371 H   0  0  0  0  0  0  0  0  0  0  0  0
  138.8600   78.9017  223.4076 H   0  0  0  0  0  0  0  0  0  0  0  0
  136.4404   78.8988  222.9529 H   0  0  0  0  0  0  0  0  0  0  0  0
  135.4198   77.0541  221.6304 H   0  0  0  0  0  0  0  0  0  0  0  0
  136.8826   75.2242  220.7846 H   0  0  0  0  0  0  0  0  0  0  0  0
  139.2897   75.2411  221.2442 H   0  0  0  0  0  0  0  0  0  0  0  0
  140.6321   79.0218  220.6674 H   0  0  0  0  0  0  0  0  0  0  0  0
  141.6584   81.2780  220.8673 H   0  0  0  0  0  0  0  0  0  0  0  0
  143.0988   80.4081  224.7428 H   0  0  0  0  0  0  0  0  0  0  0  0
  142.1042   78.1434  224.6176 H   0  0  0  0  0  0  0  0  0  0  0  0
  139.1951   70.1088  222.5840 H   0  0  0  0  0  0  0  0  0  0  0  0
  138.9276   68.5558  224.4867 H   0  0  0  0  0  0  0  0  0  0  0  0
  139.2568   68.0132  226.7610 H   0  0  0  0  0  0  0  0  0  0  0  0
  141.3055   70.7816  229.3360 H   0  0  0  0  0  0  0  0  0  0  0  0
  141.5949   72.3747  227.4394 H   0  0  0  0  0  0  0  0  0  0  0  0
  1  2  2  0
  2  3  1  0
  3  4  1  0
  4  5  1  0
  5  6  2  0
  5  7  1  0
  7  8  1  0
  8  9  1  0
  9 10  1  0
 10 11  1  0
 11 12  1  0
 12 13  1  0
 13 14  1  0
 14 15  1  0
 15 16  2  0
 16 17  1  0
 17 18  2  0
 18 19  1  0
 19 20  2  0
 14 21  1  0
 21 22  2  0
 22 23  1  0
 23 24  2  0
 24 25  1  0
 25 26  2  0
  2 27  1  0
 27 28  2  0
 28 29  1  0
 29 30  2  0
 30 31  1  0
 31 32  2  0
 32 33  1  0
 32 34  1  0
 34 35  2  0
 35 36  1  0
 36 37  2  0
 11  7  1  0
 20 15  1  0
 26 21  1  0
 37 27  1  0
 36 30  1  0
  3 38  1  0
  4 39  1  0
  4 40  1  0
  8 41  1  0
  8 42  1  0
  9 43  1  0
  9 44  1  0
 10 45  1  0
 10 46  1  0
 11 47  1  1
 12 48  1  0
 12 49  1  0
 13 50  1  0
 14 51  1  1
 16 52  1  0
 17 53  1  0
 18 54  1  0
 19 55  1  0
 20 56  1  0
 22 57  1  0
 23 58  1  0
 25 59  1  0
 26 60  1  0
 28 61  1  0
 29 62  1  0
 31 63  1  0
 34 64  1  0
 35 65  1  0
M  END
>  <smiles>  (13) 
O=C(NCC(=O)N1CCC[C@H]1CNC(c1ccccc1)c1ccncc1)c1ccc2cc(F)ccc2n1

>  <score_type>  (13) 
oracle

>  <origin>  (13) 
autodockgpu

>  <m_score__min__energy>  (13) 
-9.6600000000000001

>  <m_primary>  (13) 
energy

>  <rmsd>  (13) 
3.4227636863847164

>  <m_score__min__rmsd>  (13) 
3.4227636863847164

>  <meeko>  (13) 
{"free_energy": -9.06, "intermolecular_energy": -11.74, "internal_energy": -3.01, "cluster_size": 24, "cluster_id": 1, "rank_in_cluster": 10}

>  <energy>  (13) 
-8.98

>  <cluster_rmsd>  (13) 
1.65

>  <cluster>  (13) 
1

$$$$

     RDKit          3D

 65 69  0  0  1  0  0  0  0  0999 V2000
  138.9670   72.1770  221.0940 O   0  0  0  0  0  0  0  0  0  0  0  0
  139.9350   72.2230  221.8910 C   0  0  0  0  0  0  0  0  0  0  0  0
  141.1480   72.9100  221.6240 N   0  0  0  0  0  0  0  0  0  0  0  0
  141.2750   73.6060  220.3430 C   0  0  0  0  0  0  0  0  0  0  0  0
  142.6130   74.1070  220.0990 C   0  0  0  0  0  0  0  0  0  0  0  0
  143.5150   73.7610  220.9610 O   0  0  0  0  0  0  0  0  0  0  0  0
  143.0750   74.9190  219.0540 N   0  0  0  0  0  0  0  0  0  0  0  0
  144.1220   74.3850  218.1230 C   0  0  0  0  0  0  0  0  0  0  0  0
  143.5230   74.8290  216.8070 C   0  0  0  0  0  0  0  0  0  0  0  0
  142.5240   75.9250  217.1050 C   0  0  0  0  0  0  0  0  0  0  0  0
  142.8370   76.2270  218.5840 C   0  0  1  0  0  0  0  0  0  0  0  0
  141.8990   77.1380  219.2000 C   0  0  0  0  0  0  0  0  0  0  0  0
  142.0960   77.6230  220.5030 N   0  0  0  0  0  0  0  0  0  0  0  0
  141.0240   78.3830  221.0620 C   0  0  2  0  0  0  0  0  0  0  0  0
  141.5030   79.4040  222.0210 C   0  0  0  0  0  0  0  0  0  0  0  0
  141.3860   80.7630  221.8170 C   0  0  0  0  0  0  0  0  0  0  0  0
  141.8400   81.7030  222.7280 C   0  0  0  0  0  0  0  0  0  0  0  0
  142.4390   81.2940  223.8980 C   0  0  0  0  0  0  0  0  0  0  0  0
  142.5730   79.9370  224.1340 C   0  0  0  0  0  0  0  0  0  0  0  0
  142.1160   79.0200  223.2190 C   0  0  0  0  0  0  0  0  0  0  0  0
  139.9580   77.5360  221.6580 C   0  0  0  0  0  0  0  0  0  0  0  0
  140.0560   76.1630  221.7640 C   0  0  0  0  0  0  0  0  0  0  0  0
  138.9930   75.4730  222.3410 C   0  0  0  0  0  0  0  0  0  0  0  0
  137.8950   76.0910  222.7910 N   0  0  0  0  0  0  0  0  0  0  0  0
  137.7890   77.4370  222.6930 C   0  0  0  0  0  0  0  0  0  0  0  0
  138.8150   78.1670  222.1280 C   0  0  0  0  0  0  0  0  0  0  0  0
  139.8240   71.5280  223.1840 C   0  0  0  0  0  0  0  0  0  0  0  0
  138.9690   70.4300  223.3160 C   0  0  0  0  0  0  0  0  0  0  0  0
  138.8560   69.7720  224.5160 C   0  0  0  0  0  0  0  0  0  0  0  0
  139.5890   70.1950  225.6010 C   0  0  0  0  0  0  0  0  0  0  0  0
  139.4570   69.5160  226.7950 C   0  0  0  0  0  0  0  0  0  0  0  0
  140.1950   69.9410  227.8830 C   0  0  0  0  0  0  0  0  0  0  0  0
  140.0370   69.2490  229.0360 F   0  0  0  0  0  0  0  0  0  0  0  0
  141.0440   71.0230  227.7710 C   0  0  0  0  0  0  0  0  0  0  0  0
  141.1760   71.7080  226.5610 C   0  0  0  0  0  0  0  0  0  0  0  0
  140.4370   71.2890  225.4530 C   0  0  0  0  0  0  0  0  0  0  0  0
  140.5120   71.8950  224.2670 N   0  0  0  0  0  0  0  0  0  0  0  0
  141.9090   72.9030  222.3400 H   0  0  0  0  0  0  0  0  0  0  0  0
  141.0106   72.9062  219.5365 H   0  0  0  0  0  0  0  0  0  0  0  0
  140.5998   74.4739  220.3726 H   0  0  0  0  0  0  0  0  0  0  0  0
  145.1056   74.8432  218.3032 H   0  0  0  0  0  0  0  0  0  0  0  0
  144.3242   73.3072  218.2093 H   0  0  0  0  0  0  0  0  0  0  0  0
  144.3138   75.2122  216.1454 H   0  0  0  0  0  0  0  0  0  0  0  0
  143.0306   73.9846  216.3026 H   0  0  0  0  0  0  0  0  0  0  0  0
  142.6928   76.8070  216.4697 H   0  0  0  0  0  0  0  0  0  0  0  0
  141.4777   75.6440  216.9148 H   0  0  0  0  0  0  0  0  0  0  0  0
  143.7048   76.8535  218.8379 H   0  0  0  0  0  0  0  0  0  0  0  0
  141.8472   78.0201  218.5449 H   0  0  0  0  0  0  0  0  0  0  0  0
  141.0013   76.5125  219.3134 H   0  0  0  0  0  0  0  0  0  0  0  0
  142.3790   76.8880  221.1760 H   0  0  0  0  0  0  0  0  0  0  0  0
  140.5643   78.9141  220.2155 H   0  0  0  0  0  0  0  0  0  0  0  0
  140.9111   81.1163  220.8898 H   0  0  0  0  0  0  0  0  0  0  0  0
  141.7218   82.7760  222.5164 H   0  0  0  0  0  0  0  0  0  0  0  0
  142.8034   82.0301  224.6297 H   0  0  0  0  0  0  0  0  0  0  0  0
  143.0497   79.5896  225.0625 H   0  0  0  0  0  0  0  0  0  0  0  0
  142.2359   77.9481  223.4351 H   0  0  0  0  0  0  0  0  0  0  0  0
  140.9478   75.6297  221.4032 H   0  0  0  0  0  0  0  0  0  0  0  0
  139.0585   74.3786  222.4302 H   0  0  0  0  0  0  0  0  0  0  0  0
  136.8875   77.9475  223.0627 H   0  0  0  0  0  0  0  0  0  0  0  0
  138.7257   79.2606  222.0495 H   0  0  0  0  0  0  0  0  0  0  0  0
  138.3813   70.0899  222.4506 H   0  0  0  0  0  0  0  0  0  0  0  0
  138.1809   68.9086  224.6097 H   0  0  0  0  0  0  0  0  0  0  0  0
  138.7784   68.6543  226.8789 H   0  0  0  0  0  0  0  0  0  0  0  0
  141.6245   71.3503  228.6462 H   0  0  0  0  0  0  0  0  0  0  0  0
  141.8556   72.5693  226.4818 H   0  0  0  0  0  0  0  0  0  0  0  0
  1  2  2  0
  2  3  1  0
  3  4  1  0
  4  5  1  0
  5  6  2  0
  5  7  1  0
  7  8  1  0
  8  9  1  0
  9 10  1  0
 10 11  1  0
 11 12  1  0
 12 13  1  0
 13 14  1  0
 14 15  1  0
 15 16  2  0
 16 17  1  0
 17 18  2  0
 18 19  1  0
 19 20  2  0
 14 21  1  0
 21 22  2  0
 22 23  1  0
 23 24  2  0
 24 25  1  0
 25 26  2  0
  2 27  1  0
 27 28  2  0
 28 29  1  0
 29 30  2  0
 30 31  1  0
 31 32  2  0
 32 33  1  0
 32 34  1  0
 34 35  2  0
 35 36  1  0
 36 37  2  0
 11  7  1  0
 20 15  1  0
 26 21  1  0
 37 27  1  0
 36 30  1  0
  3 38  1  0
  4 39  1  0
  4 40  1  0
  8 41  1  0
  8 42  1  0
  9 43  1  0
  9 44  1  0
 10 45  1  0
 10 46  1  0
 11 47  1  6
 12 48  1  0
 12 49  1  0
 13 50  1  0
 14 51  1  6
 16 52  1  0
 17 53  1  0
 18 54  1  0
 19 55  1  0
 20 56  1  0
 22 57  1  0
 23 58  1  0
 25 59  1  0
 26 60  1  0
 28 61  1  0
 29 62  1  0
 31 63  1  0
 34 64  1  0
 35 65  1  0
M  END
>  <smiles>  (14) 
O=C(NCC(=O)N1CCC[C@H]1CNC(c1ccccc1)c1ccncc1)c1ccc2cc(F)ccc2n1

>  <score_type>  (14) 
oracle

>  <origin>  (14) 
autodockgpu

>  <m_score__min__energy>  (14) 
-9.6600000000000001

>  <m_primary>  (14) 
energy

>  <rmsd>  (14) 
2.9393453238515153

>  <m_score__min__rmsd>  (14) 
2.9393453238515153

>  <meeko>  (14) 
{"free_energy": -8.98, "intermolecular_energy": -11.67, "internal_energy": -3.05, "cluster_size": 24, "cluster_id": 1, "rank_in_cluster": 13}

>  <energy>  (14) 
-8.96

>  <cluster_rmsd>  (14) 
1.73

>  <cluster>  (14) 
1

$$$$

     RDKit          3D

 65 69  0  0  1  0  0  0  0  0999 V2000
  138.3170   72.9800  221.8370 O   0  0  0  0  0  0  0  0  0  0  0  0
  139.1750   73.8110  221.4550 C   0  0  0  0  0  0  0  0  0  0  0  0
  138.9010   75.1870  221.2330 N   0  0  0  0  0  0  0  0  0  0  0  0
  137.5350   75.6590  221.4650 C   0  0  0  0  0  0  0  0  0  0  0  0
  137.4590   76.7050  222.4670 C   0  0  0  0  0  0  0  0  0  0  0  0
  136.7000   76.4600  223.4870 O   0  0  0  0  0  0  0  0  0  0  0  0
  138.0940   77.9540  222.4900 N   0  0  0  0  0  0  0  0  0  0  0  0
  137.2650   79.1970  222.3580 C   0  0  0  0  0  0  0  0  0  0  0  0
  137.8940   80.0240  223.4570 C   0  0  0  0  0  0  0  0  0  0  0  0
  139.2480   79.4240  223.7640 C   0  0  0  0  0  0  0  0  0  0  0  0
  139.4140   78.4360  222.5920 C   0  0  1  0  0  0  0  0  0  0  0  0
  140.5700   77.5770  222.7190 C   0  0  0  0  0  0  0  0  0  0  0  0
  141.1940   77.0160  221.5930 N   0  0  0  0  0  0  0  0  0  0  0  0
  142.0210   77.8920  220.8260 C   0  0  2  0  0  0  0  0  0  0  0  0
  141.8430   79.3100  221.2110 C   0  0  0  0  0  0  0  0  0  0  0  0
  142.4200   79.8800  222.3260 C   0  0  0  0  0  0  0  0  0  0  0  0
  142.2410   81.2110  222.6700 C   0  0  0  0  0  0  0  0  0  0  0  0
  141.4590   82.0260  221.8830 C   0  0  0  0  0  0  0  0  0  0  0  0
  140.8640   81.4850  220.7570 C   0  0  0  0  0  0  0  0  0  0  0  0
  141.0530   80.1630  220.4330 C   0  0  0  0  0  0  0  0  0  0  0  0
  141.8650   77.7040  219.3590 C   0  0  0  0  0  0  0  0  0  0  0  0
  142.8480   78.0370  218.4480 C   0  0  0  0  0  0  0  0  0  0  0  0
  142.5900   77.8160  217.0980 C   0  0  0  0  0  0  0  0  0  0  0  0
  141.4360   77.2990  216.6620 N   0  0  0  0  0  0  0  0  0  0  0  0
  140.4660   76.9700  217.5460 C   0  0  0  0  0  0  0  0  0  0  0  0
  140.6710   77.1690  218.8970 C   0  0  0  0  0  0  0  0  0  0  0  0
  140.5540   73.3530  221.2170 C   0  0  0  0  0  0  0  0  0  0  0  0
  140.8540   71.9890  221.2690 C   0  0  0  0  0  0  0  0  0  0  0  0
  142.1350   71.5450  221.0490 C   0  0  0  0  0  0  0  0  0  0  0  0
  143.1340   72.4500  220.7740 C   0  0  0  0  0  0  0  0  0  0  0  0
  144.4130   71.9790  220.5550 C   0  0  0  0  0  0  0  0  0  0  0  0
  145.4150   72.8880  220.2790 C   0  0  0  0  0  0  0  0  0  0  0  0
  146.6560   72.3860  220.0710 F   0  0  0  0  0  0  0  0  0  0  0  0
  145.1360   74.2400  220.2220 C   0  0  0  0  0  0  0  0  0  0  0  0
  143.8420   74.7140  220.4430 C   0  0  0  0  0  0  0  0  0  0  0  0
  142.8190   73.8050  220.7240 C   0  0  0  0  0  0  0  0  0  0  0  0
  141.5600   74.1850  220.9450 N   0  0  0  0  0  0  0  0  0  0  0  0
  139.6700   75.8180  220.9150 H   0  0  0  0  0  0  0  0  0  0  0  0
  137.1340   76.0506  220.5185 H   0  0  0  0  0  0  0  0  0  0  0  0
  136.9504   74.8045  221.8366 H   0  0  0  0  0  0  0  0  0  0  0  0
  137.3822   79.6672  221.3705 H   0  0  0  0  0  0  0  0  0  0  0  0
  136.1781   79.0499  222.4420 H   0  0  0  0  0  0  0  0  0  0  0  0
  138.0125   81.0650  223.1218 H   0  0  0  0  0  0  0  0  0  0  0  0
  137.2580   80.0209  224.3545 H   0  0  0  0  0  0  0  0  0  0  0  0
  140.0378   80.1896  223.7601 H   0  0  0  0  0  0  0  0  0  0  0  0
  139.3195   78.9591  224.7584 H   0  0  0  0  0  0  0  0  0  0  0  0
  139.7254   78.8115  221.6061 H   0  0  0  0  0  0  0  0  0  0  0  0
  141.3395   78.1669  223.2386 H   0  0  0  0  0  0  0  0  0  0  0  0
  140.1535   76.6929  223.2238 H   0  0  0  0  0  0  0  0  0  0  0  0
  141.7220   76.1500  221.8060 H   0  0  0  0  0  0  0  0  0  0  0  0
  143.0562   77.6110  221.0696 H   0  0  0  0  0  0  0  0  0  0  0  0
  143.0504   79.2506  222.9713 H   0  0  0  0  0  0  0  0  0  0  0  0
  142.7238   81.6158  223.5717 H   0  0  0  0  0  0  0  0  0  0  0  0
  141.3104   83.0843  222.1436 H   0  0  0  0  0  0  0  0  0  0  0  0
  140.2341   82.1188  220.1155 H   0  0  0  0  0  0  0  0  0  0  0  0
  140.5667   79.7620  219.5315 H   0  0  0  0  0  0  0  0  0  0  0  0
  143.8061   78.4641  218.7792 H   0  0  0  0  0  0  0  0  0  0  0  0
  143.3647   78.0765  216.3618 H   0  0  0  0  0  0  0  0  0  0  0  0
  139.5162   76.5450  217.1893 H   0  0  0  0  0  0  0  0  0  0  0  0
  139.8806   76.9009  219.6135 H   0  0  0  0  0  0  0  0  0  0  0  0
  140.0564   71.2639  221.4883 H   0  0  0  0  0  0  0  0  0  0  0  0
  142.3614   70.4694  221.0925 H   0  0  0  0  0  0  0  0  0  0  0  0
  144.6295   70.9014  220.5994 H   0  0  0  0  0  0  0  0  0  0  0  0
  145.9443   74.9521  219.9995 H   0  0  0  0  0  0  0  0  0  0  0  0
  143.6298   75.7923  220.3964 H   0  0  0  0  0  0  0  0  0  0  0  0
  1  2  2  0
  2  3  1  0
  3  4  1  0
  4  5  1  0
  5  6  2  0
  5  7  1  0
  7  8  1  0
  8  9  1  0
  9 10  1  0
 10 11  1  0
 11 12  1  0
 12 13  1  0
 13 14  1  0
 14 15  1  0
 15 16  2  0
 16 17  1  0
 17 18  2  0
 18 19  1  0
 19 20  2  0
 14 21  1  0
 21 22  2  0
 22 23  1  0
 23 24  2  0
 24 25  1  0
 25 26  2  0
  2 27  1  0
 27 28  2  0
 28 29  1  0
 29 30  2  0
 30 31  1  0
 31 32  2  0
 32 33  1  0
 32 34  1  0
 34 35  2  0
 35 36  1  0
 36 37  2  0
 11  7  1  0
 20 15  1  0
 26 21  1  0
 37 27  1  0
 36 30  1  0
  3 38  1  0
  4 39  1  0
  4 40  1  0
  8 41  1  0
  8 42  1  0
  9 43  1  0
  9 44  1  0
 10 45  1  0
 10 46  1  0
 11 47  1  6
 12 48  1  0
 12 49  1  0
 13 50  1  0
 14 51  1  1
 16 52  1  0
 17 53  1  0
 18 54  1  0
 19 55  1  0
 20 56  1  0
 22 57  1  0
 23 58  1  0
 25 59  1  0
 26 60  1  0
 28 61  1  0
 29 62  1  0
 31 63  1  0
 34 64  1  0
 35 65  1  0
M  END
>  <smiles>  (15) 
O=C(NCC(=O)N1CCC[C@H]1CNC(c1ccccc1)c1ccncc1)c1ccc2cc(F)ccc2n1

>  <score_type>  (15) 
oracle

>  <origin>  (15) 
autodockgpu

>  <m_score__min__energy>  (15) 
-9.6600000000000001

>  <m_primary>  (15) 
energy

>  <rmsd>  (15) 
5.458807229202518

>  <m_score__min__rmsd>  (15) 
5.458807229202518

>  <meeko>  (15) 
{"free_energy": -6.75, "intermolecular_energy": -9.43, "internal_energy": -4.88, "cluster_size": 2, "cluster_id": 7, "rank_in_cluster": 2}

>  <energy>  (15) 
-8.69

>  <cluster_rmsd>  (15) 
1.7

>  <cluster>  (15) 
1

$$$$

     RDKit          3D

 65 69  0  0  1  0  0  0  0  0999 V2000
  138.5660   72.0100  221.2310 O   0  0  0  0  0  0  0  0  0  0  0  0
  139.5650   72.1520  221.9750 C   0  0  0  0  0  0  0  0  0  0  0  0
  140.6800   72.9710  221.6560 N   0  0  0  0  0  0  0  0  0  0  0  0
  140.6590   73.6910  220.3820 C   0  0  0  0  0  0  0  0  0  0  0  0
  141.9600   74.2020  219.9970 C   0  0  0  0  0  0  0  0  0  0  0  0
  142.8860   74.1380  220.9000 O   0  0  0  0  0  0  0  0  0  0  0  0
  142.3640   74.7610  218.7770 N   0  0  0  0  0  0  0  0  0  0  0  0
  142.3540   73.9080  217.5430 C   0  0  0  0  0  0  0  0  0  0  0  0
  141.7100   74.8810  216.5820 C   0  0  0  0  0  0  0  0  0  0  0  0
  141.8530   76.2670  217.1680 C   0  0  0  0  0  0  0  0  0  0  0  0
  142.8420   76.0070  218.3230 C   0  0  1  0  0  0  0  0  0  0  0  0
  143.0360   77.1510  219.1860 C   0  0  0  0  0  0  0  0  0  0  0  0
  142.5410   77.1700  220.5000 N   0  0  0  0  0  0  0  0  0  0  0  0
  141.3860   77.9770  220.7280 C   0  0  2  0  0  0  0  0  0  0  0  0
  141.6490   79.0740  221.6860 C   0  0  0  0  0  0  0  0  0  0  0  0
  142.0960   78.8760  222.9760 C   0  0  0  0  0  0  0  0  0  0  0  0
  142.3370   79.9170  223.8580 C   0  0  0  0  0  0  0  0  0  0  0  0
  142.1300   81.2190  223.4590 C   0  0  0  0  0  0  0  0  0  0  0  0
  141.6810   81.4530  222.1710 C   0  0  0  0  0  0  0  0  0  0  0  0
  141.4480   80.4070  221.3110 C   0  0  0  0  0  0  0  0  0  0  0  0
  140.1910   77.1860  221.1240 C   0  0  0  0  0  0  0  0  0  0  0  0
  139.0210   77.1660  220.3900 C   0  0  0  0  0  0  0  0  0  0  0  0
  137.9670   76.3880  220.8590 C   0  0  0  0  0  0  0  0  0  0  0  0
  138.0500   75.6670  221.9840 N   0  0  0  0  0  0  0  0  0  0  0  0
  139.1910   75.6790  222.7110 C   0  0  0  0  0  0  0  0  0  0  0  0
  140.2670   76.4350  222.2890 C   0  0  0  0  0  0  0  0  0  0  0  0
  139.6030   71.4340  223.2600 C   0  0  0  0  0  0  0  0  0  0  0  0
  138.9100   70.2290  223.4070 C   0  0  0  0  0  0  0  0  0  0  0  0
  138.9360   69.5480  224.5990 C   0  0  0  0  0  0  0  0  0  0  0  0
  139.6500   70.0540  225.6620 C   0  0  0  0  0  0  0  0  0  0  0  0
  139.6610   69.3510  226.8490 C   0  0  0  0  0  0  0  0  0  0  0  0
  140.3780   69.8600  227.9140 C   0  0  0  0  0  0  0  0  0  0  0  0
  140.3630   69.1400  229.0610 F   0  0  0  0  0  0  0  0  0  0  0  0
  141.0680   71.0490  227.7860 C   0  0  0  0  0  0  0  0  0  0  0  0
  141.0570   71.7590  226.5840 C   0  0  0  0  0  0  0  0  0  0  0  0
  140.3360   71.2550  225.4990 C   0  0  0  0  0  0  0  0  0  0  0  0
  140.2790   71.8790  224.3220 N   0  0  0  0  0  0  0  0  0  0  0  0
  141.4760   73.0390  222.3290 H   0  0  0  0  0  0  0  0  0  0  0  0
  140.3060   73.0051  219.5978 H   0  0  0  0  0  0  0  0  0  0  0  0
  139.9897   74.5554  220.5043 H   0  0  0  0  0  0  0  0  0  0  0  0
  143.3701   73.6291  217.2272 H   0  0  0  0  0  0  0  0  0  0  0  0
  141.8441   72.9386  217.6444 H   0  0  0  0  0  0  0  0  0  0  0  0
  142.2145   74.8330  215.6057 H   0  0  0  0  0  0  0  0  0  0  0  0
  140.6487   74.6322  216.4347 H   0  0  0  0  0  0  0  0  0  0  0  0
  142.2679   76.9735  216.4341 H   0  0  0  0  0  0  0  0  0  0  0  0
  140.9028   76.7229  217.4830 H   0  0  0  0  0  0  0  0  0  0  0  0
  143.9163   75.9108  218.1070 H   0  0  0  0  0  0  0  0  0  0  0  0
  144.1229   77.3023  219.2614 H   0  0  0  0  0  0  0  0  0  0  0  0
  142.4295   77.9251  218.6932 H   0  0  0  0  0  0  0  0  0  0  0  0
  142.3770   76.2240  220.8910 H   0  0  0  0  0  0  0  0  0  0  0  0
  141.1500   78.4360  219.7566 H   0  0  0  0  0  0  0  0  0  0  0  0
  142.2688   77.8455  223.3198 H   0  0  0  0  0  0  0  0  0  0  0  0
  142.6935   79.7038  224.8765 H   0  0  0  0  0  0  0  0  0  0  0  0
  142.3175   82.0547  224.1492 H   0  0  0  0  0  0  0  0  0  0  0  0
  141.5091   82.4855  221.8328 H   0  0  0  0  0  0  0  0  0  0  0  0
  141.0914   80.6249  220.2935 H   0  0  0  0  0  0  0  0  0  0  0  0
  138.9253   77.7482  219.4616 H   0  0  0  0  0  0  0  0  0  0  0  0
  137.0299   76.3645  220.2835 H   0  0  0  0  0  0  0  0  0  0  0  0
  139.2615   75.0880  223.6361 H   0  0  0  0  0  0  0  0  0  0  0  0
  141.1935   76.4421  222.8820 H   0  0  0  0  0  0  0  0  0  0  0  0
  138.3384   69.8224  222.5597 H   0  0  0  0  0  0  0  0  0  0  0  0
  138.3876   68.6003  224.7045 H   0  0  0  0  0  0  0  0  0  0  0  0
  139.1097   68.4040  226.9453 H   0  0  0  0  0  0  0  0  0  0  0  0
  141.6343   71.4424  228.6431 H   0  0  0  0  0  0  0  0  0  0  0  0
  141.6103   72.7053  226.4923 H   0  0  0  0  0  0  0  0  0  0  0  0
  1  2  2  0
  2  3  1  0
  3  4  1  0
  4  5  1  0
  5  6  2  0
  5  7  1  0
  7  8  1  0
  8  9  1  0
  9 10  1  0
 10 11  1  0
 11 12  1  0
 12 13  1  0
 13 14  1  0
 14 15  1  0
 15 16  2  0
 16 17  1  0
 17 18  2  0
 18 19  1  0
 19 20  2  0
 14 21  1  0
 21 22  2  0
 22 23  1  0
 23 24  2  0
 24 25  1  0
 25 26  2  0
  2 27  1  0
 27 28  2  0
 28 29  1  0
 29 30  2  0
 30 31  1  0
 31 32  2  0
 32 33  1  0
 32 34  1  0
 34 35  2  0
 35 36  1  0
 36 37  2  0
 11  7  1  0
 20 15  1  0
 26 21  1  0
 37 27  1  0
 36 30  1  0
  3 38  1  0
  4 39  1  0
  4 40  1  0
  8 41  1  0
  8 42  1  0
  9 43  1  0
  9 44  1  0
 10 45  1  0
 10 46  1  0
 11 47  1  6
 12 48  1  0
 12 49  1  0
 13 50  1  0
 14 51  1  6
 16 52  1  0
 17 53  1  0
 18 54  1  0
 19 55  1  0
 20 56  1  0
 22 57  1  0
 23 58  1  0
 25 59  1  0
 26 60  1  0
 28 61  1  0
 29 62  1  0
 31 63  1  0
 34 64  1  0
 35 65  1  0
M  END
>  <smiles>  (16) 
O=C(NCC(=O)N1CCC[C@H]1CNC(c1ccccc1)c1ccncc1)c1ccc2cc(F)ccc2n1

>  <score_type>  (16) 
oracle

>  <origin>  (16) 
autodockgpu

>  <m_score__min__energy>  (16) 
-9.6600000000000001

>  <m_primary>  (16) 
energy

>  <rmsd>  (16) 
2.6910061591090715

>  <m_score__min__rmsd>  (16) 
2.6910061591090715

>  <meeko>  (16) 
{"free_energy": -7.97, "intermolecular_energy": -10.66, "internal_energy": -4.08, "cluster_size": 24, "cluster_id": 1, "rank_in_cluster": 24}

>  <energy>  (16) 
-8.64

>  <cluster_rmsd>  (16) 
0.73

>  <cluster>  (16) 
1

$$$$

     RDKit          3D

 65 69  0  0  1  0  0  0  0  0999 V2000
  137.8270   70.2360  221.9590 O   0  0  0  0  0  0  0  0  0  0  0  0
  138.4580   70.8870  222.8250 C   0  0  0  0  0  0  0  0  0  0  0  0
  138.7380   72.2760  222.7230 N   0  0  0  0  0  0  0  0  0  0  0  0
  138.2620   72.9850  221.5340 C   0  0  0  0  0  0  0  0  0  0  0  0
  138.9290   74.2550  221.3260 C   0  0  0  0  0  0  0  0  0  0  0  0
  139.8960   74.5300  222.1430 O   0  0  0  0  0  0  0  0  0  0  0  0
  138.6760   75.2380  220.3600 N   0  0  0  0  0  0  0  0  0  0  0  0
  138.4090   74.8190  218.9450 C   0  0  0  0  0  0  0  0  0  0  0  0
  137.2200   75.7070  218.6510 C   0  0  0  0  0  0  0  0  0  0  0  0
  137.2210   76.8260  219.6670 C   0  0  0  0  0  0  0  0  0  0  0  0
  138.6080   76.6460  220.3150 C   0  0  1  0  0  0  0  0  0  0  0  0
  138.8230   77.4920  221.4670 C   0  0  0  0  0  0  0  0  0  0  0  0
  139.7090   77.1240  222.4930 N   0  0  0  0  0  0  0  0  0  0  0  0
  141.0730   77.5050  222.3160 C   0  0  2  0  0  0  0  0  0  0  0  0
  141.3520   78.8560  222.8520 C   0  0  0  0  0  0  0  0  0  0  0  0
  142.6220   79.3560  223.0490 C   0  0  0  0  0  0  0  0  0  0  0  0
  142.8620   80.6250  223.5520 C   0  0  0  0  0  0  0  0  0  0  0  0
  141.8070   81.4470  223.8780 C   0  0  0  0  0  0  0  0  0  0  0  0
  140.5190   80.9760  223.6930 C   0  0  0  0  0  0  0  0  0  0  0  0
  140.3010   79.7150  223.1930 C   0  0  0  0  0  0  0  0  0  0  0  0
  141.5380   77.3720  220.9100 C   0  0  0  0  0  0  0  0  0  0  0  0
  141.6100   78.4380  220.0350 C   0  0  0  0  0  0  0  0  0  0  0  0
  142.0610   78.1930  218.7410 C   0  0  0  0  0  0  0  0  0  0  0  0
  142.4230   76.9740  218.3240 N   0  0  0  0  0  0  0  0  0  0  0  0
  142.3560   75.9220  219.1730 C   0  0  0  0  0  0  0  0  0  0  0  0
  141.9150   76.1120  220.4680 C   0  0  0  0  0  0  0  0  0  0  0  0
  138.9450   70.1890  224.0260 C   0  0  0  0  0  0  0  0  0  0  0  0
  138.7780   68.8060  224.1450 C   0  0  0  0  0  0  0  0  0  0  0  0
  139.2270   68.1400  225.2590 C   0  0  0  0  0  0  0  0  0  0  0  0
  139.8470   68.8390  226.2700 C   0  0  0  0  0  0  0  0  0  0  0  0
  140.2890   68.1460  227.3790 C   0  0  0  0  0  0  0  0  0  0  0  0
  140.9120   68.8480  228.3920 C   0  0  0  0  0  0  0  0  0  0  0  0
  141.3310   68.1330  229.4630 F   0  0  0  0  0  0  0  0  0  0  0  0
  141.0850   70.2140  228.2920 C   0  0  0  0  0  0  0  0  0  0  0  0
  140.6370   70.9120  227.1690 C   0  0  0  0  0  0  0  0  0  0  0  0
  140.0060   70.2150  226.1360 C   0  0  0  0  0  0  0  0  0  0  0  0
  139.5530   70.8150  225.0350 N   0  0  0  0  0  0  0  0  0  0  0  0
  139.2700   72.7490  223.4870 H   0  0  0  0  0  0  0  0  0  0  0  0
  138.4367   72.3492  220.6535 H   0  0  0  0  0  0  0  0  0  0  0  0
  137.1927   73.1959  221.6831 H   0  0  0  0  0  0  0  0  0  0  0  0
  139.2600   75.0378  218.2832 H   0  0  0  0  0  0  0  0  0  0  0  0
  138.2415   73.7421  218.7958 H   0  0  0  0  0  0  0  0  0  0  0  0
  137.3043   76.1223  217.6359 H   0  0  0  0  0  0  0  0  0  0  0  0
  136.2845   75.1316  218.7120 H   0  0  0  0  0  0  0  0  0  0  0  0
  137.1275   77.8093  219.1829 H   0  0  0  0  0  0  0  0  0  0  0  0
  136.3833   76.7882  220.3790 H   0  0  0  0  0  0  0  0  0  0  0  0
  139.5015   77.0226  219.7956 H   0  0  0  0  0  0  0  0  0  0  0  0
  139.1801   78.4579  221.0803 H   0  0  0  0  0  0  0  0  0  0  0  0
  137.8470   77.4547  221.9730 H   0  0  0  0  0  0  0  0  0  0  0  0
  139.3920   77.4200  223.4340 H   0  0  0  0  0  0  0  0  0  0  0  0
  141.6592   76.7872  222.9086 H   0  0  0  0  0  0  0  0  0  0  0  0
  143.4826   78.7195  222.7957 H   0  0  0  0  0  0  0  0  0  0  0  0
  143.8955   80.9753  223.6907 H   0  0  0  0  0  0  0  0  0  0  0  0
  141.9840   82.4567  224.2771 H   0  0  0  0  0  0  0  0  0  0  0  0
  139.6622   81.6168  223.9485 H   0  0  0  0  0  0  0  0  0  0  0  0
  139.2658   79.3690  223.0561 H   0  0  0  0  0  0  0  0  0  0  0  0
  141.3196   79.4508  220.3512 H   0  0  0  0  0  0  0  0  0  0  0  0
  142.1222   79.0336  218.0342 H   0  0  0  0  0  0  0  0  0  0  0  0
  142.6519   74.9187  218.8326 H   0  0  0  0  0  0  0  0  0  0  0  0
  141.8621   75.2555  221.1561 H   0  0  0  0  0  0  0  0  0  0  0  0
  138.2822   68.2459  223.3385 H   0  0  0  0  0  0  0  0  0  0  0  0
  139.0917   67.0516  225.3431 H   0  0  0  0  0  0  0  0  0  0  0  0
  140.1480   67.0577  227.4542 H   0  0  0  0  0  0  0  0  0  0  0  0
  141.5822   70.7594  229.1076 H   0  0  0  0  0  0  0  0  0  0  0  0
  140.7795   72.0004  227.0984 H   0  0  0  0  0  0  0  0  0  0  0  0
  1  2  2  0
  2  3  1  0
  3  4  1  0
  4  5  1  0
  5  6  2  0
  5  7  1  0
  7  8  1  0
  8  9  1  0
  9 10  1  0
 10 11  1  0
 11 12  1  0
 12 13  1  0
 13 14  1  0
 14 15  1  0
 15 16  2  0
 16 17  1  0
 17 18  2  0
 18 19  1  0
 19 20  2  0
 14 21  1  0
 21 22  2  0
 22 23  1  0
 23 24  2  0
 24 25  1  0
 25 26  2  0
  2 27  1  0
 27 28  2  0
 28 29  1  0
 29 30  2  0
 30 31  1  0
 31 32  2  0
 32 33  1  0
 32 34  1  0
 34 35  2  0
 35 36  1  0
 36 37  2  0
 11  7  1  0
 20 15  1  0
 26 21  1  0
 37 27  1  0
 36 30  1  0
  3 38  1  0
  4 39  1  0
  4 40  1  0
  8 41  1  0
  8 42  1  0
  9 43  1  0
  9 44  1  0
 10 45  1  0
 10 46  1  0
 11 47  1  6
 12 48  1  0
 12 49  1  0
 13 50  1  0
 14 51  1  1
 16 52  1  0
 17 53  1  0
 18 54  1  0
 19 55  1  0
 20 56  1  0
 22 57  1  0
 23 58  1  0
 25 59  1  0
 26 60  1  0
 28 61  1  0
 29 62  1  0
 31 63  1  0
 34 64  1  0
 35 65  1  0
M  END
>  <smiles>  (17) 
O=C(NCC(=O)N1CCC[C@H]1CNC(c1ccccc1)c1ccncc1)c1ccc2cc(F)ccc2n1

>  <score_type>  (17) 
oracle

>  <origin>  (17) 
autodockgpu

>  <m_score__min__energy>  (17) 
-9.6600000000000001

>  <m_primary>  (17) 
energy

>  <rmsd>  (17) 
2.3942637732269363

>  <m_score__min__rmsd>  (17) 
2.3942637732269363

>  <meeko>  (17) 
{"free_energy": -9.09, "intermolecular_energy": -11.78, "internal_energy": -3.0, "cluster_size": 8, "cluster_id": 3, "rank_in_cluster": 4}

>  <energy>  (17) 
-8.63

>  <cluster_rmsd>  (17) 
1.63

>  <cluster>  (17) 
1

$$$$

     RDKit          3D

 65 69  0  0  1  0  0  0  0  0999 V2000
  139.3210   71.6780  220.7310 O   0  0  0  0  0  0  0  0  0  0  0  0
  140.1110   72.0010  221.6490 C   0  0  0  0  0  0  0  0  0  0  0  0
  141.1790   72.9230  221.4880 N   0  0  0  0  0  0  0  0  0  0  0  0
  141.3650   73.5310  220.1700 C   0  0  0  0  0  0  0  0  0  0  0  0
  142.5500   74.3630  220.0910 C   0  0  0  0  0  0  0  0  0  0  0  0
  143.1370   74.6240  221.2160 O   0  0  0  0  0  0  0  0  0  0  0  0
  143.1580   74.9300  218.9630 N   0  0  0  0  0  0  0  0  0  0  0  0
  143.9910   74.0620  218.0680 C   0  0  0  0  0  0  0  0  0  0  0  0
  143.4680   74.5250  216.7270 C   0  0  0  0  0  0  0  0  0  0  0  0
  142.7960   75.8630  216.9350 C   0  0  0  0  0  0  0  0  0  0  0  0
  143.2410   76.2070  218.3700 C   0  0  1  0  0  0  0  0  0  0  0  0
  142.5960   77.3820  218.9110 C   0  0  0  0  0  0  0  0  0  0  0  0
  142.4700   77.5780  220.2960 N   0  0  0  0  0  0  0  0  0  0  0  0
  141.2300   78.1210  220.7470 C   0  0  2  0  0  0  0  0  0  0  0  0
  141.4150   79.1300  221.8140 C   0  0  0  0  0  0  0  0  0  0  0  0
  142.5870   79.2900  222.5240 C   0  0  0  0  0  0  0  0  0  0  0  0
  142.7410   80.2420  223.5190 C   0  0  0  0  0  0  0  0  0  0  0  0
  141.6960   81.0800  223.8370 C   0  0  0  0  0  0  0  0  0  0  0  0
  140.5050   80.9460  223.1440 C   0  0  0  0  0  0  0  0  0  0  0  0
  140.3720   79.9960  222.1610 C   0  0  0  0  0  0  0  0  0  0  0  0
  140.2500   77.0780  221.1520 C   0  0  0  0  0  0  0  0  0  0  0  0
  140.1040   76.6430  222.4540 C   0  0  0  0  0  0  0  0  0  0  0  0
  139.1530   75.6610  222.7140 C   0  0  0  0  0  0  0  0  0  0  0  0
  138.3850   75.1330  221.7550 N   0  0  0  0  0  0  0  0  0  0  0  0
  138.5190   75.5510  220.4740 C   0  0  0  0  0  0  0  0  0  0  0  0
  139.4480   76.5240  220.1640 C   0  0  0  0  0  0  0  0  0  0  0  0
  139.9380   71.3980  222.9820 C   0  0  0  0  0  0  0  0  0  0  0  0
  139.0940   70.2950  223.1440 C   0  0  0  0  0  0  0  0  0  0  0  0
  138.9230   69.7210  224.3800 C   0  0  0  0  0  0  0  0  0  0  0  0
  139.5860   70.2350  225.4710 C   0  0  0  0  0  0  0  0  0  0  0  0
  139.3970   69.6400  226.7020 C   0  0  0  0  0  0  0  0  0  0  0  0
  140.0650   70.1560  227.7950 C   0  0  0  0  0  0  0  0  0  0  0  0
  139.8520   69.5450  228.9850 F   0  0  0  0  0  0  0  0  0  0  0  0
  140.9020   71.2440  227.6530 C   0  0  0  0  0  0  0  0  0  0  0  0
  141.0920   71.8440  226.4070 C   0  0  0  0  0  0  0  0  0  0  0  0
  140.4240   71.3330  225.2920 C   0  0  0  0  0  0  0  0  0  0  0  0
  140.5570   71.8540  224.0720 N   0  0  0  0  0  0  0  0  0  0  0  0
  141.7950   73.1410  222.3020 H   0  0  0  0  0  0  0  0  0  0  0  0
  141.4501   72.7283  219.4227 H   0  0  0  0  0  0  0  0  0  0  0  0
  140.4959   74.1782  219.9810 H   0  0  0  0  0  0  0  0  0  0  0  0
  145.0661   74.2645  218.1827 H   0  0  0  0  0  0  0  0  0  0  0  0
  143.9142   72.9809  218.2558 H   0  0  0  0  0  0  0  0  0  0  0  0
  144.3005   74.6301  216.0158 H   0  0  0  0  0  0  0  0  0  0  0  0
  142.7549   73.7944  216.3176 H   0  0  0  0  0  0  0  0  0  0  0  0
  143.1553   76.6104  216.2123 H   0  0  0  0  0  0  0  0  0  0  0  0
  141.7052   75.8450  216.7946 H   0  0  0  0  0  0  0  0  0  0  0  0
  144.2504   76.6084  218.5433 H   0  0  0  0  0  0  0  0  0  0  0  0
  143.1537   78.2478  218.5246 H   0  0  0  0  0  0  0  0  0  0  0  0
  141.5512   77.2444  218.5957 H   0  0  0  0  0  0  0  0  0  0  0  0
  142.6940   76.7320  220.8520 H   0  0  0  0  0  0  0  0  0  0  0  0
  140.7987   78.6358  219.8758 H   0  0  0  0  0  0  0  0  0  0  0  0
  143.4372   78.6325  222.2898 H   0  0  0  0  0  0  0  0  0  0  0  0
  143.6979   80.3282  224.0546 H   0  0  0  0  0  0  0  0  0  0  0  0
  141.8050   81.8398  224.6249 H   0  0  0  0  0  0  0  0  0  0  0  0
  139.6580   81.6060  223.3827 H   0  0  0  0  0  0  0  0  0  0  0  0
  139.4131   79.9131  221.6284 H   0  0  0  0  0  0  0  0  0  0  0  0
  140.7217   77.0607  223.2627 H   0  0  0  0  0  0  0  0  0  0  0  0
  139.0282   75.3056  223.7475 H   0  0  0  0  0  0  0  0  0  0  0  0
  137.8898   75.1168  219.6831 H   0  0  0  0  0  0  0  0  0  0  0  0
  139.5537   76.8637  219.1231 H   0  0  0  0  0  0  0  0  0  0  0  0
  138.5621   69.8832  222.2736 H   0  0  0  0  0  0  0  0  0  0  0  0
  138.2579   68.8528  224.4976 H   0  0  0  0  0  0  0  0  0  0  0  0
  138.7285   68.7732  226.8101 H   0  0  0  0  0  0  0  0  0  0  0  0
  141.4264   71.6438  228.5334 H   0  0  0  0  0  0  0  0  0  0  0  0
  141.7613   72.7109  226.3043 H   0  0  0  0  0  0  0  0  0  0  0  0
  1  2  2  0
  2  3  1  0
  3  4  1  0
  4  5  1  0
  5  6  2  0
  5  7  1  0
  7  8  1  0
  8  9  1  0
  9 10  1  0
 10 11  1  0
 11 12  1  0
 12 13  1  0
 13 14  1  0
 14 15  1  0
 15 16  2  0
 16 17  1  0
 17 18  2  0
 18 19  1  0
 19 20  2  0
 14 21  1  0
 21 22  2  0
 22 23  1  0
 23 24  2  0
 24 25  1  0
 25 26  2  0
  2 27  1  0
 27 28  2  0
 28 29  1  0
 29 30  2  0
 30 31  1  0
 31 32  2  0
 32 33  1  0
 32 34  1  0
 34 35  2  0
 35 36  1  0
 36 37  2  0
 11  7  1  0
 20 15  1  0
 26 21  1  0
 37 27  1  0
 36 30  1  0
  3 38  1  0
  4 39  1  0
  4 40  1  0
  8 41  1  0
  8 42  1  0
  9 43  1  0
  9 44  1  0
 10 45  1  0
 10 46  1  0
 11 47  1  6
 12 48  1  0
 12 49  1  0
 13 50  1  0
 14 51  1  6
 16 52  1  0
 17 53  1  0
 18 54  1  0
 19 55  1  0
 20 56  1  0
 22 57  1  0
 23 58  1  0
 25 59  1  0
 26 60  1  0
 28 61  1  0
 29 62  1  0
 31 63  1  0
 34 64  1  0
 35 65  1  0
M  END
>  <smiles>  (18) 
O=C(NCC(=O)N1CCC[C@H]1CNC(c1ccccc1)c1ccncc1)c1ccc2cc(F)ccc2n1

>  <score_type>  (18) 
oracle

>  <origin>  (18) 
autodockgpu

>  <m_score__min__energy>  (18) 
-9.6600000000000001

>  <m_primary>  (18) 
energy

>  <rmsd>  (18) 
2.9498998380876933

>  <m_score__min__rmsd>  (18) 
2.9498998380876933

>  <meeko>  (18) 
{"free_energy": -8.05, "intermolecular_energy": -10.73, "internal_energy": -4.28, "cluster_size": 24, "cluster_id": 1, "rank_in_cluster": 23}

>  <energy>  (18) 
-8.53

>  <cluster_rmsd>  (18) 
1.75

>  <cluster>  (18) 
1

$$$$

     RDKit          3D

 65 69  0  0  1  0  0  0  0  0999 V2000
  140.6640   71.3600  221.2980 O   0  0  0  0  0  0  0  0  0  0  0  0
  140.1480   71.8800  222.3160 C   0  0  0  0  0  0  0  0  0  0  0  0
  139.6320   73.2020  222.3550 N   0  0  0  0  0  0  0  0  0  0  0  0
  139.7090   74.0040  221.1330 C   0  0  0  0  0  0  0  0  0  0  0  0
  140.9570   74.7300  221.0080 C   0  0  0  0  0  0  0  0  0  0  0  0
  141.2780   75.4860  222.0090 O   0  0  0  0  0  0  0  0  0  0  0  0
  141.8760   74.7320  219.9490 N   0  0  0  0  0  0  0  0  0  0  0  0
  142.3770   73.4230  219.4150 C   0  0  0  0  0  0  0  0  0  0  0  0
  142.2570   73.7060  217.9350 C   0  0  0  0  0  0  0  0  0  0  0  0
  142.1790   75.2050  217.7580 C   0  0  0  0  0  0  0  0  0  0  0  0
  142.5500   75.6960  219.1720 C   0  0  1  0  0  0  0  0  0  0  0  0
  142.3870   77.1220  219.3510 C   0  0  0  0  0  0  0  0  0  0  0  0
  142.2530   77.6900  220.6280 N   0  0  0  0  0  0  0  0  0  0  0  0
  141.2010   78.6410  220.7890 C   0  0  2  0  0  0  0  0  0  0  0  0
  141.5270   79.6720  221.8000 C   0  0  0  0  0  0  0  0  0  0  0  0
  141.0990   80.9810  221.7260 C   0  0  0  0  0  0  0  0  0  0  0  0
  141.4150   81.9320  222.6830 C   0  0  0  0  0  0  0  0  0  0  0  0
  142.1890   81.5850  223.7680 C   0  0  0  0  0  0  0  0  0  0  0  0
  142.6360   80.2800  223.8720 C   0  0  0  0  0  0  0  0  0  0  0  0
  142.3120   79.3510  222.9130 C   0  0  0  0  0  0  0  0  0  0  0  0
  139.8820   78.0100  221.0630 C   0  0  0  0  0  0  0  0  0  0  0  0
  139.0420   77.5540  220.0670 C   0  0  0  0  0  0  0  0  0  0  0  0
  137.8310   76.9810  220.4430 C   0  0  0  0  0  0  0  0  0  0  0  0
  137.4600   76.8590  221.7230 N   0  0  0  0  0  0  0  0  0  0  0  0
  138.2750   77.3040  222.7080 C   0  0  0  0  0  0  0  0  0  0  0  0
  139.4880   77.8800  222.3870 C   0  0  0  0  0  0  0  0  0  0  0  0
  140.0630   71.0880  223.5550 C   0  0  0  0  0  0  0  0  0  0  0  0
  139.4930   69.8120  223.5280 C   0  0  0  0  0  0  0  0  0  0  0  0
  139.4070   69.0600  224.6740 C   0  0  0  0  0  0  0  0  0  0  0  0
  139.8850   69.5660  225.8620 C   0  0  0  0  0  0  0  0  0  0  0  0
  139.7880   68.7910  227.0000 C   0  0  0  0  0  0  0  0  0  0  0  0
  140.2680   69.2990  228.1900 C   0  0  0  0  0  0  0  0  0  0  0  0
  140.1530   68.5080  229.2830 F   0  0  0  0  0  0  0  0  0  0  0  0
  140.8350   70.5580  228.2340 C   0  0  0  0  0  0  0  0  0  0  0  0
  140.9330   71.3400  227.0820 C   0  0  0  0  0  0  0  0  0  0  0  0
  140.4510   70.8380  225.8710 C   0  0  0  0  0  0  0  0  0  0  0  0
  140.5110   71.5280  224.7320 N   0  0  0  0  0  0  0  0  0  0  0  0
  139.2170   73.5650  223.2420 H   0  0  0  0  0  0  0  0  0  0  0  0
  139.6056   73.3336  220.2670 H   0  0  0  0  0  0  0  0  0  0  0  0
  138.8996   74.7476  221.1768 H   0  0  0  0  0  0  0  0  0  0  0  0
  143.4174   73.2273  219.7139 H   0  0  0  0  0  0  0  0  0  0  0  0
  141.8390   72.5317  219.7700 H   0  0  0  0  0  0  0  0  0  0  0  0
  143.1370   73.3117  217.4057 H   0  0  0  0  0  0  0  0  0  0  0  0
  141.3595   73.2223  217.5221 H   0  0  0  0  0  0  0  0  0  0  0  0
  142.8997   75.5598  217.0065 H   0  0  0  0  0  0  0  0  0  0  0  0
  141.2046   75.5659  217.3971 H   0  0  0  0  0  0  0  0  0  0  0  0
  143.6060   75.7167  219.4794 H   0  0  0  0  0  0  0  0  0  0  0  0
  143.2674   77.5952  218.8916 H   0  0  0  0  0  0  0  0  0  0  0  0
  141.3979   77.3049  218.9057 H   0  0  0  0  0  0  0  0  0  0  0  0
  142.1940   76.9850  221.3860 H   0  0  0  0  0  0  0  0  0  0  0  0
  141.1100   79.1485  219.8173 H   0  0  0  0  0  0  0  0  0  0  0  0
  140.4792   81.2836  220.8691 H   0  0  0  0  0  0  0  0  0  0  0  0
  141.0479   82.9634  222.5762 H   0  0  0  0  0  0  0  0  0  0  0  0
  142.4463   82.3297  224.5356 H   0  0  0  0  0  0  0  0  0  0  0  0
  143.2566   79.9833  224.7304 H   0  0  0  0  0  0  0  0  0  0  0  0
  142.6819   78.3210  223.0238 H   0  0  0  0  0  0  0  0  0  0  0  0
  139.3219   77.6411  219.0068 H   0  0  0  0  0  0  0  0  0  0  0  0
  137.1529   76.6144  219.6583 H   0  0  0  0  0  0  0  0  0  0  0  0
  137.9718   77.2070  223.7609 H   0  0  0  0  0  0  0  0  0  0  0  0
  140.1490   78.2396  223.1893 H   0  0  0  0  0  0  0  0  0  0  0  0
  139.1097   69.4064  222.5801 H   0  0  0  0  0  0  0  0  0  0  0  0
  138.9576   68.0565  224.6429 H   0  0  0  0  0  0  0  0  0  0  0  0
  139.3371   67.7885  226.9592 H   0  0  0  0  0  0  0  0  0  0  0  0
  141.2143   70.9494  229.1895 H   0  0  0  0  0  0  0  0  0  0  0  0
  141.3853   72.3417  227.1274 H   0  0  0  0  0  0  0  0  0  0  0  0
  1  2  2  0
  2  3  1  0
  3  4  1  0
  4  5  1  0
  5  6  2  0
  5  7  1  0
  7  8  1  0
  8  9  1  0
  9 10  1  0
 10 11  1  0
 11 12  1  0
 12 13  1  0
 13 14  1  0
 14 15  1  0
 15 16  2  0
 16 17  1  0
 17 18  2  0
 18 19  1  0
 19 20  2  0
 14 21  1  0
 21 22  2  0
 22 23  1  0
 23 24  2  0
 24 25  1  0
 25 26  2  0
  2 27  1  0
 27 28  2  0
 28 29  1  0
 29 30  2  0
 30 31  1  0
 31 32  2  0
 32 33  1  0
 32 34  1  0
 34 35  2  0
 35 36  1  0
 36 37  2  0
 11  7  1  0
 20 15  1  0
 26 21  1  0
 37 27  1  0
 36 30  1  0
  3 38  1  0
  4 39  1  0
  4 40  1  0
  8 41  1  0
  8 42  1  0
  9 43  1  0
  9 44  1  0
 10 45  1  0
 10 46  1  0
 11 47  1  6
 12 48  1  0
 12 49  1  0
 13 50  1  0
 14 51  1  6
 16 52  1  0
 17 53  1  0
 18 54  1  0
 19 55  1  0
 20 56  1  0
 22 57  1  0
 23 58  1  0
 25 59  1  0
 26 60  1  0
 28 61  1  0
 29 62  1  0
 31 63  1  0
 34 64  1  0
 35 65  1  0
M  END
>  <smiles>  (19) 
O=C(NCC(=O)N1CCC[C@H]1CNC(c1ccccc1)c1ccncc1)c1ccc2cc(F)ccc2n1

>  <score_type>  (19) 
oracle

>  <origin>  (19) 
autodockgpu

>  <m_score__min__energy>  (19) 
-9.6600000000000001

>  <m_primary>  (19) 
energy

>  <rmsd>  (19) 
2.469024054735483

>  <m_score__min__rmsd>  (19) 
2.469024054735483

>  <meeko>  (19) 
{"free_energy": -9.39, "intermolecular_energy": -12.08, "internal_energy": -3.44, "cluster_size": 24, "cluster_id": 1, "rank_in_cluster": 6}

>  <energy>  (19) 
-8.51

>  <cluster_rmsd>  (19) 
1.75

>  <cluster>  (19) 
1

$$$$

     RDKit          3D

 65 69  0  0  1  0  0  0  0  0999 V2000
  140.2170   73.5520  222.2840 O   0  0  0  0  0  0  0  0  0  0  0  0
  140.1260   72.3040  222.1990 C   0  0  0  0  0  0  0  0  0  0  0  0
  140.1130   71.5930  220.9700 N   0  0  0  0  0  0  0  0  0  0  0  0
  140.2120   72.3660  219.7300 C   0  0  0  0  0  0  0  0  0  0  0  0
  141.5780   72.7060  219.3810 C   0  0  0  0  0  0  0  0  0  0  0  0
  142.0050   72.2500  218.2470 O   0  0  0  0  0  0  0  0  0  0  0  0
  142.5110   73.4640  220.1020 N   0  0  0  0  0  0  0  0  0  0  0  0
  143.8490   72.8650  220.4190 C   0  0  0  0  0  0  0  0  0  0  0  0
  144.7300   74.0420  220.0640 C   0  0  0  0  0  0  0  0  0  0  0  0
  143.8600   75.2790  220.0530 C   0  0  0  0  0  0  0  0  0  0  0  0
  142.5640   74.7430  220.6930 C   0  0  1  0  0  0  0  0  0  0  0  0
  141.4680   75.6850  220.6550 C   0  0  0  0  0  0  0  0  0  0  0  0
  141.0130   76.3280  221.8180 N   0  0  0  0  0  0  0  0  0  0  0  0
  140.2650   77.5280  221.6250 C   0  0  2  0  0  0  0  0  0  0  0  0
  140.8990   78.6950  222.2800 C   0  0  0  0  0  0  0  0  0  0  0  0
  140.2740   79.4730  223.2310 C   0  0  0  0  0  0  0  0  0  0  0  0
  140.8850   80.5620  223.8330 C   0  0  0  0  0  0  0  0  0  0  0  0
  142.1720   80.9070  223.4870 C   0  0  0  0  0  0  0  0  0  0  0  0
  142.8280   80.1470  222.5340 C   0  0  0  0  0  0  0  0  0  0  0  0
  142.2050   79.0710  221.9490 C   0  0  0  0  0  0  0  0  0  0  0  0
  138.8370   77.3950  222.0180 C   0  0  0  0  0  0  0  0  0  0  0  0
  137.8870   78.3600  221.7490 C   0  0  0  0  0  0  0  0  0  0  0  0
  136.5800   78.1250  222.1650 C   0  0  0  0  0  0  0  0  0  0  0  0
  136.2200   77.0090  222.8090 N   0  0  0  0  0  0  0  0  0  0  0  0
  137.1430   76.0570  223.0790 C   0  0  0  0  0  0  0  0  0  0  0  0
  138.4540   76.2410  222.6870 C   0  0  0  0  0  0  0  0  0  0  0  0
  140.0250   71.5110  223.4360 C   0  0  0  0  0  0  0  0  0  0  0  0
  139.3670   70.2790  223.4220 C   0  0  0  0  0  0  0  0  0  0  0  0
  139.2650   69.5270  224.5670 C   0  0  0  0  0  0  0  0  0  0  0  0
  139.8150   69.9900  225.7410 C   0  0  0  0  0  0  0  0  0  0  0  0
  139.6990   69.2160  226.8780 C   0  0  0  0  0  0  0  0  0  0  0  0
  140.2530   69.6820  228.0540 C   0  0  0  0  0  0  0  0  0  0  0  0
  140.1170   68.8940  229.1470 F   0  0  0  0  0  0  0  0  0  0  0  0
  140.9070   70.8980  228.0860 C   0  0  0  0  0  0  0  0  0  0  0  0
  141.0230   71.6780  226.9340 C   0  0  0  0  0  0  0  0  0  0  0  0
  140.4680   71.2200  225.7380 C   0  0  0  0  0  0  0  0  0  0  0  0
  140.5400   71.9110  224.6000 N   0  0  0  0  0  0  0  0  0  0  0  0
  140.0360   70.5520  220.9800 H   0  0  0  0  0  0  0  0  0  0  0  0
  139.7786   71.7725  218.9115 H   0  0  0  0  0  0  0  0  0  0  0  0
  139.6681   73.3093  219.8863 H   0  0  0  0  0  0  0  0  0  0  0  0
  143.9363   72.5908  221.4807 H   0  0  0  0  0  0  0  0  0  0  0  0
  144.0818   71.9266  219.8943 H   0  0  0  0  0  0  0  0  0  0  0  0
  145.5284   74.1519  220.8126 H   0  0  0  0  0  0  0  0  0  0  0  0
  145.1980   73.8907  219.0801 H   0  0  0  0  0  0  0  0  0  0  0  0
  144.3017   76.0872  220.6544 H   0  0  0  0  0  0  0  0  0  0  0  0
  143.7200   75.7222  219.0560 H   0  0  0  0  0  0  0  0  0  0  0  0
  142.5069   74.6260  221.7853 H   0  0  0  0  0  0  0  0  0  0  0  0
  141.7667   76.4809  219.9569 H   0  0  0  0  0  0  0  0  0  0  0  0
  140.6143   75.0443  220.3894 H   0  0  0  0  0  0  0  0  0  0  0  0
  140.4910   75.7000  222.4560 H   0  0  0  0  0  0  0  0  0  0  0  0
  140.2753   77.7112  220.5404 H   0  0  0  0  0  0  0  0  0  0  0  0
  139.2451   79.2184  223.5251 H   0  0  0  0  0  0  0  0  0  0  0  0
  140.3416   81.1503  224.5870 H   0  0  0  0  0  0  0  0  0  0  0  0
  142.6685   81.7683  223.9578 H   0  0  0  0  0  0  0  0  0  0  0  0
  143.8565   80.4066  222.2426 H   0  0  0  0  0  0  0  0  0  0  0  0
  142.7517   78.4856  221.1950 H   0  0  0  0  0  0  0  0  0  0  0  0
  138.1553   79.2872  221.2214 H   0  0  0  0  0  0  0  0  0  0  0  0
  135.8136   78.8859  221.9563 H   0  0  0  0  0  0  0  0  0  0  0  0
  136.8496   75.1390  223.6093 H   0  0  0  0  0  0  0  0  0  0  0  0
  139.2022   75.4653  222.9071 H   0  0  0  0  0  0  0  0  0  0  0  0
  138.9263   69.9074  222.4851 H   0  0  0  0  0  0  0  0  0  0  0  0
  138.7454   68.5577  224.5459 H   0  0  0  0  0  0  0  0  0  0  0  0
  139.1764   68.2486  226.8480 H   0  0  0  0  0  0  0  0  0  0  0  0
  141.3418   71.2563  229.0307 H   0  0  0  0  0  0  0  0  0  0  0  0
  141.5469   72.6446  226.9685 H   0  0  0  0  0  0  0  0  0  0  0  0
  1  2  2  0
  2  3  1  0
  3  4  1  0
  4  5  1  0
  5  6  2  0
  5  7  1  0
  7  8  1  0
  8  9  1  0
  9 10  1  0
 10 11  1  0
 11 12  1  0
 12 13  1  0
 13 14  1  0
 14 15  1  0
 15 16  2  0
 16 17  1  0
 17 18  2  0
 18 19  1  0
 19 20  2  0
 14 21  1  0
 21 22  2  0
 22 23  1  0
 23 24  2  0
 24 25  1  0
 25 26  2  0
  2 27  1  0
 27 28  2  0
 28 29  1  0
 29 30  2  0
 30 31  1  0
 31 32  2  0
 32 33  1  0
 32 34  1  0
 34 35  2  0
 35 36  1  0
 36 37  2  0
 11  7  1  0
 20 15  1  0
 26 21  1  0
 37 27  1  0
 36 30  1  0
  3 38  1  0
  4 39  1  0
  4 40  1  0
  8 41  1  0
  8 42  1  0
  9 43  1  0
  9 44  1  0
 10 45  1  0
 10 46  1  0
 11 47  1  1
 12 48  1  0
 12 49  1  0
 13 50  1  0
 14 51  1  6
 16 52  1  0
 17 53  1  0
 18 54  1  0
 19 55  1  0
 20 56  1  0
 22 57  1  0
 23 58  1  0
 25 59  1  0
 26 60  1  0
 28 61  1  0
 29 62  1  0
 31 63  1  0
 34 64  1  0
 35 65  1  0
M  END
>  <smiles>  (20) 
O=C(NCC(=O)N1CCC[C@H]1CNC(c1ccccc1)c1ccncc1)c1ccc2cc(F)ccc2n1

>  <score_type>  (20) 
oracle

>  <origin>  (20) 
autodockgpu

>  <m_score__min__energy>  (20) 
-9.6600000000000001

>  <m_primary>  (20) 
energy

>  <rmsd>  (20) 
3.438904274604896

>  <m_score__min__rmsd>  (20) 
3.438904274604896

>  <meeko>  (20) 
{"free_energy": -9.42, "intermolecular_energy": -12.1, "internal_energy": -2.78, "cluster_size": 24, "cluster_id": 1, "rank_in_cluster": 4}

>  <energy>  (20) 
-8.49

>  <cluster_rmsd>  (20) 
1.09

>  <cluster>  (20) 
1

$$$$

     RDKit          3D

 65 69  0  0  1  0  0  0  0  0999 V2000
  141.0880   71.6950  221.1380 O   0  0  0  0  0  0  0  0  0  0  0  0
  140.3800   72.2260  222.0270 C   0  0  0  0  0  0  0  0  0  0  0  0
  139.7650   73.4990  221.8940 N   0  0  0  0  0  0  0  0  0  0  0  0
  139.9730   74.2340  220.6450 C   0  0  0  0  0  0  0  0  0  0  0  0
  141.3240   74.7390  220.5030 C   0  0  0  0  0  0  0  0  0  0  0  0
  141.9830   74.9180  221.6030 O   0  0  0  0  0  0  0  0  0  0  0  0
  142.0260   75.0650  219.3340 N   0  0  0  0  0  0  0  0  0  0  0  0
  142.4960   73.9620  218.4330 C   0  0  0  0  0  0  0  0  0  0  0  0
  142.0840   74.5470  217.1010 C   0  0  0  0  0  0  0  0  0  0  0  0
  141.8840   76.0330  217.2950 C   0  0  0  0  0  0  0  0  0  0  0  0
  142.4830   76.2390  218.7010 C   0  0  1  0  0  0  0  0  0  0  0  0
  142.2710   77.5670  219.2320 C   0  0  0  0  0  0  0  0  0  0  0  0
  142.2170   77.8030  220.6150 N   0  0  0  0  0  0  0  0  0  0  0  0
  141.1690   78.6600  221.0680 C   0  0  2  0  0  0  0  0  0  0  0  0
  141.6170   79.5720  222.1440 C   0  0  0  0  0  0  0  0  0  0  0  0
  142.9220   79.6600  222.5820 C   0  0  0  0  0  0  0  0  0  0  0  0
  143.3210   80.5210  223.5910 C   0  0  0  0  0  0  0  0  0  0  0  0
  142.3980   81.3380  224.2040 C   0  0  0  0  0  0  0  0  0  0  0  0
  141.0800   81.2750  223.7900 C   0  0  0  0  0  0  0  0  0  0  0  0
  140.7030   80.4140  222.7870 C   0  0  0  0  0  0  0  0  0  0  0  0
  139.9400   77.9210  221.4610 C   0  0  0  0  0  0  0  0  0  0  0  0
  139.8990   77.0310  222.5160 C   0  0  0  0  0  0  0  0  0  0  0  0
  138.6900   76.3960  222.7910 C   0  0  0  0  0  0  0  0  0  0  0  0
  137.5830   76.6190  222.0740 N   0  0  0  0  0  0  0  0  0  0  0  0
  137.6120   77.4890  221.0370 C   0  0  0  0  0  0  0  0  0  0  0  0
  138.7850   78.1440  220.7240 C   0  0  0  0  0  0  0  0  0  0  0  0
  140.1600   71.5010  223.2890 C   0  0  0  0  0  0  0  0  0  0  0  0
  139.3730   70.3460  223.3030 C   0  0  0  0  0  0  0  0  0  0  0  0
  139.1600   69.6580  224.4720 C   0  0  0  0  0  0  0  0  0  0  0  0
  139.7250   70.1080  225.6430 C   0  0  0  0  0  0  0  0  0  0  0  0
  139.4950   69.3990  226.8050 C   0  0  0  0  0  0  0  0  0  0  0  0
  140.0640   69.8510  227.9800 C   0  0  0  0  0  0  0  0  0  0  0  0
  139.8150   69.1280  229.0970 F   0  0  0  0  0  0  0  0  0  0  0  0
  140.8450   70.9900  227.9850 C   0  0  0  0  0  0  0  0  0  0  0  0
  141.0760   71.7050  226.8080 C   0  0  0  0  0  0  0  0  0  0  0  0
  140.5070   71.2590  225.6130 C   0  0  0  0  0  0  0  0  0  0  0  0
  140.6840   71.8910  224.4530 N   0  0  0  0  0  0  0  0  0  0  0  0
  139.1880   73.8740  222.6800 H   0  0  0  0  0  0  0  0  0  0  0  0
  139.7604   73.5599  219.8021 H   0  0  0  0  0  0  0  0  0  0  0  0
  139.2972   75.1018  220.6576 H   0  0  0  0  0  0  0  0  0  0  0  0
  143.5838   73.8124  218.4982 H   0  0  0  0  0  0  0  0  0  0  0  0
  142.0886   72.9649  218.6563 H   0  0  0  0  0  0  0  0  0  0  0  0
  142.8715   74.3692  216.3538 H   0  0  0  0  0  0  0  0  0  0  0  0
  141.1563   74.0764  216.7434 H   0  0  0  0  0  0  0  0  0  0  0  0
  142.4283   76.6147  216.5365 H   0  0  0  0  0  0  0  0  0  0  0  0
  140.8390   76.3627  217.1984 H   0  0  0  0  0  0  0  0  0  0  0  0
  143.5746   76.2997  218.8224 H   0  0  0  0  0  0  0  0  0  0  0  0
  143.0883   78.1915  218.8421 H   0  0  0  0  0  0  0  0  0  0  0  0
  141.2415   77.7880  218.9136 H   0  0  0  0  0  0  0  0  0  0  0  0
  142.2140   76.9340  221.1800 H   0  0  0  0  0  0  0  0  0  0  0  0
  140.8983   79.2794  220.2002 H   0  0  0  0  0  0  0  0  0  0  0  0
  143.6795   79.0179  222.1090 H   0  0  0  0  0  0  0  0  0  0  0  0
  144.3755   80.5520  223.9025 H   0  0  0  0  0  0  0  0  0  0  0  0
  142.7024   82.0264  225.0062 H   0  0  0  0  0  0  0  0  0  0  0  0
  140.3270   81.9193  224.2673 H   0  0  0  0  0  0  0  0  0  0  0  0
  139.6472   80.3860  222.4795 H   0  0  0  0  0  0  0  0  0  0  0  0
  140.7949   76.8293  223.1216 H   0  0  0  0  0  0  0  0  0  0  0  0
  138.6440   75.6848  223.6289 H   0  0  0  0  0  0  0  0  0  0  0  0
  136.7028   77.6730  220.4458 H   0  0  0  0  0  0  0  0  0  0  0  0
  138.8053   78.8507  219.8813 H   0  0  0  0  0  0  0  0  0  0  0  0
  138.9197   69.9846  222.3681 H   0  0  0  0  0  0  0  0  0  0  0  0
  138.5395   68.7497  224.4723 H   0  0  0  0  0  0  0  0  0  0  0  0
  138.8715   68.4928  226.7955 H   0  0  0  0  0  0  0  0  0  0  0  0
  141.2908   71.3384  228.9283 H   0  0  0  0  0  0  0  0  0  0  0  0
  141.7001   72.6107  226.8219 H   0  0  0  0  0  0  0  0  0  0  0  0
  1  2  2  0
  2  3  1  0
  3  4  1  0
  4  5  1  0
  5  6  2  0
  5  7  1  0
  7  8  1  0
  8  9  1  0
  9 10  1  0
 10 11  1  0
 11 12  1  0
 12 13  1  0
 13 14  1  0
 14 15  1  0
 15 16  2  0
 16 17  1  0
 17 18  2  0
 18 19  1  0
 19 20  2  0
 14 21  1  0
 21 22  2  0
 22 23  1  0
 23 24  2  0
 24 25  1  0
 25 26  2  0
  2 27  1  0
 27 28  2  0
 28 29  1  0
 29 30  2  0
 30 31  1  0
 31 32  2  0
 32 33  1  0
 32 34  1  0
 34 35  2  0
 35 36  1  0
 36 37  2  0
 11  7  1  0
 20 15  1  0
 26 21  1  0
 37 27  1  0
 36 30  1  0
  3 38  1  0
  4 39  1  0
  4 40  1  0
  8 41  1  0
  8 42  1  0
  9 43  1  0
  9 44  1  0
 10 45  1  0
 10 46  1  0
 11 47  1  6
 12 48  1  0
 12 49  1  0
 13 50  1  0
 14 51  1  6
 16 52  1  0
 17 53  1  0
 18 54  1  0
 19 55  1  0
 20 56  1  0
 22 57  1  0
 23 58  1  0
 25 59  1  0
 26 60  1  0
 28 61  1  0
 29 62  1  0
 31 63  1  0
 34 64  1  0
 35 65  1  0
M  END
>  <smiles>  (21) 
O=C(NCC(=O)N1CCC[C@H]1CNC(c1ccccc1)c1ccncc1)c1ccc2cc(F)ccc2n1

>  <score_type>  (21) 
oracle

>  <origin>  (21) 
autodockgpu

>  <m_score__min__energy>  (21) 
-9.6600000000000001

>  <m_primary>  (21) 
energy

>  <rmsd>  (21) 
2.5002349278529015

>  <m_score__min__rmsd>  (21) 
2.5002349278529015

>  <meeko>  (21) 
{"free_energy": -9.17, "intermolecular_energy": -11.86, "internal_energy": -3.39, "cluster_size": 24, "cluster_id": 1, "rank_in_cluster": 8}

>  <energy>  (21) 
-8.16

>  <cluster_rmsd>  (21) 
1.24

>  <cluster>  (21) 
1

$$$$

     RDKit          3D

 65 69  0  0  1  0  0  0  0  0999 V2000
  140.1430   73.0290  222.6170 O   0  0  0  0  0  0  0  0  0  0  0  0
  139.7430   71.8570  222.8160 C   0  0  0  0  0  0  0  0  0  0  0  0
  139.0350   71.0880  221.8550 N   0  0  0  0  0  0  0  0  0  0  0  0
  138.7560   71.7030  220.5560 C   0  0  0  0  0  0  0  0  0  0  0  0
  137.4750   72.3790  220.5120 C   0  0  0  0  0  0  0  0  0  0  0  0
  136.4860   71.6930  220.0340 O   0  0  0  0  0  0  0  0  0  0  0  0
  137.1490   73.6820  220.9150 N   0  0  0  0  0  0  0  0  0  0  0  0
  135.9560   73.8960  221.7980 C   0  0  0  0  0  0  0  0  0  0  0  0
  136.5620   74.8590  222.7930 C   0  0  0  0  0  0  0  0  0  0  0  0
  137.7990   75.4540  222.1600 C   0  0  0  0  0  0  0  0  0  0  0  0
  137.6500   74.9820  220.7000 C   0  0  1  0  0  0  0  0  0  0  0  0
  138.8040   75.2670  219.8780 C   0  0  0  0  0  0  0  0  0  0  0  0
  140.0000   74.5430  220.0160 N   0  0  0  0  0  0  0  0  0  0  0  0
  141.2080   75.2990  219.9440 C   0  0  2  0  0  0  0  0  0  0  0  0
  142.4020   74.4750  220.2400 C   0  0  0  0  0  0  0  0  0  0  0  0
  143.6930   74.9600  220.2170 C   0  0  0  0  0  0  0  0  0  0  0  0
  144.7990   74.1730  220.4980 C   0  0  0  0  0  0  0  0  0  0  0  0
  144.6330   72.8440  220.8170 C   0  0  0  0  0  0  0  0  0  0  0  0
  143.3510   72.3250  220.8490 C   0  0  0  0  0  0  0  0  0  0  0  0
  142.2680   73.1220  220.5670 C   0  0  0  0  0  0  0  0  0  0  0  0
  141.1770   76.5290  220.7790 C   0  0  0  0  0  0  0  0  0  0  0  0
  141.2500   77.8020  220.2490 C   0  0  0  0  0  0  0  0  0  0  0  0
  141.2120   78.8800  221.1290 C   0  0  0  0  0  0  0  0  0  0  0  0
  141.1070   78.7240  222.4530 N   0  0  0  0  0  0  0  0  0  0  0  0
  141.0350   77.4800  222.9830 C   0  0  0  0  0  0  0  0  0  0  0  0
  141.0690   76.3770  222.1540 C   0  0  0  0  0  0  0  0  0  0  0  0
  140.0140   71.2240  224.1170 C   0  0  0  0  0  0  0  0  0  0  0  0
  140.7600   71.9060  225.0830 C   0  0  0  0  0  0  0  0  0  0  0  0
  141.0210   71.3290  226.3020 C   0  0  0  0  0  0  0  0  0  0  0  0
  140.5460   70.0670  226.5770 C   0  0  0  0  0  0  0  0  0  0  0  0
  140.8220   69.5100  227.8090 C   0  0  0  0  0  0  0  0  0  0  0  0
  140.3450   68.2430  228.0840 C   0  0  0  0  0  0  0  0  0  0  0  0
  140.6370   67.7310  229.3030 F   0  0  0  0  0  0  0  0  0  0  0  0
  139.6060   67.5550  227.1420 C   0  0  0  0  0  0  0  0  0  0  0  0
  139.3280   68.1210  225.8970 C   0  0  0  0  0  0  0  0  0  0  0  0
  139.8050   69.4010  225.6050 C   0  0  0  0  0  0  0  0  0  0  0  0
  139.5780   70.0040  224.4370 N   0  0  0  0  0  0  0  0  0  0  0  0
  138.7350   70.1170  222.0950 H   0  0  0  0  0  0  0  0  0  0  0  0
  139.5467   72.4361  220.3384 H   0  0  0  0  0  0  0  0  0  0  0  0
  138.7273   70.8956  219.8095 H   0  0  0  0  0  0  0  0  0  0  0  0
  135.1140   74.3451  221.2508 H   0  0  0  0  0  0  0  0  0  0  0  0
  135.5202   72.9834  222.2307 H   0  0  0  0  0  0  0  0  0  0  0  0
  135.8417   75.6560  223.0298 H   0  0  0  0  0  0  0  0  0  0  0  0
  136.8192   74.3377  223.7269 H   0  0  0  0  0  0  0  0  0  0  0  0
  137.7986   76.5518  222.2301 H   0  0  0  0  0  0  0  0  0  0  0  0
  138.7410   75.1472  222.6381 H   0  0  0  0  0  0  0  0  0  0  0  0
  136.9637   75.5145  220.0251 H   0  0  0  0  0  0  0  0  0  0  0  0
  138.4814   75.1374  218.8344 H   0  0  0  0  0  0  0  0  0  0  0  0
  139.0949   76.2716  220.2188 H   0  0  0  0  0  0  0  0  0  0  0  0
  140.0210   73.9460  220.8630 H   0  0  0  0  0  0  0  0  0  0  0  0
  141.2865   75.6327  218.8988 H   0  0  0  0  0  0  0  0  0  0  0  0
  143.8521   76.0187  219.9643 H   0  0  0  0  0  0  0  0  0  0  0  0
  145.8081   74.6098  220.4662 H   0  0  0  0  0  0  0  0  0  0  0  0
  145.5018   72.2079  221.0418 H   0  0  0  0  0  0  0  0  0  0  0  0
  143.1975   71.2656  221.1023 H   0  0  0  0  0  0  0  0  0  0  0  0
  141.2609   72.6807  220.5996 H   0  0  0  0  0  0  0  0  0  0  0  0
  141.3356   77.9596  219.1637 H   0  0  0  0  0  0  0  0  0  0  0  0
  141.2706   79.8993  220.7196 H   0  0  0  0  0  0  0  0  0  0  0  0
  140.9496   77.3488  224.0718 H   0  0  0  0  0  0  0  0  0  0  0  0
  141.0099   75.3677  222.5875 H   0  0  0  0  0  0  0  0  0  0  0  0
  141.1416   72.9143  224.8648 H   0  0  0  0  0  0  0  0  0  0  0  0
  141.6079   71.8740  227.0560 H   0  0  0  0  0  0  0  0  0  0  0  0
  141.4095   70.0633  228.5565 H   0  0  0  0  0  0  0  0  0  0  0  0
  139.2315   66.5475  227.3760 H   0  0  0  0  0  0  0  0  0  0  0  0
  138.7391   67.5646  225.1530 H   0  0  0  0  0  0  0  0  0  0  0  0
  1  2  2  0
  2  3  1  0
  3  4  1  0
  4  5  1  0
  5  6  2  0
  5  7  1  0
  7  8  1  0
  8  9  1  0
  9 10  1  0
 10 11  1  0
 11 12  1  0
 12 13  1  0
 13 14  1  0
 14 15  1  0
 15 16  2  0
 16 17  1  0
 17 18  2  0
 18 19  1  0
 19 20  2  0
 14 21  1  0
 21 22  2  0
 22 23  1  0
 23 24  2  0
 24 25  1  0
 25 26  2  0
  2 27  1  0
 27 28  2  0
 28 29  1  0
 29 30  2  0
 30 31  1  0
 31 32  2  0
 32 33  1  0
 32 34  1  0
 34 35  2  0
 35 36  1  0
 36 37  2  0
 11  7  1  0
 20 15  1  0
 26 21  1  0
 37 27  1  0
 36 30  1  0
  3 38  1  0
  4 39  1  0
  4 40  1  0
  8 41  1  0
  8 42  1  0
  9 43  1  0
  9 44  1  0
 10 45  1  0
 10 46  1  0
 11 47  1  6
 12 48  1  0
 12 49  1  0
 13 50  1  0
 14 51  1  6
 16 52  1  0
 17 53  1  0
 18 54  1  0
 19 55  1  0
 20 56  1  0
 22 57  1  0
 23 58  1  0
 25 59  1  0
 26 60  1  0
 28 61  1  0
 29 62  1  0
 31 63  1  0
 34 64  1  0
 35 65  1  0
M  END
>  <smiles>  (22) 
O=C(NCC(=O)N1CCC[C@H]1CNC(c1ccccc1)c1ccncc1)c1ccc2cc(F)ccc2n1

>  <score_type>  (22) 
oracle

>  <origin>  (22) 
autodockgpu

>  <m_score__min__energy>  (22) 
-9.6600000000000001

>  <m_primary>  (22) 
energy

>  <rmsd>  (22) 
5.4196523307234

>  <m_score__min__rmsd>  (22) 
5.4196523307234

>  <meeko>  (22) 
{"free_energy": -7.6, "intermolecular_energy": -10.29, "internal_energy": -4.18, "cluster_size": 6, "cluster_id": 5, "rank_in_cluster": 6}

>  <energy>  (22) 
-8.05

>  <cluster_rmsd>  (22) 
1.85

>  <cluster>  (22) 
1

$$$$

     RDKit          3D

 65 69  0  0  1  0  0  0  0  0999 V2000
  139.8240   70.9830  221.3920 O   0  0  0  0  0  0  0  0  0  0  0  0
  139.7640   71.5720  222.4970 C   0  0  0  0  0  0  0  0  0  0  0  0
  139.6680   72.9820  222.6390 N   0  0  0  0  0  0  0  0  0  0  0  0
  139.6370   73.7930  221.4200 C   0  0  0  0  0  0  0  0  0  0  0  0
  140.8720   74.5150  221.1880 C   0  0  0  0  0  0  0  0  0  0  0  0
  141.1060   75.5110  221.9820 O   0  0  0  0  0  0  0  0  0  0  0  0
  141.8580   74.2900  220.2180 N   0  0  0  0  0  0  0  0  0  0  0  0
  142.3650   72.8940  220.0030 C   0  0  0  0  0  0  0  0  0  0  0  0
  142.3490   72.8620  218.4920 C   0  0  0  0  0  0  0  0  0  0  0  0
  142.3150   74.2930  218.0030 C   0  0  0  0  0  0  0  0  0  0  0  0
  142.6030   75.0650  219.3060 C   0  0  1  0  0  0  0  0  0  0  0  0
  142.4600   76.4970  219.1730 C   0  0  0  0  0  0  0  0  0  0  0  0
  142.5310   77.3480  220.2880 N   0  0  0  0  0  0  0  0  0  0  0  0
  141.4910   78.3170  220.4120 C   0  0  2  0  0  0  0  0  0  0  0  0
  141.4590   79.2540  219.2660 C   0  0  0  0  0  0  0  0  0  0  0  0
  142.5800   79.6540  218.5710 C   0  0  0  0  0  0  0  0  0  0  0  0
  142.5290   80.5330  217.5000 C   0  0  0  0  0  0  0  0  0  0  0  0
  141.3200   81.0460  217.0890 C   0  0  0  0  0  0  0  0  0  0  0  0
  140.1740   80.6660  217.7650 C   0  0  0  0  0  0  0  0  0  0  0  0
  140.2450   79.7940  218.8250 C   0  0  0  0  0  0  0  0  0  0  0  0
  141.5230   79.0450  221.7080 C   0  0  0  0  0  0  0  0  0  0  0  0
  142.5290   79.9260  222.0540 C   0  0  0  0  0  0  0  0  0  0  0  0
  142.4530   80.5510  223.2960 C   0  0  0  0  0  0  0  0  0  0  0  0
  141.4500   80.3280  224.1520 N   0  0  0  0  0  0  0  0  0  0  0  0
  140.4590   79.4670  223.8230 C   0  0  0  0  0  0  0  0  0  0  0  0
  140.4870   78.8210  222.6030 C   0  0  0  0  0  0  0  0  0  0  0  0
  139.7950   70.7720  223.7330 C   0  0  0  0  0  0  0  0  0  0  0  0
  139.2520   69.4840  223.7430 C   0  0  0  0  0  0  0  0  0  0  0  0
  139.2730   68.7250  224.8870 C   0  0  0  0  0  0  0  0  0  0  0  0
  139.8330   69.2350  226.0360 C   0  0  0  0  0  0  0  0  0  0  0  0
  139.8420   68.4520  227.1730 C   0  0  0  0  0  0  0  0  0  0  0  0
  140.4060   68.9640  228.3250 C   0  0  0  0  0  0  0  0  0  0  0  0
  140.3940   68.1650  229.4180 F   0  0  0  0  0  0  0  0  0  0  0  0
  140.9470   70.2350  228.3330 C   0  0  0  0  0  0  0  0  0  0  0  0
  140.9370   71.0240  227.1820 C   0  0  0  0  0  0  0  0  0  0  0  0
  140.3710   70.5190  226.0090 C   0  0  0  0  0  0  0  0  0  0  0  0
  140.3260   71.2160  224.8730 N   0  0  0  0  0  0  0  0  0  0  0  0
  139.6220   73.3990  223.5950 H   0  0  0  0  0  0  0  0  0  0  0  0
  139.4526   73.1295  220.5623 H   0  0  0  0  0  0  0  0  0  0  0  0
  138.8379   74.5391  221.5417 H   0  0  0  0  0  0  0  0  0  0  0  0
  143.3790   72.7574  220.4070 H   0  0  0  0  0  0  0  0  0  0  0  0
  141.7854   72.1006  220.4975 H   0  0  0  0  0  0  0  0  0  0  0  0
  143.2533   72.3595  218.1182 H   0  0  0  0  0  0  0  0  0  0  0  0
  141.4710   72.3088  218.1273 H   0  0  0  0  0  0  0  0  0  0  0  0
  143.0908   74.4781  217.2455 H   0  0  0  0  0  0  0  0  0  0  0  0
  141.3742   74.5779  217.5094 H   0  0  0  0  0  0  0  0  0  0  0  0
  143.6367   75.1408  219.6745 H   0  0  0  0  0  0  0  0  0  0  0  0
  143.2501   76.8249  218.4815 H   0  0  0  0  0  0  0  0  0  0  0  0
  141.4102   76.6020  218.8618 H   0  0  0  0  0  0  0  0  0  0  0  0
  142.6310   76.8400  221.1860 H   0  0  0  0  0  0  0  0  0  0  0  0
  140.5513   77.7453  220.3981 H   0  0  0  0  0  0  0  0  0  0  0  0
  143.5588   79.2582  218.8798 H   0  0  0  0  0  0  0  0  0  0  0  0
  143.4543   80.8201  216.9791 H   0  0  0  0  0  0  0  0  0  0  0  0
  141.2657   81.7439  216.2405 H   0  0  0  0  0  0  0  0  0  0  0  0
  139.1981   81.0651  217.4514 H   0  0  0  0  0  0  0  0  0  0  0  0
  139.3173   79.5111  219.3440 H   0  0  0  0  0  0  0  0  0  0  0  0
  143.3654   80.1279  221.3687 H   0  0  0  0  0  0  0  0  0  0  0  0
  143.2479   81.2547  223.5839 H   0  0  0  0  0  0  0  0  0  0  0  0
  139.6332   79.2823  224.5258 H   0  0  0  0  0  0  0  0  0  0  0  0
  139.6800   78.1220  222.3382 H   0  0  0  0  0  0  0  0  0  0  0  0
  138.8036   69.0746  222.8257 H   0  0  0  0  0  0  0  0  0  0  0  0
  138.8435   67.7123  224.8851 H   0  0  0  0  0  0  0  0  0  0  0  0
  139.4088   67.4410  227.1616 H   0  0  0  0  0  0  0  0  0  0  0  0
  141.3914   70.6302  229.2584 H   0  0  0  0  0  0  0  0  0  0  0  0
  141.3710   72.0347  227.1983 H   0  0  0  0  0  0  0  0  0  0  0  0
  1  2  2  0
  2  3  1  0
  3  4  1  0
  4  5  1  0
  5  6  2  0
  5  7  1  0
  7  8  1  0
  8  9  1  0
  9 10  1  0
 10 11  1  0
 11 12  1  0
 12 13  1  0
 13 14  1  0
 14 15  1  0
 15 16  2  0
 16 17  1  0
 17 18  2  0
 18 19  1  0
 19 20  2  0
 14 21  1  0
 21 22  2  0
 22 23  1  0
 23 24  2  0
 24 25  1  0
 25 26  2  0
  2 27  1  0
 27 28  2  0
 28 29  1  0
 29 30  2  0
 30 31  1  0
 31 32  2  0
 32 33  1  0
 32 34  1  0
 34 35  2  0
 35 36  1  0
 36 37  2  0
 11  7  1  0
 20 15  1  0
 26 21  1  0
 37 27  1  0
 36 30  1  0
  3 38  1  0
  4 39  1  0
  4 40  1  0
  8 41  1  0
  8 42  1  0
  9 43  1  0
  9 44  1  0
 10 45  1  0
 10 46  1  0
 11 47  1  1
 12 48  1  0
 12 49  1  0
 13 50  1  0
 14 51  1  1
 16 52  1  0
 17 53  1  0
 18 54  1  0
 19 55  1  0
 20 56  1  0
 22 57  1  0
 23 58  1  0
 25 59  1  0
 26 60  1  0
 28 61  1  0
 29 62  1  0
 31 63  1  0
 34 64  1  0
 35 65  1  0
M  END
>  <smiles>  (23) 
O=C(NCC(=O)N1CCC[C@H]1CNC(c1ccccc1)c1ccncc1)c1ccc2cc(F)ccc2n1

>  <score_type>  (23) 
oracle

>  <origin>  (23) 
autodockgpu

>  <m_score__min__energy>  (23) 
-9.6600000000000001

>  <m_primary>  (23) 
energy

>  <rmsd>  (23) 
2.618085468347674

>  <m_score__min__rmsd>  (23) 
2.618085468347674

>  <meeko>  (23) 
{"free_energy": -8.91, "intermolecular_energy": -11.59, "internal_energy": -3.04, "cluster_size": 4, "cluster_id": 2, "rank_in_cluster": 4}

>  <energy>  (23) 
-8.05

>  <cluster_rmsd>  (23) 
1.85

>  <cluster>  (23) 
1

$$$$

     RDKit          3D

 65 69  0  0  1  0  0  0  0  0999 V2000
  139.3500   70.6780  221.2710 O   0  0  0  0  0  0  0  0  0  0  0  0
  139.1650   71.4480  222.2430 C   0  0  0  0  0  0  0  0  0  0  0  0
  138.5570   72.7270  222.1360 N   0  0  0  0  0  0  0  0  0  0  0  0
  138.1220   73.1700  220.8100 C   0  0  0  0  0  0  0  0  0  0  0  0
  137.5480   74.5010  220.8160 C   0  0  0  0  0  0  0  0  0  0  0  0
  137.8930   75.2730  219.8350 O   0  0  0  0  0  0  0  0  0  0  0  0
  136.6670   75.0780  221.7410 N   0  0  0  0  0  0  0  0  0  0  0  0
  135.6080   74.2240  222.3720 C   0  0  0  0  0  0  0  0  0  0  0  0
  135.7550   74.6770  223.8060 C   0  0  0  0  0  0  0  0  0  0  0  0
  136.4800   76.0040  223.7960 C   0  0  0  0  0  0  0  0  0  0  0  0
  136.4470   76.3560  222.2950 C   0  0  1  0  0  0  0  0  0  0  0  0
  137.2340   77.5200  221.9550 C   0  0  0  0  0  0  0  0  0  0  0  0
  138.4850   77.4020  221.3290 N   0  0  0  0  0  0  0  0  0  0  0  0
  139.5910   77.0960  222.1780 C   0  0  2  0  0  0  0  0  0  0  0  0
  140.2350   78.3140  222.7200 C   0  0  0  0  0  0  0  0  0  0  0  0
  141.4710   78.3210  223.3300 C   0  0  0  0  0  0  0  0  0  0  0  0
  142.0580   79.4730  223.8310 C   0  0  0  0  0  0  0  0  0  0  0  0
  141.4010   80.6790  223.7290 C   0  0  0  0  0  0  0  0  0  0  0  0
  140.1580   80.7070  223.1230 C   0  0  0  0  0  0  0  0  0  0  0  0
  139.5930   79.5540  222.6330 C   0  0  0  0  0  0  0  0  0  0  0  0
  140.5860   76.1950  221.5390 C   0  0  0  0  0  0  0  0  0  0  0  0
  140.7180   74.8610  221.8700 C   0  0  0  0  0  0  0  0  0  0  0  0
  141.6850   74.1130  221.2040 C   0  0  0  0  0  0  0  0  0  0  0  0
  142.4800   74.6400  220.2660 N   0  0  0  0  0  0  0  0  0  0  0  0
  142.3590   75.9470  219.9340 C   0  0  0  0  0  0  0  0  0  0  0  0
  141.4150   76.7310  220.5650 C   0  0  0  0  0  0  0  0  0  0  0  0
  139.5970   71.0190  223.5840 C   0  0  0  0  0  0  0  0  0  0  0  0
  140.3430   71.8860  224.3870 C   0  0  0  0  0  0  0  0  0  0  0  0
  140.7530   71.5010  225.6400 C   0  0  0  0  0  0  0  0  0  0  0  0
  140.4280   70.2490  226.1120 C   0  0  0  0  0  0  0  0  0  0  0  0
  140.8510   69.8860  227.3740 C   0  0  0  0  0  0  0  0  0  0  0  0
  140.5230   68.6300  227.8460 C   0  0  0  0  0  0  0  0  0  0  0  0
  140.9570   68.3110  229.0890 F   0  0  0  0  0  0  0  0  0  0  0  0
  139.7860   67.7610  227.0660 C   0  0  0  0  0  0  0  0  0  0  0  0
  139.3590   68.1310  225.7900 C   0  0  0  0  0  0  0  0  0  0  0  0
  139.6830   69.3980  225.3000 C   0  0  0  0  0  0  0  0  0  0  0  0
  139.3090   69.8190  224.0910 N   0  0  0  0  0  0  0  0  0  0  0  0
  138.4370   73.3110  222.9930 H   0  0  0  0  0  0  0  0  0  0  0  0
  138.9919   73.1668  220.1368 H   0  0  0  0  0  0  0  0  0  0  0  0
  137.3381   72.4759  220.4727 H   0  0  0  0  0  0  0  0  0  0  0  0
  134.6079   74.4451  221.9710 H   0  0  0  0  0  0  0  0  0  0  0  0
  135.7149   73.1418  222.2065 H   0  0  0  0  0  0  0  0  0  0  0  0
  134.7625   74.7956  224.2652 H   0  0  0  0  0  0  0  0  0  0  0  0
  136.3187   73.9340  224.3893 H   0  0  0  0  0  0  0  0  0  0  0  0
  135.9499   76.7569  224.3978 H   0  0  0  0  0  0  0  0  0  0  0  0
  137.4911   75.9678  224.2278 H   0  0  0  0  0  0  0  0  0  0  0  0
  135.5294   76.7747  221.8560 H   0  0  0  0  0  0  0  0  0  0  0  0
  136.6097   78.1327  221.2880 H   0  0  0  0  0  0  0  0  0  0  0  0
  137.5011   77.9219  222.9435 H   0  0  0  0  0  0  0  0  0  0  0  0
  138.4810   76.7460  220.5260 H   0  0  0  0  0  0  0  0  0  0  0  0
  139.1662   76.5403  223.0270 H   0  0  0  0  0  0  0  0  0  0  0  0
  142.0161   77.3702  223.4236 H   0  0  0  0  0  0  0  0  0  0  0  0
  143.0473   79.4236  224.3093 H   0  0  0  0  0  0  0  0  0  0  0  0
  141.8553   81.6008  224.1213 H   0  0  0  0  0  0  0  0  0  0  0  0
  139.6170   81.6605  223.0325 H   0  0  0  0  0  0  0  0  0  0  0  0
  138.6030   79.6079  222.1565 H   0  0  0  0  0  0  0  0  0  0  0  0
  140.0775   74.4025  222.6378 H   0  0  0  0  0  0  0  0  0  0  0  0
  141.7996   73.0490  221.4585 H   0  0  0  0  0  0  0  0  0  0  0  0
  143.0116   76.3828  219.1632 H   0  0  0  0  0  0  0  0  0  0  0  0
  141.3190   77.7924  220.2926 H   0  0  0  0  0  0  0  0  0  0  0  0
  140.6044   72.8865  224.0119 H   0  0  0  0  0  0  0  0  0  0  0  0
  141.3394   72.1909  226.2647 H   0  0  0  0  0  0  0  0  0  0  0  0
  141.4373   70.5824  227.9915 H   0  0  0  0  0  0  0  0  0  0  0  0
  139.5322   66.7641  227.4555 H   0  0  0  0  0  0  0  0  0  0  0  0
  138.7728   67.4314  225.1760 H   0  0  0  0  0  0  0  0  0  0  0  0
  1  2  2  0
  2  3  1  0
  3  4  1  0
  4  5  1  0
  5  6  2  0
  5  7  1  0
  7  8  1  0
  8  9  1  0
  9 10  1  0
 10 11  1  0
 11 12  1  0
 12 13  1  0
 13 14  1  0
 14 15  1  0
 15 16  2  0
 16 17  1  0
 17 18  2  0
 18 19  1  0
 19 20  2  0
 14 21  1  0
 21 22  2  0
 22 23  1  0
 23 24  2  0
 24 25  1  0
 25 26  2  0
  2 27  1  0
 27 28  2  0
 28 29  1  0
 29 30  2  0
 30 31  1  0
 31 32  2  0
 32 33  1  0
 32 34  1  0
 34 35  2  0
 35 36  1  0
 36 37  2  0
 11  7  1  0
 20 15  1  0
 26 21  1  0
 37 27  1  0
 36 30  1  0
  3 38  1  0
  4 39  1  0
  4 40  1  0
  8 41  1  0
  8 42  1  0
  9 43  1  0
  9 44  1  0
 10 45  1  0
 10 46  1  0
 11 47  1  6
 12 48  1  0
 12 49  1  0
 13 50  1  0
 14 51  1  1
 16 52  1  0
 17 53  1  0
 18 54  1  0
 19 55  1  0
 20 56  1  0
 22 57  1  0
 23 58  1  0
 25 59  1  0
 26 60  1  0
 28 61  1  0
 29 62  1  0
 31 63  1  0
 34 64  1  0
 35 65  1  0
M  END
>  <smiles>  (24) 
O=C(NCC(=O)N1CCC[C@H]1CNC(c1ccccc1)c1ccncc1)c1ccc2cc(F)ccc2n1

>  <score_type>  (24) 
oracle

>  <origin>  (24) 
autodockgpu

>  <m_score__min__energy>  (24) 
-9.6600000000000001

>  <m_primary>  (24) 
energy

>  <rmsd>  (24) 
4.2021405734138355

>  <m_score__min__rmsd>  (24) 
4.2021405734138355

>  <meeko>  (24) 
{"free_energy": -8.41, "intermolecular_energy": -11.09, "internal_energy": -3.48, "cluster_size": 6, "cluster_id": 5, "rank_in_cluster": 3}

>  <energy>  (24) 
-7.97

>  <cluster_rmsd>  (24) 
1.7

>  <cluster>  (24) 
1

$$$$

     RDKit          3D

 65 69  0  0  1  0  0  0  0  0999 V2000
  138.9060   70.9470  221.5330 O   0  0  0  0  0  0  0  0  0  0  0  0
  139.3220   71.4690  222.5940 C   0  0  0  0  0  0  0  0  0  0  0  0
  139.6080   72.8530  222.7370 N   0  0  0  0  0  0  0  0  0  0  0  0
  139.4050   73.7180  221.5740 C   0  0  0  0  0  0  0  0  0  0  0  0
  138.8480   75.0110  221.9200 C   0  0  0  0  0  0  0  0  0  0  0  0
  139.7020   75.9670  222.1020 O   0  0  0  0  0  0  0  0  0  0  0  0
  137.5060   75.3790  222.0870 N   0  0  0  0  0  0  0  0  0  0  0  0
  136.4940   74.3200  222.4100 C   0  0  0  0  0  0  0  0  0  0  0  0
  135.7400   75.0340  223.5090 C   0  0  0  0  0  0  0  0  0  0  0  0
  136.0420   76.5100  223.3880 C   0  0  0  0  0  0  0  0  0  0  0  0
  136.7460   76.5640  222.0170 C   0  0  1  0  0  0  0  0  0  0  0  0
  137.3120   77.8580  221.7070 C   0  0  0  0  0  0  0  0  0  0  0  0
  138.5680   78.2460  222.2020 N   0  0  0  0  0  0  0  0  0  0  0  0
  138.7570   79.6440  222.4180 C   0  0  2  0  0  0  0  0  0  0  0  0
  140.1370   79.9640  222.8450 C   0  0  0  0  0  0  0  0  0  0  0  0
  140.7070   81.2140  222.7270 C   0  0  0  0  0  0  0  0  0  0  0  0
  142.0020   81.4930  223.1330 C   0  0  0  0  0  0  0  0  0  0  0  0
  142.7800   80.4990  223.6830 C   0  0  0  0  0  0  0  0  0  0  0  0
  142.2400   79.2320  223.8140 C   0  0  0  0  0  0  0  0  0  0  0  0
  140.9530   78.9750  223.4060 C   0  0  0  0  0  0  0  0  0  0  0  0
  137.7530   80.2320  223.3440 C   0  0  0  0  0  0  0  0  0  0  0  0
  136.4540   80.5130  222.9690 C   0  0  0  0  0  0  0  0  0  0  0  0
  135.6020   81.0630  223.9230 C   0  0  0  0  0  0  0  0  0  0  0  0
  135.9960   81.3240  225.1740 N   0  0  0  0  0  0  0  0  0  0  0  0
  137.2680   81.0530  225.5520 C   0  0  0  0  0  0  0  0  0  0  0  0
  138.1520   80.5070  224.6440 C   0  0  0  0  0  0  0  0  0  0  0  0
  139.5330   70.6130  223.7740 C   0  0  0  0  0  0  0  0  0  0  0  0
  139.1510   69.2690  223.7370 C   0  0  0  0  0  0  0  0  0  0  0  0
  139.3420   68.4570  224.8290 C   0  0  0  0  0  0  0  0  0  0  0  0
  139.9130   68.9700  225.9710 C   0  0  0  0  0  0  0  0  0  0  0  0
  140.0930   68.1340  227.0540 C   0  0  0  0  0  0  0  0  0  0  0  0
  140.6680   68.6500  228.2000 C   0  0  0  0  0  0  0  0  0  0  0  0
  140.8270   67.7980  229.2400 F   0  0  0  0  0  0  0  0  0  0  0  0
  141.0510   69.9750  228.2530 C   0  0  0  0  0  0  0  0  0  0  0  0
  140.8680   70.8190  227.1560 C   0  0  0  0  0  0  0  0  0  0  0  0
  140.2880   70.3100  225.9920 C   0  0  0  0  0  0  0  0  0  0  0  0
  140.0830   71.0570  224.9060 N   0  0  0  0  0  0  0  0  0  0  0  0
  139.9510   73.2130  223.6550 H   0  0  0  0  0  0  0  0  0  0  0  0
  140.3754   73.8751  221.0804 H   0  0  0  0  0  0  0  0  0  0  0  0
  138.6841   73.2157  220.9122 H   0  0  0  0  0  0  0  0  0  0  0  0
  135.8484   74.0913  221.5493 H   0  0  0  0  0  0  0  0  0  0  0  0
  136.9094   73.3390  222.6840 H   0  0  0  0  0  0  0  0  0  0  0  0
  134.6595   74.8619  223.3952 H   0  0  0  0  0  0  0  0  0  0  0  0
  136.0475   74.6570  224.4956 H   0  0  0  0  0  0  0  0  0  0  0  0
  135.1207   77.1110  223.3913 H   0  0  0  0  0  0  0  0  0  0  0  0
  136.6396   76.9166  224.2172 H   0  0  0  0  0  0  0  0  0  0  0  0
  136.1437   76.5397  221.0969 H   0  0  0  0  0  0  0  0  0  0  0  0
  137.3799   77.9127  220.6105 H   0  0  0  0  0  0  0  0  0  0  0  0
  136.6293   78.5461  222.2271 H   0  0  0  0  0  0  0  0  0  0  0  0
  138.8510   77.7290  223.0540 H   0  0  0  0  0  0  0  0  0  0  0  0
  138.5958   80.1181  221.4386 H   0  0  0  0  0  0  0  0  0  0  0  0
  140.1067   82.0261  222.2910 H   0  0  0  0  0  0  0  0  0  0  0  0
  142.4085   82.5084  223.0159 H   0  0  0  0  0  0  0  0  0  0  0  0
  143.8089   80.7078  224.0112 H   0  0  0  0  0  0  0  0  0  0  0  0
  142.8460   78.4233  224.2485 H   0  0  0  0  0  0  0  0  0  0  0  0
  140.5509   77.9580  223.5244 H   0  0  0  0  0  0  0  0  0  0  0  0
  136.1028   80.3084  221.9469 H   0  0  0  0  0  0  0  0  0  0  0  0
  134.5648   81.2917  223.6367 H   0  0  0  0  0  0  0  0  0  0  0  0
  137.5955   81.2676  226.5800 H   0  0  0  0  0  0  0  0  0  0  0  0
  139.1842   80.2874  224.9542 H   0  0  0  0  0  0  0  0  0  0  0  0
  138.6933   68.8575  222.8253 H   0  0  0  0  0  0  0  0  0  0  0  0
  139.0394   67.4002  224.7903 H   0  0  0  0  0  0  0  0  0  0  0  0
  139.7853   67.0790  227.0062 H   0  0  0  0  0  0  0  0  0  0  0  0
  141.5067   70.3715  229.1723 H   0  0  0  0  0  0  0  0  0  0  0  0
  141.1773   71.8733  227.2080 H   0  0  0  0  0  0  0  0  0  0  0  0
  1  2  2  0
  2  3  1  0
  3  4  1  0
  4  5  1  0
  5  6  2  0
  5  7  1  0
  7  8  1  0
  8  9  1  0
  9 10  1  0
 10 11  1  0
 11 12  1  0
 12 13  1  0
 13 14  1  0
 14 15  1  0
 15 16  2  0
 16 17  1  0
 17 18  2  0
 18 19  1  0
 19 20  2  0
 14 21  1  0
 21 22  2  0
 22 23  1  0
 23 24  2  0
 24 25  1  0
 25 26  2  0
  2 27  1  0
 27 28  2  0
 28 29  1  0
 29 30  2  0
 30 31  1  0
 31 32  2  0
 32 33  1  0
 32 34  1  0
 34 35  2  0
 35 36  1  0
 36 37  2  0
 11  7  1  0
 20 15  1  0
 26 21  1  0
 37 27  1  0
 36 30  1  0
  3 38  1  0
  4 39  1  0
  4 40  1  0
  8 41  1  0
  8 42  1  0
  9 43  1  0
  9 44  1  0
 10 45  1  0
 10 46  1  0
 11 47  1  6
 12 48  1  0
 12 49  1  0
 13 50  1  0
 14 51  1  6
 16 52  1  0
 17 53  1  0
 18 54  1  0
 19 55  1  0
 20 56  1  0
 22 57  1  0
 23 58  1  0
 25 59  1  0
 26 60  1  0
 28 61  1  0
 29 62  1  0
 31 63  1  0
 34 64  1  0
 35 65  1  0
M  END
>  <smiles>  (25) 
O=C(NCC(=O)N1CCC[C@H]1CNC(c1ccccc1)c1ccncc1)c1ccc2cc(F)ccc2n1

>  <score_type>  (25) 
oracle

>  <origin>  (25) 
autodockgpu

>  <m_score__min__energy>  (25) 
-9.6600000000000001

>  <m_primary>  (25) 
energy

>  <rmsd>  (25) 
3.660808484867135

>  <m_score__min__rmsd>  (25) 
3.660808484867135

>  <meeko>  (25) 
{"free_energy": -9.03, "intermolecular_energy": -11.71, "internal_energy": -2.93, "cluster_size": 2, "cluster_id": 4, "rank_in_cluster": 2}

>  <energy>  (25) 
-9.64

>  <cluster_rmsd>  (25) 
0.0

>  <cluster>  (25) 
2

$$$$

     RDKit          3D

 65 69  0  0  1  0  0  0  0  0999 V2000
  140.3260   72.9610  222.7320 O   0  0  0  0  0  0  0  0  0  0  0  0
  140.1070   71.7370  222.8910 C   0  0  0  0  0  0  0  0  0  0  0  0
  139.6380   70.8760  221.8640 N   0  0  0  0  0  0  0  0  0  0  0  0
  139.3970   71.4560  220.5410 C   0  0  0  0  0  0  0  0  0  0  0  0
  138.0670   72.0180  220.4030 C   0  0  0  0  0  0  0  0  0  0  0  0
  137.0840   71.1800  220.4970 O   0  0  0  0  0  0  0  0  0  0  0  0
  137.6900   73.3490  220.1790 N   0  0  0  0  0  0  0  0  0  0  0  0
  136.3190   73.7980  220.5900 C   0  0  0  0  0  0  0  0  0  0  0  0
  136.6830   75.1080  221.2520 C   0  0  0  0  0  0  0  0  0  0  0  0
  138.0580   75.5030  220.7610 C   0  0  0  0  0  0  0  0  0  0  0  0
  138.2680   74.5010  219.6080 C   0  0  1  0  0  0  0  0  0  0  0  0
  139.6010   74.5330  219.0490 C   0  0  0  0  0  0  0  0  0  0  0  0
  140.7100   74.0650  219.7720 N   0  0  0  0  0  0  0  0  0  0  0  0
  141.8390   74.9360  219.8310 C   0  0  2  0  0  0  0  0  0  0  0  0
  143.0830   74.2170  220.1870 C   0  0  0  0  0  0  0  0  0  0  0  0
  144.3280   74.8100  220.2220 C   0  0  0  0  0  0  0  0  0  0  0  0
  145.4810   74.1190  220.5590 C   0  0  0  0  0  0  0  0  0  0  0  0
  145.4140   72.7810  220.8770 C   0  0  0  0  0  0  0  0  0  0  0  0
  144.1810   72.1560  220.8500 C   0  0  0  0  0  0  0  0  0  0  0  0
  143.0480   72.8570  220.5140 C   0  0  0  0  0  0  0  0  0  0  0  0
  141.6220   76.1140  220.7120 C   0  0  0  0  0  0  0  0  0  0  0  0
  141.0650   76.0210  221.9720 C   0  0  0  0  0  0  0  0  0  0  0  0
  140.9090   77.1930  222.7070 C   0  0  0  0  0  0  0  0  0  0  0  0
  141.2780   78.3900  222.2380 N   0  0  0  0  0  0  0  0  0  0  0  0
  141.8250   78.4930  221.0040 C   0  0  0  0  0  0  0  0  0  0  0  0
  142.0010   77.3600  220.2340 C   0  0  0  0  0  0  0  0  0  0  0  0
  140.3440   71.1370  224.2150 C   0  0  0  0  0  0  0  0  0  0  0  0
  140.8680   71.9170  225.2500 C   0  0  0  0  0  0  0  0  0  0  0  0
  141.0950   71.3730  226.4900 C   0  0  0  0  0  0  0  0  0  0  0  0
  140.8050   70.0470  226.7190 C   0  0  0  0  0  0  0  0  0  0  0  0
  141.0420   69.5240  227.9740 C   0  0  0  0  0  0  0  0  0  0  0  0
  140.7500   68.1930  228.2030 C   0  0  0  0  0  0  0  0  0  0  0  0
  140.9970   67.7180  229.4460 F   0  0  0  0  0  0  0  0  0  0  0  0
  140.2320   67.4080  227.1920 C   0  0  0  0  0  0  0  0  0  0  0  0
  139.9930   67.9400  225.9230 C   0  0  0  0  0  0  0  0  0  0  0  0
  140.2830   69.2840  225.6780 C   0  0  0  0  0  0  0  0  0  0  0  0
  140.0810   69.8590  224.4920 N   0  0  0  0  0  0  0  0  0  0  0  0
  139.4800   69.8660  222.0740 H   0  0  0  0  0  0  0  0  0  0  0  0
  140.1344   72.2537  220.3682 H   0  0  0  0  0  0  0  0  0  0  0  0
  139.4899   70.6448  219.8039 H   0  0  0  0  0  0  0  0  0  0  0  0
  135.6568   73.9443  219.7239 H   0  0  0  0  0  0  0  0  0  0  0  0
  135.7604   73.0904  221.2203 H   0  0  0  0  0  0  0  0  0  0  0  0
  135.9507   75.8822  220.9791 H   0  0  0  0  0  0  0  0  0  0  0  0
  136.6801   75.0011  222.3468 H   0  0  0  0  0  0  0  0  0  0  0  0
  138.0731   76.5417  220.3993 H   0  0  0  0  0  0  0  0  0  0  0  0
  138.8391   75.4687  221.5348 H   0  0  0  0  0  0  0  0  0  0  0  0
  137.7905   74.6855  218.6344 H   0  0  0  0  0  0  0  0  0  0  0  0
  139.5631   73.9425  218.1217 H   0  0  0  0  0  0  0  0  0  0  0  0
  139.8025   75.6121  218.9782 H   0  0  0  0  0  0  0  0  0  0  0  0
  140.4720   73.7510  220.7300 H   0  0  0  0  0  0  0  0  0  0  0  0
  141.9636   75.3275  218.8106 H   0  0  0  0  0  0  0  0  0  0  0  0
  144.4091   75.8780  219.9715 H   0  0  0  0  0  0  0  0  0  0  0  0
  146.4499   74.6396  220.5725 H   0  0  0  0  0  0  0  0  0  0  0  0
  146.3218   72.2214  221.1467 H   0  0  0  0  0  0  0  0  0  0  0  0
  144.1064   71.0874  221.0999 H   0  0  0  0  0  0  0  0  0  0  0  0
  142.0816   72.3317  220.5017 H   0  0  0  0  0  0  0  0  0  0  0  0
  140.7536   75.0493  222.3830 H   0  0  0  0  0  0  0  0  0  0  0  0
  140.4654   77.1323  223.7117 H   0  0  0  0  0  0  0  0  0  0  0  0
  142.1285   79.4764  220.6156 H   0  0  0  0  0  0  0  0  0  0  0  0
  142.4461   77.4464  219.2318 H   0  0  0  0  0  0  0  0  0  0  0  0
  141.1007   72.9768  225.0692 H   0  0  0  0  0  0  0  0  0  0  0  0
  141.5074   71.9950  227.2981 H   0  0  0  0  0  0  0  0  0  0  0  0
  141.4550   70.1539  228.7757 H   0  0  0  0  0  0  0  0  0  0  0  0
  140.0046   66.3499  227.3887 H   0  0  0  0  0  0  0  0  0  0  0  0
  139.5803   67.3065  225.1241 H   0  0  0  0  0  0  0  0  0  0  0  0
  1  2  2  0
  2  3  1  0
  3  4  1  0
  4  5  1  0
  5  6  2  0
  5  7  1  0
  7  8  1  0
  8  9  1  0
  9 10  1  0
 10 11  1  0
 11 12  1  0
 12 13  1  0
 13 14  1  0
 14 15  1  0
 15 16  2  0
 16 17  1  0
 17 18  2  0
 18 19  1  0
 19 20  2  0
 14 21  1  0
 21 22  2  0
 22 23  1  0
 23 24  2  0
 24 25  1  0
 25 26  2  0
  2 27  1  0
 27 28  2  0
 28 29  1  0
 29 30  2  0
 30 31  1  0
 31 32  2  0
 32 33  1  0
 32 34  1  0
 34 35  2  0
 35 36  1  0
 36 37  2  0
 11  7  1  0
 20 15  1  0
 26 21  1  0
 37 27  1  0
 36 30  1  0
  3 38  1  0
  4 39  1  0
  4 40  1  0
  8 41  1  0
  8 42  1  0
  9 43  1  0
  9 44  1  0
 10 45  1  0
 10 46  1  0
 11 47  1  6
 12 48  1  0
 12 49  1  0
 13 50  1  0
 14 51  1  6
 16 52  1  0
 17 53  1  0
 18 54  1  0
 19 55  1  0
 20 56  1  0
 22 57  1  0
 23 58  1  0
 25 59  1  0
 26 60  1  0
 28 61  1  0
 29 62  1  0
 31 63  1  0
 34 64  1  0
 35 65  1  0
M  END
>  <smiles>  (26) 
O=C(NCC(=O)N1CCC[C@H]1CNC(c1ccccc1)c1ccncc1)c1ccc2cc(F)ccc2n1

>  <score_type>  (26) 
oracle

>  <origin>  (26) 
autodockgpu

>  <m_score__min__energy>  (26) 
-9.6600000000000001

>  <m_primary>  (26) 
energy

>  <rmsd>  (26) 
5.437688333812666

>  <m_score__min__rmsd>  (26) 
5.437688333812666

>  <meeko>  (26) 
{"free_energy": -7.81, "intermolecular_energy": -10.49, "internal_energy": -3.98, "cluster_size": 6, "cluster_id": 5, "rank_in_cluster": 5}

>  <energy>  (26) 
-9.27

>  <cluster_rmsd>  (26) 
1.99

>  <cluster>  (26) 
2

$$$$

     RDKit          3D

 65 69  0  0  1  0  0  0  0  0999 V2000
  141.3120   71.8160  221.5940 O   0  0  0  0  0  0  0  0  0  0  0  0
  140.4070   72.1730  222.3850 C   0  0  0  0  0  0  0  0  0  0  0  0
  139.5590   73.2910  222.1660 N   0  0  0  0  0  0  0  0  0  0  0  0
  139.7550   74.0700  220.9420 C   0  0  0  0  0  0  0  0  0  0  0  0
  141.0540   74.7100  220.8800 C   0  0  0  0  0  0  0  0  0  0  0  0
  141.4500   75.2990  221.9630 O   0  0  0  0  0  0  0  0  0  0  0  0
  141.9510   74.7840  219.8050 N   0  0  0  0  0  0  0  0  0  0  0  0
  142.5310   73.5180  219.2490 C   0  0  0  0  0  0  0  0  0  0  0  0
  142.3650   73.8030  217.7740 C   0  0  0  0  0  0  0  0  0  0  0  0
  142.1810   75.2960  217.6140 C   0  0  0  0  0  0  0  0  0  0  0  0
  142.5430   75.7990  219.0260 C   0  0  1  0  0  0  0  0  0  0  0  0
  142.2860   77.2080  219.2210 C   0  0  0  0  0  0  0  0  0  0  0  0
  142.2620   77.7780  220.5040 N   0  0  0  0  0  0  0  0  0  0  0  0
  141.1990   78.6930  220.7700 C   0  0  2  0  0  0  0  0  0  0  0  0
  141.5510   79.6720  221.8220 C   0  0  0  0  0  0  0  0  0  0  0  0
  142.3640   79.3820  222.8980 C   0  0  0  0  0  0  0  0  0  0  0  0
  142.6830   80.3130  223.8740 C   0  0  0  0  0  0  0  0  0  0  0  0
  142.1810   81.5930  223.7930 C   0  0  0  0  0  0  0  0  0  0  0  0
  141.3610   81.9170  222.7270 C   0  0  0  0  0  0  0  0  0  0  0  0
  141.0570   80.9790  221.7700 C   0  0  0  0  0  0  0  0  0  0  0  0
  139.9090   78.0160  221.0680 C   0  0  0  0  0  0  0  0  0  0  0  0
  138.9780   77.7040  220.0960 C   0  0  0  0  0  0  0  0  0  0  0  0
  137.8050   77.0700  220.4940 C   0  0  0  0  0  0  0  0  0  0  0  0
  137.5530   76.7580  221.7700 N   0  0  0  0  0  0  0  0  0  0  0  0
  138.4580   77.0600  222.7310 C   0  0  0  0  0  0  0  0  0  0  0  0
  139.6380   77.6890  222.3890 C   0  0  0  0  0  0  0  0  0  0  0  0
  140.1970   71.4010  223.6210 C   0  0  0  0  0  0  0  0  0  0  0  0
  139.5050   70.1870  223.5750 C   0  0  0  0  0  0  0  0  0  0  0  0
  139.3010   69.4540  224.7180 C   0  0  0  0  0  0  0  0  0  0  0  0
  139.7800   69.9170  225.9220 C   0  0  0  0  0  0  0  0  0  0  0  0
  139.5620   69.1620  227.0570 C   0  0  0  0  0  0  0  0  0  0  0  0
  140.0440   69.6280  228.2650 C   0  0  0  0  0  0  0  0  0  0  0  0
  139.8090   68.8580  229.3540 F   0  0  0  0  0  0  0  0  0  0  0  0
  140.7300   70.8250  228.3280 C   0  0  0  0  0  0  0  0  0  0  0  0
  140.9490   71.5860  227.1790 C   0  0  0  0  0  0  0  0  0  0  0  0
  140.4670   71.1270  225.9510 C   0  0  0  0  0  0  0  0  0  0  0  0
  140.6400   71.8010  224.8140 N   0  0  0  0  0  0  0  0  0  0  0  0
  138.8260   73.5250  222.8730 H   0  0  0  0  0  0  0  0  0  0  0  0
  139.6544   73.3966  220.0780 H   0  0  0  0  0  0  0  0  0  0  0  0
  138.9954   74.8656  220.9331 H   0  0  0  0  0  0  0  0  0  0  0  0
  143.5877   73.3924  219.5275 H   0  0  0  0  0  0  0  0  0  0  0  0
  142.0618   72.5889  219.6049 H   0  0  0  0  0  0  0  0  0  0  0  0
  143.2602   73.4746  217.2255 H   0  0  0  0  0  0  0  0  0  0  0  0
  141.4962   73.2616  217.3715 H   0  0  0  0  0  0  0  0  0  0  0  0
  142.8619   75.7063  216.8537 H   0  0  0  0  0  0  0  0  0  0  0  0
  141.1775   75.5920  217.2742 H   0  0  0  0  0  0  0  0  0  0  0  0
  143.6002   75.8897  219.3159 H   0  0  0  0  0  0  0  0  0  0  0  0
  143.0618   77.7461  218.6566 H   0  0  0  0  0  0  0  0  0  0  0  0
  141.2384   77.3043  218.8995 H   0  0  0  0  0  0  0  0  0  0  0  0
  142.3050   77.0760  221.2660 H   0  0  0  0  0  0  0  0  0  0  0  0
  141.0507   79.2533  219.8351 H   0  0  0  0  0  0  0  0  0  0  0  0
  142.7776   78.3665  222.9853 H   0  0  0  0  0  0  0  0  0  0  0  0
  143.3364   80.0299  224.7124 H   0  0  0  0  0  0  0  0  0  0  0  0
  142.4270   82.3421  224.5600 H   0  0  0  0  0  0  0  0  0  0  0  0
  140.9490   82.9336  222.6448 H   0  0  0  0  0  0  0  0  0  0  0  0
  140.4023   81.2663  220.9340 H   0  0  0  0  0  0  0  0  0  0  0  0
  139.1586   77.9495  219.0391 H   0  0  0  0  0  0  0  0  0  0  0  0
  137.0560   76.8156  219.7297 H   0  0  0  0  0  0  0  0  0  0  0  0
  138.2533   76.8047  223.7812 H   0  0  0  0  0  0  0  0  0  0  0  0
  140.3712   77.9336  223.1717 H   0  0  0  0  0  0  0  0  0  0  0  0
  139.1203   69.8155  222.6138 H   0  0  0  0  0  0  0  0  0  0  0  0
  138.7563   68.4995  224.6713 H   0  0  0  0  0  0  0  0  0  0  0  0
  139.0157   68.2089  227.0007 H   0  0  0  0  0  0  0  0  0  0  0  0
  141.1087   71.1832  229.2966 H   0  0  0  0  0  0  0  0  0  0  0  0
  141.4961   72.5384  227.2398 H   0  0  0  0  0  0  0  0  0  0  0  0
  1  2  2  0
  2  3  1  0
  3  4  1  0
  4  5  1  0
  5  6  2  0
  5  7  1  0
  7  8  1  0
  8  9  1  0
  9 10  1  0
 10 11  1  0
 11 12  1  0
 12 13  1  0
 13 14  1  0
 14 15  1  0
 15 16  2  0
 16 17  1  0
 17 18  2  0
 18 19  1  0
 19 20  2  0
 14 21  1  0
 21 22  2  0
 22 23  1  0
 23 24  2  0
 24 25  1  0
 25 26  2  0
  2 27  1  0
 27 28  2  0
 28 29  1  0
 29 30  2  0
 30 31  1  0
 31 32  2  0
 32 33  1  0
 32 34  1  0
 34 35  2  0
 35 36  1  0
 36 37  2  0
 11  7  1  0
 20 15  1  0
 26 21  1  0
 37 27  1  0
 36 30  1  0
  3 38  1  0
  4 39  1  0
  4 40  1  0
  8 41  1  0
  8 42  1  0
  9 43  1  0
  9 44  1  0
 10 45  1  0
 10 46  1  0
 11 47  1  6
 12 48  1  0
 12 49  1  0
 13 50  1  0
 14 51  1  6
 16 52  1  0
 17 53  1  0
 18 54  1  0
 19 55  1  0
 20 56  1  0
 22 57  1  0
 23 58  1  0
 25 59  1  0
 26 60  1  0
 28 61  1  0
 29 62  1  0
 31 63  1  0
 34 64  1  0
 35 65  1  0
M  END
>  <smiles>  (27) 
O=C(NCC(=O)N1CCC[C@H]1CNC(c1ccccc1)c1ccncc1)c1ccc2cc(F)ccc2n1

>  <score_type>  (27) 
oracle

>  <origin>  (27) 
autodockgpu

>  <m_score__min__energy>  (27) 
-9.6600000000000001

>  <m_primary>  (27) 
energy

>  <rmsd>  (27) 
2.580274400816449

>  <m_score__min__rmsd>  (27) 
2.580274400816449

>  <meeko>  (27) 
{"free_energy": -9.48, "intermolecular_energy": -12.16, "internal_energy": -3.42, "cluster_size": 24, "cluster_id": 1, "rank_in_cluster": 3}

>  <energy>  (27) 
-9.13

>  <cluster_rmsd>  (27) 
0.95

>  <cluster>  (27) 
2

$$$$

     RDKit          3D

 65 69  0  0  1  0  0  0  0  0999 V2000
  141.1190   73.7060  222.0340 O   0  0  0  0  0  0  0  0  0  0  0  0
  139.9500   73.3450  222.3140 C   0  0  0  0  0  0  0  0  0  0  0  0
  138.7880   74.0790  221.9580 N   0  0  0  0  0  0  0  0  0  0  0  0
  138.9680   75.3310  221.2210 C   0  0  0  0  0  0  0  0  0  0  0  0
  139.0620   76.4910  222.0860 C   0  0  0  0  0  0  0  0  0  0  0  0
  138.3310   76.4630  223.1540 O   0  0  0  0  0  0  0  0  0  0  0  0
  139.8380   77.6480  221.9310 N   0  0  0  0  0  0  0  0  0  0  0  0
  139.3960   78.9170  222.5970 C   0  0  0  0  0  0  0  0  0  0  0  0
  140.7230   79.3650  223.1670 C   0  0  0  0  0  0  0  0  0  0  0  0
  141.8140   78.6340  222.4170 C   0  0  0  0  0  0  0  0  0  0  0  0
  141.0180   78.0140  221.2520 C   0  0  1  0  0  0  0  0  0  0  0  0
  141.7920   77.0970  220.4450 C   0  0  0  0  0  0  0  0  0  0  0  0
  141.8040   75.7180  220.7100 N   0  0  0  0  0  0  0  0  0  0  0  0
  142.2100   74.8720  219.6350 C   0  0  2  0  0  0  0  0  0  0  0  0
  143.4740   74.1600  219.9300 C   0  0  0  0  0  0  0  0  0  0  0  0
  144.5900   74.7670  220.4660 C   0  0  0  0  0  0  0  0  0  0  0  0
  145.7640   74.0830  220.7350 C   0  0  0  0  0  0  0  0  0  0  0  0
  145.8530   72.7350  220.4650 C   0  0  0  0  0  0  0  0  0  0  0  0
  144.7520   72.0950  219.9250 C   0  0  0  0  0  0  0  0  0  0  0  0
  143.5960   72.7910  219.6660 C   0  0  0  0  0  0  0  0  0  0  0  0
  142.2780   75.5790  218.3290 C   0  0  0  0  0  0  0  0  0  0  0  0
  141.1650   75.8430  217.5550 C   0  0  0  0  0  0  0  0  0  0  0  0
  141.3510   76.5130  216.3490 C   0  0  0  0  0  0  0  0  0  0  0  0
  142.5570   76.9060  215.9230 N   0  0  0  0  0  0  0  0  0  0  0  0
  143.6540   76.6520  216.6730 C   0  0  0  0  0  0  0  0  0  0  0  0
  143.5240   75.9900  217.8780 C   0  0  0  0  0  0  0  0  0  0  0  0
  139.7520   72.0890  223.0560 C   0  0  0  0  0  0  0  0  0  0  0  0
  138.8080   71.1590  222.6110 C   0  0  0  0  0  0  0  0  0  0  0  0
  138.6110   69.9820  223.2910 C   0  0  0  0  0  0  0  0  0  0  0  0
  139.3480   69.7140  224.4220 C   0  0  0  0  0  0  0  0  0  0  0  0
  139.1320   68.5240  225.0880 C   0  0  0  0  0  0  0  0  0  0  0  0
  139.8730   68.2560  226.2220 C   0  0  0  0  0  0  0  0  0  0  0  0
  139.6310   67.0790  226.8460 F   0  0  0  0  0  0  0  0  0  0  0  0
  140.8100   69.1640  226.6750 C   0  0  0  0  0  0  0  0  0  0  0  0
  141.0270   70.3660  226.0000 C   0  0  0  0  0  0  0  0  0  0  0  0
  140.2850   70.6500  224.8520 C   0  0  0  0  0  0  0  0  0  0  0  0
  140.4390   71.7770  224.1560 N   0  0  0  0  0  0  0  0  0  0  0  0
  137.8480   73.7130  222.2270 H   0  0  0  0  0  0  0  0  0  0  0  0
  139.8927   75.2594  220.6295 H   0  0  0  0  0  0  0  0  0  0  0  0
  138.0816   75.4674  220.5841 H   0  0  0  0  0  0  0  0  0  0  0  0
  138.9923   79.6420  221.8749 H   0  0  0  0  0  0  0  0  0  0  0  0
  138.5819   78.8066  223.3285 H   0  0  0  0  0  0  0  0  0  0  0  0
  140.8403   80.4508  223.0353 H   0  0  0  0  0  0  0  0  0  0  0  0
  140.7767   79.1402  224.2425 H   0  0  0  0  0  0  0  0  0  0  0  0
  142.5862   79.3276  222.0527 H   0  0  0  0  0  0  0  0  0  0  0  0
  142.3654   77.9019  223.0252 H   0  0  0  0  0  0  0  0  0  0  0  0
  140.7452   78.6385  220.3885 H   0  0  0  0  0  0  0  0  0  0  0  0
  141.4311   77.2116  219.4122 H   0  0  0  0  0  0  0  0  0  0  0  0
  142.8260   77.3918  220.6774 H   0  0  0  0  0  0  0  0  0  0  0  0
  142.3400   75.4690  221.5610 H   0  0  0  0  0  0  0  0  0  0  0  0
  141.4176   74.1151  219.5395 H   0  0  0  0  0  0  0  0  0  0  0  0
  144.5460   75.8430  220.6901 H   0  0  0  0  0  0  0  0  0  0  0  0
  146.6252   74.6161  221.1642 H   0  0  0  0  0  0  0  0  0  0  0  0
  146.7793   72.1798  220.6742 H   0  0  0  0  0  0  0  0  0  0  0  0
  144.8024   71.0192  219.7009 H   0  0  0  0  0  0  0  0  0  0  0  0
  142.7373   72.2540  219.2366 H   0  0  0  0  0  0  0  0  0  0  0  0
  140.1614   75.5331  217.8818 H   0  0  0  0  0  0  0  0  0  0  0  0
  140.4729   76.7276  215.7222 H   0  0  0  0  0  0  0  0  0  0  0  0
  144.6469   76.9719  216.3239 H   0  0  0  0  0  0  0  0  0  0  0  0
  144.4175   75.7865  218.4865 H   0  0  0  0  0  0  0  0  0  0  0  0
  138.2174   71.3718  221.7077 H   0  0  0  0  0  0  0  0  0  0  0  0
  137.8665   69.2558  222.9328 H   0  0  0  0  0  0  0  0  0  0  0  0
  138.3848   67.8041  224.7227 H   0  0  0  0  0  0  0  0  0  0  0  0
  141.3929   68.9367  227.5798 H   0  0  0  0  0  0  0  0  0  0  0  0
  141.7754   71.0828  226.3689 H   0  0  0  0  0  0  0  0  0  0  0  0
  1  2  2  0
  2  3  1  0
  3  4  1  0
  4  5  1  0
  5  6  2  0
  5  7  1  0
  7  8  1  0
  8  9  1  0
  9 10  1  0
 10 11  1  0
 11 12  1  0
 12 13  1  0
 13 14  1  0
 14 15  1  0
 15 16  2  0
 16 17  1  0
 17 18  2  0
 18 19  1  0
 19 20  2  0
 14 21  1  0
 21 22  2  0
 22 23  1  0
 23 24  2  0
 24 25  1  0
 25 26  2  0
  2 27  1  0
 27 28  2  0
 28 29  1  0
 29 30  2  0
 30 31  1  0
 31 32  2  0
 32 33  1  0
 32 34  1  0
 34 35  2  0
 35 36  1  0
 36 37  2  0
 11  7  1  0
 20 15  1  0
 26 21  1  0
 37 27  1  0
 36 30  1  0
  3 38  1  0
  4 39  1  0
  4 40  1  0
  8 41  1  0
  8 42  1  0
  9 43  1  0
  9 44  1  0
 10 45  1  0
 10 46  1  0
 11 47  1  6
 12 48  1  0
 12 49  1  0
 13 50  1  0
 14 51  1  6
 16 52  1  0
 17 53  1  0
 18 54  1  0
 19 55  1  0
 20 56  1  0
 22 57  1  0
 23 58  1  0
 25 59  1  0
 26 60  1  0
 28 61  1  0
 29 62  1  0
 31 63  1  0
 34 64  1  0
 35 65  1  0
M  END
>  <smiles>  (28) 
O=C(NCC(=O)N1CCC[C@H]1CNC(c1ccccc1)c1ccncc1)c1ccc2cc(F)ccc2n1

>  <score_type>  (28) 
oracle

>  <origin>  (28) 
autodockgpu

>  <m_score__min__energy>  (28) 
-9.6600000000000001

>  <m_primary>  (28) 
energy

>  <rmsd>  (28) 
5.363466799158389

>  <m_score__min__rmsd>  (28) 
5.363466799158389

>  <meeko>  (28) 
{"free_energy": -8.81, "intermolecular_energy": -11.49, "internal_energy": -2.95, "cluster_size": 2, "cluster_id": 6, "rank_in_cluster": 1}

>  <energy>  (28) 
-8.91

>  <cluster_rmsd>  (28) 
1.2

>  <cluster>  (28) 
2

$$$$

     RDKit          3D

 65 69  0  0  1  0  0  0  0  0999 V2000
  141.4230   72.1170  221.6050 O   0  0  0  0  0  0  0  0  0  0  0  0
  140.5410   72.4240  222.4420 C   0  0  0  0  0  0  0  0  0  0  0  0
  139.7110   73.5700  222.3320 N   0  0  0  0  0  0  0  0  0  0  0  0
  139.8980   74.4430  221.1720 C   0  0  0  0  0  0  0  0  0  0  0  0
  141.0470   75.3180  221.3000 C   0  0  0  0  0  0  0  0  0  0  0  0
  141.0660   76.0820  222.3460 O   0  0  0  0  0  0  0  0  0  0  0  0
  142.1490   75.4580  220.4460 N   0  0  0  0  0  0  0  0  0  0  0  0
  143.2800   74.4770  220.5470 C   0  0  0  0  0  0  0  0  0  0  0  0
  143.4970   74.2070  219.0750 C   0  0  0  0  0  0  0  0  0  0  0  0
  142.8610   75.3400  218.3020 C   0  0  0  0  0  0  0  0  0  0  0  0
  142.5610   76.3460  219.4320 C   0  0  1  0  0  0  0  0  0  0  0  0
  141.7780   77.4830  219.0010 C   0  0  0  0  0  0  0  0  0  0  0  0
  142.2110   78.8000  219.2290 N   0  0  0  0  0  0  0  0  0  0  0  0
  141.2970   79.6550  219.9140 C   0  0  2  0  0  0  0  0  0  0  0  0
  141.3630   81.0510  219.4270 C   0  0  0  0  0  0  0  0  0  0  0  0
  140.6840   82.1010  220.0100 C   0  0  0  0  0  0  0  0  0  0  0  0
  140.7600   83.4020  219.5390 C   0  0  0  0  0  0  0  0  0  0  0  0
  141.5390   83.6920  218.4420 C   0  0  0  0  0  0  0  0  0  0  0  0
  142.2340   82.6620  217.8320 C   0  0  0  0  0  0  0  0  0  0  0  0
  142.1460   81.3780  218.3140 C   0  0  0  0  0  0  0  0  0  0  0  0
  141.4330   79.5900  221.3940 C   0  0  0  0  0  0  0  0  0  0  0  0
  142.5730   79.9850  222.0640 C   0  0  0  0  0  0  0  0  0  0  0  0
  142.5870   79.8780  223.4520 C   0  0  0  0  0  0  0  0  0  0  0  0
  141.5430   79.4120  224.1470 N   0  0  0  0  0  0  0  0  0  0  0  0
  140.4200   79.0210  223.5000 C   0  0  0  0  0  0  0  0  0  0  0  0
  140.3560   79.1070  222.1240 C   0  0  0  0  0  0  0  0  0  0  0  0
  140.3400   71.5570  223.6150 C   0  0  0  0  0  0  0  0  0  0  0  0
  139.6700   70.3390  223.4750 C   0  0  0  0  0  0  0  0  0  0  0  0
  139.4750   69.5190  224.5590 C   0  0  0  0  0  0  0  0  0  0  0  0
  139.9420   69.8980  225.7970 C   0  0  0  0  0  0  0  0  0  0  0  0
  139.7340   69.0560  226.8710 C   0  0  0  0  0  0  0  0  0  0  0  0
  140.2040   69.4380  228.1120 C   0  0  0  0  0  0  0  0  0  0  0  0
  139.9790   68.5850  229.1400 F   0  0  0  0  0  0  0  0  0  0  0  0
  140.8690   70.6380  228.2690 C   0  0  0  0  0  0  0  0  0  0  0  0
  141.0790   71.4870  227.1810 C   0  0  0  0  0  0  0  0  0  0  0  0
  140.6090   71.1140  225.9200 C   0  0  0  0  0  0  0  0  0  0  0  0
  140.7730   71.8750  224.8370 N   0  0  0  0  0  0  0  0  0  0  0  0
  138.9970   73.7590  223.0710 H   0  0  0  0  0  0  0  0  0  0  0  0
  140.0335   73.8150  220.2791 H   0  0  0  0  0  0  0  0  0  0  0  0
  139.0057   75.0815  221.0938 H   0  0  0  0  0  0  0  0  0  0  0  0
  144.1688   74.9205  221.0197 H   0  0  0  0  0  0  0  0  0  0  0  0
  143.0801   73.5890  221.1647 H   0  0  0  0  0  0  0  0  0  0  0  0
  144.5742   74.1628  218.8569 H   0  0  0  0  0  0  0  0  0  0  0  0
  143.0471   73.2448  218.7890 H   0  0  0  0  0  0  0  0  0  0  0  0
  143.5560   75.7620  217.5612 H   0  0  0  0  0  0  0  0  0  0  0  0
  141.9784   75.0453  217.7152 H   0  0  0  0  0  0  0  0  0  0  0  0
  143.3721   76.9755  219.8269 H   0  0  0  0  0  0  0  0  0  0  0  0
  141.6547   77.3806  217.9127 H   0  0  0  0  0  0  0  0  0  0  0  0
  140.8860   77.4127  219.6409 H   0  0  0  0  0  0  0  0  0  0  0  0
  143.1370   78.8530  219.6910 H   0  0  0  0  0  0  0  0  0  0  0  0
  140.2956   79.2678  219.6746 H   0  0  0  0  0  0  0  0  0  0  0  0
  140.0540   81.8962  220.8882 H   0  0  0  0  0  0  0  0  0  0  0  0
  140.1979   84.2028  220.0417 H   0  0  0  0  0  0  0  0  0  0  0  0
  141.6078   84.7205  218.0581 H   0  0  0  0  0  0  0  0  0  0  0  0
  142.8621   82.8730  216.9540 H   0  0  0  0  0  0  0  0  0  0  0  0
  142.7099   80.5805  217.8080 H   0  0  0  0  0  0  0  0  0  0  0  0
  143.4451   80.3731  221.5173 H   0  0  0  0  0  0  0  0  0  0  0  0
  143.4903   80.1882  223.9978 H   0  0  0  0  0  0  0  0  0  0  0  0
  139.5611   78.6359  224.0692 H   0  0  0  0  0  0  0  0  0  0  0  0
  139.4421   78.7895  221.6006 H   0  0  0  0  0  0  0  0  0  0  0  0
  139.2951   70.0340  222.4869 H   0  0  0  0  0  0  0  0  0  0  0  0
  138.9469   68.5616  224.4383 H   0  0  0  0  0  0  0  0  0  0  0  0
  139.2048   68.1005  226.7409 H   0  0  0  0  0  0  0  0  0  0  0  0
  141.2378   70.9285  229.2638 H   0  0  0  0  0  0  0  0  0  0  0  0
  141.6098   72.4410  227.3157 H   0  0  0  0  0  0  0  0  0  0  0  0
  1  2  2  0
  2  3  1  0
  3  4  1  0
  4  5  1  0
  5  6  2  0
  5  7  1  0
  7  8  1  0
  8  9  1  0
  9 10  1  0
 10 11  1  0
 11 12  1  0
 12 13  1  0
 13 14  1  0
 14 15  1  0
 15 16  2  0
 16 17  1  0
 17 18  2  0
 18 19  1  0
 19 20  2  0
 14 21  1  0
 21 22  2  0
 22 23  1  0
 23 24  2  0
 24 25  1  0
 25 26  2  0
  2 27  1  0
 27 28  2  0
 28 29  1  0
 29 30  2  0
 30 31  1  0
 31 32  2  0
 32 33  1  0
 32 34  1  0
 34 35  2  0
 35 36  1  0
 36 37  2  0
 11  7  1  0
 20 15  1  0
 26 21  1  0
 37 27  1  0
 36 30  1  0
  3 38  1  0
  4 39  1  0
  4 40  1  0
  8 41  1  0
  8 42  1  0
  9 43  1  0
  9 44  1  0
 10 45  1  0
 10 46  1  0
 11 47  1  1
 12 48  1  0
 12 49  1  0
 13 50  1  0
 14 51  1  1
 16 52  1  0
 17 53  1  0
 18 54  1  0
 19 55  1  0
 20 56  1  0
 22 57  1  0
 23 58  1  0
 25 59  1  0
 26 60  1  0
 28 61  1  0
 29 62  1  0
 31 63  1  0
 34 64  1  0
 35 65  1  0
M  END
>  <smiles>  (29) 
O=C(NCC(=O)N1CCC[C@H]1CNC(c1ccccc1)c1ccncc1)c1ccc2cc(F)ccc2n1

>  <score_type>  (29) 
oracle

>  <origin>  (29) 
autodockgpu

>  <m_score__min__energy>  (29) 
-9.6600000000000001

>  <m_primary>  (29) 
energy

>  <rmsd>  (29) 
2.7542392791815704

>  <m_score__min__rmsd>  (29) 
2.7542392791815704

>  <meeko>  (29) 
{"free_energy": -9.64, "intermolecular_energy": -12.32, "internal_energy": -2.41, "cluster_size": 4, "cluster_id": 2, "rank_in_cluster": 1}

>  <energy>  (29) 
-9.59

>  <cluster_rmsd>  (29) 
0.0

>  <cluster>  (29) 
3

$$$$

     RDKit          3D

 65 69  0  0  1  0  0  0  0  0999 V2000
  141.3500   72.0090  222.3220 O   0  0  0  0  0  0  0  0  0  0  0  0
  140.3520   71.9270  223.0770 C   0  0  0  0  0  0  0  0  0  0  0  0
  139.0710   72.4480  222.7550 N   0  0  0  0  0  0  0  0  0  0  0  0
  138.9100   73.1220  221.4650 C   0  0  0  0  0  0  0  0  0  0  0  0
  139.3410   74.5060  221.4900 C   0  0  0  0  0  0  0  0  0  0  0  0
  140.6150   74.7060  221.3780 O   0  0  0  0  0  0  0  0  0  0  0  0
  138.5690   75.6690  221.6200 N   0  0  0  0  0  0  0  0  0  0  0  0
  137.0830   75.5830  221.4430 C   0  0  0  0  0  0  0  0  0  0  0  0
  136.6500   76.4160  222.6280 C   0  0  0  0  0  0  0  0  0  0  0  0
  137.8330   77.2540  223.0560 C   0  0  0  0  0  0  0  0  0  0  0  0
  138.8020   77.0360  221.8760 C   0  0  1  0  0  0  0  0  0  0  0  0
  140.1170   77.5950  222.0960 C   0  0  0  0  0  0  0  0  0  0  0  0
  141.1890   77.3070  221.2350 N   0  0  0  0  0  0  0  0  0  0  0  0
  141.9740   78.4210  220.8100 C   0  0  2  0  0  0  0  0  0  0  0  0
  142.0330   79.4880  221.8330 C   0  0  0  0  0  0  0  0  0  0  0  0
  142.8960   79.4720  222.9090 C   0  0  0  0  0  0  0  0  0  0  0  0
  142.9370   80.4820  223.8570 C   0  0  0  0  0  0  0  0  0  0  0  0
  142.0900   81.5620  223.7480 C   0  0  0  0  0  0  0  0  0  0  0  0
  141.2110   81.6100  222.6810 C   0  0  0  0  0  0  0  0  0  0  0  0
  141.1860   80.5980  221.7510 C   0  0  0  0  0  0  0  0  0  0  0  0
  141.5540   78.9590  219.4890 C   0  0  0  0  0  0  0  0  0  0  0  0
  140.2750   78.8180  218.9880 C   0  0  0  0  0  0  0  0  0  0  0  0
  139.9970   79.3640  217.7380 C   0  0  0  0  0  0  0  0  0  0  0  0
  140.9180   80.0130  217.0160 N   0  0  0  0  0  0  0  0  0  0  0  0
  142.1750   80.1560  217.4970 C   0  0  0  0  0  0  0  0  0  0  0  0
  142.5020   79.6330  218.7320 C   0  0  0  0  0  0  0  0  0  0  0  0
  140.4970   71.2530  224.3780 C   0  0  0  0  0  0  0  0  0  0  0  0
  141.0640   71.9360  225.4570 C   0  0  0  0  0  0  0  0  0  0  0  0
  141.2050   71.3210  226.6780 C   0  0  0  0  0  0  0  0  0  0  0  0
  140.7860   70.0200  226.8410 C   0  0  0  0  0  0  0  0  0  0  0  0
  140.9390   69.4250  228.0770 C   0  0  0  0  0  0  0  0  0  0  0  0
  140.5180   68.1200  228.2390 C   0  0  0  0  0  0  0  0  0  0  0  0
  140.6860   67.5720  229.4660 F   0  0  0  0  0  0  0  0  0  0  0  0
  139.9560   67.4300  227.1830 C   0  0  0  0  0  0  0  0  0  0  0  0
  139.8020   68.0350  225.9340 C   0  0  0  0  0  0  0  0  0  0  0  0
  140.2240   69.3540  225.7560 C   0  0  0  0  0  0  0  0  0  0  0  0
  140.1080   69.9950  224.5920 N   0  0  0  0  0  0  0  0  0  0  0  0
  138.2870   72.3390  223.4360 H   0  0  0  0  0  0  0  0  0  0  0  0
  139.5042   72.5836  220.7119 H   0  0  0  0  0  0  0  0  0  0  0  0
  137.8369   73.1164  221.2231 H   0  0  0  0  0  0  0  0  0  0  0  0
  136.7559   76.0227  220.4892 H   0  0  0  0  0  0  0  0  0  0  0  0
  136.6709   74.5637  221.4078 H   0  0  0  0  0  0  0  0  0  0  0  0
  135.8123   77.0688  222.3413 H   0  0  0  0  0  0  0  0  0  0  0  0
  136.3167   75.7692  223.4530 H   0  0  0  0  0  0  0  0  0  0  0  0
  137.5585   78.3140  223.1608 H   0  0  0  0  0  0  0  0  0  0  0  0
  138.2486   76.9783  224.0364 H   0  0  0  0  0  0  0  0  0  0  0  0
  138.6545   77.5968  220.9413 H   0  0  0  0  0  0  0  0  0  0  0  0
  139.9955   78.6882  222.0858 H   0  0  0  0  0  0  0  0  0  0  0  0
  140.4278   77.1086  223.0324 H   0  0  0  0  0  0  0  0  0  0  0  0
  141.8170   76.5660  221.5970 H   0  0  0  0  0  0  0  0  0  0  0  0
  142.9944   78.0312  220.6802 H   0  0  0  0  0  0  0  0  0  0  0  0
  143.5823   78.6195  223.0195 H   0  0  0  0  0  0  0  0  0  0  0  0
  143.6458   80.4209  224.6960 H   0  0  0  0  0  0  0  0  0  0  0  0
  142.1118   82.3700  224.4941 H   0  0  0  0  0  0  0  0  0  0  0  0
  140.5266   82.4647  222.5759 H   0  0  0  0  0  0  0  0  0  0  0  0
  140.4756   80.6634  220.9137 H   0  0  0  0  0  0  0  0  0  0  0  0
  139.4982   78.2895  219.5601 H   0  0  0  0  0  0  0  0  0  0  0  0
  138.9817   79.2579  217.3282 H   0  0  0  0  0  0  0  0  0  0  0  0
  142.9345   80.6878  216.9051 H   0  0  0  0  0  0  0  0  0  0  0  0
  143.5244   79.7517  219.1200 H   0  0  0  0  0  0  0  0  0  0  0  0
  141.4006   72.9753  225.3281 H   0  0  0  0  0  0  0  0  0  0  0  0
  141.6513   71.8668  227.5224 H   0  0  0  0  0  0  0  0  0  0  0  0
  141.3869   69.9788  228.9153 H   0  0  0  0  0  0  0  0  0  0  0  0
  139.6255   66.3908  227.3276 H   0  0  0  0  0  0  0  0  0  0  0  0
  139.3527   67.4780  225.0986 H   0  0  0  0  0  0  0  0  0  0  0  0
  1  2  2  0
  2  3  1  0
  3  4  1  0
  4  5  1  0
  5  6  2  0
  5  7  1  0
  7  8  1  0
  8  9  1  0
  9 10  1  0
 10 11  1  0
 11 12  1  0
 12 13  1  0
 13 14  1  0
 14 15  1  0
 15 16  2  0
 16 17  1  0
 17 18  2  0
 18 19  1  0
 19 20  2  0
 14 21  1  0
 21 22  2  0
 22 23  1  0
 23 24  2  0
 24 25  1  0
 25 26  2  0
  2 27  1  0
 27 28  2  0
 28 29  1  0
 29 30  2  0
 30 31  1  0
 31 32  2  0
 32 33  1  0
 32 34  1  0
 34 35  2  0
 35 36  1  0
 36 37  2  0
 11  7  1  0
 20 15  1  0
 26 21  1  0
 37 27  1  0
 36 30  1  0
  3 38  1  0
  4 39  1  0
  4 40  1  0
  8 41  1  0
  8 42  1  0
  9 43  1  0
  9 44  1  0
 10 45  1  0
 10 46  1  0
 11 47  1  6
 12 48  1  0
 12 49  1  0
 13 50  1  0
 14 51  1  6
 16 52  1  0
 17 53  1  0
 18 54  1  0
 19 55  1  0
 20 56  1  0
 22 57  1  0
 23 58  1  0
 25 59  1  0
 26 60  1  0
 28 61  1  0
 29 62  1  0
 31 63  1  0
 34 64  1  0
 35 65  1  0
M  END
>  <smiles>  (30) 
O=C(NCC(=O)N1CCC[C@H]1CNC(c1ccccc1)c1ccncc1)c1ccc2cc(F)ccc2n1

>  <score_type>  (30) 
oracle

>  <origin>  (30) 
autodockgpu

>  <m_score__min__energy>  (30) 
-9.6600000000000001

>  <m_primary>  (30) 
energy

>  <rmsd>  (30) 
3.6411629532130982

>  <m_score__min__rmsd>  (30) 
3.6411629532130982

>  <meeko>  (30) 
{"free_energy": -9.27, "intermolecular_energy": -11.96, "internal_energy": -2.65, "cluster_size": 4, "cluster_id": 2, "rank_in_cluster": 2}

>  <energy>  (30) 
-9.45

>  <cluster_rmsd>  (30) 
0.71

>  <cluster>  (30) 
3

$$$$

     RDKit          3D

 65 69  0  0  1  0  0  0  0  0999 V2000
  137.4210   69.8730  222.2880 O   0  0  0  0  0  0  0  0  0  0  0  0
  138.1350   70.5310  223.0820 C   0  0  0  0  0  0  0  0  0  0  0  0
  138.3790   71.9240  222.9600 N   0  0  0  0  0  0  0  0  0  0  0  0
  137.7590   72.6320  221.8380 C   0  0  0  0  0  0  0  0  0  0  0  0
  138.3570   73.9280  221.5860 C   0  0  0  0  0  0  0  0  0  0  0  0
  139.3560   74.2510  222.3440 O   0  0  0  0  0  0  0  0  0  0  0  0
  138.0060   74.8930  220.6310 N   0  0  0  0  0  0  0  0  0  0  0  0
  136.7620   75.7040  220.8370 C   0  0  0  0  0  0  0  0  0  0  0  0
  137.3060   77.0720  220.4900 C   0  0  0  0  0  0  0  0  0  0  0  0
  138.5780   76.8720  219.6970 C   0  0  0  0  0  0  0  0  0  0  0  0
  138.5160   75.3590  219.4030 C   0  0  1  0  0  0  0  0  0  0  0  0
  139.7170   74.8400  218.7880 C   0  0  0  0  0  0  0  0  0  0  0  0
  140.7630   74.3060  219.5580 N   0  0  0  0  0  0  0  0  0  0  0  0
  141.9250   75.1220  219.6990 C   0  0  2  0  0  0  0  0  0  0  0  0
  143.1050   74.3460  220.1390 C   0  0  0  0  0  0  0  0  0  0  0  0
  144.3700   74.8800  220.2680 C   0  0  0  0  0  0  0  0  0  0  0  0
  145.4640   74.1360  220.6820 C   0  0  0  0  0  0  0  0  0  0  0  0
  145.3130   72.8010  220.9840 C   0  0  0  0  0  0  0  0  0  0  0  0
  144.0570   72.2330  220.8640 C   0  0  0  0  0  0  0  0  0  0  0  0
  142.9850   72.9880  220.4520 C   0  0  0  0  0  0  0  0  0  0  0  0
  141.7010   76.3090  220.5670 C   0  0  0  0  0  0  0  0  0  0  0  0
  141.1790   76.2230  221.8420 C   0  0  0  0  0  0  0  0  0  0  0  0
  141.0140   77.4030  222.5630 C   0  0  0  0  0  0  0  0  0  0  0  0
  141.3430   78.6010  222.0660 N   0  0  0  0  0  0  0  0  0  0  0  0
  141.8560   78.6960  220.8170 C   0  0  0  0  0  0  0  0  0  0  0  0
  142.0390   77.5560  220.0600 C   0  0  0  0  0  0  0  0  0  0  0  0
  138.7650   69.8340  224.2160 C   0  0  0  0  0  0  0  0  0  0  0  0
  138.7680   68.4370  224.2620 C   0  0  0  0  0  0  0  0  0  0  0  0
  139.3530   67.7730  225.3120 C   0  0  0  0  0  0  0  0  0  0  0  0
  139.9410   68.4870  226.3310 C   0  0  0  0  0  0  0  0  0  0  0  0
  140.5220   67.7960  227.3750 C   0  0  0  0  0  0  0  0  0  0  0  0
  141.1130   68.5140  228.3960 C   0  0  0  0  0  0  0  0  0  0  0  0
  141.6720   67.7990  229.4020 F   0  0  0  0  0  0  0  0  0  0  0  0
  141.1200   69.8940  228.3670 C   0  0  0  0  0  0  0  0  0  0  0  0
  140.5320   70.5910  227.3090 C   0  0  0  0  0  0  0  0  0  0  0  0
  139.9310   69.8770  226.2700 C   0  0  0  0  0  0  0  0  0  0  0  0
  139.3510   70.4750  225.2290 N   0  0  0  0  0  0  0  0  0  0  0  0
  138.9850   72.4020  223.6630 H   0  0  0  0  0  0  0  0  0  0  0  0
  137.8645   72.0154  220.9332 H   0  0  0  0  0  0  0  0  0  0  0  0
  136.7039   72.8016  222.0987 H   0  0  0  0  0  0  0  0  0  0  0  0
  135.9535   75.3978  220.1569 H   0  0  0  0  0  0  0  0  0  0  0  0
  136.3026   75.6180  221.8328 H   0  0  0  0  0  0  0  0  0  0  0  0
  136.5714   77.6256  219.8868 H   0  0  0  0  0  0  0  0  0  0  0  0
  137.5080   77.6500  221.4038 H   0  0  0  0  0  0  0  0  0  0  0  0
  138.5714   77.4631  218.7693 H   0  0  0  0  0  0  0  0  0  0  0  0
  139.4906   77.1921  220.2211 H   0  0  0  0  0  0  0  0  0  0  0  0
  137.8692   74.9891  218.5938 H   0  0  0  0  0  0  0  0  0  0  0  0
  139.3952   74.0405  218.1045 H   0  0  0  0  0  0  0  0  0  0  0  0
  140.1748   75.7449  218.3618 H   0  0  0  0  0  0  0  0  0  0  0  0
  140.4580   73.9820  220.4940 H   0  0  0  0  0  0  0  0  0  0  0  0
  142.1405   75.5066  218.6912 H   0  0  0  0  0  0  0  0  0  0  0  0
  144.5175   75.9442  220.0318 H   0  0  0  0  0  0  0  0  0  0  0  0
  146.4520   74.6117  220.7692 H   0  0  0  0  0  0  0  0  0  0  0  0
  146.1726   72.1989  221.3136 H   0  0  0  0  0  0  0  0  0  0  0  0
  143.9153   71.1681  221.1004 H   0  0  0  0  0  0  0  0  0  0  0  0
  141.9991   72.5080  220.3654 H   0  0  0  0  0  0  0  0  0  0  0  0
  140.9015   75.2510  222.2758 H   0  0  0  0  0  0  0  0  0  0  0  0
  140.5974   77.3481  223.5796 H   0  0  0  0  0  0  0  0  0  0  0  0
  142.1266   79.6797  220.4059 H   0  0  0  0  0  0  0  0  0  0  0  0
  142.4566   77.6368  219.0456 H   0  0  0  0  0  0  0  0  0  0  0  0
  138.2973   67.8641  223.4494 H   0  0  0  0  0  0  0  0  0  0  0  0
  139.3516   66.6733  225.3385 H   0  0  0  0  0  0  0  0  0  0  0  0
  140.5145   66.6962  227.3934 H   0  0  0  0  0  0  0  0  0  0  0  0
  141.5947   70.4519  229.1876 H   0  0  0  0  0  0  0  0  0  0  0  0
  140.5422   71.6909  227.2943 H   0  0  0  0  0  0  0  0  0  0  0  0
  1  2  2  0
  2  3  1  0
  3  4  1  0
  4  5  1  0
  5  6  2  0
  5  7  1  0
  7  8  1  0
  8  9  1  0
  9 10  1  0
 10 11  1  0
 11 12  1  0
 12 13  1  0
 13 14  1  0
 14 15  1  0
 15 16  2  0
 16 17  1  0
 17 18  2  0
 18 19  1  0
 19 20  2  0
 14 21  1  0
 21 22  2  0
 22 23  1  0
 23 24  2  0
 24 25  1  0
 25 26  2  0
  2 27  1  0
 27 28  2  0
 28 29  1  0
 29 30  2  0
 30 31  1  0
 31 32  2  0
 32 33  1  0
 32 34  1  0
 34 35  2  0
 35 36  1  0
 36 37  2  0
 11  7  1  0
 20 15  1  0
 26 21  1  0
 37 27  1  0
 36 30  1  0
  3 38  1  0
  4 39  1  0
  4 40  1  0
  8 41  1  0
  8 42  1  0
  9 43  1  0
  9 44  1  0
 10 45  1  0
 10 46  1  0
 11 47  1  6
 12 48  1  0
 12 49  1  0
 13 50  1  0
 14 51  1  6
 16 52  1  0
 17 53  1  0
 18 54  1  0
 19 55  1  0
 20 56  1  0
 22 57  1  0
 23 58  1  0
 25 59  1  0
 26 60  1  0
 28 61  1  0
 29 62  1  0
 31 63  1  0
 34 64  1  0
 35 65  1  0
M  END
>  <smiles>  (31) 
O=C(NCC(=O)N1CCC[C@H]1CNC(c1ccccc1)c1ccncc1)c1ccc2cc(F)ccc2n1

>  <score_type>  (31) 
oracle

>  <origin>  (31) 
autodockgpu

>  <m_score__min__energy>  (31) 
-9.6600000000000001

>  <m_primary>  (31) 
energy

>  <rmsd>  (31) 
4.803196502133952

>  <m_score__min__rmsd>  (31) 
4.803196502133952

>  <meeko>  (31) 
{"free_energy": -8.13, "intermolecular_energy": -10.81, "internal_energy": -3.9, "cluster_size": 6, "cluster_id": 5, "rank_in_cluster": 4}

>  <energy>  (31) 
-9.35

>  <cluster_rmsd>  (31) 
1.32

>  <cluster>  (31) 
3

$$$$

     RDKit          3D

 65 69  0  0  1  0  0  0  0  0999 V2000
  140.5700   71.1080  221.2690 O   0  0  0  0  0  0  0  0  0  0  0  0
  140.1650   71.7010  222.2970 C   0  0  0  0  0  0  0  0  0  0  0  0
  139.8060   73.0750  222.3290 N   0  0  0  0  0  0  0  0  0  0  0  0
  139.9170   73.8410  221.0860 C   0  0  0  0  0  0  0  0  0  0  0  0
  141.1680   74.5660  220.9770 C   0  0  0  0  0  0  0  0  0  0  0  0
  141.4420   75.3750  221.9510 O   0  0  0  0  0  0  0  0  0  0  0  0
  142.1310   74.5180  219.9600 N   0  0  0  0  0  0  0  0  0  0  0  0
  142.8510   73.2290  219.6970 C   0  0  0  0  0  0  0  0  0  0  0  0
  142.7690   73.2100  218.1880 C   0  0  0  0  0  0  0  0  0  0  0  0
  142.4760   74.6200  217.7270 C   0  0  0  0  0  0  0  0  0  0  0  0
  142.6930   75.4160  219.0300 C   0  0  1  0  0  0  0  0  0  0  0  0
  142.3090   76.8060  218.9300 C   0  0  0  0  0  0  0  0  0  0  0  0
  142.4470   77.6850  220.0160 N   0  0  0  0  0  0  0  0  0  0  0  0
  141.4220   78.6670  220.1680 C   0  0  2  0  0  0  0  0  0  0  0  0
  141.7320   79.9170  219.4380 C   0  0  0  0  0  0  0  0  0  0  0  0
  141.2570   81.1580  219.8050 C   0  0  0  0  0  0  0  0  0  0  0  0
  141.5590   82.3170  219.1070 C   0  0  0  0  0  0  0  0  0  0  0  0
  142.3670   82.2590  217.9940 C   0  0  0  0  0  0  0  0  0  0  0  0
  142.8610   81.0290  217.5980 C   0  0  0  0  0  0  0  0  0  0  0  0
  142.5500   79.8910  218.3020 C   0  0  0  0  0  0  0  0  0  0  0  0
  141.0820   78.9400  221.5890 C   0  0  0  0  0  0  0  0  0  0  0  0
  142.0180   79.3190  222.5310 C   0  0  0  0  0  0  0  0  0  0  0  0
  141.5820   79.5480  223.8330 C   0  0  0  0  0  0  0  0  0  0  0  0
  140.3020   79.4150  224.1960 N   0  0  0  0  0  0  0  0  0  0  0  0
  139.3750   79.0430  223.2810 C   0  0  0  0  0  0  0  0  0  0  0  0
  139.7560   78.8040  221.9760 C   0  0  0  0  0  0  0  0  0  0  0  0
  140.0480   70.9450  223.5550 C   0  0  0  0  0  0  0  0  0  0  0  0
  139.4580   69.6780  223.5540 C   0  0  0  0  0  0  0  0  0  0  0  0
  139.3420   68.9600  224.7190 C   0  0  0  0  0  0  0  0  0  0  0  0
  139.8090   69.4910  225.9000 C   0  0  0  0  0  0  0  0  0  0  0  0
  139.6810   68.7500  227.0570 C   0  0  0  0  0  0  0  0  0  0  0  0
  140.1510   69.2840  228.2410 C   0  0  0  0  0  0  0  0  0  0  0  0
  140.0060   68.5250  229.3530 F   0  0  0  0  0  0  0  0  0  0  0  0
  140.7370   70.5340  228.2590 C   0  0  0  0  0  0  0  0  0  0  0  0
  140.8670   71.2820  227.0880 C   0  0  0  0  0  0  0  0  0  0  0  0
  140.3950   70.7540  225.8830 C   0  0  0  0  0  0  0  0  0  0  0  0
  140.4850   71.4110  224.7260 N   0  0  0  0  0  0  0  0  0  0  0  0
  139.4760   73.4970  223.2250 H   0  0  0  0  0  0  0  0  0  0  0  0
  139.8400   73.1453  220.2375 H   0  0  0  0  0  0  0  0  0  0  0  0
  139.1052   74.5833  221.0834 H   0  0  0  0  0  0  0  0  0  0  0  0
  143.8916   73.2588  220.0523 H   0  0  0  0  0  0  0  0  0  0  0  0
  142.4348   72.3452  220.2026 H   0  0  0  0  0  0  0  0  0  0  0  0
  143.7252   72.8683  217.7649 H   0  0  0  0  0  0  0  0  0  0  0  0
  141.9783   72.5225  217.8532 H   0  0  0  0  0  0  0  0  0  0  0  0
  143.1742   74.9392  216.9392 H   0  0  0  0  0  0  0  0  0  0  0  0
  141.4789   74.7498  217.2809 H   0  0  0  0  0  0  0  0  0  0  0  0
  143.7159   75.6594  219.3532 H   0  0  0  0  0  0  0  0  0  0  0  0
  142.9016   77.2333  218.1076 H   0  0  0  0  0  0  0  0  0  0  0  0
  141.2169   76.7420  218.8149 H   0  0  0  0  0  0  0  0  0  0  0  0
  142.5890   77.1990  220.9210 H   0  0  0  0  0  0  0  0  0  0  0  0
  140.5231   78.2293  219.7094 H   0  0  0  0  0  0  0  0  0  0  0  0
  140.6095   81.2319  220.6912 H   0  0  0  0  0  0  0  0  0  0  0  0
  141.1531   83.2828  219.4424 H   0  0  0  0  0  0  0  0  0  0  0  0
  142.6146   83.1713  217.4315 H   0  0  0  0  0  0  0  0  0  0  0  0
  143.5086   80.9615  216.7114 H   0  0  0  0  0  0  0  0  0  0  0  0
  142.9572   78.9274  217.9619 H   0  0  0  0  0  0  0  0  0  0  0  0
  143.0777   79.4366  222.2603 H   0  0  0  0  0  0  0  0  0  0  0  0
  142.3186   79.8499  224.5922 H   0  0  0  0  0  0  0  0  0  0  0  0
  138.3215   78.9317  223.5771 H   0  0  0  0  0  0  0  0  0  0  0  0
  139.0009   78.5026  221.2350 H   0  0  0  0  0  0  0  0  0  0  0  0
  139.0832   69.2521  222.6116 H   0  0  0  0  0  0  0  0  0  0  0  0
  138.8771   67.9631  224.7084 H   0  0  0  0  0  0  0  0  0  0  0  0
  139.2141   67.7542  227.0368 H   0  0  0  0  0  0  0  0  0  0  0  0
  141.1066   70.9461  229.2096 H   0  0  0  0  0  0  0  0  0  0  0  0
  141.3360   72.2767  227.1131 H   0  0  0  0  0  0  0  0  0  0  0  0
  1  2  2  0
  2  3  1  0
  3  4  1  0
  4  5  1  0
  5  6  2  0
  5  7  1  0
  7  8  1  0
  8  9  1  0
  9 10  1  0
 10 11  1  0
 11 12  1  0
 12 13  1  0
 13 14  1  0
 14 15  1  0
 15 16  2  0
 16 17  1  0
 17 18  2  0
 18 19  1  0
 19 20  2  0
 14 21  1  0
 21 22  2  0
 22 23  1  0
 23 24  2  0
 24 25  1  0
 25 26  2  0
  2 27  1  0
 27 28  2  0
 28 29  1  0
 29 30  2  0
 30 31  1  0
 31 32  2  0
 32 33  1  0
 32 34  1  0
 34 35  2  0
 35 36  1  0
 36 37  2  0
 11  7  1  0
 20 15  1  0
 26 21  1  0
 37 27  1  0
 36 30  1  0
  3 38  1  0
  4 39  1  0
  4 40  1  0
  8 41  1  0
  8 42  1  0
  9 43  1  0
  9 44  1  0
 10 45  1  0
 10 46  1  0
 11 47  1  1
 12 48  1  0
 12 49  1  0
 13 50  1  0
 14 51  1  6
 16 52  1  0
 17 53  1  0
 18 54  1  0
 19 55  1  0
 20 56  1  0
 22 57  1  0
 23 58  1  0
 25 59  1  0
 26 60  1  0
 28 61  1  0
 29 62  1  0
 31 63  1  0
 34 64  1  0
 35 65  1  0
M  END
>  <smiles>  (32) 
O=C(NCC(=O)N1CCC[C@H]1CNC(c1ccccc1)c1ccncc1)c1ccc2cc(F)ccc2n1

>  <score_type>  (32) 
oracle

>  <origin>  (32) 
autodockgpu

>  <m_score__min__energy>  (32) 
-9.6600000000000001

>  <m_primary>  (32) 
energy

>  <rmsd>  (32) 
2.7487192538291034

>  <m_score__min__rmsd>  (32) 
2.7487192538291034

>  <meeko>  (32) 
{"free_energy": -9.13, "intermolecular_energy": -11.82, "internal_energy": -2.73, "cluster_size": 4, "cluster_id": 2, "rank_in_cluster": 3}

>  <energy>  (32) 
-9.09

>  <cluster_rmsd>  (32) 
1.51

>  <cluster>  (32) 
3

$$$$

     RDKit          3D

 65 69  0  0  1  0  0  0  0  0999 V2000
  138.5620   70.5000  221.6310 O   0  0  0  0  0  0  0  0  0  0  0  0
  139.0450   71.1050  222.6180 C   0  0  0  0  0  0  0  0  0  0  0  0
  139.3420   72.4940  222.6260 N   0  0  0  0  0  0  0  0  0  0  0  0
  139.0690   73.2610  221.4090 C   0  0  0  0  0  0  0  0  0  0  0  0
  140.1450   74.1640  221.0540 C   0  0  0  0  0  0  0  0  0  0  0  0
  140.9890   74.4410  221.9970 O   0  0  0  0  0  0  0  0  0  0  0  0
  140.4060   74.7890  219.8270 N   0  0  0  0  0  0  0  0  0  0  0  0
  140.5130   73.9480  218.5890 C   0  0  0  0  0  0  0  0  0  0  0  0
  139.6770   74.7910  217.6530 C   0  0  0  0  0  0  0  0  0  0  0  0
  139.5860   76.1800  218.2430 C   0  0  0  0  0  0  0  0  0  0  0  0
  140.6390   76.1010  219.3670 C   0  0  1  0  0  0  0  0  0  0  0  0
  140.6500   77.2590  220.2320 C   0  0  0  0  0  0  0  0  0  0  0  0
  141.4570   77.3090  221.3810 N   0  0  0  0  0  0  0  0  0  0  0  0
  140.8860   77.9410  222.5260 C   0  0  2  0  0  0  0  0  0  0  0  0
  139.4260   77.7170  222.6210 C   0  0  0  0  0  0  0  0  0  0  0  0
  138.8460   76.4690  222.7130 C   0  0  0  0  0  0  0  0  0  0  0  0
  137.4760   76.2800  222.8010 C   0  0  0  0  0  0  0  0  0  0  0  0
  136.6300   77.3670  222.7990 C   0  0  0  0  0  0  0  0  0  0  0  0
  137.1790   78.6330  222.7070 C   0  0  0  0  0  0  0  0  0  0  0  0
  138.5410   78.8000  222.6200 C   0  0  0  0  0  0  0  0  0  0  0  0
  141.2210   79.3860  222.6220 C   0  0  0  0  0  0  0  0  0  0  0  0
  141.1100   80.2590  221.5580 C   0  0  0  0  0  0  0  0  0  0  0  0
  141.4520   81.5920  221.7660 C   0  0  0  0  0  0  0  0  0  0  0  0
  141.8780   82.0490  222.9490 N   0  0  0  0  0  0  0  0  0  0  0  0
  141.9900   81.2020  223.9990 C   0  0  0  0  0  0  0  0  0  0  0  0
  141.6640   79.8700  223.8450 C   0  0  0  0  0  0  0  0  0  0  0  0
  139.3260   70.3490  223.8490 C   0  0  0  0  0  0  0  0  0  0  0  0
  138.9680   69.0010  223.9370 C   0  0  0  0  0  0  0  0  0  0  0  0
  139.2240   68.2820  225.0780 C   0  0  0  0  0  0  0  0  0  0  0  0
  139.8390   68.8920  226.1480 C   0  0  0  0  0  0  0  0  0  0  0  0
  140.0860   68.1480  227.2840 C   0  0  0  0  0  0  0  0  0  0  0  0
  140.7030   68.7610  228.3560 C   0  0  0  0  0  0  0  0  0  0  0  0
  140.9270   67.9970  229.4520 F   0  0  0  0  0  0  0  0  0  0  0  0
  141.0630   70.0920  228.2870 C   0  0  0  0  0  0  0  0  0  0  0  0
  140.8130   70.8430  227.1370 C   0  0  0  0  0  0  0  0  0  0  0  0
  140.1900   70.2350  226.0450 C   0  0  0  0  0  0  0  0  0  0  0  0
  139.9200   70.8900  224.9150 N   0  0  0  0  0  0  0  0  0  0  0  0
  139.7420   72.9270  223.4880 H   0  0  0  0  0  0  0  0  0  0  0  0
  138.9144   72.5566  220.5783 H   0  0  0  0  0  0  0  0  0  0  0  0
  138.1757   73.8737  221.6004 H   0  0  0  0  0  0  0  0  0  0  0  0
  141.5529   73.8557  218.2424 H   0  0  0  0  0  0  0  0  0  0  0  0
  140.1885   72.9028  218.6993 H   0  0  0  0  0  0  0  0  0  0  0  0
  140.1531   74.8352  216.6624 H   0  0  0  0  0  0  0  0  0  0  0  0
  138.6736   74.3560  217.5351 H   0  0  0  0  0  0  0  0  0  0  0  0
  139.8455   76.9501  217.5016 H   0  0  0  0  0  0  0  0  0  0  0  0
  138.5791   76.4576  218.5880 H   0  0  0  0  0  0  0  0  0  0  0  0
  141.7059   76.2004  219.1183 H   0  0  0  0  0  0  0  0  0  0  0  0
  140.9493   78.1119  219.6051 H   0  0  0  0  0  0  0  0  0  0  0  0
  139.6351   77.2472  220.6561 H   0  0  0  0  0  0  0  0  0  0  0  0
  141.8360   76.3840  221.6550 H   0  0  0  0  0  0  0  0  0  0  0  0
  141.3517   77.4534  223.3951 H   0  0  0  0  0  0  0  0  0  0  0  0
  139.4999   75.5845  222.7167 H   0  0  0  0  0  0  0  0  0  0  0  0
  137.0643   75.2624  222.8724 H   0  0  0  0  0  0  0  0  0  0  0  0
  135.5407   77.2310  222.8691 H   0  0  0  0  0  0  0  0  0  0  0  0
  136.5203   79.5140  222.7034 H   0  0  0  0  0  0  0  0  0  0  0  0
  138.9481   79.8193  222.5472 H   0  0  0  0  0  0  0  0  0  0  0  0
  140.7614   79.9110  220.5744 H   0  0  0  0  0  0  0  0  0  0  0  0
  141.3688   82.2968  220.9255 H   0  0  0  0  0  0  0  0  0  0  0  0
  142.3401   81.5747  224.9729 H   0  0  0  0  0  0  0  0  0  0  0  0
  141.7562   79.1847  224.7005 H   0  0  0  0  0  0  0  0  0  0  0  0
  138.4762   68.5113  223.0836 H   0  0  0  0  0  0  0  0  0  0  0  0
  138.9385   67.2213  225.1372 H   0  0  0  0  0  0  0  0  0  0  0  0
  139.7970   67.0878  227.3341 H   0  0  0  0  0  0  0  0  0  0  0  0
  141.5533   70.5671  229.1495 H   0  0  0  0  0  0  0  0  0  0  0  0
  141.1038   71.9029  227.0915 H   0  0  0  0  0  0  0  0  0  0  0  0
  1  2  2  0
  2  3  1  0
  3  4  1  0
  4  5  1  0
  5  6  2  0
  5  7  1  0
  7  8  1  0
  8  9  1  0
  9 10  1  0
 10 11  1  0
 11 12  1  0
 12 13  1  0
 13 14  1  0
 14 15  1  0
 15 16  2  0
 16 17  1  0
 17 18  2  0
 18 19  1  0
 19 20  2  0
 14 21  1  0
 21 22  2  0
 22 23  1  0
 23 24  2  0
 24 25  1  0
 25 26  2  0
  2 27  1  0
 27 28  2  0
 28 29  1  0
 29 30  2  0
 30 31  1  0
 31 32  2  0
 32 33  1  0
 32 34  1  0
 34 35  2  0
 35 36  1  0
 36 37  2  0
 11  7  1  0
 20 15  1  0
 26 21  1  0
 37 27  1  0
 36 30  1  0
  3 38  1  0
  4 39  1  0
  4 40  1  0
  8 41  1  0
  8 42  1  0
  9 43  1  0
  9 44  1  0
 10 45  1  0
 10 46  1  0
 11 47  1  6
 12 48  1  0
 12 49  1  0
 13 50  1  0
 14 51  1  1
 16 52  1  0
 17 53  1  0
 18 54  1  0
 19 55  1  0
 20 56  1  0
 22 57  1  0
 23 58  1  0
 25 59  1  0
 26 60  1  0
 28 61  1  0
 29 62  1  0
 31 63  1  0
 34 64  1  0
 35 65  1  0
M  END
>  <smiles>  (33) 
O=C(NCC(=O)N1CCC[C@H]1CNC(c1ccccc1)c1ccncc1)c1ccc2cc(F)ccc2n1

>  <score_type>  (33) 
oracle

>  <origin>  (33) 
autodockgpu

>  <m_score__min__energy>  (33) 
-9.6600000000000001

>  <m_primary>  (33) 
energy

>  <rmsd>  (33) 
2.6337174051152394

>  <m_score__min__rmsd>  (33) 
2.6337174051152394

>  <meeko>  (33) 
{"free_energy": -9.02, "intermolecular_energy": -11.71, "internal_energy": -3.54, "cluster_size": 24, "cluster_id": 1, "rank_in_cluster": 12}

>  <energy>  (33) 
-9.05

>  <cluster_rmsd>  (33) 
1.72

>  <cluster>  (33) 
3

$$$$

     RDKit          3D

 65 69  0  0  1  0  0  0  0  0999 V2000
  137.5540   70.4640  222.2650 O   0  0  0  0  0  0  0  0  0  0  0  0
  138.4190   70.9840  223.0090 C   0  0  0  0  0  0  0  0  0  0  0  0
  138.9190   72.3020  222.8410 N   0  0  0  0  0  0  0  0  0  0  0  0
  138.3930   73.0980  221.7300 C   0  0  0  0  0  0  0  0  0  0  0  0
  139.3570   74.0440  221.2040 C   0  0  0  0  0  0  0  0  0  0  0  0
  140.3560   74.3280  221.9790 O   0  0  0  0  0  0  0  0  0  0  0  0
  139.3640   74.7030  219.9670 N   0  0  0  0  0  0  0  0  0  0  0  0
  139.5130   73.8970  218.7110 C   0  0  0  0  0  0  0  0  0  0  0  0
  138.4360   74.5510  217.8760 C   0  0  0  0  0  0  0  0  0  0  0  0
  138.1270   75.8950  218.4950 C   0  0  0  0  0  0  0  0  0  0  0  0
  139.2810   76.0340  219.5090 C   0  0  1  0  0  0  0  0  0  0  0  0
  139.1460   77.1740  220.3870 C   0  0  0  0  0  0  0  0  0  0  0  0
  139.7010   77.1760  221.6770 N   0  0  0  0  0  0  0  0  0  0  0  0
  141.0820   77.5220  221.7710 C   0  0  2  0  0  0  0  0  0  0  0  0
  141.2900   78.8210  222.4500 C   0  0  0  0  0  0  0  0  0  0  0  0
  140.2670   79.6830  222.7860 C   0  0  0  0  0  0  0  0  0  0  0  0
  140.4820   80.8950  223.4230 C   0  0  0  0  0  0  0  0  0  0  0  0
  141.7620   81.2840  223.7460 C   0  0  0  0  0  0  0  0  0  0  0  0
  142.8120   80.4440  223.4220 C   0  0  0  0  0  0  0  0  0  0  0  0
  142.5790   79.2450  222.7910 C   0  0  0  0  0  0  0  0  0  0  0  0
  141.7850   77.4760  220.4610 C   0  0  0  0  0  0  0  0  0  0  0  0
  141.8520   78.5550  219.6020 C   0  0  0  0  0  0  0  0  0  0  0  0
  142.5380   78.3950  218.4020 C   0  0  0  0  0  0  0  0  0  0  0  0
  143.1280   77.2440  218.0590 N   0  0  0  0  0  0  0  0  0  0  0  0
  143.0680   76.1800  218.8930 C   0  0  0  0  0  0  0  0  0  0  0  0
  142.3990   76.2860  220.0960 C   0  0  0  0  0  0  0  0  0  0  0  0
  138.9580   70.1970  224.1310 C   0  0  0  0  0  0  0  0  0  0  0  0
  138.8210   68.8060  224.1360 C   0  0  0  0  0  0  0  0  0  0  0  0
  139.3190   68.0580  225.1750 C   0  0  0  0  0  0  0  0  0  0  0  0
  139.9600   68.6810  226.2210 C   0  0  0  0  0  0  0  0  0  0  0  0
  140.4530   67.9080  227.2520 C   0  0  0  0  0  0  0  0  0  0  0  0
  141.0960   68.5340  228.3010 C   0  0  0  0  0  0  0  0  0  0  0  0
  141.5640   67.7400  229.2930 F   0  0  0  0  0  0  0  0  0  0  0  0
  141.2410   69.9070  228.3120 C   0  0  0  0  0  0  0  0  0  0  0  0
  140.7430   70.6880  227.2670 C   0  0  0  0  0  0  0  0  0  0  0  0
  140.0900   70.0670  226.2000 C   0  0  0  0  0  0  0  0  0  0  0  0
  139.5890   70.7490  225.1690 N   0  0  0  0  0  0  0  0  0  0  0  0
  139.6400   72.6650  223.5040 H   0  0  0  0  0  0  0  0  0  0  0  0
  138.0942   72.4156  220.9207 H   0  0  0  0  0  0  0  0  0  0  0  0
  137.5407   73.6770  222.1151 H   0  0  0  0  0  0  0  0  0  0  0  0
  140.5103   74.0147  218.2621 H   0  0  0  0  0  0  0  0  0  0  0  0
  139.4171   72.8083  218.8353 H   0  0  0  0  0  0  0  0  0  0  0  0
  138.7926   74.6868  216.8443 H   0  0  0  0  0  0  0  0  0  0  0  0
  137.5338   73.9223  217.8500 H   0  0  0  0  0  0  0  0  0  0  0  0
  138.1514   76.6990  217.7446 H   0  0  0  0  0  0  0  0  0  0  0  0
  137.1242   75.9651  218.9417 H   0  0  0  0  0  0  0  0  0  0  0  0
  140.2763   76.3459  219.1594 H   0  0  0  0  0  0  0  0  0  0  0  0
  139.5907   78.0288  219.8564 H   0  0  0  0  0  0  0  0  0  0  0  0
  138.0658   77.1864  220.5942 H   0  0  0  0  0  0  0  0  0  0  0  0
  139.1610   77.7450  222.3550 H   0  0  0  0  0  0  0  0  0  0  0  0
  141.5391   76.7437  222.3997 H   0  0  0  0  0  0  0  0  0  0  0  0
  139.2347   79.3958  222.5373 H   0  0  0  0  0  0  0  0  0  0  0  0
  139.6301   81.5455  223.6702 H   0  0  0  0  0  0  0  0  0  0  0  0
  141.9463   82.2434  224.2515 H   0  0  0  0  0  0  0  0  0  0  0  0
  143.8423   80.7378  223.6713 H   0  0  0  0  0  0  0  0  0  0  0  0
  143.4341   78.5978  222.5462 H   0  0  0  0  0  0  0  0  0  0  0  0
  141.3769   79.5133  219.8589 H   0  0  0  0  0  0  0  0  0  0  0  0
  142.5975   79.2471  217.7089 H   0  0  0  0  0  0  0  0  0  0  0  0
  143.5513   75.2324  218.6129 H   0  0  0  0  0  0  0  0  0  0  0  0
  142.3522   75.4192  220.7716 H   0  0  0  0  0  0  0  0  0  0  0  0
  138.3097   68.3057  223.3003 H   0  0  0  0  0  0  0  0  0  0  0  0
  139.2056   66.9639  225.1708 H   0  0  0  0  0  0  0  0  0  0  0  0
  140.3360   66.8143  227.2384 H   0  0  0  0  0  0  0  0  0  0  0  0
  141.7554   70.3919  229.1548 H   0  0  0  0  0  0  0  0  0  0  0  0
  140.8638   71.7812  227.2840 H   0  0  0  0  0  0  0  0  0  0  0  0
  1  2  2  0
  2  3  1  0
  3  4  1  0
  4  5  1  0
  5  6  2  0
  5  7  1  0
  7  8  1  0
  8  9  1  0
  9 10  1  0
 10 11  1  0
 11 12  1  0
 12 13  1  0
 13 14  1  0
 14 15  1  0
 15 16  2  0
 16 17  1  0
 17 18  2  0
 18 19  1  0
 19 20  2  0
 14 21  1  0
 21 22  2  0
 22 23  1  0
 23 24  2  0
 24 25  1  0
 25 26  2  0
  2 27  1  0
 27 28  2  0
 28 29  1  0
 29 30  2  0
 30 31  1  0
 31 32  2  0
 32 33  1  0
 32 34  1  0
 34 35  2  0
 35 36  1  0
 36 37  2  0
 11  7  1  0
 20 15  1  0
 26 21  1  0
 37 27  1  0
 36 30  1  0
  3 38  1  0
  4 39  1  0
  4 40  1  0
  8 41  1  0
  8 42  1  0
  9 43  1  0
  9 44  1  0
 10 45  1  0
 10 46  1  0
 11 47  1  6
 12 48  1  0
 12 49  1  0
 13 50  1  0
 14 51  1  1
 16 52  1  0
 17 53  1  0
 18 54  1  0
 19 55  1  0
 20 56  1  0
 22 57  1  0
 23 58  1  0
 25 59  1  0
 26 60  1  0
 28 61  1  0
 29 62  1  0
 31 63  1  0
 34 64  1  0
 35 65  1  0
M  END
>  <smiles>  (34) 
O=C(NCC(=O)N1CCC[C@H]1CNC(c1ccccc1)c1ccncc1)c1ccc2cc(F)ccc2n1

>  <score_type>  (34) 
oracle

>  <origin>  (34) 
autodockgpu

>  <m_score__min__energy>  (34) 
-9.6600000000000001

>  <m_primary>  (34) 
energy

>  <rmsd>  (34) 
2.4218375039515214

>  <m_score__min__rmsd>  (34) 
2.4218375039515214

>  <meeko>  (34) 
{"free_energy": -8.96, "intermolecular_energy": -11.64, "internal_energy": -2.82, "cluster_size": 8, "cluster_id": 3, "rank_in_cluster": 6}

>  <energy>  (34) 
-8.96

>  <cluster_rmsd>  (34) 
1.66

>  <cluster>  (34) 
3

$$$$

     RDKit          3D

 65 69  0  0  1  0  0  0  0  0999 V2000
  140.9690   72.3770  221.9500 O   0  0  0  0  0  0  0  0  0  0  0  0
  139.9410   72.2100  222.6480 C   0  0  0  0  0  0  0  0  0  0  0  0
  138.7070   72.8710  222.4120 N   0  0  0  0  0  0  0  0  0  0  0  0
  138.6340   73.8040  221.2860 C   0  0  0  0  0  0  0  0  0  0  0  0
  138.2720   75.1500  221.6860 C   0  0  0  0  0  0  0  0  0  0  0  0
  137.1690   75.2660  222.3550 O   0  0  0  0  0  0  0  0  0  0  0  0
  138.9510   76.3530  221.4510 N   0  0  0  0  0  0  0  0  0  0  0  0
  138.1690   77.5630  221.0320 C   0  0  0  0  0  0  0  0  0  0  0  0
  138.8090   78.5900  221.9380 C   0  0  0  0  0  0  0  0  0  0  0  0
  140.1350   78.0300  222.4010 C   0  0  0  0  0  0  0  0  0  0  0  0
  140.2860   76.8050  221.4760 C   0  0  1  0  0  0  0  0  0  0  0  0
  141.4090   75.9600  221.8150 C   0  0  0  0  0  0  0  0  0  0  0  0
  141.9030   75.0020  220.9150 N   0  0  0  0  0  0  0  0  0  0  0  0
  143.0040   75.4090  220.1020 C   0  0  2  0  0  0  0  0  0  0  0  0
  142.5650   75.9940  218.8150 C   0  0  0  0  0  0  0  0  0  0  0  0
  141.4280   75.6010  218.1420 C   0  0  0  0  0  0  0  0  0  0  0  0
  141.0330   76.1610  216.9380 C   0  0  0  0  0  0  0  0  0  0  0  0
  141.7900   77.1570  216.3620 C   0  0  0  0  0  0  0  0  0  0  0  0
  142.9380   77.5750  217.0110 C   0  0  0  0  0  0  0  0  0  0  0  0
  143.3130   77.0070  218.2050 C   0  0  0  0  0  0  0  0  0  0  0  0
  144.0050   74.3290  219.8940 C   0  0  0  0  0  0  0  0  0  0  0  0
  143.7990   73.2630  219.0410 C   0  0  0  0  0  0  0  0  0  0  0  0
  144.8080   72.3120  218.9260 C   0  0  0  0  0  0  0  0  0  0  0  0
  145.9570   72.3960  219.6070 N   0  0  0  0  0  0  0  0  0  0  0  0
  146.1690   73.4360  220.4460 C   0  0  0  0  0  0  0  0  0  0  0  0
  145.2000   74.4070  220.5960 C   0  0  0  0  0  0  0  0  0  0  0  0
  139.9960   71.2750  223.7850 C   0  0  0  0  0  0  0  0  0  0  0  0
  139.5380   69.9640  223.6320 C   0  0  0  0  0  0  0  0  0  0  0  0
  139.5840   69.0800  224.6830 C   0  0  0  0  0  0  0  0  0  0  0  0
  140.0850   69.4870  225.8980 C   0  0  0  0  0  0  0  0  0  0  0  0
  140.1200   68.5810  226.9380 C   0  0  0  0  0  0  0  0  0  0  0  0
  140.6240   68.9910  228.1570 C   0  0  0  0  0  0  0  0  0  0  0  0
  140.6410   68.0710  229.1510 F   0  0  0  0  0  0  0  0  0  0  0  0
  141.0810   70.2830  228.3250 C   0  0  0  0  0  0  0  0  0  0  0  0
  141.0450   71.1980  227.2720 C   0  0  0  0  0  0  0  0  0  0  0  0
  140.5380   70.7970  226.0340 C   0  0  0  0  0  0  0  0  0  0  0  0
  140.4720   71.6160  224.9840 N   0  0  0  0  0  0  0  0  0  0  0  0
  137.8930   72.6790  223.0380 H   0  0  0  0  0  0  0  0  0  0  0  0
  139.6175   73.8373  220.7944 H   0  0  0  0  0  0  0  0  0  0  0  0
  137.8475   73.4401  220.6085 H   0  0  0  0  0  0  0  0  0  0  0  0
  138.3186   77.8019  219.9687 H   0  0  0  0  0  0  0  0  0  0  0  0
  137.0764   77.4719  221.1210 H   0  0  0  0  0  0  0  0  0  0  0  0
  138.9703   79.5279  221.3864 H   0  0  0  0  0  0  0  0  0  0  0  0
  138.1586   78.8036  222.7990 H   0  0  0  0  0  0  0  0  0  0  0  0
  140.9515   78.7515  222.2501 H   0  0  0  0  0  0  0  0  0  0  0  0
  140.1729   77.7913  223.4741 H   0  0  0  0  0  0  0  0  0  0  0  0
  140.6264   76.9458  220.4395 H   0  0  0  0  0  0  0  0  0  0  0  0
  142.2478   76.6345  222.0420 H   0  0  0  0  0  0  0  0  0  0  0  0
  141.0007   75.3366  222.6242 H   0  0  0  0  0  0  0  0  0  0  0  0
  142.1280   74.0950  221.3630 H   0  0  0  0  0  0  0  0  0  0  0  0
  143.5124   76.2028  220.6689 H   0  0  0  0  0  0  0  0  0  0  0  0
  140.8062   74.8068  218.5808 H   0  0  0  0  0  0  0  0  0  0  0  0
  140.1156   75.8105  216.4425 H   0  0  0  0  0  0  0  0  0  0  0  0
  141.4882   77.6104  215.4063 H   0  0  0  0  0  0  0  0  0  0  0  0
  143.5563   78.3692  216.5673 H   0  0  0  0  0  0  0  0  0  0  0  0
  144.2311   77.3603  218.6971 H   0  0  0  0  0  0  0  0  0  0  0  0
  142.8642   73.1684  218.4689 H   0  0  0  0  0  0  0  0  0  0  0  0
  144.6555   71.4583  218.2493 H   0  0  0  0  0  0  0  0  0  0  0  0
  147.1121   73.5074  221.0076 H   0  0  0  0  0  0  0  0  0  0  0  0
  145.3763   75.2513  221.2787 H   0  0  0  0  0  0  0  0  0  0  0  0
  139.1370   69.6365  222.6615 H   0  0  0  0  0  0  0  0  0  0  0  0
  139.2212   68.0497  224.5533 H   0  0  0  0  0  0  0  0  0  0  0  0
  139.7540   67.5530  226.7992 H   0  0  0  0  0  0  0  0  0  0  0  0
  141.4788   70.5952  229.3019 H   0  0  0  0  0  0  0  0  0  0  0  0
  141.4123   72.2249  227.4156 H   0  0  0  0  0  0  0  0  0  0  0  0
  1  2  2  0
  2  3  1  0
  3  4  1  0
  4  5  1  0
  5  6  2  0
  5  7  1  0
  7  8  1  0
  8  9  1  0
  9 10  1  0
 10 11  1  0
 11 12  1  0
 12 13  1  0
 13 14  1  0
 14 15  1  0
 15 16  2  0
 16 17  1  0
 17 18  2  0
 18 19  1  0
 19 20  2  0
 14 21  1  0
 21 22  2  0
 22 23  1  0
 23 24  2  0
 24 25  1  0
 25 26  2  0
  2 27  1  0
 27 28  2  0
 28 29  1  0
 29 30  2  0
 30 31  1  0
 31 32  2  0
 32 33  1  0
 32 34  1  0
 34 35  2  0
 35 36  1  0
 36 37  2  0
 11  7  1  0
 20 15  1  0
 26 21  1  0
 37 27  1  0
 36 30  1  0
  3 38  1  0
  4 39  1  0
  4 40  1  0
  8 41  1  0
  8 42  1  0
  9 43  1  0
  9 44  1  0
 10 45  1  0
 10 46  1  0
 11 47  1  6
 12 48  1  0
 12 49  1  0
 13 50  1  0
 14 51  1  1
 16 52  1  0
 17 53  1  0
 18 54  1  0
 19 55  1  0
 20 56  1  0
 22 57  1  0
 23 58  1  0
 25 59  1  0
 26 60  1  0
 28 61  1  0
 29 62  1  0
 31 63  1  0
 34 64  1  0
 35 65  1  0
M  END
>  <smiles>  (35) 
O=C(NCC(=O)N1CCC[C@H]1CNC(c1ccccc1)c1ccncc1)c1ccc2cc(F)ccc2n1

>  <score_type>  (35) 
oracle

>  <origin>  (35) 
autodockgpu

>  <m_score__min__energy>  (35) 
-9.6600000000000001

>  <m_primary>  (35) 
energy

>  <rmsd>  (35) 
4.003319118582284

>  <m_score__min__rmsd>  (35) 
4.003319118582284

>  <meeko>  (35) 
{"free_energy": -8.57, "intermolecular_energy": -11.25, "internal_energy": -3.21, "cluster_size": 2, "cluster_id": 6, "rank_in_cluster": 2}

>  <energy>  (35) 
-8.7

>  <cluster_rmsd>  (35) 
1.92

>  <cluster>  (35) 
3

$$$$

     RDKit          3D

 65 69  0  0  1  0  0  0  0  0999 V2000
  140.2280   70.9680  221.3520 O   0  0  0  0  0  0  0  0  0  0  0  0
  139.9970   71.5610  222.4320 C   0  0  0  0  0  0  0  0  0  0  0  0
  139.7590   72.9570  222.5340 N   0  0  0  0  0  0  0  0  0  0  0  0
  139.7860   73.7480  221.3030 C   0  0  0  0  0  0  0  0  0  0  0  0
  140.9610   74.5910  221.1950 C   0  0  0  0  0  0  0  0  0  0  0  0
  141.1420   75.4390  222.1570 O   0  0  0  0  0  0  0  0  0  0  0  0
  141.9380   74.6200  220.1910 N   0  0  0  0  0  0  0  0  0  0  0  0
  142.6140   73.3410  219.7930 C   0  0  0  0  0  0  0  0  0  0  0  0
  142.5570   73.4960  218.2900 C   0  0  0  0  0  0  0  0  0  0  0  0
  142.3230   74.9590  217.9880 C   0  0  0  0  0  0  0  0  0  0  0  0
  142.5480   75.5940  219.3750 C   0  0  1  0  0  0  0  0  0  0  0  0
  142.2180   77.0000  219.4280 C   0  0  0  0  0  0  0  0  0  0  0  0
  142.2060   77.7060  220.6420 N   0  0  0  0  0  0  0  0  0  0  0  0
  141.1530   78.6540  220.8120 C   0  0  2  0  0  0  0  0  0  0  0  0
  141.4890   79.6920  221.8130 C   0  0  0  0  0  0  0  0  0  0  0  0
  141.0490   80.9970  221.7420 C   0  0  0  0  0  0  0  0  0  0  0  0
  141.3740   81.9540  222.6900 C   0  0  0  0  0  0  0  0  0  0  0  0
  142.1720   81.6170  223.7610 C   0  0  0  0  0  0  0  0  0  0  0  0
  142.6320   80.3160  223.8620 C   0  0  0  0  0  0  0  0  0  0  0  0
  142.2980   79.3820  222.9120 C   0  0  0  0  0  0  0  0  0  0  0  0
  139.8400   78.0210  221.1060 C   0  0  0  0  0  0  0  0  0  0  0  0
  139.0010   77.5330  220.1250 C   0  0  0  0  0  0  0  0  0  0  0  0
  137.7950   76.9600  220.5200 C   0  0  0  0  0  0  0  0  0  0  0  0
  137.4290   76.8690  221.8040 N   0  0  0  0  0  0  0  0  0  0  0  0
  138.2440   77.3450  222.7740 C   0  0  0  0  0  0  0  0  0  0  0  0
  139.4510   77.9220  222.4350 C   0  0  0  0  0  0  0  0  0  0  0  0
  139.9670   70.7800  223.6810 C   0  0  0  0  0  0  0  0  0  0  0  0
  139.3680   69.5180  223.6990 C   0  0  0  0  0  0  0  0  0  0  0  0
  139.3320   68.7770  224.8550 C   0  0  0  0  0  0  0  0  0  0  0  0
  139.8900   69.2810  226.0080 C   0  0  0  0  0  0  0  0  0  0  0  0
  139.8410   68.5170  227.1560 C   0  0  0  0  0  0  0  0  0  0  0  0
  140.4020   69.0240  228.3130 C   0  0  0  0  0  0  0  0  0  0  0  0
  140.3330   68.2440  229.4180 F   0  0  0  0  0  0  0  0  0  0  0  0
  140.9980   70.2690  228.3120 C   0  0  0  0  0  0  0  0  0  0  0  0
  141.0460   71.0400  227.1490 C   0  0  0  0  0  0  0  0  0  0  0  0
  140.4830   70.5400  225.9730 C   0  0  0  0  0  0  0  0  0  0  0  0
  140.4930   71.2190  224.8260 N   0  0  0  0  0  0  0  0  0  0  0  0
  139.5730   73.3790  223.4710 H   0  0  0  0  0  0  0  0  0  0  0  0
  139.7681   73.0605  220.4445 H   0  0  0  0  0  0  0  0  0  0  0  0
  138.9074   74.4097  221.3186 H   0  0  0  0  0  0  0  0  0  0  0  0
  143.6487   73.2898  220.1627 H   0  0  0  0  0  0  0  0  0  0  0  0
  142.1566   72.4227  220.1899 H   0  0  0  0  0  0  0  0  0  0  0  0
  143.5073   73.1684  217.8432 H   0  0  0  0  0  0  0  0  0  0  0  0
  141.7476   72.8812  217.8694 H   0  0  0  0  0  0  0  0  0  0  0  0
  143.0449   75.3382  217.2497 H   0  0  0  0  0  0  0  0  0  0  0  0
  141.3386   75.1761  217.5477 H   0  0  0  0  0  0  0  0  0  0  0  0
  143.5739   75.7592  219.7359 H   0  0  0  0  0  0  0  0  0  0  0  0
  142.9417   77.5133  218.7778 H   0  0  0  0  0  0  0  0  0  0  0  0
  141.1559   77.0043  219.1417 H   0  0  0  0  0  0  0  0  0  0  0  0
  142.2470   77.0900  221.4740 H   0  0  0  0  0  0  0  0  0  0  0  0
  141.0475   79.1556  219.8387 H   0  0  0  0  0  0  0  0  0  0  0  0
  140.4117   81.2914  220.8952 H   0  0  0  0  0  0  0  0  0  0  0  0
  140.9952   82.9816  222.5874 H   0  0  0  0  0  0  0  0  0  0  0  0
  142.4381   82.3669  224.5205 H   0  0  0  0  0  0  0  0  0  0  0  0
  143.2704   80.0274  224.7100 H   0  0  0  0  0  0  0  0  0  0  0  0
  142.6793   78.3557  223.0186 H   0  0  0  0  0  0  0  0  0  0  0  0
  139.2770   77.5949  219.0620 H   0  0  0  0  0  0  0  0  0  0  0  0
  137.1175   76.5673  219.7475 H   0  0  0  0  0  0  0  0  0  0  0  0
  137.9451   77.2722  223.8301 H   0  0  0  0  0  0  0  0  0  0  0  0
  140.1115   78.3073  223.2258 H   0  0  0  0  0  0  0  0  0  0  0  0
  138.9210   69.1139  222.7787 H   0  0  0  0  0  0  0  0  0  0  0  0
  138.8588   67.7840  224.8594 H   0  0  0  0  0  0  0  0  0  0  0  0
  139.3654   67.5251  227.1505 H   0  0  0  0  0  0  0  0  0  0  0  0
  141.4412   70.6590  229.2401 H   0  0  0  0  0  0  0  0  0  0  0  0
  141.5225   72.0314  227.1590 H   0  0  0  0  0  0  0  0  0  0  0  0
  1  2  2  0
  2  3  1  0
  3  4  1  0
  4  5  1  0
  5  6  2  0
  5  7  1  0
  7  8  1  0
  8  9  1  0
  9 10  1  0
 10 11  1  0
 11 12  1  0
 12 13  1  0
 13 14  1  0
 14 15  1  0
 15 16  2  0
 16 17  1  0
 17 18  2  0
 18 19  1  0
 19 20  2  0
 14 21  1  0
 21 22  2  0
 22 23  1  0
 23 24  2  0
 24 25  1  0
 25 26  2  0
  2 27  1  0
 27 28  2  0
 28 29  1  0
 29 30  2  0
 30 31  1  0
 31 32  2  0
 32 33  1  0
 32 34  1  0
 34 35  2  0
 35 36  1  0
 36 37  2  0
 11  7  1  0
 20 15  1  0
 26 21  1  0
 37 27  1  0
 36 30  1  0
  3 38  1  0
  4 39  1  0
  4 40  1  0
  8 41  1  0
  8 42  1  0
  9 43  1  0
  9 44  1  0
 10 45  1  0
 10 46  1  0
 11 47  1  1
 12 48  1  0
 12 49  1  0
 13 50  1  0
 14 51  1  6
 16 52  1  0
 17 53  1  0
 18 54  1  0
 19 55  1  0
 20 56  1  0
 22 57  1  0
 23 58  1  0
 25 59  1  0
 26 60  1  0
 28 61  1  0
 29 62  1  0
 31 63  1  0
 34 64  1  0
 35 65  1  0
M  END
>  <smiles>  (36) 
O=C(NCC(=O)N1CCC[C@H]1CNC(c1ccccc1)c1ccncc1)c1ccc2cc(F)ccc2n1

>  <score_type>  (36) 
oracle

>  <origin>  (36) 
autodockgpu

>  <m_score__min__energy>  (36) 
-9.6600000000000001

>  <m_primary>  (36) 
energy

>  <rmsd>  (36) 
2.536038954543829

>  <m_score__min__rmsd>  (36) 
2.536038954543829

>  <meeko>  (36) 
{"free_energy": -9.41, "intermolecular_energy": -12.1, "internal_energy": -3.42, "cluster_size": 24, "cluster_id": 1, "rank_in_cluster": 5}

>  <energy>  (36) 
-8.66

>  <cluster_rmsd>  (36) 
1.82

>  <cluster>  (36) 
3

$$$$

     RDKit          3D

 65 69  0  0  1  0  0  0  0  0999 V2000
  141.9950   77.8070  217.2320 O   0  0  0  0  0  0  0  0  0  0  0  0
  142.4600   77.4310  218.3350 C   0  0  0  0  0  0  0  0  0  0  0  0
  142.3410   78.1730  219.5390 N   0  0  0  0  0  0  0  0  0  0  0  0
  141.6340   79.4540  219.4870 C   0  0  0  0  0  0  0  0  0  0  0  0
  141.7970   80.2410  220.6940 C   0  0  0  0  0  0  0  0  0  0  0  0
  141.6660   81.5220  220.5590 O   0  0  0  0  0  0  0  0  0  0  0  0
  142.0780   79.8100  221.9980 N   0  0  0  0  0  0  0  0  0  0  0  0
  142.9710   80.6460  222.8660 C   0  0  0  0  0  0  0  0  0  0  0  0
  142.1670   80.6100  224.1450 C   0  0  0  0  0  0  0  0  0  0  0  0
  141.2140   79.4390  224.0550 C   0  0  0  0  0  0  0  0  0  0  0  0
  141.7530   78.7050  222.8100 C   0  0  1  0  0  0  0  0  0  0  0  0
  140.9130   77.6130  222.3740 C   0  0  0  0  0  0  0  0  0  0  0  0
  141.4390   76.5220  221.6620 N   0  0  0  0  0  0  0  0  0  0  0  0
  140.5700   75.9110  220.7090 C   0  0  2  0  0  0  0  0  0  0  0  0
  139.1420   76.1260  221.0340 C   0  0  0  0  0  0  0  0  0  0  0  0
  138.3430   77.0560  220.4020 C   0  0  0  0  0  0  0  0  0  0  0  0
  137.0070   77.2430  220.7210 C   0  0  0  0  0  0  0  0  0  0  0  0
  136.4230   76.4810  221.7080 C   0  0  0  0  0  0  0  0  0  0  0  0
  137.1960   75.5380  222.3620 C   0  0  0  0  0  0  0  0  0  0  0  0
  138.5190   75.3690  222.0320 C   0  0  0  0  0  0  0  0  0  0  0  0
  140.8650   74.4710  220.4900 C   0  0  0  0  0  0  0  0  0  0  0  0
  140.7410   73.8530  219.2610 C   0  0  0  0  0  0  0  0  0  0  0  0
  141.0460   72.4980  219.1760 C   0  0  0  0  0  0  0  0  0  0  0  0
  141.4510   71.7840  220.2330 N   0  0  0  0  0  0  0  0  0  0  0  0
  141.5750   72.3790  221.4420 C   0  0  0  0  0  0  0  0  0  0  0  0
  141.2850   73.7210  221.5800 C   0  0  0  0  0  0  0  0  0  0  0  0
  143.1750   76.1450  218.4040 C   0  0  0  0  0  0  0  0  0  0  0  0
  143.3540   75.3830  217.2460 C   0  0  0  0  0  0  0  0  0  0  0  0
  144.0190   74.1830  217.2940 C   0  0  0  0  0  0  0  0  0  0  0  0
  144.5130   73.7220  218.4940 C   0  0  0  0  0  0  0  0  0  0  0  0
  145.1780   72.5120  218.5160 C   0  0  0  0  0  0  0  0  0  0  0  0
  145.6740   72.0520  219.7200 C   0  0  0  0  0  0  0  0  0  0  0  0
  146.3190   70.8610  219.6990 F   0  0  0  0  0  0  0  0  0  0  0  0
  145.5050   72.7910  220.8730 C   0  0  0  0  0  0  0  0  0  0  0  0
  144.8330   74.0150  220.8480 C   0  0  0  0  0  0  0  0  0  0  0  0
  144.3270   74.4920  219.6380 C   0  0  0  0  0  0  0  0  0  0  0  0
  143.6750   75.6520  219.5380 N   0  0  0  0  0  0  0  0  0  0  0  0
  142.7550   77.7930  220.4190 H   0  0  0  0  0  0  0  0  0  0  0  0
  142.0209   80.0335  218.6359 H   0  0  0  0  0  0  0  0  0  0  0  0
  140.5616   79.2336  219.3804 H   0  0  0  0  0  0  0  0  0  0  0  0
  143.9651   80.1921  222.9918 H   0  0  0  0  0  0  0  0  0  0  0  0
  143.1972   81.6508  222.4797 H   0  0  0  0  0  0  0  0  0  0  0  0
  142.8388   80.4812  225.0065 H   0  0  0  0  0  0  0  0  0  0  0  0
  141.6115   81.5501  224.2780 H   0  0  0  0  0  0  0  0  0  0  0  0
  141.2698   78.8047  224.9519 H   0  0  0  0  0  0  0  0  0  0  0  0
  140.1542   79.7253  223.9853 H   0  0  0  0  0  0  0  0  0  0  0  0
  142.6426   78.0643  222.8999 H   0  0  0  0  0  0  0  0  0  0  0  0
  140.4487   77.1974  223.2805 H   0  0  0  0  0  0  0  0  0  0  0  0
  140.2675   78.0953  221.6252 H   0  0  0  0  0  0  0  0  0  0  0  0
  142.3490   76.7280  221.2110 H   0  0  0  0  0  0  0  0  0  0  0  0
  140.7727   76.4207  219.7555 H   0  0  0  0  0  0  0  0  0  0  0  0
  138.7858   77.6770  219.6094 H   0  0  0  0  0  0  0  0  0  0  0  0
  136.4140   77.9994  220.1861 H   0  0  0  0  0  0  0  0  0  0  0  0
  135.3639   76.6191  221.9711 H   0  0  0  0  0  0  0  0  0  0  0  0
  136.7476   74.9185  223.1527 H   0  0  0  0  0  0  0  0  0  0  0  0
  139.1085   74.6126  222.5709 H   0  0  0  0  0  0  0  0  0  0  0  0
  140.4108   74.4155  218.3753 H   0  0  0  0  0  0  0  0  0  0  0  0
  140.9506   71.9944  218.2027 H   0  0  0  0  0  0  0  0  0  0  0  0
  141.9062   71.7942  222.3128 H   0  0  0  0  0  0  0  0  0  0  0  0
  141.3877   74.2016  222.5641 H   0  0  0  0  0  0  0  0  0  0  0  0
  142.9582   75.7484  216.2869 H   0  0  0  0  0  0  0  0  0  0  0  0
  144.1568   73.5915  216.3769 H   0  0  0  0  0  0  0  0  0  0  0  0
  145.3099   71.9268  217.5940 H   0  0  0  0  0  0  0  0  0  0  0  0
  145.9050   72.4109  221.8246 H   0  0  0  0  0  0  0  0  0  0  0  0
  144.7039   74.5971  221.7724 H   0  0  0  0  0  0  0  0  0  0  0  0
  1  2  2  0
  2  3  1  0
  3  4  1  0
  4  5  1  0
  5  6  2  0
  5  7  1  0
  7  8  1  0
  8  9  1  0
  9 10  1  0
 10 11  1  0
 11 12  1  0
 12 13  1  0
 13 14  1  0
 14 15  1  0
 15 16  2  0
 16 17  1  0
 17 18  2  0
 18 19  1  0
 19 20  2  0
 14 21  1  0
 21 22  2  0
 22 23  1  0
 23 24  2  0
 24 25  1  0
 25 26  2  0
  2 27  1  0
 27 28  2  0
 28 29  1  0
 29 30  2  0
 30 31  1  0
 31 32  2  0
 32 33  1  0
 32 34  1  0
 34 35  2  0
 35 36  1  0
 36 37  2  0
 11  7  1  0
 20 15  1  0
 26 21  1  0
 37 27  1  0
 36 30  1  0
  3 38  1  0
  4 39  1  0
  4 40  1  0
  8 41  1  0
  8 42  1  0
  9 43  1  0
  9 44  1  0
 10 45  1  0
 10 46  1  0
 11 47  1  1
 12 48  1  0
 12 49  1  0
 13 50  1  0
 14 51  1  6
 16 52  1  0
 17 53  1  0
 18 54  1  0
 19 55  1  0
 20 56  1  0
 22 57  1  0
 23 58  1  0
 25 59  1  0
 26 60  1  0
 28 61  1  0
 29 62  1  0
 31 63  1  0
 34 64  1  0
 35 65  1  0
M  END
>  <smiles>  (37) 
O=C(NCC(=O)N1CCC[C@H]1CNC(c1ccccc1)c1ccncc1)c1ccc2cc(F)ccc2n1

>  <score_type>  (37) 
oracle

>  <origin>  (37) 
autodockgpu

>  <m_score__min__energy>  (37) 
-9.6600000000000001

>  <m_primary>  (37) 
energy

>  <rmsd>  (37) 
7.5087414499151

>  <m_score__min__rmsd>  (37) 
7.5087414499151

>  <meeko>  (37) 
{"free_energy": -6.69, "intermolecular_energy": -9.38, "internal_energy": -5.23, "cluster_size": 1, "cluster_id": 9, "rank_in_cluster": 1}

>  <energy>  (37) 
-9.21

>  <cluster_rmsd>  (37) 
0.0

>  <cluster>  (37) 
4

$$$$

     RDKit          3D

 65 69  0  0  1  0  0  0  0  0999 V2000
  141.2130   72.3600  221.6720 O   0  0  0  0  0  0  0  0  0  0  0  0
  140.2310   72.4450  222.4470 C   0  0  0  0  0  0  0  0  0  0  0  0
  139.1630   73.3660  222.2750 N   0  0  0  0  0  0  0  0  0  0  0  0
  139.2160   74.2680  221.1230 C   0  0  0  0  0  0  0  0  0  0  0  0
  140.3420   75.1800  221.1680 C   0  0  0  0  0  0  0  0  0  0  0  0
  140.6980   75.5850  222.3450 O   0  0  0  0  0  0  0  0  0  0  0  0
  141.1080   75.6900  220.1100 N   0  0  0  0  0  0  0  0  0  0  0  0
  141.7710   77.0260  220.2680 C   0  0  0  0  0  0  0  0  0  0  0  0
  143.1350   76.6860  219.7120 C   0  0  0  0  0  0  0  0  0  0  0  0
  142.9930   75.4250  218.8900 C   0  0  0  0  0  0  0  0  0  0  0  0
  141.4600   75.2880  218.8060 C   0  0  1  0  0  0  0  0  0  0  0  0
  141.0210   74.0480  218.2070 C   0  0  0  0  0  0  0  0  0  0  0  0
  141.0070   72.8470  218.9340 N   0  0  0  0  0  0  0  0  0  0  0  0
  141.9690   71.8650  218.5500 C   0  0  2  0  0  0  0  0  0  0  0  0
  141.6420   70.5220  219.0810 C   0  0  0  0  0  0  0  0  0  0  0  0
  140.4410   70.2060  219.6800 C   0  0  0  0  0  0  0  0  0  0  0  0
  140.1530   68.9420  220.1710 C   0  0  0  0  0  0  0  0  0  0  0  0
  141.0880   67.9370  220.0710 C   0  0  0  0  0  0  0  0  0  0  0  0
  142.3050   68.2200  219.4760 C   0  0  0  0  0  0  0  0  0  0  0  0
  142.5710   69.4800  218.9950 C   0  0  0  0  0  0  0  0  0  0  0  0
  143.3650   72.2550  218.8840 C   0  0  0  0  0  0  0  0  0  0  0  0
  143.8320   72.3520  220.1800 C   0  0  0  0  0  0  0  0  0  0  0  0
  145.1590   72.7260  220.3710 C   0  0  0  0  0  0  0  0  0  0  0  0
  145.9850   72.9900  219.3520 N   0  0  0  0  0  0  0  0  0  0  0  0
  145.5380   72.8990  218.0780 C   0  0  0  0  0  0  0  0  0  0  0  0
  144.2300   72.5310  217.8340 C   0  0  0  0  0  0  0  0  0  0  0  0
  140.1620   71.5460  223.6110 C   0  0  0  0  0  0  0  0  0  0  0  0
  139.6110   70.2680  223.4730 C   0  0  0  0  0  0  0  0  0  0  0  0
  139.5410   69.4170  224.5480 C   0  0  0  0  0  0  0  0  0  0  0  0
  140.0150   69.8230  225.7750 C   0  0  0  0  0  0  0  0  0  0  0  0
  139.9330   68.9500  226.8400 C   0  0  0  0  0  0  0  0  0  0  0  0
  140.4100   69.3580  228.0700 C   0  0  0  0  0  0  0  0  0  0  0  0
  140.3100   68.4720  229.0890 F   0  0  0  0  0  0  0  0  0  0  0  0
  140.9570   70.6170  228.2240 C   0  0  0  0  0  0  0  0  0  0  0  0
  141.0400   71.4990  227.1450 C   0  0  0  0  0  0  0  0  0  0  0  0
  140.5610   71.0980  225.8960 C   0  0  0  0  0  0  0  0  0  0  0  0
  140.6070   71.8870  224.8210 N   0  0  0  0  0  0  0  0  0  0  0  0
  138.3780   73.3750  222.9630 H   0  0  0  0  0  0  0  0  0  0  0  0
  139.2915   73.6630  220.2075 H   0  0  0  0  0  0  0  0  0  0  0  0
  138.2996   74.8762  221.1393 H   0  0  0  0  0  0  0  0  0  0  0  0
  141.2690   77.8070  219.6781 H   0  0  0  0  0  0  0  0  0  0  0  0
  141.7671   77.4362  221.2887 H   0  0  0  0  0  0  0  0  0  0  0  0
  143.4969   77.5084  219.0775 H   0  0  0  0  0  0  0  0  0  0  0  0
  143.8578   76.5359  220.5275 H   0  0  0  0  0  0  0  0  0  0  0  0
  143.4418   75.5422  217.8926 H   0  0  0  0  0  0  0  0  0  0  0  0
  143.5000   74.5485  219.3197 H   0  0  0  0  0  0  0  0  0  0  0  0
  140.8992   75.9032  218.0870 H   0  0  0  0  0  0  0  0  0  0  0  0
  139.9889   74.2164  217.8659 H   0  0  0  0  0  0  0  0  0  0  0  0
  141.8008   73.8598  217.4543 H   0  0  0  0  0  0  0  0  0  0  0  0
  141.0550   72.9880  219.9600 H   0  0  0  0  0  0  0  0  0  0  0  0
  141.9127   71.8094  217.4529 H   0  0  0  0  0  0  0  0  0  0  0  0
  139.6771   70.9921  219.7724 H   0  0  0  0  0  0  0  0  0  0  0  0
  139.1782   68.7425  220.6401 H   0  0  0  0  0  0  0  0  0  0  0  0
  140.8724   66.9294  220.4561 H   0  0  0  0  0  0  0  0  0  0  0  0
  143.0656   67.4303  219.3872 H   0  0  0  0  0  0  0  0  0  0  0  0
  143.5471   69.6753  218.5268 H   0  0  0  0  0  0  0  0  0  0  0  0
  143.1746   72.1399  221.0361 H   0  0  0  0  0  0  0  0  0  0  0  0
  145.5432   72.8076  221.3985 H   0  0  0  0  0  0  0  0  0  0  0  0
  146.2150   73.1177  217.2391 H   0  0  0  0  0  0  0  0  0  0  0  0
  143.8697   72.4558  216.7974 H   0  0  0  0  0  0  0  0  0  0  0  0
  139.2301   69.9416  222.4940 H   0  0  0  0  0  0  0  0  0  0  0  0
  139.1072   68.4132  224.4292 H   0  0  0  0  0  0  0  0  0  0  0  0
  139.4962   67.9486  226.7119 H   0  0  0  0  0  0  0  0  0  0  0  0
  141.3322   70.9288  229.2099 H   0  0  0  0  0  0  0  0  0  0  0  0
  141.4781   72.4993  227.2773 H   0  0  0  0  0  0  0  0  0  0  0  0
  1  2  2  0
  2  3  1  0
  3  4  1  0
  4  5  1  0
  5  6  2  0
  5  7  1  0
  7  8  1  0
  8  9  1  0
  9 10  1  0
 10 11  1  0
 11 12  1  0
 12 13  1  0
 13 14  1  0
 14 15  1  0
 15 16  2  0
 16 17  1  0
 17 18  2  0
 18 19  1  0
 19 20  2  0
 14 21  1  0
 21 22  2  0
 22 23  1  0
 23 24  2  0
 24 25  1  0
 25 26  2  0
  2 27  1  0
 27 28  2  0
 28 29  1  0
 29 30  2  0
 30 31  1  0
 31 32  2  0
 32 33  1  0
 32 34  1  0
 34 35  2  0
 35 36  1  0
 36 37  2  0
 11  7  1  0
 20 15  1  0
 26 21  1  0
 37 27  1  0
 36 30  1  0
  3 38  1  0
  4 39  1  0
  4 40  1  0
  8 41  1  0
  8 42  1  0
  9 43  1  0
  9 44  1  0
 10 45  1  0
 10 46  1  0
 11 47  1  6
 12 48  1  0
 12 49  1  0
 13 50  1  0
 14 51  1  6
 16 52  1  0
 17 53  1  0
 18 54  1  0
 19 55  1  0
 20 56  1  0
 22 57  1  0
 23 58  1  0
 25 59  1  0
 26 60  1  0
 28 61  1  0
 29 62  1  0
 31 63  1  0
 34 64  1  0
 35 65  1  0
M  END
>  <smiles>  (38) 
O=C(NCC(=O)N1CCC[C@H]1CNC(c1ccccc1)c1ccncc1)c1ccc2cc(F)ccc2n1

>  <score_type>  (38) 
oracle

>  <origin>  (38) 
autodockgpu

>  <m_score__min__energy>  (38) 
-9.6600000000000001

>  <m_primary>  (38) 
energy

>  <rmsd>  (38) 
6.377301845753526

>  <m_score__min__rmsd>  (38) 
6.377301845753526

>  <meeko>  (38) 
{"free_energy": -7.79, "intermolecular_energy": -10.48, "internal_energy": -4.12, "cluster_size": 1, "cluster_id": 8, "rank_in_cluster": 1}

>  <energy>  (38) 
-9.03

>  <cluster_rmsd>  (38) 
1.07

>  <cluster>  (38) 
4

$$$$

     RDKit          3D

 65 69  0  0  1  0  0  0  0  0999 V2000
  140.0380   73.0830  222.7080 O   0  0  0  0  0  0  0  0  0  0  0  0
  140.0590   71.8310  222.7840 C   0  0  0  0  0  0  0  0  0  0  0  0
  139.8740   70.9670  221.6720 N   0  0  0  0  0  0  0  0  0  0  0  0
  139.6450   71.5770  220.3610 C   0  0  0  0  0  0  0  0  0  0  0  0
  140.8570   72.0900  219.7540 C   0  0  0  0  0  0  0  0  0  0  0  0
  140.8220   72.2610  218.4710 O   0  0  0  0  0  0  0  0  0  0  0  0
  142.0730   72.4320  220.3620 N   0  0  0  0  0  0  0  0  0  0  0  0
  143.0610   71.3480  220.6770 C   0  0  0  0  0  0  0  0  0  0  0  0
  144.3210   72.0190  220.1790 C   0  0  0  0  0  0  0  0  0  0  0  0
  144.0460   73.5030  220.0890 C   0  0  0  0  0  0  0  0  0  0  0  0
  142.6980   73.6060  220.8290 C   0  0  1  0  0  0  0  0  0  0  0  0
  142.0930   74.9170  220.7500 C   0  0  0  0  0  0  0  0  0  0  0  0
  141.3860   75.4650  221.8320 N   0  0  0  0  0  0  0  0  0  0  0  0
  140.4410   76.4870  221.5170 C   0  0  2  0  0  0  0  0  0  0  0  0
  140.7740   77.7770  222.1610 C   0  0  0  0  0  0  0  0  0  0  0  0
  141.4680   77.8860  223.3480 C   0  0  0  0  0  0  0  0  0  0  0  0
  141.7710   79.1040  223.9350 C   0  0  0  0  0  0  0  0  0  0  0  0
  141.3750   80.2760  223.3310 C   0  0  0  0  0  0  0  0  0  0  0  0
  140.6760   80.2030  222.1390 C   0  0  0  0  0  0  0  0  0  0  0  0
  140.3860   78.9860  221.5720 C   0  0  0  0  0  0  0  0  0  0  0  0
  139.0360   76.0880  221.7970 C   0  0  0  0  0  0  0  0  0  0  0  0
  138.3950   75.0630  221.1290 C   0  0  0  0  0  0  0  0  0  0  0  0
  137.0780   74.7780  221.4770 C   0  0  0  0  0  0  0  0  0  0  0  0
  136.4220   75.4570  222.4250 N   0  0  0  0  0  0  0  0  0  0  0  0
  137.0400   76.4640  223.0850 C   0  0  0  0  0  0  0  0  0  0  0  0
  138.3470   76.7870  222.7780 C   0  0  0  0  0  0  0  0  0  0  0  0
  140.2890   71.2010  224.0950 C   0  0  0  0  0  0  0  0  0  0  0  0
  140.7830   71.9630  225.1580 C   0  0  0  0  0  0  0  0  0  0  0  0
  141.0020   71.3910  226.3870 C   0  0  0  0  0  0  0  0  0  0  0  0
  140.7330   70.0540  226.5760 C   0  0  0  0  0  0  0  0  0  0  0  0
  140.9610   69.5020  227.8210 C   0  0  0  0  0  0  0  0  0  0  0  0
  140.6910   68.1610  228.0100 C   0  0  0  0  0  0  0  0  0  0  0  0
  140.9280   67.6580  229.2450 F   0  0  0  0  0  0  0  0  0  0  0  0
  140.2020   67.3940  226.9710 C   0  0  0  0  0  0  0  0  0  0  0  0
  139.9720   67.9540  225.7140 C   0  0  0  0  0  0  0  0  0  0  0  0
  140.2410   69.3090  225.5080 C   0  0  0  0  0  0  0  0  0  0  0  0
  140.0450   69.9120  224.3350 N   0  0  0  0  0  0  0  0  0  0  0  0
  139.9070   69.9330  221.8160 H   0  0  0  0  0  0  0  0  0  0  0  0
  139.2125   70.8182  219.6923 H   0  0  0  0  0  0  0  0  0  0  0  0
  138.9659   72.4295  220.5096 H   0  0  0  0  0  0  0  0  0  0  0  0
  143.1072   71.1334  221.7549 H   0  0  0  0  0  0  0  0  0  0  0  0
  142.8419   70.3663  220.2318 H   0  0  0  0  0  0  0  0  0  0  0  0
  145.1472   71.8329  220.8809 H   0  0  0  0  0  0  0  0  0  0  0  0
  144.6073   71.6196  219.1949 H   0  0  0  0  0  0  0  0  0  0  0  0
  144.8283   74.0888  220.5939 H   0  0  0  0  0  0  0  0  0  0  0  0
  144.0271   73.8961  219.0618 H   0  0  0  0  0  0  0  0  0  0  0  0
  142.6817   73.5972  221.9288 H   0  0  0  0  0  0  0  0  0  0  0  0
  142.9069   75.6212  220.5225 H   0  0  0  0  0  0  0  0  0  0  0  0
  141.3009   74.7671  220.0016 H   0  0  0  0  0  0  0  0  0  0  0  0
  140.9290   74.7510  222.4270 H   0  0  0  0  0  0  0  0  0  0  0  0
  140.5152   76.6322  220.4291 H   0  0  0  0  0  0  0  0  0  0  0  0
  141.7957   76.9644  223.8513 H   0  0  0  0  0  0  0  0  0  0  0  0
  142.3277   79.1345  224.8832 H   0  0  0  0  0  0  0  0  0  0  0  0
  141.6092   81.2496  223.7862 H   0  0  0  0  0  0  0  0  0  0  0  0
  140.3496   81.1279  221.6410 H   0  0  0  0  0  0  0  0  0  0  0  0
  139.8301   78.9607  220.6231 H   0  0  0  0  0  0  0  0  0  0  0  0
  138.9103   74.4888  220.3449 H   0  0  0  0  0  0  0  0  0  0  0  0
  136.5566   73.9636  220.9528 H   0  0  0  0  0  0  0  0  0  0  0  0
  136.5023   77.0240  223.8643 H   0  0  0  0  0  0  0  0  0  0  0  0
  138.8467   77.6060  223.3161 H   0  0  0  0  0  0  0  0  0  0  0  0
  140.9984   73.0313  225.0084 H   0  0  0  0  0  0  0  0  0  0  0  0
  141.3909   71.9987  227.2174 H   0  0  0  0  0  0  0  0  0  0  0  0
  141.3497   70.1179  228.6454 H   0  0  0  0  0  0  0  0  0  0  0  0
  139.9910   66.3272  227.1366 H   0  0  0  0  0  0  0  0  0  0  0  0
  139.5825   67.3342  224.8929 H   0  0  0  0  0  0  0  0  0  0  0  0
  1  2  2  0
  2  3  1  0
  3  4  1  0
  4  5  1  0
  5  6  2  0
  5  7  1  0
  7  8  1  0
  8  9  1  0
  9 10  1  0
 10 11  1  0
 11 12  1  0
 12 13  1  0
 13 14  1  0
 14 15  1  0
 15 16  2  0
 16 17  1  0
 17 18  2  0
 18 19  1  0
 19 20  2  0
 14 21  1  0
 21 22  2  0
 22 23  1  0
 23 24  2  0
 24 25  1  0
 25 26  2  0
  2 27  1  0
 27 28  2  0
 28 29  1  0
 29 30  2  0
 30 31  1  0
 31 32  2  0
 32 33  1  0
 32 34  1  0
 34 35  2  0
 35 36  1  0
 36 37  2  0
 11  7  1  0
 20 15  1  0
 26 21  1  0
 37 27  1  0
 36 30  1  0
  3 38  1  0
  4 39  1  0
  4 40  1  0
  8 41  1  0
  8 42  1  0
  9 43  1  0
  9 44  1  0
 10 45  1  0
 10 46  1  0
 11 47  1  1
 12 48  1  0
 12 49  1  0
 13 50  1  0
 14 51  1  6
 16 52  1  0
 17 53  1  0
 18 54  1  0
 19 55  1  0
 20 56  1  0
 22 57  1  0
 23 58  1  0
 25 59  1  0
 26 60  1  0
 28 61  1  0
 29 62  1  0
 31 63  1  0
 34 64  1  0
 35 65  1  0
M  END
>  <smiles>  (39) 
O=C(NCC(=O)N1CCC[C@H]1CNC(c1ccccc1)c1ccncc1)c1ccc2cc(F)ccc2n1

>  <score_type>  (39) 
oracle

>  <origin>  (39) 
autodockgpu

>  <m_score__min__energy>  (39) 
-9.6600000000000001

>  <m_primary>  (39) 
energy

>  <rmsd>  (39) 
4.148801696174525

>  <m_score__min__rmsd>  (39) 
4.148801696174525

>  <meeko>  (39) 
{"free_energy": -8.49, "intermolecular_energy": -11.17, "internal_energy": -3.7, "cluster_size": 24, "cluster_id": 1, "rank_in_cluster": 20}

>  <energy>  (39) 
-9.07

>  <cluster_rmsd>  (39) 
0.0

>  <cluster>  (39) 
5

$$$$

     RDKit          3D

 65 69  0  0  1  0  0  0  0  0999 V2000
  139.1370   70.2140  221.5670 O   0  0  0  0  0  0  0  0  0  0  0  0
  139.3210   70.8290  222.6450 C   0  0  0  0  0  0  0  0  0  0  0  0
  139.3060   72.2440  222.7620 N   0  0  0  0  0  0  0  0  0  0  0  0
  139.0630   73.0290  221.5500 C   0  0  0  0  0  0  0  0  0  0  0  0
  139.4140   74.4270  221.7010 C   0  0  0  0  0  0  0  0  0  0  0  0
  140.6740   74.6830  221.8590 O   0  0  0  0  0  0  0  0  0  0  0  0
  138.5790   75.5530  221.7000 N   0  0  0  0  0  0  0  0  0  0  0  0
  137.1170   75.3770  221.4120 C   0  0  0  0  0  0  0  0  0  0  0  0
  136.5490   76.2510  222.5070 C   0  0  0  0  0  0  0  0  0  0  0  0
  137.6520   77.1740  222.9750 C   0  0  0  0  0  0  0  0  0  0  0  0
  138.7220   76.9420  221.8900 C   0  0  1  0  0  0  0  0  0  0  0  0
  139.9860   77.5820  222.1780 C   0  0  0  0  0  0  0  0  0  0  0  0
  141.1510   77.2600  221.4630 N   0  0  0  0  0  0  0  0  0  0  0  0
  141.9130   78.3610  220.9670 C   0  0  2  0  0  0  0  0  0  0  0  0
  141.9770   79.4790  221.9350 C   0  0  0  0  0  0  0  0  0  0  0  0
  141.1590   80.5890  221.8800 C   0  0  0  0  0  0  0  0  0  0  0  0
  141.2350   81.6260  222.7960 C   0  0  0  0  0  0  0  0  0  0  0  0
  142.1560   81.5750  223.8180 C   0  0  0  0  0  0  0  0  0  0  0  0
  142.9930   80.4770  223.9010 C   0  0  0  0  0  0  0  0  0  0  0  0
  142.9030   79.4580  222.9830 C   0  0  0  0  0  0  0  0  0  0  0  0
  141.4610   78.8260  219.6290 C   0  0  0  0  0  0  0  0  0  0  0  0
  140.2980   78.3860  219.0290 C   0  0  0  0  0  0  0  0  0  0  0  0
  139.9770   78.8920  217.7730 C   0  0  0  0  0  0  0  0  0  0  0  0
  140.7480   79.7810  217.1370 N   0  0  0  0  0  0  0  0  0  0  0  0
  141.8910   80.2190  217.7160 C   0  0  0  0  0  0  0  0  0  0  0  0
  142.2550   79.7480  218.9610 C   0  0  0  0  0  0  0  0  0  0  0  0
  139.5670   70.0540  223.8730 C   0  0  0  0  0  0  0  0  0  0  0  0
  139.1700   68.7160  223.9450 C   0  0  0  0  0  0  0  0  0  0  0  0
  139.3930   67.9800  225.0830 C   0  0  0  0  0  0  0  0  0  0  0  0
  140.0120   68.5640  226.1650 C   0  0  0  0  0  0  0  0  0  0  0  0
  140.2250   67.8030  227.2960 C   0  0  0  0  0  0  0  0  0  0  0  0
  140.8470   68.3900  228.3810 C   0  0  0  0  0  0  0  0  0  0  0  0
  141.0370   67.6110  229.4720 F   0  0  0  0  0  0  0  0  0  0  0  0
  141.2450   69.7110  228.3270 C   0  0  0  0  0  0  0  0  0  0  0  0
  141.0290   70.4780  227.1810 C   0  0  0  0  0  0  0  0  0  0  0  0
  140.4020   69.8980  226.0770 C   0  0  0  0  0  0  0  0  0  0  0  0
  140.1630   70.5690  224.9500 N   0  0  0  0  0  0  0  0  0  0  0  0
  139.4660   72.6830  223.6960 H   0  0  0  0  0  0  0  0  0  0  0  0
  139.6617   72.6037  220.7310 H   0  0  0  0  0  0  0  0  0  0  0  0
  137.9847   72.9815  221.3379 H   0  0  0  0  0  0  0  0  0  0  0  0
  136.8475   75.7441  220.4107 H   0  0  0  0  0  0  0  0  0  0  0  0
  136.7596   74.3367  221.4060 H   0  0  0  0  0  0  0  0  0  0  0  0
  135.7067   76.8411  222.1167 H   0  0  0  0  0  0  0  0  0  0  0  0
  136.1814   75.6350  223.3409 H   0  0  0  0  0  0  0  0  0  0  0  0
  137.3188   78.2221  222.9941 H   0  0  0  0  0  0  0  0  0  0  0  0
  137.9998   76.9764  223.9997 H   0  0  0  0  0  0  0  0  0  0  0  0
  138.6222   77.4404  220.9145 H   0  0  0  0  0  0  0  0  0  0  0  0
  139.8258   78.6615  222.0403 H   0  0  0  0  0  0  0  0  0  0  0  0
  140.2163   77.2077  223.1864 H   0  0  0  0  0  0  0  0  0  0  0  0
  141.7800   76.6140  221.9740 H   0  0  0  0  0  0  0  0  0  0  0  0
  142.9361   77.9786  220.8363 H   0  0  0  0  0  0  0  0  0  0  0  0
  140.4138   80.6535  221.0735 H   0  0  0  0  0  0  0  0  0  0  0  0
  140.5597   82.4897  222.7066 H   0  0  0  0  0  0  0  0  0  0  0  0
  142.2248   82.3904  224.5531 H   0  0  0  0  0  0  0  0  0  0  0  0
  143.7373   80.4188  224.7089 H   0  0  0  0  0  0  0  0  0  0  0  0
  143.5818   78.5974  223.0756 H   0  0  0  0  0  0  0  0  0  0  0  0
  139.6441   77.6566  219.5293 H   0  0  0  0  0  0  0  0  0  0  0  0
  139.0536   78.5476  217.2844 H   0  0  0  0  0  0  0  0  0  0  0  0
  142.5281   80.9488  217.1950 H   0  0  0  0  0  0  0  0  0  0  0  0
  143.1837   80.1068  219.4287 H   0  0  0  0  0  0  0  0  0  0  0  0
  138.6741   68.2478  223.0820 H   0  0  0  0  0  0  0  0  0  0  0  0
  139.0779   66.9271  225.1296 H   0  0  0  0  0  0  0  0  0  0  0  0
  139.9062   66.7509  227.3330 H   0  0  0  0  0  0  0  0  0  0  0  0
  141.7389   70.1650  229.1987 H   0  0  0  0  0  0  0  0  0  0  0  0
  141.3499   71.5296  227.1482 H   0  0  0  0  0  0  0  0  0  0  0  0
  1  2  2  0
  2  3  1  0
  3  4  1  0
  4  5  1  0
  5  6  2  0
  5  7  1  0
  7  8  1  0
  8  9  1  0
  9 10  1  0
 10 11  1  0
 11 12  1  0
 12 13  1  0
 13 14  1  0
 14 15  1  0
 15 16  2  0
 16 17  1  0
 17 18  2  0
 18 19  1  0
 19 20  2  0
 14 21  1  0
 21 22  2  0
 22 23  1  0
 23 24  2  0
 24 25  1  0
 25 26  2  0
  2 27  1  0
 27 28  2  0
 28 29  1  0
 29 30  2  0
 30 31  1  0
 31 32  2  0
 32 33  1  0
 32 34  1  0
 34 35  2  0
 35 36  1  0
 36 37  2  0
 11  7  1  0
 20 15  1  0
 26 21  1  0
 37 27  1  0
 36 30  1  0
  3 38  1  0
  4 39  1  0
  4 40  1  0
  8 41  1  0
  8 42  1  0
  9 43  1  0
  9 44  1  0
 10 45  1  0
 10 46  1  0
 11 47  1  6
 12 48  1  0
 12 49  1  0
 13 50  1  0
 14 51  1  6
 16 52  1  0
 17 53  1  0
 18 54  1  0
 19 55  1  0
 20 56  1  0
 22 57  1  0
 23 58  1  0
 25 59  1  0
 26 60  1  0
 28 61  1  0
 29 62  1  0
 31 63  1  0
 34 64  1  0
 35 65  1  0
M  END
>  <smiles>  (40) 
O=C(NCC(=O)N1CCC[C@H]1CNC(c1ccccc1)c1ccncc1)c1ccc2cc(F)ccc2n1

>  <score_type>  (40) 
oracle

>  <origin>  (40) 
autodockgpu

>  <m_score__min__energy>  (40) 
-9.6600000000000001

>  <m_primary>  (40) 
energy

>  <rmsd>  (40) 
3.0303281097038455

>  <m_score__min__rmsd>  (40) 
3.0303281097038455

>  <meeko>  (40) 
{"free_energy": -9.59, "intermolecular_energy": -12.28, "internal_energy": -2.81, "cluster_size": 8, "cluster_id": 3, "rank_in_cluster": 1}

>  <energy>  (40) 
-8.41

>  <cluster_rmsd>  (40) 
1.61

>  <cluster>  (40) 
5

$$$$

     RDKit          3D

 65 69  0  0  1  0  0  0  0  0999 V2000
  137.8680   70.2860  221.9340 O   0  0  0  0  0  0  0  0  0  0  0  0
  138.5430   70.8780  222.8090 C   0  0  0  0  0  0  0  0  0  0  0  0
  138.8920   72.2530  222.7430 N   0  0  0  0  0  0  0  0  0  0  0  0
  138.4370   73.0210  221.5830 C   0  0  0  0  0  0  0  0  0  0  0  0
  138.5450   74.4540  221.7730 C   0  0  0  0  0  0  0  0  0  0  0  0
  139.6270   74.8700  222.3520 O   0  0  0  0  0  0  0  0  0  0  0  0
  137.6400   75.4640  221.4180 N   0  0  0  0  0  0  0  0  0  0  0  0
  136.2340   75.0880  221.0540 C   0  0  0  0  0  0  0  0  0  0  0  0
  135.4910   76.1430  221.8420 C   0  0  0  0  0  0  0  0  0  0  0  0
  136.4700   77.2500  222.1620 C   0  0  0  0  0  0  0  0  0  0  0  0
  137.6660   76.8650  221.2690 C   0  0  1  0  0  0  0  0  0  0  0  0
  138.8450   77.6700  221.5000 C   0  0  0  0  0  0  0  0  0  0  0  0
  139.6430   77.4910  222.6410 N   0  0  0  0  0  0  0  0  0  0  0  0
  141.0450   77.6990  222.4710 C   0  0  2  0  0  0  0  0  0  0  0  0
  141.4790   79.0250  222.9670 C   0  0  0  0  0  0  0  0  0  0  0  0
  142.7990   79.3950  223.1120 C   0  0  0  0  0  0  0  0  0  0  0  0
  143.1850   80.6420  223.5780 C   0  0  0  0  0  0  0  0  0  0  0  0
  142.2310   81.5740  223.9190 C   0  0  0  0  0  0  0  0  0  0  0  0
  140.8970   81.2350  223.7860 C   0  0  0  0  0  0  0  0  0  0  0  0
  140.5340   79.9940  223.3220 C   0  0  0  0  0  0  0  0  0  0  0  0
  141.5040   77.4650  221.0760 C   0  0  0  0  0  0  0  0  0  0  0  0
  141.7240   78.4850  220.1730 C   0  0  0  0  0  0  0  0  0  0  0  0
  142.1540   78.1450  218.8930 C   0  0  0  0  0  0  0  0  0  0  0  0
  142.3570   76.8780  218.5170 N   0  0  0  0  0  0  0  0  0  0  0  0
  142.1440   75.8690  219.3940 C   0  0  0  0  0  0  0  0  0  0  0  0
  141.7180   76.1530  220.6760 C   0  0  0  0  0  0  0  0  0  0  0  0
  139.0090   70.1210  223.9820 C   0  0  0  0  0  0  0  0  0  0  0  0
  138.8340   68.7350  224.0320 C   0  0  0  0  0  0  0  0  0  0  0  0
  139.2650   68.0140  225.1190 C   0  0  0  0  0  0  0  0  0  0  0  0
  139.8730   68.6600  226.1710 C   0  0  0  0  0  0  0  0  0  0  0  0
  140.2960   67.9130  227.2510 C   0  0  0  0  0  0  0  0  0  0  0  0
  140.9070   68.5620  228.3060 C   0  0  0  0  0  0  0  0  0  0  0  0
  141.3080   67.7940  229.3470 F   0  0  0  0  0  0  0  0  0  0  0  0
  141.0880   69.9310  228.2740 C   0  0  0  0  0  0  0  0  0  0  0  0
  140.6590   70.6840  227.1800 C   0  0  0  0  0  0  0  0  0  0  0  0
  140.0400   70.0400  226.1060 C   0  0  0  0  0  0  0  0  0  0  0  0
  139.6050   70.6950  225.0280 N   0  0  0  0  0  0  0  0  0  0  0  0
  139.4570   72.6760  223.5130 H   0  0  0  0  0  0  0  0  0  0  0  0
  139.0470   72.7361  220.7131 H   0  0  0  0  0  0  0  0  0  0  0  0
  137.3723   72.7890  221.4326 H   0  0  0  0  0  0  0  0  0  0  0  0
  136.0509   75.1763  219.9730 H   0  0  0  0  0  0  0  0  0  0  0  0
  135.9517   74.0481  221.2753 H   0  0  0  0  0  0  0  0  0  0  0  0
  134.6580   76.5406  221.2436 H   0  0  0  0  0  0  0  0  0  0  0  0
  135.0775   75.7142  222.7668 H   0  0  0  0  0  0  0  0  0  0  0  0
  136.0655   78.2361  221.8898 H   0  0  0  0  0  0  0  0  0  0  0  0
  136.7162   77.3379  223.2305 H   0  0  0  0  0  0  0  0  0  0  0  0
  137.6394   77.1037  220.1955 H   0  0  0  0  0  0  0  0  0  0  0  0
  139.5033   77.5123  220.6330 H   0  0  0  0  0  0  0  0  0  0  0  0
  138.4196   78.6711  221.6635 H   0  0  0  0  0  0  0  0  0  0  0  0
  139.3150   78.0350  223.4600 H   0  0  0  0  0  0  0  0  0  0  0  0
  141.5347   76.9362  223.0942 H   0  0  0  0  0  0  0  0  0  0  0  0
  143.5807   78.6683  222.8460 H   0  0  0  0  0  0  0  0  0  0  0  0
  144.2530   80.8868  223.6753 H   0  0  0  0  0  0  0  0  0  0  0  0
  142.5237   82.5675  224.2895 H   0  0  0  0  0  0  0  0  0  0  0  0
  140.1196   81.9656  224.0541 H   0  0  0  0  0  0  0  0  0  0  0  0
  139.4648   79.7540  223.2264 H   0  0  0  0  0  0  0  0  0  0  0  0
  141.5644   79.5359  220.4561 H   0  0  0  0  0  0  0  0  0  0  0  0
  142.3334   78.9488  218.1639 H   0  0  0  0  0  0  0  0  0  0  0  0
  142.3099   74.8261  219.0860 H   0  0  0  0  0  0  0  0  0  0  0  0
  141.5465   75.3318  221.3874 H   0  0  0  0  0  0  0  0  0  0  0  0
  138.3466   68.2168  223.1930 H   0  0  0  0  0  0  0  0  0  0  0  0
  139.1245   66.9234  225.1484 H   0  0  0  0  0  0  0  0  0  0  0  0
  140.1497   66.8230  227.2714 H   0  0  0  0  0  0  0  0  0  0  0  0
  141.5765   70.4341  229.1215 H   0  0  0  0  0  0  0  0  0  0  0  0
  140.8069   71.7739  227.1636 H   0  0  0  0  0  0  0  0  0  0  0  0
  1  2  2  0
  2  3  1  0
  3  4  1  0
  4  5  1  0
  5  6  2  0
  5  7  1  0
  7  8  1  0
  8  9  1  0
  9 10  1  0
 10 11  1  0
 11 12  1  0
 12 13  1  0
 13 14  1  0
 14 15  1  0
 15 16  2  0
 16 17  1  0
 17 18  2  0
 18 19  1  0
 19 20  2  0
 14 21  1  0
 21 22  2  0
 22 23  1  0
 23 24  2  0
 24 25  1  0
 25 26  2  0
  2 27  1  0
 27 28  2  0
 28 29  1  0
 29 30  2  0
 30 31  1  0
 31 32  2  0
 32 33  1  0
 32 34  1  0
 34 35  2  0
 35 36  1  0
 36 37  2  0
 11  7  1  0
 20 15  1  0
 26 21  1  0
 37 27  1  0
 36 30  1  0
  3 38  1  0
  4 39  1  0
  4 40  1  0
  8 41  1  0
  8 42  1  0
  9 43  1  0
  9 44  1  0
 10 45  1  0
 10 46  1  0
 11 47  1  6
 12 48  1  0
 12 49  1  0
 13 50  1  0
 14 51  1  1
 16 52  1  0
 17 53  1  0
 18 54  1  0
 19 55  1  0
 20 56  1  0
 22 57  1  0
 23 58  1  0
 25 59  1  0
 26 60  1  0
 28 61  1  0
 29 62  1  0
 31 63  1  0
 34 64  1  0
 35 65  1  0
M  END
>  <smiles>  (41) 
O=C(NCC(=O)N1CCC[C@H]1CNC(c1ccccc1)c1ccncc1)c1ccc2cc(F)ccc2n1

>  <score_type>  (41) 
oracle

>  <origin>  (41) 
autodockgpu

>  <m_score__min__energy>  (41) 
-9.6600000000000001

>  <m_primary>  (41) 
energy

>  <rmsd>  (41) 
3.124046862410949

>  <m_score__min__rmsd>  (41) 
3.124046862410949

>  <meeko>  (41) 
{"free_energy": -9.35, "intermolecular_energy": -12.03, "internal_energy": -2.63, "cluster_size": 8, "cluster_id": 3, "rank_in_cluster": 3}

>  <energy>  (41) 
-8.41

>  <cluster_rmsd>  (41) 
1.49

>  <cluster>  (41) 
5

$$$$

     RDKit          3D

 65 69  0  0  1  0  0  0  0  0999 V2000
  140.0220   71.0460  221.4110 O   0  0  0  0  0  0  0  0  0  0  0  0
  139.8820   71.5890  222.5330 C   0  0  0  0  0  0  0  0  0  0  0  0
  139.7090   72.9860  222.7200 N   0  0  0  0  0  0  0  0  0  0  0  0
  139.6960   73.8400  221.5310 C   0  0  0  0  0  0  0  0  0  0  0  0
  140.8940   74.6450  221.3980 C   0  0  0  0  0  0  0  0  0  0  0  0
  140.9350   75.7250  222.1120 O   0  0  0  0  0  0  0  0  0  0  0  0
  142.0240   74.4220  220.5990 N   0  0  0  0  0  0  0  0  0  0  0  0
  142.6510   73.0590  220.5860 C   0  0  0  0  0  0  0  0  0  0  0  0
  142.8570   72.9030  219.0970 C   0  0  0  0  0  0  0  0  0  0  0  0
  142.7970   74.2810  218.4780 C   0  0  0  0  0  0  0  0  0  0  0  0
  142.8390   75.1780  219.7320 C   0  0  1  0  0  0  0  0  0  0  0  0
  142.6190   76.5790  219.4500 C   0  0  0  0  0  0  0  0  0  0  0  0
  142.5560   77.5330  220.4780 N   0  0  0  0  0  0  0  0  0  0  0  0
  141.5730   78.5570  220.3300 C   0  0  2  0  0  0  0  0  0  0  0  0
  141.6880   79.6000  221.3740 C   0  0  0  0  0  0  0  0  0  0  0  0
  142.2630   79.3890  222.6090 C   0  0  0  0  0  0  0  0  0  0  0  0
  142.3620   80.3790  223.5740 C   0  0  0  0  0  0  0  0  0  0  0  0
  141.8730   81.6400  223.3170 C   0  0  0  0  0  0  0  0  0  0  0  0
  141.2890   81.8860  222.0870 C   0  0  0  0  0  0  0  0  0  0  0  0
  141.2010   80.8910  221.1440 C   0  0  0  0  0  0  0  0  0  0  0  0
  140.1860   78.0270  220.2440 C   0  0  0  0  0  0  0  0  0  0  0  0
  139.6370   77.5380  219.0750 C   0  0  0  0  0  0  0  0  0  0  0  0
  138.3270   77.0670  219.1150 C   0  0  0  0  0  0  0  0  0  0  0  0
  137.5950   77.0720  220.2340 N   0  0  0  0  0  0  0  0  0  0  0  0
  138.1240   77.5490  221.3850 C   0  0  0  0  0  0  0  0  0  0  0  0
  139.4180   78.0280  221.3990 C   0  0  0  0  0  0  0  0  0  0  0  0
  139.8930   70.7440  223.7390 C   0  0  0  0  0  0  0  0  0  0  0  0
  139.3290   69.4660  223.7000 C   0  0  0  0  0  0  0  0  0  0  0  0
  139.3330   68.6660  224.8170 C   0  0  0  0  0  0  0  0  0  0  0  0
  139.8950   69.1250  225.9860 C   0  0  0  0  0  0  0  0  0  0  0  0
  139.8860   68.3020  227.0940 C   0  0  0  0  0  0  0  0  0  0  0  0
  140.4510   68.7640  228.2660 C   0  0  0  0  0  0  0  0  0  0  0  0
  140.4220   67.9260  229.3300 F   0  0  0  0  0  0  0  0  0  0  0  0
  141.0130   70.0240  228.3220 C   0  0  0  0  0  0  0  0  0  0  0  0
  141.0210   70.8550  227.2000 C   0  0  0  0  0  0  0  0  0  0  0  0
  140.4530   70.4000  226.0080 C   0  0  0  0  0  0  0  0  0  0  0  0
  140.4250   71.1380  224.8970 N   0  0  0  0  0  0  0  0  0  0  0  0
  139.5980   73.3630  223.6870 H   0  0  0  0  0  0  0  0  0  0  0  0
  139.6032   73.2002  220.6410 H   0  0  0  0  0  0  0  0  0  0  0  0
  138.8455   74.5304  221.6314 H   0  0  0  0  0  0  0  0  0  0  0  0
  143.6024   73.0381  221.1377 H   0  0  0  0  0  0  0  0  0  0  0  0
  142.0613   72.2642  221.0662 H   0  0  0  0  0  0  0  0  0  0  0  0
  143.8382   72.4463  218.9003 H   0  0  0  0  0  0  0  0  0  0  0  0
  142.0808   72.2531  218.6666 H   0  0  0  0  0  0  0  0  0  0  0  0
  143.6603   74.4656  217.8218 H   0  0  0  0  0  0  0  0  0  0  0  0
  141.9208   74.4477  217.8341 H   0  0  0  0  0  0  0  0  0  0  0  0
  143.8008   75.3671  220.2311 H   0  0  0  0  0  0  0  0  0  0  0  0
  143.4362   76.8936  218.7843 H   0  0  0  0  0  0  0  0  0  0  0  0
  141.5904   76.5831  219.0603 H   0  0  0  0  0  0  0  0  0  0  0  0
  142.4700   77.1130  221.4220 H   0  0  0  0  0  0  0  0  0  0  0  0
  141.7871   79.0330  219.3617 H   0  0  0  0  0  0  0  0  0  0  0  0
  142.6613   78.3898  222.8390 H   0  0  0  0  0  0  0  0  0  0  0  0
  142.8308   80.1574  224.5441 H   0  0  0  0  0  0  0  0  0  0  0  0
  141.9450   82.4352  224.0736 H   0  0  0  0  0  0  0  0  0  0  0  0
  140.8918   82.8869  221.8624 H   0  0  0  0  0  0  0  0  0  0  0  0
  140.7317   81.1171  220.1752 H   0  0  0  0  0  0  0  0  0  0  0  0
  140.2169   77.5210  218.1404 H   0  0  0  0  0  0  0  0  0  0  0  0
  137.8772   76.6758  218.1905 H   0  0  0  0  0  0  0  0  0  0  0  0
  137.5239   77.5548  222.3069 H   0  0  0  0  0  0  0  0  0  0  0  0
  139.8450   78.4147  222.3361 H   0  0  0  0  0  0  0  0  0  0  0  0
  138.8779   69.0973  222.7669 H   0  0  0  0  0  0  0  0  0  0  0  0
  138.8879   67.6609  224.7768 H   0  0  0  0  0  0  0  0  0  0  0  0
  139.4379   67.2986  227.0443 H   0  0  0  0  0  0  0  0  0  0  0  0
  141.4602   70.3777  229.2627 H   0  0  0  0  0  0  0  0  0  0  0  0
  141.4700   71.8577  227.2543 H   0  0  0  0  0  0  0  0  0  0  0  0
  1  2  2  0
  2  3  1  0
  3  4  1  0
  4  5  1  0
  5  6  2  0
  5  7  1  0
  7  8  1  0
  8  9  1  0
  9 10  1  0
 10 11  1  0
 11 12  1  0
 12 13  1  0
 13 14  1  0
 14 15  1  0
 15 16  2  0
 16 17  1  0
 17 18  2  0
 18 19  1  0
 19 20  2  0
 14 21  1  0
 21 22  2  0
 22 23  1  0
 23 24  2  0
 24 25  1  0
 25 26  2  0
  2 27  1  0
 27 28  2  0
 28 29  1  0
 29 30  2  0
 30 31  1  0
 31 32  2  0
 32 33  1  0
 32 34  1  0
 34 35  2  0
 35 36  1  0
 36 37  2  0
 11  7  1  0
 20 15  1  0
 26 21  1  0
 37 27  1  0
 36 30  1  0
  3 38  1  0
  4 39  1  0
  4 40  1  0
  8 41  1  0
  8 42  1  0
  9 43  1  0
  9 44  1  0
 10 45  1  0
 10 46  1  0
 11 47  1  1
 12 48  1  0
 12 49  1  0
 13 50  1  0
 14 51  1  6
 16 52  1  0
 17 53  1  0
 18 54  1  0
 19 55  1  0
 20 56  1  0
 22 57  1  0
 23 58  1  0
 25 59  1  0
 26 60  1  0
 28 61  1  0
 29 62  1  0
 31 63  1  0
 34 64  1  0
 35 65  1  0
M  END
>  <smiles>  (42) 
O=C(NCC(=O)N1CCC[C@H]1CNC(c1ccccc1)c1ccncc1)c1ccc2cc(F)ccc2n1

>  <score_type>  (42) 
oracle

>  <origin>  (42) 
autodockgpu

>  <m_score__min__energy>  (42) 
-9.6600000000000001

>  <m_primary>  (42) 
energy

>  <rmsd>  (42) 
2.7613123908320016

>  <m_score__min__rmsd>  (42) 
2.7613123908320016

>  <meeko>  (42) 
{"free_energy": -8.96, "intermolecular_energy": -11.65, "internal_energy": -3.4, "cluster_size": 24, "cluster_id": 1, "rank_in_cluster": 14}

>  <energy>  (42) 
-8.13

>  <cluster_rmsd>  (42) 
1.65

>  <cluster>  (42) 
5

$$$$

     RDKit          3D

 65 69  0  0  1  0  0  0  0  0999 V2000
  140.1280   73.5200  222.3570 O   0  0  0  0  0  0  0  0  0  0  0  0
  140.0650   72.2730  222.2390 C   0  0  0  0  0  0  0  0  0  0  0  0
  140.0270   71.5970  220.9910 N   0  0  0  0  0  0  0  0  0  0  0  0
  140.0650   72.4060  219.7720 C   0  0  0  0  0  0  0  0  0  0  0  0
  141.4120   72.7570  219.3660 C   0  0  0  0  0  0  0  0  0  0  0  0
  141.6970   72.5640  218.1170 O   0  0  0  0  0  0  0  0  0  0  0  0
  142.4590   73.2800  220.1370 N   0  0  0  0  0  0  0  0  0  0  0  0
  143.6100   72.3910  220.5040 C   0  0  0  0  0  0  0  0  0  0  0  0
  144.7500   73.3360  220.2050 C   0  0  0  0  0  0  0  0  0  0  0  0
  144.1870   74.7390  220.1710 C   0  0  0  0  0  0  0  0  0  0  0  0
  142.7740   74.5110  220.7460 C   0  0  1  0  0  0  0  0  0  0  0  0
  141.9240   75.6790  220.6730 C   0  0  0  0  0  0  0  0  0  0  0  0
  141.1050   76.0580  221.7480 N   0  0  0  0  0  0  0  0  0  0  0  0
  140.4360   77.3130  221.6210 C   0  0  2  0  0  0  0  0  0  0  0  0
  141.2080   78.4230  222.2230 C   0  0  0  0  0  0  0  0  0  0  0  0
  141.4760   78.5280  223.5720 C   0  0  0  0  0  0  0  0  0  0  0  0
  142.2010   79.5760  224.1160 C   0  0  0  0  0  0  0  0  0  0  0  0
  142.6890   80.5720  223.3010 C   0  0  0  0  0  0  0  0  0  0  0  0
  142.4380   80.4980  221.9420 C   0  0  0  0  0  0  0  0  0  0  0  0
  141.7170   79.4510  221.4210 C   0  0  0  0  0  0  0  0  0  0  0  0
  139.0400   77.2840  222.1310 C   0  0  0  0  0  0  0  0  0  0  0  0
  138.3070   78.4250  222.3910 C   0  0  0  0  0  0  0  0  0  0  0  0
  137.0080   78.2740  222.8670 C   0  0  0  0  0  0  0  0  0  0  0  0
  136.4530   77.0750  223.0760 N   0  0  0  0  0  0  0  0  0  0  0  0
  137.1620   75.9500  222.8250 C   0  0  0  0  0  0  0  0  0  0  0  0
  138.4560   76.0440  222.3520 C   0  0  0  0  0  0  0  0  0  0  0  0
  140.0260   71.4440  223.4560 C   0  0  0  0  0  0  0  0  0  0  0  0
  139.4060   70.1920  223.4260 C   0  0  0  0  0  0  0  0  0  0  0  0
  139.3620   69.4060  224.5520 C   0  0  0  0  0  0  0  0  0  0  0  0
  139.9310   69.8550  225.7220 C   0  0  0  0  0  0  0  0  0  0  0  0
  139.8740   69.0470  226.8390 C   0  0  0  0  0  0  0  0  0  0  0  0
  140.4460   69.4980  228.0130 C   0  0  0  0  0  0  0  0  0  0  0  0
  140.3680   68.6770  229.0860 F   0  0  0  0  0  0  0  0  0  0  0  0
  141.0630   70.7330  228.0590 C   0  0  0  0  0  0  0  0  0  0  0  0
  141.1200   71.5480  226.9280 C   0  0  0  0  0  0  0  0  0  0  0  0
  140.5450   71.1050  225.7350 C   0  0  0  0  0  0  0  0  0  0  0  0
  140.5620   71.8290  224.6150 N   0  0  0  0  0  0  0  0  0  0  0  0
  139.9750   70.5540  220.9750 H   0  0  0  0  0  0  0  0  0  0  0  0
  139.5910   71.8368  218.9588 H   0  0  0  0  0  0  0  0  0  0  0  0
  139.5304   73.3439  219.9831 H   0  0  0  0  0  0  0  0  0  0  0  0
  143.5837   72.1003  221.5646 H   0  0  0  0  0  0  0  0  0  0  0  0
  143.6470   71.4264  219.9766 H   0  0  0  0  0  0  0  0  0  0  0  0
  145.5165   73.2588  220.9902 H   0  0  0  0  0  0  0  0  0  0  0  0
  145.2163   73.0844  219.2410 H   0  0  0  0  0  0  0  0  0  0  0  0
  144.7730   75.4235  220.8019 H   0  0  0  0  0  0  0  0  0  0  0  0
  144.1984   75.2052  219.1747 H   0  0  0  0  0  0  0  0  0  0  0  0
  142.6408   74.4072  221.8330 H   0  0  0  0  0  0  0  0  0  0  0  0
  142.5870   76.5333  220.4717 H   0  0  0  0  0  0  0  0  0  0  0  0
  141.1897   75.3897  219.9067 H   0  0  0  0  0  0  0  0  0  0  0  0
  140.4170   75.3310  222.0160 H   0  0  0  0  0  0  0  0  0  0  0  0
  140.3702   77.5044  220.5398 H   0  0  0  0  0  0  0  0  0  0  0  0
  141.0974   77.7452  224.2457 H   0  0  0  0  0  0  0  0  0  0  0  0
  142.3866   79.6120  225.1996 H   0  0  0  0  0  0  0  0  0  0  0  0
  143.2662   81.4090  223.7209 H   0  0  0  0  0  0  0  0  0  0  0  0
  142.8190   81.2840  221.2734 H   0  0  0  0  0  0  0  0  0  0  0  0
  141.5335   79.4195  220.3369 H   0  0  0  0  0  0  0  0  0  0  0  0
  138.7372   79.4240  222.2267 H   0  0  0  0  0  0  0  0  0  0  0  0
  136.4147   79.1755  223.0796 H   0  0  0  0  0  0  0  0  0  0  0  0
  136.7085   74.9628  222.9974 H   0  0  0  0  0  0  0  0  0  0  0  0
  139.0295   75.1277  222.1484 H   0  0  0  0  0  0  0  0  0  0  0  0
  138.9490   69.8325  222.4923 H   0  0  0  0  0  0  0  0  0  0  0  0
  138.8736   68.4210  224.5185 H   0  0  0  0  0  0  0  0  0  0  0  0
  139.3830   68.0636  226.7957 H   0  0  0  0  0  0  0  0  0  0  0  0
  141.5156   71.0786  229.0001 H   0  0  0  0  0  0  0  0  0  0  0  0
  141.6131   72.5301  226.9756 H   0  0  0  0  0  0  0  0  0  0  0  0
  1  2  2  0
  2  3  1  0
  3  4  1  0
  4  5  1  0
  5  6  2  0
  5  7  1  0
  7  8  1  0
  8  9  1  0
  9 10  1  0
 10 11  1  0
 11 12  1  0
 12 13  1  0
 13 14  1  0
 14 15  1  0
 15 16  2  0
 16 17  1  0
 17 18  2  0
 18 19  1  0
 19 20  2  0
 14 21  1  0
 21 22  2  0
 22 23  1  0
 23 24  2  0
 24 25  1  0
 25 26  2  0
  2 27  1  0
 27 28  2  0
 28 29  1  0
 29 30  2  0
 30 31  1  0
 31 32  2  0
 32 33  1  0
 32 34  1  0
 34 35  2  0
 35 36  1  0
 36 37  2  0
 11  7  1  0
 20 15  1  0
 26 21  1  0
 37 27  1  0
 36 30  1  0
  3 38  1  0
  4 39  1  0
  4 40  1  0
  8 41  1  0
  8 42  1  0
  9 43  1  0
  9 44  1  0
 10 45  1  0
 10 46  1  0
 11 47  1  1
 12 48  1  0
 12 49  1  0
 13 50  1  0
 14 51  1  6
 16 52  1  0
 17 53  1  0
 18 54  1  0
 19 55  1  0
 20 56  1  0
 22 57  1  0
 23 58  1  0
 25 59  1  0
 26 60  1  0
 28 61  1  0
 29 62  1  0
 31 63  1  0
 34 64  1  0
 35 65  1  0
M  END
>  <smiles>  (43) 
O=C(NCC(=O)N1CCC[C@H]1CNC(c1ccccc1)c1ccncc1)c1ccc2cc(F)ccc2n1

>  <score_type>  (43) 
oracle

>  <origin>  (43) 
autodockgpu

>  <m_score__min__energy>  (43) 
-9.6600000000000001

>  <m_primary>  (43) 
energy

>  <rmsd>  (43) 
3.569727562952933

>  <m_score__min__rmsd>  (43) 
3.569727562952933

>  <meeko>  (43) 
{"free_energy": -9.66, "intermolecular_energy": -12.35, "internal_energy": -3.0, "cluster_size": 24, "cluster_id": 1, "rank_in_cluster": 1}

>  <energy>  (43) 
-7.81

>  <cluster_rmsd>  (43) 
1.87

>  <cluster>  (43) 
5

$$$$

     RDKit          3D

 65 69  0  0  1  0  0  0  0  0999 V2000
  139.2730   71.6730  220.7570 O   0  0  0  0  0  0  0  0  0  0  0  0
  140.1090   71.9470  221.6510 C   0  0  0  0  0  0  0  0  0  0  0  0
  141.2040   72.8320  221.4660 N   0  0  0  0  0  0  0  0  0  0  0  0
  141.3650   73.4580  220.1530 C   0  0  0  0  0  0  0  0  0  0  0  0
  142.4860   74.3750  220.0950 C   0  0  0  0  0  0  0  0  0  0  0  0
  143.0990   74.5950  221.2150 O   0  0  0  0  0  0  0  0  0  0  0  0
  143.0070   75.0660  218.9920 N   0  0  0  0  0  0  0  0  0  0  0  0
  143.8290   74.3170  217.9840 C   0  0  0  0  0  0  0  0  0  0  0  0
  143.2150   74.8670  216.7170 C   0  0  0  0  0  0  0  0  0  0  0  0
  142.4970   76.1490  217.0730 C   0  0  0  0  0  0  0  0  0  0  0  0
  143.0030   76.3900  218.5090 C   0  0  1  0  0  0  0  0  0  0  0  0
  142.3360   77.4820  219.1820 C   0  0  0  0  0  0  0  0  0  0  0  0
  142.2430   77.5340  220.5820 N   0  0  0  0  0  0  0  0  0  0  0  0
  141.1370   78.2610  221.1160 C   0  0  2  0  0  0  0  0  0  0  0  0
  141.5620   79.2990  222.0820 C   0  0  0  0  0  0  0  0  0  0  0  0
  142.1450   79.0210  223.3000 C   0  0  0  0  0  0  0  0  0  0  0  0
  142.5360   80.0080  224.1910 C   0  0  0  0  0  0  0  0  0  0  0  0
  142.3470   81.3340  223.8740 C   0  0  0  0  0  0  0  0  0  0  0  0
  141.7640   81.6490  222.6600 C   0  0  0  0  0  0  0  0  0  0  0  0
  141.3820   80.6560  221.7900 C   0  0  0  0  0  0  0  0  0  0  0  0
  140.0850   77.3820  221.6910 C   0  0  0  0  0  0  0  0  0  0  0  0
  140.2150   76.0110  221.7850 C   0  0  0  0  0  0  0  0  0  0  0  0
  139.1630   75.2900  222.3430 C   0  0  0  0  0  0  0  0  0  0  0  0
  138.0460   75.8760  222.7870 N   0  0  0  0  0  0  0  0  0  0  0  0
  137.9070   77.2200  222.7000 C   0  0  0  0  0  0  0  0  0  0  0  0
  138.9210   77.9810  222.1540 C   0  0  0  0  0  0  0  0  0  0  0  0
  139.9620   71.3260  222.9780 C   0  0  0  0  0  0  0  0  0  0  0  0
  139.1720   70.1830  223.1290 C   0  0  0  0  0  0  0  0  0  0  0  0
  139.0260   69.5910  224.3590 C   0  0  0  0  0  0  0  0  0  0  0  0
  139.6610   70.1270  225.4560 C   0  0  0  0  0  0  0  0  0  0  0  0
  139.4990   69.5140  226.6820 C   0  0  0  0  0  0  0  0  0  0  0  0
  140.1370   70.0520  227.7820 C   0  0  0  0  0  0  0  0  0  0  0  0
  139.9520   69.4220  228.9660 F   0  0  0  0  0  0  0  0  0  0  0  0
  140.9220   71.1810  227.6500 C   0  0  0  0  0  0  0  0  0  0  0  0
  141.0850   71.7990  226.4100 C   0  0  0  0  0  0  0  0  0  0  0  0
  140.4450   71.2650  225.2890 C   0  0  0  0  0  0  0  0  0  0  0  0
  140.5560   71.8020  224.0730 N   0  0  0  0  0  0  0  0  0  0  0  0
  141.8580   73.0110  222.2600 H   0  0  0  0  0  0  0  0  0  0  0  0
  141.5204   72.6670  219.4045 H   0  0  0  0  0  0  0  0  0  0  0  0
  140.4536   74.0404  219.9528 H   0  0  0  0  0  0  0  0  0  0  0  0
  144.8989   74.5603  218.0625 H   0  0  0  0  0  0  0  0  0  0  0  0
  143.8100   73.2214  218.0803 H   0  0  0  0  0  0  0  0  0  0  0  0
  144.0029   75.0719  215.9772 H   0  0  0  0  0  0  0  0  0  0  0  0
  142.5130   74.1403  216.2821 H   0  0  0  0  0  0  0  0  0  0  0  0
  142.7845   76.9714  216.4014 H   0  0  0  0  0  0  0  0  0  0  0  0
  141.4020   76.0914  216.9850 H   0  0  0  0  0  0  0  0  0  0  0  0
  144.0022   76.8224  218.6657 H   0  0  0  0  0  0  0  0  0  0  0  0
  142.8544   78.4010  218.8712 H   0  0  0  0  0  0  0  0  0  0  0  0
  141.2876   77.3402  218.8807 H   0  0  0  0  0  0  0  0  0  0  0  0
  142.2850   76.6010  221.0310 H   0  0  0  0  0  0  0  0  0  0  0  0
  140.6800   78.7761  220.2582 H   0  0  0  0  0  0  0  0  0  0  0  0
  142.3071   77.9689  223.5770 H   0  0  0  0  0  0  0  0  0  0  0  0
  142.9970   79.7318  225.1508 H   0  0  0  0  0  0  0  0  0  0  0  0
  142.6534   82.1271  224.5720 H   0  0  0  0  0  0  0  0  0  0  0  0
  141.6048   82.7030  222.3886 H   0  0  0  0  0  0  0  0  0  0  0  0
  140.9194   80.9370  220.8324 H   0  0  0  0  0  0  0  0  0  0  0  0
  141.1235   75.5029  221.4293 H   0  0  0  0  0  0  0  0  0  0  0  0
  139.2540   74.1966  222.4217 H   0  0  0  0  0  0  0  0  0  0  0  0
  136.9885   77.7041  223.0634 H   0  0  0  0  0  0  0  0  0  0  0  0
  138.8058   79.0728  222.0850 H   0  0  0  0  0  0  0  0  0  0  0  0
  138.6623   69.7536  222.2539 H   0  0  0  0  0  0  0  0  0  0  0  0
  138.4032   68.6908  224.4674 H   0  0  0  0  0  0  0  0  0  0  0  0
  138.8738   68.6144  226.7808 H   0  0  0  0  0  0  0  0  0  0  0  0
  141.4253   71.5983  228.5346 H   0  0  0  0  0  0  0  0  0  0  0  0
  141.7115   72.6982  226.3159 H   0  0  0  0  0  0  0  0  0  0  0  0
  1  2  2  0
  2  3  1  0
  3  4  1  0
  4  5  1  0
  5  6  2  0
  5  7  1  0
  7  8  1  0
  8  9  1  0
  9 10  1  0
 10 11  1  0
 11 12  1  0
 12 13  1  0
 13 14  1  0
 14 15  1  0
 15 16  2  0
 16 17  1  0
 17 18  2  0
 18 19  1  0
 19 20  2  0
 14 21  1  0
 21 22  2  0
 22 23  1  0
 23 24  2  0
 24 25  1  0
 25 26  2  0
  2 27  1  0
 27 28  2  0
 28 29  1  0
 29 30  2  0
 30 31  1  0
 31 32  2  0
 32 33  1  0
 32 34  1  0
 34 35  2  0
 35 36  1  0
 36 37  2  0
 11  7  1  0
 20 15  1  0
 26 21  1  0
 37 27  1  0
 36 30  1  0
  3 38  1  0
  4 39  1  0
  4 40  1  0
  8 41  1  0
  8 42  1  0
  9 43  1  0
  9 44  1  0
 10 45  1  0
 10 46  1  0
 11 47  1  6
 12 48  1  0
 12 49  1  0
 13 50  1  0
 14 51  1  6
 16 52  1  0
 17 53  1  0
 18 54  1  0
 19 55  1  0
 20 56  1  0
 22 57  1  0
 23 58  1  0
 25 59  1  0
 26 60  1  0
 28 61  1  0
 29 62  1  0
 31 63  1  0
 34 64  1  0
 35 65  1  0
M  END
>  <smiles>  (44) 
O=C(NCC(=O)N1CCC[C@H]1CNC(c1ccccc1)c1ccncc1)c1ccc2cc(F)ccc2n1

>  <score_type>  (44) 
oracle

>  <origin>  (44) 
autodockgpu

>  <m_score__min__energy>  (44) 
-9.6600000000000001

>  <m_primary>  (44) 
energy

>  <rmsd>  (44) 
2.992804776052295

>  <m_score__min__rmsd>  (44) 
2.992804776052295

>  <meeko>  (44) 
{"free_energy": -8.69, "intermolecular_energy": -11.38, "internal_energy": -3.82, "cluster_size": 24, "cluster_id": 1, "rank_in_cluster": 15}

>  <energy>  (44) 
-7.6

>  <cluster_rmsd>  (44) 
1.67

>  <cluster>  (44) 
5

$$$$

     RDKit          3D

 65 69  0  0  1  0  0  0  0  0999 V2000
  139.9830   73.1580  222.7290 O   0  0  0  0  0  0  0  0  0  0  0  0
  139.7980   71.9220  222.8340 C   0  0  0  0  0  0  0  0  0  0  0  0
  139.2840   71.1080  221.7900 N   0  0  0  0  0  0  0  0  0  0  0  0
  138.9520   71.7520  220.5180 C   0  0  0  0  0  0  0  0  0  0  0  0
  140.1170   72.2380  219.8070 C   0  0  0  0  0  0  0  0  0  0  0  0
  139.9450   72.5080  218.5520 O   0  0  0  0  0  0  0  0  0  0  0  0
  141.4160   72.4590  220.2860 N   0  0  0  0  0  0  0  0  0  0  0  0
  142.3020   71.2810  220.5630 C   0  0  0  0  0  0  0  0  0  0  0  0
  143.5760   71.7820  219.9210 C   0  0  0  0  0  0  0  0  0  0  0  0
  143.4610   73.2840  219.7850 C   0  0  0  0  0  0  0  0  0  0  0  0
  142.2090   73.5700  220.6370 C   0  0  1  0  0  0  0  0  0  0  0  0
  141.7490   74.9380  220.5500 C   0  0  0  0  0  0  0  0  0  0  0  0
  141.3130   75.6400  221.6850 N   0  0  0  0  0  0  0  0  0  0  0  0
  140.2690   76.5900  221.4780 C   0  0  2  0  0  0  0  0  0  0  0  0
  140.5050   77.8520  222.2160 C   0  0  0  0  0  0  0  0  0  0  0  0
  139.8480   79.0340  221.9440 C   0  0  0  0  0  0  0  0  0  0  0  0
  140.0840   80.2050  222.6470 C   0  0  0  0  0  0  0  0  0  0  0  0
  141.0080   80.2210  223.6670 C   0  0  0  0  0  0  0  0  0  0  0  0
  141.6860   79.0520  223.9650 C   0  0  0  0  0  0  0  0  0  0  0  0
  141.4380   77.9010  223.2570 C   0  0  0  0  0  0  0  0  0  0  0  0
  138.9160   76.0420  221.7600 C   0  0  0  0  0  0  0  0  0  0  0  0
  138.3310   75.0480  221.0010 C   0  0  0  0  0  0  0  0  0  0  0  0
  137.0590   74.6120  221.3600 C   0  0  0  0  0  0  0  0  0  0  0  0
  136.3940   75.1200  222.4050 N   0  0  0  0  0  0  0  0  0  0  0  0
  136.9570   76.0950  223.1550 C   0  0  0  0  0  0  0  0  0  0  0  0
  138.2180   76.5620  222.8410 C   0  0  0  0  0  0  0  0  0  0  0  0
  140.1270   71.2590  224.1060 C   0  0  0  0  0  0  0  0  0  0  0  0
  140.7600   71.9770  225.1240 C   0  0  0  0  0  0  0  0  0  0  0  0
  141.0730   71.3730  226.3170 C   0  0  0  0  0  0  0  0  0  0  0  0
  140.7620   70.0470  226.5140 C   0  0  0  0  0  0  0  0  0  0  0  0
  141.0860   69.4620  227.7220 C   0  0  0  0  0  0  0  0  0  0  0  0
  140.7730   68.1310  227.9180 C   0  0  0  0  0  0  0  0  0  0  0  0
  141.1080   67.5950  229.1160 F   0  0  0  0  0  0  0  0  0  0  0  0
  140.1470   67.4070  226.9240 C   0  0  0  0  0  0  0  0  0  0  0  0
  139.8190   68.0000  225.7030 C   0  0  0  0  0  0  0  0  0  0  0  0
  140.1310   69.3450  225.4910 C   0  0  0  0  0  0  0  0  0  0  0  0
  139.8480   69.9770  224.3510 N   0  0  0  0  0  0  0  0  0  0  0  0
  139.1580   70.0840  221.9540 H   0  0  0  0  0  0  0  0  0  0  0  0
  138.4322   71.0215  219.8807 H   0  0  0  0  0  0  0  0  0  0  0  0
  138.3195   72.6226  220.7459 H   0  0  0  0  0  0  0  0  0  0  0  0
  142.4264   71.1039  221.6415 H   0  0  0  0  0  0  0  0  0  0  0  0
  141.9332   70.3150  220.1878 H   0  0  0  0  0  0  0  0  0  0  0  0
  144.4395   71.5279  220.5533 H   0  0  0  0  0  0  0  0  0  0  0  0
  143.7208   71.3153  218.9355 H   0  0  0  0  0  0  0  0  0  0  0  0
  144.3480   73.7939  220.1890 H   0  0  0  0  0  0  0  0  0  0  0  0
  143.3890   73.6378  218.7459 H   0  0  0  0  0  0  0  0  0  0  0  0
  142.2960   73.6053  221.7330 H   0  0  0  0  0  0  0  0  0  0  0  0
  142.5819   75.5189  220.1271 H   0  0  0  0  0  0  0  0  0  0  0  0
  140.8234   74.8388  219.9640 H   0  0  0  0  0  0  0  0  0  0  0  0
  141.0570   75.0200  222.4760 H   0  0  0  0  0  0  0  0  0  0  0  0
  140.2933   76.8251  220.4037 H   0  0  0  0  0  0  0  0  0  0  0  0
  139.1042   79.0479  221.1337 H   0  0  0  0  0  0  0  0  0  0  0  0
  139.5328   81.1215  222.3897 H   0  0  0  0  0  0  0  0  0  0  0  0
  141.2034   81.1435  224.2334 H   0  0  0  0  0  0  0  0  0  0  0  0
  142.4297   79.0443  224.7755 H   0  0  0  0  0  0  0  0  0  0  0  0
  141.9919   76.9871  223.5176 H   0  0  0  0  0  0  0  0  0  0  0  0
  138.8553   74.6131  220.1373 H   0  0  0  0  0  0  0  0  0  0  0  0
  136.5823   73.8206  220.7629 H   0  0  0  0  0  0  0  0  0  0  0  0
  136.4115   76.5148  224.0130 H   0  0  0  0  0  0  0  0  0  0  0  0
  138.6737   77.3538  223.4536 H   0  0  0  0  0  0  0  0  0  0  0  0
  141.0101   73.0368  224.9682 H   0  0  0  0  0  0  0  0  0  0  0  0
  141.5706   71.9472  227.1124 H   0  0  0  0  0  0  0  0  0  0  0  0
  141.5832   70.0439  228.5120 H   0  0  0  0  0  0  0  0  0  0  0  0
  139.9030   66.3482  227.0958 H   0  0  0  0  0  0  0  0  0  0  0  0
  139.3203   67.4143  224.9167 H   0  0  0  0  0  0  0  0  0  0  0  0
  1  2  2  0
  2  3  1  0
  3  4  1  0
  4  5  1  0
  5  6  2  0
  5  7  1  0
  7  8  1  0
  8  9  1  0
  9 10  1  0
 10 11  1  0
 11 12  1  0
 12 13  1  0
 13 14  1  0
 14 15  1  0
 15 16  2  0
 16 17  1  0
 17 18  2  0
 18 19  1  0
 19 20  2  0
 14 21  1  0
 21 22  2  0
 22 23  1  0
 23 24  2  0
 24 25  1  0
 25 26  2  0
  2 27  1  0
 27 28  2  0
 28 29  1  0
 29 30  2  0
 30 31  1  0
 31 32  2  0
 32 33  1  0
 32 34  1  0
 34 35  2  0
 35 36  1  0
 36 37  2  0
 11  7  1  0
 20 15  1  0
 26 21  1  0
 37 27  1  0
 36 30  1  0
  3 38  1  0
  4 39  1  0
  4 40  1  0
  8 41  1  0
  8 42  1  0
  9 43  1  0
  9 44  1  0
 10 45  1  0
 10 46  1  0
 11 47  1  1
 12 48  1  0
 12 49  1  0
 13 50  1  0
 14 51  1  6
 16 52  1  0
 17 53  1  0
 18 54  1  0
 19 55  1  0
 20 56  1  0
 22 57  1  0
 23 58  1  0
 25 59  1  0
 26 60  1  0
 28 61  1  0
 29 62  1  0
 31 63  1  0
 34 64  1  0
 35 65  1  0
M  END
>  <smiles>  (45) 
O=C(NCC(=O)N1CCC[C@H]1CNC(c1ccccc1)c1ccncc1)c1ccc2cc(F)ccc2n1

>  <score_type>  (45) 
oracle

>  <origin>  (45) 
autodockgpu

>  <m_score__min__energy>  (45) 
-9.6600000000000001

>  <m_primary>  (45) 
energy

>  <rmsd>  (45) 
3.945282317046354

>  <m_score__min__rmsd>  (45) 
3.945282317046354

>  <meeko>  (45) 
{"free_energy": -8.16, "intermolecular_energy": -10.84, "internal_energy": -3.81, "cluster_size": 24, "cluster_id": 1, "rank_in_cluster": 21}

>  <energy>  (45) 
-8.81

>  <cluster_rmsd>  (45) 
0.0

>  <cluster>  (45) 
6

$$$$

     RDKit          3D

 65 69  0  0  1  0  0  0  0  0999 V2000
  139.4500   71.5790  220.6460 O   0  0  0  0  0  0  0  0  0  0  0  0
  140.2290   71.9040  221.5740 C   0  0  0  0  0  0  0  0  0  0  0  0
  141.3010   72.8230  221.4220 N   0  0  0  0  0  0  0  0  0  0  0  0
  141.5070   73.4240  220.1030 C   0  0  0  0  0  0  0  0  0  0  0  0
  142.6220   74.3500  220.0700 C   0  0  0  0  0  0  0  0  0  0  0  0
  143.1880   74.5990  221.2080 O   0  0  0  0  0  0  0  0  0  0  0  0
  143.1810   75.0200  218.9730 N   0  0  0  0  0  0  0  0  0  0  0  0
  144.0570   74.2600  218.0220 C   0  0  0  0  0  0  0  0  0  0  0  0
  143.4920   74.7670  216.7150 C   0  0  0  0  0  0  0  0  0  0  0  0
  142.7400   76.0460  217.0060 C   0  0  0  0  0  0  0  0  0  0  0  0
  143.1780   76.3320  218.4570 C   0  0  1  0  0  0  0  0  0  0  0  0
  142.4660   77.4300  219.0710 C   0  0  0  0  0  0  0  0  0  0  0  0
  142.3690   77.5520  220.4660 N   0  0  0  0  0  0  0  0  0  0  0  0
  141.2420   78.2750  220.9600 C   0  0  2  0  0  0  0  0  0  0  0  0
  141.6260   79.2910  221.9670 C   0  0  0  0  0  0  0  0  0  0  0  0
  142.1850   78.9860  223.1900 C   0  0  0  0  0  0  0  0  0  0  0  0
  142.5380   79.9520  224.1190 C   0  0  0  0  0  0  0  0  0  0  0  0
  142.3330   81.2840  223.8370 C   0  0  0  0  0  0  0  0  0  0  0  0
  141.7740   81.6250  222.6190 C   0  0  0  0  0  0  0  0  0  0  0  0
  141.4300   80.6530  221.7110 C   0  0  0  0  0  0  0  0  0  0  0  0
  140.1580   77.3930  221.4670 C   0  0  0  0  0  0  0  0  0  0  0  0
  138.8390   77.7900  221.5520 C   0  0  0  0  0  0  0  0  0  0  0  0
  137.9100   76.8770  222.0430 C   0  0  0  0  0  0  0  0  0  0  0  0
  138.2510   75.6420  222.4280 N   0  0  0  0  0  0  0  0  0  0  0  0
  139.5420   75.2420  222.3490 C   0  0  0  0  0  0  0  0  0  0  0  0
  140.5020   76.1100  221.8700 C   0  0  0  0  0  0  0  0  0  0  0  0
  140.0360   71.3090  222.9060 C   0  0  0  0  0  0  0  0  0  0  0  0
  139.2270   70.1790  223.0550 C   0  0  0  0  0  0  0  0  0  0  0  0
  139.0380   69.6110  224.2910 C   0  0  0  0  0  0  0  0  0  0  0  0
  139.6490   70.1580  225.3960 C   0  0  0  0  0  0  0  0  0  0  0  0
  139.4430   69.5690  226.6270 C   0  0  0  0  0  0  0  0  0  0  0  0
  140.0580   70.1190  227.7350 C   0  0  0  0  0  0  0  0  0  0  0  0
  139.8300   69.5120  228.9240 F   0  0  0  0  0  0  0  0  0  0  0  0
  140.8610   71.2350  227.6070 C   0  0  0  0  0  0  0  0  0  0  0  0
  141.0680   71.8290  226.3600 C   0  0  0  0  0  0  0  0  0  0  0  0
  140.4520   71.2830  225.2310 C   0  0  0  0  0  0  0  0  0  0  0  0
  140.6050   71.7970  224.0100 N   0  0  0  0  0  0  0  0  0  0  0  0
  141.9060   73.0440  222.2440 H   0  0  0  0  0  0  0  0  0  0  0  0
  141.6978   72.6197  219.3773 H   0  0  0  0  0  0  0  0  0  0  0  0
  140.5990   73.9936  219.8556 H   0  0  0  0  0  0  0  0  0  0  0  0
  145.1186   74.5226  218.1409 H   0  0  0  0  0  0  0  0  0  0  0  0
  144.0498   73.1670  218.1459 H   0  0  0  0  0  0  0  0  0  0  0  0
  144.3088   74.9655  216.0054 H   0  0  0  0  0  0  0  0  0  0  0  0
  142.8213   74.0182  216.2684 H   0  0  0  0  0  0  0  0  0  0  0  0
  143.0448   76.8556  216.3266 H   0  0  0  0  0  0  0  0  0  0  0  0
  141.6510   75.9683  216.8716 H   0  0  0  0  0  0  0  0  0  0  0  0
  144.1621   76.7850  218.6476 H   0  0  0  0  0  0  0  0  0  0  0  0
  142.9470   78.3516  218.7115 H   0  0  0  0  0  0  0  0  0  0  0  0
  141.4247   77.2302  218.7780 H   0  0  0  0  0  0  0  0  0  0  0  0
  142.4350   76.6440  220.9630 H   0  0  0  0  0  0  0  0  0  0  0  0
  140.8300   78.8083  220.0906 H   0  0  0  0  0  0  0  0  0  0  0  0
  142.3585   77.9288  223.4395 H   0  0  0  0  0  0  0  0  0  0  0  0
  142.9815   79.6548  225.0808 H   0  0  0  0  0  0  0  0  0  0  0  0
  142.6082   82.0609  224.5655 H   0  0  0  0  0  0  0  0  0  0  0  0
  141.6033   82.6839  222.3749 H   0  0  0  0  0  0  0  0  0  0  0  0
  140.9858   80.9552  220.7511 H   0  0  0  0  0  0  0  0  0  0  0  0
  138.5306   78.7990  221.2407 H   0  0  0  0  0  0  0  0  0  0  0  0
  136.8559   77.1825  222.1172 H   0  0  0  0  0  0  0  0  0  0  0  0
  139.8251   74.2274  222.6659 H   0  0  0  0  0  0  0  0  0  0  0  0
  141.5500   75.7820  221.8069 H   0  0  0  0  0  0  0  0  0  0  0  0
  138.7368   69.7402  222.1734 H   0  0  0  0  0  0  0  0  0  0  0  0
  138.4000   68.7213  224.3974 H   0  0  0  0  0  0  0  0  0  0  0  0
  138.8024   68.6800  226.7239 H   0  0  0  0  0  0  0  0  0  0  0  0
  141.3438   71.6617  228.4985 H   0  0  0  0  0  0  0  0  0  0  0  0
  141.7095   72.7178  226.2676 H   0  0  0  0  0  0  0  0  0  0  0  0
  1  2  2  0
  2  3  1  0
  3  4  1  0
  4  5  1  0
  5  6  2  0
  5  7  1  0
  7  8  1  0
  8  9  1  0
  9 10  1  0
 10 11  1  0
 11 12  1  0
 12 13  1  0
 13 14  1  0
 14 15  1  0
 15 16  2  0
 16 17  1  0
 17 18  2  0
 18 19  1  0
 19 20  2  0
 14 21  1  0
 21 22  2  0
 22 23  1  0
 23 24  2  0
 24 25  1  0
 25 26  2  0
  2 27  1  0
 27 28  2  0
 28 29  1  0
 29 30  2  0
 30 31  1  0
 31 32  2  0
 32 33  1  0
 32 34  1  0
 34 35  2  0
 35 36  1  0
 36 37  2  0
 11  7  1  0
 20 15  1  0
 26 21  1  0
 37 27  1  0
 36 30  1  0
  3 38  1  0
  4 39  1  0
  4 40  1  0
  8 41  1  0
  8 42  1  0
  9 43  1  0
  9 44  1  0
 10 45  1  0
 10 46  1  0
 11 47  1  6
 12 48  1  0
 12 49  1  0
 13 50  1  0
 14 51  1  6
 16 52  1  0
 17 53  1  0
 18 54  1  0
 19 55  1  0
 20 56  1  0
 22 57  1  0
 23 58  1  0
 25 59  1  0
 26 60  1  0
 28 61  1  0
 29 62  1  0
 31 63  1  0
 34 64  1  0
 35 65  1  0
M  END
>  <smiles>  (46) 
O=C(NCC(=O)N1CCC[C@H]1CNC(c1ccccc1)c1ccncc1)c1ccc2cc(F)ccc2n1

>  <score_type>  (46) 
oracle

>  <origin>  (46) 
autodockgpu

>  <m_score__min__energy>  (46) 
-9.6600000000000001

>  <m_primary>  (46) 
energy

>  <rmsd>  (46) 
3.082433344545693

>  <m_score__min__rmsd>  (46) 
3.082433344545693

>  <meeko>  (46) 
{"free_energy": -8.53, "intermolecular_energy": -11.21, "internal_energy": -3.87, "cluster_size": 24, "cluster_id": 1, "rank_in_cluster": 18}

>  <energy>  (46) 
-8.57

>  <cluster_rmsd>  (46) 
1.51

>  <cluster>  (46) 
6

$$$$

     RDKit          3D

 65 69  0  0  1  0  0  0  0  0999 V2000
  139.8230   73.3780  222.4460 O   0  0  0  0  0  0  0  0  0  0  0  0
  139.5880   72.1500  222.3440 C   0  0  0  0  0  0  0  0  0  0  0  0
  139.1670   71.5210  221.1430 N   0  0  0  0  0  0  0  0  0  0  0  0
  138.9990   72.3590  219.9540 C   0  0  0  0  0  0  0  0  0  0  0  0
  140.2210   73.0260  219.5520 C   0  0  0  0  0  0  0  0  0  0  0  0
  140.1590   73.7140  218.4560 O   0  0  0  0  0  0  0  0  0  0  0  0
  141.4720   73.0350  220.1850 N   0  0  0  0  0  0  0  0  0  0  0  0
  142.2330   71.7490  220.3140 C   0  0  0  0  0  0  0  0  0  0  0  0
  143.6030   72.2380  219.9030 C   0  0  0  0  0  0  0  0  0  0  0  0
  143.6150   73.7430  220.0450 C   0  0  0  0  0  0  0  0  0  0  0  0
  142.3010   73.9850  220.8150 C   0  0  1  0  0  0  0  0  0  0  0  0
  141.9570   75.3830  220.9470 C   0  0  0  0  0  0  0  0  0  0  0  0
  141.0520   75.8260  221.9250 N   0  0  0  0  0  0  0  0  0  0  0  0
  140.3730   77.0510  221.6490 C   0  0  2  0  0  0  0  0  0  0  0  0
  141.1150   78.2290  222.1510 C   0  0  0  0  0  0  0  0  0  0  0  0
  141.4640   78.4090  223.4730 C   0  0  0  0  0  0  0  0  0  0  0  0
  142.1600   79.5190  223.9240 C   0  0  0  0  0  0  0  0  0  0  0  0
  142.5330   80.5040  223.0370 C   0  0  0  0  0  0  0  0  0  0  0  0
  142.1980   80.3550  221.7030 C   0  0  0  0  0  0  0  0  0  0  0  0
  141.5080   79.2470  221.2750 C   0  0  0  0  0  0  0  0  0  0  0  0
  138.9630   77.0550  222.1220 C   0  0  0  0  0  0  0  0  0  0  0  0
  138.2560   78.2140  222.3770 C   0  0  0  0  0  0  0  0  0  0  0  0
  136.9410   78.0940  222.8170 C   0  0  0  0  0  0  0  0  0  0  0  0
  136.3480   76.9090  222.9970 N   0  0  0  0  0  0  0  0  0  0  0  0
  137.0320   75.7670  222.7510 C   0  0  0  0  0  0  0  0  0  0  0  0
  138.3390   75.8300  222.3130 C   0  0  0  0  0  0  0  0  0  0  0  0
  139.7530   71.2940  223.5310 C   0  0  0  0  0  0  0  0  0  0  0  0
  139.3710   69.9500  223.4790 C   0  0  0  0  0  0  0  0  0  0  0  0
  139.5190   69.1380  224.5760 C   0  0  0  0  0  0  0  0  0  0  0  0
  140.0460   69.6490  225.7400 C   0  0  0  0  0  0  0  0  0  0  0  0
  140.1850   68.8130  226.8290 C   0  0  0  0  0  0  0  0  0  0  0  0
  140.7150   69.3270  227.9960 C   0  0  0  0  0  0  0  0  0  0  0  0
  140.8340   68.4740  229.0410 F   0  0  0  0  0  0  0  0  0  0  0  0
  141.0980   70.6520  228.0650 C   0  0  0  0  0  0  0  0  0  0  0  0
  140.9570   71.4960  226.9620 C   0  0  0  0  0  0  0  0  0  0  0  0
  140.4220   70.9890  225.7750 C   0  0  0  0  0  0  0  0  0  0  0  0
  140.2590   71.7360  224.6830 N   0  0  0  0  0  0  0  0  0  0  0  0
  138.9920   70.4920  221.1370 H   0  0  0  0  0  0  0  0  0  0  0  0
  138.6572   71.7239  219.1234 H   0  0  0  0  0  0  0  0  0  0  0  0
  138.2657   73.1399  220.2038 H   0  0  0  0  0  0  0  0  0  0  0  0
  142.2244   71.3671  221.3455 H   0  0  0  0  0  0  0  0  0  0  0  0
  141.8377   70.9063  219.7279 H   0  0  0  0  0  0  0  0  0  0  0  0
  144.3703   71.7940  220.5543 H   0  0  0  0  0  0  0  0  0  0  0  0
  143.8207   71.9470  218.8648 H   0  0  0  0  0  0  0  0  0  0  0  0
  144.4877   74.0861  220.6201 H   0  0  0  0  0  0  0  0  0  0  0  0
  143.6836   74.2848  219.0901 H   0  0  0  0  0  0  0  0  0  0  0  0
  142.2680   73.8122  221.9008 H   0  0  0  0  0  0  0  0  0  0  0  0
  142.8999   75.9187  221.1311 H   0  0  0  0  0  0  0  0  0  0  0  0
  141.4119   75.5820  220.0125 H   0  0  0  0  0  0  0  0  0  0  0  0
  140.3580   75.1060  222.1980 H   0  0  0  0  0  0  0  0  0  0  0  0
  140.3357   77.1277  220.5523 H   0  0  0  0  0  0  0  0  0  0  0  0
  141.1770   77.6369  224.2020 H   0  0  0  0  0  0  0  0  0  0  0  0
  142.4144   79.6133  224.9900 H   0  0  0  0  0  0  0  0  0  0  0  0
  143.0856   81.3905  223.3818 H   0  0  0  0  0  0  0  0  0  0  0  0
  142.4868   81.1308  220.9786 H   0  0  0  0  0  0  0  0  0  0  0  0
  141.2560   79.1570  220.2080 H   0  0  0  0  0  0  0  0  0  0  0  0
  138.7184   79.2021  222.2365 H   0  0  0  0  0  0  0  0  0  0  0  0
  136.3673   79.0093  223.0247 H   0  0  0  0  0  0  0  0  0  0  0  0
  136.5470   74.7910  222.8999 H   0  0  0  0  0  0  0  0  0  0  0  0
  138.8918   74.9002  222.1133 H   0  0  0  0  0  0  0  0  0  0  0  0
  138.9479   69.5394  222.5504 H   0  0  0  0  0  0  0  0  0  0  0  0
  139.2171   68.0815  224.5247 H   0  0  0  0  0  0  0  0  0  0  0  0
  139.8796   67.7580  226.7687 H   0  0  0  0  0  0  0  0  0  0  0  0
  141.5195   71.0474  229.0009 H   0  0  0  0  0  0  0  0  0  0  0  0
  141.2642   72.5503  227.0268 H   0  0  0  0  0  0  0  0  0  0  0  0
  1  2  2  0
  2  3  1  0
  3  4  1  0
  4  5  1  0
  5  6  2  0
  5  7  1  0
  7  8  1  0
  8  9  1  0
  9 10  1  0
 10 11  1  0
 11 12  1  0
 12 13  1  0
 13 14  1  0
 14 15  1  0
 15 16  2  0
 16 17  1  0
 17 18  2  0
 18 19  1  0
 19 20  2  0
 14 21  1  0
 21 22  2  0
 22 23  1  0
 23 24  2  0
 24 25  1  0
 25 26  2  0
  2 27  1  0
 27 28  2  0
 28 29  1  0
 29 30  2  0
 30 31  1  0
 31 32  2  0
 32 33  1  0
 32 34  1  0
 34 35  2  0
 35 36  1  0
 36 37  2  0
 11  7  1  0
 20 15  1  0
 26 21  1  0
 37 27  1  0
 36 30  1  0
  3 38  1  0
  4 39  1  0
  4 40  1  0
  8 41  1  0
  8 42  1  0
  9 43  1  0
  9 44  1  0
 10 45  1  0
 10 46  1  0
 11 47  1  1
 12 48  1  0
 12 49  1  0
 13 50  1  0
 14 51  1  6
 16 52  1  0
 17 53  1  0
 18 54  1  0
 19 55  1  0
 20 56  1  0
 22 57  1  0
 23 58  1  0
 25 59  1  0
 26 60  1  0
 28 61  1  0
 29 62  1  0
 31 63  1  0
 34 64  1  0
 35 65  1  0
M  END
>  <smiles>  (47) 
O=C(NCC(=O)N1CCC[C@H]1CNC(c1ccccc1)c1ccncc1)c1ccc2cc(F)ccc2n1

>  <score_type>  (47) 
oracle

>  <origin>  (47) 
autodockgpu

>  <m_score__min__energy>  (47) 
-9.6600000000000001

>  <m_primary>  (47) 
energy

>  <rmsd>  (47) 
3.409837636291732

>  <m_score__min__rmsd>  (47) 
3.409837636291732

>  <meeko>  (47) 
{"free_energy": -9.12, "intermolecular_energy": -11.8, "internal_energy": -3.16, "cluster_size": 24, "cluster_id": 1, "rank_in_cluster": 9}

>  <energy>  (47) 
-7.84

>  <cluster_rmsd>  (47) 
0.0

>  <cluster>  (47) 
7

$$$$

     RDKit          3D

 65 69  0  0  1  0  0  0  0  0999 V2000
  141.4790   71.5090  221.1780 O   0  0  0  0  0  0  0  0  0  0  0  0
  140.6100   72.0600  221.8940 C   0  0  0  0  0  0  0  0  0  0  0  0
  139.9310   73.2550  221.5380 N   0  0  0  0  0  0  0  0  0  0  0  0
  140.2690   73.8800  220.2580 C   0  0  0  0  0  0  0  0  0  0  0  0
  141.5470   74.5640  220.2810 C   0  0  0  0  0  0  0  0  0  0  0  0
  141.9730   74.9330  221.4460 O   0  0  0  0  0  0  0  0  0  0  0  0
  142.3950   74.8860  219.2120 N   0  0  0  0  0  0  0  0  0  0  0  0
  143.1070   73.7840  218.4870 C   0  0  0  0  0  0  0  0  0  0  0  0
  142.8620   74.2340  217.0640 C   0  0  0  0  0  0  0  0  0  0  0  0
  142.4930   75.6990  217.1040 C   0  0  0  0  0  0  0  0  0  0  0  0
  142.8340   76.0580  218.5640 C   0  0  1  0  0  0  0  0  0  0  0  0
  142.4140   77.3880  218.9460 C   0  0  0  0  0  0  0  0  0  0  0  0
  142.3600   77.7810  220.2930 N   0  0  0  0  0  0  0  0  0  0  0  0
  141.1580   78.4240  220.7160 C   0  0  2  0  0  0  0  0  0  0  0  0
  141.3960   79.3960  221.8060 C   0  0  0  0  0  0  0  0  0  0  0  0
  142.5500   79.4350  222.5610 C   0  0  0  0  0  0  0  0  0  0  0  0
  142.7540   80.3540  223.5780 C   0  0  0  0  0  0  0  0  0  0  0  0
  141.7810   81.2830  223.8720 C   0  0  0  0  0  0  0  0  0  0  0  0
  140.6100   81.2710  223.1340 C   0  0  0  0  0  0  0  0  0  0  0  0
  140.4260   80.3510  222.1300 C   0  0  0  0  0  0  0  0  0  0  0  0
  140.0770   77.4660  221.0700 C   0  0  0  0  0  0  0  0  0  0  0  0
  139.0690   77.1090  220.1970 C   0  0  0  0  0  0  0  0  0  0  0  0
  138.1110   76.2020  220.6390 C   0  0  0  0  0  0  0  0  0  0  0  0
  138.1360   75.6710  221.8670 N   0  0  0  0  0  0  0  0  0  0  0  0
  139.1190   76.0150  222.7320 C   0  0  0  0  0  0  0  0  0  0  0  0
  140.0940   76.9110  222.3420 C   0  0  0  0  0  0  0  0  0  0  0  0
  140.2580   71.4450  223.1850 C   0  0  0  0  0  0  0  0  0  0  0  0
  139.4020   70.3410  223.2220 C   0  0  0  0  0  0  0  0  0  0  0  0
  139.0650   69.7560  224.4180 C   0  0  0  0  0  0  0  0  0  0  0  0
  139.5730   70.2600  225.5930 C   0  0  0  0  0  0  0  0  0  0  0  0
  139.2190   69.6540  226.7820 C   0  0  0  0  0  0  0  0  0  0  0  0
  139.7310   70.1610  227.9610 C   0  0  0  0  0  0  0  0  0  0  0  0
  139.3590   69.5390  229.1050 F   0  0  0  0  0  0  0  0  0  0  0  0
  140.5780   71.2510  227.9430 C   0  0  0  0  0  0  0  0  0  0  0  0
  140.9340   71.8620  226.7400 C   0  0  0  0  0  0  0  0  0  0  0  0
  140.4250   71.3600  225.5400 C   0  0  0  0  0  0  0  0  0  0  0  0
  140.7220   71.8920  224.3540 N   0  0  0  0  0  0  0  0  0  0  0  0
  139.2180   73.6530  222.1890 H   0  0  0  0  0  0  0  0  0  0  0  0
  140.3037   73.0984  219.4847 H   0  0  0  0  0  0  0  0  0  0  0  0
  139.4964   74.6338  220.0460 H   0  0  0  0  0  0  0  0  0  0  0  0
  144.1792   73.7560  218.7312 H   0  0  0  0  0  0  0  0  0  0  0  0
  142.7656   72.7657  218.7248 H   0  0  0  0  0  0  0  0  0  0  0  0
  143.7732   74.0932  216.4641 H   0  0  0  0  0  0  0  0  0  0  0  0
  142.0535   73.6448  216.6067 H   0  0  0  0  0  0  0  0  0  0  0  0
  143.0951   76.2852  216.3942 H   0  0  0  0  0  0  0  0  0  0  0  0
  141.4509   75.9085  216.8207 H   0  0  0  0  0  0  0  0  0  0  0  0
  143.8807   76.2421  218.8477 H   0  0  0  0  0  0  0  0  0  0  0  0
  143.1015   78.0863  218.4462 H   0  0  0  0  0  0  0  0  0  0  0  0
  141.3533   77.3941  218.6548 H   0  0  0  0  0  0  0  0  0  0  0  0
  142.5860   77.0140  220.9530 H   0  0  0  0  0  0  0  0  0  0  0  0
  140.8021   78.9884  219.8415 H   0  0  0  0  0  0  0  0  0  0  0  0
  143.3435   78.7041  222.3462 H   0  0  0  0  0  0  0  0  0  0  0  0
  143.6932   80.3414  224.1504 H   0  0  0  0  0  0  0  0  0  0  0  0
  141.9311   82.0187  224.6759 H   0  0  0  0  0  0  0  0  0  0  0  0
  139.8199   82.0043  223.3531 H   0  0  0  0  0  0  0  0  0  0  0  0
  139.4842   80.3658  221.5618 H   0  0  0  0  0  0  0  0  0  0  0  0
  139.0245   77.5294  219.1815 H   0  0  0  0  0  0  0  0  0  0  0  0
  137.3022   75.9103  219.9529 H   0  0  0  0  0  0  0  0  0  0  0  0
  139.1407   75.5817  223.7428 H   0  0  0  0  0  0  0  0  0  0  0  0
  140.8923   77.1879  223.0463 H   0  0  0  0  0  0  0  0  0  0  0  0
  138.9941   69.9366  222.2839 H   0  0  0  0  0  0  0  0  0  0  0  0
  138.3909   68.8870  224.4364 H   0  0  0  0  0  0  0  0  0  0  0  0
  138.5436   68.7858  226.7905 H   0  0  0  0  0  0  0  0  0  0  0  0
  140.9777   71.6432  228.8898 H   0  0  0  0  0  0  0  0  0  0  0  0
  141.6090   72.7306  226.7368 H   0  0  0  0  0  0  0  0  0  0  0  0
  1  2  2  0
  2  3  1  0
  3  4  1  0
  4  5  1  0
  5  6  2  0
  5  7  1  0
  7  8  1  0
  8  9  1  0
  9 10  1  0
 10 11  1  0
 11 12  1  0
 12 13  1  0
 13 14  1  0
 14 15  1  0
 15 16  2  0
 16 17  1  0
 17 18  2  0
 18 19  1  0
 19 20  2  0
 14 21  1  0
 21 22  2  0
 22 23  1  0
 23 24  2  0
 24 25  1  0
 25 26  2  0
  2 27  1  0
 27 28  2  0
 28 29  1  0
 29 30  2  0
 30 31  1  0
 31 32  2  0
 32 33  1  0
 32 34  1  0
 34 35  2  0
 35 36  1  0
 36 37  2  0
 11  7  1  0
 20 15  1  0
 26 21  1  0
 37 27  1  0
 36 30  1  0
  3 38  1  0
  4 39  1  0
  4 40  1  0
  8 41  1  0
  8 42  1  0
  9 43  1  0
  9 44  1  0
 10 45  1  0
 10 46  1  0
 11 47  1  6
 12 48  1  0
 12 49  1  0
 13 50  1  0
 14 51  1  6
 16 52  1  0
 17 53  1  0
 18 54  1  0
 19 55  1  0
 20 56  1  0
 22 57  1  0
 23 58  1  0
 25 59  1  0
 26 60  1  0
 28 61  1  0
 29 62  1  0
 31 63  1  0
 34 64  1  0
 35 65  1  0
M  END
>  <smiles>  (48) 
O=C(NCC(=O)N1CCC[C@H]1CNC(c1ccccc1)c1ccncc1)c1ccc2cc(F)ccc2n1

>  <score_type>  (48) 
oracle

>  <origin>  (48) 
autodockgpu

>  <m_score__min__energy>  (48) 
-9.6600000000000001

>  <m_primary>  (48) 
energy

>  <rmsd>  (48) 
2.6717998630182165

>  <m_score__min__rmsd>  (48) 
2.6717998630182165

>  <meeko>  (48) 
{"free_energy": -8.51, "intermolecular_energy": -11.19, "internal_energy": -3.9, "cluster_size": 24, "cluster_id": 1, "rank_in_cluster": 19}

>  <energy>  (48) 
-6.75

>  <cluster_rmsd>  (48) 
1.11

>  <cluster>  (48) 
7

$$$$

     RDKit          3D

 65 69  0  0  1  0  0  0  0  0999 V2000
  138.3750   70.7060  221.7730 O   0  0  0  0  0  0  0  0  0  0  0  0
  138.9610   71.2380  222.7460 C   0  0  0  0  0  0  0  0  0  0  0  0
  139.3560   72.6010  222.7840 N   0  0  0  0  0  0  0  0  0  0  0  0
  139.0600   73.4330  221.6170 C   0  0  0  0  0  0  0  0  0  0  0  0
  139.1870   74.8520  221.8840 C   0  0  0  0  0  0  0  0  0  0  0  0
  140.3340   75.2450  222.3380 O   0  0  0  0  0  0  0  0  0  0  0  0
  138.2360   75.8700  221.7220 N   0  0  0  0  0  0  0  0  0  0  0  0
  136.7800   75.5350  221.8480 C   0  0  0  0  0  0  0  0  0  0  0  0
  136.3400   76.6950  222.7120 C   0  0  0  0  0  0  0  0  0  0  0  0
  137.3920   77.7750  222.6010 C   0  0  0  0  0  0  0  0  0  0  0  0
  138.2440   77.2480  221.4290 C   0  0  1  0  0  0  0  0  0  0  0  0
  139.4510   78.0100  221.2030 C   0  0  0  0  0  0  0  0  0  0  0  0
  140.7100   77.5190  221.5850 N   0  0  0  0  0  0  0  0  0  0  0  0
  141.8270   78.3660  221.3150 C   0  0  2  0  0  0  0  0  0  0  0  0
  141.9680   79.4440  222.3190 C   0  0  0  0  0  0  0  0  0  0  0  0
  143.1700   79.8080  222.8900 C   0  0  0  0  0  0  0  0  0  0  0  0
  143.2810   80.8210  223.8290 C   0  0  0  0  0  0  0  0  0  0  0  0
  142.1610   81.5140  224.2300 C   0  0  0  0  0  0  0  0  0  0  0  0
  140.9390   81.1740  223.6770 C   0  0  0  0  0  0  0  0  0  0  0  0
  140.8490   80.1660  222.7470 C   0  0  0  0  0  0  0  0  0  0  0  0
  141.8260   78.9100  219.9310 C   0  0  0  0  0  0  0  0  0  0  0  0
  141.8590   78.1110  218.8060 C   0  0  0  0  0  0  0  0  0  0  0  0
  141.8540   78.7330  217.5600 C   0  0  0  0  0  0  0  0  0  0  0  0
  141.8180   80.0630  217.4210 N   0  0  0  0  0  0  0  0  0  0  0  0
  141.7850   80.8560  218.5180 C   0  0  0  0  0  0  0  0  0  0  0  0
  141.7880   80.2890  219.7760 C   0  0  0  0  0  0  0  0  0  0  0  0
  139.2660   70.4150  223.9290 C   0  0  0  0  0  0  0  0  0  0  0  0
  138.9400   69.0560  223.9360 C   0  0  0  0  0  0  0  0  0  0  0  0
  139.2190   68.2750  225.0310 C   0  0  0  0  0  0  0  0  0  0  0  0
  139.8240   68.8340  226.1330 C   0  0  0  0  0  0  0  0  0  0  0  0
  140.0940   68.0290  227.2210 C   0  0  0  0  0  0  0  0  0  0  0  0
  140.7020   68.5910  228.3260 C   0  0  0  0  0  0  0  0  0  0  0  0
  140.9500   67.7670  229.3730 F   0  0  0  0  0  0  0  0  0  0  0  0
  141.0320   69.9320  228.3360 C   0  0  0  0  0  0  0  0  0  0  0  0
  140.7580   70.7440  227.2350 C   0  0  0  0  0  0  0  0  0  0  0  0
  140.1430   70.1890  226.1100 C   0  0  0  0  0  0  0  0  0  0  0  0
  139.8520   70.9040  225.0230 N   0  0  0  0  0  0  0  0  0  0  0  0
  139.8400   72.9710  223.6320 H   0  0  0  0  0  0  0  0  0  0  0  0
  139.7574   73.1648  220.8097 H   0  0  0  0  0  0  0  0  0  0  0  0
  138.0133   73.2442  221.3363 H   0  0  0  0  0  0  0  0  0  0  0  0
  136.2721   75.5324  220.8723 H   0  0  0  0  0  0  0  0  0  0  0  0
  136.5593   74.5359  222.2519 H   0  0  0  0  0  0  0  0  0  0  0  0
  135.3709   77.0782  222.3598 H   0  0  0  0  0  0  0  0  0  0  0  0
  136.2252   76.3747  223.7581 H   0  0  0  0  0  0  0  0  0  0  0  0
  136.9434   78.7514  222.3655 H   0  0  0  0  0  0  0  0  0  0  0  0
  137.9589   77.9484  223.5276 H   0  0  0  0  0  0  0  0  0  0  0  0
  137.8917   77.3867  220.3962 H   0  0  0  0  0  0  0  0  0  0  0  0
  139.5046   78.1927  220.1196 H   0  0  0  0  0  0  0  0  0  0  0  0
  139.3179   78.8698  221.8761 H   0  0  0  0  0  0  0  0  0  0  0  0
  140.7480   77.2110  222.5740 H   0  0  0  0  0  0  0  0  0  0  0  0
  142.7137   77.7202  221.3964 H   0  0  0  0  0  0  0  0  0  0  0  0
  144.0804   79.2704  222.5865 H   0  0  0  0  0  0  0  0  0  0  0  0
  144.2642   81.0715  224.2541 H   0  0  0  0  0  0  0  0  0  0  0  0
  142.2360   82.3207  224.9741 H   0  0  0  0  0  0  0  0  0  0  0  0
  140.0319   81.7150  223.9843 H   0  0  0  0  0  0  0  0  0  0  0  0
  139.8637   79.9187  222.3250 H   0  0  0  0  0  0  0  0  0  0  0  0
  141.8884   77.0147  218.8911 H   0  0  0  0  0  0  0  0  0  0  0  0
  141.8807   78.1070  216.6559 H   0  0  0  0  0  0  0  0  0  0  0  0
  141.7559   81.9500  218.4066 H   0  0  0  0  0  0  0  0  0  0  0  0
  141.7600   80.9362  220.6650 H   0  0  0  0  0  0  0  0  0  0  0  0
  138.4554   68.6075  223.0562 H   0  0  0  0  0  0  0  0  0  0  0  0
  138.9595   67.2061  225.0268 H   0  0  0  0  0  0  0  0  0  0  0  0
  139.8301   66.9612  227.2081 H   0  0  0  0  0  0  0  0  0  0  0  0
  141.5170   70.3654  229.2231 H   0  0  0  0  0  0  0  0  0  0  0  0
  141.0237   71.8113  227.2526 H   0  0  0  0  0  0  0  0  0  0  0  0
  1  2  2  0
  2  3  1  0
  3  4  1  0
  4  5  1  0
  5  6  2  0
  5  7  1  0
  7  8  1  0
  8  9  1  0
  9 10  1  0
 10 11  1  0
 11 12  1  0
 12 13  1  0
 13 14  1  0
 14 15  1  0
 15 16  2  0
 16 17  1  0
 17 18  2  0
 18 19  1  0
 19 20  2  0
 14 21  1  0
 21 22  2  0
 22 23  1  0
 23 24  2  0
 24 25  1  0
 25 26  2  0
  2 27  1  0
 27 28  2  0
 28 29  1  0
 29 30  2  0
 30 31  1  0
 31 32  2  0
 32 33  1  0
 32 34  1  0
 34 35  2  0
 35 36  1  0
 36 37  2  0
 11  7  1  0
 20 15  1  0
 26 21  1  0
 37 27  1  0
 36 30  1  0
  3 38  1  0
  4 39  1  0
  4 40  1  0
  8 41  1  0
  8 42  1  0
  9 43  1  0
  9 44  1  0
 10 45  1  0
 10 46  1  0
 11 47  1  6
 12 48  1  0
 12 49  1  0
 13 50  1  0
 14 51  1  6
 16 52  1  0
 17 53  1  0
 18 54  1  0
 19 55  1  0
 20 56  1  0
 22 57  1  0
 23 58  1  0
 25 59  1  0
 26 60  1  0
 28 61  1  0
 29 62  1  0
 31 63  1  0
 34 64  1  0
 35 65  1  0
M  END
>  <smiles>  (49) 
O=C(NCC(=O)N1CCC[C@H]1CNC(c1ccccc1)c1ccncc1)c1ccc2cc(F)ccc2n1

>  <score_type>  (49) 
oracle

>  <origin>  (49) 
autodockgpu

>  <m_score__min__energy>  (49) 
-9.6600000000000001

>  <m_primary>  (49) 
energy

>  <rmsd>  (49) 
3.0808894922339998

>  <m_score__min__rmsd>  (49) 
3.0808894922339998

>  <meeko>  (49) 
{"free_energy": -9.45, "intermolecular_energy": -12.14, "internal_energy": -2.71, "cluster_size": 8, "cluster_id": 3, "rank_in_cluster": 2}

>  <energy>  (49) 
-7.79

>  <cluster_rmsd>  (49) 
0.0

>  <cluster>  (49) 
8

$$$$

     RDKit          3D

 65 69  0  0  1  0  0  0  0  0999 V2000
  138.5820   70.7340  221.6540 O   0  0  0  0  0  0  0  0  0  0  0  0
  139.0570   71.3150  222.6590 C   0  0  0  0  0  0  0  0  0  0  0  0
  139.3440   72.7050  222.7070 N   0  0  0  0  0  0  0  0  0  0  0  0
  139.0690   73.5040  221.5120 C   0  0  0  0  0  0  0  0  0  0  0  0
  140.2230   74.2490  221.0500 C   0  0  0  0  0  0  0  0  0  0  0  0
  141.0910   74.5710  221.9550 O   0  0  0  0  0  0  0  0  0  0  0  0
  140.5380   74.6760  219.7520 N   0  0  0  0  0  0  0  0  0  0  0  0
  139.9050   73.9820  218.5820 C   0  0  0  0  0  0  0  0  0  0  0  0
  139.5200   75.1940  217.7640 C   0  0  0  0  0  0  0  0  0  0  0  0
  140.3440   76.3610  218.2570 C   0  0  0  0  0  0  0  0  0  0  0  0
  141.3700   75.6480  219.1610 C   0  0  1  0  0  0  0  0  0  0  0  0
  142.2020   76.5550  219.9190 C   0  0  0  0  0  0  0  0  0  0  0  0
  141.8250   77.0020  221.1960 N   0  0  0  0  0  0  0  0  0  0  0  0
  140.8600   78.0530  221.2370 C   0  0  2  0  0  0  0  0  0  0  0  0
  141.2750   79.1600  222.1270 C   0  0  0  0  0  0  0  0  0  0  0  0
  142.5790   79.3850  222.5150 C   0  0  0  0  0  0  0  0  0  0  0  0
  142.9470   80.4280  223.3490 C   0  0  0  0  0  0  0  0  0  0  0  0
  141.9920   81.2970  223.8280 C   0  0  0  0  0  0  0  0  0  0  0  0
  140.6740   81.1000  223.4580 C   0  0  0  0  0  0  0  0  0  0  0  0
  140.3280   80.0590  222.6300 C   0  0  0  0  0  0  0  0  0  0  0  0
  139.4910   77.5740  221.5690 C   0  0  0  0  0  0  0  0  0  0  0  0
  139.1950   76.8730  222.7210 C   0  0  0  0  0  0  0  0  0  0  0  0
  137.8770   76.4760  222.9250 C   0  0  0  0  0  0  0  0  0  0  0  0
  136.9010   76.7490  222.0520 N   0  0  0  0  0  0  0  0  0  0  0  0
  137.1790   77.4350  220.9190 C   0  0  0  0  0  0  0  0  0  0  0  0
  138.4710   77.8520  220.6690 C   0  0  0  0  0  0  0  0  0  0  0  0
  139.3400   70.5270  223.8700 C   0  0  0  0  0  0  0  0  0  0  0  0
  138.9880   69.1750  223.9190 C   0  0  0  0  0  0  0  0  0  0  0  0
  139.2460   68.4260  225.0410 C   0  0  0  0  0  0  0  0  0  0  0  0
  139.8550   69.0090  226.1290 C   0  0  0  0  0  0  0  0  0  0  0  0
  140.1030   68.2350  227.2440 C   0  0  0  0  0  0  0  0  0  0  0  0
  140.7150   68.8220  228.3340 C   0  0  0  0  0  0  0  0  0  0  0  0
  140.9410   68.0290  229.4090 F   0  0  0  0  0  0  0  0  0  0  0  0
  141.0690   70.1560  228.3020 C   0  0  0  0  0  0  0  0  0  0  0  0
  140.8180   70.9370  227.1730 C   0  0  0  0  0  0  0  0  0  0  0  0
  140.1990   70.3570  226.0630 C   0  0  0  0  0  0  0  0  0  0  0  0
  139.9280   71.0410  224.9510 N   0  0  0  0  0  0  0  0  0  0  0  0
  139.7380   73.1170  223.5820 H   0  0  0  0  0  0  0  0  0  0  0  0
  138.7423   72.8293  220.7070 H   0  0  0  0  0  0  0  0  0  0  0  0
  138.2907   74.2347  221.7772 H   0  0  0  0  0  0  0  0  0  0  0  0
  140.6193   73.3362  218.0504 H   0  0  0  0  0  0  0  0  0  0  0  0
  139.0798   73.2979  218.8291 H   0  0  0  0  0  0  0  0  0  0  0  0
  139.7298   75.0100  216.7000 H   0  0  0  0  0  0  0  0  0  0  0  0
  138.4463   75.4071  217.8725 H   0  0  0  0  0  0  0  0  0  0  0  0
  140.8367   76.8857  217.4252 H   0  0  0  0  0  0  0  0  0  0  0  0
  139.7596   77.1405  218.7677 H   0  0  0  0  0  0  0  0  0  0  0  0
  142.2335   75.1399  218.7070 H   0  0  0  0  0  0  0  0  0  0  0  0
  143.1752   76.0566  220.0393 H   0  0  0  0  0  0  0  0  0  0  0  0
  142.1527   77.4771  219.3213 H   0  0  0  0  0  0  0  0  0  0  0  0
  141.5230   76.2370  221.8260 H   0  0  0  0  0  0  0  0  0  0  0  0
  140.8132   78.4521  220.2130 H   0  0  0  0  0  0  0  0  0  0  0  0
  143.3618   78.7060  222.1458 H   0  0  0  0  0  0  0  0  0  0  0  0
  144.0023   80.5622  223.6288 H   0  0  0  0  0  0  0  0  0  0  0  0
  142.2714   82.1296  224.4904 H   0  0  0  0  0  0  0  0  0  0  0  0
  139.8956   81.7826  223.8297 H   0  0  0  0  0  0  0  0  0  0  0  0
  139.2714   79.9282  222.3535 H   0  0  0  0  0  0  0  0  0  0  0  0
  139.9781   76.6353  223.4560 H   0  0  0  0  0  0  0  0  0  0  0  0
  137.6283   75.9165  223.8388 H   0  0  0  0  0  0  0  0  0  0  0  0
  136.3779   77.6596  220.1995 H   0  0  0  0  0  0  0  0  0  0  0  0
  138.6946   78.4100  219.7478 H   0  0  0  0  0  0  0  0  0  0  0  0
  138.5001   68.7069  223.0513 H   0  0  0  0  0  0  0  0  0  0  0  0
  138.9665   67.3625  225.0700 H   0  0  0  0  0  0  0  0  0  0  0  0
  139.8191   67.1725  227.2643 H   0  0  0  0  0  0  0  0  0  0  0  0
  141.5555   70.6094  229.1782 H   0  0  0  0  0  0  0  0  0  0  0  0
  141.1047   71.9989  227.1573 H   0  0  0  0  0  0  0  0  0  0  0  0
  1  2  2  0
  2  3  1  0
  3  4  1  0
  4  5  1  0
  5  6  2  0
  5  7  1  0
  7  8  1  0
  8  9  1  0
  9 10  1  0
 10 11  1  0
 11 12  1  0
 12 13  1  0
 13 14  1  0
 14 15  1  0
 15 16  2  0
 16 17  1  0
 17 18  2  0
 18 19  1  0
 19 20  2  0
 14 21  1  0
 21 22  2  0
 22 23  1  0
 23 24  2  0
 24 25  1  0
 25 26  2  0
  2 27  1  0
 27 28  2  0
 28 29  1  0
 29 30  2  0
 30 31  1  0
 31 32  2  0
 32 33  1  0
 32 34  1  0
 34 35  2  0
 35 36  1  0
 36 37  2  0
 11  7  1  0
 20 15  1  0
 26 21  1  0
 37 27  1  0
 36 30  1  0
  3 38  1  0
  4 39  1  0
  4 40  1  0
  8 41  1  0
  8 42  1  0
  9 43  1  0
  9 44  1  0
 10 45  1  0
 10 46  1  0
 11 47  1  6
 12 48  1  0
 12 49  1  0
 13 50  1  0
 14 51  1  6
 16 52  1  0
 17 53  1  0
 18 54  1  0
 19 55  1  0
 20 56  1  0
 22 57  1  0
 23 58  1  0
 25 59  1  0
 26 60  1  0
 28 61  1  0
 29 62  1  0
 31 63  1  0
 34 64  1  0
 35 65  1  0
M  END
>  <smiles>  (50) 
O=C(NCC(=O)N1CCC[C@H]1CNC(c1ccccc1)c1ccncc1)c1ccc2cc(F)ccc2n1

>  <score_type>  (50) 
oracle

>  <origin>  (50) 
autodockgpu

>  <m_score__min__energy>  (50) 
-9.6600000000000001

>  <m_primary>  (50) 
energy

>  <rmsd>  (50) 
2.0027526620008884

>  <m_score__min__rmsd>  (50) 
2.0027526620008884

>  <meeko>  (50) 
{"free_energy": -8.63, "intermolecular_energy": -11.31, "internal_energy": -3.85, "cluster_size": 24, "cluster_id": 1, "rank_in_cluster": 17}

>  <energy>  (50) 
-6.69

>  <cluster_rmsd>  (50) 
0.0

>  <cluster>  (50) 
9

$$$$

     RDKit          3D

 65 69  0  0  1  0  0  0  0  0999 V2000
  139.1860   71.4680  221.0740 O   0  0  0  0  0  0  0  0  0  0  0  0
  139.3830   71.9300  222.2290 C   0  0  0  0  0  0  0  0  0  0  0  0
  139.4700   73.3350  222.4190 N   0  0  0  0  0  0  0  0  0  0  0  0
  139.3350   74.2490  221.3060 C   0  0  0  0  0  0  0  0  0  0  0  0
  139.5680   75.6680  221.6870 C   0  0  0  0  0  0  0  0  0  0  0  0
  140.2240   75.9880  222.7090 O   0  0  0  0  0  0  0  0  0  0  0  0
  139.0200   76.6640  220.8490 N   0  0  0  0  0  0  0  0  0  0  0  0
  137.8550   76.5700  219.9550 C   0  0  0  0  0  0  0  0  0  0  0  0
  138.4910   77.1010  218.6720 C   0  0  0  0  0  0  0  0  0  0  0  0
  139.1630   78.3520  219.2360 C   0  0  0  0  0  0  0  0  0  0  0  0
  139.4970   78.0150  220.6860 C   0  0  1  0  0  0  0  0  0  0  0  0
  138.7500   79.0180  221.5220 C   0  0  0  0  0  0  0  0  0  0  0  0
  138.3420   78.5220  222.8120 N   0  0  0  0  0  0  0  0  0  0  0  0
  138.9010   79.4040  223.8190 C   0  0  1  0  0  0  0  0  0  0  0  0
  140.2960   79.7950  223.4960 C   0  0  0  0  0  0  0  0  0  0  0  0
  141.2970   78.8270  223.4260 C   0  0  0  0  0  0  0  0  0  0  0  0
  142.6120   79.1800  223.1240 C   0  0  0  0  0  0  0  0  0  0  0  0
  142.9420   80.5030  222.8900 C   0  0  0  0  0  0  0  0  0  0  0  0
  141.9480   81.4500  222.9630 C   0  0  0  0  0  0  0  0  0  0  0  0
  140.6280   81.1340  223.2600 C   0  0  0  0  0  0  0  0  0  0  0  0
  138.0440   80.6060  224.0570 C   0  0  0  0  0  0  0  0  0  0  0  0
  137.6990   81.0130  225.3350 C   0  0  0  0  0  0  0  0  0  0  0  0
  136.9080   82.1230  225.5220 C   0  0  0  0  0  0  0  0  0  0  0  0
  136.4510   82.8400  224.4900 N   0  0  0  0  0  0  0  0  0  0  0  0
  136.7670   82.4720  223.2530 C   0  0  0  0  0  0  0  0  0  0  0  0
  137.5550   81.3700  222.9940 C   0  0  0  0  0  0  0  0  0  0  0  0
  139.5290   71.0640  223.4080 C   0  0  0  0  0  0  0  0  0  0  0  0
  139.1390   69.7400  223.3740 C   0  0  0  0  0  0  0  0  0  0  0  0
  139.2640   68.8980  224.4680 C   0  0  0  0  0  0  0  0  0  0  0  0
  139.8020   69.4090  225.6410 C   0  0  0  0  0  0  0  0  0  0  0  0
  139.9540   68.6120  226.7800 C   0  0  0  0  0  0  0  0  0  0  0  0
  140.5020   69.2030  227.9160 C   0  0  0  0  0  0  0  0  0  0  0  0
  140.6420   68.4090  229.0160 F   0  0  0  0  0  0  0  0  0  0  0  0
  140.8870   70.5360  227.9260 C   0  0  0  0  0  0  0  0  0  0  0  0
  140.7240   71.2980  226.7840 C   0  0  0  0  0  0  0  0  0  0  0  0
  140.1830   70.7360  225.6450 C   0  0  0  0  0  0  0  0  0  0  0  0
  140.0550   71.5420  224.5720 N   0  0  0  0  0  0  0  0  0  0  0  0
  139.6370   73.7070  223.3990 H   0  0  0  0  0  0  0  0  0  0  0  0
  140.0653   73.9694  220.5324 H   0  0  0  0  0  0  0  0  0  0  0  0
  138.3002   74.1722  220.9411 H   0  0  0  0  0  0  0  0  0  0  0  0
  137.5045   75.5334  219.8426 H   0  0  0  0  0  0  0  0  0  0  0  0
  136.9561   77.1064  220.2932 H   0  0  0  0  0  0  0  0  0  0  0  0
  139.2219   76.3947  218.2514 H   0  0  0  0  0  0  0  0  0  0  0  0
  137.7963   77.2738  217.8369 H   0  0  0  0  0  0  0  0  0  0  0  0
  140.0798   78.5828  218.6737 H   0  0  0  0  0  0  0  0  0  0  0  0
  138.5112   79.2349  219.1614 H   0  0  0  0  0  0  0  0  0  0  0  0
  140.5581   78.0650  220.9716 H   0  0  0  0  0  0  0  0  0  0  0  0
  139.4009   79.8909  221.6777 H   0  0  0  0  0  0  0  0  0  0  0  0
  137.8301   79.2663  220.9724 H   0  0  0  0  0  0  0  0  0  0  0  0
  138.6980   77.5460  222.8970 H   0  0  0  0  0  0  0  0  0  0  0  0
  138.9243   78.8311  224.7578 H   0  0  0  0  0  0  0  0  0  0  0  0
  141.0465   77.7720  223.6112 H   0  0  0  0  0  0  0  0  0  0  0  0
  143.3896   78.4037  223.0717 H   0  0  0  0  0  0  0  0  0  0  0  0
  143.9764   80.7908  222.6509 H   0  0  0  0  0  0  0  0  0  0  0  0
  142.2088   82.5026  222.7784 H   0  0  0  0  0  0  0  0  0  0  0  0
  139.8599   81.9199  223.3086 H   0  0  0  0  0  0  0  0  0  0  0  0
  138.0595   80.4455  226.2056 H   0  0  0  0  0  0  0  0  0  0  0  0
  136.6451   82.4282  226.5456 H   0  0  0  0  0  0  0  0  0  0  0  0
  136.3878   83.0655  222.4080 H   0  0  0  0  0  0  0  0  0  0  0  0
  137.7970   81.0942  221.9570 H   0  0  0  0  0  0  0  0  0  0  0  0
  138.7128   69.3379  222.4431 H   0  0  0  0  0  0  0  0  0  0  0  0
  138.9437   67.8474  224.4078 H   0  0  0  0  0  0  0  0  0  0  0  0
  139.6511   67.5545  226.7788 H   0  0  0  0  0  0  0  0  0  0  0  0
  141.3180   70.9824  228.8343 H   0  0  0  0  0  0  0  0  0  0  0  0
  141.0264   72.3556  226.7829 H   0  0  0  0  0  0  0  0  0  0  0  0
  1  2  2  0
  2  3  1  0
  3  4  1  0
  4  5  1  0
  5  6  2  0
  5  7  1  0
  7  8  1  0
  8  9  1  0
  9 10  1  0
 10 11  1  0
 11 12  1  0
 12 13  1  0
 13 14  1  0
 14 15  1  0
 15 16  2  0
 16 17  1  0
 17 18  2  0
 18 19  1  0
 19 20  2  0
 14 21  1  0
 21 22  2  0
 22 23  1  0
 23 24  2  0
 24 25  1  0
 25 26  2  0
  2 27  1  0
 27 28  2  0
 28 29  1  0
 29 30  2  0
 30 31  1  0
 31 32  2  0
 32 33  1  0
 32 34  1  0
 34 35  2  0
 35 36  1  0
 36 37  2  0
 11  7  1  0
 20 15  1  0
 26 21  1  0
 37 27  1  0
 36 30  1  0
  3 38  1  0
  4 39  1  0
  4 40  1  0
  8 41  1  0
  8 42  1  0
  9 43  1  0
  9 44  1  0
 10 45  1  0
 10 46  1  0
 11 47  1  6
 12 48  1  0
 12 49  1  0
 13 50  1  0
 14 51  1  1
 16 52  1  0
 17 53  1  0
 18 54  1  0
 19 55  1  0
 20 56  1  0
 22 57  1  0
 23 58  1  0
 25 59  1  0
 26 60  1  0
 28 61  1  0
 29 62  1  0
 31 63  1  0
 34 64  1  0
 35 65  1  0
M  END
>  <smiles>  (51) 
O=C(NCC(=O)N1CCC[C@H]1CNC(c1ccccc1)c1ccncc1)c1ccc2cc(F)ccc2n1

>  <score_type>  (51) 
oracle

>  <origin>  (51) 
autodockgpu

>  <m_score__min__energy>  (51) 
-9.4299999999999997

>  <m_primary>  (51) 
energy

>  <rmsd>  (51) 
2.5192894680859497

>  <m_score__min__rmsd>  (51) 
2.5192894680859497

>  <meeko>  (51) 
{"free_energy": -8.81, "intermolecular_energy": -11.5, "internal_energy": -3.28, "cluster_size": 5, "cluster_id": 3, "rank_in_cluster": 2}

>  <energy>  (51) 
-9.43

>  <cluster_rmsd>  (51) 
0.0

>  <cluster>  (51) 
1

$$$$

     RDKit          3D

 65 69  0  0  1  0  0  0  0  0999 V2000
  140.2340   73.6740  221.7980 O   0  0  0  0  0  0  0  0  0  0  0  0
  140.5920   74.8710  221.6390 C   0  0  0  0  0  0  0  0  0  0  0  0
  141.8960   75.1580  221.1560 N   0  0  0  0  0  0  0  0  0  0  0  0
  142.8250   74.0950  220.8390 C   0  0  0  0  0  0  0  0  0  0  0  0
  143.7870   74.4640  219.7670 C   0  0  0  0  0  0  0  0  0  0  0  0
  144.9990   74.1370  219.8140 O   0  0  0  0  0  0  0  0  0  0  0  0
  143.2890   75.2050  218.6730 N   0  0  0  0  0  0  0  0  0  0  0  0
  142.6340   74.7090  217.4520 C   0  0  0  0  0  0  0  0  0  0  0  0
  143.4820   75.4370  216.4100 C   0  0  0  0  0  0  0  0  0  0  0  0
  143.4460   76.8420  217.0090 C   0  0  0  0  0  0  0  0  0  0  0  0
  143.3160   76.6380  218.5160 C   0  0  1  0  0  0  0  0  0  0  0  0
  142.0270   77.3080  218.9100 C   0  0  0  0  0  0  0  0  0  0  0  0
  142.0320   77.8530  220.2440 N   0  0  0  0  0  0  0  0  0  0  0  0
  141.2880   79.0980  220.2120 C   0  0  1  0  0  0  0  0  0  0  0  0
  141.6240   79.9720  221.3630 C   0  0  0  0  0  0  0  0  0  0  0  0
  142.5430   79.5470  222.3210 C   0  0  0  0  0  0  0  0  0  0  0  0
  142.8690   80.3580  223.4090 C   0  0  0  0  0  0  0  0  0  0  0  0
  142.2780   81.6010  223.5520 C   0  0  0  0  0  0  0  0  0  0  0  0
  141.3720   82.0100  222.6020 C   0  0  0  0  0  0  0  0  0  0  0  0
  141.0260   81.2290  221.5060 C   0  0  0  0  0  0  0  0  0  0  0  0
  141.4560   79.8240  218.9150 C   0  0  0  0  0  0  0  0  0  0  0  0
  140.4680   79.8230  217.9450 C   0  0  0  0  0  0  0  0  0  0  0  0
  140.6520   80.4990  216.7620 C   0  0  0  0  0  0  0  0  0  0  0  0
  141.7780   81.1750  216.5090 N   0  0  0  0  0  0  0  0  0  0  0  0
  142.7430   81.1930  217.4220 C   0  0  0  0  0  0  0  0  0  0  0  0
  142.6250   80.5370  218.6290 C   0  0  0  0  0  0  0  0  0  0  0  0
  139.7030   76.0030  221.9390 C   0  0  0  0  0  0  0  0  0  0  0  0
  138.4130   76.0480  221.4490 C   0  0  0  0  0  0  0  0  0  0  0  0
  137.5510   77.1010  221.7140 C   0  0  0  0  0  0  0  0  0  0  0  0
  138.0060   78.1490  222.5020 C   0  0  0  0  0  0  0  0  0  0  0  0
  137.1870   79.2410  222.8040 C   0  0  0  0  0  0  0  0  0  0  0  0
  137.7200   80.2500  223.6020 C   0  0  0  0  0  0  0  0  0  0  0  0
  136.9050   81.3060  223.8860 F   0  0  0  0  0  0  0  0  0  0  0  0
  139.0200   80.1840  224.0830 C   0  0  0  0  0  0  0  0  0  0  0  0
  139.8060   79.0910  223.7660 C   0  0  0  0  0  0  0  0  0  0  0  0
  139.3000   78.0770  222.9770 C   0  0  0  0  0  0  0  0  0  0  0  0
  140.1260   77.0460  222.7110 N   0  0  0  0  0  0  0  0  0  0  0  0
  142.1810   76.1720  221.0290 H   0  0  0  0  0  0  0  0  0  0  0  0
  143.3921   73.8428  221.7472 H   0  0  0  0  0  0  0  0  0  0  0  0
  142.2356   73.2416  220.4724 H   0  0  0  0  0  0  0  0  0  0  0  0
  142.7131   73.6160  217.3569 H   0  0  0  0  0  0  0  0  0  0  0  0
  141.5509   74.8911  217.3900 H   0  0  0  0  0  0  0  0  0  0  0  0
  144.5054   75.0368  216.3589 H   0  0  0  0  0  0  0  0  0  0  0  0
  143.1266   75.3568  215.3721 H   0  0  0  0  0  0  0  0  0  0  0  0
  144.3732   77.3847  216.7728 H   0  0  0  0  0  0  0  0  0  0  0  0
  142.6147   77.4378  216.6040 H   0  0  0  0  0  0  0  0  0  0  0  0
  144.1170   77.0590  219.1414 H   0  0  0  0  0  0  0  0  0  0  0  0
  141.8332   78.1277  218.2025 H   0  0  0  0  0  0  0  0  0  0  0  0
  141.2463   76.5335  218.8863 H   0  0  0  0  0  0  0  0  0  0  0  0
  143.0280   77.9920  220.5190 H   0  0  0  0  0  0  0  0  0  0  0  0
  140.2251   78.8282  220.2985 H   0  0  0  0  0  0  0  0  0  0  0  0
  143.0173   78.5599  222.2182 H   0  0  0  0  0  0  0  0  0  0  0  0
  143.5978   80.0081  224.1549 H   0  0  0  0  0  0  0  0  0  0  0  0
  142.5274   82.2473  224.4064 H   0  0  0  0  0  0  0  0  0  0  0  0
  140.9010   82.9977  222.7144 H   0  0  0  0  0  0  0  0  0  0  0  0
  140.2971   81.5914  220.7661 H   0  0  0  0  0  0  0  0  0  0  0  0
  139.5293   79.2776  218.1221 H   0  0  0  0  0  0  0  0  0  0  0  0
  139.8538   80.4835  216.0053 H   0  0  0  0  0  0  0  0  0  0  0  0
  143.6671   81.7499  217.2078 H   0  0  0  0  0  0  0  0  0  0  0  0
  143.4444   80.5741  219.3619 H   0  0  0  0  0  0  0  0  0  0  0  0
  138.0554   75.2163  220.8243 H   0  0  0  0  0  0  0  0  0  0  0  0
  136.5285   77.1058  221.3085 H   0  0  0  0  0  0  0  0  0  0  0  0
  136.1564   79.3011  222.4241 H   0  0  0  0  0  0  0  0  0  0  0  0
  139.4216   80.9933  224.7105 H   0  0  0  0  0  0  0  0  0  0  0  0
  140.8373   79.0293  224.1436 H   0  0  0  0  0  0  0  0  0  0  0  0
  1  2  2  0
  2  3  1  0
  3  4  1  0
  4  5  1  0
  5  6  2  0
  5  7  1  0
  7  8  1  0
  8  9  1  0
  9 10  1  0
 10 11  1  0
 11 12  1  0
 12 13  1  0
 13 14  1  0
 14 15  1  0
 15 16  2  0
 16 17  1  0
 17 18  2  0
 18 19  1  0
 19 20  2  0
 14 21  1  0
 21 22  2  0
 22 23  1  0
 23 24  2  0
 24 25  1  0
 25 26  2  0
  2 27  1  0
 27 28  2  0
 28 29  1  0
 29 30  2  0
 30 31  1  0
 31 32  2  0
 32 33  1  0
 32 34  1  0
 34 35  2  0
 35 36  1  0
 36 37  2  0
 11  7  1  0
 20 15  1  0
 26 21  1  0
 37 27  1  0
 36 30  1  0
  3 38  1  0
  4 39  1  0
  4 40  1  0
  8 41  1  0
  8 42  1  0
  9 43  1  0
  9 44  1  0
 10 45  1  0
 10 46  1  0
 11 47  1  1
 12 48  1  0
 12 49  1  0
 13 50  1  0
 14 51  1  1
 16 52  1  0
 17 53  1  0
 18 54  1  0
 19 55  1  0
 20 56  1  0
 22 57  1  0
 23 58  1  0
 25 59  1  0
 26 60  1  0
 28 61  1  0
 29 62  1  0
 31 63  1  0
 34 64  1  0
 35 65  1  0
M  END
>  <smiles>  (52) 
O=C(NCC(=O)N1CCC[C@H]1CNC(c1ccccc1)c1ccncc1)c1ccc2cc(F)ccc2n1

>  <score_type>  (52) 
oracle

>  <origin>  (52) 
autodockgpu

>  <m_score__min__energy>  (52) 
-9.4299999999999997

>  <m_primary>  (52) 
energy

>  <rmsd>  (52) 
6.290979567313615

>  <m_score__min__rmsd>  (52) 
6.290979567313615

>  <meeko>  (52) 
{"free_energy": -7.57, "intermolecular_energy": -10.26, "internal_energy": -4.47, "cluster_size": 5, "cluster_id": 6, "rank_in_cluster": 1}

>  <energy>  (52) 
-9.23

>  <cluster_rmsd>  (52) 
1.54

>  <cluster>  (52) 
1

$$$$

     RDKit          3D

 65 69  0  0  1  0  0  0  0  0999 V2000
  137.6210   71.8550  223.0190 O   0  0  0  0  0  0  0  0  0  0  0  0
  138.8090   71.4660  223.1760 C   0  0  0  0  0  0  0  0  0  0  0  0
  139.8210   71.9230  222.2890 N   0  0  0  0  0  0  0  0  0  0  0  0
  139.5110   72.8300  221.2070 C   0  0  0  0  0  0  0  0  0  0  0  0
  139.8670   74.2420  221.5110 C   0  0  0  0  0  0  0  0  0  0  0  0
  140.9880   74.5640  221.9760 O   0  0  0  0  0  0  0  0  0  0  0  0
  138.8890   75.2290  221.2570 N   0  0  0  0  0  0  0  0  0  0  0  0
  137.5230   75.3260  221.7960 C   0  0  0  0  0  0  0  0  0  0  0  0
  136.7580   75.5020  220.4860 C   0  0  0  0  0  0  0  0  0  0  0  0
  137.6140   76.5980  219.8520 C   0  0  0  0  0  0  0  0  0  0  0  0
  139.0230   76.3760  220.3940 C   0  0  1  0  0  0  0  0  0  0  0  0
  139.3820   77.6390  221.1290 C   0  0  0  0  0  0  0  0  0  0  0  0
  140.0840   77.4200  222.3680 N   0  0  0  0  0  0  0  0  0  0  0  0
  141.4460   77.8870  222.1900 C   0  0  1  0  0  0  0  0  0  0  0  0
  141.8280   77.9410  220.7560 C   0  0  0  0  0  0  0  0  0  0  0  0
  142.2350   76.7840  220.0960 C   0  0  0  0  0  0  0  0  0  0  0  0
  142.5970   76.8190  218.7490 C   0  0  0  0  0  0  0  0  0  0  0  0
  142.5560   78.0120  218.0480 C   0  0  0  0  0  0  0  0  0  0  0  0
  142.1540   79.1480  218.7100 C   0  0  0  0  0  0  0  0  0  0  0  0
  141.7860   79.1490  220.0500 C   0  0  0  0  0  0  0  0  0  0  0  0
  141.6860   79.2000  222.8630 C   0  0  0  0  0  0  0  0  0  0  0  0
  142.9640   79.6510  223.1470 C   0  0  0  0  0  0  0  0  0  0  0  0
  143.1530   80.8640  223.7680 C   0  0  0  0  0  0  0  0  0  0  0  0
  142.1220   81.6420  224.1150 N   0  0  0  0  0  0  0  0  0  0  0  0
  140.8850   81.2340  223.8550 C   0  0  0  0  0  0  0  0  0  0  0  0
  140.6240   80.0300  223.2350 C   0  0  0  0  0  0  0  0  0  0  0  0
  139.2000   70.5450  224.2530 C   0  0  0  0  0  0  0  0  0  0  0  0
  138.8570   69.2090  224.2090 C   0  0  0  0  0  0  0  0  0  0  0  0
  139.2110   68.3160  225.2090 C   0  0  0  0  0  0  0  0  0  0  0  0
  139.9370   68.7880  226.2950 C   0  0  0  0  0  0  0  0  0  0  0  0
  140.3230   67.9380  227.3360 C   0  0  0  0  0  0  0  0  0  0  0  0
  141.0490   68.4920  228.3880 C   0  0  0  0  0  0  0  0  0  0  0  0
  141.4170   67.6470  229.3940 F   0  0  0  0  0  0  0  0  0  0  0  0
  141.3820   69.8390  228.4100 C   0  0  0  0  0  0  0  0  0  0  0  0
  140.9850   70.6530  227.3650 C   0  0  0  0  0  0  0  0  0  0  0  0
  140.2640   70.1290  226.3100 C   0  0  0  0  0  0  0  0  0  0  0  0
  139.9140   70.9840  225.3300 N   0  0  0  0  0  0  0  0  0  0  0  0
  140.8160   71.5850  222.4350 H   0  0  0  0  0  0  0  0  0  0  0  0
  140.0684   72.5128  220.3133 H   0  0  0  0  0  0  0  0  0  0  0  0
  138.4232   72.7923  221.0479 H   0  0  0  0  0  0  0  0  0  0  0  0
  137.2240   74.4107  222.3279 H   0  0  0  0  0  0  0  0  0  0  0  0
  137.3659   76.1169  222.5442 H   0  0  0  0  0  0  0  0  0  0  0  0
  136.7548   74.5815  219.8838 H   0  0  0  0  0  0  0  0  0  0  0  0
  135.6891   75.7394  220.5916 H   0  0  0  0  0  0  0  0  0  0  0  0
  137.6047   76.5078  218.7557 H   0  0  0  0  0  0  0  0  0  0  0  0
  137.2365   77.6027  220.0930 H   0  0  0  0  0  0  0  0  0  0  0  0
  139.8118   76.1841  219.6517 H   0  0  0  0  0  0  0  0  0  0  0  0
  140.0202   78.2502  220.4739 H   0  0  0  0  0  0  0  0  0  0  0  0
  138.4351   78.1368  221.3850 H   0  0  0  0  0  0  0  0  0  0  0  0
  140.0380   76.3990  222.5750 H   0  0  0  0  0  0  0  0  0  0  0  0
  142.0961   77.1473  222.6801 H   0  0  0  0  0  0  0  0  0  0  0  0
  142.2715   75.8307  220.6436 H   0  0  0  0  0  0  0  0  0  0  0  0
  142.9159   75.8960  218.2426 H   0  0  0  0  0  0  0  0  0  0  0  0
  142.8386   78.0502  216.9856 H   0  0  0  0  0  0  0  0  0  0  0  0
  142.1223   80.0971  218.1549 H   0  0  0  0  0  0  0  0  0  0  0  0
  141.4686   80.0786  220.5451 H   0  0  0  0  0  0  0  0  0  0  0  0
  143.8339   79.0354  222.8743 H   0  0  0  0  0  0  0  0  0  0  0  0
  144.1771   81.2022  223.9844 H   0  0  0  0  0  0  0  0  0  0  0  0
  140.0409   81.8776  224.1437 H   0  0  0  0  0  0  0  0  0  0  0  0
  139.5865   79.7245  223.0343 H   0  0  0  0  0  0  0  0  0  0  0  0
  138.2810   68.8385  223.3482 H   0  0  0  0  0  0  0  0  0  0  0  0
  138.9230   67.2564  225.1436 H   0  0  0  0  0  0  0  0  0  0  0  0
  140.0625   66.8693  227.3247 H   0  0  0  0  0  0  0  0  0  0  0  0
  141.9563   70.2553  229.2508 H   0  0  0  0  0  0  0  0  0  0  0  0
  141.2444   71.7219  227.3741 H   0  0  0  0  0  0  0  0  0  0  0  0
  1  2  2  0
  2  3  1  0
  3  4  1  0
  4  5  1  0
  5  6  2  0
  5  7  1  0
  7  8  1  0
  8  9  1  0
  9 10  1  0
 10 11  1  0
 11 12  1  0
 12 13  1  0
 13 14  1  0
 14 15  1  0
 15 16  2  0
 16 17  1  0
 17 18  2  0
 18 19  1  0
 19 20  2  0
 14 21  1  0
 21 22  2  0
 22 23  1  0
 23 24  2  0
 24 25  1  0
 25 26  2  0
  2 27  1  0
 27 28  2  0
 28 29  1  0
 29 30  2  0
 30 31  1  0
 31 32  2  0
 32 33  1  0
 32 34  1  0
 34 35  2  0
 35 36  1  0
 36 37  2  0
 11  7  1  0
 20 15  1  0
 26 21  1  0
 37 27  1  0
 36 30  1  0
  3 38  1  0
  4 39  1  0
  4 40  1  0
  8 41  1  0
  8 42  1  0
  9 43  1  0
  9 44  1  0
 10 45  1  0
 10 46  1  0
 11 47  1  6
 12 48  1  0
 12 49  1  0
 13 50  1  0
 14 51  1  1
 16 52  1  0
 17 53  1  0
 18 54  1  0
 19 55  1  0
 20 56  1  0
 22 57  1  0
 23 58  1  0
 25 59  1  0
 26 60  1  0
 28 61  1  0
 29 62  1  0
 31 63  1  0
 34 64  1  0
 35 65  1  0
M  END
>  <smiles>  (53) 
O=C(NCC(=O)N1CCC[C@H]1CNC(c1ccccc1)c1ccncc1)c1ccc2cc(F)ccc2n1

>  <score_type>  (53) 
oracle

>  <origin>  (53) 
autodockgpu

>  <m_score__min__energy>  (53) 
-9.4299999999999997

>  <m_primary>  (53) 
energy

>  <rmsd>  (53) 
3.1351906575272044

>  <m_score__min__rmsd>  (53) 
3.1351906575272044

>  <meeko>  (53) 
{"free_energy": -8.97, "intermolecular_energy": -11.66, "internal_energy": -2.98, "cluster_size": 19, "cluster_id": 1, "rank_in_cluster": 5}

>  <energy>  (53) 
-9.19

>  <cluster_rmsd>  (53) 
1.76

>  <cluster>  (53) 
1

$$$$

     RDKit          3D

 65 69  0  0  1  0  0  0  0  0999 V2000
  140.3260   73.2080  221.9960 O   0  0  0  0  0  0  0  0  0  0  0  0
  139.5520   72.2450  222.2430 C   0  0  0  0  0  0  0  0  0  0  0  0
  138.4820   71.9560  221.3550 N   0  0  0  0  0  0  0  0  0  0  0  0
  138.2650   72.7500  220.1650 C   0  0  0  0  0  0  0  0  0  0  0  0
  138.5960   74.1870  220.3570 C   0  0  0  0  0  0  0  0  0  0  0  0
  139.4830   74.7650  219.6820 O   0  0  0  0  0  0  0  0  0  0  0  0
  137.8680   74.8970  221.3370 N   0  0  0  0  0  0  0  0  0  0  0  0
  136.9470   74.3680  222.3560 C   0  0  0  0  0  0  0  0  0  0  0  0
  135.7470   75.2750  222.0900 C   0  0  0  0  0  0  0  0  0  0  0  0
  136.4650   76.6230  222.0610 C   0  0  0  0  0  0  0  0  0  0  0  0
  137.8730   76.3220  221.5550 C   0  0  1  0  0  0  0  0  0  0  0  0
  138.8050   76.7580  222.6530 C   0  0  0  0  0  0  0  0  0  0  0  0
  140.1740   76.3550  222.4560 N   0  0  0  0  0  0  0  0  0  0  0  0
  140.7630   77.2600  221.4870 C   0  0  1  0  0  0  0  0  0  0  0  0
  141.3340   78.4670  222.1340 C   0  0  0  0  0  0  0  0  0  0  0  0
  141.5700   79.6180  221.3850 C   0  0  0  0  0  0  0  0  0  0  0  0
  142.1060   80.7610  221.9800 C   0  0  0  0  0  0  0  0  0  0  0  0
  142.4120   80.7650  223.3300 C   0  0  0  0  0  0  0  0  0  0  0  0
  142.1760   79.6240  224.0590 C   0  0  0  0  0  0  0  0  0  0  0  0
  141.6430   78.4690  223.5000 C   0  0  0  0  0  0  0  0  0  0  0  0
  141.7760   76.5810  220.6220 C   0  0  0  0  0  0  0  0  0  0  0  0
  142.3770   77.2290  219.5560 C   0  0  0  0  0  0  0  0  0  0  0  0
  143.3040   76.5770  218.7770 C   0  0  0  0  0  0  0  0  0  0  0  0
  143.6560   75.3100  219.0190 N   0  0  0  0  0  0  0  0  0  0  0  0
  143.0950   74.6640  220.0350 C   0  0  0  0  0  0  0  0  0  0  0  0
  142.1580   75.2560  220.8560 C   0  0  0  0  0  0  0  0  0  0  0  0
  139.7110   71.3950  223.4320 C   0  0  0  0  0  0  0  0  0  0  0  0
  139.3450   70.0640  223.4120 C   0  0  0  0  0  0  0  0  0  0  0  0
  139.4830   69.2370  224.5160 C   0  0  0  0  0  0  0  0  0  0  0  0
  140.0080   69.7710  225.6850 C   0  0  0  0  0  0  0  0  0  0  0  0
  140.1710   68.9900  226.8320 C   0  0  0  0  0  0  0  0  0  0  0  0
  140.7050   69.6030  227.9630 C   0  0  0  0  0  0  0  0  0  0  0  0
  140.8570   68.8240  229.0720 F   0  0  0  0  0  0  0  0  0  0  0  0
  141.0660   70.9430  227.9590 C   0  0  0  0  0  0  0  0  0  0  0  0
  140.8920   71.6900  226.8080 C   0  0  0  0  0  0  0  0  0  0  0  0
  140.3640   71.1050  225.6740 C   0  0  0  0  0  0  0  0  0  0  0  0
  140.2250   71.8960  224.5930 N   0  0  0  0  0  0  0  0  0  0  0  0
  137.8390   71.1420  221.5790 H   0  0  0  0  0  0  0  0  0  0  0  0
  138.8952   72.3500  219.3570 H   0  0  0  0  0  0  0  0  0  0  0  0
  137.1945   72.6889  219.9193 H   0  0  0  0  0  0  0  0  0  0  0  0
  136.7083   73.3079  222.1852 H   0  0  0  0  0  0  0  0  0  0  0  0
  137.3277   74.3787  223.3880 H   0  0  0  0  0  0  0  0  0  0  0  0
  135.2620   75.0457  221.1297 H   0  0  0  0  0  0  0  0  0  0  0  0
  134.9239   75.1939  222.8152 H   0  0  0  0  0  0  0  0  0  0  0  0
  135.9517   77.3178  221.3800 H   0  0  0  0  0  0  0  0  0  0  0  0
  136.4800   77.0997  223.0522 H   0  0  0  0  0  0  0  0  0  0  0  0
  138.1844   76.8312  220.6310 H   0  0  0  0  0  0  0  0  0  0  0  0
  138.7737   77.8557  222.7173 H   0  0  0  0  0  0  0  0  0  0  0  0
  138.4596   76.2688  223.5757 H   0  0  0  0  0  0  0  0  0  0  0  0
  140.1630   75.3680  222.1220 H   0  0  0  0  0  0  0  0  0  0  0  0
  139.9438   77.5900  220.8313 H   0  0  0  0  0  0  0  0  0  0  0  0
  141.3309   79.6259  220.3113 H   0  0  0  0  0  0  0  0  0  0  0  0
  142.2858   81.6615  221.3743 H   0  0  0  0  0  0  0  0  0  0  0  0
  142.8344   81.6609  223.8084 H   0  0  0  0  0  0  0  0  0  0  0  0
  142.4197   79.6253  225.1317 H   0  0  0  0  0  0  0  0  0  0  0  0
  141.4675   77.5754  224.1170 H   0  0  0  0  0  0  0  0  0  0  0  0
  142.1111   78.2723  219.3308 H   0  0  0  0  0  0  0  0  0  0  0  0
  143.7672   77.1109  217.9342 H   0  0  0  0  0  0  0  0  0  0  0  0
  143.3876   73.6214  220.2282 H   0  0  0  0  0  0  0  0  0  0  0  0
  141.7145   74.6903  221.6886 H   0  0  0  0  0  0  0  0  0  0  0  0
  138.9281   69.6438  222.4849 H   0  0  0  0  0  0  0  0  0  0  0  0
  139.1828   68.1799  224.4668 H   0  0  0  0  0  0  0  0  0  0  0  0
  139.8873   67.9273  226.8415 H   0  0  0  0  0  0  0  0  0  0  0  0
  141.4868   71.4070  228.8632 H   0  0  0  0  0  0  0  0  0  0  0  0
  141.1750   72.7529  226.7959 H   0  0  0  0  0  0  0  0  0  0  0  0
  1  2  2  0
  2  3  1  0
  3  4  1  0
  4  5  1  0
  5  6  2  0
  5  7  1  0
  7  8  1  0
  8  9  1  0
  9 10  1  0
 10 11  1  0
 11 12  1  0
 12 13  1  0
 13 14  1  0
 14 15  1  0
 15 16  2  0
 16 17  1  0
 17 18  2  0
 18 19  1  0
 19 20  2  0
 14 21  1  0
 21 22  2  0
 22 23  1  0
 23 24  2  0
 24 25  1  0
 25 26  2  0
  2 27  1  0
 27 28  2  0
 28 29  1  0
 29 30  2  0
 30 31  1  0
 31 32  2  0
 32 33  1  0
 32 34  1  0
 34 35  2  0
 35 36  1  0
 36 37  2  0
 11  7  1  0
 20 15  1  0
 26 21  1  0
 37 27  1  0
 36 30  1  0
  3 38  1  0
  4 39  1  0
  4 40  1  0
  8 41  1  0
  8 42  1  0
  9 43  1  0
  9 44  1  0
 10 45  1  0
 10 46  1  0
 11 47  1  6
 12 48  1  0
 12 49  1  0
 13 50  1  0
 14 51  1  6
 16 52  1  0
 17 53  1  0
 18 54  1  0
 19 55  1  0
 20 56  1  0
 22 57  1  0
 23 58  1  0
 25 59  1  0
 26 60  1  0
 28 61  1  0
 29 62  1  0
 31 63  1  0
 34 64  1  0
 35 65  1  0
M  END
>  <smiles>  (54) 
O=C(NCC(=O)N1CCC[C@H]1CNC(c1ccccc1)c1ccncc1)c1ccc2cc(F)ccc2n1

>  <score_type>  (54) 
oracle

>  <origin>  (54) 
autodockgpu

>  <m_score__min__energy>  (54) 
-9.4299999999999997

>  <m_primary>  (54) 
energy

>  <rmsd>  (54) 
3.211458023725198

>  <m_score__min__rmsd>  (54) 
3.211458023725198

>  <meeko>  (54) 
{"free_energy": -8.9, "intermolecular_energy": -11.59, "internal_energy": -3.34, "cluster_size": 19, "cluster_id": 1, "rank_in_cluster": 8}

>  <energy>  (54) 
-9.07

>  <cluster_rmsd>  (54) 
1.55

>  <cluster>  (54) 
1

$$$$

     RDKit          3D

 65 69  0  0  1  0  0  0  0  0999 V2000
  139.8280   71.4980  221.0490 O   0  0  0  0  0  0  0  0  0  0  0  0
  139.7530   71.9440  222.2250 C   0  0  0  0  0  0  0  0  0  0  0  0
  139.6360   73.3430  222.4410 N   0  0  0  0  0  0  0  0  0  0  0  0
  139.6000   74.2690  221.3300 C   0  0  0  0  0  0  0  0  0  0  0  0
  139.5010   75.6890  221.7600 C   0  0  0  0  0  0  0  0  0  0  0  0
  139.6110   76.0340  222.9620 O   0  0  0  0  0  0  0  0  0  0  0  0
  139.2760   76.6580  220.7560 N   0  0  0  0  0  0  0  0  0  0  0  0
  138.3210   76.6130  219.6370 C   0  0  0  0  0  0  0  0  0  0  0  0
  139.2760   76.9450  218.4920 C   0  0  0  0  0  0  0  0  0  0  0  0
  139.9740   78.1590  219.1030 C   0  0  0  0  0  0  0  0  0  0  0  0
  139.9500   77.9240  220.6100 C   0  0  1  0  0  0  0  0  0  0  0  0
  139.1830   79.0810  221.1930 C   0  0  0  0  0  0  0  0  0  0  0  0
  138.3080   78.7190  222.2790 N   0  0  0  0  0  0  0  0  0  0  0  0
  138.8020   79.3720  223.4760 C   0  0  1  0  0  0  0  0  0  0  0  0
  140.2420   79.7140  223.3650 C   0  0  0  0  0  0  0  0  0  0  0  0
  140.6340   81.0300  223.1280 C   0  0  0  0  0  0  0  0  0  0  0  0
  141.9840   81.3660  223.0210 C   0  0  0  0  0  0  0  0  0  0  0  0
  142.9560   80.3900  223.1480 C   0  0  0  0  0  0  0  0  0  0  0  0
  142.5590   79.0940  223.3810 C   0  0  0  0  0  0  0  0  0  0  0  0
  141.2240   78.7250  223.4940 C   0  0  0  0  0  0  0  0  0  0  0  0
  137.9880   80.5720  223.8430 C   0  0  0  0  0  0  0  0  0  0  0  0
  137.7230   80.8970  225.1630 C   0  0  0  0  0  0  0  0  0  0  0  0
  136.9700   82.0070  225.4690 C   0  0  0  0  0  0  0  0  0  0  0  0
  136.4750   82.8030  224.5150 N   0  0  0  0  0  0  0  0  0  0  0  0
  136.7150   82.5140  223.2410 C   0  0  0  0  0  0  0  0  0  0  0  0
  137.4600   81.4170  222.8630 C   0  0  0  0  0  0  0  0  0  0  0  0
  139.7830   71.0650  223.4030 C   0  0  0  0  0  0  0  0  0  0  0  0
  139.3460   69.7570  223.3290 C   0  0  0  0  0  0  0  0  0  0  0  0
  139.3620   68.9030  224.4210 C   0  0  0  0  0  0  0  0  0  0  0  0
  139.8350   69.3860  225.6340 C   0  0  0  0  0  0  0  0  0  0  0  0
  139.8760   68.5760  226.7730 C   0  0  0  0  0  0  0  0  0  0  0  0
  140.3650   69.1370  227.9500 C   0  0  0  0  0  0  0  0  0  0  0  0
  140.3980   68.3300  229.0490 F   0  0  0  0  0  0  0  0  0  0  0  0
  140.8000   70.4540  228.0000 C   0  0  0  0  0  0  0  0  0  0  0  0
  140.7460   71.2300  226.8560 C   0  0  0  0  0  0  0  0  0  0  0  0
  140.2650   70.6970  225.6770 C   0  0  0  0  0  0  0  0  0  0  0  0
  140.2440   71.5140  224.6060 N   0  0  0  0  0  0  0  0  0  0  0  0
  139.5750   73.7020  223.4370 H   0  0  0  0  0  0  0  0  0  0  0  0
  140.5201   74.1447  220.7402 H   0  0  0  0  0  0  0  0  0  0  0  0
  138.7001   74.0404  220.7402 H   0  0  0  0  0  0  0  0  0  0  0  0
  137.8688   75.6170  219.5209 H   0  0  0  0  0  0  0  0  0  0  0  0
  137.4494   77.2771  219.7328 H   0  0  0  0  0  0  0  0  0  0  0  0
  139.9793   76.1235  218.2908 H   0  0  0  0  0  0  0  0  0  0  0  0
  138.8001   77.1164  217.5152 H   0  0  0  0  0  0  0  0  0  0  0  0
  141.0103   78.2297  218.7410 H   0  0  0  0  0  0  0  0  0  0  0  0
  139.4746   79.0996  218.8276 H   0  0  0  0  0  0  0  0  0  0  0  0
  140.9253   77.8790  221.1168 H   0  0  0  0  0  0  0  0  0  0  0  0
  139.9057   79.8227  221.5641 H   0  0  0  0  0  0  0  0  0  0  0  0
  138.5443   79.4756  220.3890 H   0  0  0  0  0  0  0  0  0  0  0  0
  138.3230   77.6800  222.3580 H   0  0  0  0  0  0  0  0  0  0  0  0
  138.6953   78.6444  224.2940 H   0  0  0  0  0  0  0  0  0  0  0  0
  139.8694   81.8140  223.0240 H   0  0  0  0  0  0  0  0  0  0  0  0
  142.2762   82.4101  222.8351 H   0  0  0  0  0  0  0  0  0  0  0  0
  144.0228   80.6448  223.0645 H   0  0  0  0  0  0  0  0  0  0  0  0
  143.3308   78.3167  223.4822 H   0  0  0  0  0  0  0  0  0  0  0  0
  140.9449   77.6776  223.6809 H   0  0  0  0  0  0  0  0  0  0  0  0
  138.1170   80.2638  225.9716 H   0  0  0  0  0  0  0  0  0  0  0  0
  136.7702   82.2456  226.5240 H   0  0  0  0  0  0  0  0  0  0  0  0
  136.3054   83.1723  222.4607 H   0  0  0  0  0  0  0  0  0  0  0  0
  137.6375   81.2084  221.7976 H   0  0  0  0  0  0  0  0  0  0  0  0
  138.9709   69.3783  222.3668 H   0  0  0  0  0  0  0  0  0  0  0  0
  139.0078   67.8657  224.3286 H   0  0  0  0  0  0  0  0  0  0  0  0
  139.5336   67.5311  226.7404 H   0  0  0  0  0  0  0  0  0  0  0  0
  141.1840   70.8767  228.9402 H   0  0  0  0  0  0  0  0  0  0  0  0
  141.0875   72.2752  226.8860 H   0  0  0  0  0  0  0  0  0  0  0  0
  1  2  2  0
  2  3  1  0
  3  4  1  0
  4  5  1  0
  5  6  2  0
  5  7  1  0
  7  8  1  0
  8  9  1  0
  9 10  1  0
 10 11  1  0
 11 12  1  0
 12 13  1  0
 13 14  1  0
 14 15  1  0
 15 16  2  0
 16 17  1  0
 17 18  2  0
 18 19  1  0
 19 20  2  0
 14 21  1  0
 21 22  2  0
 22 23  1  0
 23 24  2  0
 24 25  1  0
 25 26  2  0
  2 27  1  0
 27 28  2  0
 28 29  1  0
 29 30  2  0
 30 31  1  0
 31 32  2  0
 32 33  1  0
 32 34  1  0
 34 35  2  0
 35 36  1  0
 36 37  2  0
 11  7  1  0
 20 15  1  0
 26 21  1  0
 37 27  1  0
 36 30  1  0
  3 38  1  0
  4 39  1  0
  4 40  1  0
  8 41  1  0
  8 42  1  0
  9 43  1  0
  9 44  1  0
 10 45  1  0
 10 46  1  0
 11 47  1  1
 12 48  1  0
 12 49  1  0
 13 50  1  0
 14 51  1  1
 16 52  1  0
 17 53  1  0
 18 54  1  0
 19 55  1  0
 20 56  1  0
 22 57  1  0
 23 58  1  0
 25 59  1  0
 26 60  1  0
 28 61  1  0
 29 62  1  0
 31 63  1  0
 34 64  1  0
 35 65  1  0
M  END
>  <smiles>  (55) 
O=C(NCC(=O)N1CCC[C@H]1CNC(c1ccccc1)c1ccncc1)c1ccc2cc(F)ccc2n1

>  <score_type>  (55) 
oracle

>  <origin>  (55) 
autodockgpu

>  <m_score__min__energy>  (55) 
-9.4299999999999997

>  <m_primary>  (55) 
energy

>  <rmsd>  (55) 
2.4666711043857252

>  <m_score__min__rmsd>  (55) 
2.4666711043857252

>  <meeko>  (55) 
{"free_energy": -8.78, "intermolecular_energy": -11.46, "internal_energy": -3.34, "cluster_size": 5, "cluster_id": 3, "rank_in_cluster": 3}

>  <energy>  (55) 
-8.97

>  <cluster_rmsd>  (55) 
1.78

>  <cluster>  (55) 
1

$$$$

     RDKit          3D

 65 69  0  0  1  0  0  0  0  0999 V2000
  139.7930   70.7520  221.7620 O   0  0  0  0  0  0  0  0  0  0  0  0
  139.8290   71.5130  222.7650 C   0  0  0  0  0  0  0  0  0  0  0  0
  139.5410   72.8960  222.6090 N   0  0  0  0  0  0  0  0  0  0  0  0
  139.2040   73.4470  221.3160 C   0  0  0  0  0  0  0  0  0  0  0  0
  139.0440   74.9250  221.3370 C   0  0  0  0  0  0  0  0  0  0  0  0
  139.4470   75.6280  222.2960 O   0  0  0  0  0  0  0  0  0  0  0  0
  138.4160   75.5270  220.2240 N   0  0  0  0  0  0  0  0  0  0  0  0
  136.9770   75.6530  219.9430 C   0  0  0  0  0  0  0  0  0  0  0  0
  136.9600   75.0940  218.5210 C   0  0  0  0  0  0  0  0  0  0  0  0
  138.1210   75.8950  217.9330 C   0  0  0  0  0  0  0  0  0  0  0  0
  139.0640   76.1600  219.1030 C   0  0  1  0  0  0  0  0  0  0  0  0
  139.1500   77.6580  219.2290 C   0  0  0  0  0  0  0  0  0  0  0  0
  139.5930   78.1160  220.5210 N   0  0  0  0  0  0  0  0  0  0  0  0
  140.9660   78.5620  220.3810 C   0  0  1  0  0  0  0  0  0  0  0  0
  141.5020   79.1070  221.6530 C   0  0  0  0  0  0  0  0  0  0  0  0
  141.3100   78.4150  222.8480 C   0  0  0  0  0  0  0  0  0  0  0  0
  141.8070   78.9150  224.0510 C   0  0  0  0  0  0  0  0  0  0  0  0
  142.5020   80.1120  224.0740 C   0  0  0  0  0  0  0  0  0  0  0  0
  142.6860   80.7860  222.8900 C   0  0  0  0  0  0  0  0  0  0  0  0
  142.2050   80.3170  221.6740 C   0  0  0  0  0  0  0  0  0  0  0  0
  141.8560   77.4910  219.8340 C   0  0  0  0  0  0  0  0  0  0  0  0
  142.0490   76.2920  220.5000 C   0  0  0  0  0  0  0  0  0  0  0  0
  142.8730   75.3270  219.9720 C   0  0  0  0  0  0  0  0  0  0  0  0
  143.5100   75.5080  218.8090 N   0  0  0  0  0  0  0  0  0  0  0  0
  143.3430   76.6490  218.1490 C   0  0  0  0  0  0  0  0  0  0  0  0
  142.5310   77.6590  218.6210 C   0  0  0  0  0  0  0  0  0  0  0  0
  140.1630   71.0250  224.1110 C   0  0  0  0  0  0  0  0  0  0  0  0
  140.7020   71.8670  225.0630 C   0  0  0  0  0  0  0  0  0  0  0  0
  141.0270   71.4360  226.3400 C   0  0  0  0  0  0  0  0  0  0  0  0
  140.8000   70.1060  226.6700 C   0  0  0  0  0  0  0  0  0  0  0  0
  141.1070   69.6100  227.9410 C   0  0  0  0  0  0  0  0  0  0  0  0
  140.8500   68.2640  228.1900 C   0  0  0  0  0  0  0  0  0  0  0  0
  141.1550   67.7990  229.4350 F   0  0  0  0  0  0  0  0  0  0  0  0
  140.3070   67.4370  227.2170 C   0  0  0  0  0  0  0  0  0  0  0  0
  140.0140   67.9580  225.9700 C   0  0  0  0  0  0  0  0  0  0  0  0
  140.2610   69.2890  225.6970 C   0  0  0  0  0  0  0  0  0  0  0  0
  139.9500   69.7230  224.4600 N   0  0  0  0  0  0  0  0  0  0  0  0
  139.5770   73.5230  223.4650 H   0  0  0  0  0  0  0  0  0  0  0  0
  140.0050   73.1914  220.6067 H   0  0  0  0  0  0  0  0  0  0  0  0
  138.2371   73.0161  221.0171 H   0  0  0  0  0  0  0  0  0  0  0  0
  136.3681   75.0482  220.6310 H   0  0  0  0  0  0  0  0  0  0  0  0
  136.5597   76.6642  220.0583 H   0  0  0  0  0  0  0  0  0  0  0  0
  137.1545   74.0115  218.5014 H   0  0  0  0  0  0  0  0  0  0  0  0
  136.0027   75.1891  217.9876 H   0  0  0  0  0  0  0  0  0  0  0  0
  138.6319   75.3144  217.1508 H   0  0  0  0  0  0  0  0  0  0  0  0
  137.7777   76.8292  217.4645 H   0  0  0  0  0  0  0  0  0  0  0  0
  140.0890   75.7725  219.0069 H   0  0  0  0  0  0  0  0  0  0  0  0
  139.8557   78.0283  218.4708 H   0  0  0  0  0  0  0  0  0  0  0  0
  138.1308   78.0468  219.0874 H   0  0  0  0  0  0  0  0  0  0  0  0
  139.5010   77.3160  221.1820 H   0  0  0  0  0  0  0  0  0  0  0  0
  140.9542   79.3811  219.6469 H   0  0  0  0  0  0  0  0  0  0  0  0
  140.7595   77.4627  222.8417 H   0  0  0  0  0  0  0  0  0  0  0  0
  141.6463   78.3564  224.9849 H   0  0  0  0  0  0  0  0  0  0  0  0
  142.8979   80.5146  225.0180 H   0  0  0  0  0  0  0  0  0  0  0  0
  143.2378   81.7375  222.9062 H   0  0  0  0  0  0  0  0  0  0  0  0
  142.3732   80.8848  220.7470 H   0  0  0  0  0  0  0  0  0  0  0  0
  141.5394   76.1109  221.4579 H   0  0  0  0  0  0  0  0  0  0  0  0
  143.0123   74.3827  220.5187 H   0  0  0  0  0  0  0  0  0  0  0  0
  143.8700   76.7929  217.1942 H   0  0  0  0  0  0  0  0  0  0  0  0
  142.4152   78.5903  218.0472 H   0  0  0  0  0  0  0  0  0  0  0  0
  140.8804   72.9197  224.7984 H   0  0  0  0  0  0  0  0  0  0  0  0
  141.4554   72.1323  227.0760 H   0  0  0  0  0  0  0  0  0  0  0  0
  141.5366   70.2604  228.7172 H   0  0  0  0  0  0  0  0  0  0  0  0
  140.1114   66.3768  227.4356 H   0  0  0  0  0  0  0  0  0  0  0  0
  139.5827   67.3100  225.1928 H   0  0  0  0  0  0  0  0  0  0  0  0
  1  2  2  0
  2  3  1  0
  3  4  1  0
  4  5  1  0
  5  6  2  0
  5  7  1  0
  7  8  1  0
  8  9  1  0
  9 10  1  0
 10 11  1  0
 11 12  1  0
 12 13  1  0
 13 14  1  0
 14 15  1  0
 15 16  2  0
 16 17  1  0
 17 18  2  0
 18 19  1  0
 19 20  2  0
 14 21  1  0
 21 22  2  0
 22 23  1  0
 23 24  2  0
 24 25  1  0
 25 26  2  0
  2 27  1  0
 27 28  2  0
 28 29  1  0
 29 30  2  0
 30 31  1  0
 31 32  2  0
 32 33  1  0
 32 34  1  0
 34 35  2  0
 35 36  1  0
 36 37  2  0
 11  7  1  0
 20 15  1  0
 26 21  1  0
 37 27  1  0
 36 30  1  0
  3 38  1  0
  4 39  1  0
  4 40  1  0
  8 41  1  0
  8 42  1  0
  9 43  1  0
  9 44  1  0
 10 45  1  0
 10 46  1  0
 11 47  1  6
 12 48  1  0
 12 49  1  0
 13 50  1  0
 14 51  1  6
 16 52  1  0
 17 53  1  0
 18 54  1  0
 19 55  1  0
 20 56  1  0
 22 57  1  0
 23 58  1  0
 25 59  1  0
 26 60  1  0
 28 61  1  0
 29 62  1  0
 31 63  1  0
 34 64  1  0
 35 65  1  0
M  END
>  <smiles>  (56) 
O=C(NCC(=O)N1CCC[C@H]1CNC(c1ccccc1)c1ccncc1)c1ccc2cc(F)ccc2n1

>  <score_type>  (56) 
oracle

>  <origin>  (56) 
autodockgpu

>  <m_score__min__energy>  (56) 
-9.4299999999999997

>  <m_primary>  (56) 
energy

>  <rmsd>  (56) 
3.3801325548248

>  <m_score__min__rmsd>  (56) 
3.3801325548248

>  <meeko>  (56) 
{"free_energy": -8.61, "intermolecular_energy": -11.29, "internal_energy": -3.41, "cluster_size": 19, "cluster_id": 1, "rank_in_cluster": 15}

>  <energy>  (56) 
-8.94

>  <cluster_rmsd>  (56) 
0.85

>  <cluster>  (56) 
1

$$$$

     RDKit          3D

 65 69  0  0  1  0  0  0  0  0999 V2000
  136.9720   76.0200  221.4780 O   0  0  0  0  0  0  0  0  0  0  0  0
  138.1890   76.3020  221.3150 C   0  0  0  0  0  0  0  0  0  0  0  0
  138.9890   75.4980  220.4600 N   0  0  0  0  0  0  0  0  0  0  0  0
  138.4300   74.3580  219.7680 C   0  0  0  0  0  0  0  0  0  0  0  0
  138.1180   73.2220  220.6770 C   0  0  0  0  0  0  0  0  0  0  0  0
  136.9440   72.8190  220.8670 O   0  0  0  0  0  0  0  0  0  0  0  0
  139.2030   72.5970  221.3310 N   0  0  0  0  0  0  0  0  0  0  0  0
  139.4890   71.1600  221.4620 C   0  0  0  0  0  0  0  0  0  0  0  0
  139.6960   71.0920  222.9740 C   0  0  0  0  0  0  0  0  0  0  0  0
  140.6500   72.2740  223.1400 C   0  0  0  0  0  0  0  0  0  0  0  0
  140.2850   73.2490  222.0250 C   0  0  1  0  0  0  0  0  0  0  0  0
  141.5280   73.4000  221.1900 C   0  0  0  0  0  0  0  0  0  0  0  0
  141.8620   74.7650  220.8730 N   0  0  0  0  0  0  0  0  0  0  0  0
  142.4610   74.7750  219.5520 C   0  0  1  0  0  0  0  0  0  0  0  0
  142.5010   76.1410  218.9740 C   0  0  0  0  0  0  0  0  0  0  0  0
  142.9400   76.3360  217.6660 C   0  0  0  0  0  0  0  0  0  0  0  0
  142.9830   77.6150  217.1090 C   0  0  0  0  0  0  0  0  0  0  0  0
  142.5890   78.7120  217.8540 C   0  0  0  0  0  0  0  0  0  0  0  0
  142.1590   78.5090  219.1440 C   0  0  0  0  0  0  0  0  0  0  0  0
  142.1020   77.2500  219.7290 C   0  0  0  0  0  0  0  0  0  0  0  0
  143.8170   74.1430  219.5410 C   0  0  0  0  0  0  0  0  0  0  0  0
  144.7210   74.3410  220.5710 C   0  0  0  0  0  0  0  0  0  0  0  0
  145.9610   73.7470  220.5330 C   0  0  0  0  0  0  0  0  0  0  0  0
  146.3330   72.9660  219.5130 N   0  0  0  0  0  0  0  0  0  0  0  0
  145.4850   72.7600  218.5110 C   0  0  0  0  0  0  0  0  0  0  0  0
  144.2270   73.3240  218.4850 C   0  0  0  0  0  0  0  0  0  0  0  0
  138.8270   77.4450  221.9840 C   0  0  0  0  0  0  0  0  0  0  0  0
  138.0760   78.3960  222.6460 C   0  0  0  0  0  0  0  0  0  0  0  0
  138.6480   79.4850  223.2860 C   0  0  0  0  0  0  0  0  0  0  0  0
  140.0300   79.6210  223.2570 C   0  0  0  0  0  0  0  0  0  0  0  0
  140.6670   80.6970  223.8820 C   0  0  0  0  0  0  0  0  0  0  0  0
  142.0570   80.7590  223.8060 C   0  0  0  0  0  0  0  0  0  0  0  0
  142.6600   81.8160  224.4230 F   0  0  0  0  0  0  0  0  0  0  0  0
  142.7910   79.7910  223.1360 C   0  0  0  0  0  0  0  0  0  0  0  0
  142.1310   78.7400  222.5270 C   0  0  0  0  0  0  0  0  0  0  0  0
  140.7540   78.6550  222.5880 C   0  0  0  0  0  0  0  0  0  0  0  0
  140.1830   77.6020  221.9710 N   0  0  0  0  0  0  0  0  0  0  0  0
  140.0130   75.7500  220.3350 H   0  0  0  0  0  0  0  0  0  0  0  0
  137.5019   74.6720  219.2680 H   0  0  0  0  0  0  0  0  0  0  0  0
  139.1849   74.0066  219.0493 H   0  0  0  0  0  0  0  0  0  0  0  0
  138.6420   70.5397  221.1337 H   0  0  0  0  0  0  0  0  0  0  0  0
  140.3264   70.7878  220.8535 H   0  0  0  0  0  0  0  0  0  0  0  0
  138.7560   71.2404  223.5258 H   0  0  0  0  0  0  0  0  0  0  0  0
  140.0654   70.1294  223.3574 H   0  0  0  0  0  0  0  0  0  0  0  0
  140.5111   72.7454  224.1241 H   0  0  0  0  0  0  0  0  0  0  0  0
  141.7029   71.9612  223.0814 H   0  0  0  0  0  0  0  0  0  0  0  0
  139.9658   74.2550  222.3349 H   0  0  0  0  0  0  0  0  0  0  0  0
  142.3705   72.9575  221.7417 H   0  0  0  0  0  0  0  0  0  0  0  0
  141.3316   72.8916  220.2345 H   0  0  0  0  0  0  0  0  0  0  0  0
  142.5180   75.1040  221.6090 H   0  0  0  0  0  0  0  0  0  0  0  0
  141.8113   74.1616  218.9104 H   0  0  0  0  0  0  0  0  0  0  0  0
  143.2567   75.4710  217.0648 H   0  0  0  0  0  0  0  0  0  0  0  0
  143.3312   77.7511  216.0745 H   0  0  0  0  0  0  0  0  0  0  0  0
  142.6191   79.7240  217.4239 H   0  0  0  0  0  0  0  0  0  0  0  0
  141.8468   79.3804  219.7383 H   0  0  0  0  0  0  0  0  0  0  0  0
  141.7506   77.1274  220.7641 H   0  0  0  0  0  0  0  0  0  0  0  0
  144.4457   74.9773  221.4250 H   0  0  0  0  0  0  0  0  0  0  0  0
  146.6638   73.9185  221.3617 H   0  0  0  0  0  0  0  0  0  0  0  0
  145.7970   72.1180  217.6741 H   0  0  0  0  0  0  0  0  0  0  0  0
  143.5508   73.1308  217.6392 H   0  0  0  0  0  0  0  0  0  0  0  0
  136.9818   78.2854  222.6664 H   0  0  0  0  0  0  0  0  0  0  0  0
  138.0211   80.2249  223.8052 H   0  0  0  0  0  0  0  0  0  0  0  0
  140.0911   81.4678  224.4152 H   0  0  0  0  0  0  0  0  0  0  0  0
  143.8879   79.8591  223.0898 H   0  0  0  0  0  0  0  0  0  0  0  0
  142.7046   77.9688  221.9920 H   0  0  0  0  0  0  0  0  0  0  0  0
  1  2  2  0
  2  3  1  0
  3  4  1  0
  4  5  1  0
  5  6  2  0
  5  7  1  0
  7  8  1  0
  8  9  1  0
  9 10  1  0
 10 11  1  0
 11 12  1  0
 12 13  1  0
 13 14  1  0
 14 15  1  0
 15 16  2  0
 16 17  1  0
 17 18  2  0
 18 19  1  0
 19 20  2  0
 14 21  1  0
 21 22  2  0
 22 23  1  0
 23 24  2  0
 24 25  1  0
 25 26  2  0
  2 27  1  0
 27 28  2  0
 28 29  1  0
 29 30  2  0
 30 31  1  0
 31 32  2  0
 32 33  1  0
 32 34  1  0
 34 35  2  0
 35 36  1  0
 36 37  2  0
 11  7  1  0
 20 15  1  0
 26 21  1  0
 37 27  1  0
 36 30  1  0
  3 38  1  0
  4 39  1  0
  4 40  1  0
  8 41  1  0
  8 42  1  0
  9 43  1  0
  9 44  1  0
 10 45  1  0
 10 46  1  0
 11 47  1  1
 12 48  1  0
 12 49  1  0
 13 50  1  0
 14 51  1  6
 16 52  1  0
 17 53  1  0
 18 54  1  0
 19 55  1  0
 20 56  1  0
 22 57  1  0
 23 58  1  0
 25 59  1  0
 26 60  1  0
 28 61  1  0
 29 62  1  0
 31 63  1  0
 34 64  1  0
 35 65  1  0
M  END
>  <smiles>  (57) 
O=C(NCC(=O)N1CCC[C@H]1CNC(c1ccccc1)c1ccncc1)c1ccc2cc(F)ccc2n1

>  <score_type>  (57) 
oracle

>  <origin>  (57) 
autodockgpu

>  <m_score__min__energy>  (57) 
-9.4299999999999997

>  <m_primary>  (57) 
energy

>  <rmsd>  (57) 
7.430542310548025

>  <m_score__min__rmsd>  (57) 
7.430542310548025

>  <meeko>  (57) 
{"free_energy": -7.61, "intermolecular_energy": -10.29, "internal_energy": -4.08, "cluster_size": 1, "cluster_id": 5, "rank_in_cluster": 1}

>  <energy>  (57) 
-8.91

>  <cluster_rmsd>  (57) 
1.0

>  <cluster>  (57) 
1

$$$$

     RDKit          3D

 65 69  0  0  1  0  0  0  0  0999 V2000
  138.2900   70.3370  221.6650 O   0  0  0  0  0  0  0  0  0  0  0  0
  138.8420   70.8480  222.6760 C   0  0  0  0  0  0  0  0  0  0  0  0
  139.1280   72.2390  222.6940 N   0  0  0  0  0  0  0  0  0  0  0  0
  138.7950   73.0840  221.5690 C   0  0  0  0  0  0  0  0  0  0  0  0
  138.9480   74.5340  221.8650 C   0  0  0  0  0  0  0  0  0  0  0  0
  140.0730   75.0790  221.9770 O   0  0  0  0  0  0  0  0  0  0  0  0
  137.7670   75.2940  222.0170 N   0  0  0  0  0  0  0  0  0  0  0  0
  136.5880   74.9980  222.8470 C   0  0  0  0  0  0  0  0  0  0  0  0
  135.4990   75.1730  221.7890 C   0  0  0  0  0  0  0  0  0  0  0  0
  135.9430   76.5120  221.2040 C   0  0  0  0  0  0  0  0  0  0  0  0
  137.4590   76.5490  221.3790 C   0  0  1  0  0  0  0  0  0  0  0  0
  137.7430   77.7470  222.2440 C   0  0  0  0  0  0  0  0  0  0  0  0
  139.1060   77.8330  222.7010 N   0  0  0  0  0  0  0  0  0  0  0  0
  139.8230   78.6980  221.7840 C   0  0  1  0  0  0  0  0  0  0  0  0
  140.7820   79.5810  222.4920 C   0  0  0  0  0  0  0  0  0  0  0  0
  141.5620   79.0780  223.5320 C   0  0  0  0  0  0  0  0  0  0  0  0
  142.4680   79.8960  224.2080 C   0  0  0  0  0  0  0  0  0  0  0  0
  142.6030   81.2270  223.8520 C   0  0  0  0  0  0  0  0  0  0  0  0
  141.8290   81.7130  222.8250 C   0  0  0  0  0  0  0  0  0  0  0  0
  140.9180   80.9260  222.1310 C   0  0  0  0  0  0  0  0  0  0  0  0
  140.5000   77.9290  220.6940 C   0  0  0  0  0  0  0  0  0  0  0  0
  141.7970   77.4630  220.8280 C   0  0  0  0  0  0  0  0  0  0  0  0
  142.3930   76.7590  219.8070 C   0  0  0  0  0  0  0  0  0  0  0  0
  141.7480   76.5010  218.6640 N   0  0  0  0  0  0  0  0  0  0  0  0
  140.5030   76.9370  218.5090 C   0  0  0  0  0  0  0  0  0  0  0  0
  139.8460   77.6480  219.4900 C   0  0  0  0  0  0  0  0  0  0  0  0
  139.2100   70.0520  223.8560 C   0  0  0  0  0  0  0  0  0  0  0  0
  138.9660   68.6940  223.9060 C   0  0  0  0  0  0  0  0  0  0  0  0
  139.3010   67.9170  225.0050 C   0  0  0  0  0  0  0  0  0  0  0  0
  139.9030   68.5320  226.0940 C   0  0  0  0  0  0  0  0  0  0  0  0
  140.2640   67.8040  227.2320 C   0  0  0  0  0  0  0  0  0  0  0  0
  140.8630   68.4970  228.2810 C   0  0  0  0  0  0  0  0  0  0  0  0
  141.2090   67.7690  229.3820 F   0  0  0  0  0  0  0  0  0  0  0  0
  141.0990   69.8620  228.2080 C   0  0  0  0  0  0  0  0  0  0  0  0
  140.7300   70.5540  227.0690 C   0  0  0  0  0  0  0  0  0  0  0  0
  140.1330   69.8900  226.0150 C   0  0  0  0  0  0  0  0  0  0  0  0
  139.8030   70.6320  224.9400 N   0  0  0  0  0  0  0  0  0  0  0  0
  139.5940   72.6520  223.5530 H   0  0  0  0  0  0  0  0  0  0  0  0
  139.4568   72.8261  220.7290 H   0  0  0  0  0  0  0  0  0  0  0  0
  137.7365   72.9077  221.3273 H   0  0  0  0  0  0  0  0  0  0  0  0
  136.6126   73.9739  223.2478 H   0  0  0  0  0  0  0  0  0  0  0  0
  136.4761   75.6195  223.7477 H   0  0  0  0  0  0  0  0  0  0  0  0
  135.5201   74.3685  221.0391 H   0  0  0  0  0  0  0  0  0  0  0  0
  134.4659   75.1417  222.1654 H   0  0  0  0  0  0  0  0  0  0  0  0
  135.6771   76.5734  220.1384 H   0  0  0  0  0  0  0  0  0  0  0  0
  135.4529   77.3597  221.7052 H   0  0  0  0  0  0  0  0  0  0  0  0
  138.0587   76.6494  220.4623 H   0  0  0  0  0  0  0  0  0  0  0  0
  137.5154   78.6535  221.6640 H   0  0  0  0  0  0  0  0  0  0  0  0
  137.1137   77.6469  223.1407 H   0  0  0  0  0  0  0  0  0  0  0  0
  139.4900   76.8640  222.7160 H   0  0  0  0  0  0  0  0  0  0  0  0
  139.0681   79.3413  221.3084 H   0  0  0  0  0  0  0  0  0  0  0  0
  141.4619   78.0221  223.8237 H   0  0  0  0  0  0  0  0  0  0  0  0
  143.0764   79.4823  225.0257 H   0  0  0  0  0  0  0  0  0  0  0  0
  143.3135   81.8809  224.3789 H   0  0  0  0  0  0  0  0  0  0  0  0
  141.9354   82.7702  222.5404 H   0  0  0  0  0  0  0  0  0  0  0  0
  140.3161   81.3516  221.3146 H   0  0  0  0  0  0  0  0  0  0  0  0
  142.3543   77.6568  221.7564 H   0  0  0  0  0  0  0  0  0  0  0  0
  143.4249   76.3997  219.9339 H   0  0  0  0  0  0  0  0  0  0  0  0
  139.9786   76.7234  217.5659 H   0  0  0  0  0  0  0  0  0  0  0  0
  138.8140   77.9922  219.3271 H   0  0  0  0  0  0  0  0  0  0  0  0
  138.4879   68.2100  223.0416 H   0  0  0  0  0  0  0  0  0  0  0  0
  139.0940   66.8367  225.0134 H   0  0  0  0  0  0  0  0  0  0  0  0
  140.0812   66.7212  227.2964 H   0  0  0  0  0  0  0  0  0  0  0  0
  141.5751   70.3889  229.0480 H   0  0  0  0  0  0  0  0  0  0  0  0
  140.9125   71.6367  227.0021 H   0  0  0  0  0  0  0  0  0  0  0  0
  1  2  2  0
  2  3  1  0
  3  4  1  0
  4  5  1  0
  5  6  2  0
  5  7  1  0
  7  8  1  0
  8  9  1  0
  9 10  1  0
 10 11  1  0
 11 12  1  0
 12 13  1  0
 13 14  1  0
 14 15  1  0
 15 16  2  0
 16 17  1  0
 17 18  2  0
 18 19  1  0
 19 20  2  0
 14 21  1  0
 21 22  2  0
 22 23  1  0
 23 24  2  0
 24 25  1  0
 25 26  2  0
  2 27  1  0
 27 28  2  0
 28 29  1  0
 29 30  2  0
 30 31  1  0
 31 32  2  0
 32 33  1  0
 32 34  1  0
 34 35  2  0
 35 36  1  0
 36 37  2  0
 11  7  1  0
 20 15  1  0
 26 21  1  0
 37 27  1  0
 36 30  1  0
  3 38  1  0
  4 39  1  0
  4 40  1  0
  8 41  1  0
  8 42  1  0
  9 43  1  0
  9 44  1  0
 10 45  1  0
 10 46  1  0
 11 47  1  6
 12 48  1  0
 12 49  1  0
 13 50  1  0
 14 51  1  6
 16 52  1  0
 17 53  1  0
 18 54  1  0
 19 55  1  0
 20 56  1  0
 22 57  1  0
 23 58  1  0
 25 59  1  0
 26 60  1  0
 28 61  1  0
 29 62  1  0
 31 63  1  0
 34 64  1  0
 35 65  1  0
M  END
>  <smiles>  (58) 
O=C(NCC(=O)N1CCC[C@H]1CNC(c1ccccc1)c1ccncc1)c1ccc2cc(F)ccc2n1

>  <score_type>  (58) 
oracle

>  <origin>  (58) 
autodockgpu

>  <m_score__min__energy>  (58) 
-9.4299999999999997

>  <m_primary>  (58) 
energy

>  <rmsd>  (58) 
3.333988111891347

>  <m_score__min__rmsd>  (58) 
3.333988111891347

>  <meeko>  (58) 
{"free_energy": -8.48, "intermolecular_energy": -11.16, "internal_energy": -3.37, "cluster_size": 19, "cluster_id": 1, "rank_in_cluster": 17}

>  <energy>  (58) 
-8.9

>  <cluster_rmsd>  (58) 
0.96

>  <cluster>  (58) 
1

$$$$

     RDKit          3D

 65 69  0  0  1  0  0  0  0  0999 V2000
  139.2270   74.5970  222.3290 O   0  0  0  0  0  0  0  0  0  0  0  0
  139.9230   75.4520  221.7170 C   0  0  0  0  0  0  0  0  0  0  0  0
  140.5210   75.1130  220.4740 N   0  0  0  0  0  0  0  0  0  0  0  0
  140.3430   73.8000  219.8940 C   0  0  0  0  0  0  0  0  0  0  0  0
  141.2630   73.5380  218.7540 C   0  0  0  0  0  0  0  0  0  0  0  0
  140.8410   73.2470  217.6080 O   0  0  0  0  0  0  0  0  0  0  0  0
  142.6500   73.6290  219.0040 N   0  0  0  0  0  0  0  0  0  0  0  0
  143.7660   73.2150  218.1390 C   0  0  0  0  0  0  0  0  0  0  0  0
  144.5470   72.3670  219.1410 C   0  0  0  0  0  0  0  0  0  0  0  0
  144.5620   73.3390  220.3190 C   0  0  0  0  0  0  0  0  0  0  0  0
  143.2820   74.1580  220.1870 C   0  0  1  0  0  0  0  0  0  0  0  0
  143.7250   75.5890  220.0400 C   0  0  0  0  0  0  0  0  0  0  0  0
  142.6410   76.5340  219.9470 N   0  0  0  0  0  0  0  0  0  0  0  0
  142.9250   77.4210  218.8360 C   0  0  1  0  0  0  0  0  0  0  0  0
  142.6880   76.7610  217.5280 C   0  0  0  0  0  0  0  0  0  0  0  0
  143.7650   76.3670  216.7360 C   0  0  0  0  0  0  0  0  0  0  0  0
  143.5570   75.7450  215.5040 C   0  0  0  0  0  0  0  0  0  0  0  0
  142.2710   75.5120  215.0510 C   0  0  0  0  0  0  0  0  0  0  0  0
  141.2150   75.9050  215.8390 C   0  0  0  0  0  0  0  0  0  0  0  0
  141.3860   76.5260  217.0700 C   0  0  0  0  0  0  0  0  0  0  0  0
  142.1750   78.7110  218.9350 C   0  0  0  0  0  0  0  0  0  0  0  0
  142.6600   79.8810  218.3760 C   0  0  0  0  0  0  0  0  0  0  0  0
  141.9470   81.0520  218.4840 C   0  0  0  0  0  0  0  0  0  0  0  0
  140.7730   81.1020  219.1240 N   0  0  0  0  0  0  0  0  0  0  0  0
  140.2840   79.9930  219.6690 C   0  0  0  0  0  0  0  0  0  0  0  0
  140.9470   78.7860  219.5990 C   0  0  0  0  0  0  0  0  0  0  0  0
  140.1460   76.8060  222.2440 C   0  0  0  0  0  0  0  0  0  0  0  0
  139.1020   77.5620  222.7360 C   0  0  0  0  0  0  0  0  0  0  0  0
  139.2800   78.8420  223.2390 C   0  0  0  0  0  0  0  0  0  0  0  0
  140.5610   79.3790  223.2460 C   0  0  0  0  0  0  0  0  0  0  0  0
  140.8070   80.6640  223.7390 C   0  0  0  0  0  0  0  0  0  0  0  0
  142.1190   81.1290  223.7100 C   0  0  0  0  0  0  0  0  0  0  0  0
  142.3390   82.3840  224.1960 F   0  0  0  0  0  0  0  0  0  0  0  0
  143.1540   80.3500  223.2110 C   0  0  0  0  0  0  0  0  0  0  0  0
  142.8780   79.0830  222.7300 C   0  0  0  0  0  0  0  0  0  0  0  0
  141.5840   78.6000  222.7470 C   0  0  0  0  0  0  0  0  0  0  0  0
  141.3950   77.3570  222.2620 N   0  0  0  0  0  0  0  0  0  0  0  0
  141.1040   75.8440  219.9720 H   0  0  0  0  0  0  0  0  0  0  0  0
  140.5261   73.0451  220.6728 H   0  0  0  0  0  0  0  0  0  0  0  0
  139.3151   73.7486  219.5057 H   0  0  0  0  0  0  0  0  0  0  0  0
  143.4222   72.6230  217.2780 H   0  0  0  0  0  0  0  0  0  0  0  0
  144.3315   74.0354  217.6731 H   0  0  0  0  0  0  0  0  0  0  0  0
  144.0232   71.4311  219.3855 H   0  0  0  0  0  0  0  0  0  0  0  0
  145.5345   72.0228  218.8000 H   0  0  0  0  0  0  0  0  0  0  0  0
  144.5700   72.7888  221.2715 H   0  0  0  0  0  0  0  0  0  0  0  0
  145.4579   73.9772  220.3104 H   0  0  0  0  0  0  0  0  0  0  0  0
  142.5772   74.1105  221.0302 H   0  0  0  0  0  0  0  0  0  0  0  0
  144.3387   75.8522  220.9142 H   0  0  0  0  0  0  0  0  0  0  0  0
  144.2832   75.6526  219.0943 H   0  0  0  0  0  0  0  0  0  0  0  0
  142.5920   77.0400  220.8570 H   0  0  0  0  0  0  0  0  0  0  0  0
  143.9962   77.6634  218.8970 H   0  0  0  0  0  0  0  0  0  0  0  0
  144.7918   76.5485  217.0863 H   0  0  0  0  0  0  0  0  0  0  0  0
  144.4181   75.4392  214.8916 H   0  0  0  0  0  0  0  0  0  0  0  0
  142.0969   75.0229  214.0812 H   0  0  0  0  0  0  0  0  0  0  0  0
  140.1919   75.7200  215.4797 H   0  0  0  0  0  0  0  0  0  0  0  0
  140.5162   76.8269  217.6725 H   0  0  0  0  0  0  0  0  0  0  0  0
  143.6217   79.8739  217.8421 H   0  0  0  0  0  0  0  0  0  0  0  0
  142.3518   81.9701  218.0332 H   0  0  0  0  0  0  0  0  0  0  0  0
  139.3182   80.0395  220.1934 H   0  0  0  0  0  0  0  0  0  0  0  0
  140.5126   77.8880  220.0626 H   0  0  0  0  0  0  0  0  0  0  0  0
  138.0892   77.1328  222.7290 H   0  0  0  0  0  0  0  0  0  0  0  0
  138.4261   79.4190  223.6237 H   0  0  0  0  0  0  0  0  0  0  0  0
  139.9917   81.2864  224.1363 H   0  0  0  0  0  0  0  0  0  0  0  0
  144.1837   80.7367  223.1983 H   0  0  0  0  0  0  0  0  0  0  0  0
  143.6914   78.4581  222.3327 H   0  0  0  0  0  0  0  0  0  0  0  0
  1  2  2  0
  2  3  1  0
  3  4  1  0
  4  5  1  0
  5  6  2  0
  5  7  1  0
  7  8  1  0
  8  9  1  0
  9 10  1  0
 10 11  1  0
 11 12  1  0
 12 13  1  0
 13 14  1  0
 14 15  1  0
 15 16  2  0
 16 17  1  0
 17 18  2  0
 18 19  1  0
 19 20  2  0
 14 21  1  0
 21 22  2  0
 22 23  1  0
 23 24  2  0
 24 25  1  0
 25 26  2  0
  2 27  1  0
 27 28  2  0
 28 29  1  0
 29 30  2  0
 30 31  1  0
 31 32  2  0
 32 33  1  0
 32 34  1  0
 34 35  2  0
 35 36  1  0
 36 37  2  0
 11  7  1  0
 20 15  1  0
 26 21  1  0
 37 27  1  0
 36 30  1  0
  3 38  1  0
  4 39  1  0
  4 40  1  0
  8 41  1  0
  8 42  1  0
  9 43  1  0
  9 44  1  0
 10 45  1  0
 10 46  1  0
 11 47  1  1
 12 48  1  0
 12 49  1  0
 13 50  1  0
 14 51  1  6
 16 52  1  0
 17 53  1  0
 18 54  1  0
 19 55  1  0
 20 56  1  0
 22 57  1  0
 23 58  1  0
 25 59  1  0
 26 60  1  0
 28 61  1  0
 29 62  1  0
 31 63  1  0
 34 64  1  0
 35 65  1  0
M  END
>  <smiles>  (59) 
O=C(NCC(=O)N1CCC[C@H]1CNC(c1ccccc1)c1ccncc1)c1ccc2cc(F)ccc2n1

>  <score_type>  (59) 
oracle

>  <origin>  (59) 
autodockgpu

>  <m_score__min__energy>  (59) 
-9.4299999999999997

>  <m_primary>  (59) 
energy

>  <rmsd>  (59) 
7.570348402198208

>  <m_score__min__rmsd>  (59) 
7.570348402198208

>  <meeko>  (59) 
{"free_energy": -6.41, "intermolecular_energy": -9.09, "internal_energy": -5.69, "cluster_size": 8, "cluster_id": 8, "rank_in_cluster": 3}

>  <energy>  (59) 
-8.9

>  <cluster_rmsd>  (59) 
0.95

>  <cluster>  (59) 
1

$$$$

     RDKit          3D

 65 69  0  0  1  0  0  0  0  0999 V2000
  137.6820   70.1870  221.7530 O   0  0  0  0  0  0  0  0  0  0  0  0
  137.9190   70.7510  222.8540 C   0  0  0  0  0  0  0  0  0  0  0  0
  137.5260   72.1010  223.0520 N   0  0  0  0  0  0  0  0  0  0  0  0
  136.8560   72.8440  222.0080 C   0  0  0  0  0  0  0  0  0  0  0  0
  137.6280   72.8880  220.7380 C   0  0  0  0  0  0  0  0  0  0  0  0
  137.0700   72.8610  219.6140 O   0  0  0  0  0  0  0  0  0  0  0  0
  139.0350   72.9640  220.8350 N   0  0  0  0  0  0  0  0  0  0  0  0
  140.0480   72.1860  220.1040 C   0  0  0  0  0  0  0  0  0  0  0  0
  140.8850   71.7060  221.2890 C   0  0  0  0  0  0  0  0  0  0  0  0
  141.0500   73.0370  222.0220 C   0  0  0  0  0  0  0  0  0  0  0  0
  139.7960   73.8410  221.6900 C   0  0  1  0  0  0  0  0  0  0  0  0
  140.2800   75.0850  220.9940 C   0  0  0  0  0  0  0  0  0  0  0  0
  140.9080   76.0420  221.8690 N   0  0  0  0  0  0  0  0  0  0  0  0
  140.9800   77.3040  221.1590 C   0  0  1  0  0  0  0  0  0  0  0  0
  141.4540   78.4050  222.0350 C   0  0  0  0  0  0  0  0  0  0  0  0
  141.9320   79.5880  221.4770 C   0  0  0  0  0  0  0  0  0  0  0  0
  142.3810   80.6310  222.2880 C   0  0  0  0  0  0  0  0  0  0  0  0
  142.3570   80.5010  223.6650 C   0  0  0  0  0  0  0  0  0  0  0  0
  141.8840   79.3290  224.2060 C   0  0  0  0  0  0  0  0  0  0  0  0
  141.4290   78.2710  223.4280 C   0  0  0  0  0  0  0  0  0  0  0  0
  141.8070   77.2080  219.9170 C   0  0  0  0  0  0  0  0  0  0  0  0
  142.9120   76.3780  219.8390 C   0  0  0  0  0  0  0  0  0  0  0  0
  143.6540   76.3110  218.6830 C   0  0  0  0  0  0  0  0  0  0  0  0
  143.3370   77.0350  217.6040 N   0  0  0  0  0  0  0  0  0  0  0  0
  142.2810   77.8400  217.6510 C   0  0  0  0  0  0  0  0  0  0  0  0
  141.4940   77.9560  218.7780 C   0  0  0  0  0  0  0  0  0  0  0  0
  138.5950   70.0590  223.9610 C   0  0  0  0  0  0  0  0  0  0  0  0
  138.6610   68.6810  224.0090 C   0  0  0  0  0  0  0  0  0  0  0  0
  139.2920   68.0000  225.0390 C   0  0  0  0  0  0  0  0  0  0  0  0
  139.8780   68.7360  226.0600 C   0  0  0  0  0  0  0  0  0  0  0  0
  140.5290   68.1090  227.1270 C   0  0  0  0  0  0  0  0  0  0  0  0
  141.0900   68.9210  228.1100 C   0  0  0  0  0  0  0  0  0  0  0  0
  141.7210   68.2900  229.1420 F   0  0  0  0  0  0  0  0  0  0  0  0
  141.0120   70.3040  228.0410 C   0  0  0  0  0  0  0  0  0  0  0  0
  140.3620   70.8940  226.9720 C   0  0  0  0  0  0  0  0  0  0  0  0
  139.7960   70.1120  225.9850 C   0  0  0  0  0  0  0  0  0  0  0  0
  139.1800   70.7590  224.9770 N   0  0  0  0  0  0  0  0  0  0  0  0
  137.7340   72.5610  223.9860 H   0  0  0  0  0  0  0  0  0  0  0  0
  135.8830   72.3706  221.8103 H   0  0  0  0  0  0  0  0  0  0  0  0
  136.7450   73.8798  222.3612 H   0  0  0  0  0  0  0  0  0  0  0  0
  139.6020   71.3481  219.5482 H   0  0  0  0  0  0  0  0  0  0  0  0
  140.5996   72.7388  219.3293 H   0  0  0  0  0  0  0  0  0  0  0  0
  140.3490   70.9635  221.8984 H   0  0  0  0  0  0  0  0  0  0  0  0
  141.8213   71.1909  221.0283 H   0  0  0  0  0  0  0  0  0  0  0  0
  141.1253   72.8721  223.1070 H   0  0  0  0  0  0  0  0  0  0  0  0
  141.9661   73.5625  221.7144 H   0  0  0  0  0  0  0  0  0  0  0  0
  139.1717   74.1541  222.5398 H   0  0  0  0  0  0  0  0  0  0  0  0
  141.0091   74.7893  220.2253 H   0  0  0  0  0  0  0  0  0  0  0  0
  139.3922   75.5773  220.5704 H   0  0  0  0  0  0  0  0  0  0  0  0
  141.8500   75.6690  222.1130 H   0  0  0  0  0  0  0  0  0  0  0  0
  139.9528   77.5451  220.8480 H   0  0  0  0  0  0  0  0  0  0  0  0
  141.9559   79.7017  220.3832 H   0  0  0  0  0  0  0  0  0  0  0  0
  142.7550   81.5591  221.8311 H   0  0  0  0  0  0  0  0  0  0  0  0
  142.7086   81.3175  224.3129 H   0  0  0  0  0  0  0  0  0  0  0  0
  141.8648   79.2242  225.3008 H   0  0  0  0  0  0  0  0  0  0  0  0
  141.0572   77.3481  223.8970 H   0  0  0  0  0  0  0  0  0  0  0  0
  143.1987   75.7675  220.7080 H   0  0  0  0  0  0  0  0  0  0  0  0
  144.5293   75.6459  218.6449 H   0  0  0  0  0  0  0  0  0  0  0  0
  142.0257   78.4341  216.7611 H   0  0  0  0  0  0  0  0  0  0  0  0
  140.6264   78.6322  218.7805 H   0  0  0  0  0  0  0  0  0  0  0  0
  138.1950   68.1008  223.1989 H   0  0  0  0  0  0  0  0  0  0  0  0
  139.3275   66.9006  225.0470 H   0  0  0  0  0  0  0  0  0  0  0  0
  140.5958   67.0127  227.1880 H   0  0  0  0  0  0  0  0  0  0  0  0
  141.4626   70.9257  228.8287 H   0  0  0  0  0  0  0  0  0  0  0  0
  140.2958   71.9901  226.9081 H   0  0  0  0  0  0  0  0  0  0  0  0
  1  2  2  0
  2  3  1  0
  3  4  1  0
  4  5  1  0
  5  6  2  0
  5  7  1  0
  7  8  1  0
  8  9  1  0
  9 10  1  0
 10 11  1  0
 11 12  1  0
 12 13  1  0
 13 14  1  0
 14 15  1  0
 15 16  2  0
 16 17  1  0
 17 18  2  0
 18 19  1  0
 19 20  2  0
 14 21  1  0
 21 22  2  0
 22 23  1  0
 23 24  2  0
 24 25  1  0
 25 26  2  0
  2 27  1  0
 27 28  2  0
 28 29  1  0
 29 30  2  0
 30 31  1  0
 31 32  2  0
 32 33  1  0
 32 34  1  0
 34 35  2  0
 35 36  1  0
 36 37  2  0
 11  7  1  0
 20 15  1  0
 26 21  1  0
 37 27  1  0
 36 30  1  0
  3 38  1  0
  4 39  1  0
  4 40  1  0
  8 41  1  0
  8 42  1  0
  9 43  1  0
  9 44  1  0
 10 45  1  0
 10 46  1  0
 11 47  1  1
 12 48  1  0
 12 49  1  0
 13 50  1  0
 14 51  1  6
 16 52  1  0
 17 53  1  0
 18 54  1  0
 19 55  1  0
 20 56  1  0
 22 57  1  0
 23 58  1  0
 25 59  1  0
 26 60  1  0
 28 61  1  0
 29 62  1  0
 31 63  1  0
 34 64  1  0
 35 65  1  0
M  END
>  <smiles>  (60) 
O=C(NCC(=O)N1CCC[C@H]1CNC(c1ccccc1)c1ccncc1)c1ccc2cc(F)ccc2n1

>  <score_type>  (60) 
oracle

>  <origin>  (60) 
autodockgpu

>  <m_score__min__energy>  (60) 
-9.4299999999999997

>  <m_primary>  (60) 
energy

>  <rmsd>  (60) 
3.1837792508725133

>  <m_score__min__rmsd>  (60) 
3.1837792508725133

>  <meeko>  (60) 
{"free_energy": -9.23, "intermolecular_energy": -11.92, "internal_energy": -2.61, "cluster_size": 19, "cluster_id": 1, "rank_in_cluster": 2}

>  <energy>  (60) 
-8.88

>  <cluster_rmsd>  (60) 
1.18

>  <cluster>  (60) 
1

$$$$

     RDKit          3D

 65 69  0  0  1  0  0  0  0  0999 V2000
  140.0120   72.6550  222.1160 O   0  0  0  0  0  0  0  0  0  0  0  0
  139.3660   71.7530  222.7130 C   0  0  0  0  0  0  0  0  0  0  0  0
  138.1660   71.2510  222.1430 N   0  0  0  0  0  0  0  0  0  0  0  0
  137.6710   71.7580  220.8820 C   0  0  0  0  0  0  0  0  0  0  0  0
  137.8120   73.2330  220.7520 C   0  0  0  0  0  0  0  0  0  0  0  0
  138.4580   73.7630  219.8150 O   0  0  0  0  0  0  0  0  0  0  0  0
  137.1870   74.0350  221.7320 N   0  0  0  0  0  0  0  0  0  0  0  0
  136.3730   73.6090  222.8820 C   0  0  0  0  0  0  0  0  0  0  0  0
  135.1510   74.4980  222.6560 C   0  0  0  0  0  0  0  0  0  0  0  0
  135.8630   75.8320  222.4320 C   0  0  0  0  0  0  0  0  0  0  0  0
  137.2120   75.4740  221.8170 C   0  0  1  0  0  0  0  0  0  0  0  0
  138.2500   75.9990  222.7710 C   0  0  0  0  0  0  0  0  0  0  0  0
  139.5940   75.5780  222.4700 N   0  0  0  0  0  0  0  0  0  0  0  0
  140.1870   76.5840  221.6090 C   0  0  1  0  0  0  0  0  0  0  0  0
  140.4470   77.8510  222.3380 C   0  0  0  0  0  0  0  0  0  0  0  0
  141.4580   77.9140  223.2940 C   0  0  0  0  0  0  0  0  0  0  0  0
  141.7140   79.0980  223.9870 C   0  0  0  0  0  0  0  0  0  0  0  0
  140.9610   80.2300  223.7310 C   0  0  0  0  0  0  0  0  0  0  0  0
  139.9650   80.1570  222.7860 C   0  0  0  0  0  0  0  0  0  0  0  0
  139.6840   78.9950  222.0780 C   0  0  0  0  0  0  0  0  0  0  0  0
  141.4230   76.0890  220.9280 C   0  0  0  0  0  0  0  0  0  0  0  0
  142.1810   76.9070  220.1070 C   0  0  0  0  0  0  0  0  0  0  0  0
  143.3120   76.4220  219.4930 C   0  0  0  0  0  0  0  0  0  0  0  0
  143.7170   75.1590  219.6660 N   0  0  0  0  0  0  0  0  0  0  0  0
  143.0080   74.3520  220.4490 C   0  0  0  0  0  0  0  0  0  0  0  0
  141.8640   74.7720  221.0940 C   0  0  0  0  0  0  0  0  0  0  0  0
  139.8090   71.1890  223.9970 C   0  0  0  0  0  0  0  0  0  0  0  0
  140.7030   71.8640  224.8030 C   0  0  0  0  0  0  0  0  0  0  0  0
  141.1390   71.3590  226.0180 C   0  0  0  0  0  0  0  0  0  0  0  0
  140.6560   70.1260  226.4370 C   0  0  0  0  0  0  0  0  0  0  0  0
  141.0570   69.5620  227.6510 C   0  0  0  0  0  0  0  0  0  0  0  0
  140.5250   68.3220  227.9970 C   0  0  0  0  0  0  0  0  0  0  0  0
  140.9280   67.7890  229.1860 F   0  0  0  0  0  0  0  0  0  0  0  0
  139.6260   67.6620  227.1700 C   0  0  0  0  0  0  0  0  0  0  0  0
  139.2490   68.2470  225.9750 C   0  0  0  0  0  0  0  0  0  0  0  0
  139.7630   69.4750  225.6090 C   0  0  0  0  0  0  0  0  0  0  0  0
  139.3480   69.9800  224.4310 N   0  0  0  0  0  0  0  0  0  0  0  0
  137.6350   70.4920  222.6600 H   0  0  0  0  0  0  0  0  0  0  0  0
  138.2333   71.2791  220.0669 H   0  0  0  0  0  0  0  0  0  0  0  0
  136.5971   71.5249  220.8329 H   0  0  0  0  0  0  0  0  0  0  0  0
  136.1192   72.5398  222.8336 H   0  0  0  0  0  0  0  0  0  0  0  0
  136.8554   73.7108  223.8653 H   0  0  0  0  0  0  0  0  0  0  0  0
  134.5719   74.1865  221.7742 H   0  0  0  0  0  0  0  0  0  0  0  0
  134.4047   74.4902  223.4641 H   0  0  0  0  0  0  0  0  0  0  0  0
  135.2836   76.4668  221.7455 H   0  0  0  0  0  0  0  0  0  0  0  0
  135.9780   76.3963  223.3692 H   0  0  0  0  0  0  0  0  0  0  0  0
  137.4271   75.8947  220.8237 H   0  0  0  0  0  0  0  0  0  0  0  0
  138.2186   77.0982  222.7445 H   0  0  0  0  0  0  0  0  0  0  0  0
  138.0047   75.5898  223.7622 H   0  0  0  0  0  0  0  0  0  0  0  0
  139.5310   74.6460  222.0070 H   0  0  0  0  0  0  0  0  0  0  0  0
  139.4469   76.7975  220.8237 H   0  0  0  0  0  0  0  0  0  0  0  0
  142.0621   77.0194  223.5054 H   0  0  0  0  0  0  0  0  0  0  0  0
  142.5165   79.1313  224.7386 H   0  0  0  0  0  0  0  0  0  0  0  0
  141.1549   81.1681  224.2718 H   0  0  0  0  0  0  0  0  0  0  0  0
  139.3654   81.0563  222.5819 H   0  0  0  0  0  0  0  0  0  0  0  0
  138.8788   78.9747  221.3289 H   0  0  0  0  0  0  0  0  0  0  0  0
  141.8765   77.9515  219.9449 H   0  0  0  0  0  0  0  0  0  0  0  0
  143.8979   77.0891  218.8437 H   0  0  0  0  0  0  0  0  0  0  0  0
  143.3453   73.3141  220.5870 H   0  0  0  0  0  0  0  0  0  0  0  0
  141.3021   74.0763  221.7346 H   0  0  0  0  0  0  0  0  0  0  0  0
  141.0842   72.8401  224.4684 H   0  0  0  0  0  0  0  0  0  0  0  0
  141.8523   71.9227  226.6372 H   0  0  0  0  0  0  0  0  0  0  0  0
  141.7686   70.0797  228.3110 H   0  0  0  0  0  0  0  0  0  0  0  0
  139.2177   66.6834  227.4625 H   0  0  0  0  0  0  0  0  0  0  0  0
  138.5368   67.7320  225.3135 H   0  0  0  0  0  0  0  0  0  0  0  0
  1  2  2  0
  2  3  1  0
  3  4  1  0
  4  5  1  0
  5  6  2  0
  5  7  1  0
  7  8  1  0
  8  9  1  0
  9 10  1  0
 10 11  1  0
 11 12  1  0
 12 13  1  0
 13 14  1  0
 14 15  1  0
 15 16  2  0
 16 17  1  0
 17 18  2  0
 18 19  1  0
 19 20  2  0
 14 21  1  0
 21 22  2  0
 22 23  1  0
 23 24  2  0
 24 25  1  0
 25 26  2  0
  2 27  1  0
 27 28  2  0
 28 29  1  0
 29 30  2  0
 30 31  1  0
 31 32  2  0
 32 33  1  0
 32 34  1  0
 34 35  2  0
 35 36  1  0
 36 37  2  0
 11  7  1  0
 20 15  1  0
 26 21  1  0
 37 27  1  0
 36 30  1  0
  3 38  1  0
  4 39  1  0
  4 40  1  0
  8 41  1  0
  8 42  1  0
  9 43  1  0
  9 44  1  0
 10 45  1  0
 10 46  1  0
 11 47  1  6
 12 48  1  0
 12 49  1  0
 13 50  1  0
 14 51  1  6
 16 52  1  0
 17 53  1  0
 18 54  1  0
 19 55  1  0
 20 56  1  0
 22 57  1  0
 23 58  1  0
 25 59  1  0
 26 60  1  0
 28 61  1  0
 29 62  1  0
 31 63  1  0
 34 64  1  0
 35 65  1  0
M  END
>  <smiles>  (61) 
O=C(NCC(=O)N1CCC[C@H]1CNC(c1ccccc1)c1ccncc1)c1ccc2cc(F)ccc2n1

>  <score_type>  (61) 
oracle

>  <origin>  (61) 
autodockgpu

>  <m_score__min__energy>  (61) 
-9.4299999999999997

>  <m_primary>  (61) 
energy

>  <rmsd>  (61) 
4.162060839353363

>  <m_score__min__rmsd>  (61) 
4.162060839353363

>  <meeko>  (61) 
{"free_energy": -8.46, "intermolecular_energy": -11.14, "internal_energy": -3.81, "cluster_size": 19, "cluster_id": 1, "rank_in_cluster": 18}

>  <energy>  (61) 
-8.85

>  <cluster_rmsd>  (61) 
0.97

>  <cluster>  (61) 
1

$$$$

     RDKit          3D

 65 69  0  0  1  0  0  0  0  0999 V2000
  140.3650   73.0230  222.3870 O   0  0  0  0  0  0  0  0  0  0  0  0
  140.5090   74.0020  221.6070 C   0  0  0  0  0  0  0  0  0  0  0  0
  141.0820   73.8000  220.3240 N   0  0  0  0  0  0  0  0  0  0  0  0
  141.5040   72.4860  219.8930 C   0  0  0  0  0  0  0  0  0  0  0  0
  142.6050   72.5270  218.8930 C   0  0  0  0  0  0  0  0  0  0  0  0
  142.4720   72.0660  217.7320 O   0  0  0  0  0  0  0  0  0  0  0  0
  143.8260   73.1110  219.2950 N   0  0  0  0  0  0  0  0  0  0  0  0
  145.1540   72.9750  218.6760 C   0  0  0  0  0  0  0  0  0  0  0  0
  145.9600   72.5890  219.9160 C   0  0  0  0  0  0  0  0  0  0  0  0
  145.4590   73.6700  220.8730 C   0  0  0  0  0  0  0  0  0  0  0  0
  144.0370   73.9850  220.4210 C   0  0  1  0  0  0  0  0  0  0  0  0
  144.0380   75.4450  220.0550 C   0  0  0  0  0  0  0  0  0  0  0  0
  142.7370   76.0630  220.0940 N   0  0  0  0  0  0  0  0  0  0  0  0
  142.7200   77.1140  219.0950 C   0  0  1  0  0  0  0  0  0  0  0  0
  142.6890   76.5650  217.7160 C   0  0  0  0  0  0  0  0  0  0  0  0
  141.9500   75.4170  217.4350 C   0  0  0  0  0  0  0  0  0  0  0  0
  141.9110   74.8890  216.1440 C   0  0  0  0  0  0  0  0  0  0  0  0
  142.6130   75.5020  215.1210 C   0  0  0  0  0  0  0  0  0  0  0  0
  143.3400   76.6330  215.4090 C   0  0  0  0  0  0  0  0  0  0  0  0
  143.3990   77.1860  216.6820 C   0  0  0  0  0  0  0  0  0  0  0  0
  141.6050   78.0860  219.3150 C   0  0  0  0  0  0  0  0  0  0  0  0
  140.2790   77.7260  219.1390 C   0  0  0  0  0  0  0  0  0  0  0  0
  139.2750   78.6420  219.3490 C   0  0  0  0  0  0  0  0  0  0  0  0
  139.5400   79.8980  219.7260 N   0  0  0  0  0  0  0  0  0  0  0  0
  140.8030   80.2700  219.9010 C   0  0  0  0  0  0  0  0  0  0  0  0
  141.8580   79.4030  219.7080 C   0  0  0  0  0  0  0  0  0  0  0  0
  140.1030   75.3660  221.9760 C   0  0  0  0  0  0  0  0  0  0  0  0
  138.7760   75.7450  221.9600 C   0  0  0  0  0  0  0  0  0  0  0  0
  138.3620   77.0240  222.3020 C   0  0  0  0  0  0  0  0  0  0  0  0
  139.3230   77.9550  222.6740 C   0  0  0  0  0  0  0  0  0  0  0  0
  138.9700   79.2610  223.0290 C   0  0  0  0  0  0  0  0  0  0  0  0
  139.9950   80.1330  223.3880 C   0  0  0  0  0  0  0  0  0  0  0  0
  139.6310   81.4020  223.7320 F   0  0  0  0  0  0  0  0  0  0  0  0
  141.3220   79.7290  223.3970 C   0  0  0  0  0  0  0  0  0  0  0  0
  141.6390   78.4310  223.0400 C   0  0  0  0  0  0  0  0  0  0  0  0
  140.6410   77.5470  222.6790 C   0  0  0  0  0  0  0  0  0  0  0  0
  141.0270   76.3000  222.3450 N   0  0  0  0  0  0  0  0  0  0  0  0
  141.1970   74.6360  219.6800 H   0  0  0  0  0  0  0  0  0  0  0  0
  141.8502   71.9232  220.7724 H   0  0  0  0  0  0  0  0  0  0  0  0
  140.6401   72.0050  219.4111 H   0  0  0  0  0  0  0  0  0  0  0  0
  145.1728   72.1856  217.9101 H   0  0  0  0  0  0  0  0  0  0  0  0
  145.5158   73.8617  218.1348 H   0  0  0  0  0  0  0  0  0  0  0  0
  145.7125   71.5775  220.2704 H   0  0  0  0  0  0  0  0  0  0  0  0
  147.0505   72.5483  219.7776 H   0  0  0  0  0  0  0  0  0  0  0  0
  145.4601   73.2979  221.9082 H   0  0  0  0  0  0  0  0  0  0  0  0
  146.1013   74.5628  220.8534 H   0  0  0  0  0  0  0  0  0  0  0  0
  143.2383   73.8257  221.1604 H   0  0  0  0  0  0  0  0  0  0  0  0
  144.6943   75.9771  220.7594 H   0  0  0  0  0  0  0  0  0  0  0  0
  144.3888   75.5105  219.0145 H   0  0  0  0  0  0  0  0  0  0  0  0
  142.5970   76.4300  221.0600 H   0  0  0  0  0  0  0  0  0  0  0  0
  143.6625   77.6692  219.2110 H   0  0  0  0  0  0  0  0  0  0  0  0
  141.3903   74.9208  218.2415 H   0  0  0  0  0  0  0  0  0  0  0  0
  141.3210   73.9836  215.9390 H   0  0  0  0  0  0  0  0  0  0  0  0
  142.5899   75.0934  214.0999 H   0  0  0  0  0  0  0  0  0  0  0  0
  143.8987   77.1208  214.5967 H   0  0  0  0  0  0  0  0  0  0  0  0
  143.9913   78.0929  216.8734 H   0  0  0  0  0  0  0  0  0  0  0  0
  140.0275   76.7009  218.8293 H   0  0  0  0  0  0  0  0  0  0  0  0
  138.2289   78.3346  219.2035 H   0  0  0  0  0  0  0  0  0  0  0  0
  141.0146   81.3042  220.2102 H   0  0  0  0  0  0  0  0  0  0  0  0
  142.8917   79.7458  219.8624 H   0  0  0  0  0  0  0  0  0  0  0  0
  138.0178   75.0047  221.6648 H   0  0  0  0  0  0  0  0  0  0  0  0
  137.2961   77.2948  222.2791 H   0  0  0  0  0  0  0  0  0  0  0  0
  137.9197   79.5880  223.0248 H   0  0  0  0  0  0  0  0  0  0  0  0
  142.1150   80.4346  223.6855 H   0  0  0  0  0  0  0  0  0  0  0  0
  142.6886   78.1018  223.0435 H   0  0  0  0  0  0  0  0  0  0  0  0
  1  2  2  0
  2  3  1  0
  3  4  1  0
  4  5  1  0
  5  6  2  0
  5  7  1  0
  7  8  1  0
  8  9  1  0
  9 10  1  0
 10 11  1  0
 11 12  1  0
 12 13  1  0
 13 14  1  0
 14 15  1  0
 15 16  2  0
 16 17  1  0
 17 18  2  0
 18 19  1  0
 19 20  2  0
 14 21  1  0
 21 22  2  0
 22 23  1  0
 23 24  2  0
 24 25  1  0
 25 26  2  0
  2 27  1  0
 27 28  2  0
 28 29  1  0
 29 30  2  0
 30 31  1  0
 31 32  2  0
 32 33  1  0
 32 34  1  0
 34 35  2  0
 35 36  1  0
 36 37  2  0
 11  7  1  0
 20 15  1  0
 26 21  1  0
 37 27  1  0
 36 30  1  0
  3 38  1  0
  4 39  1  0
  4 40  1  0
  8 41  1  0
  8 42  1  0
  9 43  1  0
  9 44  1  0
 10 45  1  0
 10 46  1  0
 11 47  1  1
 12 48  1  0
 12 49  1  0
 13 50  1  0
 14 51  1  6
 16 52  1  0
 17 53  1  0
 18 54  1  0
 19 55  1  0
 20 56  1  0
 22 57  1  0
 23 58  1  0
 25 59  1  0
 26 60  1  0
 28 61  1  0
 29 62  1  0
 31 63  1  0
 34 64  1  0
 35 65  1  0
M  END
>  <smiles>  (62) 
O=C(NCC(=O)N1CCC[C@H]1CNC(c1ccccc1)c1ccncc1)c1ccc2cc(F)ccc2n1

>  <score_type>  (62) 
oracle

>  <origin>  (62) 
autodockgpu

>  <m_score__min__energy>  (62) 
-9.4299999999999997

>  <m_primary>  (62) 
energy

>  <rmsd>  (62) 
7.34797551583424

>  <m_score__min__rmsd>  (62) 
7.34797551583424

>  <meeko>  (62) 
{"free_energy": -6.47, "intermolecular_energy": -9.15, "internal_energy": -5.82, "cluster_size": 8, "cluster_id": 8, "rank_in_cluster": 2}

>  <energy>  (62) 
-8.79

>  <cluster_rmsd>  (62) 
1.44

>  <cluster>  (62) 
1

$$$$

     RDKit          3D

 65 69  0  0  1  0  0  0  0  0999 V2000
  142.7470   77.1420  216.8260 O   0  0  0  0  0  0  0  0  0  0  0  0
  142.7830   77.7390  217.9350 C   0  0  0  0  0  0  0  0  0  0  0  0
  143.2550   77.0550  219.0870 N   0  0  0  0  0  0  0  0  0  0  0  0
  143.6990   75.6810  219.0090 C   0  0  0  0  0  0  0  0  0  0  0  0
  143.2350   74.8530  220.1540 C   0  0  0  0  0  0  0  0  0  0  0  0
  144.0260   74.1760  220.8550 O   0  0  0  0  0  0  0  0  0  0  0  0
  141.8510   74.8530  220.4370 N   0  0  0  0  0  0  0  0  0  0  0  0
  141.1360   74.1550  221.5170 C   0  0  0  0  0  0  0  0  0  0  0  0
  140.0590   73.4610  220.6850 C   0  0  0  0  0  0  0  0  0  0  0  0
  139.5960   74.6530  219.8490 C   0  0  0  0  0  0  0  0  0  0  0  0
  140.8200   75.5520  219.7100 C   0  0  1  0  0  0  0  0  0  0  0  0
  140.4360   76.8670  220.3330 C   0  0  0  0  0  0  0  0  0  0  0  0
  141.4540   77.4390  221.1770 N   0  0  0  0  0  0  0  0  0  0  0  0
  140.8080   77.9020  222.3910 C   0  0  1  0  0  0  0  0  0  0  0  0
  141.4750   79.1060  222.9460 C   0  0  0  0  0  0  0  0  0  0  0  0
  140.7410   80.0400  223.6740 C   0  0  0  0  0  0  0  0  0  0  0  0
  141.3540   81.1770  224.2020 C   0  0  0  0  0  0  0  0  0  0  0  0
  142.7070   81.3920  224.0070 C   0  0  0  0  0  0  0  0  0  0  0  0
  143.4210   80.4640  223.2870 C   0  0  0  0  0  0  0  0  0  0  0  0
  142.8440   79.3220  222.7480 C   0  0  0  0  0  0  0  0  0  0  0  0
  139.3440   78.1340  222.1990 C   0  0  0  0  0  0  0  0  0  0  0  0
  138.3930   77.2870  222.7450 C   0  0  0  0  0  0  0  0  0  0  0  0
  137.0530   77.5270  222.5500 C   0  0  0  0  0  0  0  0  0  0  0  0
  136.6240   78.5740  221.8380 N   0  0  0  0  0  0  0  0  0  0  0  0
  137.5150   79.4030  221.3030 C   0  0  0  0  0  0  0  0  0  0  0  0
  138.8730   79.2220  221.4580 C   0  0  0  0  0  0  0  0  0  0  0  0
  142.3490   79.1350  218.0900 C   0  0  0  0  0  0  0  0  0  0  0  0
  142.2020   79.9630  216.9960 C   0  0  0  0  0  0  0  0  0  0  0  0
  141.7940   81.2830  217.1100 C   0  0  0  0  0  0  0  0  0  0  0  0
  141.5250   81.7880  218.3760 C   0  0  0  0  0  0  0  0  0  0  0  0
  141.1120   83.1110  218.5580 C   0  0  0  0  0  0  0  0  0  0  0  0
  140.8630   83.5380  219.8600 C   0  0  0  0  0  0  0  0  0  0  0  0
  140.4600   84.8320  220.0170 F   0  0  0  0  0  0  0  0  0  0  0  0
  141.0180   82.6870  220.9450 C   0  0  0  0  0  0  0  0  0  0  0  0
  141.4290   81.3840  220.7320 C   0  0  0  0  0  0  0  0  0  0  0  0
  141.6820   80.9360  219.4500 C   0  0  0  0  0  0  0  0  0  0  0  0
  142.0780   79.6550  219.3230 N   0  0  0  0  0  0  0  0  0  0  0  0
  143.2780   77.5720  220.0130 H   0  0  0  0  0  0  0  0  0  0  0  0
  143.3121   75.2402  218.0784 H   0  0  0  0  0  0  0  0  0  0  0  0
  144.7987   75.6893  219.0341 H   0  0  0  0  0  0  0  0  0  0  0  0
  141.7816   73.4337  222.0395 H   0  0  0  0  0  0  0  0  0  0  0  0
  140.7643   74.7972  222.3290 H   0  0  0  0  0  0  0  0  0  0  0  0
  140.4749   72.6564  220.0608 H   0  0  0  0  0  0  0  0  0  0  0  0
  139.2713   72.9530  221.2607 H   0  0  0  0  0  0  0  0  0  0  0  0
  139.2505   74.3180  218.8598 H   0  0  0  0  0  0  0  0  0  0  0  0
  138.7535   75.1801  220.3206 H   0  0  0  0  0  0  0  0  0  0  0  0
  141.1678   75.7552  218.6864 H   0  0  0  0  0  0  0  0  0  0  0  0
  140.2162   77.5806  219.5252 H   0  0  0  0  0  0  0  0  0  0  0  0
  139.5653   76.6705  220.9758 H   0  0  0  0  0  0  0  0  0  0  0  0
  141.9000   78.2150  220.6440 H   0  0  0  0  0  0  0  0  0  0  0  0
  140.9140   77.0935  223.1293 H   0  0  0  0  0  0  0  0  0  0  0  0
  139.6647   79.8791  223.8346 H   0  0  0  0  0  0  0  0  0  0  0  0
  140.7600   81.9044  224.7748 H   0  0  0  0  0  0  0  0  0  0  0  0
  143.1998   82.2851  224.4187 H   0  0  0  0  0  0  0  0  0  0  0  0
  144.4966   80.6336  223.1310 H   0  0  0  0  0  0  0  0  0  0  0  0
  143.4495   78.6023  222.1776 H   0  0  0  0  0  0  0  0  0  0  0  0
  138.7119   76.4172  223.3381 H   0  0  0  0  0  0  0  0  0  0  0  0
  136.3156   76.8402  222.9910 H   0  0  0  0  0  0  0  0  0  0  0  0
  137.1568   80.2622  220.7170 H   0  0  0  0  0  0  0  0  0  0  0  0
  139.5813   79.9291  221.0016 H   0  0  0  0  0  0  0  0  0  0  0  0
  142.4167   79.5603  215.9952 H   0  0  0  0  0  0  0  0  0  0  0  0
  141.6856   81.9168  216.2175 H   0  0  0  0  0  0  0  0  0  0  0  0
  140.9880   83.7912  217.7025 H   0  0  0  0  0  0  0  0  0  0  0  0
  140.8158   83.0456  221.9651 H   0  0  0  0  0  0  0  0  0  0  0  0
  141.5549   80.7022  221.5860 H   0  0  0  0  0  0  0  0  0  0  0  0
  1  2  2  0
  2  3  1  0
  3  4  1  0
  4  5  1  0
  5  6  2  0
  5  7  1  0
  7  8  1  0
  8  9  1  0
  9 10  1  0
 10 11  1  0
 11 12  1  0
 12 13  1  0
 13 14  1  0
 14 15  1  0
 15 16  2  0
 16 17  1  0
 17 18  2  0
 18 19  1  0
 19 20  2  0
 14 21  1  0
 21 22  2  0
 22 23  1  0
 23 24  2  0
 24 25  1  0
 25 26  2  0
  2 27  1  0
 27 28  2  0
 28 29  1  0
 29 30  2  0
 30 31  1  0
 31 32  2  0
 32 33  1  0
 32 34  1  0
 34 35  2  0
 35 36  1  0
 36 37  2  0
 11  7  1  0
 20 15  1  0
 26 21  1  0
 37 27  1  0
 36 30  1  0
  3 38  1  0
  4 39  1  0
  4 40  1  0
  8 41  1  0
  8 42  1  0
  9 43  1  0
  9 44  1  0
 10 45  1  0
 10 46  1  0
 11 47  1  6
 12 48  1  0
 12 49  1  0
 13 50  1  0
 14 51  1  1
 16 52  1  0
 17 53  1  0
 18 54  1  0
 19 55  1  0
 20 56  1  0
 22 57  1  0
 23 58  1  0
 25 59  1  0
 26 60  1  0
 28 61  1  0
 29 62  1  0
 31 63  1  0
 34 64  1  0
 35 65  1  0
M  END
>  <smiles>  (63) 
O=C(NCC(=O)N1CCC[C@H]1CNC(c1ccccc1)c1ccncc1)c1ccc2cc(F)ccc2n1

>  <score_type>  (63) 
oracle

>  <origin>  (63) 
autodockgpu

>  <m_score__min__energy>  (63) 
-9.4299999999999997

>  <m_primary>  (63) 
energy

>  <rmsd>  (63) 
8.919620212299366

>  <m_score__min__rmsd>  (63) 
8.919620212299366

>  <meeko>  (63) 
{"free_energy": -6.68, "intermolecular_energy": -9.36, "internal_energy": -5.27, "cluster_size": 1, "cluster_id": 9, "rank_in_cluster": 1}

>  <energy>  (63) 
-8.74

>  <cluster_rmsd>  (63) 
1.24

>  <cluster>  (63) 
1

$$$$

     RDKit          3D

 65 69  0  0  1  0  0  0  0  0999 V2000
  141.8010   79.3520  217.2820 O   0  0  0  0  0  0  0  0  0  0  0  0
  142.2160   78.7460  218.3060 C   0  0  0  0  0  0  0  0  0  0  0  0
  142.2070   79.4040  219.5650 N   0  0  0  0  0  0  0  0  0  0  0  0
  141.7270   80.7620  219.6940 C   0  0  0  0  0  0  0  0  0  0  0  0
  140.7450   80.9300  220.7980 C   0  0  0  0  0  0  0  0  0  0  0  0
  139.5790   81.3490  220.5990 O   0  0  0  0  0  0  0  0  0  0  0  0
  141.1710   80.5960  222.1030 N   0  0  0  0  0  0  0  0  0  0  0  0
  140.6430   81.0750  223.3900 C   0  0  0  0  0  0  0  0  0  0  0  0
  141.9530   81.5180  224.0390 C   0  0  0  0  0  0  0  0  0  0  0  0
  142.7950   80.2740  223.7560 C   0  0  0  0  0  0  0  0  0  0  0  0
  142.2380   79.6940  222.4590 C   0  0  1  0  0  0  0  0  0  0  0  0
  141.7610   78.3080  222.8020 C   0  0  0  0  0  0  0  0  0  0  0  0
  141.4380   77.4960  221.6570 N   0  0  0  0  0  0  0  0  0  0  0  0
  140.5750   76.4220  222.1100 C   0  0  1  0  0  0  0  0  0  0  0  0
  139.1810   76.8850  222.3210 C   0  0  0  0  0  0  0  0  0  0  0  0
  138.1990   75.9870  222.7360 C   0  0  0  0  0  0  0  0  0  0  0  0
  136.8840   76.4080  222.9380 C   0  0  0  0  0  0  0  0  0  0  0  0
  136.5370   77.7310  222.7270 C   0  0  0  0  0  0  0  0  0  0  0  0
  137.5130   78.6080  222.3180 C   0  0  0  0  0  0  0  0  0  0  0  0
  138.8310   78.2240  222.1070 C   0  0  0  0  0  0  0  0  0  0  0  0
  140.6190   75.2380  221.1970 C   0  0  0  0  0  0  0  0  0  0  0  0
  141.0770   74.0040  221.6250 C   0  0  0  0  0  0  0  0  0  0  0  0
  141.1060   72.9340  220.7620 C   0  0  0  0  0  0  0  0  0  0  0  0
  140.6970   73.0450  219.4930 N   0  0  0  0  0  0  0  0  0  0  0  0
  140.2530   74.2180  219.0560 C   0  0  0  0  0  0  0  0  0  0  0  0
  140.1970   75.3320  219.8670 C   0  0  0  0  0  0  0  0  0  0  0  0
  142.7170   77.3650  218.2520 C   0  0  0  0  0  0  0  0  0  0  0  0
  142.6830   76.6380  217.0790 C   0  0  0  0  0  0  0  0  0  0  0  0
  143.1480   75.3340  216.9970 C   0  0  0  0  0  0  0  0  0  0  0  0
  143.6670   74.7410  218.1400 C   0  0  0  0  0  0  0  0  0  0  0  0
  144.1500   73.4290  218.1230 C   0  0  0  0  0  0  0  0  0  0  0  0
  144.6540   72.9090  219.3130 C   0  0  0  0  0  0  0  0  0  0  0  0
  145.1220   71.6280  219.2750 F   0  0  0  0  0  0  0  0  0  0  0  0
  144.6780   73.6590  220.4800 C   0  0  0  0  0  0  0  0  0  0  0  0
  144.1910   74.9530  220.4650 C   0  0  0  0  0  0  0  0  0  0  0  0
  143.6870   75.4930  219.2970 C   0  0  0  0  0  0  0  0  0  0  0  0
  143.2320   76.7590  219.3620 N   0  0  0  0  0  0  0  0  0  0  0  0
  142.5610   78.8790  220.4160 H   0  0  0  0  0  0  0  0  0  0  0  0
  142.5867   81.4206  219.8866 H   0  0  0  0  0  0  0  0  0  0  0  0
  141.2138   81.0195  218.7558 H   0  0  0  0  0  0  0  0  0  0  0  0
  139.9426   81.9135  223.2616 H   0  0  0  0  0  0  0  0  0  0  0  0
  140.0572   80.3408  223.9625 H   0  0  0  0  0  0  0  0  0  0  0  0
  142.3687   82.4154  223.5574 H   0  0  0  0  0  0  0  0  0  0  0  0
  141.8811   81.8089  225.0974 H   0  0  0  0  0  0  0  0  0  0  0  0
  143.8537   80.5458  223.6326 H   0  0  0  0  0  0  0  0  0  0  0  0
  142.7454   79.5498  224.5825 H   0  0  0  0  0  0  0  0  0  0  0  0
  142.9398   79.6078  221.6163 H   0  0  0  0  0  0  0  0  0  0  0  0
  142.5537   77.8013  223.3720 H   0  0  0  0  0  0  0  0  0  0  0  0
  140.8317   78.4265  223.3786 H   0  0  0  0  0  0  0  0  0  0  0  0
  142.3360   77.1450  221.2620 H   0  0  0  0  0  0  0  0  0  0  0  0
  140.9681   76.0962  223.0843 H   0  0  0  0  0  0  0  0  0  0  0  0
  138.4640   74.9331  222.9064 H   0  0  0  0  0  0  0  0  0  0  0  0
  136.1212   75.6864  223.2658 H   0  0  0  0  0  0  0  0  0  0  0  0
  135.5032   78.0730  222.8831 H   0  0  0  0  0  0  0  0  0  0  0  0
  137.2383   79.6599  222.1504 H   0  0  0  0  0  0  0  0  0  0  0  0
  139.5837   78.9559  221.7788 H   0  0  0  0  0  0  0  0  0  0  0  0
  141.4201   73.8785  222.6626 H   0  0  0  0  0  0  0  0  0  0  0  0
  141.4746   71.9628  221.1238 H   0  0  0  0  0  0  0  0  0  0  0  0
  139.9186   74.3039  218.0116 H   0  0  0  0  0  0  0  0  0  0  0  0
  139.8231   76.2876  219.4706 H   0  0  0  0  0  0  0  0  0  0  0  0
  142.2715   77.1109  216.1751 H   0  0  0  0  0  0  0  0  0  0  0  0
  143.1065   74.7814  216.0468 H   0  0  0  0  0  0  0  0  0  0  0  0
  144.1326   72.8282  217.2018 H   0  0  0  0  0  0  0  0  0  0  0  0
  145.0807   73.2282  221.4086 H   0  0  0  0  0  0  0  0  0  0  0  0
  144.2048   75.5546  221.3858 H   0  0  0  0  0  0  0  0  0  0  0  0
  1  2  2  0
  2  3  1  0
  3  4  1  0
  4  5  1  0
  5  6  2  0
  5  7  1  0
  7  8  1  0
  8  9  1  0
  9 10  1  0
 10 11  1  0
 11 12  1  0
 12 13  1  0
 13 14  1  0
 14 15  1  0
 15 16  2  0
 16 17  1  0
 17 18  2  0
 18 19  1  0
 19 20  2  0
 14 21  1  0
 21 22  2  0
 22 23  1  0
 23 24  2  0
 24 25  1  0
 25 26  2  0
  2 27  1  0
 27 28  2  0
 28 29  1  0
 29 30  2  0
 30 31  1  0
 31 32  2  0
 32 33  1  0
 32 34  1  0
 34 35  2  0
 35 36  1  0
 36 37  2  0
 11  7  1  0
 20 15  1  0
 26 21  1  0
 37 27  1  0
 36 30  1  0
  3 38  1  0
  4 39  1  0
  4 40  1  0
  8 41  1  0
  8 42  1  0
  9 43  1  0
  9 44  1  0
 10 45  1  0
 10 46  1  0
 11 47  1  6
 12 48  1  0
 12 49  1  0
 13 50  1  0
 14 51  1  1
 16 52  1  0
 17 53  1  0
 18 54  1  0
 19 55  1  0
 20 56  1  0
 22 57  1  0
 23 58  1  0
 25 59  1  0
 26 60  1  0
 28 61  1  0
 29 62  1  0
 31 63  1  0
 34 64  1  0
 35 65  1  0
M  END
>  <smiles>  (64) 
O=C(NCC(=O)N1CCC[C@H]1CNC(c1ccccc1)c1ccncc1)c1ccc2cc(F)ccc2n1

>  <score_type>  (64) 
oracle

>  <origin>  (64) 
autodockgpu

>  <m_score__min__energy>  (64) 
-9.4299999999999997

>  <m_primary>  (64) 
energy

>  <rmsd>  (64) 
7.8021372297195

>  <m_score__min__rmsd>  (64) 
7.8021372297195

>  <meeko>  (64) 
{"free_energy": -6.93, "intermolecular_energy": -9.61, "internal_energy": -5.66, "cluster_size": 3, "cluster_id": 7, "rank_in_cluster": 1}

>  <energy>  (64) 
-8.66

>  <cluster_rmsd>  (64) 
1.36

>  <cluster>  (64) 
1

$$$$

     RDKit          3D

 65 69  0  0  1  0  0  0  0  0999 V2000
  138.7380   75.0620  221.7290 O   0  0  0  0  0  0  0  0  0  0  0  0
  139.8990   75.5410  221.8390 C   0  0  0  0  0  0  0  0  0  0  0  0
  141.0210   74.7610  221.4520 N   0  0  0  0  0  0  0  0  0  0  0  0
  140.8550   73.4230  220.9310 C   0  0  0  0  0  0  0  0  0  0  0  0
  141.4440   73.2490  219.5750 C   0  0  0  0  0  0  0  0  0  0  0  0
  140.7620   72.8640  218.5940 O   0  0  0  0  0  0  0  0  0  0  0  0
  142.8180   73.5370  219.4220 N   0  0  0  0  0  0  0  0  0  0  0  0
  143.6960   73.2330  218.2810 C   0  0  0  0  0  0  0  0  0  0  0  0
  144.8380   72.5480  219.0310 C   0  0  0  0  0  0  0  0  0  0  0  0
  145.0420   73.5720  220.1460 C   0  0  0  0  0  0  0  0  0  0  0  0
  143.6720   74.2050  220.3720 C   0  0  1  0  0  0  0  0  0  0  0  0
  143.8480   75.6730  220.0900 C   0  0  0  0  0  0  0  0  0  0  0  0
  142.6210   76.4280  220.1090 N   0  0  0  0  0  0  0  0  0  0  0  0
  142.4480   77.0190  218.7960 C   0  0  1  0  0  0  0  0  0  0  0  0
  141.3710   76.3490  218.0260 C   0  0  0  0  0  0  0  0  0  0  0  0
  141.6560   75.7440  216.8040 C   0  0  0  0  0  0  0  0  0  0  0  0
  140.6530   75.1100  216.0690 C   0  0  0  0  0  0  0  0  0  0  0  0
  139.3550   75.0760  216.5480 C   0  0  0  0  0  0  0  0  0  0  0  0
  139.0850   75.6770  217.7540 C   0  0  0  0  0  0  0  0  0  0  0  0
  140.0590   76.3160  218.5120 C   0  0  0  0  0  0  0  0  0  0  0  0
  142.2240   78.4960  218.8670 C   0  0  0  0  0  0  0  0  0  0  0  0
  142.8530   79.3710  217.9970 C   0  0  0  0  0  0  0  0  0  0  0  0
  142.6280   80.7250  218.0860 C   0  0  0  0  0  0  0  0  0  0  0  0
  141.8020   81.2390  219.0050 N   0  0  0  0  0  0  0  0  0  0  0  0
  141.1860   80.4220  219.8520 C   0  0  0  0  0  0  0  0  0  0  0  0
  141.3670   79.0550  219.8190 C   0  0  0  0  0  0  0  0  0  0  0  0
  140.1440   76.8940  222.3590 C   0  0  0  0  0  0  0  0  0  0  0  0
  139.1030   77.6990  222.7760 C   0  0  0  0  0  0  0  0  0  0  0  0
  139.3030   78.9790  223.2710 C   0  0  0  0  0  0  0  0  0  0  0  0
  140.6010   79.4650  223.3500 C   0  0  0  0  0  0  0  0  0  0  0  0
  140.8680   80.7470  223.8390 C   0  0  0  0  0  0  0  0  0  0  0  0
  142.1980   81.1590  223.8840 C   0  0  0  0  0  0  0  0  0  0  0  0
  142.4390   82.4130  224.3650 F   0  0  0  0  0  0  0  0  0  0  0  0
  143.2290   80.3310  223.4600 C   0  0  0  0  0  0  0  0  0  0  0  0
  142.9310   79.0690  222.9810 C   0  0  0  0  0  0  0  0  0  0  0  0
  141.6200   78.6370  222.9260 C   0  0  0  0  0  0  0  0  0  0  0  0
  141.4110   77.3960  222.4470 N   0  0  0  0  0  0  0  0  0  0  0  0
  141.9910   75.1800  221.5520 H   0  0  0  0  0  0  0  0  0  0  0  0
  141.3430   72.7163  221.6183 H   0  0  0  0  0  0  0  0  0  0  0  0
  139.7745   73.2347  220.8468 H   0  0  0  0  0  0  0  0  0  0  0  0
  143.2140   72.5579  217.5585 H   0  0  0  0  0  0  0  0  0  0  0  0
  143.9866   74.0971  217.6654 H   0  0  0  0  0  0  0  0  0  0  0  0
  144.5415   71.5643  219.4240 H   0  0  0  0  0  0  0  0  0  0  0  0
  145.7301   72.3215  218.4286 H   0  0  0  0  0  0  0  0  0  0  0  0
  145.3931   73.0769  221.0634 H   0  0  0  0  0  0  0  0  0  0  0  0
  145.7998   74.3228  219.8776 H   0  0  0  0  0  0  0  0  0  0  0  0
  143.2438   74.1065  221.3804 H   0  0  0  0  0  0  0  0  0  0  0  0
  144.5231   76.0921  220.8507 H   0  0  0  0  0  0  0  0  0  0  0  0
  144.2535   75.7533  219.0706 H   0  0  0  0  0  0  0  0  0  0  0  0
  142.7100   77.1460  220.8600 H   0  0  0  0  0  0  0  0  0  0  0  0
  143.3919   76.8586  218.2545 H   0  0  0  0  0  0  0  0  0  0  0  0
  142.6841   75.7662  216.4135 H   0  0  0  0  0  0  0  0  0  0  0  0
  140.8949   74.6360  215.1063 H   0  0  0  0  0  0  0  0  0  0  0  0
  138.5574   74.5791  215.9763 H   0  0  0  0  0  0  0  0  0  0  0  0
  138.0537   75.6512  218.1358 H   0  0  0  0  0  0  0  0  0  0  0  0
  139.8041   76.7858  219.4734 H   0  0  0  0  0  0  0  0  0  0  0  0
  143.5373   78.9804  217.2294 H   0  0  0  0  0  0  0  0  0  0  0  0
  143.1391   81.4014  217.3852 H   0  0  0  0  0  0  0  0  0  0  0  0
  140.5085   80.8502  220.6054 H   0  0  0  0  0  0  0  0  0  0  0  0
  140.8404   78.4092  220.5371 H   0  0  0  0  0  0  0  0  0  0  0  0
  138.0758   77.3105  222.7133 H   0  0  0  0  0  0  0  0  0  0  0  0
  138.4515   79.5959  223.5940 H   0  0  0  0  0  0  0  0  0  0  0  0
  140.0559   81.4077  224.1766 H   0  0  0  0  0  0  0  0  0  0  0  0
  144.2726   80.6759  223.5049 H   0  0  0  0  0  0  0  0  0  0  0  0
  143.7409   78.4062  222.6423 H   0  0  0  0  0  0  0  0  0  0  0  0
  1  2  2  0
  2  3  1  0
  3  4  1  0
  4  5  1  0
  5  6  2  0
  5  7  1  0
  7  8  1  0
  8  9  1  0
  9 10  1  0
 10 11  1  0
 11 12  1  0
 12 13  1  0
 13 14  1  0
 14 15  1  0
 15 16  2  0
 16 17  1  0
 17 18  2  0
 18 19  1  0
 19 20  2  0
 14 21  1  0
 21 22  2  0
 22 23  1  0
 23 24  2  0
 24 25  1  0
 25 26  2  0
  2 27  1  0
 27 28  2  0
 28 29  1  0
 29 30  2  0
 30 31  1  0
 31 32  2  0
 32 33  1  0
 32 34  1  0
 34 35  2  0
 35 36  1  0
 36 37  2  0
 11  7  1  0
 20 15  1  0
 26 21  1  0
 37 27  1  0
 36 30  1  0
  3 38  1  0
  4 39  1  0
  4 40  1  0
  8 41  1  0
  8 42  1  0
  9 43  1  0
  9 44  1  0
 10 45  1  0
 10 46  1  0
 11 47  1  1
 12 48  1  0
 12 49  1  0
 13 50  1  0
 14 51  1  6
 16 52  1  0
 17 53  1  0
 18 54  1  0
 19 55  1  0
 20 56  1  0
 22 57  1  0
 23 58  1  0
 25 59  1  0
 26 60  1  0
 28 61  1  0
 29 62  1  0
 31 63  1  0
 34 64  1  0
 35 65  1  0
M  END
>  <smiles>  (65) 
O=C(NCC(=O)N1CCC[C@H]1CNC(c1ccccc1)c1ccncc1)c1ccc2cc(F)ccc2n1

>  <score_type>  (65) 
oracle

>  <origin>  (65) 
autodockgpu

>  <m_score__min__energy>  (65) 
-9.4299999999999997

>  <m_primary>  (65) 
energy

>  <rmsd>  (65) 
7.455792629788158

>  <m_score__min__rmsd>  (65) 
7.455792629788158

>  <meeko>  (65) 
{"free_energy": -6.26, "intermolecular_energy": -8.95, "internal_energy": -5.88, "cluster_size": 8, "cluster_id": 8, "rank_in_cluster": 7}

>  <energy>  (65) 
-8.61

>  <cluster_rmsd>  (65) 
1.6

>  <cluster>  (65) 
1

$$$$

     RDKit          3D

 65 69  0  0  1  0  0  0  0  0999 V2000
  140.3220   71.5600  221.7480 O   0  0  0  0  0  0  0  0  0  0  0  0
  139.6280   71.7300  222.7850 C   0  0  0  0  0  0  0  0  0  0  0  0
  138.4290   72.4900  222.7120 N   0  0  0  0  0  0  0  0  0  0  0  0
  137.9900   73.0720  221.4630 C   0  0  0  0  0  0  0  0  0  0  0  0
  138.1410   74.5510  221.4260 C   0  0  0  0  0  0  0  0  0  0  0  0
  137.2460   75.3260  221.8460 O   0  0  0  0  0  0  0  0  0  0  0  0
  139.3430   75.0680  220.8950 N   0  0  0  0  0  0  0  0  0  0  0  0
  139.9280   74.8430  219.5640 C   0  0  0  0  0  0  0  0  0  0  0  0
  141.3380   74.4310  219.9870 C   0  0  0  0  0  0  0  0  0  0  0  0
  141.6290   75.5550  220.9800 C   0  0  0  0  0  0  0  0  0  0  0  0
  140.2730   75.9470  221.5590 C   0  0  1  0  0  0  0  0  0  0  0  0
  140.0820   77.3980  221.2070 C   0  0  0  0  0  0  0  0  0  0  0  0
  138.8580   77.9690  221.7080 N   0  0  0  0  0  0  0  0  0  0  0  0
  139.1520   78.5820  222.9890 C   0  0  1  0  0  0  0  0  0  0  0  0
  140.4150   79.3600  222.9520 C   0  0  0  0  0  0  0  0  0  0  0  0
  141.4590   79.0440  223.8200 C   0  0  0  0  0  0  0  0  0  0  0  0
  142.6520   79.7660  223.7970 C   0  0  0  0  0  0  0  0  0  0  0  0
  142.8140   80.8130  222.9070 C   0  0  0  0  0  0  0  0  0  0  0  0
  141.7780   81.1180  222.0560 C   0  0  0  0  0  0  0  0  0  0  0  0
  140.5770   80.4190  222.0520 C   0  0  0  0  0  0  0  0  0  0  0  0
  138.0170   79.4170  223.4910 C   0  0  0  0  0  0  0  0  0  0  0  0
  138.2200   80.4790  224.3550 C   0  0  0  0  0  0  0  0  0  0  0  0
  137.1550   81.2280  224.8000 C   0  0  0  0  0  0  0  0  0  0  0  0
  135.9020   80.9620  224.4170 N   0  0  0  0  0  0  0  0  0  0  0  0
  135.6790   79.9480  223.5880 C   0  0  0  0  0  0  0  0  0  0  0  0
  136.6990   79.1560  223.1040 C   0  0  0  0  0  0  0  0  0  0  0  0
  140.0110   71.1690  224.0880 C   0  0  0  0  0  0  0  0  0  0  0  0
  140.7570   71.9010  224.9900 C   0  0  0  0  0  0  0  0  0  0  0  0
  141.1330   71.3990  226.2270 C   0  0  0  0  0  0  0  0  0  0  0  0
  140.7440   70.1110  226.5670 C   0  0  0  0  0  0  0  0  0  0  0  0
  141.0930   69.5470  227.7980 C   0  0  0  0  0  0  0  0  0  0  0  0
  140.6620   68.2490  228.0610 C   0  0  0  0  0  0  0  0  0  0  0  0
  141.0120   67.7170  229.2680 F   0  0  0  0  0  0  0  0  0  0  0  0
  139.9120   67.5320  227.1390 C   0  0  0  0  0  0  0  0  0  0  0  0
  139.5840   68.1180  225.9300 C   0  0  0  0  0  0  0  0  0  0  0  0
  139.9990   69.4040  225.6450 C   0  0  0  0  0  0  0  0  0  0  0  0
  139.6400   69.9050  224.4470 N   0  0  0  0  0  0  0  0  0  0  0  0
  137.8570   72.6240  223.5950 H   0  0  0  0  0  0  0  0  0  0  0  0
  138.5853   72.6384  220.6459 H   0  0  0  0  0  0  0  0  0  0  0  0
  136.9186   72.8479  221.3543 H   0  0  0  0  0  0  0  0  0  0  0  0
  139.4110   74.0410  219.0168 H   0  0  0  0  0  0  0  0  0  0  0  0
  139.8727   75.6972  218.8732 H   0  0  0  0  0  0  0  0  0  0  0  0
  141.3516   73.4420  220.4683 H   0  0  0  0  0  0  0  0  0  0  0  0
  142.0647   74.3238  219.1682 H   0  0  0  0  0  0  0  0  0  0  0  0
  142.2994   75.2004  221.7767 H   0  0  0  0  0  0  0  0  0  0  0  0
  142.1289   76.4076  220.4970 H   0  0  0  0  0  0  0  0  0  0  0  0
  140.1545   75.8483  222.6481 H   0  0  0  0  0  0  0  0  0  0  0  0
  140.9252   77.9684  221.6238 H   0  0  0  0  0  0  0  0  0  0  0  0
  140.0320   77.4541  220.1096 H   0  0  0  0  0  0  0  0  0  0  0  0
  138.1640   77.1950  221.7880 H   0  0  0  0  0  0  0  0  0  0  0  0
  139.2898   77.7578  223.7043 H   0  0  0  0  0  0  0  0  0  0  0  0
  141.3403   78.2143  224.5324 H   0  0  0  0  0  0  0  0  0  0  0  0
  143.4662   79.5025  224.4881 H   0  0  0  0  0  0  0  0  0  0  0  0
  143.7510   81.3887  222.8809 H   0  0  0  0  0  0  0  0  0  0  0  0
  141.9053   81.9505  221.3484 H   0  0  0  0  0  0  0  0  0  0  0  0
  139.7705   80.6925  221.3558 H   0  0  0  0  0  0  0  0  0  0  0  0
  139.2389   80.7258  224.6880 H   0  0  0  0  0  0  0  0  0  0  0  0
  137.3391   82.0664  225.4879 H   0  0  0  0  0  0  0  0  0  0  0  0
  134.6460   79.7329  223.2772 H   0  0  0  0  0  0  0  0  0  0  0  0
  136.4773   78.3249  222.4184 H   0  0  0  0  0  0  0  0  0  0  0  0
  141.0649   72.9212  224.7172 H   0  0  0  0  0  0  0  0  0  0  0  0
  141.7269   72.0088  226.9238 H   0  0  0  0  0  0  0  0  0  0  0  0
  141.6875   70.1091  228.5333 H   0  0  0  0  0  0  0  0  0  0  0  0
  139.5818   66.5079  227.3677 H   0  0  0  0  0  0  0  0  0  0  0  0
  138.9904   67.5577  225.1926 H   0  0  0  0  0  0  0  0  0  0  0  0
  1  2  2  0
  2  3  1  0
  3  4  1  0
  4  5  1  0
  5  6  2  0
  5  7  1  0
  7  8  1  0
  8  9  1  0
  9 10  1  0
 10 11  1  0
 11 12  1  0
 12 13  1  0
 13 14  1  0
 14 15  1  0
 15 16  2  0
 16 17  1  0
 17 18  2  0
 18 19  1  0
 19 20  2  0
 14 21  1  0
 21 22  2  0
 22 23  1  0
 23 24  2  0
 24 25  1  0
 25 26  2  0
  2 27  1  0
 27 28  2  0
 28 29  1  0
 29 30  2  0
 30 31  1  0
 31 32  2  0
 32 33  1  0
 32 34  1  0
 34 35  2  0
 35 36  1  0
 36 37  2  0
 11  7  1  0
 20 15  1  0
 26 21  1  0
 37 27  1  0
 36 30  1  0
  3 38  1  0
  4 39  1  0
  4 40  1  0
  8 41  1  0
  8 42  1  0
  9 43  1  0
  9 44  1  0
 10 45  1  0
 10 46  1  0
 11 47  1  1
 12 48  1  0
 12 49  1  0
 13 50  1  0
 14 51  1  1
 16 52  1  0
 17 53  1  0
 18 54  1  0
 19 55  1  0
 20 56  1  0
 22 57  1  0
 23 58  1  0
 25 59  1  0
 26 60  1  0
 28 61  1  0
 29 62  1  0
 31 63  1  0
 34 64  1  0
 35 65  1  0
M  END
>  <smiles>  (66) 
O=C(NCC(=O)N1CCC[C@H]1CNC(c1ccccc1)c1ccncc1)c1ccc2cc(F)ccc2n1

>  <score_type>  (66) 
oracle

>  <origin>  (66) 
autodockgpu

>  <m_score__min__energy>  (66) 
-9.4299999999999997

>  <m_primary>  (66) 
energy

>  <rmsd>  (66) 
3.2521144592031854

>  <m_score__min__rmsd>  (66) 
3.2521144592031854

>  <meeko>  (66) 
{"free_energy": -8.85, "intermolecular_energy": -11.54, "internal_energy": -3.01, "cluster_size": 6, "cluster_id": 2, "rank_in_cluster": 3}

>  <energy>  (66) 
-8.51

>  <cluster_rmsd>  (66) 
0.99

>  <cluster>  (66) 
1

$$$$

     RDKit          3D

 65 69  0  0  1  0  0  0  0  0999 V2000
  138.8950   70.5570  221.4120 O   0  0  0  0  0  0  0  0  0  0  0  0
  139.2020   71.1040  222.5050 C   0  0  0  0  0  0  0  0  0  0  0  0
  139.3240   72.5170  222.5750 N   0  0  0  0  0  0  0  0  0  0  0  0
  139.1010   73.3440  221.4100 C   0  0  0  0  0  0  0  0  0  0  0  0
  138.9960   74.7910  221.7360 C   0  0  0  0  0  0  0  0  0  0  0  0
  139.6140   75.3080  222.6980 O   0  0  0  0  0  0  0  0  0  0  0  0
  138.1640   75.5830  220.9130 N   0  0  0  0  0  0  0  0  0  0  0  0
  136.8130   76.0930  221.1970 C   0  0  0  0  0  0  0  0  0  0  0  0
  136.1050   75.6190  219.9290 C   0  0  0  0  0  0  0  0  0  0  0  0
  137.1130   76.1130  218.8920 C   0  0  0  0  0  0  0  0  0  0  0  0
  138.4680   76.0720  219.5920 C   0  0  1  0  0  0  0  0  0  0  0  0
  138.9780   77.4880  219.5790 C   0  0  0  0  0  0  0  0  0  0  0  0
  139.5070   77.9340  220.8430 N   0  0  0  0  0  0  0  0  0  0  0  0
  140.8600   78.4020  220.6120 C   0  0  1  0  0  0  0  0  0  0  0  0
  141.4390   79.0370  221.8220 C   0  0  0  0  0  0  0  0  0  0  0  0
  141.2700   78.4470  223.0720 C   0  0  0  0  0  0  0  0  0  0  0  0
  141.8080   79.0330  224.2190 C   0  0  0  0  0  0  0  0  0  0  0  0
  142.5210   80.2160  224.1260 C   0  0  0  0  0  0  0  0  0  0  0  0
  142.6810   80.7900  222.8870 C   0  0  0  0  0  0  0  0  0  0  0  0
  142.1600   80.2340  221.7260 C   0  0  0  0  0  0  0  0  0  0  0  0
  141.7510   77.3190  220.0910 C   0  0  0  0  0  0  0  0  0  0  0  0
  141.8250   76.0790  220.7020 C   0  0  0  0  0  0  0  0  0  0  0  0
  142.6550   75.1030  220.2000 C   0  0  0  0  0  0  0  0  0  0  0  0
  143.4090   75.3150  219.1150 N   0  0  0  0  0  0  0  0  0  0  0  0
  143.3570   76.4960  218.5100 C   0  0  0  0  0  0  0  0  0  0  0  0
  142.5480   77.5180  218.9600 C   0  0  0  0  0  0  0  0  0  0  0  0
  139.4420   70.3280  223.7310 C   0  0  0  0  0  0  0  0  0  0  0  0
  139.0990   68.9930  223.8100 C   0  0  0  0  0  0  0  0  0  0  0  0
  139.3130   68.2360  224.9520 C   0  0  0  0  0  0  0  0  0  0  0  0
  139.8950   68.8470  226.0540 C   0  0  0  0  0  0  0  0  0  0  0  0
  140.1360   68.1380  227.2350 C   0  0  0  0  0  0  0  0  0  0  0  0
  140.7220   68.8250  228.2950 C   0  0  0  0  0  0  0  0  0  0  0  0
  140.9500   68.1160  229.4380 F   0  0  0  0  0  0  0  0  0  0  0  0
  141.0590   70.1680  228.1920 C   0  0  0  0  0  0  0  0  0  0  0  0
  140.8070   70.8410  227.0100 C   0  0  0  0  0  0  0  0  0  0  0  0
  140.2260   70.1820  225.9450 C   0  0  0  0  0  0  0  0  0  0  0  0
  140.0120   70.9050  224.8280 N   0  0  0  0  0  0  0  0  0  0  0  0
  139.5830   72.9600  223.5040 H   0  0  0  0  0  0  0  0  0  0  0  0
  139.9402   73.2017  220.7133 H   0  0  0  0  0  0  0  0  0  0  0  0
  138.1425   73.0363  220.9667 H   0  0  0  0  0  0  0  0  0  0  0  0
  136.3834   75.6400  222.1027 H   0  0  0  0  0  0  0  0  0  0  0  0
  136.7483   77.1724  221.3987 H   0  0  0  0  0  0  0  0  0  0  0  0
  135.9911   74.5252  219.9048 H   0  0  0  0  0  0  0  0  0  0  0  0
  135.0754   75.9834  219.7983 H   0  0  0  0  0  0  0  0  0  0  0  0
  137.1144   75.4531  218.0119 H   0  0  0  0  0  0  0  0  0  0  0  0
  136.8685   77.1237  218.5332 H   0  0  0  0  0  0  0  0  0  0  0  0
  139.2396   75.4343  219.1360 H   0  0  0  0  0  0  0  0  0  0  0  0
  139.7760   77.5609  218.8254 H   0  0  0  0  0  0  0  0  0  0  0  0
  138.1172   78.1333  219.3497 H   0  0  0  0  0  0  0  0  0  0  0  0
  139.4730   77.1240  221.4980 H   0  0  0  0  0  0  0  0  0  0  0  0
  140.7943   79.1737  219.8308 H   0  0  0  0  0  0  0  0  0  0  0  0
  140.7052   77.5069  223.1566 H   0  0  0  0  0  0  0  0  0  0  0  0
  141.6651   78.5538  225.1988 H   0  0  0  0  0  0  0  0  0  0  0  0
  142.9499   80.6862  225.0232 H   0  0  0  0  0  0  0  0  0  0  0  0
  143.2463   81.7306  222.8120 H   0  0  0  0  0  0  0  0  0  0  0  0
  142.3103   80.7230  220.7522 H   0  0  0  0  0  0  0  0  0  0  0  0
  141.2163   75.8725  221.5947 H   0  0  0  0  0  0  0  0  0  0  0  0
  142.6997   74.1255  220.7024 H   0  0  0  0  0  0  0  0  0  0  0  0
  143.9805   76.6647  217.6196 H   0  0  0  0  0  0  0  0  0  0  0  0
  142.5300   78.4832  218.4326 H   0  0  0  0  0  0  0  0  0  0  0  0
  138.6388   68.5119  222.9344 H   0  0  0  0  0  0  0  0  0  0  0  0
  139.0276   67.1741  224.9838 H   0  0  0  0  0  0  0  0  0  0  0  0
  139.8717   67.0739  227.3236 H   0  0  0  0  0  0  0  0  0  0  0  0
  141.5217   70.6915  229.0417 H   0  0  0  0  0  0  0  0  0  0  0  0
  141.0705   71.9050  226.9183 H   0  0  0  0  0  0  0  0  0  0  0  0
  1  2  2  0
  2  3  1  0
  3  4  1  0
  4  5  1  0
  5  6  2  0
  5  7  1  0
  7  8  1  0
  8  9  1  0
  9 10  1  0
 10 11  1  0
 11 12  1  0
 12 13  1  0
 13 14  1  0
 14 15  1  0
 15 16  2  0
 16 17  1  0
 17 18  2  0
 18 19  1  0
 19 20  2  0
 14 21  1  0
 21 22  2  0
 22 23  1  0
 23 24  2  0
 24 25  1  0
 25 26  2  0
  2 27  1  0
 27 28  2  0
 28 29  1  0
 29 30  2  0
 30 31  1  0
 31 32  2  0
 32 33  1  0
 32 34  1  0
 34 35  2  0
 35 36  1  0
 36 37  2  0
 11  7  1  0
 20 15  1  0
 26 21  1  0
 37 27  1  0
 36 30  1  0
  3 38  1  0
  4 39  1  0
  4 40  1  0
  8 41  1  0
  8 42  1  0
  9 43  1  0
  9 44  1  0
 10 45  1  0
 10 46  1  0
 11 47  1  6
 12 48  1  0
 12 49  1  0
 13 50  1  0
 14 51  1  6
 16 52  1  0
 17 53  1  0
 18 54  1  0
 19 55  1  0
 20 56  1  0
 22 57  1  0
 23 58  1  0
 25 59  1  0
 26 60  1  0
 28 61  1  0
 29 62  1  0
 31 63  1  0
 34 64  1  0
 35 65  1  0
M  END
>  <smiles>  (67) 
O=C(NCC(=O)N1CCC[C@H]1CNC(c1ccccc1)c1ccncc1)c1ccc2cc(F)ccc2n1

>  <score_type>  (67) 
oracle

>  <origin>  (67) 
autodockgpu

>  <m_score__min__energy>  (67) 
-9.4299999999999997

>  <m_primary>  (67) 
energy

>  <rmsd>  (67) 
3.0168690396226343

>  <m_score__min__rmsd>  (67) 
3.0168690396226343

>  <meeko>  (67) 
{"free_energy": -8.66, "intermolecular_energy": -11.35, "internal_energy": -3.63, "cluster_size": 19, "cluster_id": 1, "rank_in_cluster": 14}

>  <energy>  (67) 
-8.48

>  <cluster_rmsd>  (67) 
1.42

>  <cluster>  (67) 
1

$$$$

     RDKit          3D

 65 69  0  0  1  0  0  0  0  0999 V2000
  139.3320   70.6680  221.3060 O   0  0  0  0  0  0  0  0  0  0  0  0
  139.1400   71.3850  222.3250 C   0  0  0  0  0  0  0  0  0  0  0  0
  138.4150   72.6000  222.2030 N   0  0  0  0  0  0  0  0  0  0  0  0
  137.8900   73.0310  220.9270 C   0  0  0  0  0  0  0  0  0  0  0  0
  138.7070   74.1020  220.2940 C   0  0  0  0  0  0  0  0  0  0  0  0
  138.1980   75.1690  219.8700 O   0  0  0  0  0  0  0  0  0  0  0  0
  140.0970   73.8790  220.1830 N   0  0  0  0  0  0  0  0  0  0  0  0
  140.8470   73.3180  219.0480 C   0  0  0  0  0  0  0  0  0  0  0  0
  141.6370   72.2410  219.7890 C   0  0  0  0  0  0  0  0  0  0  0  0
  142.1560   73.0830  220.9550 C   0  0  0  0  0  0  0  0  0  0  0  0
  141.0990   74.1590  221.1800 C   0  0  1  0  0  0  0  0  0  0  0  0
  141.8020   75.4730  220.9700 C   0  0  0  0  0  0  0  0  0  0  0  0
  140.9150   76.6000  220.8280 N   0  0  0  0  0  0  0  0  0  0  0  0
  140.6390   77.1110  222.1560 C   0  0  1  0  0  0  0  0  0  0  0  0
  141.3070   78.4150  222.3960 C   0  0  0  0  0  0  0  0  0  0  0  0
  141.5580   79.2790  221.3320 C   0  0  0  0  0  0  0  0  0  0  0  0
  142.1860   80.5080  221.5420 C   0  0  0  0  0  0  0  0  0  0  0  0
  142.5700   80.8840  222.8170 C   0  0  0  0  0  0  0  0  0  0  0  0
  142.3190   80.0230  223.8590 C   0  0  0  0  0  0  0  0  0  0  0  0
  141.6960   78.7940  223.6860 C   0  0  0  0  0  0  0  0  0  0  0  0
  139.1720   77.1960  222.4370 C   0  0  0  0  0  0  0  0  0  0  0  0
  138.4930   78.4030  222.4060 C   0  0  0  0  0  0  0  0  0  0  0  0
  137.1440   78.4490  222.6690 C   0  0  0  0  0  0  0  0  0  0  0  0
  136.4480   77.3440  222.9590 N   0  0  0  0  0  0  0  0  0  0  0  0
  137.0750   76.1730  222.9950 C   0  0  0  0  0  0  0  0  0  0  0  0
  138.4250   76.0550  222.7420 C   0  0  0  0  0  0  0  0  0  0  0  0
  139.6420   71.0110  223.6550 C   0  0  0  0  0  0  0  0  0  0  0  0
  140.3790   71.8960  224.4150 C   0  0  0  0  0  0  0  0  0  0  0  0
  140.8660   71.5730  225.6720 C   0  0  0  0  0  0  0  0  0  0  0  0
  140.6020   70.3090  226.1820 C   0  0  0  0  0  0  0  0  0  0  0  0
  141.0660   69.9220  227.4430 C   0  0  0  0  0  0  0  0  0  0  0  0
  140.7570   68.6370  227.8800 C   0  0  0  0  0  0  0  0  0  0  0  0
  141.2180   68.2780  229.1130 F   0  0  0  0  0  0  0  0  0  0  0  0
  140.0140   67.7630  227.0980 C   0  0  0  0  0  0  0  0  0  0  0  0
  139.5700   68.1760  225.8560 C   0  0  0  0  0  0  0  0  0  0  0  0
  139.8630   69.4460  225.3990 C   0  0  0  0  0  0  0  0  0  0  0  0
  139.3960   69.7750  224.1790 N   0  0  0  0  0  0  0  0  0  0  0  0
  138.2630   73.1920  223.0710 H   0  0  0  0  0  0  0  0  0  0  0  0
  137.8613   72.1651  220.2492 H   0  0  0  0  0  0  0  0  0  0  0  0
  136.8869   73.4451  221.1067 H   0  0  0  0  0  0  0  0  0  0  0  0
  140.1804   72.8888  218.2855 H   0  0  0  0  0  0  0  0  0  0  0  0
  141.4517   74.0395  218.4789 H   0  0  0  0  0  0  0  0  0  0  0  0
  140.9920   71.4178  220.1300 H   0  0  0  0  0  0  0  0  0  0  0  0
  142.4087   71.7286  219.1958 H   0  0  0  0  0  0  0  0  0  0  0  0
  142.2716   72.4627  221.8561 H   0  0  0  0  0  0  0  0  0  0  0  0
  143.1427   73.5181  220.7379 H   0  0  0  0  0  0  0  0  0  0  0  0
  140.6273   74.1862  222.1733 H   0  0  0  0  0  0  0  0  0  0  0  0
  142.4571   75.6561  221.8345 H   0  0  0  0  0  0  0  0  0  0  0  0
  142.3585   75.3870  220.0251 H   0  0  0  0  0  0  0  0  0  0  0  0
  140.0550   76.2590  220.3470 H   0  0  0  0  0  0  0  0  0  0  0  0
  141.0637   76.3837  222.8636 H   0  0  0  0  0  0  0  0  0  0  0  0
  141.2577   78.9892  220.3143 H   0  0  0  0  0  0  0  0  0  0  0  0
  142.3761   81.1793  220.6916 H   0  0  0  0  0  0  0  0  0  0  0  0
  143.0651   81.8504  222.9930 H   0  0  0  0  0  0  0  0  0  0  0  0
  142.6247   80.3203  224.8730 H   0  0  0  0  0  0  0  0  0  0  0  0
  141.5120   78.1320  224.5450 H   0  0  0  0  0  0  0  0  0  0  0  0
  139.0360   79.3300  222.1697 H   0  0  0  0  0  0  0  0  0  0  0  0
  136.6245   79.4182  222.6402 H   0  0  0  0  0  0  0  0  0  0  0  0
  136.4977   75.2678  223.2346 H   0  0  0  0  0  0  0  0  0  0  0  0
  138.9111   75.0690  222.7800 H   0  0  0  0  0  0  0  0  0  0  0  0
  140.5881   72.8962  224.0077 H   0  0  0  0  0  0  0  0  0  0  0  0
  141.4492   72.3026  226.2530 H   0  0  0  0  0  0  0  0  0  0  0  0
  141.6549   70.6093  228.0681 H   0  0  0  0  0  0  0  0  0  0  0  0
  139.7810   66.7519  227.4632 H   0  0  0  0  0  0  0  0  0  0  0  0
  138.9810   67.4905  225.2290 H   0  0  0  0  0  0  0  0  0  0  0  0
  1  2  2  0
  2  3  1  0
  3  4  1  0
  4  5  1  0
  5  6  2  0
  5  7  1  0
  7  8  1  0
  8  9  1  0
  9 10  1  0
 10 11  1  0
 11 12  1  0
 12 13  1  0
 13 14  1  0
 14 15  1  0
 15 16  2  0
 16 17  1  0
 17 18  2  0
 18 19  1  0
 19 20  2  0
 14 21  1  0
 21 22  2  0
 22 23  1  0
 23 24  2  0
 24 25  1  0
 25 26  2  0
  2 27  1  0
 27 28  2  0
 28 29  1  0
 29 30  2  0
 30 31  1  0
 31 32  2  0
 32 33  1  0
 32 34  1  0
 34 35  2  0
 35 36  1  0
 36 37  2  0
 11  7  1  0
 20 15  1  0
 26 21  1  0
 37 27  1  0
 36 30  1  0
  3 38  1  0
  4 39  1  0
  4 40  1  0
  8 41  1  0
  8 42  1  0
  9 43  1  0
  9 44  1  0
 10 45  1  0
 10 46  1  0
 11 47  1  1
 12 48  1  0
 12 49  1  0
 13 50  1  0
 14 51  1  1
 16 52  1  0
 17 53  1  0
 18 54  1  0
 19 55  1  0
 20 56  1  0
 22 57  1  0
 23 58  1  0
 25 59  1  0
 26 60  1  0
 28 61  1  0
 29 62  1  0
 31 63  1  0
 34 64  1  0
 35 65  1  0
M  END
>  <smiles>  (68) 
O=C(NCC(=O)N1CCC[C@H]1CNC(c1ccccc1)c1ccncc1)c1ccc2cc(F)ccc2n1

>  <score_type>  (68) 
oracle

>  <origin>  (68) 
autodockgpu

>  <m_score__min__energy>  (68) 
-9.4299999999999997

>  <m_primary>  (68) 
energy

>  <rmsd>  (68) 
3.308817384111698

>  <m_score__min__rmsd>  (68) 
3.308817384111698

>  <meeko>  (68) 
{"free_energy": -8.74, "intermolecular_energy": -11.42, "internal_energy": -3.61, "cluster_size": 6, "cluster_id": 2, "rank_in_cluster": 4}

>  <energy>  (68) 
-8.46

>  <cluster_rmsd>  (68) 
1.35

>  <cluster>  (68) 
1

$$$$

     RDKit          3D

 65 69  0  0  1  0  0  0  0  0999 V2000
  138.3790   70.4520  221.4900 O   0  0  0  0  0  0  0  0  0  0  0  0
  138.5380   71.2840  222.4220 C   0  0  0  0  0  0  0  0  0  0  0  0
  138.0670   72.6150  222.2650 N   0  0  0  0  0  0  0  0  0  0  0  0
  137.4040   73.0330  221.0500 C   0  0  0  0  0  0  0  0  0  0  0  0
  138.2850   73.8260  220.1500 C   0  0  0  0  0  0  0  0  0  0  0  0
  137.8330   74.7030  219.3740 O   0  0  0  0  0  0  0  0  0  0  0  0
  139.6710   73.5580  220.1970 N   0  0  0  0  0  0  0  0  0  0  0  0
  140.5330   73.0040  219.1410 C   0  0  0  0  0  0  0  0  0  0  0  0
  141.1960   71.8800  219.9350 C   0  0  0  0  0  0  0  0  0  0  0  0
  141.5980   72.6690  221.1800 C   0  0  0  0  0  0  0  0  0  0  0  0
  140.5560   73.7750  221.3140 C   0  0  1  0  0  0  0  0  0  0  0  0
  141.3190   75.0700  221.2310 C   0  0  0  0  0  0  0  0  0  0  0  0
  141.1040   75.9530  222.3490 N   0  0  0  0  0  0  0  0  0  0  0  0
  140.4340   77.1380  221.8490 C   0  0  1  0  0  0  0  0  0  0  0  0
  139.0110   77.1860  222.2660 C   0  0  0  0  0  0  0  0  0  0  0  0
  138.3570   76.0200  222.6600 C   0  0  0  0  0  0  0  0  0  0  0  0
  137.0190   76.0490  223.0550 C   0  0  0  0  0  0  0  0  0  0  0  0
  136.3210   77.2430  223.0590 C   0  0  0  0  0  0  0  0  0  0  0  0
  136.9750   78.3870  222.6680 C   0  0  0  0  0  0  0  0  0  0  0  0
  138.3060   78.3950  222.2700 C   0  0  0  0  0  0  0  0  0  0  0  0
  141.1510   78.3950  222.2280 C   0  0  0  0  0  0  0  0  0  0  0  0
  141.4910   79.3530  221.2870 C   0  0  0  0  0  0  0  0  0  0  0  0
  142.1510   80.4980  221.6670 C   0  0  0  0  0  0  0  0  0  0  0  0
  142.4830   80.7260  222.9420 N   0  0  0  0  0  0  0  0  0  0  0  0
  142.1690   79.8240  223.8650 C   0  0  0  0  0  0  0  0  0  0  0  0
  141.5080   78.6540  223.5550 C   0  0  0  0  0  0  0  0  0  0  0  0
  139.2010   70.9310  223.6860 C   0  0  0  0  0  0  0  0  0  0  0  0
  140.0890   71.7970  224.2920 C   0  0  0  0  0  0  0  0  0  0  0  0
  140.7300   71.4930  225.4830 C   0  0  0  0  0  0  0  0  0  0  0  0
  140.4660   70.2700  226.0860 C   0  0  0  0  0  0  0  0  0  0  0  0
  141.0810   69.9040  227.2870 C   0  0  0  0  0  0  0  0  0  0  0  0
  140.7620   68.6600  227.8250 C   0  0  0  0  0  0  0  0  0  0  0  0
  141.3710   68.3210  228.9980 F   0  0  0  0  0  0  0  0  0  0  0  0
  139.8650   67.8060  227.1980 C   0  0  0  0  0  0  0  0  0  0  0  0
  139.2740   68.1970  226.0100 C   0  0  0  0  0  0  0  0  0  0  0  0
  139.5740   69.4260  225.4560 C   0  0  0  0  0  0  0  0  0  0  0  0
  138.9590   69.7360  224.2990 N   0  0  0  0  0  0  0  0  0  0  0  0
  138.2100   73.3030  223.0600 H   0  0  0  0  0  0  0  0  0  0  0  0
  137.0659   72.1368  220.5091 H   0  0  0  0  0  0  0  0  0  0  0  0
  136.5626   73.6795  221.3400 H   0  0  0  0  0  0  0  0  0  0  0  0
  139.9489   72.6196  218.2918 H   0  0  0  0  0  0  0  0  0  0  0  0
  141.2229   73.7202  218.6707 H   0  0  0  0  0  0  0  0  0  0  0  0
  140.4901   71.0699  220.1706 H   0  0  0  0  0  0  0  0  0  0  0  0
  142.0169   71.3589  219.4206 H   0  0  0  0  0  0  0  0  0  0  0  0
  141.5858   72.0194  222.0676 H   0  0  0  0  0  0  0  0  0  0  0  0
  142.6166   73.0754  221.0950 H   0  0  0  0  0  0  0  0  0  0  0  0
  139.9713   73.7905  222.2456 H   0  0  0  0  0  0  0  0  0  0  0  0
  142.3924   74.8355  221.1776 H   0  0  0  0  0  0  0  0  0  0  0  0
  140.9537   75.5962  220.3368 H   0  0  0  0  0  0  0  0  0  0  0  0
  142.0380   76.1670  222.7590 H   0  0  0  0  0  0  0  0  0  0  0  0
  140.4563   77.0687  220.7514 H   0  0  0  0  0  0  0  0  0  0  0  0
  138.9025   75.0648  222.6596 H   0  0  0  0  0  0  0  0  0  0  0  0
  136.5180   75.1197  223.3640 H   0  0  0  0  0  0  0  0  0  0  0  0
  135.2659   77.2764  223.3682 H   0  0  0  0  0  0  0  0  0  0  0  0
  136.4206   79.3371  222.6703 H   0  0  0  0  0  0  0  0  0  0  0  0
  138.7953   79.3316  221.9645 H   0  0  0  0  0  0  0  0  0  0  0  0
  141.2315   79.1969  220.2295 H   0  0  0  0  0  0  0  0  0  0  0  0
  142.4123   81.2450  220.9030 H   0  0  0  0  0  0  0  0  0  0  0  0
  142.4455   80.0167  224.9121 H   0  0  0  0  0  0  0  0  0  0  0  0
  141.2633   77.9297  224.3459 H   0  0  0  0  0  0  0  0  0  0  0  0
  140.2958   72.7648  223.8117 H   0  0  0  0  0  0  0  0  0  0  0  0
  141.4326   72.2050  225.9406 H   0  0  0  0  0  0  0  0  0  0  0  0
  141.7924   70.5757  227.7897 H   0  0  0  0  0  0  0  0  0  0  0  0
  139.6265   66.8280  227.6415 H   0  0  0  0  0  0  0  0  0  0  0  0
  138.5628   67.5269  225.5049 H   0  0  0  0  0  0  0  0  0  0  0  0
  1  2  2  0
  2  3  1  0
  3  4  1  0
  4  5  1  0
  5  6  2  0
  5  7  1  0
  7  8  1  0
  8  9  1  0
  9 10  1  0
 10 11  1  0
 11 12  1  0
 12 13  1  0
 13 14  1  0
 14 15  1  0
 15 16  2  0
 16 17  1  0
 17 18  2  0
 18 19  1  0
 19 20  2  0
 14 21  1  0
 21 22  2  0
 22 23  1  0
 23 24  2  0
 24 25  1  0
 25 26  2  0
  2 27  1  0
 27 28  2  0
 28 29  1  0
 29 30  2  0
 30 31  1  0
 31 32  2  0
 32 33  1  0
 32 34  1  0
 34 35  2  0
 35 36  1  0
 36 37  2  0
 11  7  1  0
 20 15  1  0
 26 21  1  0
 37 27  1  0
 36 30  1  0
  3 38  1  0
  4 39  1  0
  4 40  1  0
  8 41  1  0
  8 42  1  0
  9 43  1  0
  9 44  1  0
 10 45  1  0
 10 46  1  0
 11 47  1  1
 12 48  1  0
 12 49  1  0
 13 50  1  0
 14 51  1  6
 16 52  1  0
 17 53  1  0
 18 54  1  0
 19 55  1  0
 20 56  1  0
 22 57  1  0
 23 58  1  0
 25 59  1  0
 26 60  1  0
 28 61  1  0
 29 62  1  0
 31 63  1  0
 34 64  1  0
 35 65  1  0
M  END
>  <smiles>  (69) 
O=C(NCC(=O)N1CCC[C@H]1CNC(c1ccccc1)c1ccncc1)c1ccc2cc(F)ccc2n1

>  <score_type>  (69) 
oracle

>  <origin>  (69) 
autodockgpu

>  <m_score__min__energy>  (69) 
-9.4299999999999997

>  <m_primary>  (69) 
energy

>  <rmsd>  (69) 
3.9151763929923735

>  <m_score__min__rmsd>  (69) 
3.9151763929923735

>  <meeko>  (69) 
{"free_energy": -9.05, "intermolecular_energy": -11.74, "internal_energy": -3.0, "cluster_size": 6, "cluster_id": 2, "rank_in_cluster": 1}

>  <energy>  (69) 
-8.42

>  <cluster_rmsd>  (69) 
1.42

>  <cluster>  (69) 
1

$$$$

     RDKit          3D

 65 69  0  0  1  0  0  0  0  0999 V2000
  139.9770   74.1360  221.9710 O   0  0  0  0  0  0  0  0  0  0  0  0
  140.3870   75.2880  221.6650 C   0  0  0  0  0  0  0  0  0  0  0  0
  141.6850   75.4480  221.1090 N   0  0  0  0  0  0  0  0  0  0  0  0
  142.5460   74.3080  220.8860 C   0  0  0  0  0  0  0  0  0  0  0  0
  143.5260   74.5250  219.7880 C   0  0  0  0  0  0  0  0  0  0  0  0
  144.7260   74.1680  219.8810 O   0  0  0  0  0  0  0  0  0  0  0  0
  143.0570   75.1560  218.6140 N   0  0  0  0  0  0  0  0  0  0  0  0
  142.1610   74.6160  217.5790 C   0  0  0  0  0  0  0  0  0  0  0  0
  143.0010   74.9340  216.3430 C   0  0  0  0  0  0  0  0  0  0  0  0
  143.3370   76.3930  216.6480 C   0  0  0  0  0  0  0  0  0  0  0  0
  143.3630   76.4930  218.1710 C   0  0  1  0  0  0  0  0  0  0  0  0
  142.3050   77.5010  218.5320 C   0  0  0  0  0  0  0  0  0  0  0  0
  142.2200   77.7840  219.9420 N   0  0  0  0  0  0  0  0  0  0  0  0
  141.3920   78.9650  220.1030 C   0  0  1  0  0  0  0  0  0  0  0  0
  141.7420   79.7210  221.3310 C   0  0  0  0  0  0  0  0  0  0  0  0
  141.3160   81.0380  221.4890 C   0  0  0  0  0  0  0  0  0  0  0  0
  141.6370   81.7620  222.6380 C   0  0  0  0  0  0  0  0  0  0  0  0
  142.3890   81.1760  223.6410 C   0  0  0  0  0  0  0  0  0  0  0  0
  142.8050   79.8760  223.4760 C   0  0  0  0  0  0  0  0  0  0  0  0
  142.5030   79.1270  222.3450 C   0  0  0  0  0  0  0  0  0  0  0  0
  141.4260   79.8480  218.8970 C   0  0  0  0  0  0  0  0  0  0  0  0
  142.5640   80.5520  218.5400 C   0  0  0  0  0  0  0  0  0  0  0  0
  142.5630   81.3570  217.4250 C   0  0  0  0  0  0  0  0  0  0  0  0
  141.4780   81.4850  216.6530 N   0  0  0  0  0  0  0  0  0  0  0  0
  140.3730   80.8210  216.9720 C   0  0  0  0  0  0  0  0  0  0  0  0
  140.3040   79.9970  218.0760 C   0  0  0  0  0  0  0  0  0  0  0  0
  139.5670   76.4920  221.8610 C   0  0  0  0  0  0  0  0  0  0  0  0
  138.4500   76.7300  221.0870 C   0  0  0  0  0  0  0  0  0  0  0  0
  137.6570   77.8560  221.2480 C   0  0  0  0  0  0  0  0  0  0  0  0
  138.0040   78.7770  222.2270 C   0  0  0  0  0  0  0  0  0  0  0  0
  137.2460   79.9330  222.4390 C   0  0  0  0  0  0  0  0  0  0  0  0
  137.6630   80.8060  223.4410 C   0  0  0  0  0  0  0  0  0  0  0  0
  136.9100   81.9270  223.6330 F   0  0  0  0  0  0  0  0  0  0  0  0
  138.7900   80.5450  224.2080 C   0  0  0  0  0  0  0  0  0  0  0  0
  139.5190   79.3940  223.9730 C   0  0  0  0  0  0  0  0  0  0  0  0
  139.1260   78.5120  222.9850 C   0  0  0  0  0  0  0  0  0  0  0  0
  139.8870   77.4130  222.8170 N   0  0  0  0  0  0  0  0  0  0  0  0
  142.0140   76.4240  220.8570 H   0  0  0  0  0  0  0  0  0  0  0  0
  143.0994   74.1001  221.8136 H   0  0  0  0  0  0  0  0  0  0  0  0
  141.9046   73.4640  220.5922 H   0  0  0  0  0  0  0  0  0  0  0  0
  141.9971   73.5349  217.6989 H   0  0  0  0  0  0  0  0  0  0  0  0
  141.1410   75.0279  217.5756 H   0  0  0  0  0  0  0  0  0  0  0  0
  143.9029   74.3069  216.2853 H   0  0  0  0  0  0  0  0  0  0  0  0
  142.5059   74.7555  215.3771 H   0  0  0  0  0  0  0  0  0  0  0  0
  144.3186   76.6578  216.2281 H   0  0  0  0  0  0  0  0  0  0  0  0
  142.6036   77.0829  216.2051 H   0  0  0  0  0  0  0  0  0  0  0  0
  144.3083   76.8210  218.6279 H   0  0  0  0  0  0  0  0  0  0  0  0
  142.5276   78.4399  218.0039 H   0  0  0  0  0  0  0  0  0  0  0  0
  141.3385   77.0667  218.2364 H   0  0  0  0  0  0  0  0  0  0  0  0
  143.1920   77.9300  220.2890 H   0  0  0  0  0  0  0  0  0  0  0  0
  140.3577   78.6078  220.2153 H   0  0  0  0  0  0  0  0  0  0  0  0
  140.7185   81.5136  220.6973 H   0  0  0  0  0  0  0  0  0  0  0  0
  141.2915   82.8007  222.7466 H   0  0  0  0  0  0  0  0  0  0  0  0
  142.6483   81.7380  224.5504 H   0  0  0  0  0  0  0  0  0  0  0  0
  143.4022   79.4089  224.2730 H   0  0  0  0  0  0  0  0  0  0  0  0
  142.8545   78.0892  222.2485 H   0  0  0  0  0  0  0  0  0  0  0  0
  143.4741   80.4667  219.1519 H   0  0  0  0  0  0  0  0  0  0  0  0
  143.4770   81.9093  217.1614 H   0  0  0  0  0  0  0  0  0  0  0  0
  139.4833   80.9318  216.3347 H   0  0  0  0  0  0  0  0  0  0  0  0
  139.3724   79.4606  218.3090 H   0  0  0  0  0  0  0  0  0  0  0  0
  138.1780   75.9981  220.3122 H   0  0  0  0  0  0  0  0  0  0  0  0
  136.7725   78.0159  220.6140 H   0  0  0  0  0  0  0  0  0  0  0  0
  136.3514   80.1455  221.8353 H   0  0  0  0  0  0  0  0  0  0  0  0
  139.1003   81.2475  224.9956 H   0  0  0  0  0  0  0  0  0  0  0  0
  140.4147   79.1799  224.5746 H   0  0  0  0  0  0  0  0  0  0  0  0
  1  2  2  0
  2  3  1  0
  3  4  1  0
  4  5  1  0
  5  6  2  0
  5  7  1  0
  7  8  1  0
  8  9  1  0
  9 10  1  0
 10 11  1  0
 11 12  1  0
 12 13  1  0
 13 14  1  0
 14 15  1  0
 15 16  2  0
 16 17  1  0
 17 18  2  0
 18 19  1  0
 19 20  2  0
 14 21  1  0
 21 22  2  0
 22 23  1  0
 23 24  2  0
 24 25  1  0
 25 26  2  0
  2 27  1  0
 27 28  2  0
 28 29  1  0
 29 30  2  0
 30 31  1  0
 31 32  2  0
 32 33  1  0
 32 34  1  0
 34 35  2  0
 35 36  1  0
 36 37  2  0
 11  7  1  0
 20 15  1  0
 26 21  1  0
 37 27  1  0
 36 30  1  0
  3 38  1  0
  4 39  1  0
  4 40  1  0
  8 41  1  0
  8 42  1  0
  9 43  1  0
  9 44  1  0
 10 45  1  0
 10 46  1  0
 11 47  1  6
 12 48  1  0
 12 49  1  0
 13 50  1  0
 14 51  1  1
 16 52  1  0
 17 53  1  0
 18 54  1  0
 19 55  1  0
 20 56  1  0
 22 57  1  0
 23 58  1  0
 25 59  1  0
 26 60  1  0
 28 61  1  0
 29 62  1  0
 31 63  1  0
 34 64  1  0
 35 65  1  0
M  END
>  <smiles>  (70) 
O=C(NCC(=O)N1CCC[C@H]1CNC(c1ccccc1)c1ccncc1)c1ccc2cc(F)ccc2n1

>  <score_type>  (70) 
oracle

>  <origin>  (70) 
autodockgpu

>  <m_score__min__energy>  (70) 
-9.4299999999999997

>  <m_primary>  (70) 
energy

>  <rmsd>  (70) 
6.572715020074043

>  <m_score__min__rmsd>  (70) 
6.572715020074043

>  <meeko>  (70) 
{"free_energy": -7.43, "intermolecular_energy": -10.11, "internal_energy": -4.65, "cluster_size": 5, "cluster_id": 6, "rank_in_cluster": 2}

>  <energy>  (70) 
-9.05

>  <cluster_rmsd>  (70) 
0.0

>  <cluster>  (70) 
2

$$$$

     RDKit          3D

 65 69  0  0  1  0  0  0  0  0999 V2000
  140.3080   73.4600  222.3880 O   0  0  0  0  0  0  0  0  0  0  0  0
  139.5440   72.4660  222.5150 C   0  0  0  0  0  0  0  0  0  0  0  0
  138.4980   72.2580  221.5760 N   0  0  0  0  0  0  0  0  0  0  0  0
  138.2940   73.1690  220.4720 C   0  0  0  0  0  0  0  0  0  0  0  0
  137.0900   74.0260  220.6400 C   0  0  0  0  0  0  0  0  0  0  0  0
  135.9560   73.6740  220.2290 O   0  0  0  0  0  0  0  0  0  0  0  0
  137.2610   75.2680  221.2890 N   0  0  0  0  0  0  0  0  0  0  0  0
  137.0720   75.5930  222.7110 C   0  0  0  0  0  0  0  0  0  0  0  0
  136.1570   76.8080  222.5620 C   0  0  0  0  0  0  0  0  0  0  0  0
  136.9480   77.5770  221.5040 C   0  0  0  0  0  0  0  0  0  0  0  0
  137.6670   76.5120  220.6810 C   0  0  1  0  0  0  0  0  0  0  0  0
  139.1360   76.8000  220.8310 C   0  0  0  0  0  0  0  0  0  0  0  0
  139.6570   76.5310  222.1470 N   0  0  0  0  0  0  0  0  0  0  0  0
  141.0140   77.0410  222.1950 C   0  0  1  0  0  0  0  0  0  0  0  0
  141.6840   76.9530  220.8730 C   0  0  0  0  0  0  0  0  0  0  0  0
  141.8230   78.0900  220.0800 C   0  0  0  0  0  0  0  0  0  0  0  0
  142.4500   78.0220  218.8350 C   0  0  0  0  0  0  0  0  0  0  0  0
  142.9440   76.8160  218.3700 C   0  0  0  0  0  0  0  0  0  0  0  0
  142.8010   75.7000  219.1600 C   0  0  0  0  0  0  0  0  0  0  0  0
  142.1830   75.7320  220.4040 C   0  0  0  0  0  0  0  0  0  0  0  0
  141.0770   78.4320  222.7400 C   0  0  0  0  0  0  0  0  0  0  0  0
  142.2810   79.0360  223.0600 C   0  0  0  0  0  0  0  0  0  0  0  0
  142.3060   80.3170  223.5610 C   0  0  0  0  0  0  0  0  0  0  0  0
  141.1830   81.0170  223.7540 N   0  0  0  0  0  0  0  0  0  0  0  0
  140.0130   80.4610  223.4550 C   0  0  0  0  0  0  0  0  0  0  0  0
  139.9150   79.1820  222.9500 C   0  0  0  0  0  0  0  0  0  0  0  0
  139.6910   71.4960  223.6100 C   0  0  0  0  0  0  0  0  0  0  0  0
  139.3020   70.1810  223.4570 C   0  0  0  0  0  0  0  0  0  0  0  0
  139.4280   69.2440  224.4710 C   0  0  0  0  0  0  0  0  0  0  0  0
  139.9660   69.6480  225.6860 C   0  0  0  0  0  0  0  0  0  0  0  0
  140.1180   68.7510  226.7480 C   0  0  0  0  0  0  0  0  0  0  0  0
  140.6660   69.2380  227.9320 C   0  0  0  0  0  0  0  0  0  0  0  0
  140.8070   68.3480  228.9560 F   0  0  0  0  0  0  0  0  0  0  0  0
  141.0500   70.5650  228.0630 C   0  0  0  0  0  0  0  0  0  0  0  0
  140.8860   71.4270  226.9940 C   0  0  0  0  0  0  0  0  0  0  0  0
  140.3450   70.9690  225.8090 C   0  0  0  0  0  0  0  0  0  0  0  0
  140.2170   71.8680  224.8130 N   0  0  0  0  0  0  0  0  0  0  0  0
  137.8640   71.4160  221.6980 H   0  0  0  0  0  0  0  0  0  0  0  0
  139.1774   73.8188  220.3860 H   0  0  0  0  0  0  0  0  0  0  0  0
  138.1415   72.5612  219.5680 H   0  0  0  0  0  0  0  0  0  0  0  0
  136.5835   74.7741  223.2594 H   0  0  0  0  0  0  0  0  0  0  0  0
  137.9959   75.7652  223.2826 H   0  0  0  0  0  0  0  0  0  0  0  0
  135.1550   76.5280  222.2048 H   0  0  0  0  0  0  0  0  0  0  0  0
  135.9496   77.3599  223.4906 H   0  0  0  0  0  0  0  0  0  0  0  0
  136.2694   78.1627  220.8665 H   0  0  0  0  0  0  0  0  0  0  0  0
  137.6537   78.2883  221.9580 H   0  0  0  0  0  0  0  0  0  0  0  0
  137.4399   76.4844  219.6051 H   0  0  0  0  0  0  0  0  0  0  0  0
  139.6853   76.1787  220.1084 H   0  0  0  0  0  0  0  0  0  0  0  0
  139.2678   77.8773  220.6519 H   0  0  0  0  0  0  0  0  0  0  0  0
  139.6150   75.5000  222.2930 H   0  0  0  0  0  0  0  0  0  0  0  0
  141.5655   76.3932  222.8923 H   0  0  0  0  0  0  0  0  0  0  0  0
  141.4335   79.0538  220.4398 H   0  0  0  0  0  0  0  0  0  0  0  0
  142.5517   78.9295  218.2218 H   0  0  0  0  0  0  0  0  0  0  0  0
  143.4400   76.7517  217.3903 H   0  0  0  0  0  0  0  0  0  0  0  0
  143.1927   74.7405  218.7914 H   0  0  0  0  0  0  0  0  0  0  0  0
  142.0878   74.8173  221.0076 H   0  0  0  0  0  0  0  0  0  0  0  0
  143.2235   78.4882  222.9127 H   0  0  0  0  0  0  0  0  0  0  0  0
  143.2739   80.7770  223.8091 H   0  0  0  0  0  0  0  0  0  0  0  0
  139.0923   81.0409  223.6160 H   0  0  0  0  0  0  0  0  0  0  0  0
  138.9296   78.7540  222.7137 H   0  0  0  0  0  0  0  0  0  0  0  0
  138.8757   69.8641  222.4938 H   0  0  0  0  0  0  0  0  0  0  0  0
  139.1087   68.2028  224.3165 H   0  0  0  0  0  0  0  0  0  0  0  0
  139.8154   67.6979  226.6515 H   0  0  0  0  0  0  0  0  0  0  0  0
  141.4807   70.9278  229.0079 H   0  0  0  0  0  0  0  0  0  0  0  0
  141.1875   72.4807  227.0880 H   0  0  0  0  0  0  0  0  0  0  0  0
  1  2  2  0
  2  3  1  0
  3  4  1  0
  4  5  1  0
  5  6  2  0
  5  7  1  0
  7  8  1  0
  8  9  1  0
  9 10  1  0
 10 11  1  0
 11 12  1  0
 12 13  1  0
 13 14  1  0
 14 15  1  0
 15 16  2  0
 16 17  1  0
 17 18  2  0
 18 19  1  0
 19 20  2  0
 14 21  1  0
 21 22  2  0
 22 23  1  0
 23 24  2  0
 24 25  1  0
 25 26  2  0
  2 27  1  0
 27 28  2  0
 28 29  1  0
 29 30  2  0
 30 31  1  0
 31 32  2  0
 32 33  1  0
 32 34  1  0
 34 35  2  0
 35 36  1  0
 36 37  2  0
 11  7  1  0
 20 15  1  0
 26 21  1  0
 37 27  1  0
 36 30  1  0
  3 38  1  0
  4 39  1  0
  4 40  1  0
  8 41  1  0
  8 42  1  0
  9 43  1  0
  9 44  1  0
 10 45  1  0
 10 46  1  0
 11 47  1  6
 12 48  1  0
 12 49  1  0
 13 50  1  0
 14 51  1  1
 16 52  1  0
 17 53  1  0
 18 54  1  0
 19 55  1  0
 20 56  1  0
 22 57  1  0
 23 58  1  0
 25 59  1  0
 26 60  1  0
 28 61  1  0
 29 62  1  0
 31 63  1  0
 34 64  1  0
 35 65  1  0
M  END
>  <smiles>  (71) 
O=C(NCC(=O)N1CCC[C@H]1CNC(c1ccccc1)c1ccncc1)c1ccc2cc(F)ccc2n1

>  <score_type>  (71) 
oracle

>  <origin>  (71) 
autodockgpu

>  <m_score__min__energy>  (71) 
-9.4299999999999997

>  <m_primary>  (71) 
energy

>  <rmsd>  (71) 
3.8125038631014805

>  <m_score__min__rmsd>  (71) 
3.8125038631014805

>  <meeko>  (71) 
{"free_energy": -8.74, "intermolecular_energy": -11.43, "internal_energy": -3.09, "cluster_size": 19, "cluster_id": 1, "rank_in_cluster": 13}

>  <energy>  (71) 
-8.94

>  <cluster_rmsd>  (71) 
0.73

>  <cluster>  (71) 
2

$$$$

     RDKit          3D

 65 69  0  0  1  0  0  0  0  0999 V2000
  137.5720   70.1560  221.7520 O   0  0  0  0  0  0  0  0  0  0  0  0
  137.8590   70.7680  222.8150 C   0  0  0  0  0  0  0  0  0  0  0  0
  137.5130   72.1390  222.9520 N   0  0  0  0  0  0  0  0  0  0  0  0
  136.8340   72.8470  221.8900 C   0  0  0  0  0  0  0  0  0  0  0  0
  137.7590   73.6320  221.0300 C   0  0  0  0  0  0  0  0  0  0  0  0
  137.3770   74.6340  220.3770 O   0  0  0  0  0  0  0  0  0  0  0  0
  139.1050   73.2100  220.9690 N   0  0  0  0  0  0  0  0  0  0  0  0
  139.7440   72.3240  219.9820 C   0  0  0  0  0  0  0  0  0  0  0  0
  140.4110   71.3380  220.9400 C   0  0  0  0  0  0  0  0  0  0  0  0
  141.0680   72.3360  221.8930 C   0  0  0  0  0  0  0  0  0  0  0  0
  140.1650   73.5650  221.8790 C   0  0  1  0  0  0  0  0  0  0  0  0
  141.0230   74.6990  221.3870 C   0  0  0  0  0  0  0  0  0  0  0  0
  141.0070   75.8620  222.2370 N   0  0  0  0  0  0  0  0  0  0  0  0
  140.8110   77.0220  221.3900 C   0  0  1  0  0  0  0  0  0  0  0  0
  141.3240   78.2620  222.0240 C   0  0  0  0  0  0  0  0  0  0  0  0
  141.6610   79.3630  221.2400 C   0  0  0  0  0  0  0  0  0  0  0  0
  142.1450   80.5350  221.8220 C   0  0  0  0  0  0  0  0  0  0  0  0
  142.2960   80.6190  223.1950 C   0  0  0  0  0  0  0  0  0  0  0  0
  141.9610   79.5270  223.9600 C   0  0  0  0  0  0  0  0  0  0  0  0
  141.4770   78.3450  223.4130 C   0  0  0  0  0  0  0  0  0  0  0  0
  141.3950   76.8310  220.0260 C   0  0  0  0  0  0  0  0  0  0  0  0
  142.7610   76.7240  219.8260 C   0  0  0  0  0  0  0  0  0  0  0  0
  143.2680   76.5490  218.5600 C   0  0  0  0  0  0  0  0  0  0  0  0
  142.4700   76.4770  217.4890 N   0  0  0  0  0  0  0  0  0  0  0  0
  141.1550   76.5780  217.6520 C   0  0  0  0  0  0  0  0  0  0  0  0
  140.5800   76.7540  218.8930 C   0  0  0  0  0  0  0  0  0  0  0  0
  138.5480   70.1140  223.9370 C   0  0  0  0  0  0  0  0  0  0  0  0
  138.6050   68.7390  224.0360 C   0  0  0  0  0  0  0  0  0  0  0  0
  139.2470   68.0930  225.0810 C   0  0  0  0  0  0  0  0  0  0  0  0
  139.8540   68.8630  226.0650 C   0  0  0  0  0  0  0  0  0  0  0  0
  140.5170   68.2720  227.1450 C   0  0  0  0  0  0  0  0  0  0  0  0
  141.0980   69.1160  228.0880 C   0  0  0  0  0  0  0  0  0  0  0  0
  141.7410   68.5210  229.1340 F   0  0  0  0  0  0  0  0  0  0  0  0
  141.0280   70.4970  227.9670 C   0  0  0  0  0  0  0  0  0  0  0  0
  140.3650   71.0500  226.8880 C   0  0  0  0  0  0  0  0  0  0  0  0
  139.7800   70.2350  225.9390 C   0  0  0  0  0  0  0  0  0  0  0  0
  139.1520   70.8480  224.9160 N   0  0  0  0  0  0  0  0  0  0  0  0
  137.7630   72.6400  223.8540 H   0  0  0  0  0  0  0  0  0  0  0  0
  136.3077   72.1141  221.2608 H   0  0  0  0  0  0  0  0  0  0  0  0
  136.1395   73.5584  222.3608 H   0  0  0  0  0  0  0  0  0  0  0  0
  139.0062   71.8316  219.3315 H   0  0  0  0  0  0  0  0  0  0  0  0
  140.4190   72.8200  219.2690 H   0  0  0  0  0  0  0  0  0  0  0  0
  139.6760   70.7005  221.4532 H   0  0  0  0  0  0  0  0  0  0  0  0
  141.0925   70.6122  220.4723 H   0  0  0  0  0  0  0  0  0  0  0  0
  141.1299   71.9156  222.9076 H   0  0  0  0  0  0  0  0  0  0  0  0
  142.0954   72.5800  221.5849 H   0  0  0  0  0  0  0  0  0  0  0  0
  139.7312   73.8683  222.8433 H   0  0  0  0  0  0  0  0  0  0  0  0
  142.0601   74.3401  221.3126 H   0  0  0  0  0  0  0  0  0  0  0  0
  140.6098   75.0106  220.4163 H   0  0  0  0  0  0  0  0  0  0  0  0
  141.9180   75.8890  222.7440 H   0  0  0  0  0  0  0  0  0  0  0  0
  139.7242   77.1373  221.2656 H   0  0  0  0  0  0  0  0  0  0  0  0
  141.5440   79.3077  220.1476 H   0  0  0  0  0  0  0  0  0  0  0  0
  142.4073   81.3946  221.1877 H   0  0  0  0  0  0  0  0  0  0  0  0
  142.6756   81.5389  223.6638 H   0  0  0  0  0  0  0  0  0  0  0  0
  142.0812   79.5917  225.0515 H   0  0  0  0  0  0  0  0  0  0  0  0
  141.2194   77.4921  224.0581 H   0  0  0  0  0  0  0  0  0  0  0  0
  143.4450   76.7794  220.6857 H   0  0  0  0  0  0  0  0  0  0  0  0
  144.3565   76.4662  218.4246 H   0  0  0  0  0  0  0  0  0  0  0  0
  140.5035   76.5193  216.7676 H   0  0  0  0  0  0  0  0  0  0  0  0
  139.4872   76.8333  218.9907 H   0  0  0  0  0  0  0  0  0  0  0  0
  138.1225   68.1321  223.2557 H   0  0  0  0  0  0  0  0  0  0  0  0
  139.2752   66.9945  225.1300 H   0  0  0  0  0  0  0  0  0  0  0  0
  140.5775   67.1783  227.2462 H   0  0  0  0  0  0  0  0  0  0  0  0
  141.4958   71.1450  228.7228 H   0  0  0  0  0  0  0  0  0  0  0  0
  140.3030   72.1434  226.7846 H   0  0  0  0  0  0  0  0  0  0  0  0
  1  2  2  0
  2  3  1  0
  3  4  1  0
  4  5  1  0
  5  6  2  0
  5  7  1  0
  7  8  1  0
  8  9  1  0
  9 10  1  0
 10 11  1  0
 11 12  1  0
 12 13  1  0
 13 14  1  0
 14 15  1  0
 15 16  2  0
 16 17  1  0
 17 18  2  0
 18 19  1  0
 19 20  2  0
 14 21  1  0
 21 22  2  0
 22 23  1  0
 23 24  2  0
 24 25  1  0
 25 26  2  0
  2 27  1  0
 27 28  2  0
 28 29  1  0
 29 30  2  0
 30 31  1  0
 31 32  2  0
 32 33  1  0
 32 34  1  0
 34 35  2  0
 35 36  1  0
 36 37  2  0
 11  7  1  0
 20 15  1  0
 26 21  1  0
 37 27  1  0
 36 30  1  0
  3 38  1  0
  4 39  1  0
  4 40  1  0
  8 41  1  0
  8 42  1  0
  9 43  1  0
  9 44  1  0
 10 45  1  0
 10 46  1  0
 11 47  1  1
 12 48  1  0
 12 49  1  0
 13 50  1  0
 14 51  1  6
 16 52  1  0
 17 53  1  0
 18 54  1  0
 19 55  1  0
 20 56  1  0
 22 57  1  0
 23 58  1  0
 25 59  1  0
 26 60  1  0
 28 61  1  0
 29 62  1  0
 31 63  1  0
 34 64  1  0
 35 65  1  0
M  END
>  <smiles>  (72) 
O=C(NCC(=O)N1CCC[C@H]1CNC(c1ccccc1)c1ccncc1)c1ccc2cc(F)ccc2n1

>  <score_type>  (72) 
oracle

>  <origin>  (72) 
autodockgpu

>  <m_score__min__energy>  (72) 
-9.4299999999999997

>  <m_primary>  (72) 
energy

>  <rmsd>  (72) 
3.1705370968738427

>  <m_score__min__rmsd>  (72) 
3.1705370968738427

>  <meeko>  (72) 
{"free_energy": -9.07, "intermolecular_energy": -11.75, "internal_energy": -2.84, "cluster_size": 19, "cluster_id": 1, "rank_in_cluster": 4}

>  <energy>  (72) 
-8.85

>  <cluster_rmsd>  (72) 
1.94

>  <cluster>  (72) 
2

$$$$

     RDKit          3D

 65 69  0  0  1  0  0  0  0  0999 V2000
  142.7530   79.5590  218.2570 O   0  0  0  0  0  0  0  0  0  0  0  0
  142.2440   78.5080  218.7300 C   0  0  0  0  0  0  0  0  0  0  0  0
  141.0450   78.5870  219.4870 N   0  0  0  0  0  0  0  0  0  0  0  0
  140.3940   79.8560  219.7240 C   0  0  0  0  0  0  0  0  0  0  0  0
  141.2390   80.8090  220.4920 C   0  0  0  0  0  0  0  0  0  0  0  0
  141.8080   81.7870  219.9490 O   0  0  0  0  0  0  0  0  0  0  0  0
  141.3850   80.5770  221.8780 N   0  0  0  0  0  0  0  0  0  0  0  0
  140.6290   81.1720  222.9910 C   0  0  0  0  0  0  0  0  0  0  0  0
  141.7990   81.6420  223.8540 C   0  0  0  0  0  0  0  0  0  0  0  0
  142.6350   80.3630  223.8440 C   0  0  0  0  0  0  0  0  0  0  0  0
  142.3260   79.6880  222.5110 C   0  0  1  0  0  0  0  0  0  0  0  0
  141.7420   78.3450  222.8580 C   0  0  0  0  0  0  0  0  0  0  0  0
  141.3760   77.5490  221.7150 N   0  0  0  0  0  0  0  0  0  0  0  0
  140.5280   76.4700  222.1840 C   0  0  1  0  0  0  0  0  0  0  0  0
  139.1270   76.9160  222.3880 C   0  0  0  0  0  0  0  0  0  0  0  0
  138.1210   75.9810  222.6220 C   0  0  0  0  0  0  0  0  0  0  0  0
  136.8000   76.3860  222.8150 C   0  0  0  0  0  0  0  0  0  0  0  0
  136.4710   77.7290  222.7740 C   0  0  0  0  0  0  0  0  0  0  0  0
  137.4710   78.6430  222.5410 C   0  0  0  0  0  0  0  0  0  0  0  0
  138.7960   78.2750  222.3460 C   0  0  0  0  0  0  0  0  0  0  0  0
  140.5900   75.2720  221.2910 C   0  0  0  0  0  0  0  0  0  0  0  0
  140.2430   75.3430  219.9520 C   0  0  0  0  0  0  0  0  0  0  0  0
  140.3100   74.2240  219.1550 C   0  0  0  0  0  0  0  0  0  0  0  0
  140.7080   73.0420  219.6380 N   0  0  0  0  0  0  0  0  0  0  0  0
  141.0460   72.9460  220.9190 C   0  0  0  0  0  0  0  0  0  0  0  0
  141.0030   74.0270  221.7740 C   0  0  0  0  0  0  0  0  0  0  0  0
  142.8480   77.1830  218.5290 C   0  0  0  0  0  0  0  0  0  0  0  0
  142.9970   76.6500  217.2650 C   0  0  0  0  0  0  0  0  0  0  0  0
  143.5630   75.4040  217.0430 C   0  0  0  0  0  0  0  0  0  0  0  0
  143.9950   74.6670  218.1380 C   0  0  0  0  0  0  0  0  0  0  0  0
  144.5730   73.4030  217.9810 C   0  0  0  0  0  0  0  0  0  0  0  0
  144.9790   72.7300  219.1310 C   0  0  0  0  0  0  0  0  0  0  0  0
  145.5420   71.5000  218.9570 F   0  0  0  0  0  0  0  0  0  0  0  0
  144.8210   73.2870  220.3920 C   0  0  0  0  0  0  0  0  0  0  0  0
  144.2450   74.5380  220.5140 C   0  0  0  0  0  0  0  0  0  0  0  0
  143.8330   75.2260  219.3890 C   0  0  0  0  0  0  0  0  0  0  0  0
  143.2820   76.4390  219.5880 N   0  0  0  0  0  0  0  0  0  0  0  0
  140.6300   77.6920  219.8780 H   0  0  0  0  0  0  0  0  0  0  0  0
  140.1477   80.3102  218.7529 H   0  0  0  0  0  0  0  0  0  0  0  0
  139.4943   79.6568  220.3246 H   0  0  0  0  0  0  0  0  0  0  0  0
  139.9988   82.0104  222.6594 H   0  0  0  0  0  0  0  0  0  0  0  0
  139.9150   80.4998  223.4893 H   0  0  0  0  0  0  0  0  0  0  0  0
  142.3341   82.4877  223.3976 H   0  0  0  0  0  0  0  0  0  0  0  0
  141.5284   82.0216  224.8503 H   0  0  0  0  0  0  0  0  0  0  0  0
  143.7062   80.6027  223.9149 H   0  0  0  0  0  0  0  0  0  0  0  0
  142.3965   79.7115  224.6976 H   0  0  0  0  0  0  0  0  0  0  0  0
  143.1776   79.5184  221.8357 H   0  0  0  0  0  0  0  0  0  0  0  0
  142.4862   77.7859  223.4441 H   0  0  0  0  0  0  0  0  0  0  0  0
  140.8159   78.5377  223.4195 H   0  0  0  0  0  0  0  0  0  0  0  0
  142.2590   77.2010  221.2820 H   0  0  0  0  0  0  0  0  0  0  0  0
  140.9253   76.1656  223.1635 H   0  0  0  0  0  0  0  0  0  0  0  0
  138.3713   74.9104  222.6550 H   0  0  0  0  0  0  0  0  0  0  0  0
  136.0178   75.6352  223.0003 H   0  0  0  0  0  0  0  0  0  0  0  0
  135.4323   78.0582  222.9245 H   0  0  0  0  0  0  0  0  0  0  0  0
  137.2107   79.7112  222.5076 H   0  0  0  0  0  0  0  0  0  0  0  0
  139.5689   79.0358  222.1624 H   0  0  0  0  0  0  0  0  0  0  0  0
  139.9117   76.3003  219.5233 H   0  0  0  0  0  0  0  0  0  0  0  0
  140.0294   74.3032  218.0943 H   0  0  0  0  0  0  0  0  0  0  0  0
  141.3713   71.9711  221.3111 H   0  0  0  0  0  0  0  0  0  0  0  0
  141.2918   73.9104  222.8290 H   0  0  0  0  0  0  0  0  0  0  0  0
  142.6534   77.2364  216.4001 H   0  0  0  0  0  0  0  0  0  0  0  0
  143.6676   75.0079  216.0221 H   0  0  0  0  0  0  0  0  0  0  0  0
  144.7024   72.9561  216.9843 H   0  0  0  0  0  0  0  0  0  0  0  0
  145.1510   72.7383  221.2864 H   0  0  0  0  0  0  0  0  0  0  0  0
  144.1144   74.9868  221.5097 H   0  0  0  0  0  0  0  0  0  0  0  0
  1  2  2  0
  2  3  1  0
  3  4  1  0
  4  5  1  0
  5  6  2  0
  5  7  1  0
  7  8  1  0
  8  9  1  0
  9 10  1  0
 10 11  1  0
 11 12  1  0
 12 13  1  0
 13 14  1  0
 14 15  1  0
 15 16  2  0
 16 17  1  0
 17 18  2  0
 18 19  1  0
 19 20  2  0
 14 21  1  0
 21 22  2  0
 22 23  1  0
 23 24  2  0
 24 25  1  0
 25 26  2  0
  2 27  1  0
 27 28  2  0
 28 29  1  0
 29 30  2  0
 30 31  1  0
 31 32  2  0
 32 33  1  0
 32 34  1  0
 34 35  2  0
 35 36  1  0
 36 37  2  0
 11  7  1  0
 20 15  1  0
 26 21  1  0
 37 27  1  0
 36 30  1  0
  3 38  1  0
  4 39  1  0
  4 40  1  0
  8 41  1  0
  8 42  1  0
  9 43  1  0
  9 44  1  0
 10 45  1  0
 10 46  1  0
 11 47  1  6
 12 48  1  0
 12 49  1  0
 13 50  1  0
 14 51  1  1
 16 52  1  0
 17 53  1  0
 18 54  1  0
 19 55  1  0
 20 56  1  0
 22 57  1  0
 23 58  1  0
 25 59  1  0
 26 60  1  0
 28 61  1  0
 29 62  1  0
 31 63  1  0
 34 64  1  0
 35 65  1  0
M  END
>  <smiles>  (73) 
O=C(NCC(=O)N1CCC[C@H]1CNC(c1ccccc1)c1ccncc1)c1ccc2cc(F)ccc2n1

>  <score_type>  (73) 
oracle

>  <origin>  (73) 
autodockgpu

>  <m_score__min__energy>  (73) 
-9.4299999999999997

>  <m_primary>  (73) 
energy

>  <rmsd>  (73) 
7.6853963209584375

>  <m_score__min__rmsd>  (73) 
7.6853963209584375

>  <meeko>  (73) 
{"free_energy": -6.86, "intermolecular_energy": -9.54, "internal_energy": -5.19, "cluster_size": 3, "cluster_id": 7, "rank_in_cluster": 3}

>  <energy>  (73) 
-8.74

>  <cluster_rmsd>  (73) 
1.07

>  <cluster>  (73) 
2

$$$$

     RDKit          3D

 65 69  0  0  1  0  0  0  0  0999 V2000
  140.9220   72.8260  222.4770 O   0  0  0  0  0  0  0  0  0  0  0  0
  140.0150   72.2360  223.1220 C   0  0  0  0  0  0  0  0  0  0  0  0
  138.6930   72.1980  222.6030 N   0  0  0  0  0  0  0  0  0  0  0  0
  138.3690   72.8240  221.3400 C   0  0  0  0  0  0  0  0  0  0  0  0
  137.0630   73.5360  221.3620 C   0  0  0  0  0  0  0  0  0  0  0  0
  136.0460   73.0860  220.7800 O   0  0  0  0  0  0  0  0  0  0  0  0
  137.0000   74.7560  222.0720 N   0  0  0  0  0  0  0  0  0  0  0  0
  136.1420   75.1070  223.2150 C   0  0  0  0  0  0  0  0  0  0  0  0
  135.5580   76.4150  222.6850 C   0  0  0  0  0  0  0  0  0  0  0  0
  136.8500   77.0850  222.2190 C   0  0  0  0  0  0  0  0  0  0  0  0
  137.7790   75.9420  221.8220 C   0  0  1  0  0  0  0  0  0  0  0  0
  138.9850   76.0660  222.7140 C   0  0  0  0  0  0  0  0  0  0  0  0
  140.1930   75.5190  222.1510 N   0  0  0  0  0  0  0  0  0  0  0  0
  140.6960   76.4730  221.1810 C   0  0  1  0  0  0  0  0  0  0  0  0
  141.0630   77.7630  221.8150 C   0  0  0  0  0  0  0  0  0  0  0  0
  141.4390   77.8040  223.1560 C   0  0  0  0  0  0  0  0  0  0  0  0
  141.7870   79.0090  223.7650 C   0  0  0  0  0  0  0  0  0  0  0  0
  141.7620   80.1880  223.0400 C   0  0  0  0  0  0  0  0  0  0  0  0
  141.3890   80.1370  221.7180 C   0  0  0  0  0  0  0  0  0  0  0  0
  141.0370   78.9550  221.0800 C   0  0  0  0  0  0  0  0  0  0  0  0
  141.8320   75.9200  220.3810 C   0  0  0  0  0  0  0  0  0  0  0  0
  142.4400   74.7200  220.7110 C   0  0  0  0  0  0  0  0  0  0  0  0
  143.4840   74.2380  219.9570 C   0  0  0  0  0  0  0  0  0  0  0  0
  143.9430   74.9010  218.8890 N   0  0  0  0  0  0  0  0  0  0  0  0
  143.3770   76.0540  218.5500 C   0  0  0  0  0  0  0  0  0  0  0  0
  142.3280   76.5960  219.2620 C   0  0  0  0  0  0  0  0  0  0  0  0
  140.2690   71.5760  224.4110 C   0  0  0  0  0  0  0  0  0  0  0  0
  141.0020   72.2010  225.4010 C   0  0  0  0  0  0  0  0  0  0  0  0
  141.2590   71.6050  226.6260 C   0  0  0  0  0  0  0  0  0  0  0  0
  140.7580   70.3310  226.8630 C   0  0  0  0  0  0  0  0  0  0  0  0
  140.9830   69.6760  228.0770 C   0  0  0  0  0  0  0  0  0  0  0  0
  140.4470   68.4000  228.2330 C   0  0  0  0  0  0  0  0  0  0  0  0
  140.6770   67.7780  229.4250 F   0  0  0  0  0  0  0  0  0  0  0  0
  139.7130   67.7930  227.2240 C   0  0  0  0  0  0  0  0  0  0  0  0
  139.5090   68.4670  226.0340 C   0  0  0  0  0  0  0  0  0  0  0  0
  140.0300   69.7330  225.8540 C   0  0  0  0  0  0  0  0  0  0  0  0
  139.7880   70.3250  224.6690 N   0  0  0  0  0  0  0  0  0  0  0  0
  137.9410   71.6970  223.1590 H   0  0  0  0  0  0  0  0  0  0  0  0
  139.1593   73.5489  221.0952 H   0  0  0  0  0  0  0  0  0  0  0  0
  138.2959   72.0259  220.5865 H   0  0  0  0  0  0  0  0  0  0  0  0
  135.3636   74.3506  223.3936 H   0  0  0  0  0  0  0  0  0  0  0  0
  136.6541   75.1775  224.1860 H   0  0  0  0  0  0  0  0  0  0  0  0
  134.8580   76.2466  221.8534 H   0  0  0  0  0  0  0  0  0  0  0  0
  134.9605   76.9919  223.4063 H   0  0  0  0  0  0  0  0  0  0  0  0
  136.6548   77.7394  221.3567 H   0  0  0  0  0  0  0  0  0  0  0  0
  137.2904   77.7156  223.0054 H   0  0  0  0  0  0  0  0  0  0  0  0
  138.1326   75.9334  220.7804 H   0  0  0  0  0  0  0  0  0  0  0  0
  139.1530   77.1332  222.9210 H   0  0  0  0  0  0  0  0  0  0  0  0
  138.7679   75.4854  223.6227 H   0  0  0  0  0  0  0  0  0  0  0  0
  139.9460   74.6030  221.7170 H   0  0  0  0  0  0  0  0  0  0  0  0
  139.8714   76.6702  220.4802 H   0  0  0  0  0  0  0  0  0  0  0  0
  141.4616   76.8734  223.7420 H   0  0  0  0  0  0  0  0  0  0  0  0
  142.0823   79.0229  224.8245 H   0  0  0  0  0  0  0  0  0  0  0  0
  142.0344   81.1439  223.5111 H   0  0  0  0  0  0  0  0  0  0  0  0
  141.3685   81.0730  221.1405 H   0  0  0  0  0  0  0  0  0  0  0  0
  140.7439   78.9548  220.0198 H   0  0  0  0  0  0  0  0  0  0  0  0
  142.0854   74.1490  221.5818 H   0  0  0  0  0  0  0  0  0  0  0  0
  143.9534   73.2839  220.2386 H   0  0  0  0  0  0  0  0  0  0  0  0
  143.7582   76.5948  217.6713 H   0  0  0  0  0  0  0  0  0  0  0  0
  141.8844   77.5536  218.9519 H   0  0  0  0  0  0  0  0  0  0  0  0
  141.3968   73.2098  225.2102 H   0  0  0  0  0  0  0  0  0  0  0  0
  141.8469   72.1294  227.3937 H   0  0  0  0  0  0  0  0  0  0  0  0
  141.5633   70.1518  228.8813 H   0  0  0  0  0  0  0  0  0  0  0  0
  139.2973   66.7850  227.3694 H   0  0  0  0  0  0  0  0  0  0  0  0
  138.9297   67.9930  225.2279 H   0  0  0  0  0  0  0  0  0  0  0  0
  1  2  2  0
  2  3  1  0
  3  4  1  0
  4  5  1  0
  5  6  2  0
  5  7  1  0
  7  8  1  0
  8  9  1  0
  9 10  1  0
 10 11  1  0
 11 12  1  0
 12 13  1  0
 13 14  1  0
 14 15  1  0
 15 16  2  0
 16 17  1  0
 17 18  2  0
 18 19  1  0
 19 20  2  0
 14 21  1  0
 21 22  2  0
 22 23  1  0
 23 24  2  0
 24 25  1  0
 25 26  2  0
  2 27  1  0
 27 28  2  0
 28 29  1  0
 29 30  2  0
 30 31  1  0
 31 32  2  0
 32 33  1  0
 32 34  1  0
 34 35  2  0
 35 36  1  0
 36 37  2  0
 11  7  1  0
 20 15  1  0
 26 21  1  0
 37 27  1  0
 36 30  1  0
  3 38  1  0
  4 39  1  0
  4 40  1  0
  8 41  1  0
  8 42  1  0
  9 43  1  0
  9 44  1  0
 10 45  1  0
 10 46  1  0
 11 47  1  6
 12 48  1  0
 12 49  1  0
 13 50  1  0
 14 51  1  6
 16 52  1  0
 17 53  1  0
 18 54  1  0
 19 55  1  0
 20 56  1  0
 22 57  1  0
 23 58  1  0
 25 59  1  0
 26 60  1  0
 28 61  1  0
 29 62  1  0
 31 63  1  0
 34 64  1  0
 35 65  1  0
M  END
>  <smiles>  (74) 
O=C(NCC(=O)N1CCC[C@H]1CNC(c1ccccc1)c1ccncc1)c1ccc2cc(F)ccc2n1

>  <score_type>  (74) 
oracle

>  <origin>  (74) 
autodockgpu

>  <m_score__min__energy>  (74) 
-9.4299999999999997

>  <m_primary>  (74) 
energy

>  <rmsd>  (74) 
4.161656896448527

>  <m_score__min__rmsd>  (74) 
4.161656896448527

>  <meeko>  (74) 
{"free_energy": -8.51, "intermolecular_energy": -11.19, "internal_energy": -3.25, "cluster_size": 19, "cluster_id": 1, "rank_in_cluster": 16}

>  <energy>  (74) 
-8.65

>  <cluster_rmsd>  (74) 
1.06

>  <cluster>  (74) 
2

$$$$

     RDKit          3D

 65 69  0  0  1  0  0  0  0  0999 V2000
  139.6810   70.9630  221.1980 O   0  0  0  0  0  0  0  0  0  0  0  0
  139.7340   71.4850  222.3440 C   0  0  0  0  0  0  0  0  0  0  0  0
  139.7890   72.8980  222.4720 N   0  0  0  0  0  0  0  0  0  0  0  0
  139.7830   73.7540  221.3060 C   0  0  0  0  0  0  0  0  0  0  0  0
  139.8700   75.1990  221.6450 C   0  0  0  0  0  0  0  0  0  0  0  0
  139.4030   75.6660  222.7130 O   0  0  0  0  0  0  0  0  0  0  0  0
  140.5060   76.0480  220.7130 N   0  0  0  0  0  0  0  0  0  0  0  0
  140.8150   75.7870  219.2980 C   0  0  0  0  0  0  0  0  0  0  0  0
  142.2960   76.1610  219.3010 C   0  0  0  0  0  0  0  0  0  0  0  0
  142.2040   77.5030  220.0260 C   0  0  0  0  0  0  0  0  0  0  0  0
  140.9990   77.3820  220.9530 C   0  0  1  0  0  0  0  0  0  0  0  0
  140.0410   78.4610  220.5240 C   0  0  0  0  0  0  0  0  0  0  0  0
  138.9110   78.6270  221.4020 N   0  0  0  0  0  0  0  0  0  0  0  0
  139.0840   79.8820  222.1080 C   0  0  1  0  0  0  0  0  0  0  0  0
  138.0020   80.1120  223.0980 C   0  0  0  0  0  0  0  0  0  0  0  0
  138.2330   80.9140  224.2140 C   0  0  0  0  0  0  0  0  0  0  0  0
  137.2260   81.1400  225.1530 C   0  0  0  0  0  0  0  0  0  0  0  0
  135.9780   80.5650  224.9870 C   0  0  0  0  0  0  0  0  0  0  0  0
  135.7610   79.7750  223.8830 C   0  0  0  0  0  0  0  0  0  0  0  0
  136.7410   79.5300  222.9280 C   0  0  0  0  0  0  0  0  0  0  0  0
  140.4320   79.9910  222.7450 C   0  0  0  0  0  0  0  0  0  0  0  0
  140.8900   79.0470  223.6490 C   0  0  0  0  0  0  0  0  0  0  0  0
  142.1350   79.1750  224.2190 C   0  0  0  0  0  0  0  0  0  0  0  0
  142.9390   80.2020  223.9230 N   0  0  0  0  0  0  0  0  0  0  0  0
  142.5250   81.1220  223.0590 C   0  0  0  0  0  0  0  0  0  0  0  0
  141.2890   81.0560  222.4510 C   0  0  0  0  0  0  0  0  0  0  0  0
  139.7420   70.6790  223.5740 C   0  0  0  0  0  0  0  0  0  0  0  0
  139.2000   69.4100  223.6000 C   0  0  0  0  0  0  0  0  0  0  0  0
  139.1930   68.6260  224.7440 C   0  0  0  0  0  0  0  0  0  0  0  0
  139.7530   69.1410  225.9050 C   0  0  0  0  0  0  0  0  0  0  0  0
  139.7760   68.4020  227.0910 C   0  0  0  0  0  0  0  0  0  0  0  0
  140.3550   68.9920  228.2120 C   0  0  0  0  0  0  0  0  0  0  0  0
  140.3690   68.2550  229.3590 F   0  0  0  0  0  0  0  0  0  0  0  0
  140.8940   70.2700  228.1610 C   0  0  0  0  0  0  0  0  0  0  0  0
  140.8550   70.9760  226.9730 C   0  0  0  0  0  0  0  0  0  0  0  0
  140.2860   70.4130  225.8480 C   0  0  0  0  0  0  0  0  0  0  0  0
  140.2860   71.1620  224.7280 N   0  0  0  0  0  0  0  0  0  0  0  0
  139.8330   73.3200  223.4450 H   0  0  0  0  0  0  0  0  0  0  0  0
  140.6432   73.4901  220.6731 H   0  0  0  0  0  0  0  0  0  0  0  0
  138.8265   73.5952  220.7865 H   0  0  0  0  0  0  0  0  0  0  0  0
  140.6570   74.7320  219.0296 H   0  0  0  0  0  0  0  0  0  0  0  0
  140.1926   76.3295  218.5711 H   0  0  0  0  0  0  0  0  0  0  0  0
  142.9039   75.4326  219.8577 H   0  0  0  0  0  0  0  0  0  0  0  0
  142.7779   76.1901  218.3126 H   0  0  0  0  0  0  0  0  0  0  0  0
  143.1191   77.6898  220.6071 H   0  0  0  0  0  0  0  0  0  0  0  0
  142.0954   78.3412  219.3220 H   0  0  0  0  0  0  0  0  0  0  0  0
  141.1900   77.5128  222.0284 H   0  0  0  0  0  0  0  0  0  0  0  0
  140.5895   79.4136  220.4829 H   0  0  0  0  0  0  0  0  0  0  0  0
  139.6405   78.1589  219.5450 H   0  0  0  0  0  0  0  0  0  0  0  0
  138.8940   77.8080  222.0460 H   0  0  0  0  0  0  0  0  0  0  0  0
  139.0171   80.6777  221.3514 H   0  0  0  0  0  0  0  0  0  0  0  0
  139.2217   81.3747  224.3564 H   0  0  0  0  0  0  0  0  0  0  0  0
  137.4245   81.7769  226.0276 H   0  0  0  0  0  0  0  0  0  0  0  0
  135.1777   80.7363  225.7220 H   0  0  0  0  0  0  0  0  0  0  0  0
  134.7697   79.3173  223.7497 H   0  0  0  0  0  0  0  0  0  0  0  0
  136.5296   78.8921  222.0571 H   0  0  0  0  0  0  0  0  0  0  0  0
  140.2538   78.1893  223.9128 H   0  0  0  0  0  0  0  0  0  0  0  0
  142.4779   78.4143  224.9357 H   0  0  0  0  0  0  0  0  0  0  0  0
  143.1904   81.9648  222.8205 H   0  0  0  0  0  0  0  0  0  0  0  0
  140.9794   81.8358  221.7396 H   0  0  0  0  0  0  0  0  0  0  0  0
  138.7567   69.0050  222.6783 H   0  0  0  0  0  0  0  0  0  0  0  0
  138.7532   67.6178  224.7316 H   0  0  0  0  0  0  0  0  0  0  0  0
  139.3511   67.3884  227.1376 H   0  0  0  0  0  0  0  0  0  0  0  0
  141.3481   70.7170  229.0576 H   0  0  0  0  0  0  0  0  0  0  0  0
  141.2788   71.9899  226.9239 H   0  0  0  0  0  0  0  0  0  0  0  0
  1  2  2  0
  2  3  1  0
  3  4  1  0
  4  5  1  0
  5  6  2  0
  5  7  1  0
  7  8  1  0
  8  9  1  0
  9 10  1  0
 10 11  1  0
 11 12  1  0
 12 13  1  0
 13 14  1  0
 14 15  1  0
 15 16  2  0
 16 17  1  0
 17 18  2  0
 18 19  1  0
 19 20  2  0
 14 21  1  0
 21 22  2  0
 22 23  1  0
 23 24  2  0
 24 25  1  0
 25 26  2  0
  2 27  1  0
 27 28  2  0
 28 29  1  0
 29 30  2  0
 30 31  1  0
 31 32  2  0
 32 33  1  0
 32 34  1  0
 34 35  2  0
 35 36  1  0
 36 37  2  0
 11  7  1  0
 20 15  1  0
 26 21  1  0
 37 27  1  0
 36 30  1  0
  3 38  1  0
  4 39  1  0
  4 40  1  0
  8 41  1  0
  8 42  1  0
  9 43  1  0
  9 44  1  0
 10 45  1  0
 10 46  1  0
 11 47  1  1
 12 48  1  0
 12 49  1  0
 13 50  1  0
 14 51  1  6
 16 52  1  0
 17 53  1  0
 18 54  1  0
 19 55  1  0
 20 56  1  0
 22 57  1  0
 23 58  1  0
 25 59  1  0
 26 60  1  0
 28 61  1  0
 29 62  1  0
 31 63  1  0
 34 64  1  0
 35 65  1  0
M  END
>  <smiles>  (75) 
O=C(NCC(=O)N1CCC[C@H]1CNC(c1ccccc1)c1ccncc1)c1ccc2cc(F)ccc2n1

>  <score_type>  (75) 
oracle

>  <origin>  (75) 
autodockgpu

>  <m_score__min__energy>  (75) 
-9.4299999999999997

>  <m_primary>  (75) 
energy

>  <rmsd>  (75) 
2.6564101015150983

>  <m_score__min__rmsd>  (75) 
2.6564101015150983

>  <meeko>  (75) 
{"free_energy": -8.97, "intermolecular_energy": -11.65, "internal_energy": -3.14, "cluster_size": 5, "cluster_id": 3, "rank_in_cluster": 1}

>  <energy>  (75) 
-8.54

>  <cluster_rmsd>  (75) 
1.9

>  <cluster>  (75) 
2

$$$$

     RDKit          3D

 65 69  0  0  1  0  0  0  0  0999 V2000
  137.6500   70.3840  222.1780 O   0  0  0  0  0  0  0  0  0  0  0  0
  138.4550   70.8580  223.0240 C   0  0  0  0  0  0  0  0  0  0  0  0
  138.8860   72.2060  222.9050 N   0  0  0  0  0  0  0  0  0  0  0  0
  138.4160   73.0480  221.8270 C   0  0  0  0  0  0  0  0  0  0  0  0
  139.1190   74.3570  221.7630 C   0  0  0  0  0  0  0  0  0  0  0  0
  140.3300   74.4820  222.0680 O   0  0  0  0  0  0  0  0  0  0  0  0
  138.3700   75.4770  221.3380 N   0  0  0  0  0  0  0  0  0  0  0  0
  137.0190   75.8870  221.7540 C   0  0  0  0  0  0  0  0  0  0  0  0
  136.3850   76.0610  220.3750 C   0  0  0  0  0  0  0  0  0  0  0  0
  137.4760   76.9010  219.7120 C   0  0  0  0  0  0  0  0  0  0  0  0
  138.7780   76.4780  220.3850 C   0  0  1  0  0  0  0  0  0  0  0  0
  139.3310   77.7230  221.0240 C   0  0  0  0  0  0  0  0  0  0  0  0
  139.9690   77.4980  222.2960 N   0  0  0  0  0  0  0  0  0  0  0  0
  141.3570   77.9000  222.1690 C   0  0  1  0  0  0  0  0  0  0  0  0
  141.7940   77.9340  220.7510 C   0  0  0  0  0  0  0  0  0  0  0  0
  141.7910   79.1360  220.0450 C   0  0  0  0  0  0  0  0  0  0  0  0
  142.1990   79.1830  218.7110 C   0  0  0  0  0  0  0  0  0  0  0  0
  142.6140   78.0290  218.0690 C   0  0  0  0  0  0  0  0  0  0  0  0
  142.6120   76.8490  218.7750 C   0  0  0  0  0  0  0  0  0  0  0  0
  142.2130   76.7660  220.1030 C   0  0  0  0  0  0  0  0  0  0  0  0
  141.6330   79.2020  222.8510 C   0  0  0  0  0  0  0  0  0  0  0  0
  140.6130   80.0620  223.2210 C   0  0  0  0  0  0  0  0  0  0  0  0
  140.8990   81.2530  223.8470 C   0  0  0  0  0  0  0  0  0  0  0  0
  142.1560   81.6190  224.1180 N   0  0  0  0  0  0  0  0  0  0  0  0
  143.1540   80.8120  223.7740 C   0  0  0  0  0  0  0  0  0  0  0  0
  142.9400   79.6040  223.1440 C   0  0  0  0  0  0  0  0  0  0  0  0
  138.9750   70.0630  224.1450 C   0  0  0  0  0  0  0  0  0  0  0  0
  138.8560   68.6880  224.1620 C   0  0  0  0  0  0  0  0  0  0  0  0
  139.3360   67.9110  225.2050 C   0  0  0  0  0  0  0  0  0  0  0  0
  139.9600   68.5430  226.2720 C   0  0  0  0  0  0  0  0  0  0  0  0
  140.4650   67.8160  227.3540 C   0  0  0  0  0  0  0  0  0  0  0  0
  141.0760   68.5280  228.3840 C   0  0  0  0  0  0  0  0  0  0  0  0
  141.5620   67.8010  229.4300 F   0  0  0  0  0  0  0  0  0  0  0  0
  141.1840   69.9110  228.3450 C   0  0  0  0  0  0  0  0  0  0  0  0
  140.6740   70.6010  227.2610 C   0  0  0  0  0  0  0  0  0  0  0  0
  140.0640   69.9190  226.2270 C   0  0  0  0  0  0  0  0  0  0  0  0
  139.5920   70.6610  225.2060 N   0  0  0  0  0  0  0  0  0  0  0  0
  139.5650   72.5890  223.6250 H   0  0  0  0  0  0  0  0  0  0  0  0
  138.5727   72.5191  220.8753 H   0  0  0  0  0  0  0  0  0  0  0  0
  137.3515   73.2550  222.0114 H   0  0  0  0  0  0  0  0  0  0  0  0
  136.5150   75.1073  222.3440 H   0  0  0  0  0  0  0  0  0  0  0  0
  136.9739   76.7692  222.4095 H   0  0  0  0  0  0  0  0  0  0  0  0
  136.2389   75.0978  219.8641 H   0  0  0  0  0  0  0  0  0  0  0  0
  135.3787   76.5053  220.3706 H   0  0  0  0  0  0  0  0  0  0  0  0
  137.5167   76.6960  218.6320 H   0  0  0  0  0  0  0  0  0  0  0  0
  137.2882   77.9789  219.8256 H   0  0  0  0  0  0  0  0  0  0  0  0
  139.5583   76.0620  219.7308 H   0  0  0  0  0  0  0  0  0  0  0  0
  140.0711   78.1631  220.3394 H   0  0  0  0  0  0  0  0  0  0  0  0
  138.4763   78.3896  221.2115 H   0  0  0  0  0  0  0  0  0  0  0  0
  139.8680   76.4850  222.5190 H   0  0  0  0  0  0  0  0  0  0  0  0
  141.9530   77.1312  222.6826 H   0  0  0  0  0  0  0  0  0  0  0  0
  141.4630   80.0590  220.5455 H   0  0  0  0  0  0  0  0  0  0  0  0
  142.1907   80.1398  218.1683 H   0  0  0  0  0  0  0  0  0  0  0  0
  142.9380   78.0553  217.0181 H   0  0  0  0  0  0  0  0  0  0  0  0
  142.9406   75.9309  218.2660 H   0  0  0  0  0  0  0  0  0  0  0  0
  142.2260   75.8028  220.6342 H   0  0  0  0  0  0  0  0  0  0  0  0
  139.5673   79.7912  223.0130 H   0  0  0  0  0  0  0  0  0  0  0  0
  140.0728   81.9210  224.1318 H   0  0  0  0  0  0  0  0  0  0  0  0
  144.1863   81.1179  223.9995 H   0  0  0  0  0  0  0  0  0  0  0  0
  143.7910   78.9615  222.8740 H   0  0  0  0  0  0  0  0  0  0  0  0
  138.3613   68.1895  223.3154 H   0  0  0  0  0  0  0  0  0  0  0  0
  139.2248   66.8168  225.1875 H   0  0  0  0  0  0  0  0  0  0  0  0
  140.3828   66.7197  227.3909 H   0  0  0  0  0  0  0  0  0  0  0  0
  141.6709   70.4532  229.1690 H   0  0  0  0  0  0  0  0  0  0  0  0
  140.7545   71.6974  227.2221 H   0  0  0  0  0  0  0  0  0  0  0  0
  1  2  2  0
  2  3  1  0
  3  4  1  0
  4  5  1  0
  5  6  2  0
  5  7  1  0
  7  8  1  0
  8  9  1  0
  9 10  1  0
 10 11  1  0
 11 12  1  0
 12 13  1  0
 13 14  1  0
 14 15  1  0
 15 16  2  0
 16 17  1  0
 17 18  2  0
 18 19  1  0
 19 20  2  0
 14 21  1  0
 21 22  2  0
 22 23  1  0
 23 24  2  0
 24 25  1  0
 25 26  2  0
  2 27  1  0
 27 28  2  0
 28 29  1  0
 29 30  2  0
 30 31  1  0
 31 32  2  0
 32 33  1  0
 32 34  1  0
 34 35  2  0
 35 36  1  0
 36 37  2  0
 11  7  1  0
 20 15  1  0
 26 21  1  0
 37 27  1  0
 36 30  1  0
  3 38  1  0
  4 39  1  0
  4 40  1  0
  8 41  1  0
  8 42  1  0
  9 43  1  0
  9 44  1  0
 10 45  1  0
 10 46  1  0
 11 47  1  6
 12 48  1  0
 12 49  1  0
 13 50  1  0
 14 51  1  1
 16 52  1  0
 17 53  1  0
 18 54  1  0
 19 55  1  0
 20 56  1  0
 22 57  1  0
 23 58  1  0
 25 59  1  0
 26 60  1  0
 28 61  1  0
 29 62  1  0
 31 63  1  0
 34 64  1  0
 35 65  1  0
M  END
>  <smiles>  (76) 
O=C(NCC(=O)N1CCC[C@H]1CNC(c1ccccc1)c1ccncc1)c1ccc2cc(F)ccc2n1

>  <score_type>  (76) 
oracle

>  <origin>  (76) 
autodockgpu

>  <m_score__min__energy>  (76) 
-9.4299999999999997

>  <m_primary>  (76) 
energy

>  <rmsd>  (76) 
3.074824109565342

>  <m_score__min__rmsd>  (76) 
3.074824109565342

>  <meeko>  (76) 
{"free_energy": -9.19, "intermolecular_energy": -11.88, "internal_energy": -3.22, "cluster_size": 19, "cluster_id": 1, "rank_in_cluster": 3}

>  <energy>  (76) 
-8.97

>  <cluster_rmsd>  (76) 
0.0

>  <cluster>  (76) 
3

$$$$

     RDKit          3D

 65 69  0  0  1  0  0  0  0  0999 V2000
  137.4780   70.2590  221.5890 O   0  0  0  0  0  0  0  0  0  0  0  0
  137.8520   70.9400  222.5810 C   0  0  0  0  0  0  0  0  0  0  0  0
  137.6240   72.3420  222.5990 N   0  0  0  0  0  0  0  0  0  0  0  0
  136.9670   73.0050  221.4950 C   0  0  0  0  0  0  0  0  0  0  0  0
  137.9160   73.4760  220.4510 C   0  0  0  0  0  0  0  0  0  0  0  0
  137.5330   74.0990  219.4310 O   0  0  0  0  0  0  0  0  0  0  0  0
  139.2870   73.1960  220.6450 N   0  0  0  0  0  0  0  0  0  0  0  0
  140.1730   72.3490  219.8310 C   0  0  0  0  0  0  0  0  0  0  0  0
  140.7540   71.4730  220.9390 C   0  0  0  0  0  0  0  0  0  0  0  0
  141.1310   72.5660  221.9390 C   0  0  0  0  0  0  0  0  0  0  0  0
  140.1280   73.6920  221.7050 C   0  0  1  0  0  0  0  0  0  0  0  0
  140.9450   74.8920  221.3100 C   0  0  0  0  0  0  0  0  0  0  0  0
  141.0490   75.8970  222.3370 N   0  0  0  0  0  0  0  0  0  0  0  0
  140.4050   77.0990  221.8430 C   0  0  1  0  0  0  0  0  0  0  0  0
  138.9860   77.1800  222.2690 C   0  0  0  0  0  0  0  0  0  0  0  0
  138.3250   76.0410  222.7230 C   0  0  0  0  0  0  0  0  0  0  0  0
  136.9900   76.1020  223.1280 C   0  0  0  0  0  0  0  0  0  0  0  0
  136.3030   77.3020  223.0810 C   0  0  0  0  0  0  0  0  0  0  0  0
  136.9650   78.4200  222.6310 C   0  0  0  0  0  0  0  0  0  0  0  0
  138.2930   78.3950  222.2210 C   0  0  0  0  0  0  0  0  0  0  0  0
  141.1540   78.3380  222.2180 C   0  0  0  0  0  0  0  0  0  0  0  0
  141.5090   79.2880  221.2750 C   0  0  0  0  0  0  0  0  0  0  0  0
  142.1990   80.4180  221.6510 C   0  0  0  0  0  0  0  0  0  0  0  0
  142.5460   80.6360  222.9240 N   0  0  0  0  0  0  0  0  0  0  0  0
  142.2180   79.7400  223.8480 C   0  0  0  0  0  0  0  0  0  0  0  0
  141.5280   78.5860  223.5420 C   0  0  0  0  0  0  0  0  0  0  0  0
  138.5250   70.3350  223.7400 C   0  0  0  0  0  0  0  0  0  0  0  0
  138.5250   68.9680  223.9320 C   0  0  0  0  0  0  0  0  0  0  0  0
  139.1510   68.3680  225.0140 C   0  0  0  0  0  0  0  0  0  0  0  0
  139.8010   69.1760  225.9370 C   0  0  0  0  0  0  0  0  0  0  0  0
  140.4500   68.6330  227.0500 C   0  0  0  0  0  0  0  0  0  0  0  0
  141.0780   69.5130  227.9280 C   0  0  0  0  0  0  0  0  0  0  0  0
  141.7060   68.9630  229.0070 F   0  0  0  0  0  0  0  0  0  0  0  0
  141.0650   70.8840  227.7130 C   0  0  0  0  0  0  0  0  0  0  0  0
  140.4140   71.3910  226.6040 C   0  0  0  0  0  0  0  0  0  0  0  0
  139.7830   70.5390  225.7180 C   0  0  0  0  0  0  0  0  0  0  0  0
  139.1710   71.1070  224.6610 N   0  0  0  0  0  0  0  0  0  0  0  0
  137.9460   72.8990  223.4430 H   0  0  0  0  0  0  0  0  0  0  0  0
  136.2600   72.2999  221.0334 H   0  0  0  0  0  0  0  0  0  0  0  0
  136.4576   73.8917  221.9003 H   0  0  0  0  0  0  0  0  0  0  0  0
  139.6131   71.7592  219.0903 H   0  0  0  0  0  0  0  0  0  0  0  0
  140.9112   72.8885  219.2195 H   0  0  0  0  0  0  0  0  0  0  0  0
  140.0064   70.7786  221.3500 H   0  0  0  0  0  0  0  0  0  0  0  0
  141.5759   70.8088  220.6335 H   0  0  0  0  0  0  0  0  0  0  0  0
  141.0528   72.1887  222.9693 H   0  0  0  0  0  0  0  0  0  0  0  0
  142.1679   72.9064  221.8017 H   0  0  0  0  0  0  0  0  0  0  0  0
  139.5021   73.9807  222.5623 H   0  0  0  0  0  0  0  0  0  0  0  0
  141.9596   74.5509  221.0566 H   0  0  0  0  0  0  0  0  0  0  0  0
  140.4292   75.3606  220.4589 H   0  0  0  0  0  0  0  0  0  0  0  0
  142.0640   76.0410  222.5300 H   0  0  0  0  0  0  0  0  0  0  0  0
  140.4194   77.0312  220.7452 H   0  0  0  0  0  0  0  0  0  0  0  0
  138.8614   75.0815  222.7630 H   0  0  0  0  0  0  0  0  0  0  0  0
  136.4832   75.1935  223.4854 H   0  0  0  0  0  0  0  0  0  0  0  0
  135.2508   77.3604  223.3965 H   0  0  0  0  0  0  0  0  0  0  0  0
  136.4204   79.3750  222.5939 H   0  0  0  0  0  0  0  0  0  0  0  0
  138.7887   79.3107  221.8664 H   0  0  0  0  0  0  0  0  0  0  0  0
  141.2380   79.1386  220.2194 H   0  0  0  0  0  0  0  0  0  0  0  0
  142.4717   81.1598  220.8859 H   0  0  0  0  0  0  0  0  0  0  0  0
  142.5067   79.9249  224.8932 H   0  0  0  0  0  0  0  0  0  0  0  0
  141.2737   77.8660  224.3338 H   0  0  0  0  0  0  0  0  0  0  0  0
  138.0089   68.3306  223.1990 H   0  0  0  0  0  0  0  0  0  0  0  0
  139.1330   67.2752  225.1384 H   0  0  0  0  0  0  0  0  0  0  0  0
  140.4641   67.5473  227.2263 H   0  0  0  0  0  0  0  0  0  0  0  0
  141.5683   71.5612  228.4188 H   0  0  0  0  0  0  0  0  0  0  0  0
  140.3982   72.4764  226.4263 H   0  0  0  0  0  0  0  0  0  0  0  0
  1  2  2  0
  2  3  1  0
  3  4  1  0
  4  5  1  0
  5  6  2  0
  5  7  1  0
  7  8  1  0
  8  9  1  0
  9 10  1  0
 10 11  1  0
 11 12  1  0
 12 13  1  0
 13 14  1  0
 14 15  1  0
 15 16  2  0
 16 17  1  0
 17 18  2  0
 18 19  1  0
 19 20  2  0
 14 21  1  0
 21 22  2  0
 22 23  1  0
 23 24  2  0
 24 25  1  0
 25 26  2  0
  2 27  1  0
 27 28  2  0
 28 29  1  0
 29 30  2  0
 30 31  1  0
 31 32  2  0
 32 33  1  0
 32 34  1  0
 34 35  2  0
 35 36  1  0
 36 37  2  0
 11  7  1  0
 20 15  1  0
 26 21  1  0
 37 27  1  0
 36 30  1  0
  3 38  1  0
  4 39  1  0
  4 40  1  0
  8 41  1  0
  8 42  1  0
  9 43  1  0
  9 44  1  0
 10 45  1  0
 10 46  1  0
 11 47  1  1
 12 48  1  0
 12 49  1  0
 13 50  1  0
 14 51  1  6
 16 52  1  0
 17 53  1  0
 18 54  1  0
 19 55  1  0
 20 56  1  0
 22 57  1  0
 23 58  1  0
 25 59  1  0
 26 60  1  0
 28 61  1  0
 29 62  1  0
 31 63  1  0
 34 64  1  0
 35 65  1  0
M  END
>  <smiles>  (77) 
O=C(NCC(=O)N1CCC[C@H]1CNC(c1ccccc1)c1ccncc1)c1ccc2cc(F)ccc2n1

>  <score_type>  (77) 
oracle

>  <origin>  (77) 
autodockgpu

>  <m_score__min__energy>  (77) 
-9.4299999999999997

>  <m_primary>  (77) 
energy

>  <rmsd>  (77) 
3.668724782494568

>  <m_score__min__rmsd>  (77) 
3.668724782494568

>  <meeko>  (77) 
{"free_energy": -8.94, "intermolecular_energy": -11.63, "internal_energy": -3.2, "cluster_size": 6, "cluster_id": 2, "rank_in_cluster": 2}

>  <energy>  (77) 
-8.81

>  <cluster_rmsd>  (77) 
1.44

>  <cluster>  (77) 
3

$$$$

     RDKit          3D

 65 69  0  0  1  0  0  0  0  0999 V2000
  139.9030   71.3650  221.0360 O   0  0  0  0  0  0  0  0  0  0  0  0
  139.7900   71.8790  222.1810 C   0  0  0  0  0  0  0  0  0  0  0  0
  139.6670   73.2880  222.3100 N   0  0  0  0  0  0  0  0  0  0  0  0
  139.6670   74.1470  221.1470 C   0  0  0  0  0  0  0  0  0  0  0  0
  140.0730   75.5440  221.4550 C   0  0  0  0  0  0  0  0  0  0  0  0
  139.9450   76.0410  222.6010 O   0  0  0  0  0  0  0  0  0  0  0  0
  140.6190   76.3100  220.4020 N   0  0  0  0  0  0  0  0  0  0  0  0
  140.5380   76.0650  218.9530 C   0  0  0  0  0  0  0  0  0  0  0  0
  142.0220   76.1720  218.6070 C   0  0  0  0  0  0  0  0  0  0  0  0
  142.3470   77.4740  219.3370 C   0  0  0  0  0  0  0  0  0  0  0  0
  141.3880   77.5230  220.5230 C   0  0  1  0  0  0  0  0  0  0  0  0
  140.5700   78.7730  220.3370 C   0  0  0  0  0  0  0  0  0  0  0  0
  139.3310   78.7810  221.0730 N   0  0  0  0  0  0  0  0  0  0  0  0
  139.3360   79.9530  221.9270 C   0  0  1  0  0  0  0  0  0  0  0  0
  138.1310   80.0110  222.7910 C   0  0  0  0  0  0  0  0  0  0  0  0
  138.0290   80.9790  223.7880 C   0  0  0  0  0  0  0  0  0  0  0  0
  136.9020   81.0460  224.6080 C   0  0  0  0  0  0  0  0  0  0  0  0
  135.8660   80.1440  224.4410 C   0  0  0  0  0  0  0  0  0  0  0  0
  135.9760   79.1930  223.4550 C   0  0  0  0  0  0  0  0  0  0  0  0
  137.0830   79.0980  222.6200 C   0  0  0  0  0  0  0  0  0  0  0  0
  140.5880   80.0570  222.7370 C   0  0  0  0  0  0  0  0  0  0  0  0
  141.0460   79.0030  223.5110 C   0  0  0  0  0  0  0  0  0  0  0  0
  142.2010   79.1300  224.2460 C   0  0  0  0  0  0  0  0  0  0  0  0
  142.9160   80.2600  224.2400 N   0  0  0  0  0  0  0  0  0  0  0  0
  142.5000   81.2870  223.5070 C   0  0  0  0  0  0  0  0  0  0  0  0
  141.3510   81.2290  222.7470 C   0  0  0  0  0  0  0  0  0  0  0  0
  139.7820   71.0700  223.4080 C   0  0  0  0  0  0  0  0  0  0  0  0
  139.2520   69.7950  223.4190 C   0  0  0  0  0  0  0  0  0  0  0  0
  139.2290   69.0070  224.5600 C   0  0  0  0  0  0  0  0  0  0  0  0
  139.7600   69.5240  225.7340 C   0  0  0  0  0  0  0  0  0  0  0  0
  139.7660   68.7810  226.9180 C   0  0  0  0  0  0  0  0  0  0  0  0
  140.3170   69.3730  228.0520 C   0  0  0  0  0  0  0  0  0  0  0  0
  140.3140   68.6320  229.1970 F   0  0  0  0  0  0  0  0  0  0  0  0
  140.8440   70.6570  228.0170 C   0  0  0  0  0  0  0  0  0  0  0  0
  140.8220   71.3660  226.8300 C   0  0  0  0  0  0  0  0  0  0  0  0
  140.2810   70.8010  225.6920 C   0  0  0  0  0  0  0  0  0  0  0  0
  140.2970   71.5540  224.5750 N   0  0  0  0  0  0  0  0  0  0  0  0
  139.5740   73.7040  223.2820 H   0  0  0  0  0  0  0  0  0  0  0  0
  140.3675   73.7338  220.4063 H   0  0  0  0  0  0  0  0  0  0  0  0
  138.6364   74.1813  220.7640 H   0  0  0  0  0  0  0  0  0  0  0  0
  140.1327   75.0680  218.7256 H   0  0  0  0  0  0  0  0  0  0  0  0
  139.8732   76.7417  218.3961 H   0  0  0  0  0  0  0  0  0  0  0  0
  142.5994   75.3230  219.0018 H   0  0  0  0  0  0  0  0  0  0  0  0
  142.2583   76.1614  217.5327 H   0  0  0  0  0  0  0  0  0  0  0  0
  143.3903   77.4699  219.6855 H   0  0  0  0  0  0  0  0  0  0  0  0
  142.2329   78.3502  218.6818 H   0  0  0  0  0  0  0  0  0  0  0  0
  141.8436   77.5671  221.5233 H   0  0  0  0  0  0  0  0  0  0  0  0
  141.1727   79.6323  220.6662 H   0  0  0  0  0  0  0  0  0  0  0  0
  140.3054   78.8229  219.2705 H   0  0  0  0  0  0  0  0  0  0  0  0
  139.2880   77.8930  221.6170 H   0  0  0  0  0  0  0  0  0  0  0  0
  139.3085   80.8263  221.2588 H   0  0  0  0  0  0  0  0  0  0  0  0
  138.8476   81.6998  223.9305 H   0  0  0  0  0  0  0  0  0  0  0  0
  136.8369   81.8178  225.3891 H   0  0  0  0  0  0  0  0  0  0  0  0
  134.9740   80.1872  225.0833 H   0  0  0  0  0  0  0  0  0  0  0  0
  135.1525   78.4762  223.3209 H   0  0  0  0  0  0  0  0  0  0  0  0
  137.1348   78.3224  221.8416 H   0  0  0  0  0  0  0  0  0  0  0  0
  140.4821   78.0589  223.5376 H   0  0  0  0  0  0  0  0  0  0  0  0
  142.5456   78.2807  224.8543 H   0  0  0  0  0  0  0  0  0  0  0  0
  143.0918   82.2143  223.5064 H   0  0  0  0  0  0  0  0  0  0  0  0
  141.0364   82.0992  222.1522 H   0  0  0  0  0  0  0  0  0  0  0  0
  138.8319   69.3887  222.4871 H   0  0  0  0  0  0  0  0  0  0  0  0
  138.7995   67.9946  224.5354 H   0  0  0  0  0  0  0  0  0  0  0  0
  139.3498   67.7634  226.9530 H   0  0  0  0  0  0  0  0  0  0  0  0
  141.2746   71.1057  228.9243 H   0  0  0  0  0  0  0  0  0  0  0  0
  141.2371   72.3840  226.7921 H   0  0  0  0  0  0  0  0  0  0  0  0
  1  2  2  0
  2  3  1  0
  3  4  1  0
  4  5  1  0
  5  6  2  0
  5  7  1  0
  7  8  1  0
  8  9  1  0
  9 10  1  0
 10 11  1  0
 11 12  1  0
 12 13  1  0
 13 14  1  0
 14 15  1  0
 15 16  2  0
 16 17  1  0
 17 18  2  0
 18 19  1  0
 19 20  2  0
 14 21  1  0
 21 22  2  0
 22 23  1  0
 23 24  2  0
 24 25  1  0
 25 26  2  0
  2 27  1  0
 27 28  2  0
 28 29  1  0
 29 30  2  0
 30 31  1  0
 31 32  2  0
 32 33  1  0
 32 34  1  0
 34 35  2  0
 35 36  1  0
 36 37  2  0
 11  7  1  0
 20 15  1  0
 26 21  1  0
 37 27  1  0
 36 30  1  0
  3 38  1  0
  4 39  1  0
  4 40  1  0
  8 41  1  0
  8 42  1  0
  9 43  1  0
  9 44  1  0
 10 45  1  0
 10 46  1  0
 11 47  1  1
 12 48  1  0
 12 49  1  0
 13 50  1  0
 14 51  1  6
 16 52  1  0
 17 53  1  0
 18 54  1  0
 19 55  1  0
 20 56  1  0
 22 57  1  0
 23 58  1  0
 25 59  1  0
 26 60  1  0
 28 61  1  0
 29 62  1  0
 31 63  1  0
 34 64  1  0
 35 65  1  0
M  END
>  <smiles>  (78) 
O=C(NCC(=O)N1CCC[C@H]1CNC(c1ccccc1)c1ccncc1)c1ccc2cc(F)ccc2n1

>  <score_type>  (78) 
oracle

>  <origin>  (78) 
autodockgpu

>  <m_score__min__energy>  (78) 
-9.4299999999999997

>  <m_primary>  (78) 
energy

>  <rmsd>  (78) 
2.5312500407838576

>  <m_score__min__rmsd>  (78) 
2.5312500407838576

>  <meeko>  (78) 
{"free_energy": -8.69, "intermolecular_energy": -11.37, "internal_energy": -3.37, "cluster_size": 5, "cluster_id": 3, "rank_in_cluster": 4}

>  <energy>  (78) 
-8.78

>  <cluster_rmsd>  (78) 
1.34

>  <cluster>  (78) 
3

$$$$

     RDKit          3D

 65 69  0  0  1  0  0  0  0  0999 V2000
  137.2860   72.4500  222.1750 O   0  0  0  0  0  0  0  0  0  0  0  0
  136.8010   73.4900  222.6940 C   0  0  0  0  0  0  0  0  0  0  0  0
  137.2310   74.7670  222.2440 N   0  0  0  0  0  0  0  0  0  0  0  0
  138.2180   74.8950  221.1950 C   0  0  0  0  0  0  0  0  0  0  0  0
  139.6050   75.0360  221.7140 C   0  0  0  0  0  0  0  0  0  0  0  0
  139.9350   75.9600  222.4980 O   0  0  0  0  0  0  0  0  0  0  0  0
  140.5570   74.0820  221.2920 N   0  0  0  0  0  0  0  0  0  0  0  0
  141.9360   74.3060  220.8320 C   0  0  0  0  0  0  0  0  0  0  0  0
  141.8860   73.5150  219.5250 C   0  0  0  0  0  0  0  0  0  0  0  0
  141.2510   72.2270  220.0470 C   0  0  0  0  0  0  0  0  0  0  0  0
  140.3760   72.6530  221.2220 C   0  0  1  0  0  0  0  0  0  0  0  0
  140.9170   71.9210  222.4210 C   0  0  0  0  0  0  0  0  0  0  0  0
  140.0740   71.9990  223.5880 N   0  0  0  0  0  0  0  0  0  0  0  0
  140.0120   70.6740  224.1740 C   0  0  1  0  0  0  0  0  0  0  0  0
  140.3890   70.6880  225.6100 C   0  0  0  0  0  0  0  0  0  0  0  0
  140.4350   69.4980  226.3330 C   0  0  0  0  0  0  0  0  0  0  0  0
  140.7870   69.4950  227.6830 C   0  0  0  0  0  0  0  0  0  0  0  0
  141.0970   70.6820  228.3240 C   0  0  0  0  0  0  0  0  0  0  0  0
  141.0480   71.8500  227.6010 C   0  0  0  0  0  0  0  0  0  0  0  0
  140.7020   71.8890  226.2560 C   0  0  0  0  0  0  0  0  0  0  0  0
  138.6800   70.0270  223.9710 C   0  0  0  0  0  0  0  0  0  0  0  0
  138.3330   69.4320  222.7690 C   0  0  0  0  0  0  0  0  0  0  0  0
  137.0990   68.8460  222.6120 C   0  0  0  0  0  0  0  0  0  0  0  0
  136.2010   68.8280  223.6030 N   0  0  0  0  0  0  0  0  0  0  0  0
  136.5070   69.3910  224.7660 C   0  0  0  0  0  0  0  0  0  0  0  0
  137.7250   69.9970  224.9920 C   0  0  0  0  0  0  0  0  0  0  0  0
  135.7950   73.4390  223.7640 C   0  0  0  0  0  0  0  0  0  0  0  0
  135.1890   72.2500  224.1190 C   0  0  0  0  0  0  0  0  0  0  0  0
  134.2370   72.1690  225.1230 C   0  0  0  0  0  0  0  0  0  0  0  0
  133.8810   73.3310  225.7960 C   0  0  0  0  0  0  0  0  0  0  0  0
  132.9260   73.3160  226.8170 C   0  0  0  0  0  0  0  0  0  0  0  0
  132.6260   74.5250  227.4400 C   0  0  0  0  0  0  0  0  0  0  0  0
  131.6930   74.4900  228.4350 F   0  0  0  0  0  0  0  0  0  0  0  0
  133.2480   75.7080  227.0670 C   0  0  0  0  0  0  0  0  0  0  0  0
  134.1880   75.6900  226.0530 C   0  0  0  0  0  0  0  0  0  0  0  0
  134.5030   74.5040  225.4190 C   0  0  0  0  0  0  0  0  0  0  0  0
  135.4270   74.5660  224.4410 N   0  0  0  0  0  0  0  0  0  0  0  0
  136.8130   75.6330  222.6930 H   0  0  0  0  0  0  0  0  0  0  0  0
  138.1714   73.9987  220.5590 H   0  0  0  0  0  0  0  0  0  0  0  0
  137.9830   75.8109  220.6330 H   0  0  0  0  0  0  0  0  0  0  0  0
  142.1452   75.3722  220.6606 H   0  0  0  0  0  0  0  0  0  0  0  0
  142.7241   74.0034  221.5372 H   0  0  0  0  0  0  0  0  0  0  0  0
  141.2570   74.0076  218.7689 H   0  0  0  0  0  0  0  0  0  0  0  0
  142.8504   73.3914  219.0105 H   0  0  0  0  0  0  0  0  0  0  0  0
  140.6400   71.7544  219.2638 H   0  0  0  0  0  0  0  0  0  0  0  0
  142.0100   71.4901  220.3486 H   0  0  0  0  0  0  0  0  0  0  0  0
  139.3027   72.4244  221.1461 H   0  0  0  0  0  0  0  0  0  0  0  0
  141.0385   70.8611  222.1528 H   0  0  0  0  0  0  0  0  0  0  0  0
  141.8693   72.4044  222.6847 H   0  0  0  0  0  0  0  0  0  0  0  0
  139.1400   72.3390  223.2740 H   0  0  0  0  0  0  0  0  0  0  0  0
  140.7542   70.0619  223.6406 H   0  0  0  0  0  0  0  0  0  0  0  0
  140.1907   68.5490  225.8332 H   0  0  0  0  0  0  0  0  0  0  0  0
  140.8183   68.5467  228.2395 H   0  0  0  0  0  0  0  0  0  0  0  0
  141.3762   70.6904  229.3879 H   0  0  0  0  0  0  0  0  0  0  0  0
  141.2933   72.7943  228.1091 H   0  0  0  0  0  0  0  0  0  0  0  0
  140.6747   72.8438  225.7105 H   0  0  0  0  0  0  0  0  0  0  0  0
  139.0496   69.4283  221.9344 H   0  0  0  0  0  0  0  0  0  0  0  0
  136.8443   68.3809  221.6483 H   0  0  0  0  0  0  0  0  0  0  0  0
  135.7637   69.3734  225.5767 H   0  0  0  0  0  0  0  0  0  0  0  0
  137.9438   70.4536  225.9686 H   0  0  0  0  0  0  0  0  0  0  0  0
  135.4728   71.3316  223.5842 H   0  0  0  0  0  0  0  0  0  0  0  0
  133.7734   71.2055  225.3814 H   0  0  0  0  0  0  0  0  0  0  0  0
  132.4289   72.3820  227.1178 H   0  0  0  0  0  0  0  0  0  0  0  0
  132.9956   76.6514  227.5733 H   0  0  0  0  0  0  0  0  0  0  0  0
  134.6863   76.6228  225.7504 H   0  0  0  0  0  0  0  0  0  0  0  0
  1  2  2  0
  2  3  1  0
  3  4  1  0
  4  5  1  0
  5  6  2  0
  5  7  1  0
  7  8  1  0
  8  9  1  0
  9 10  1  0
 10 11  1  0
 11 12  1  0
 12 13  1  0
 13 14  1  0
 14 15  1  0
 15 16  2  0
 16 17  1  0
 17 18  2  0
 18 19  1  0
 19 20  2  0
 14 21  1  0
 21 22  2  0
 22 23  1  0
 23 24  2  0
 24 25  1  0
 25 26  2  0
  2 27  1  0
 27 28  2  0
 28 29  1  0
 29 30  2  0
 30 31  1  0
 31 32  2  0
 32 33  1  0
 32 34  1  0
 34 35  2  0
 35 36  1  0
 36 37  2  0
 11  7  1  0
 20 15  1  0
 26 21  1  0
 37 27  1  0
 36 30  1  0
  3 38  1  0
  4 39  1  0
  4 40  1  0
  8 41  1  0
  8 42  1  0
  9 43  1  0
  9 44  1  0
 10 45  1  0
 10 46  1  0
 11 47  1  6
 12 48  1  0
 12 49  1  0
 13 50  1  0
 14 51  1  6
 16 52  1  0
 17 53  1  0
 18 54  1  0
 19 55  1  0
 20 56  1  0
 22 57  1  0
 23 58  1  0
 25 59  1  0
 26 60  1  0
 28 61  1  0
 29 62  1  0
 31 63  1  0
 34 64  1  0
 35 65  1  0
M  END
>  <smiles>  (79) 
O=C(NCC(=O)N1CCC[C@H]1CNC(c1ccccc1)c1ccncc1)c1ccc2cc(F)ccc2n1

>  <score_type>  (79) 
oracle

>  <origin>  (79) 
autodockgpu

>  <m_score__min__energy>  (79) 
-9.4299999999999997

>  <m_primary>  (79) 
energy

>  <rmsd>  (79) 
7.925421691610908

>  <m_score__min__rmsd>  (79) 
7.925421691610908

>  <meeko>  (79) 
{"free_energy": -7.89, "intermolecular_energy": -10.58, "internal_energy": -4.02, "cluster_size": 1, "cluster_id": 4, "rank_in_cluster": 1}

>  <energy>  (79) 
-8.69

>  <cluster_rmsd>  (79) 
0.49

>  <cluster>  (79) 
3

$$$$

     RDKit          3D

 65 69  0  0  1  0  0  0  0  0999 V2000
  140.8730   73.4280  222.1620 O   0  0  0  0  0  0  0  0  0  0  0  0
  140.2970   72.3080  222.1330 C   0  0  0  0  0  0  0  0  0  0  0  0
  139.8190   71.7950  220.8980 N   0  0  0  0  0  0  0  0  0  0  0  0
  139.9840   72.5360  219.6670 C   0  0  0  0  0  0  0  0  0  0  0  0
  139.7890   74.0010  219.8410 C   0  0  0  0  0  0  0  0  0  0  0  0
  138.7710   74.4790  220.3970 O   0  0  0  0  0  0  0  0  0  0  0  0
  140.8040   74.8540  219.3520 N   0  0  0  0  0  0  0  0  0  0  0  0
  140.9120   75.4840  218.0270 C   0  0  0  0  0  0  0  0  0  0  0  0
  142.3360   75.0610  217.6740 C   0  0  0  0  0  0  0  0  0  0  0  0
  143.0340   75.4510  218.9760 C   0  0  0  0  0  0  0  0  0  0  0  0
  141.9760   75.2980  220.0640 C   0  0  1  0  0  0  0  0  0  0  0  0
  141.8220   76.6630  220.6790 C   0  0  0  0  0  0  0  0  0  0  0  0
  140.4540   77.0910  220.8280 N   0  0  0  0  0  0  0  0  0  0  0  0
  140.2540   77.4480  222.2200 C   0  0  1  0  0  0  0  0  0  0  0  0
  141.0090   78.6710  222.5890 C   0  0  0  0  0  0  0  0  0  0  0  0
  141.1250   79.7230  221.6830 C   0  0  0  0  0  0  0  0  0  0  0  0
  141.8310   80.8800  222.0170 C   0  0  0  0  0  0  0  0  0  0  0  0
  142.4290   80.9960  223.2590 C   0  0  0  0  0  0  0  0  0  0  0  0
  142.3090   79.9510  224.1450 C   0  0  0  0  0  0  0  0  0  0  0  0
  141.6130   78.7870  223.8470 C   0  0  0  0  0  0  0  0  0  0  0  0
  138.8060   77.5800  222.5680 C   0  0  0  0  0  0  0  0  0  0  0  0
  137.9860   76.4720  222.7110 C   0  0  0  0  0  0  0  0  0  0  0  0
  136.6580   76.6260  223.0310 C   0  0  0  0  0  0  0  0  0  0  0  0
  136.1160   77.8350  223.2150 N   0  0  0  0  0  0  0  0  0  0  0  0
  136.8790   78.9140  223.0840 C   0  0  0  0  0  0  0  0  0  0  0  0
  138.2180   78.8330  222.7640 C   0  0  0  0  0  0  0  0  0  0  0  0
  140.0940   71.4970  223.3420 C   0  0  0  0  0  0  0  0  0  0  0  0
  139.3500   70.3350  223.3060 C   0  0  0  0  0  0  0  0  0  0  0  0
  139.1410   69.5490  224.4290 C   0  0  0  0  0  0  0  0  0  0  0  0
  139.7020   69.9500  225.6340 C   0  0  0  0  0  0  0  0  0  0  0  0
  139.5270   69.2020  226.8030 C   0  0  0  0  0  0  0  0  0  0  0  0
  140.1230   69.6750  227.9690 C   0  0  0  0  0  0  0  0  0  0  0  0
  139.9420   68.9310  229.0980 F   0  0  0  0  0  0  0  0  0  0  0  0
  140.8670   70.8460  227.9810 C   0  0  0  0  0  0  0  0  0  0  0  0
  141.0210   71.5640  226.8090 C   0  0  0  0  0  0  0  0  0  0  0  0
  140.4400   71.1170  225.6390 C   0  0  0  0  0  0  0  0  0  0  0  0
  140.6350   71.8690  224.5390 N   0  0  0  0  0  0  0  0  0  0  0  0
  139.3360   70.8500  220.8920 H   0  0  0  0  0  0  0  0  0  0  0  0
  141.0006   72.3603  219.2854 H   0  0  0  0  0  0  0  0  0  0  0  0
  139.2154   72.1824  218.9640 H   0  0  0  0  0  0  0  0  0  0  0  0
  140.1745   75.0806  217.3176 H   0  0  0  0  0  0  0  0  0  0  0  0
  140.7213   76.5671  218.0022 H   0  0  0  0  0  0  0  0  0  0  0  0
  142.4078   73.9815  217.4754 H   0  0  0  0  0  0  0  0  0  0  0  0
  142.7508   75.5148  216.7618 H   0  0  0  0  0  0  0  0  0  0  0  0
  143.8860   74.7831  219.1710 H   0  0  0  0  0  0  0  0  0  0  0  0
  143.4338   76.4749  218.9351 H   0  0  0  0  0  0  0  0  0  0  0  0
  142.2010   74.5887  220.8741 H   0  0  0  0  0  0  0  0  0  0  0  0
  142.2895   76.6479  221.6746 H   0  0  0  0  0  0  0  0  0  0  0  0
  142.3041   77.3756  219.9936 H   0  0  0  0  0  0  0  0  0  0  0  0
  139.8460   76.2970  220.5300 H   0  0  0  0  0  0  0  0  0  0  0  0
  140.6559   76.6159  222.8168 H   0  0  0  0  0  0  0  0  0  0  0  0
  140.6544   79.6409  220.6921 H   0  0  0  0  0  0  0  0  0  0  0  0
  141.9120   81.7019  221.2904 H   0  0  0  0  0  0  0  0  0  0  0  0
  142.9878   81.9034  223.5318 H   0  0  0  0  0  0  0  0  0  0  0  0
  142.7850   80.0412  225.1326 H   0  0  0  0  0  0  0  0  0  0  0  0
  141.5377   77.9734  224.5834 H   0  0  0  0  0  0  0  0  0  0  0  0
  138.4003   75.4631  222.5676 H   0  0  0  0  0  0  0  0  0  0  0  0
  136.0252   75.7327  223.1385 H   0  0  0  0  0  0  0  0  0  0  0  0
  136.4278   79.9057  223.2358 H   0  0  0  0  0  0  0  0  0  0  0  0
  138.8195   79.7485  222.6637 H   0  0  0  0  0  0  0  0  0  0  0  0
  138.9060   70.0205  222.3500 H   0  0  0  0  0  0  0  0  0  0  0  0
  138.5435   68.6275  224.3665 H   0  0  0  0  0  0  0  0  0  0  0  0
  138.9389   68.2724  226.8011 H   0  0  0  0  0  0  0  0  0  0  0  0
  141.3300   71.2000  228.9139 H   0  0  0  0  0  0  0  0  0  0  0  0
  141.6082   72.4941  226.8090 H   0  0  0  0  0  0  0  0  0  0  0  0
  1  2  2  0
  2  3  1  0
  3  4  1  0
  4  5  1  0
  5  6  2  0
  5  7  1  0
  7  8  1  0
  8  9  1  0
  9 10  1  0
 10 11  1  0
 11 12  1  0
 12 13  1  0
 13 14  1  0
 14 15  1  0
 15 16  2  0
 16 17  1  0
 17 18  2  0
 18 19  1  0
 19 20  2  0
 14 21  1  0
 21 22  2  0
 22 23  1  0
 23 24  2  0
 24 25  1  0
 25 26  2  0
  2 27  1  0
 27 28  2  0
 28 29  1  0
 29 30  2  0
 30 31  1  0
 31 32  2  0
 32 33  1  0
 32 34  1  0
 34 35  2  0
 35 36  1  0
 36 37  2  0
 11  7  1  0
 20 15  1  0
 26 21  1  0
 37 27  1  0
 36 30  1  0
  3 38  1  0
  4 39  1  0
  4 40  1  0
  8 41  1  0
  8 42  1  0
  9 43  1  0
  9 44  1  0
 10 45  1  0
 10 46  1  0
 11 47  1  1
 12 48  1  0
 12 49  1  0
 13 50  1  0
 14 51  1  1
 16 52  1  0
 17 53  1  0
 18 54  1  0
 19 55  1  0
 20 56  1  0
 22 57  1  0
 23 58  1  0
 25 59  1  0
 26 60  1  0
 28 61  1  0
 29 62  1  0
 31 63  1  0
 34 64  1  0
 35 65  1  0
M  END
>  <smiles>  (80) 
O=C(NCC(=O)N1CCC[C@H]1CNC(c1ccccc1)c1ccncc1)c1ccc2cc(F)ccc2n1

>  <score_type>  (80) 
oracle

>  <origin>  (80) 
autodockgpu

>  <m_score__min__energy>  (80) 
-9.4299999999999997

>  <m_primary>  (80) 
energy

>  <rmsd>  (80) 
2.5382701058867614

>  <m_score__min__rmsd>  (80) 
2.5382701058867614

>  <meeko>  (80) 
{"free_energy": -8.54, "intermolecular_energy": -11.23, "internal_energy": -2.95, "cluster_size": 6, "cluster_id": 2, "rank_in_cluster": 6}

>  <energy>  (80) 
-8.62

>  <cluster_rmsd>  (80) 
1.6

>  <cluster>  (80) 
3

$$$$

     RDKit          3D

 65 69  0  0  1  0  0  0  0  0999 V2000
  141.0650   73.4730  222.3430 O   0  0  0  0  0  0  0  0  0  0  0  0
  140.1730   72.5840  222.3630 C   0  0  0  0  0  0  0  0  0  0  0  0
  139.2860   72.4520  221.2620 N   0  0  0  0  0  0  0  0  0  0  0  0
  139.3900   73.3220  220.1120 C   0  0  0  0  0  0  0  0  0  0  0  0
  138.2250   74.2360  219.9670 C   0  0  0  0  0  0  0  0  0  0  0  0
  137.6470   74.4150  218.8670 O   0  0  0  0  0  0  0  0  0  0  0  0
  137.7790   74.9100  221.1260 N   0  0  0  0  0  0  0  0  0  0  0  0
  136.7440   74.4940  222.0860 C   0  0  0  0  0  0  0  0  0  0  0  0
  135.9070   75.7720  222.1060 C   0  0  0  0  0  0  0  0  0  0  0  0
  137.0290   76.7920  222.2940 C   0  0  0  0  0  0  0  0  0  0  0  0
  138.2550   76.1750  221.6270 C   0  0  1  0  0  0  0  0  0  0  0  0
  139.2870   76.0390  222.7140 C   0  0  0  0  0  0  0  0  0  0  0  0
  140.6450   76.2010  222.2590 N   0  0  0  0  0  0  0  0  0  0  0  0
  140.7010   77.4140  221.4660 C   0  0  1  0  0  0  0  0  0  0  0  0
  141.0460   78.5980  222.2930 C   0  0  0  0  0  0  0  0  0  0  0  0
  142.3710   79.0180  222.3970 C   0  0  0  0  0  0  0  0  0  0  0  0
  142.7100   80.1290  223.1700 C   0  0  0  0  0  0  0  0  0  0  0  0
  141.7290   80.8310  223.8480 C   0  0  0  0  0  0  0  0  0  0  0  0
  140.4260   80.4080  223.7390 C   0  0  0  0  0  0  0  0  0  0  0  0
  140.0520   79.3070  222.9780 C   0  0  0  0  0  0  0  0  0  0  0  0
  141.6230   77.2840  220.2960 C   0  0  0  0  0  0  0  0  0  0  0  0
  141.7380   78.2820  219.3430 C   0  0  0  0  0  0  0  0  0  0  0  0
  142.5950   78.1330  218.2780 C   0  0  0  0  0  0  0  0  0  0  0  0
  143.3400   77.0330  218.1260 N   0  0  0  0  0  0  0  0  0  0  0  0
  143.2500   76.0590  219.0260 C   0  0  0  0  0  0  0  0  0  0  0  0
  142.4110   76.1430  220.1180 C   0  0  0  0  0  0  0  0  0  0  0  0
  140.0070   71.6620  223.4970 C   0  0  0  0  0  0  0  0  0  0  0  0
  139.2460   70.5170  223.3810 C   0  0  0  0  0  0  0  0  0  0  0  0
  139.0710   69.6290  224.4320 C   0  0  0  0  0  0  0  0  0  0  0  0
  139.6870   69.9060  225.6450 C   0  0  0  0  0  0  0  0  0  0  0  0
  139.5480   69.0510  226.7430 C   0  0  0  0  0  0  0  0  0  0  0  0
  140.1980   69.4030  227.9230 C   0  0  0  0  0  0  0  0  0  0  0  0
  140.0520   68.5560  228.9820 F   0  0  0  0  0  0  0  0  0  0  0  0
  140.9590   70.5600  228.0160 C   0  0  0  0  0  0  0  0  0  0  0  0
  141.0750   71.3860  226.9130 C   0  0  0  0  0  0  0  0  0  0  0  0
  140.4410   71.0590  225.7300 C   0  0  0  0  0  0  0  0  0  0  0  0
  140.6020   71.9120  224.7000 N   0  0  0  0  0  0  0  0  0  0  0  0
  138.5400   71.6980  221.2960 H   0  0  0  0  0  0  0  0  0  0  0  0
  140.3015   73.9294  220.2133 H   0  0  0  0  0  0  0  0  0  0  0  0
  139.4198   72.6826  219.2174 H   0  0  0  0  0  0  0  0  0  0  0  0
  136.1683   73.6299  221.7228 H   0  0  0  0  0  0  0  0  0  0  0  0
  137.1156   74.1571  223.0650 H   0  0  0  0  0  0  0  0  0  0  0  0
  135.3653   75.9247  221.1609 H   0  0  0  0  0  0  0  0  0  0  0  0
  135.1093   75.8024  222.8628 H   0  0  0  0  0  0  0  0  0  0  0  0
  136.7673   77.7451  221.8113 H   0  0  0  0  0  0  0  0  0  0  0  0
  137.2087   77.0106  223.3570 H   0  0  0  0  0  0  0  0  0  0  0  0
  138.7091   76.7464  220.8040 H   0  0  0  0  0  0  0  0  0  0  0  0
  139.0855   76.8030  223.4793 H   0  0  0  0  0  0  0  0  0  0  0  0
  139.2033   75.0142  223.1048 H   0  0  0  0  0  0  0  0  0  0  0  0
  140.8900   75.3530  221.7040 H   0  0  0  0  0  0  0  0  0  0  0  0
  139.6890   77.5713  221.0647 H   0  0  0  0  0  0  0  0  0  0  0  0
  143.1591   78.4668  221.8631 H   0  0  0  0  0  0  0  0  0  0  0  0
  143.7604   80.4479  223.2407 H   0  0  0  0  0  0  0  0  0  0  0  0
  141.9863   81.7078  224.4604 H   0  0  0  0  0  0  0  0  0  0  0  0
  139.6452   80.9651  224.2775 H   0  0  0  0  0  0  0  0  0  0  0  0
  138.9978   78.9992  222.9152 H   0  0  0  0  0  0  0  0  0  0  0  0
  141.1398   79.2002  219.4385 H   0  0  0  0  0  0  0  0  0  0  0  0
  142.6696   78.9386  217.5327 H   0  0  0  0  0  0  0  0  0  0  0  0
  143.8648   75.1562  218.8959 H   0  0  0  0  0  0  0  0  0  0  0  0
  142.3624   75.3178  220.8437 H   0  0  0  0  0  0  0  0  0  0  0  0
  138.7596   70.3002  222.4185 H   0  0  0  0  0  0  0  0  0  0  0  0
  138.4573   68.7247  224.3072 H   0  0  0  0  0  0  0  0  0  0  0  0
  138.9462   68.1326  226.6767 H   0  0  0  0  0  0  0  0  0  0  0  0
  141.4650   70.8175  228.9581 H   0  0  0  0  0  0  0  0  0  0  0  0
  141.6740   72.3063  226.9778 H   0  0  0  0  0  0  0  0  0  0  0  0
  1  2  2  0
  2  3  1  0
  3  4  1  0
  4  5  1  0
  5  6  2  0
  5  7  1  0
  7  8  1  0
  8  9  1  0
  9 10  1  0
 10 11  1  0
 11 12  1  0
 12 13  1  0
 13 14  1  0
 14 15  1  0
 15 16  2  0
 16 17  1  0
 17 18  2  0
 18 19  1  0
 19 20  2  0
 14 21  1  0
 21 22  2  0
 22 23  1  0
 23 24  2  0
 24 25  1  0
 25 26  2  0
  2 27  1  0
 27 28  2  0
 28 29  1  0
 29 30  2  0
 30 31  1  0
 31 32  2  0
 32 33  1  0
 32 34  1  0
 34 35  2  0
 35 36  1  0
 36 37  2  0
 11  7  1  0
 20 15  1  0
 26 21  1  0
 37 27  1  0
 36 30  1  0
  3 38  1  0
  4 39  1  0
  4 40  1  0
  8 41  1  0
  8 42  1  0
  9 43  1  0
  9 44  1  0
 10 45  1  0
 10 46  1  0
 11 47  1  6
 12 48  1  0
 12 49  1  0
 13 50  1  0
 14 51  1  6
 16 52  1  0
 17 53  1  0
 18 54  1  0
 19 55  1  0
 20 56  1  0
 22 57  1  0
 23 58  1  0
 25 59  1  0
 26 60  1  0
 28 61  1  0
 29 62  1  0
 31 63  1  0
 34 64  1  0
 35 65  1  0
M  END
>  <smiles>  (81) 
O=C(NCC(=O)N1CCC[C@H]1CNC(c1ccccc1)c1ccncc1)c1ccc2cc(F)ccc2n1

>  <score_type>  (81) 
oracle

>  <origin>  (81) 
autodockgpu

>  <m_score__min__energy>  (81) 
-9.4299999999999997

>  <m_primary>  (81) 
energy

>  <rmsd>  (81) 
3.208000568772447

>  <m_score__min__rmsd>  (81) 
3.208000568772447

>  <meeko>  (81) 
{"free_energy": -8.88, "intermolecular_energy": -11.57, "internal_energy": -3.35, "cluster_size": 19, "cluster_id": 1, "rank_in_cluster": 10}

>  <energy>  (81) 
-7.89

>  <cluster_rmsd>  (81) 
0.0

>  <cluster>  (81) 
4

$$$$

     RDKit          3D

 65 69  0  0  1  0  0  0  0  0999 V2000
  139.6430   73.9280  222.3600 O   0  0  0  0  0  0  0  0  0  0  0  0
  140.1900   74.8010  221.6360 C   0  0  0  0  0  0  0  0  0  0  0  0
  140.9100   74.4040  220.4770 N   0  0  0  0  0  0  0  0  0  0  0  0
  141.0250   73.0090  220.1120 C   0  0  0  0  0  0  0  0  0  0  0  0
  142.2160   72.3480  220.7100 C   0  0  0  0  0  0  0  0  0  0  0  0
  142.1200   71.5130  221.6430 O   0  0  0  0  0  0  0  0  0  0  0  0
  143.4820   72.6910  220.1860 N   0  0  0  0  0  0  0  0  0  0  0  0
  144.0700   72.3150  218.8910 C   0  0  0  0  0  0  0  0  0  0  0  0
  145.4130   71.7770  219.3830 C   0  0  0  0  0  0  0  0  0  0  0  0
  145.8060   72.9240  220.3130 C   0  0  0  0  0  0  0  0  0  0  0  0
  144.4890   73.5020  220.8230 C   0  0  1  0  0  0  0  0  0  0  0  0
  144.4730   74.9390  220.3760 C   0  0  0  0  0  0  0  0  0  0  0  0
  143.1670   75.4280  220.0150 N   0  0  0  0  0  0  0  0  0  0  0  0
  143.3190   76.2530  218.8320 C   0  0  1  0  0  0  0  0  0  0  0  0
  143.3460   75.4390  217.5910 C   0  0  0  0  0  0  0  0  0  0  0  0
  144.4100   75.5550  216.6990 C   0  0  0  0  0  0  0  0  0  0  0  0
  144.4490   74.7970  215.5290 C   0  0  0  0  0  0  0  0  0  0  0  0
  143.4240   73.9140  215.2370 C   0  0  0  0  0  0  0  0  0  0  0  0
  142.3780   73.8080  216.1230 C   0  0  0  0  0  0  0  0  0  0  0  0
  142.3070   74.5470  217.2970 C   0  0  0  0  0  0  0  0  0  0  0  0
  142.2790   77.3250  218.7520 C   0  0  0  0  0  0  0  0  0  0  0  0
  142.6180   78.6600  218.6060 C   0  0  0  0  0  0  0  0  0  0  0  0
  141.6390   79.6230  218.5370 C   0  0  0  0  0  0  0  0  0  0  0  0
  140.3400   79.3100  218.6060 N   0  0  0  0  0  0  0  0  0  0  0  0
  139.9870   78.0370  218.7470 C   0  0  0  0  0  0  0  0  0  0  0  0
  140.9160   77.0210  218.8240 C   0  0  0  0  0  0  0  0  0  0  0  0
  140.1160   76.2370  221.9430 C   0  0  0  0  0  0  0  0  0  0  0  0
  138.9310   76.8210  222.3450 C   0  0  0  0  0  0  0  0  0  0  0  0
  138.8280   78.1710  222.6420 C   0  0  0  0  0  0  0  0  0  0  0  0
  139.9630   78.9630  222.5290 C   0  0  0  0  0  0  0  0  0  0  0  0
  139.9250   80.3320  222.8130 C   0  0  0  0  0  0  0  0  0  0  0  0
  141.1080   81.0550  222.6750 C   0  0  0  0  0  0  0  0  0  0  0  0
  141.0510   82.3880  222.9580 F   0  0  0  0  0  0  0  0  0  0  0  0
  142.2870   80.4460  222.2700 C   0  0  0  0  0  0  0  0  0  0  0  0
  142.2920   79.0910  221.9960 C   0  0  0  0  0  0  0  0  0  0  0  0
  141.1320   78.3520  222.1250 C   0  0  0  0  0  0  0  0  0  0  0  0
  141.2160   77.0370  221.8410 N   0  0  0  0  0  0  0  0  0  0  0  0
  141.3660   75.1530  219.8790 H   0  0  0  0  0  0  0  0  0  0  0  0
  140.1225   72.4815  220.4544 H   0  0  0  0  0  0  0  0  0  0  0  0
  141.1375   72.9631  219.0187 H   0  0  0  0  0  0  0  0  0  0  0  0
  143.4788   71.5415  218.3790 H   0  0  0  0  0  0  0  0  0  0  0  0
  144.1289   73.1228  218.1467 H   0  0  0  0  0  0  0  0  0  0  0  0
  145.3025   70.8263  219.9251 H   0  0  0  0  0  0  0  0  0  0  0  0
  146.1424   71.5362  218.5956 H   0  0  0  0  0  0  0  0  0  0  0  0
  146.4120   72.5494  221.1511 H   0  0  0  0  0  0  0  0  0  0  0  0
  146.4116   73.6818  219.7944 H   0  0  0  0  0  0  0  0  0  0  0  0
  144.3330   73.4884  221.9118 H   0  0  0  0  0  0  0  0  0  0  0  0
  144.8598   75.5605  221.1970 H   0  0  0  0  0  0  0  0  0  0  0  0
  145.0948   74.9965  219.4704 H   0  0  0  0  0  0  0  0  0  0  0  0
  142.8010   75.9660  220.8300 H   0  0  0  0  0  0  0  0  0  0  0  0
  144.2946   76.7527  218.9241 H   0  0  0  0  0  0  0  0  0  0  0  0
  145.2302   76.2537  216.9205 H   0  0  0  0  0  0  0  0  0  0  0  0
  145.2970   74.9012  214.8362 H   0  0  0  0  0  0  0  0  0  0  0  0
  143.4457   73.3110  214.3173 H   0  0  0  0  0  0  0  0  0  0  0  0
  141.5619   73.1075  215.8921 H   0  0  0  0  0  0  0  0  0  0  0  0
  141.4531   74.4341  217.9811 H   0  0  0  0  0  0  0  0  0  0  0  0
  143.6769   78.9516  218.5449 H   0  0  0  0  0  0  0  0  0  0  0  0
  141.9311   80.6773  218.4222 H   0  0  0  0  0  0  0  0  0  0  0  0
  138.9178   77.7851  218.8042 H   0  0  0  0  0  0  0  0  0  0  0  0
  140.5870   75.9779  218.9413 H   0  0  0  0  0  0  0  0  0  0  0  0
  138.0340   76.1904  222.4330 H   0  0  0  0  0  0  0  0  0  0  0  0
  137.8687   78.6052  222.9601 H   0  0  0  0  0  0  0  0  0  0  0  0
  138.9934   80.8209  223.1342 H   0  0  0  0  0  0  0  0  0  0  0  0
  143.2097   81.0361  222.1678 H   0  0  0  0  0  0  0  0  0  0  0  0
  143.2223   78.5999  221.6744 H   0  0  0  0  0  0  0  0  0  0  0  0
  1  2  2  0
  2  3  1  0
  3  4  1  0
  4  5  1  0
  5  6  2  0
  5  7  1  0
  7  8  1  0
  8  9  1  0
  9 10  1  0
 10 11  1  0
 11 12  1  0
 12 13  1  0
 13 14  1  0
 14 15  1  0
 15 16  2  0
 16 17  1  0
 17 18  2  0
 18 19  1  0
 19 20  2  0
 14 21  1  0
 21 22  2  0
 22 23  1  0
 23 24  2  0
 24 25  1  0
 25 26  2  0
  2 27  1  0
 27 28  2  0
 28 29  1  0
 29 30  2  0
 30 31  1  0
 31 32  2  0
 32 33  1  0
 32 34  1  0
 34 35  2  0
 35 36  1  0
 36 37  2  0
 11  7  1  0
 20 15  1  0
 26 21  1  0
 37 27  1  0
 36 30  1  0
  3 38  1  0
  4 39  1  0
  4 40  1  0
  8 41  1  0
  8 42  1  0
  9 43  1  0
  9 44  1  0
 10 45  1  0
 10 46  1  0
 11 47  1  1
 12 48  1  0
 12 49  1  0
 13 50  1  0
 14 51  1  1
 16 52  1  0
 17 53  1  0
 18 54  1  0
 19 55  1  0
 20 56  1  0
 22 57  1  0
 23 58  1  0
 25 59  1  0
 26 60  1  0
 28 61  1  0
 29 62  1  0
 31 63  1  0
 34 64  1  0
 35 65  1  0
M  END
>  <smiles>  (82) 
O=C(NCC(=O)N1CCC[C@H]1CNC(c1ccccc1)c1ccncc1)c1ccc2cc(F)ccc2n1

>  <score_type>  (82) 
oracle

>  <origin>  (82) 
autodockgpu

>  <m_score__min__energy>  (82) 
-9.4299999999999997

>  <m_primary>  (82) 
energy

>  <rmsd>  (82) 
7.994459351785607

>  <m_score__min__rmsd>  (82) 
7.994459351785607

>  <meeko>  (82) 
{"free_energy": -6.21, "intermolecular_energy": -8.9, "internal_energy": -5.57, "cluster_size": 8, "cluster_id": 8, "rank_in_cluster": 8}

>  <energy>  (82) 
-7.61

>  <cluster_rmsd>  (82) 
0.0

>  <cluster>  (82) 
5

$$$$

     RDKit          3D

 65 69  0  0  1  0  0  0  0  0999 V2000
  141.0670   73.3620  222.3240 O   0  0  0  0  0  0  0  0  0  0  0  0
  140.1470   72.5040  222.3970 C   0  0  0  0  0  0  0  0  0  0  0  0
  139.2010   72.3950  221.3430 N   0  0  0  0  0  0  0  0  0  0  0  0
  139.2770   73.2530  220.1810 C   0  0  0  0  0  0  0  0  0  0  0  0
  138.1270   74.1920  220.0750 C   0  0  0  0  0  0  0  0  0  0  0  0
  137.5930   74.4740  218.9750 O   0  0  0  0  0  0  0  0  0  0  0  0
  137.6450   74.7650  221.2720 N   0  0  0  0  0  0  0  0  0  0  0  0
  136.8450   74.1340  222.3340 C   0  0  0  0  0  0  0  0  0  0  0  0
  135.7230   75.1650  222.4360 C   0  0  0  0  0  0  0  0  0  0  0  0
  136.5690   76.4360  222.5070 C   0  0  0  0  0  0  0  0  0  0  0  0
  137.8370   76.1220  221.7190 C   0  0  1  0  0  0  0  0  0  0  0  0
  138.9730   76.2770  222.6940 C   0  0  0  0  0  0  0  0  0  0  0  0
  140.2590   75.9020  222.1640 N   0  0  0  0  0  0  0  0  0  0  0  0
  140.7000   76.9690  221.2860 C   0  0  1  0  0  0  0  0  0  0  0  0
  141.1580   78.1570  222.0480 C   0  0  0  0  0  0  0  0  0  0  0  0
  141.4970   78.0380  223.3940 C   0  0  0  0  0  0  0  0  0  0  0  0
  141.9300   79.1460  224.1240 C   0  0  0  0  0  0  0  0  0  0  0  0
  142.0260   80.3850  223.5150 C   0  0  0  0  0  0  0  0  0  0  0  0
  141.6880   80.4920  222.1870 C   0  0  0  0  0  0  0  0  0  0  0  0
  141.2550   79.4090  221.4310 C   0  0  0  0  0  0  0  0  0  0  0  0
  141.7450   76.5100  220.3190 C   0  0  0  0  0  0  0  0  0  0  0  0
  142.1190   77.2800  219.2310 C   0  0  0  0  0  0  0  0  0  0  0  0
  143.0830   76.8320  218.3580 C   0  0  0  0  0  0  0  0  0  0  0  0
  143.6870   75.6510  218.5290 N   0  0  0  0  0  0  0  0  0  0  0  0
  143.3480   74.8920  219.5650 C   0  0  0  0  0  0  0  0  0  0  0  0
  142.3890   75.2800  220.4770 C   0  0  0  0  0  0  0  0  0  0  0  0
  140.0070   71.5970  223.5460 C   0  0  0  0  0  0  0  0  0  0  0  0
  139.2790   70.4290  223.4490 C   0  0  0  0  0  0  0  0  0  0  0  0
  139.1290   69.5540  224.5140 C   0  0  0  0  0  0  0  0  0  0  0  0
  139.7360   69.8690  225.7230 C   0  0  0  0  0  0  0  0  0  0  0  0
  139.6220   69.0290  226.8340 C   0  0  0  0  0  0  0  0  0  0  0  0
  140.2610   69.4180  228.0090 C   0  0  0  0  0  0  0  0  0  0  0  0
  140.1390   68.5850  229.0820 F   0  0  0  0  0  0  0  0  0  0  0  0
  140.9890   70.5980  228.0820 C   0  0  0  0  0  0  0  0  0  0  0  0
  141.0830   71.4070  226.9650 C   0  0  0  0  0  0  0  0  0  0  0  0
  140.4570   71.0440  225.7880 C   0  0  0  0  0  0  0  0  0  0  0  0
  140.5950   71.8840  224.7440 N   0  0  0  0  0  0  0  0  0  0  0  0
  138.4320   71.6680  221.4210 H   0  0  0  0  0  0  0  0  0  0  0  0
  140.2051   73.8406  220.2393 H   0  0  0  0  0  0  0  0  0  0  0  0
  139.2560   72.6055  219.2920 H   0  0  0  0  0  0  0  0  0  0  0  0
  136.4694   73.1446  222.0342 H   0  0  0  0  0  0  0  0  0  0  0  0
  137.3831   73.9275  223.2709 H   0  0  0  0  0  0  0  0  0  0  0  0
  135.0706   75.1531  221.5504 H   0  0  0  0  0  0  0  0  0  0  0  0
  135.0208   75.0179  223.2698 H   0  0  0  0  0  0  0  0  0  0  0  0
  136.0324   77.2816  222.0520 H   0  0  0  0  0  0  0  0  0  0  0  0
  136.7925   76.7217  223.5455 H   0  0  0  0  0  0  0  0  0  0  0  0
  138.0498   76.7642  220.8516 H   0  0  0  0  0  0  0  0  0  0  0  0
  139.0211   77.3315  223.0033 H   0  0  0  0  0  0  0  0  0  0  0  0
  138.7655   75.5968  223.5332 H   0  0  0  0  0  0  0  0  0  0  0  0
  140.1360   74.9980  221.6600 H   0  0  0  0  0  0  0  0  0  0  0  0
  139.8220   77.2709  220.6961 H   0  0  0  0  0  0  0  0  0  0  0  0
  141.4224   77.0580  223.8879 H   0  0  0  0  0  0  0  0  0  0  0  0
  142.1955   79.0342  225.1856 H   0  0  0  0  0  0  0  0  0  0  0  0
  142.3654   81.2649  224.0813 H   0  0  0  0  0  0  0  0  0  0  0  0
  141.7634   81.4764  221.7020 H   0  0  0  0  0  0  0  0  0  0  0  0
  140.9940   79.5336  220.3697 H   0  0  0  0  0  0  0  0  0  0  0  0
  141.6420   78.2569  219.0635 H   0  0  0  0  0  0  0  0  0  0  0  0
  143.3636   77.4596  217.4993 H   0  0  0  0  0  0  0  0  0  0  0  0
  143.8487   73.9219  219.7000 H   0  0  0  0  0  0  0  0  0  0  0  0
  142.1328   74.6256  221.3232 H   0  0  0  0  0  0  0  0  0  0  0  0
  138.7994   70.1826  222.4902 H   0  0  0  0  0  0  0  0  0  0  0  0
  138.5420   68.6303  224.4039 H   0  0  0  0  0  0  0  0  0  0  0  0
  139.0472   68.0925  226.7824 H   0  0  0  0  0  0  0  0  0  0  0  0
  141.4863   70.8864  229.0198 H   0  0  0  0  0  0  0  0  0  0  0  0
  141.6583   72.3433  227.0134 H   0  0  0  0  0  0  0  0  0  0  0  0
  1  2  2  0
  2  3  1  0
  3  4  1  0
  4  5  1  0
  5  6  2  0
  5  7  1  0
  7  8  1  0
  8  9  1  0
  9 10  1  0
 10 11  1  0
 11 12  1  0
 12 13  1  0
 13 14  1  0
 14 15  1  0
 15 16  2  0
 16 17  1  0
 17 18  2  0
 18 19  1  0
 19 20  2  0
 14 21  1  0
 21 22  2  0
 22 23  1  0
 23 24  2  0
 24 25  1  0
 25 26  2  0
  2 27  1  0
 27 28  2  0
 28 29  1  0
 29 30  2  0
 30 31  1  0
 31 32  2  0
 32 33  1  0
 32 34  1  0
 34 35  2  0
 35 36  1  0
 36 37  2  0
 11  7  1  0
 20 15  1  0
 26 21  1  0
 37 27  1  0
 36 30  1  0
  3 38  1  0
  4 39  1  0
  4 40  1  0
  8 41  1  0
  8 42  1  0
  9 43  1  0
  9 44  1  0
 10 45  1  0
 10 46  1  0
 11 47  1  6
 12 48  1  0
 12 49  1  0
 13 50  1  0
 14 51  1  6
 16 52  1  0
 17 53  1  0
 18 54  1  0
 19 55  1  0
 20 56  1  0
 22 57  1  0
 23 58  1  0
 25 59  1  0
 26 60  1  0
 28 61  1  0
 29 62  1  0
 31 63  1  0
 34 64  1  0
 35 65  1  0
M  END
>  <smiles>  (83) 
O=C(NCC(=O)N1CCC[C@H]1CNC(c1ccccc1)c1ccncc1)c1ccc2cc(F)ccc2n1

>  <score_type>  (83) 
oracle

>  <origin>  (83) 
autodockgpu

>  <m_score__min__energy>  (83) 
-9.4299999999999997

>  <m_primary>  (83) 
energy

>  <rmsd>  (83) 
3.580624855692887

>  <m_score__min__rmsd>  (83) 
3.580624855692887

>  <meeko>  (83) 
{"free_energy": -8.9, "intermolecular_energy": -11.58, "internal_energy": -3.41, "cluster_size": 19, "cluster_id": 1, "rank_in_cluster": 9}

>  <energy>  (83) 
-7.57

>  <cluster_rmsd>  (83) 
0.0

>  <cluster>  (83) 
6

$$$$

     RDKit          3D

 65 69  0  0  1  0  0  0  0  0999 V2000
  140.3530   73.1940  221.9890 O   0  0  0  0  0  0  0  0  0  0  0  0
  139.5720   72.2350  222.2300 C   0  0  0  0  0  0  0  0  0  0  0  0
  138.5180   71.9410  221.3250 N   0  0  0  0  0  0  0  0  0  0  0  0
  138.3250   72.7240  220.1250 C   0  0  0  0  0  0  0  0  0  0  0  0
  138.6040   74.1720  220.3240 C   0  0  0  0  0  0  0  0  0  0  0  0
  139.4520   74.7900  219.6350 O   0  0  0  0  0  0  0  0  0  0  0  0
  137.8720   74.8420  221.3280 N   0  0  0  0  0  0  0  0  0  0  0  0
  136.9970   74.2680  222.3630 C   0  0  0  0  0  0  0  0  0  0  0  0
  135.7560   75.1280  222.1340 C   0  0  0  0  0  0  0  0  0  0  0  0
  136.4190   76.5050  222.1010 C   0  0  0  0  0  0  0  0  0  0  0  0
  137.8250   76.2650  221.5590 C   0  0  1  0  0  0  0  0  0  0  0  0
  138.7650   76.7280  222.6390 C   0  0  0  0  0  0  0  0  0  0  0  0
  140.1320   76.3170  222.4450 N   0  0  0  0  0  0  0  0  0  0  0  0
  140.7300   77.2200  221.4810 C   0  0  1  0  0  0  0  0  0  0  0  0
  141.2930   78.4290  222.1310 C   0  0  0  0  0  0  0  0  0  0  0  0
  141.6340   78.4030  223.4820 C   0  0  0  0  0  0  0  0  0  0  0  0
  142.1650   79.5320  224.1070 C   0  0  0  0  0  0  0  0  0  0  0  0
  142.3590   80.6990  223.3890 C   0  0  0  0  0  0  0  0  0  0  0  0
  142.0180   80.7140  222.0570 C   0  0  0  0  0  0  0  0  0  0  0  0
  141.4880   79.6080  221.4030 C   0  0  0  0  0  0  0  0  0  0  0  0
  141.7510   76.5390  220.6270 C   0  0  0  0  0  0  0  0  0  0  0  0
  142.1390   75.2300  220.8560 C   0  0  0  0  0  0  0  0  0  0  0  0
  143.0820   74.6310  220.0540 C   0  0  0  0  0  0  0  0  0  0  0  0
  143.6510   75.2840  219.0340 N   0  0  0  0  0  0  0  0  0  0  0  0
  143.2980   76.5410  218.7920 C   0  0  0  0  0  0  0  0  0  0  0  0
  142.3590   77.2020  219.5560 C   0  0  0  0  0  0  0  0  0  0  0  0
  139.7070   71.3950  223.4290 C   0  0  0  0  0  0  0  0  0  0  0  0
  139.2990   70.0760  223.4270 C   0  0  0  0  0  0  0  0  0  0  0  0
  139.4130   69.2590  224.5410 C   0  0  0  0  0  0  0  0  0  0  0  0
  139.9590   69.7910  225.7010 C   0  0  0  0  0  0  0  0  0  0  0  0
  140.1000   69.0190  226.8590 C   0  0  0  0  0  0  0  0  0  0  0  0
  140.6560   69.6290  227.9800 C   0  0  0  0  0  0  0  0  0  0  0  0
  140.7870   68.8590  229.0990 F   0  0  0  0  0  0  0  0  0  0  0  0
  141.0600   70.9570  227.9590 C   0  0  0  0  0  0  0  0  0  0  0  0
  140.9060   71.6940  226.7990 C   0  0  0  0  0  0  0  0  0  0  0  0
  140.3570   71.1120  225.6730 C   0  0  0  0  0  0  0  0  0  0  0  0
  140.2400   71.8940  224.5820 N   0  0  0  0  0  0  0  0  0  0  0  0
  137.8700   71.1300  221.5440 H   0  0  0  0  0  0  0  0  0  0  0  0
  138.9991   72.3412  219.3446 H   0  0  0  0  0  0  0  0  0  0  0  0
  137.2676   72.6294  219.8371 H   0  0  0  0  0  0  0  0  0  0  0  0
  136.7968   73.2007  222.1878 H   0  0  0  0  0  0  0  0  0  0  0  0
  137.4013   74.2853  223.3859 H   0  0  0  0  0  0  0  0  0  0  0  0
  135.2578   74.8876  221.1832 H   0  0  0  0  0  0  0  0  0  0  0  0
  134.9544   75.0076  222.8776 H   0  0  0  0  0  0  0  0  0  0  0  0
  135.8622   77.1845  221.4390 H   0  0  0  0  0  0  0  0  0  0  0  0
  136.4387   76.9735  223.0961 H   0  0  0  0  0  0  0  0  0  0  0  0
  138.0931   76.7943  220.6327 H   0  0  0  0  0  0  0  0  0  0  0  0
  138.7364   77.8271  222.6740 H   0  0  0  0  0  0  0  0  0  0  0  0
  138.4243   76.2640  223.5764 H   0  0  0  0  0  0  0  0  0  0  0  0
  140.1150   75.3300  222.1090 H   0  0  0  0  0  0  0  0  0  0  0  0
  139.9177   77.5492  220.8163 H   0  0  0  0  0  0  0  0  0  0  0  0
  141.4827   77.4812  224.0628 H   0  0  0  0  0  0  0  0  0  0  0  0
  142.4302   79.4942  225.1739 H   0  0  0  0  0  0  0  0  0  0  0  0
  142.7765   81.5943  223.8729 H   0  0  0  0  0  0  0  0  0  0  0  0
  142.1712   81.6408  221.4846 H   0  0  0  0  0  0  0  0  0  0  0  0
  141.2273   79.6585  220.3355 H   0  0  0  0  0  0  0  0  0  0  0  0
  141.6896   74.6647  221.6858 H   0  0  0  0  0  0  0  0  0  0  0  0
  143.3755   73.5903  220.2558 H   0  0  0  0  0  0  0  0  0  0  0  0
  143.7707   77.0734  217.9535 H   0  0  0  0  0  0  0  0  0  0  0  0
  142.0902   78.2433  219.3246 H   0  0  0  0  0  0  0  0  0  0  0  0
  138.8669   69.6574  222.5061 H   0  0  0  0  0  0  0  0  0  0  0  0
  139.0780   68.2118  224.5065 H   0  0  0  0  0  0  0  0  0  0  0  0
  139.7825   67.9661  226.8830 H   0  0  0  0  0  0  0  0  0  0  0  0
  141.4983   71.4185  228.8562 H   0  0  0  0  0  0  0  0  0  0  0  0
  141.2218   72.7474  226.7729 H   0  0  0  0  0  0  0  0  0  0  0  0
  1  2  2  0
  2  3  1  0
  3  4  1  0
  4  5  1  0
  5  6  2  0
  5  7  1  0
  7  8  1  0
  8  9  1  0
  9 10  1  0
 10 11  1  0
 11 12  1  0
 12 13  1  0
 13 14  1  0
 14 15  1  0
 15 16  2  0
 16 17  1  0
 17 18  2  0
 18 19  1  0
 19 20  2  0
 14 21  1  0
 21 22  2  0
 22 23  1  0
 23 24  2  0
 24 25  1  0
 25 26  2  0
  2 27  1  0
 27 28  2  0
 28 29  1  0
 29 30  2  0
 30 31  1  0
 31 32  2  0
 32 33  1  0
 32 34  1  0
 34 35  2  0
 35 36  1  0
 36 37  2  0
 11  7  1  0
 20 15  1  0
 26 21  1  0
 37 27  1  0
 36 30  1  0
  3 38  1  0
  4 39  1  0
  4 40  1  0
  8 41  1  0
  8 42  1  0
  9 43  1  0
  9 44  1  0
 10 45  1  0
 10 46  1  0
 11 47  1  6
 12 48  1  0
 12 49  1  0
 13 50  1  0
 14 51  1  6
 16 52  1  0
 17 53  1  0
 18 54  1  0
 19 55  1  0
 20 56  1  0
 22 57  1  0
 23 58  1  0
 25 59  1  0
 26 60  1  0
 28 61  1  0
 29 62  1  0
 31 63  1  0
 34 64  1  0
 35 65  1  0
M  END
>  <smiles>  (84) 
O=C(NCC(=O)N1CCC[C@H]1CNC(c1ccccc1)c1ccncc1)c1ccc2cc(F)ccc2n1

>  <score_type>  (84) 
oracle

>  <origin>  (84) 
autodockgpu

>  <m_score__min__energy>  (84) 
-9.4299999999999997

>  <m_primary>  (84) 
energy

>  <rmsd>  (84) 
3.423051693042503

>  <m_score__min__rmsd>  (84) 
3.423051693042503

>  <meeko>  (84) 
{"free_energy": -8.85, "intermolecular_energy": -11.54, "internal_energy": -3.4, "cluster_size": 19, "cluster_id": 1, "rank_in_cluster": 11}

>  <energy>  (84) 
-7.43

>  <cluster_rmsd>  (84) 
0.47

>  <cluster>  (84) 
6

$$$$

     RDKit          3D

 65 69  0  0  1  0  0  0  0  0999 V2000
  139.2040   74.3360  222.2370 O   0  0  0  0  0  0  0  0  0  0  0  0
  140.2080   75.0450  221.9610 C   0  0  0  0  0  0  0  0  0  0  0  0
  141.3980   74.4270  221.4930 N   0  0  0  0  0  0  0  0  0  0  0  0
  141.4790   72.9930  221.3260 C   0  0  0  0  0  0  0  0  0  0  0  0
  142.1370   72.5920  220.0540 C   0  0  0  0  0  0  0  0  0  0  0  0
  141.5280   71.9630  219.1550 O   0  0  0  0  0  0  0  0  0  0  0  0
  143.4940   72.9470  219.8850 N   0  0  0  0  0  0  0  0  0  0  0  0
  144.4430   72.4770  218.8630 C   0  0  0  0  0  0  0  0  0  0  0  0
  145.5930   72.0580  219.7770 C   0  0  0  0  0  0  0  0  0  0  0  0
  145.6740   73.3080  220.6520 C   0  0  0  0  0  0  0  0  0  0  0  0
  144.2540   73.8660  220.6940 C   0  0  1  0  0  0  0  0  0  0  0  0
  144.3410   75.2500  220.1090 C   0  0  0  0  0  0  0  0  0  0  0  0
  143.0760   75.9370  220.0340 N   0  0  0  0  0  0  0  0  0  0  0  0
  143.1180   76.8070  218.8740 C   0  0  1  0  0  0  0  0  0  0  0  0
  143.1410   76.0370  217.6060 C   0  0  0  0  0  0  0  0  0  0  0  0
  142.2780   74.9570  217.4270 C   0  0  0  0  0  0  0  0  0  0  0  0
  142.2880   74.2230  216.2400 C   0  0  0  0  0  0  0  0  0  0  0  0
  143.1610   74.5610  215.2210 C   0  0  0  0  0  0  0  0  0  0  0  0
  144.0080   75.6270  215.4080 C   0  0  0  0  0  0  0  0  0  0  0  0
  144.0240   76.3800  216.5760 C   0  0  0  0  0  0  0  0  0  0  0  0
  142.0070   77.8090  218.8790 C   0  0  0  0  0  0  0  0  0  0  0  0
  140.6780   77.4230  218.9100 C   0  0  0  0  0  0  0  0  0  0  0  0
  139.6780   78.3670  218.9130 C   0  0  0  0  0  0  0  0  0  0  0  0
  139.9510   79.6770  218.8870 N   0  0  0  0  0  0  0  0  0  0  0  0
  141.2180   80.0750  218.8570 C   0  0  0  0  0  0  0  0  0  0  0  0
  142.2690   79.1820  218.8530 C   0  0  0  0  0  0  0  0  0  0  0  0
  140.2000   76.5080  222.1050 C   0  0  0  0  0  0  0  0  0  0  0  0
  139.0160   77.2080  222.2210 C   0  0  0  0  0  0  0  0  0  0  0  0
  138.9760   78.5870  222.3580 C   0  0  0  0  0  0  0  0  0  0  0  0
  140.1750   79.2870  222.3790 C   0  0  0  0  0  0  0  0  0  0  0  0
  140.2020   80.6790  222.5140 C   0  0  0  0  0  0  0  0  0  0  0  0
  141.4460   81.3040  222.5260 C   0  0  0  0  0  0  0  0  0  0  0  0
  141.4520   82.6620  222.6590 F   0  0  0  0  0  0  0  0  0  0  0  0
  142.6240   80.5790  222.4080 C   0  0  0  0  0  0  0  0  0  0  0  0
  142.5630   79.2040  222.2760 C   0  0  0  0  0  0  0  0  0  0  0  0
  141.3420   78.5600  222.2610 C   0  0  0  0  0  0  0  0  0  0  0  0
  141.3640   77.2200  222.1290 N   0  0  0  0  0  0  0  0  0  0  0  0
  142.2350   75.0400  221.2660 H   0  0  0  0  0  0  0  0  0  0  0  0
  142.0540   72.5744  222.1651 H   0  0  0  0  0  0  0  0  0  0  0  0
  140.4496   72.6063  221.2999 H   0  0  0  0  0  0  0  0  0  0  0  0
  144.0431   71.6286  218.2883 H   0  0  0  0  0  0  0  0  0  0  0  0
  144.7011   73.2105  218.0850 H   0  0  0  0  0  0  0  0  0  0  0  0
  145.3474   71.1601  220.3630 H   0  0  0  0  0  0  0  0  0  0  0  0
  146.5256   71.7791  219.2647 H   0  0  0  0  0  0  0  0  0  0  0  0
  146.0152   73.0474  221.6647 H   0  0  0  0  0  0  0  0  0  0  0  0
  146.3900   74.0413  220.2525 H   0  0  0  0  0  0  0  0  0  0  0  0
  143.7864   73.9510  221.6860 H   0  0  0  0  0  0  0  0  0  0  0  0
  145.0220   75.8470  220.7334 H   0  0  0  0  0  0  0  0  0  0  0  0
  144.7022   75.1361  219.0763 H   0  0  0  0  0  0  0  0  0  0  0  0
  142.9580   76.4660  220.9240 H   0  0  0  0  0  0  0  0  0  0  0  0
  144.0622   77.3677  218.9385 H   0  0  0  0  0  0  0  0  0  0  0  0
  141.5805   74.6799  218.2312 H   0  0  0  0  0  0  0  0  0  0  0  0
  141.6002   73.3738  216.1142 H   0  0  0  0  0  0  0  0  0  0  0  0
  143.1767   73.9889  214.2816 H   0  0  0  0  0  0  0  0  0  0  0  0
  144.7029   75.8957  214.5987 H   0  0  0  0  0  0  0  0  0  0  0  0
  144.7161   77.2276  216.6884 H   0  0  0  0  0  0  0  0  0  0  0  0
  140.4200   76.3539  218.9324 H   0  0  0  0  0  0  0  0  0  0  0  0
  138.6288   78.0376  218.9373 H   0  0  0  0  0  0  0  0  0  0  0  0
  141.4362   81.1529  218.8346 H   0  0  0  0  0  0  0  0  0  0  0  0
  143.3062   79.5475  218.8295 H   0  0  0  0  0  0  0  0  0  0  0  0
  138.0680   76.6504  222.2041 H   0  0  0  0  0  0  0  0  0  0  0  0
  138.0153   79.1151  222.4481 H   0  0  0  0  0  0  0  0  0  0  0  0
  139.2725   81.2598  222.6075 H   0  0  0  0  0  0  0  0  0  0  0  0
  143.5963   81.0933  222.4194 H   0  0  0  0  0  0  0  0  0  0  0  0
  143.4911   78.6209  222.1826 H   0  0  0  0  0  0  0  0  0  0  0  0
  1  2  2  0
  2  3  1  0
  3  4  1  0
  4  5  1  0
  5  6  2  0
  5  7  1  0
  7  8  1  0
  8  9  1  0
  9 10  1  0
 10 11  1  0
 11 12  1  0
 12 13  1  0
 13 14  1  0
 14 15  1  0
 15 16  2  0
 16 17  1  0
 17 18  2  0
 18 19  1  0
 19 20  2  0
 14 21  1  0
 21 22  2  0
 22 23  1  0
 23 24  2  0
 24 25  1  0
 25 26  2  0
  2 27  1  0
 27 28  2  0
 28 29  1  0
 29 30  2  0
 30 31  1  0
 31 32  2  0
 32 33  1  0
 32 34  1  0
 34 35  2  0
 35 36  1  0
 36 37  2  0
 11  7  1  0
 20 15  1  0
 26 21  1  0
 37 27  1  0
 36 30  1  0
  3 38  1  0
  4 39  1  0
  4 40  1  0
  8 41  1  0
  8 42  1  0
  9 43  1  0
  9 44  1  0
 10 45  1  0
 10 46  1  0
 11 47  1  1
 12 48  1  0
 12 49  1  0
 13 50  1  0
 14 51  1  1
 16 52  1  0
 17 53  1  0
 18 54  1  0
 19 55  1  0
 20 56  1  0
 22 57  1  0
 23 58  1  0
 25 59  1  0
 26 60  1  0
 28 61  1  0
 29 62  1  0
 31 63  1  0
 34 64  1  0
 35 65  1  0
M  END
>  <smiles>  (85) 
O=C(NCC(=O)N1CCC[C@H]1CNC(c1ccccc1)c1ccncc1)c1ccc2cc(F)ccc2n1

>  <score_type>  (85) 
oracle

>  <origin>  (85) 
autodockgpu

>  <m_score__min__energy>  (85) 
-9.4299999999999997

>  <m_primary>  (85) 
energy

>  <rmsd>  (85) 
8.047703334332809

>  <m_score__min__rmsd>  (85) 
8.047703334332809

>  <meeko>  (85) 
{"free_energy": -6.28, "intermolecular_energy": -8.96, "internal_energy": -5.98, "cluster_size": 8, "cluster_id": 8, "rank_in_cluster": 6}

>  <energy>  (85) 
-6.55

>  <cluster_rmsd>  (85) 
1.43

>  <cluster>  (85) 
6

$$$$

     RDKit          3D

 65 69  0  0  1  0  0  0  0  0999 V2000
  140.9860   73.2950  222.2230 O   0  0  0  0  0  0  0  0  0  0  0  0
  140.0070   72.5140  222.3580 C   0  0  0  0  0  0  0  0  0  0  0  0
  138.9830   72.4910  221.3740 N   0  0  0  0  0  0  0  0  0  0  0  0
  139.0470   73.3510  220.2130 C   0  0  0  0  0  0  0  0  0  0  0  0
  137.9480   74.3530  220.1700 C   0  0  0  0  0  0  0  0  0  0  0  0
  137.2320   74.5190  219.1520 O   0  0  0  0  0  0  0  0  0  0  0  0
  137.7300   75.1270  221.3320 N   0  0  0  0  0  0  0  0  0  0  0  0
  136.7410   74.9150  222.4010 C   0  0  0  0  0  0  0  0  0  0  0  0
  136.1210   76.3110  222.4370 C   0  0  0  0  0  0  0  0  0  0  0  0
  137.4030   77.1420  222.4720 C   0  0  0  0  0  0  0  0  0  0  0  0
  138.4450   76.3150  221.7260 C   0  0  1  0  0  0  0  0  0  0  0  0
  139.5450   76.0500  222.7180 C   0  0  0  0  0  0  0  0  0  0  0  0
  140.8610   75.9860  222.1350 N   0  0  0  0  0  0  0  0  0  0  0  0
  141.0100   77.1340  221.2610 C   0  0  1  0  0  0  0  0  0  0  0  0
  141.4220   78.3470  222.0100 C   0  0  0  0  0  0  0  0  0  0  0  0
  141.4340   79.5900  221.3790 C   0  0  0  0  0  0  0  0  0  0  0  0
  141.8190   80.7390  222.0700 C   0  0  0  0  0  0  0  0  0  0  0  0
  142.1970   80.6580  223.3990 C   0  0  0  0  0  0  0  0  0  0  0  0
  142.1820   79.4280  224.0120 C   0  0  0  0  0  0  0  0  0  0  0  0
  141.8040   78.2640  223.3540 C   0  0  0  0  0  0  0  0  0  0  0  0
  141.9390   76.8600  220.1220 C   0  0  0  0  0  0  0  0  0  0  0  0
  142.0270   77.7100  219.0320 C   0  0  0  0  0  0  0  0  0  0  0  0
  142.8910   77.4310  217.9990 C   0  0  0  0  0  0  0  0  0  0  0  0
  143.6680   76.3430  218.0100 N   0  0  0  0  0  0  0  0  0  0  0  0
  143.6040   75.5100  219.0430 C   0  0  0  0  0  0  0  0  0  0  0  0
  142.7600   75.7290  220.1120 C   0  0  0  0  0  0  0  0  0  0  0  0
  139.8750   71.6110  223.5110 C   0  0  0  0  0  0  0  0  0  0  0  0
  139.1090   70.4650  223.4370 C   0  0  0  0  0  0  0  0  0  0  0  0
  138.9650   69.5940  224.5070 C   0  0  0  0  0  0  0  0  0  0  0  0
  139.6190   69.8890  225.6960 C   0  0  0  0  0  0  0  0  0  0  0  0
  139.5130   69.0520  226.8110 C   0  0  0  0  0  0  0  0  0  0  0  0
  140.2000   69.4210  227.9650 C   0  0  0  0  0  0  0  0  0  0  0  0
  140.0850   68.5910  229.0410 F   0  0  0  0  0  0  0  0  0  0  0  0
  140.9650   70.5780  228.0150 C   0  0  0  0  0  0  0  0  0  0  0  0
  141.0480   71.3860  226.8960 C   0  0  0  0  0  0  0  0  0  0  0  0
  140.3770   71.0420  225.7390 C   0  0  0  0  0  0  0  0  0  0  0  0
  140.5070   71.8780  224.6910 N   0  0  0  0  0  0  0  0  0  0  0  0
  138.1650   71.8280  221.5040 H   0  0  0  0  0  0  0  0  0  0  0  0
  140.0083   73.8855  220.2254 H   0  0  0  0  0  0  0  0  0  0  0  0
  138.9439   72.7115  219.3239 H   0  0  0  0  0  0  0  0  0  0  0  0
  136.0039   74.1436  222.1333 H   0  0  0  0  0  0  0  0  0  0  0  0
  137.1490   74.5549  223.3570 H   0  0  0  0  0  0  0  0  0  0  0  0
  135.5196   76.5183  221.5396 H   0  0  0  0  0  0  0  0  0  0  0  0
  135.4162   76.4942  223.2615 H   0  0  0  0  0  0  0  0  0  0  0  0
  137.2484   78.1087  221.9704 H   0  0  0  0  0  0  0  0  0  0  0  0
  137.7184   77.3626  223.5025 H   0  0  0  0  0  0  0  0  0  0  0  0
  138.8996   76.7795  220.8386 H   0  0  0  0  0  0  0  0  0  0  0  0
  139.5374   76.8568  223.4657 H   0  0  0  0  0  0  0  0  0  0  0  0
  139.3445   75.0615  223.1570 H   0  0  0  0  0  0  0  0  0  0  0  0
  140.9280   75.0820  221.6190 H   0  0  0  0  0  0  0  0  0  0  0  0
  140.0171   77.3302  220.8302 H   0  0  0  0  0  0  0  0  0  0  0  0
  141.1361   79.6657  220.3228 H   0  0  0  0  0  0  0  0  0  0  0  0
  141.8222   81.7122  221.5572 H   0  0  0  0  0  0  0  0  0  0  0  0
  142.5027   81.5582  223.9524 H   0  0  0  0  0  0  0  0  0  0  0  0
  142.4820   79.3622  225.0683 H   0  0  0  0  0  0  0  0  0  0  0  0
  141.8049   77.2971  223.8786 H   0  0  0  0  0  0  0  0  0  0  0  0
  141.4017   78.6141  218.9923 H   0  0  0  0  0  0  0  0  0  0  0  0
  142.9441   78.1197  217.1429 H   0  0  0  0  0  0  0  0  0  0  0  0
  144.2452   74.6162  219.0460 H   0  0  0  0  0  0  0  0  0  0  0  0
  142.7333   75.0181  220.9510 H   0  0  0  0  0  0  0  0  0  0  0  0
  138.5931   70.2336  222.4935 H   0  0  0  0  0  0  0  0  0  0  0  0
  138.3461   68.6892  224.4156 H   0  0  0  0  0  0  0  0  0  0  0  0
  138.9080   68.1339  226.7779 H   0  0  0  0  0  0  0  0  0  0  0  0
  141.5005   70.8498  228.9366 H   0  0  0  0  0  0  0  0  0  0  0  0
  141.6505   72.3058  226.9275 H   0  0  0  0  0  0  0  0  0  0  0  0
  1  2  2  0
  2  3  1  0
  3  4  1  0
  4  5  1  0
  5  6  2  0
  5  7  1  0
  7  8  1  0
  8  9  1  0
  9 10  1  0
 10 11  1  0
 11 12  1  0
 12 13  1  0
 13 14  1  0
 14 15  1  0
 15 16  2  0
 16 17  1  0
 17 18  2  0
 18 19  1  0
 19 20  2  0
 14 21  1  0
 21 22  2  0
 22 23  1  0
 23 24  2  0
 24 25  1  0
 25 26  2  0
  2 27  1  0
 27 28  2  0
 28 29  1  0
 29 30  2  0
 30 31  1  0
 31 32  2  0
 32 33  1  0
 32 34  1  0
 34 35  2  0
 35 36  1  0
 36 37  2  0
 11  7  1  0
 20 15  1  0
 26 21  1  0
 37 27  1  0
 36 30  1  0
  3 38  1  0
  4 39  1  0
  4 40  1  0
  8 41  1  0
  8 42  1  0
  9 43  1  0
  9 44  1  0
 10 45  1  0
 10 46  1  0
 11 47  1  6
 12 48  1  0
 12 49  1  0
 13 50  1  0
 14 51  1  6
 16 52  1  0
 17 53  1  0
 18 54  1  0
 19 55  1  0
 20 56  1  0
 22 57  1  0
 23 58  1  0
 25 59  1  0
 26 60  1  0
 28 61  1  0
 29 62  1  0
 31 63  1  0
 34 64  1  0
 35 65  1  0
M  END
>  <smiles>  (86) 
O=C(NCC(=O)N1CCC[C@H]1CNC(c1ccccc1)c1ccncc1)c1ccc2cc(F)ccc2n1

>  <score_type>  (86) 
oracle

>  <origin>  (86) 
autodockgpu

>  <m_score__min__energy>  (86) 
-9.4299999999999997

>  <m_primary>  (86) 
energy

>  <rmsd>  (86) 
3.249434184161202

>  <m_score__min__rmsd>  (86) 
3.249434184161202

>  <meeko>  (86) 
{"free_energy": -8.91, "intermolecular_energy": -11.59, "internal_energy": -3.25, "cluster_size": 19, "cluster_id": 1, "rank_in_cluster": 7}

>  <energy>  (86) 
-6.33

>  <cluster_rmsd>  (86) 
1.51

>  <cluster>  (86) 
6

$$$$

     RDKit          3D

 65 69  0  0  1  0  0  0  0  0999 V2000
  141.7980   79.2820  217.2280 O   0  0  0  0  0  0  0  0  0  0  0  0
  142.2160   78.6920  218.2590 C   0  0  0  0  0  0  0  0  0  0  0  0
  142.2140   79.3690  219.5070 N   0  0  0  0  0  0  0  0  0  0  0  0
  141.7360   80.7300  219.6170 C   0  0  0  0  0  0  0  0  0  0  0  0
  140.7350   80.9100  220.7020 C   0  0  0  0  0  0  0  0  0  0  0  0
  139.5710   81.3220  220.4760 O   0  0  0  0  0  0  0  0  0  0  0  0
  141.1390   80.5960  222.0180 N   0  0  0  0  0  0  0  0  0  0  0  0
  140.5830   81.0870  223.2890 C   0  0  0  0  0  0  0  0  0  0  0  0
  141.8780   81.5500  223.9560 C   0  0  0  0  0  0  0  0  0  0  0  0
  142.7350   80.3100  223.7050 C   0  0  0  0  0  0  0  0  0  0  0  0
  142.2070   79.7090  222.4060 C   0  0  1  0  0  0  0  0  0  0  0  0
  141.7360   78.3230  222.7580 C   0  0  0  0  0  0  0  0  0  0  0  0
  141.4270   77.4990  221.6170 N   0  0  0  0  0  0  0  0  0  0  0  0
  140.5560   76.4310  222.0710 C   0  0  1  0  0  0  0  0  0  0  0  0
  139.1630   76.9020  222.2730 C   0  0  0  0  0  0  0  0  0  0  0  0
  138.8340   78.2360  222.0400 C   0  0  0  0  0  0  0  0  0  0  0  0
  137.5290   78.6940  222.2250 C   0  0  0  0  0  0  0  0  0  0  0  0
  136.5400   77.8220  222.6460 C   0  0  0  0  0  0  0  0  0  0  0  0
  136.8750   76.5090  222.8730 C   0  0  0  0  0  0  0  0  0  0  0  0
  138.1640   76.0200  222.6980 C   0  0  0  0  0  0  0  0  0  0  0  0
  140.5990   75.2430  221.1640 C   0  0  0  0  0  0  0  0  0  0  0  0
  140.1930   75.3190  219.8420 C   0  0  0  0  0  0  0  0  0  0  0  0
  140.2430   74.2090  219.0330 C   0  0  0  0  0  0  0  0  0  0  0  0
  140.6830   73.0300  219.4860 N   0  0  0  0  0  0  0  0  0  0  0  0
  141.0790   72.9280  220.7500 C   0  0  0  0  0  0  0  0  0  0  0  0
  141.0540   74.0010  221.6170 C   0  0  0  0  0  0  0  0  0  0  0  0
  142.7150   77.3090  218.2250 C   0  0  0  0  0  0  0  0  0  0  0  0
  142.6730   76.5630  217.0650 C   0  0  0  0  0  0  0  0  0  0  0  0
  143.1360   75.2570  217.0010 C   0  0  0  0  0  0  0  0  0  0  0  0
  143.6610   74.6820  218.1510 C   0  0  0  0  0  0  0  0  0  0  0  0
  144.1430   73.3700  218.1520 C   0  0  0  0  0  0  0  0  0  0  0  0
  144.6530   72.8690  219.3480 C   0  0  0  0  0  0  0  0  0  0  0  0
  145.1190   71.5870  219.3290 F   0  0  0  0  0  0  0  0  0  0  0  0
  144.6850   73.6380  220.5020 C   0  0  0  0  0  0  0  0  0  0  0  0
  144.2000   74.9330  220.4680 C   0  0  0  0  0  0  0  0  0  0  0  0
  143.6890   75.4530  219.2960 C   0  0  0  0  0  0  0  0  0  0  0  0
  143.2360   76.7210  219.3410 N   0  0  0  0  0  0  0  0  0  0  0  0
  142.5700   78.8570  220.3660 H   0  0  0  0  0  0  0  0  0  0  0  0
  142.5943   81.3874  219.8198 H   0  0  0  0  0  0  0  0  0  0  0  0
  141.2402   80.9816  218.6678 H   0  0  0  0  0  0  0  0  0  0  0  0
  139.8780   81.9175  223.1369 H   0  0  0  0  0  0  0  0  0  0  0  0
  139.9929   80.3553  223.8603 H   0  0  0  0  0  0  0  0  0  0  0  0
  142.2950   82.4444  223.4701 H   0  0  0  0  0  0  0  0  0  0  0  0
  141.7844   81.8543  225.0089 H   0  0  0  0  0  0  0  0  0  0  0  0
  143.7936   80.5890  223.5976 H   0  0  0  0  0  0  0  0  0  0  0  0
  142.6760   79.5961  224.5398 H   0  0  0  0  0  0  0  0  0  0  0  0
  142.9252   79.6190  221.5777 H   0  0  0  0  0  0  0  0  0  0  0  0
  142.5273   77.8263  223.3386 H   0  0  0  0  0  0  0  0  0  0  0  0
  140.8018   78.4404  223.3267 H   0  0  0  0  0  0  0  0  0  0  0  0
  142.3300   77.1420  221.2380 H   0  0  0  0  0  0  0  0  0  0  0  0
  140.9423   76.1078  223.0489 H   0  0  0  0  0  0  0  0  0  0  0  0
  139.6131   78.9370  221.7059 H   0  0  0  0  0  0  0  0  0  0  0  0
  137.2858   79.7500  222.0359 H   0  0  0  0  0  0  0  0  0  0  0  0
  135.5081   78.1726  222.7956 H   0  0  0  0  0  0  0  0  0  0  0  0
  136.0895   75.8154  223.2075 H   0  0  0  0  0  0  0  0  0  0  0  0
  138.3939   74.9615  222.8897 H   0  0  0  0  0  0  0  0  0  0  0  0
  139.8280   76.2743  219.4367 H   0  0  0  0  0  0  0  0  0  0  0  0
  139.9129   74.2924  217.9870 H   0  0  0  0  0  0  0  0  0  0  0  0
  141.4388   71.9557  221.1176 H   0  0  0  0  0  0  0  0  0  0  0  0
  141.3898   73.8801  222.6575 H   0  0  0  0  0  0  0  0  0  0  0  0
  142.2564   77.0216  216.1561 H   0  0  0  0  0  0  0  0  0  0  0  0
  143.0884   74.6892  216.0601 H   0  0  0  0  0  0  0  0  0  0  0  0
  144.1205   72.7546  217.2405 H   0  0  0  0  0  0  0  0  0  0  0  0
  145.0922   73.2220  221.4353 H   0  0  0  0  0  0  0  0  0  0  0  0
  144.2216   75.5505  221.3781 H   0  0  0  0  0  0  0  0  0  0  0  0
  1  2  2  0
  2  3  1  0
  3  4  1  0
  4  5  1  0
  5  6  2  0
  5  7  1  0
  7  8  1  0
  8  9  1  0
  9 10  1  0
 10 11  1  0
 11 12  1  0
 12 13  1  0
 13 14  1  0
 14 15  1  0
 15 16  2  0
 16 17  1  0
 17 18  2  0
 18 19  1  0
 19 20  2  0
 14 21  1  0
 21 22  2  0
 22 23  1  0
 23 24  2  0
 24 25  1  0
 25 26  2  0
  2 27  1  0
 27 28  2  0
 28 29  1  0
 29 30  2  0
 30 31  1  0
 31 32  2  0
 32 33  1  0
 32 34  1  0
 34 35  2  0
 35 36  1  0
 36 37  2  0
 11  7  1  0
 20 15  1  0
 26 21  1  0
 37 27  1  0
 36 30  1  0
  3 38  1  0
  4 39  1  0
  4 40  1  0
  8 41  1  0
  8 42  1  0
  9 43  1  0
  9 44  1  0
 10 45  1  0
 10 46  1  0
 11 47  1  6
 12 48  1  0
 12 49  1  0
 13 50  1  0
 14 51  1  1
 16 52  1  0
 17 53  1  0
 18 54  1  0
 19 55  1  0
 20 56  1  0
 22 57  1  0
 23 58  1  0
 25 59  1  0
 26 60  1  0
 28 61  1  0
 29 62  1  0
 31 63  1  0
 34 64  1  0
 35 65  1  0
M  END
>  <smiles>  (87) 
O=C(NCC(=O)N1CCC[C@H]1CNC(c1ccccc1)c1ccncc1)c1ccc2cc(F)ccc2n1

>  <score_type>  (87) 
oracle

>  <origin>  (87) 
autodockgpu

>  <m_score__min__energy>  (87) 
-9.4299999999999997

>  <m_primary>  (87) 
energy

>  <rmsd>  (87) 
7.678165768706157

>  <m_score__min__rmsd>  (87) 
7.678165768706157

>  <meeko>  (87) 
{"free_energy": -6.9, "intermolecular_energy": -9.59, "internal_energy": -5.68, "cluster_size": 3, "cluster_id": 7, "rank_in_cluster": 2}

>  <energy>  (87) 
-6.26

>  <cluster_rmsd>  (87) 
1.52

>  <cluster>  (87) 
6

$$$$

     RDKit          3D

 65 69  0  0  1  0  0  0  0  0999 V2000
  139.8630   73.9650  222.0420 O   0  0  0  0  0  0  0  0  0  0  0  0
  140.1770   75.1790  221.9180 C   0  0  0  0  0  0  0  0  0  0  0  0
  141.4460   75.5250  221.3830 N   0  0  0  0  0  0  0  0  0  0  0  0
  142.3880   74.5060  220.9760 C   0  0  0  0  0  0  0  0  0  0  0  0
  143.3280   74.9710  219.9210 C   0  0  0  0  0  0  0  0  0  0  0  0
  144.5710   74.8190  220.0180 O   0  0  0  0  0  0  0  0  0  0  0  0
  142.7720   75.6010  218.7860 N   0  0  0  0  0  0  0  0  0  0  0  0
  141.5280   75.2690  218.0720 C   0  0  0  0  0  0  0  0  0  0  0  0
  142.0810   75.1890  216.6500 C   0  0  0  0  0  0  0  0  0  0  0  0
  142.8760   76.4930  216.6260 C   0  0  0  0  0  0  0  0  0  0  0  0
  143.3140   76.7270  218.0690 C   0  0  1  0  0  0  0  0  0  0  0  0
  142.7070   78.0440  218.4730 C   0  0  0  0  0  0  0  0  0  0  0  0
  142.1670   78.0570  219.8090 N   0  0  0  0  0  0  0  0  0  0  0  0
  141.4660   79.3140  219.9860 C   0  0  1  0  0  0  0  0  0  0  0  0
  139.9990   79.1560  219.8230 C   0  0  0  0  0  0  0  0  0  0  0  0
  139.1490   80.2400  220.0350 C   0  0  0  0  0  0  0  0  0  0  0  0
  137.7690   80.1060  219.8860 C   0  0  0  0  0  0  0  0  0  0  0  0
  137.2230   78.8870  219.5240 C   0  0  0  0  0  0  0  0  0  0  0  0
  138.0700   77.8240  219.3180 C   0  0  0  0  0  0  0  0  0  0  0  0
  139.4490   77.9220  219.4570 C   0  0  0  0  0  0  0  0  0  0  0  0
  141.7980   79.9690  221.2890 C   0  0  0  0  0  0  0  0  0  0  0  0
  141.5140   81.3030  221.5280 C   0  0  0  0  0  0  0  0  0  0  0  0
  141.8320   81.8770  222.7370 C   0  0  0  0  0  0  0  0  0  0  0  0
  142.4180   81.1760  223.7130 N   0  0  0  0  0  0  0  0  0  0  0  0
  142.7020   79.8940  223.5110 C   0  0  0  0  0  0  0  0  0  0  0  0
  142.4110   79.2550  222.3230 C   0  0  0  0  0  0  0  0  0  0  0  0
  139.2720   76.2690  222.3100 C   0  0  0  0  0  0  0  0  0  0  0  0
  137.9010   76.1150  222.2520 C   0  0  0  0  0  0  0  0  0  0  0  0
  137.0220   77.1230  222.6140 C   0  0  0  0  0  0  0  0  0  0  0  0
  137.5430   78.3340  223.0510 C   0  0  0  0  0  0  0  0  0  0  0  0
  136.7100   79.3900  223.4290 C   0  0  0  0  0  0  0  0  0  0  0  0
  137.3140   80.5710  223.8550 C   0  0  0  0  0  0  0  0  0  0  0  0
  136.4840   81.5900  224.2210 F   0  0  0  0  0  0  0  0  0  0  0  0
  138.6940   80.7030  223.9060 C   0  0  0  0  0  0  0  0  0  0  0  0
  139.4910   79.6390  223.5240 C   0  0  0  0  0  0  0  0  0  0  0  0
  138.9170   78.4580  223.0980 C   0  0  0  0  0  0  0  0  0  0  0  0
  139.7590   77.4680  222.7430 N   0  0  0  0  0  0  0  0  0  0  0  0
  141.6950   76.5530  221.2860 H   0  0  0  0  0  0  0  0  0  0  0  0
  142.9727   74.1979  221.8553 H   0  0  0  0  0  0  0  0  0  0  0  0
  141.8082   73.6713  220.5552 H   0  0  0  0  0  0  0  0  0  0  0  0
  141.1054   74.3094  218.4045 H   0  0  0  0  0  0  0  0  0  0  0  0
  140.6971   75.9752  218.2169 H   0  0  0  0  0  0  0  0  0  0  0  0
  142.7269   74.3100  216.5080 H   0  0  0  0  0  0  0  0  0  0  0  0
  141.3275   75.0809  215.8559 H   0  0  0  0  0  0  0  0  0  0  0  0
  143.7526   76.3973  215.9684 H   0  0  0  0  0  0  0  0  0  0  0  0
  142.2767   77.3305  216.2394 H   0  0  0  0  0  0  0  0  0  0  0  0
  144.3971   76.7880  218.2513 H   0  0  0  0  0  0  0  0  0  0  0  0
  143.4858   78.8181  218.4075 H   0  0  0  0  0  0  0  0  0  0  0  0
  141.8659   78.2292  217.7887 H   0  0  0  0  0  0  0  0  0  0  0  0
  142.9680   77.9530  220.4690 H   0  0  0  0  0  0  0  0  0  0  0  0
  141.8193   79.9828  219.1873 H   0  0  0  0  0  0  0  0  0  0  0  0
  139.5721   81.2135  220.3235 H   0  0  0  0  0  0  0  0  0  0  0  0
  137.1124   80.9719  220.0567 H   0  0  0  0  0  0  0  0  0  0  0  0
  136.1357   78.7712  219.4038 H   0  0  0  0  0  0  0  0  0  0  0  0
  137.6375   76.8542  219.0308 H   0  0  0  0  0  0  0  0  0  0  0  0
  140.0947   77.0486  219.2832 H   0  0  0  0  0  0  0  0  0  0  0  0
  141.0311   81.9076  220.7462 H   0  0  0  0  0  0  0  0  0  0  0  0
  141.5984   82.9387  222.9048 H   0  0  0  0  0  0  0  0  0  0  0  0
  143.1851   79.3229  224.3175 H   0  0  0  0  0  0  0  0  0  0  0  0
  142.6595   78.1917  222.1905 H   0  0  0  0  0  0  0  0  0  0  0  0
  137.4909   75.1551  221.9050 H   0  0  0  0  0  0  0  0  0  0  0  0
  135.9346   76.9674  222.5565 H   0  0  0  0  0  0  0  0  0  0  0  0
  135.6150   79.2923  223.3916 H   0  0  0  0  0  0  0  0  0  0  0  0
  139.1498   81.6443  224.2468 H   0  0  0  0  0  0  0  0  0  0  0  0
  140.5863   79.7343  223.5598 H   0  0  0  0  0  0  0  0  0  0  0  0
  1  2  2  0
  2  3  1  0
  3  4  1  0
  4  5  1  0
  5  6  2  0
  5  7  1  0
  7  8  1  0
  8  9  1  0
  9 10  1  0
 10 11  1  0
 11 12  1  0
 12 13  1  0
 13 14  1  0
 14 15  1  0
 15 16  2  0
 16 17  1  0
 17 18  2  0
 18 19  1  0
 19 20  2  0
 14 21  1  0
 21 22  2  0
 22 23  1  0
 23 24  2  0
 24 25  1  0
 25 26  2  0
  2 27  1  0
 27 28  2  0
 28 29  1  0
 29 30  2  0
 30 31  1  0
 31 32  2  0
 32 33  1  0
 32 34  1  0
 34 35  2  0
 35 36  1  0
 36 37  2  0
 11  7  1  0
 20 15  1  0
 26 21  1  0
 37 27  1  0
 36 30  1  0
  3 38  1  0
  4 39  1  0
  4 40  1  0
  8 41  1  0
  8 42  1  0
  9 43  1  0
  9 44  1  0
 10 45  1  0
 10 46  1  0
 11 47  1  6
 12 48  1  0
 12 49  1  0
 13 50  1  0
 14 51  1  6
 16 52  1  0
 17 53  1  0
 18 54  1  0
 19 55  1  0
 20 56  1  0
 22 57  1  0
 23 58  1  0
 25 59  1  0
 26 60  1  0
 28 61  1  0
 29 62  1  0
 31 63  1  0
 34 64  1  0
 35 65  1  0
M  END
>  <smiles>  (88) 
O=C(NCC(=O)N1CCC[C@H]1CNC(c1ccccc1)c1ccncc1)c1ccc2cc(F)ccc2n1

>  <score_type>  (88) 
oracle

>  <origin>  (88) 
autodockgpu

>  <m_score__min__energy>  (88) 
-9.4299999999999997

>  <m_primary>  (88) 
energy

>  <rmsd>  (88) 
6.342662407599766

>  <m_score__min__rmsd>  (88) 
6.342662407599766

>  <meeko>  (88) 
{"free_energy": -6.55, "intermolecular_energy": -9.23, "internal_energy": -5.58, "cluster_size": 5, "cluster_id": 6, "rank_in_cluster": 3}

>  <energy>  (88) 
-6.93

>  <cluster_rmsd>  (88) 
0.0

>  <cluster>  (88) 
7

$$$$

     RDKit          3D

 65 69  0  0  1  0  0  0  0  0999 V2000
  140.0860   72.9010  222.4640 O   0  0  0  0  0  0  0  0  0  0  0  0
  139.3990   72.0170  223.0410 C   0  0  0  0  0  0  0  0  0  0  0  0
  138.1400   71.6420  222.5020 N   0  0  0  0  0  0  0  0  0  0  0  0
  137.6300   72.2580  221.2980 C   0  0  0  0  0  0  0  0  0  0  0  0
  136.5180   73.2120  221.5580 C   0  0  0  0  0  0  0  0  0  0  0  0
  135.3130   72.8570  221.5350 O   0  0  0  0  0  0  0  0  0  0  0  0
  136.8630   74.5520  221.8380 N   0  0  0  0  0  0  0  0  0  0  0  0
  136.6810   75.3030  223.0900 C   0  0  0  0  0  0  0  0  0  0  0  0
  135.9770   76.5380  222.5310 C   0  0  0  0  0  0  0  0  0  0  0  0
  136.9140   76.8420  221.3630 C   0  0  0  0  0  0  0  0  0  0  0  0
  137.4810   75.4920  220.9360 C   0  0  1  0  0  0  0  0  0  0  0  0
  138.9720   75.5990  221.1120 C   0  0  0  0  0  0  0  0  0  0  0  0
  139.3910   75.7920  222.4760 N   0  0  0  0  0  0  0  0  0  0  0  0
  140.7100   76.3940  222.4490 C   0  0  1  0  0  0  0  0  0  0  0  0
  141.4030   76.1490  221.1590 C   0  0  0  0  0  0  0  0  0  0  0  0
  141.5280   77.1750  220.2250 C   0  0  0  0  0  0  0  0  0  0  0  0
  142.1760   76.9590  219.0080 C   0  0  0  0  0  0  0  0  0  0  0  0
  142.7050   75.7150  218.7130 C   0  0  0  0  0  0  0  0  0  0  0  0
  142.5750   74.7090  219.6410 C   0  0  0  0  0  0  0  0  0  0  0  0
  141.9370   74.8900  220.8620 C   0  0  0  0  0  0  0  0  0  0  0  0
  140.6730   77.8530  222.7740 C   0  0  0  0  0  0  0  0  0  0  0  0
  141.8070   78.5400  223.1740 C   0  0  0  0  0  0  0  0  0  0  0  0
  141.7420   79.8830  223.4670 C   0  0  0  0  0  0  0  0  0  0  0  0
  140.5950   80.5650  223.3750 N   0  0  0  0  0  0  0  0  0  0  0  0
  139.4920   79.9300  222.9940 C   0  0  0  0  0  0  0  0  0  0  0  0
  139.4860   78.5860  222.6860 C   0  0  0  0  0  0  0  0  0  0  0  0
  139.8530   71.3460  224.2670 C   0  0  0  0  0  0  0  0  0  0  0  0
  140.8140   71.9140  225.0790 C   0  0  0  0  0  0  0  0  0  0  0  0
  141.2620   71.3060  226.2420 C   0  0  0  0  0  0  0  0  0  0  0  0
  140.7210   70.0790  226.6000 C   0  0  0  0  0  0  0  0  0  0  0  0
  141.1310   69.4140  227.7600 C   0  0  0  0  0  0  0  0  0  0  0  0
  140.5390   68.1870  228.0470 C   0  0  0  0  0  0  0  0  0  0  0  0
  140.9520   67.5540  229.1830 F   0  0  0  0  0  0  0  0  0  0  0  0
  139.5740   67.6350  227.2160 C   0  0  0  0  0  0  0  0  0  0  0  0
  139.1900   68.3170  226.0760 C   0  0  0  0  0  0  0  0  0  0  0  0
  139.7630   69.5350  225.7690 C   0  0  0  0  0  0  0  0  0  0  0  0
  139.3370   70.1390  224.6420 N   0  0  0  0  0  0  0  0  0  0  0  0
  137.5740   70.8950  223.0010 H   0  0  0  0  0  0  0  0  0  0  0  0
  138.4510   72.8020  220.8080 H   0  0  0  0  0  0  0  0  0  0  0  0
  137.2315   71.4545  220.6612 H   0  0  0  0  0  0  0  0  0  0  0  0
  136.0503   74.7592  223.8087 H   0  0  0  0  0  0  0  0  0  0  0  0
  137.6010   75.5014  223.6594 H   0  0  0  0  0  0  0  0  0  0  0  0
  134.9554   76.3117  222.1916 H   0  0  0  0  0  0  0  0  0  0  0  0
  135.8301   77.3616  223.2452 H   0  0  0  0  0  0  0  0  0  0  0  0
  136.3583   77.3054  220.5345 H   0  0  0  0  0  0  0  0  0  0  0  0
  137.7084   77.5472  221.6489 H   0  0  0  0  0  0  0  0  0  0  0  0
  137.2879   75.1831  219.8981 H   0  0  0  0  0  0  0  0  0  0  0  0
  139.4314   74.6723  220.7374 H   0  0  0  0  0  0  0  0  0  0  0  0
  139.2942   76.4895  220.5524 H   0  0  0  0  0  0  0  0  0  0  0  0
  139.3900   74.8570  222.9370 H   0  0  0  0  0  0  0  0  0  0  0  0
  141.2940   75.8999  223.2395 H   0  0  0  0  0  0  0  0  0  0  0  0
  141.1108   78.1677  220.4495 H   0  0  0  0  0  0  0  0  0  0  0  0
  142.2664   77.7799  218.2814 H   0  0  0  0  0  0  0  0  0  0  0  0
  143.2183   75.5349  217.7569 H   0  0  0  0  0  0  0  0  0  0  0  0
  142.9937   73.7191  219.4070 H   0  0  0  0  0  0  0  0  0  0  0  0
  141.8534   74.0610  221.5802 H   0  0  0  0  0  0  0  0  0  0  0  0
  142.7664   78.0085  223.2581 H   0  0  0  0  0  0  0  0  0  0  0  0
  142.6550   80.4081  223.7844 H   0  0  0  0  0  0  0  0  0  0  0  0
  138.5514   80.4957  222.9218 H   0  0  0  0  0  0  0  0  0  0  0  0
  138.5533   78.0939  222.3731 H   0  0  0  0  0  0  0  0  0  0  0  0
  141.2409   72.8864  224.7924 H   0  0  0  0  0  0  0  0  0  0  0  0
  142.0294   71.7857  226.8672 H   0  0  0  0  0  0  0  0  0  0  0  0
  141.8952   69.8457  228.4230 H   0  0  0  0  0  0  0  0  0  0  0  0
  139.1190   66.6642  227.4619 H   0  0  0  0  0  0  0  0  0  0  0  0
  138.4256   67.8877  225.4117 H   0  0  0  0  0  0  0  0  0  0  0  0
  1  2  2  0
  2  3  1  0
  3  4  1  0
  4  5  1  0
  5  6  2  0
  5  7  1  0
  7  8  1  0
  8  9  1  0
  9 10  1  0
 10 11  1  0
 11 12  1  0
 12 13  1  0
 13 14  1  0
 14 15  1  0
 15 16  2  0
 16 17  1  0
 17 18  2  0
 18 19  1  0
 19 20  2  0
 14 21  1  0
 21 22  2  0
 22 23  1  0
 23 24  2  0
 24 25  1  0
 25 26  2  0
  2 27  1  0
 27 28  2  0
 28 29  1  0
 29 30  2  0
 30 31  1  0
 31 32  2  0
 32 33  1  0
 32 34  1  0
 34 35  2  0
 35 36  1  0
 36 37  2  0
 11  7  1  0
 20 15  1  0
 26 21  1  0
 37 27  1  0
 36 30  1  0
  3 38  1  0
  4 39  1  0
  4 40  1  0
  8 41  1  0
  8 42  1  0
  9 43  1  0
  9 44  1  0
 10 45  1  0
 10 46  1  0
 11 47  1  6
 12 48  1  0
 12 49  1  0
 13 50  1  0
 14 51  1  1
 16 52  1  0
 17 53  1  0
 18 54  1  0
 19 55  1  0
 20 56  1  0
 22 57  1  0
 23 58  1  0
 25 59  1  0
 26 60  1  0
 28 61  1  0
 29 62  1  0
 31 63  1  0
 34 64  1  0
 35 65  1  0
M  END
>  <smiles>  (89) 
O=C(NCC(=O)N1CCC[C@H]1CNC(c1ccccc1)c1ccncc1)c1ccc2cc(F)ccc2n1

>  <score_type>  (89) 
oracle

>  <origin>  (89) 
autodockgpu

>  <m_score__min__energy>  (89) 
-9.4299999999999997

>  <m_primary>  (89) 
energy

>  <rmsd>  (89) 
4.558301537440223

>  <m_score__min__rmsd>  (89) 
4.558301537440223

>  <meeko>  (89) 
{"free_energy": -8.42, "intermolecular_energy": -11.11, "internal_energy": -3.52, "cluster_size": 19, "cluster_id": 1, "rank_in_cluster": 19}

>  <energy>  (89) 
-6.9

>  <cluster_rmsd>  (89) 
0.07

>  <cluster>  (89) 
7

$$$$

     RDKit          3D

 65 69  0  0  1  0  0  0  0  0999 V2000
  140.8260   72.4760  221.6730 O   0  0  0  0  0  0  0  0  0  0  0  0
  139.8760   72.3650  222.4940 C   0  0  0  0  0  0  0  0  0  0  0  0
  138.7080   73.1570  222.3290 N   0  0  0  0  0  0  0  0  0  0  0  0
  138.5870   74.0890  221.2300 C   0  0  0  0  0  0  0  0  0  0  0  0
  137.2600   74.7580  221.1790 C   0  0  0  0  0  0  0  0  0  0  0  0
  136.3810   74.4370  220.3420 O   0  0  0  0  0  0  0  0  0  0  0  0
  137.0120   75.7840  222.1180 N   0  0  0  0  0  0  0  0  0  0  0  0
  136.3070   75.6960  223.4060 C   0  0  0  0  0  0  0  0  0  0  0  0
  135.3240   76.8510  223.2230 C   0  0  0  0  0  0  0  0  0  0  0  0
  136.3000   77.9230  222.7400 C   0  0  0  0  0  0  0  0  0  0  0  0
  137.4060   77.1660  222.0110 C   0  0  1  0  0  0  0  0  0  0  0  0
  138.6770   77.4860  222.7510 C   0  0  0  0  0  0  0  0  0  0  0  0
  139.8050   76.6780  222.3600 N   0  0  0  0  0  0  0  0  0  0  0  0
  140.5810   77.4430  221.4030 C   0  0  1  0  0  0  0  0  0  0  0  0
  141.1830   78.6510  222.0200 C   0  0  0  0  0  0  0  0  0  0  0  0
  141.2610   79.8410  221.2990 C   0  0  0  0  0  0  0  0  0  0  0  0
  141.8240   80.9850  221.8660 C   0  0  0  0  0  0  0  0  0  0  0  0
  142.3170   80.9510  223.1590 C   0  0  0  0  0  0  0  0  0  0  0  0
  142.2360   79.7710  223.8610 C   0  0  0  0  0  0  0  0  0  0  0  0
  141.6810   78.6140  223.3280 C   0  0  0  0  0  0  0  0  0  0  0  0
  141.6190   76.6090  220.7220 C   0  0  0  0  0  0  0  0  0  0  0  0
  141.8090   75.2750  221.0440 C   0  0  0  0  0  0  0  0  0  0  0  0
  142.7730   74.5340  220.4000 C   0  0  0  0  0  0  0  0  0  0  0  0
  143.5500   75.0680  219.4510 N   0  0  0  0  0  0  0  0  0  0  0  0
  143.3890   76.3450  219.1230 C   0  0  0  0  0  0  0  0  0  0  0  0
  142.4430   77.1450  219.7280 C   0  0  0  0  0  0  0  0  0  0  0  0
  139.9270   71.4390  223.6340 C   0  0  0  0  0  0  0  0  0  0  0  0
  139.4850   70.1360  223.5160 C   0  0  0  0  0  0  0  0  0  0  0  0
  139.5200   69.2390  224.5730 C   0  0  0  0  0  0  0  0  0  0  0  0
  140.0200   69.6710  225.7940 C   0  0  0  0  0  0  0  0  0  0  0  0
  140.0810   68.8150  226.8980 C   0  0  0  0  0  0  0  0  0  0  0  0
  140.5950   69.3270  228.0860 C   0  0  0  0  0  0  0  0  0  0  0  0
  140.6480   68.4760  229.1520 F   0  0  0  0  0  0  0  0  0  0  0  0
  141.0350   70.6400  228.1810 C   0  0  0  0  0  0  0  0  0  0  0  0
  140.9600   71.4620  227.0710 C   0  0  0  0  0  0  0  0  0  0  0  0
  140.4540   70.9780  225.8810 C   0  0  0  0  0  0  0  0  0  0  0  0
  140.4140   71.8380  224.8450 N   0  0  0  0  0  0  0  0  0  0  0  0
  137.9190   73.0510  223.0300 H   0  0  0  0  0  0  0  0  0  0  0  0
  139.3643   74.8599  221.3370 H   0  0  0  0  0  0  0  0  0  0  0  0
  138.7026   73.5158  220.2983 H   0  0  0  0  0  0  0  0  0  0  0  0
  135.7917   74.7319  223.5286 H   0  0  0  0  0  0  0  0  0  0  0  0
  136.9462   75.7572  224.2991 H   0  0  0  0  0  0  0  0  0  0  0  0
  134.5559   76.6231  222.4693 H   0  0  0  0  0  0  0  0  0  0  0  0
  134.7343   77.1153  224.1132 H   0  0  0  0  0  0  0  0  0  0  0  0
  135.7964   78.6216  222.0557 H   0  0  0  0  0  0  0  0  0  0  0  0
  136.6954   78.5215  223.5739 H   0  0  0  0  0  0  0  0  0  0  0  0
  137.5621   77.4199  220.9522 H   0  0  0  0  0  0  0  0  0  0  0  0
  138.9276   78.5412  222.5670 H   0  0  0  0  0  0  0  0  0  0  0  0
  138.4876   77.2734  223.8135 H   0  0  0  0  0  0  0  0  0  0  0  0
  139.4280   75.7960  221.9520 H   0  0  0  0  0  0  0  0  0  0  0  0
  139.8764   77.7813  220.6290 H   0  0  0  0  0  0  0  0  0  0  0  0
  140.8739   79.8790  220.2701 H   0  0  0  0  0  0  0  0  0  0  0  0
  141.8762   81.9167  221.2836 H   0  0  0  0  0  0  0  0  0  0  0  0
  142.7633   81.8472  223.6147 H   0  0  0  0  0  0  0  0  0  0  0  0
  142.6274   79.7420  224.8886 H   0  0  0  0  0  0  0  0  0  0  0  0
  141.6339   77.6888  223.9211 H   0  0  0  0  0  0  0  0  0  0  0  0
  141.1855   74.8055  221.8191 H   0  0  0  0  0  0  0  0  0  0  0  0
  142.9080   73.4768  220.6721 H   0  0  0  0  0  0  0  0  0  0  0  0
  144.0318   76.7787  218.3428 H   0  0  0  0  0  0  0  0  0  0  0  0
  142.3372   78.1987  219.4303 H   0  0  0  0  0  0  0  0  0  0  0  0
  139.0902   69.7968  222.5469 H   0  0  0  0  0  0  0  0  0  0  0  0
  139.1594   68.2075  224.4467 H   0  0  0  0  0  0  0  0  0  0  0  0
  139.7348   67.7731  226.8300 H   0  0  0  0  0  0  0  0  0  0  0  0
  141.4393   71.0231  229.1296 H   0  0  0  0  0  0  0  0  0  0  0  0
  141.3046   72.5046  227.1366 H   0  0  0  0  0  0  0  0  0  0  0  0
  1  2  2  0
  2  3  1  0
  3  4  1  0
  4  5  1  0
  5  6  2  0
  5  7  1  0
  7  8  1  0
  8  9  1  0
  9 10  1  0
 10 11  1  0
 11 12  1  0
 12 13  1  0
 13 14  1  0
 14 15  1  0
 15 16  2  0
 16 17  1  0
 17 18  2  0
 18 19  1  0
 19 20  2  0
 14 21  1  0
 21 22  2  0
 22 23  1  0
 23 24  2  0
 24 25  1  0
 25 26  2  0
  2 27  1  0
 27 28  2  0
 28 29  1  0
 29 30  2  0
 30 31  1  0
 31 32  2  0
 32 33  1  0
 32 34  1  0
 34 35  2  0
 35 36  1  0
 36 37  2  0
 11  7  1  0
 20 15  1  0
 26 21  1  0
 37 27  1  0
 36 30  1  0
  3 38  1  0
  4 39  1  0
  4 40  1  0
  8 41  1  0
  8 42  1  0
  9 43  1  0
  9 44  1  0
 10 45  1  0
 10 46  1  0
 11 47  1  6
 12 48  1  0
 12 49  1  0
 13 50  1  0
 14 51  1  6
 16 52  1  0
 17 53  1  0
 18 54  1  0
 19 55  1  0
 20 56  1  0
 22 57  1  0
 23 58  1  0
 25 59  1  0
 26 60  1  0
 28 61  1  0
 29 62  1  0
 31 63  1  0
 34 64  1  0
 35 65  1  0
M  END
>  <smiles>  (90) 
O=C(NCC(=O)N1CCC[C@H]1CNC(c1ccccc1)c1ccncc1)c1ccc2cc(F)ccc2n1

>  <score_type>  (90) 
oracle

>  <origin>  (90) 
autodockgpu

>  <m_score__min__energy>  (90) 
-9.4299999999999997

>  <m_primary>  (90) 
energy

>  <rmsd>  (90) 
3.5424766453594647

>  <m_score__min__rmsd>  (90) 
3.5424766453594647

>  <meeko>  (90) 
{"free_energy": -9.43, "intermolecular_energy": -12.12, "internal_energy": -2.32, "cluster_size": 19, "cluster_id": 1, "rank_in_cluster": 1}

>  <energy>  (90) 
-6.86

>  <cluster_rmsd>  (90) 
0.72

>  <cluster>  (90) 
7

$$$$

     RDKit          3D

 65 69  0  0  1  0  0  0  0  0999 V2000
  139.5950   74.9300  222.3300 O   0  0  0  0  0  0  0  0  0  0  0  0
  139.1130   76.0070  221.8880 C   0  0  0  0  0  0  0  0  0  0  0  0
  137.7230   76.2660  222.0300 N   0  0  0  0  0  0  0  0  0  0  0  0
  136.8490   75.3130  222.6780 C   0  0  0  0  0  0  0  0  0  0  0  0
  136.1270   75.8860  223.8450 C   0  0  0  0  0  0  0  0  0  0  0  0
  136.1730   75.3590  224.9840 O   0  0  0  0  0  0  0  0  0  0  0  0
  135.3760   77.0630  223.6320 N   0  0  0  0  0  0  0  0  0  0  0  0
  134.2750   77.6070  224.4430 C   0  0  0  0  0  0  0  0  0  0  0  0
  133.2410   77.8140  223.3380 C   0  0  0  0  0  0  0  0  0  0  0  0
  134.1200   78.5330  222.3160 C   0  0  0  0  0  0  0  0  0  0  0  0
  135.5310   78.0030  222.5490 C   0  0  1  0  0  0  0  0  0  0  0  0
  136.3650   79.2020  222.9120 C   0  0  0  0  0  0  0  0  0  0  0  0
  137.7810   79.0130  222.7240 N   0  0  0  0  0  0  0  0  0  0  0  0
  138.4590   79.6410  223.8420 C   0  0  1  0  0  0  0  0  0  0  0  0
  139.8810   79.9320  223.5320 C   0  0  0  0  0  0  0  0  0  0  0  0
  140.8710   79.0020  223.8440 C   0  0  0  0  0  0  0  0  0  0  0  0
  142.2120   79.2610  223.5590 C   0  0  0  0  0  0  0  0  0  0  0  0
  142.5770   80.4530  222.9580 C   0  0  0  0  0  0  0  0  0  0  0  0
  141.5930   81.3640  222.6550 C   0  0  0  0  0  0  0  0  0  0  0  0
  140.2490   81.1380  222.9240 C   0  0  0  0  0  0  0  0  0  0  0  0
  137.7480   80.8680  224.3180 C   0  0  0  0  0  0  0  0  0  0  0  0
  137.3670   81.0220  225.6400 C   0  0  0  0  0  0  0  0  0  0  0  0
  136.7130   82.1610  226.0480 C   0  0  0  0  0  0  0  0  0  0  0  0
  136.4270   83.1500  225.1930 N   0  0  0  0  0  0  0  0  0  0  0  0
  136.7820   83.0270  223.9190 C   0  0  0  0  0  0  0  0  0  0  0  0
  137.4390   81.9130  223.4420 C   0  0  0  0  0  0  0  0  0  0  0  0
  139.9390   77.0230  221.2190 C   0  0  0  0  0  0  0  0  0  0  0  0
  141.2930   76.8310  221.0310 C   0  0  0  0  0  0  0  0  0  0  0  0
  142.0990   77.7690  220.4050 C   0  0  0  0  0  0  0  0  0  0  0  0
  141.5180   78.9460  219.9510 C   0  0  0  0  0  0  0  0  0  0  0  0
  142.2770   79.9320  219.3130 C   0  0  0  0  0  0  0  0  0  0  0  0
  141.6170   81.0830  218.8890 C   0  0  0  0  0  0  0  0  0  0  0  0
  142.3740   82.0330  218.2680 F   0  0  0  0  0  0  0  0  0  0  0  0
  140.2540   81.2540  219.0890 C   0  0  0  0  0  0  0  0  0  0  0  0
  139.5320   80.2600  219.7240 C   0  0  0  0  0  0  0  0  0  0  0  0
  140.1630   79.1090  220.1550 C   0  0  0  0  0  0  0  0  0  0  0  0
  139.3930   78.1880  220.7650 N   0  0  0  0  0  0  0  0  0  0  0  0
  137.3340   77.1780  221.6520 H   0  0  0  0  0  0  0  0  0  0  0  0
  136.1076   74.9626  221.9448 H   0  0  0  0  0  0  0  0  0  0  0  0
  137.4777   74.4913  223.0515 H   0  0  0  0  0  0  0  0  0  0  0  0
  133.9290   76.8900  225.2021 H   0  0  0  0  0  0  0  0  0  0  0  0
  134.5208   78.5020  225.0334 H   0  0  0  0  0  0  0  0  0  0  0  0
  132.8553   76.8595  222.9506 H   0  0  0  0  0  0  0  0  0  0  0  0
  132.3300   78.3522  223.6388 H   0  0  0  0  0  0  0  0  0  0  0  0
  133.7869   78.3034  221.2931 H   0  0  0  0  0  0  0  0  0  0  0  0
  134.0699   79.6258  222.4311 H   0  0  0  0  0  0  0  0  0  0  0  0
  136.0164   77.5034  221.6976 H   0  0  0  0  0  0  0  0  0  0  0  0
  136.0436   80.0483  222.2871 H   0  0  0  0  0  0  0  0  0  0  0  0
  136.2092   79.3831  223.9857 H   0  0  0  0  0  0  0  0  0  0  0  0
  138.0340   79.4470  221.8110 H   0  0  0  0  0  0  0  0  0  0  0  0
  138.4398   78.9135  224.6668 H   0  0  0  0  0  0  0  0  0  0  0  0
  140.5914   78.0512  224.3213 H   0  0  0  0  0  0  0  0  0  0  0  0
  142.9808   78.5162  223.8125 H   0  0  0  0  0  0  0  0  0  0  0  0
  143.6312   80.6668  222.7278 H   0  0  0  0  0  0  0  0  0  0  0  0
  141.8823   82.3126  222.1791 H   0  0  0  0  0  0  0  0  0  0  0  0
  139.4900   81.8908  222.6647 H   0  0  0  0  0  0  0  0  0  0  0  0
  137.5888   80.2284  226.3687 H   0  0  0  0  0  0  0  0  0  0  0  0
  136.4178   82.2615  227.1029 H   0  0  0  0  0  0  0  0  0  0  0  0
  136.5434   83.8424  223.2203 H   0  0  0  0  0  0  0  0  0  0  0  0
  137.7181   81.8467  222.3801 H   0  0  0  0  0  0  0  0  0  0  0  0
  141.7499   75.8977  221.3919 H   0  0  0  0  0  0  0  0  0  0  0  0
  143.1752   77.5852  220.2707 H   0  0  0  0  0  0  0  0  0  0  0  0
  143.3574   79.8032  219.1516 H   0  0  0  0  0  0  0  0  0  0  0  0
  139.7531   82.1712  218.7457 H   0  0  0  0  0  0  0  0  0  0  0  0
  138.4514   80.3863  219.8865 H   0  0  0  0  0  0  0  0  0  0  0  0
  1  2  2  0
  2  3  1  0
  3  4  1  0
  4  5  1  0
  5  6  2  0
  5  7  1  0
  7  8  1  0
  8  9  1  0
  9 10  1  0
 10 11  1  0
 11 12  1  0
 12 13  1  0
 13 14  1  0
 14 15  1  0
 15 16  2  0
 16 17  1  0
 17 18  2  0
 18 19  1  0
 19 20  2  0
 14 21  1  0
 21 22  2  0
 22 23  1  0
 23 24  2  0
 24 25  1  0
 25 26  2  0
  2 27  1  0
 27 28  2  0
 28 29  1  0
 29 30  2  0
 30 31  1  0
 31 32  2  0
 32 33  1  0
 32 34  1  0
 34 35  2  0
 35 36  1  0
 36 37  2  0
 11  7  1  0
 20 15  1  0
 26 21  1  0
 37 27  1  0
 36 30  1  0
  3 38  1  0
  4 39  1  0
  4 40  1  0
  8 41  1  0
  8 42  1  0
  9 43  1  0
  9 44  1  0
 10 45  1  0
 10 46  1  0
 11 47  1  6
 12 48  1  0
 12 49  1  0
 13 50  1  0
 14 51  1  1
 16 52  1  0
 17 53  1  0
 18 54  1  0
 19 55  1  0
 20 56  1  0
 22 57  1  0
 23 58  1  0
 25 59  1  0
 26 60  1  0
 28 61  1  0
 29 62  1  0
 31 63  1  0
 34 64  1  0
 35 65  1  0
M  END
>  <smiles>  (91) 
O=C(NCC(=O)N1CCC[C@H]1CNC(c1ccccc1)c1ccncc1)c1ccc2cc(F)ccc2n1

>  <score_type>  (91) 
oracle

>  <origin>  (91) 
autodockgpu

>  <m_score__min__energy>  (91) 
-9.4299999999999997

>  <m_primary>  (91) 
energy

>  <rmsd>  (91) 
8.202576939435474

>  <m_score__min__rmsd>  (91) 
8.202576939435474

>  <meeko>  (91) 
{"free_energy": -6.14, "intermolecular_energy": -8.83, "internal_energy": -5.35, "cluster_size": 1, "cluster_id": 10, "rank_in_cluster": 1}

>  <energy>  (91) 
-6.87

>  <cluster_rmsd>  (91) 
0.0

>  <cluster>  (91) 
8

$$$$

     RDKit          3D

 65 69  0  0  1  0  0  0  0  0999 V2000
  141.1870   73.9560  221.9640 O   0  0  0  0  0  0  0  0  0  0  0  0
  140.2740   73.0910  221.8920 C   0  0  0  0  0  0  0  0  0  0  0  0
  139.4770   73.0060  220.7190 N   0  0  0  0  0  0  0  0  0  0  0  0
  139.6970   73.8960  219.6020 C   0  0  0  0  0  0  0  0  0  0  0  0
  138.7880   75.0740  219.6100 C   0  0  0  0  0  0  0  0  0  0  0  0
  138.4500   75.6660  218.5550 O   0  0  0  0  0  0  0  0  0  0  0  0
  138.3080   75.5160  220.8620 N   0  0  0  0  0  0  0  0  0  0  0  0
  137.2150   74.9570  221.6730 C   0  0  0  0  0  0  0  0  0  0  0  0
  136.4180   76.2370  221.9190 C   0  0  0  0  0  0  0  0  0  0  0  0
  137.5610   77.1520  222.3580 C   0  0  0  0  0  0  0  0  0  0  0  0
  138.7970   76.6330  221.6310 C   0  0  1  0  0  0  0  0  0  0  0  0
  139.7710   76.2390  222.7080 C   0  0  0  0  0  0  0  0  0  0  0  0
  141.0880   76.8010  222.5450 N   0  0  0  0  0  0  0  0  0  0  0  0
  140.9720   77.9420  221.6570 C   0  0  1  0  0  0  0  0  0  0  0  0
  141.3920   79.2020  222.3190 C   0  0  0  0  0  0  0  0  0  0  0  0
  140.6140   80.3510  222.1940 C   0  0  0  0  0  0  0  0  0  0  0  0
  140.9960   81.5440  222.8110 C   0  0  0  0  0  0  0  0  0  0  0  0
  142.1600   81.5990  223.5570 C   0  0  0  0  0  0  0  0  0  0  0  0
  142.9200   80.4590  223.6730 C   0  0  0  0  0  0  0  0  0  0  0  0
  142.5700   79.2560  223.0740 C   0  0  0  0  0  0  0  0  0  0  0  0
  141.7080   77.7340  220.3720 C   0  0  0  0  0  0  0  0  0  0  0  0
  141.8310   78.7430  219.4310 C   0  0  0  0  0  0  0  0  0  0  0  0
  142.5130   78.5220  218.2580 C   0  0  0  0  0  0  0  0  0  0  0  0
  143.0770   77.3400  217.9870 N   0  0  0  0  0  0  0  0  0  0  0  0
  142.9740   76.3550  218.8710 C   0  0  0  0  0  0  0  0  0  0  0  0
  142.3050   76.5070  220.0670 C   0  0  0  0  0  0  0  0  0  0  0  0
  139.9940   72.1510  222.9870 C   0  0  0  0  0  0  0  0  0  0  0  0
  139.0470   71.1560  222.8500 C   0  0  0  0  0  0  0  0  0  0  0  0
  138.7600   70.2550  223.8640 C   0  0  0  0  0  0  0  0  0  0  0  0
  139.4530   70.3620  225.0620 C   0  0  0  0  0  0  0  0  0  0  0  0
  139.2090   69.4850  226.1240 C   0  0  0  0  0  0  0  0  0  0  0  0
  139.9470   69.6610  227.2920 C   0  0  0  0  0  0  0  0  0  0  0  0
  139.6950   68.7950  228.3150 F   0  0  0  0  0  0  0  0  0  0  0  0
  140.8940   70.6690  227.4070 C   0  0  0  0  0  0  0  0  0  0  0  0
  141.1110   71.5210  226.3390 C   0  0  0  0  0  0  0  0  0  0  0  0
  140.3920   71.3670  225.1700 C   0  0  0  0  0  0  0  0  0  0  0  0
  140.6610   72.2350  224.1750 N   0  0  0  0  0  0  0  0  0  0  0  0
  138.7120   72.2710  220.6760 H   0  0  0  0  0  0  0  0  0  0  0  0
  140.7362   74.2548  219.6390 H   0  0  0  0  0  0  0  0  0  0  0  0
  139.4915   73.3278  218.6828 H   0  0  0  0  0  0  0  0  0  0  0  0
  136.6311   74.2083  221.1176 H   0  0  0  0  0  0  0  0  0  0  0  0
  137.5278   74.4144  222.5773 H   0  0  0  0  0  0  0  0  0  0  0  0
  135.9280   76.5998  221.0034 H   0  0  0  0  0  0  0  0  0  0  0  0
  135.5856   76.1454  222.6323 H   0  0  0  0  0  0  0  0  0  0  0  0
  137.3534   78.1929  222.0692 H   0  0  0  0  0  0  0  0  0  0  0  0
  137.6951   77.1442  223.4498 H   0  0  0  0  0  0  0  0  0  0  0  0
  139.3075   77.3407  220.9612 H   0  0  0  0  0  0  0  0  0  0  0  0
  139.3699   76.5741  223.6759 H   0  0  0  0  0  0  0  0  0  0  0  0
  139.8831   75.1463  222.6497 H   0  0  0  0  0  0  0  0  0  0  0  0
  141.6990   76.0530  222.1530 H   0  0  0  0  0  0  0  0  0  0  0  0
  139.9047   78.0377  221.4086 H   0  0  0  0  0  0  0  0  0  0  0  0
  139.6875   80.3180  221.6020 H   0  0  0  0  0  0  0  0  0  0  0  0
  140.3701   82.4422  222.7037 H   0  0  0  0  0  0  0  0  0  0  0  0
  142.4705   82.5339  224.0464 H   0  0  0  0  0  0  0  0  0  0  0  0
  143.8455   80.5018  224.2661 H   0  0  0  0  0  0  0  0  0  0  0  0
  143.2044   78.3649  223.1901 H   0  0  0  0  0  0  0  0  0  0  0  0
  141.3800   79.7276  219.6236 H   0  0  0  0  0  0  0  0  0  0  0  0
  142.5969   79.3373  217.5243 H   0  0  0  0  0  0  0  0  0  0  0  0
  143.4382   75.3845  218.6415 H   0  0  0  0  0  0  0  0  0  0  0  0
  142.2414   75.6687  220.7764 H   0  0  0  0  0  0  0  0  0  0  0  0
  138.4989   71.0748  221.8997 H   0  0  0  0  0  0  0  0  0  0  0  0
  137.9999   69.4726  223.7223 H   0  0  0  0  0  0  0  0  0  0  0  0
  138.4600   68.6838  226.0396 H   0  0  0  0  0  0  0  0  0  0  0  0
  141.4666   70.7893  228.3385 H   0  0  0  0  0  0  0  0  0  0  0  0
  141.8586   72.3237  226.4211 H   0  0  0  0  0  0  0  0  0  0  0  0
  1  2  2  0
  2  3  1  0
  3  4  1  0
  4  5  1  0
  5  6  2  0
  5  7  1  0
  7  8  1  0
  8  9  1  0
  9 10  1  0
 10 11  1  0
 11 12  1  0
 12 13  1  0
 13 14  1  0
 14 15  1  0
 15 16  2  0
 16 17  1  0
 17 18  2  0
 18 19  1  0
 19 20  2  0
 14 21  1  0
 21 22  2  0
 22 23  1  0
 23 24  2  0
 24 25  1  0
 25 26  2  0
  2 27  1  0
 27 28  2  0
 28 29  1  0
 29 30  2  0
 30 31  1  0
 31 32  2  0
 32 33  1  0
 32 34  1  0
 34 35  2  0
 35 36  1  0
 36 37  2  0
 11  7  1  0
 20 15  1  0
 26 21  1  0
 37 27  1  0
 36 30  1  0
  3 38  1  0
  4 39  1  0
  4 40  1  0
  8 41  1  0
  8 42  1  0
  9 43  1  0
  9 44  1  0
 10 45  1  0
 10 46  1  0
 11 47  1  6
 12 48  1  0
 12 49  1  0
 13 50  1  0
 14 51  1  6
 16 52  1  0
 17 53  1  0
 18 54  1  0
 19 55  1  0
 20 56  1  0
 22 57  1  0
 23 58  1  0
 25 59  1  0
 26 60  1  0
 28 61  1  0
 29 62  1  0
 31 63  1  0
 34 64  1  0
 35 65  1  0
M  END
>  <smiles>  (92) 
O=C(NCC(=O)N1CCC[C@H]1CNC(c1ccccc1)c1ccncc1)c1ccc2cc(F)ccc2n1

>  <score_type>  (92) 
oracle

>  <origin>  (92) 
autodockgpu

>  <m_score__min__energy>  (92) 
-9.4299999999999997

>  <m_primary>  (92) 
energy

>  <rmsd>  (92) 
3.1710744978373855

>  <m_score__min__rmsd>  (92) 
3.1710744978373855

>  <meeko>  (92) 
{"free_energy": -8.79, "intermolecular_energy": -11.47, "internal_energy": -3.58, "cluster_size": 19, "cluster_id": 1, "rank_in_cluster": 12}

>  <energy>  (92) 
-6.47

>  <cluster_rmsd>  (92) 
1.42

>  <cluster>  (92) 
8

$$$$

     RDKit          3D

 65 69  0  0  1  0  0  0  0  0999 V2000
  139.9460   74.0370  221.9860 O   0  0  0  0  0  0  0  0  0  0  0  0
  140.2150   75.2590  221.8320 C   0  0  0  0  0  0  0  0  0  0  0  0
  141.4660   75.6390  221.2780 N   0  0  0  0  0  0  0  0  0  0  0  0
  142.4410   74.6460  220.8840 C   0  0  0  0  0  0  0  0  0  0  0  0
  143.1400   74.9870  219.6160 C   0  0  0  0  0  0  0  0  0  0  0  0
  144.3180   74.6220  219.3820 O   0  0  0  0  0  0  0  0  0  0  0  0
  142.4260   75.7490  218.6650 N   0  0  0  0  0  0  0  0  0  0  0  0
  141.0140   75.6270  218.2670 C   0  0  0  0  0  0  0  0  0  0  0  0
  141.1960   75.5550  216.7520 C   0  0  0  0  0  0  0  0  0  0  0  0
  142.1420   76.7410  216.5660 C   0  0  0  0  0  0  0  0  0  0  0  0
  142.9390   76.8310  217.8630 C   0  0  1  0  0  0  0  0  0  0  0  0
  142.6400   78.1920  218.4330 C   0  0  0  0  0  0  0  0  0  0  0  0
  142.0870   78.1650  219.7630 N   0  0  0  0  0  0  0  0  0  0  0  0
  141.4250   79.4360  219.9890 C   0  0  1  0  0  0  0  0  0  0  0  0
  139.9580   79.3370  219.7880 C   0  0  0  0  0  0  0  0  0  0  0  0
  139.3800   78.1210  219.4270 C   0  0  0  0  0  0  0  0  0  0  0  0
  138.0030   78.0120  219.2340 C   0  0  0  0  0  0  0  0  0  0  0  0
  137.1880   79.1190  219.4000 C   0  0  0  0  0  0  0  0  0  0  0  0
  137.7680   80.3130  219.7550 C   0  0  0  0  0  0  0  0  0  0  0  0
  139.1350   80.4570  219.9550 C   0  0  0  0  0  0  0  0  0  0  0  0
  141.7490   80.0120  221.3300 C   0  0  0  0  0  0  0  0  0  0  0  0
  141.4840   81.3360  221.6380 C   0  0  0  0  0  0  0  0  0  0  0  0
  141.7940   81.8380  222.8800 C   0  0  0  0  0  0  0  0  0  0  0  0
  142.3560   81.0740  223.8240 N   0  0  0  0  0  0  0  0  0  0  0  0
  142.6220   79.8010  223.5550 C   0  0  0  0  0  0  0  0  0  0  0  0
  142.3370   79.2330  222.3310 C   0  0  0  0  0  0  0  0  0  0  0  0
  139.2740   76.3240  222.2080 C   0  0  0  0  0  0  0  0  0  0  0  0
  137.9110   76.1510  222.0800 C   0  0  0  0  0  0  0  0  0  0  0  0
  136.9990   77.1360  222.4260 C   0  0  0  0  0  0  0  0  0  0  0  0
  137.4790   78.3420  222.9200 C   0  0  0  0  0  0  0  0  0  0  0  0
  136.6110   79.3750  223.2850 C   0  0  0  0  0  0  0  0  0  0  0  0
  137.1740   80.5520  223.7710 C   0  0  0  0  0  0  0  0  0  0  0  0
  136.3110   81.5480  224.1240 F   0  0  0  0  0  0  0  0  0  0  0  0
  138.5490   80.7030  223.8920 C   0  0  0  0  0  0  0  0  0  0  0  0
  139.3810   79.6630  223.5210 C   0  0  0  0  0  0  0  0  0  0  0  0
  138.8470   78.4850  223.0360 C   0  0  0  0  0  0  0  0  0  0  0  0
  139.7210   77.5180  222.6960 N   0  0  0  0  0  0  0  0  0  0  0  0
  141.6760   76.6720  221.1560 H   0  0  0  0  0  0  0  0  0  0  0  0
  143.1908   74.5547  221.6837 H   0  0  0  0  0  0  0  0  0  0  0  0
  141.9002   73.7027  220.7175 H   0  0  0  0  0  0  0  0  0  0  0  0
  140.5495   74.7150  218.6701 H   0  0  0  0  0  0  0  0  0  0  0  0
  140.3513   76.4284  218.6255 H   0  0  0  0  0  0  0  0  0  0  0  0
  141.6566   74.6071  216.4368 H   0  0  0  0  0  0  0  0  0  0  0  0
  140.2681   75.5940  216.1625 H   0  0  0  0  0  0  0  0  0  0  0  0
  142.8140   76.5670  215.7127 H   0  0  0  0  0  0  0  0  0  0  0  0
  141.5945   77.6719  216.3570 H   0  0  0  0  0  0  0  0  0  0  0  0
  144.0315   76.7354  217.7773 H   0  0  0  0  0  0  0  0  0  0  0  0
  143.5765   78.7684  218.4601 H   0  0  0  0  0  0  0  0  0  0  0  0
  141.8789   78.6477  217.7826 H   0  0  0  0  0  0  0  0  0  0  0  0
  142.8770   78.0060  220.4250 H   0  0  0  0  0  0  0  0  0  0  0  0
  141.8187   80.1316  219.2332 H   0  0  0  0  0  0  0  0  0  0  0  0
  140.0185   77.2354  219.2925 H   0  0  0  0  0  0  0  0  0  0  0  0
  137.5635   77.0446  218.9493 H   0  0  0  0  0  0  0  0  0  0  0  0
  136.1007   79.0443  219.2510 H   0  0  0  0  0  0  0  0  0  0  0  0
  137.1216   81.1932  219.8866 H   0  0  0  0  0  0  0  0  0  0  0  0
  139.5617   81.4304  220.2386 H   0  0  0  0  0  0  0  0  0  0  0  0
  141.0224   81.9904  220.8839 H   0  0  0  0  0  0  0  0  0  0  0  0
  141.5748   82.8926  223.1029 H   0  0  0  0  0  0  0  0  0  0  0  0
  143.0853   79.1786  224.3347 H   0  0  0  0  0  0  0  0  0  0  0  0
  142.5707   78.1746  222.1436 H   0  0  0  0  0  0  0  0  0  0  0  0
  137.5337   75.1948  221.6884 H   0  0  0  0  0  0  0  0  0  0  0  0
  135.9182   76.9661  222.3117 H   0  0  0  0  0  0  0  0  0  0  0  0
  135.5208   79.2619  223.1915 H   0  0  0  0  0  0  0  0  0  0  0  0
  138.9724   81.6414  224.2795 H   0  0  0  0  0  0  0  0  0  0  0  0
  140.4716   79.7740  223.6123 H   0  0  0  0  0  0  0  0  0  0  0  0
  1  2  2  0
  2  3  1  0
  3  4  1  0
  4  5  1  0
  5  6  2  0
  5  7  1  0
  7  8  1  0
  8  9  1  0
  9 10  1  0
 10 11  1  0
 11 12  1  0
 12 13  1  0
 13 14  1  0
 14 15  1  0
 15 16  2  0
 16 17  1  0
 17 18  2  0
 18 19  1  0
 19 20  2  0
 14 21  1  0
 21 22  2  0
 22 23  1  0
 23 24  2  0
 24 25  1  0
 25 26  2  0
  2 27  1  0
 27 28  2  0
 28 29  1  0
 29 30  2  0
 30 31  1  0
 31 32  2  0
 32 33  1  0
 32 34  1  0
 34 35  2  0
 35 36  1  0
 36 37  2  0
 11  7  1  0
 20 15  1  0
 26 21  1  0
 37 27  1  0
 36 30  1  0
  3 38  1  0
  4 39  1  0
  4 40  1  0
  8 41  1  0
  8 42  1  0
  9 43  1  0
  9 44  1  0
 10 45  1  0
 10 46  1  0
 11 47  1  6
 12 48  1  0
 12 49  1  0
 13 50  1  0
 14 51  1  6
 16 52  1  0
 17 53  1  0
 18 54  1  0
 19 55  1  0
 20 56  1  0
 22 57  1  0
 23 58  1  0
 25 59  1  0
 26 60  1  0
 28 61  1  0
 29 62  1  0
 31 63  1  0
 34 64  1  0
 35 65  1  0
M  END
>  <smiles>  (93) 
O=C(NCC(=O)N1CCC[C@H]1CNC(c1ccccc1)c1ccncc1)c1ccc2cc(F)ccc2n1

>  <score_type>  (93) 
oracle

>  <origin>  (93) 
autodockgpu

>  <m_score__min__energy>  (93) 
-9.4299999999999997

>  <m_primary>  (93) 
energy

>  <rmsd>  (93) 
6.3288819006534425

>  <m_score__min__rmsd>  (93) 
6.3288819006534425

>  <meeko>  (93) 
{"free_energy": -6.33, "intermolecular_energy": -9.02, "internal_energy": -5.68, "cluster_size": 5, "cluster_id": 6, "rank_in_cluster": 4}

>  <energy>  (93) 
-6.41

>  <cluster_rmsd>  (93) 
1.37

>  <cluster>  (93) 
8

$$$$

     RDKit          3D

 65 69  0  0  1  0  0  0  0  0999 V2000
  138.6100   71.2670  221.1730 O   0  0  0  0  0  0  0  0  0  0  0  0
  139.0220   71.7730  222.2510 C   0  0  0  0  0  0  0  0  0  0  0  0
  139.2230   73.1770  222.3390 N   0  0  0  0  0  0  0  0  0  0  0  0
  138.9610   74.0390  221.2080 C   0  0  0  0  0  0  0  0  0  0  0  0
  139.1060   75.4840  221.5330 C   0  0  0  0  0  0  0  0  0  0  0  0
  140.1890   76.0990  221.3770 O   0  0  0  0  0  0  0  0  0  0  0  0
  137.9680   76.1560  222.0300 N   0  0  0  0  0  0  0  0  0  0  0  0
  137.2990   75.9870  223.3300 C   0  0  0  0  0  0  0  0  0  0  0  0
  135.8650   75.7910  222.8390 C   0  0  0  0  0  0  0  0  0  0  0  0
  135.7800   76.9680  221.8680 C   0  0  0  0  0  0  0  0  0  0  0  0
  137.2020   77.1740  221.3560 C   0  0  1  0  0  0  0  0  0  0  0  0
  137.5820   78.5740  221.7570 C   0  0  0  0  0  0  0  0  0  0  0  0
  138.7810   78.6530  222.5530 N   0  0  0  0  0  0  0  0  0  0  0  0
  139.2090   80.0390  222.5640 C   0  0  1  0  0  0  0  0  0  0  0  0
  138.3510   80.8760  223.4390 C   0  0  0  0  0  0  0  0  0  0  0  0
  138.1180   80.4990  224.7600 C   0  0  0  0  0  0  0  0  0  0  0  0
  137.3130   81.2750  225.5940 C   0  0  0  0  0  0  0  0  0  0  0  0
  136.7310   82.4360  225.1160 C   0  0  0  0  0  0  0  0  0  0  0  0
  136.9660   82.7980  223.8110 C   0  0  0  0  0  0  0  0  0  0  0  0
  137.7620   82.0490  222.9530 C   0  0  0  0  0  0  0  0  0  0  0  0
  140.6530   80.1810  222.9270 C   0  0  0  0  0  0  0  0  0  0  0  0
  141.0970   81.1860  223.7710 C   0  0  0  0  0  0  0  0  0  0  0  0
  142.4310   81.2920  224.0870 C   0  0  0  0  0  0  0  0  0  0  0  0
  143.3370   80.4380  223.5960 N   0  0  0  0  0  0  0  0  0  0  0  0
  142.9390   79.4650  222.7840 C   0  0  0  0  0  0  0  0  0  0  0  0
  141.6170   79.3010  222.4270 C   0  0  0  0  0  0  0  0  0  0  0  0
  139.3090   70.9590  223.4410 C   0  0  0  0  0  0  0  0  0  0  0  0
  138.9960   69.6160  223.4810 C   0  0  0  0  0  0  0  0  0  0  0  0
  139.2540   68.8220  224.5880 C   0  0  0  0  0  0  0  0  0  0  0  0
  139.8510   69.4050  225.6980 C   0  0  0  0  0  0  0  0  0  0  0  0
  140.1360   68.6590  226.8460 C   0  0  0  0  0  0  0  0  0  0  0  0
  140.7350   69.3200  227.9150 C   0  0  0  0  0  0  0  0  0  0  0  0
  141.0070   68.5750  229.0250 F   0  0  0  0  0  0  0  0  0  0  0  0
  141.0420   70.6720  227.8520 C   0  0  0  0  0  0  0  0  0  0  0  0
  140.7470   71.3820  226.7030 C   0  0  0  0  0  0  0  0  0  0  0  0
  140.1520   70.7500  225.6290 C   0  0  0  0  0  0  0  0  0  0  0  0
  139.8960   71.5080  224.5450 N   0  0  0  0  0  0  0  0  0  0  0  0
  139.5710   73.5850  223.2540 H   0  0  0  0  0  0  0  0  0  0  0  0
  139.6687   73.7877  220.4042 H   0  0  0  0  0  0  0  0  0  0  0  0
  137.9173   73.8733  220.9025 H   0  0  0  0  0  0  0  0  0  0  0  0
  137.6722   75.1070  223.8743 H   0  0  0  0  0  0  0  0  0  0  0  0
  137.4449   76.8085  224.0468 H   0  0  0  0  0  0  0  0  0  0  0  0
  135.7323   74.8255  222.3290 H   0  0  0  0  0  0  0  0  0  0  0  0
  135.0953   75.7701  223.6246 H   0  0  0  0  0  0  0  0  0  0  0  0
  135.1015   76.7316  221.0351 H   0  0  0  0  0  0  0  0  0  0  0  0
  135.3853   77.8721  222.3546 H   0  0  0  0  0  0  0  0  0  0  0  0
  137.3525   77.0838  220.2701 H   0  0  0  0  0  0  0  0  0  0  0  0
  137.7348   79.1659  220.8425 H   0  0  0  0  0  0  0  0  0  0  0  0
  136.7615   78.9593  222.3802 H   0  0  0  0  0  0  0  0  0  0  0  0
  139.4860   78.0230  222.1150 H   0  0  0  0  0  0  0  0  0  0  0  0
  139.0939   80.4091  221.5346 H   0  0  0  0  0  0  0  0  0  0  0  0
  138.5748   79.5775  225.1502 H   0  0  0  0  0  0  0  0  0  0  0  0
  137.1403   80.9632  226.6346 H   0  0  0  0  0  0  0  0  0  0  0  0
  136.0948   83.0550  225.7656 H   0  0  0  0  0  0  0  0  0  0  0  0
  136.5040   83.7204  223.4294 H   0  0  0  0  0  0  0  0  0  0  0  0
  137.9257   82.3711  221.9140 H   0  0  0  0  0  0  0  0  0  0  0  0
  140.3774   81.9041  224.1912 H   0  0  0  0  0  0  0  0  0  0  0  0
  142.7613   82.0976  224.7592 H   0  0  0  0  0  0  0  0  0  0  0  0
  143.6886   78.7669  222.3831 H   0  0  0  0  0  0  0  0  0  0  0  0
  141.3231   78.4828  221.7530 H   0  0  0  0  0  0  0  0  0  0  0  0
  138.5232   69.1571  222.6002 H   0  0  0  0  0  0  0  0  0  0  0  0
  138.9916   67.7538  224.5870 H   0  0  0  0  0  0  0  0  0  0  0  0
  139.8953   67.5871  226.9025 H   0  0  0  0  0  0  0  0  0  0  0  0
  141.5157   71.1741  228.7085 H   0  0  0  0  0  0  0  0  0  0  0  0
  140.9870   72.4539  226.6441 H   0  0  0  0  0  0  0  0  0  0  0  0
  1  2  2  0
  2  3  1  0
  3  4  1  0
  4  5  1  0
  5  6  2  0
  5  7  1  0
  7  8  1  0
  8  9  1  0
  9 10  1  0
 10 11  1  0
 11 12  1  0
 12 13  1  0
 13 14  1  0
 14 15  1  0
 15 16  2  0
 16 17  1  0
 17 18  2  0
 18 19  1  0
 19 20  2  0
 14 21  1  0
 21 22  2  0
 22 23  1  0
 23 24  2  0
 24 25  1  0
 25 26  2  0
  2 27  1  0
 27 28  2  0
 28 29  1  0
 29 30  2  0
 30 31  1  0
 31 32  2  0
 32 33  1  0
 32 34  1  0
 34 35  2  0
 35 36  1  0
 36 37  2  0
 11  7  1  0
 20 15  1  0
 26 21  1  0
 37 27  1  0
 36 30  1  0
  3 38  1  0
  4 39  1  0
  4 40  1  0
  8 41  1  0
  8 42  1  0
  9 43  1  0
  9 44  1  0
 10 45  1  0
 10 46  1  0
 11 47  1  6
 12 48  1  0
 12 49  1  0
 13 50  1  0
 14 51  1  6
 16 52  1  0
 17 53  1  0
 18 54  1  0
 19 55  1  0
 20 56  1  0
 22 57  1  0
 23 58  1  0
 25 59  1  0
 26 60  1  0
 28 61  1  0
 29 62  1  0
 31 63  1  0
 34 64  1  0
 35 65  1  0
M  END
>  <smiles>  (94) 
O=C(NCC(=O)N1CCC[C@H]1CNC(c1ccccc1)c1ccncc1)c1ccc2cc(F)ccc2n1

>  <score_type>  (94) 
oracle

>  <origin>  (94) 
autodockgpu

>  <m_score__min__energy>  (94) 
-9.4299999999999997

>  <m_primary>  (94) 
energy

>  <rmsd>  (94) 
3.551538431611816

>  <m_score__min__rmsd>  (94) 
3.551538431611816

>  <meeko>  (94) 
{"free_energy": -8.62, "intermolecular_energy": -11.3, "internal_energy": -3.12, "cluster_size": 5, "cluster_id": 3, "rank_in_cluster": 5}

>  <energy>  (94) 
-6.3

>  <cluster_rmsd>  (94) 
1.44

>  <cluster>  (94) 
8

$$$$

     RDKit          3D

 65 69  0  0  1  0  0  0  0  0999 V2000
  138.6580   75.3950  221.4510 O   0  0  0  0  0  0  0  0  0  0  0  0
  139.8300   75.8370  221.5880 C   0  0  0  0  0  0  0  0  0  0  0  0
  140.9340   75.0490  221.1670 N   0  0  0  0  0  0  0  0  0  0  0  0
  140.7360   73.7430  220.5790 C   0  0  0  0  0  0  0  0  0  0  0  0
  141.8630   72.8090  220.8440 C   0  0  0  0  0  0  0  0  0  0  0  0
  141.7400   71.8050  221.5880 O   0  0  0  0  0  0  0  0  0  0  0  0
  143.0990   73.0880  220.2200 N   0  0  0  0  0  0  0  0  0  0  0  0
  143.7840   72.3290  219.1620 C   0  0  0  0  0  0  0  0  0  0  0  0
  145.1600   72.1950  219.8140 C   0  0  0  0  0  0  0  0  0  0  0  0
  145.3700   73.6490  220.2340 C   0  0  0  0  0  0  0  0  0  0  0  0
  143.9730   74.2020  220.4930 C   0  0  1  0  0  0  0  0  0  0  0  0
  143.8010   75.3480  219.5320 C   0  0  0  0  0  0  0  0  0  0  0  0
  142.9550   76.4060  220.0230 N   0  0  0  0  0  0  0  0  0  0  0  0
  141.9330   76.6500  219.0230 C   0  0  1  0  0  0  0  0  0  0  0  0
  141.3590   78.0130  219.1420 C   0  0  0  0  0  0  0  0  0  0  0  0
  139.9810   78.2040  219.0550 C   0  0  0  0  0  0  0  0  0  0  0  0
  139.4270   79.4790  219.1650 C   0  0  0  0  0  0  0  0  0  0  0  0
  140.2450   80.5790  219.3610 C   0  0  0  0  0  0  0  0  0  0  0  0
  141.6020   80.3800  219.4440 C   0  0  0  0  0  0  0  0  0  0  0  0
  142.1870   79.1240  219.3400 C   0  0  0  0  0  0  0  0  0  0  0  0
  142.4260   76.3890  217.6350 C   0  0  0  0  0  0  0  0  0  0  0  0
  142.0820   75.2400  216.9430 C   0  0  0  0  0  0  0  0  0  0  0  0
  142.5520   75.0280  215.6680 C   0  0  0  0  0  0  0  0  0  0  0  0
  143.3470   75.9140  215.0580 N   0  0  0  0  0  0  0  0  0  0  0  0
  143.6910   77.0250  215.6980 C   0  0  0  0  0  0  0  0  0  0  0  0
  143.2570   77.3010  216.9780 C   0  0  0  0  0  0  0  0  0  0  0  0
  140.1080   77.1560  222.1770 C   0  0  0  0  0  0  0  0  0  0  0  0
  139.0940   77.9360  222.6940 C   0  0  0  0  0  0  0  0  0  0  0  0
  139.3240   79.1820  223.2550 C   0  0  0  0  0  0  0  0  0  0  0  0
  140.6270   79.6610  223.2970 C   0  0  0  0  0  0  0  0  0  0  0  0
  140.9250   80.9110  223.8480 C   0  0  0  0  0  0  0  0  0  0  0  0
  142.2570   81.3170  223.8500 C   0  0  0  0  0  0  0  0  0  0  0  0
  142.5270   82.5390  224.3940 F   0  0  0  0  0  0  0  0  0  0  0  0
  143.2600   80.5150  223.3250 C   0  0  0  0  0  0  0  0  0  0  0  0
  142.9330   79.2850  222.7860 C   0  0  0  0  0  0  0  0  0  0  0  0
  141.6200   78.8590  222.7720 C   0  0  0  0  0  0  0  0  0  0  0  0
  141.3800   77.6490  222.2300 N   0  0  0  0  0  0  0  0  0  0  0  0
  141.9140   75.4370  221.2910 H   0  0  0  0  0  0  0  0  0  0  0  0
  139.8150   73.3077  220.9942 H   0  0  0  0  0  0  0  0  0  0  0  0
  140.6710   73.8793  219.4894 H   0  0  0  0  0  0  0  0  0  0  0  0
  143.3139   71.3501  218.9867 H   0  0  0  0  0  0  0  0  0  0  0  0
  143.7767   72.7954  218.1658 H   0  0  0  0  0  0  0  0  0  0  0  0
  145.1421   71.5148  220.6783 H   0  0  0  0  0  0  0  0  0  0  0  0
  145.9469   71.7699  219.1736 H   0  0  0  0  0  0  0  0  0  0  0  0
  145.9800   73.7013  221.1479 H   0  0  0  0  0  0  0  0  0  0  0  0
  145.9010   74.2250  219.4618 H   0  0  0  0  0  0  0  0  0  0  0  0
  143.7740   74.5818  221.5060 H   0  0  0  0  0  0  0  0  0  0  0  0
  144.7936   75.7708  219.3175 H   0  0  0  0  0  0  0  0  0  0  0  0
  143.3104   74.9396  218.6362 H   0  0  0  0  0  0  0  0  0  0  0  0
  143.5610   77.2390  220.1830 H   0  0  0  0  0  0  0  0  0  0  0  0
  141.1246   75.9307  219.2207 H   0  0  0  0  0  0  0  0  0  0  0  0
  139.3219   77.3376  218.8975 H   0  0  0  0  0  0  0  0  0  0  0  0
  138.3372   79.6113  219.0959 H   0  0  0  0  0  0  0  0  0  0  0  0
  139.8182   81.5891  219.4482 H   0  0  0  0  0  0  0  0  0  0  0  0
  142.2533   81.2527  219.5995 H   0  0  0  0  0  0  0  0  0  0  0  0
  143.2782   79.0052  219.4118 H   0  0  0  0  0  0  0  0  0  0  0  0
  141.4287   74.4921  217.4160 H   0  0  0  0  0  0  0  0  0  0  0  0
  142.2673   74.1076  215.1371 H   0  0  0  0  0  0  0  0  0  0  0  0
  144.3442   77.7501  215.1905 H   0  0  0  0  0  0  0  0  0  0  0  0
  143.5626   78.2319  217.4780 H   0  0  0  0  0  0  0  0  0  0  0  0
  138.0631   77.5539  222.6595 H   0  0  0  0  0  0  0  0  0  0  0  0
  138.4926   79.7788  223.6583 H   0  0  0  0  0  0  0  0  0  0  0  0
  140.1344   81.5517  224.2656 H   0  0  0  0  0  0  0  0  0  0  0  0
  144.3061   80.8550  223.3376 H   0  0  0  0  0  0  0  0  0  0  0  0
  143.7219   78.6432  222.3667 H   0  0  0  0  0  0  0  0  0  0  0  0
  1  2  2  0
  2  3  1  0
  3  4  1  0
  4  5  1  0
  5  6  2  0
  5  7  1  0
  7  8  1  0
  8  9  1  0
  9 10  1  0
 10 11  1  0
 11 12  1  0
 12 13  1  0
 13 14  1  0
 14 15  1  0
 15 16  2  0
 16 17  1  0
 17 18  2  0
 18 19  1  0
 19 20  2  0
 14 21  1  0
 21 22  2  0
 22 23  1  0
 23 24  2  0
 24 25  1  0
 25 26  2  0
  2 27  1  0
 27 28  2  0
 28 29  1  0
 29 30  2  0
 30 31  1  0
 31 32  2  0
 32 33  1  0
 32 34  1  0
 34 35  2  0
 35 36  1  0
 36 37  2  0
 11  7  1  0
 20 15  1  0
 26 21  1  0
 37 27  1  0
 36 30  1  0
  3 38  1  0
  4 39  1  0
  4 40  1  0
  8 41  1  0
  8 42  1  0
  9 43  1  0
  9 44  1  0
 10 45  1  0
 10 46  1  0
 11 47  1  1
 12 48  1  0
 12 49  1  0
 13 50  1  0
 14 51  1  1
 16 52  1  0
 17 53  1  0
 18 54  1  0
 19 55  1  0
 20 56  1  0
 22 57  1  0
 23 58  1  0
 25 59  1  0
 26 60  1  0
 28 61  1  0
 29 62  1  0
 31 63  1  0
 34 64  1  0
 35 65  1  0
M  END
>  <smiles>  (95) 
O=C(NCC(=O)N1CCC[C@H]1CNC(c1ccccc1)c1ccncc1)c1ccc2cc(F)ccc2n1

>  <score_type>  (95) 
oracle

>  <origin>  (95) 
autodockgpu

>  <m_score__min__energy>  (95) 
-9.4299999999999997

>  <m_primary>  (95) 
energy

>  <rmsd>  (95) 
7.152698613802742

>  <m_score__min__rmsd>  (95) 
7.152698613802742

>  <meeko>  (95) 
{"free_energy": -6.87, "intermolecular_energy": -9.55, "internal_energy": -4.94, "cluster_size": 8, "cluster_id": 8, "rank_in_cluster": 1}

>  <energy>  (95) 
-6.29

>  <cluster_rmsd>  (95) 
1.38

>  <cluster>  (95) 
8

$$$$

     RDKit          3D

 65 69  0  0  1  0  0  0  0  0999 V2000
  138.9970   70.5830  221.3120 O   0  0  0  0  0  0  0  0  0  0  0  0
  138.9190   71.3350  222.3190 C   0  0  0  0  0  0  0  0  0  0  0  0
  138.2700   72.5940  222.2090 N   0  0  0  0  0  0  0  0  0  0  0  0
  137.6920   73.0280  220.9570 C   0  0  0  0  0  0  0  0  0  0  0  0
  138.4910   74.0870  220.2840 C   0  0  0  0  0  0  0  0  0  0  0  0
  137.9660   75.1300  219.8220 O   0  0  0  0  0  0  0  0  0  0  0  0
  139.8840   73.8810  220.1780 N   0  0  0  0  0  0  0  0  0  0  0  0
  140.6770   73.5760  218.9760 C   0  0  0  0  0  0  0  0  0  0  0  0
  141.4380   72.3560  219.4920 C   0  0  0  0  0  0  0  0  0  0  0  0
  141.9130   72.9170  220.8320 C   0  0  0  0  0  0  0  0  0  0  0  0
  140.8490   73.9280  221.2480 C   0  0  1  0  0  0  0  0  0  0  0  0
  141.5600   75.2490  221.3570 C   0  0  0  0  0  0  0  0  0  0  0  0
  140.7270   76.3910  221.0770 N   0  0  0  0  0  0  0  0  0  0  0  0
  140.4120   77.0250  222.3430 C   0  0  1  0  0  0  0  0  0  0  0  0
  141.1280   78.3150  222.5080 C   0  0  0  0  0  0  0  0  0  0  0  0
  141.4370   79.0920  221.3930 C   0  0  0  0  0  0  0  0  0  0  0  0
  142.1100   80.3060  221.5320 C   0  0  0  0  0  0  0  0  0  0  0  0
  142.4810   80.7560  222.7870 C   0  0  0  0  0  0  0  0  0  0  0  0
  142.1710   79.9820  223.8800 C   0  0  0  0  0  0  0  0  0  0  0  0
  141.5020   78.7680  223.7780 C   0  0  0  0  0  0  0  0  0  0  0  0
  138.9390   77.1950  222.5400 C   0  0  0  0  0  0  0  0  0  0  0  0
  138.3410   78.4440  222.5260 C   0  0  0  0  0  0  0  0  0  0  0  0
  136.9840   78.5680  222.7110 C   0  0  0  0  0  0  0  0  0  0  0  0
  136.2020   77.5010  222.9070 N   0  0  0  0  0  0  0  0  0  0  0  0
  136.7500   76.2910  222.9250 C   0  0  0  0  0  0  0  0  0  0  0  0
  138.1030   76.0940  222.7470 C   0  0  0  0  0  0  0  0  0  0  0  0
  139.4820   70.9610  223.6250 C   0  0  0  0  0  0  0  0  0  0  0  0
  140.3120   71.8190  224.3170 C   0  0  0  0  0  0  0  0  0  0  0  0
  140.8580   71.4950  225.5500 C   0  0  0  0  0  0  0  0  0  0  0  0
  140.5560   70.2590  226.1060 C   0  0  0  0  0  0  0  0  0  0  0  0
  141.0760   69.8720  227.3450 C   0  0  0  0  0  0  0  0  0  0  0  0
  140.7240   68.6160  227.8310 C   0  0  0  0  0  0  0  0  0  0  0  0
  141.2400   68.2570  229.0410 F   0  0  0  0  0  0  0  0  0  0  0  0
  139.8870   67.7700  227.1170 C   0  0  0  0  0  0  0  0  0  0  0  0
  139.3900   68.1810  225.8940 C   0  0  0  0  0  0  0  0  0  0  0  0
  139.7240   69.4230  225.3900 C   0  0  0  0  0  0  0  0  0  0  0  0
  139.2000   69.7520  224.1930 N   0  0  0  0  0  0  0  0  0  0  0  0
  138.2140   73.2150  223.0670 H   0  0  0  0  0  0  0  0  0  0  0  0
  137.6220   72.1607  220.2840 H   0  0  0  0  0  0  0  0  0  0  0  0
  136.7032   73.4545  221.1815 H   0  0  0  0  0  0  0  0  0  0  0  0
  140.0400   73.3299  218.1136 H   0  0  0  0  0  0  0  0  0  0  0  0
  141.3030   74.3995  218.6018 H   0  0  0  0  0  0  0  0  0  0  0  0
  140.7801   71.4838  219.6203 H   0  0  0  0  0  0  0  0  0  0  0  0
  142.2315   71.9794  218.8297 H   0  0  0  0  0  0  0  0  0  0  0  0
  141.9933   72.1135  221.5789 H   0  0  0  0  0  0  0  0  0  0  0  0
  142.9078   73.3795  220.7523 H   0  0  0  0  0  0  0  0  0  0  0  0
  140.3403   73.7422  222.2054 H   0  0  0  0  0  0  0  0  0  0  0  0
  141.9492   75.3482  222.3810 H   0  0  0  0  0  0  0  0  0  0  0  0
  142.3563   75.2439  220.5981 H   0  0  0  0  0  0  0  0  0  0  0  0
  139.8760   76.0420  220.5860 H   0  0  0  0  0  0  0  0  0  0  0  0
  140.7683   76.3438  223.1297 H   0  0  0  0  0  0  0  0  0  0  0  0
  141.1466   78.7436  220.3909 H   0  0  0  0  0  0  0  0  0  0  0  0
  142.3464   80.9072  220.6417 H   0  0  0  0  0  0  0  0  0  0  0  0
  143.0121   81.7117  222.9073 H   0  0  0  0  0  0  0  0  0  0  0  0
  142.4650   80.3388  224.8781 H   0  0  0  0  0  0  0  0  0  0  0  0
  141.2715   78.1762  224.6761 H   0  0  0  0  0  0  0  0  0  0  0  0
  138.9552   79.3424  222.3659 H   0  0  0  0  0  0  0  0  0  0  0  0
  136.5303   79.5700  222.6974 H   0  0  0  0  0  0  0  0  0  0  0  0
  136.1025   75.4167  223.0874 H   0  0  0  0  0  0  0  0  0  0  0  0
  138.5218   75.0771  222.7677 H   0  0  0  0  0  0  0  0  0  0  0  0
  140.5497   72.7973  223.8738 H   0  0  0  0  0  0  0  0  0  0  0  0
  141.5162   72.2020  226.0762 H   0  0  0  0  0  0  0  0  0  0  0  0
  141.7404   70.5372  227.9160 H   0  0  0  0  0  0  0  0  0  0  0  0
  139.6215   66.7817  227.5203 H   0  0  0  0  0  0  0  0  0  0  0  0
  138.7266   67.5169  225.3206 H   0  0  0  0  0  0  0  0  0  0  0  0
  1  2  2  0
  2  3  1  0
  3  4  1  0
  4  5  1  0
  5  6  2  0
  5  7  1  0
  7  8  1  0
  8  9  1  0
  9 10  1  0
 10 11  1  0
 11 12  1  0
 12 13  1  0
 13 14  1  0
 14 15  1  0
 15 16  2  0
 16 17  1  0
 17 18  2  0
 18 19  1  0
 19 20  2  0
 14 21  1  0
 21 22  2  0
 22 23  1  0
 23 24  2  0
 24 25  1  0
 25 26  2  0
  2 27  1  0
 27 28  2  0
 28 29  1  0
 29 30  2  0
 30 31  1  0
 31 32  2  0
 32 33  1  0
 32 34  1  0
 34 35  2  0
 35 36  1  0
 36 37  2  0
 11  7  1  0
 20 15  1  0
 26 21  1  0
 37 27  1  0
 36 30  1  0
  3 38  1  0
  4 39  1  0
  4 40  1  0
  8 41  1  0
  8 42  1  0
  9 43  1  0
  9 44  1  0
 10 45  1  0
 10 46  1  0
 11 47  1  1
 12 48  1  0
 12 49  1  0
 13 50  1  0
 14 51  1  1
 16 52  1  0
 17 53  1  0
 18 54  1  0
 19 55  1  0
 20 56  1  0
 22 57  1  0
 23 58  1  0
 25 59  1  0
 26 60  1  0
 28 61  1  0
 29 62  1  0
 31 63  1  0
 34 64  1  0
 35 65  1  0
M  END
>  <smiles>  (96) 
O=C(NCC(=O)N1CCC[C@H]1CNC(c1ccccc1)c1ccncc1)c1ccc2cc(F)ccc2n1

>  <score_type>  (96) 
oracle

>  <origin>  (96) 
autodockgpu

>  <m_score__min__energy>  (96) 
-9.4299999999999997

>  <m_primary>  (96) 
energy

>  <rmsd>  (96) 
3.305047086528073

>  <m_score__min__rmsd>  (96) 
3.305047086528073

>  <meeko>  (96) 
{"free_energy": -8.65, "intermolecular_energy": -11.33, "internal_energy": -3.52, "cluster_size": 6, "cluster_id": 2, "rank_in_cluster": 5}

>  <energy>  (96) 
-6.28

>  <cluster_rmsd>  (96) 
1.2

>  <cluster>  (96) 
8

$$$$

     RDKit          3D

 65 69  0  0  1  0  0  0  0  0999 V2000
  140.3530   73.1780  222.4020 O   0  0  0  0  0  0  0  0  0  0  0  0
  140.5130   74.1340  221.5970 C   0  0  0  0  0  0  0  0  0  0  0  0
  141.0620   73.8860  220.3110 N   0  0  0  0  0  0  0  0  0  0  0  0
  141.4410   72.5510  219.9060 C   0  0  0  0  0  0  0  0  0  0  0  0
  142.5060   72.5380  218.8670 C   0  0  0  0  0  0  0  0  0  0  0  0
  142.2970   72.1230  217.7000 O   0  0  0  0  0  0  0  0  0  0  0  0
  143.7810   73.0170  219.2370 N   0  0  0  0  0  0  0  0  0  0  0  0
  145.0660   72.8350  218.5430 C   0  0  0  0  0  0  0  0  0  0  0  0
  145.9030   72.3230  219.7140 C   0  0  0  0  0  0  0  0  0  0  0  0
  145.5230   73.3710  220.7590 C   0  0  0  0  0  0  0  0  0  0  0  0
  144.1040   73.8040  220.4010 C   0  0  1  0  0  0  0  0  0  0  0  0
  144.1860   75.2810  220.1220 C   0  0  0  0  0  0  0  0  0  0  0  0
  142.9050   75.9360  220.0400 N   0  0  0  0  0  0  0  0  0  0  0  0
  142.9700   76.8920  218.9510 C   0  0  1  0  0  0  0  0  0  0  0  0
  142.9490   76.2220  217.6270 C   0  0  0  0  0  0  0  0  0  0  0  0
  144.0030   76.4030  216.7340 C   0  0  0  0  0  0  0  0  0  0  0  0
  143.9980   75.7800  215.4850 C   0  0  0  0  0  0  0  0  0  0  0  0
  142.9380   74.9710  215.1160 C   0  0  0  0  0  0  0  0  0  0  0  0
  141.9030   74.8000  216.0040 C   0  0  0  0  0  0  0  0  0  0  0  0
  141.8760   75.4040  217.2550 C   0  0  0  0  0  0  0  0  0  0  0  0
  141.9000   77.9320  219.0480 C   0  0  0  0  0  0  0  0  0  0  0  0
  140.5600   77.5940  219.1430 C   0  0  0  0  0  0  0  0  0  0  0  0
  139.5990   78.5740  219.2300 C   0  0  0  0  0  0  0  0  0  0  0  0
  139.9190   79.8730  219.2260 N   0  0  0  0  0  0  0  0  0  0  0  0
  141.1970   80.2250  219.1360 C   0  0  0  0  0  0  0  0  0  0  0  0
  142.2110   79.2950  219.0460 C   0  0  0  0  0  0  0  0  0  0  0  0
  140.1500   75.5170  221.9380 C   0  0  0  0  0  0  0  0  0  0  0  0
  138.8310   75.9240  221.9640 C   0  0  0  0  0  0  0  0  0  0  0  0
  138.4570   77.2200  222.2820 C   0  0  0  0  0  0  0  0  0  0  0  0
  139.4500   78.1420  222.5840 C   0  0  0  0  0  0  0  0  0  0  0  0
  139.1380   79.4650  222.9120 C   0  0  0  0  0  0  0  0  0  0  0  0
  140.1940   80.3270  223.2010 C   0  0  0  0  0  0  0  0  0  0  0  0
  139.8700   81.6130  223.5190 F   0  0  0  0  0  0  0  0  0  0  0  0
  141.5130   79.8950  223.1690 C   0  0  0  0  0  0  0  0  0  0  0  0
  141.7880   78.5800  222.8410 C   0  0  0  0  0  0  0  0  0  0  0  0
  140.7590   77.7060  222.5490 C   0  0  0  0  0  0  0  0  0  0  0  0
  141.1070   76.4420  222.2390 N   0  0  0  0  0  0  0  0  0  0  0  0
  141.1900   74.7030  219.6460 H   0  0  0  0  0  0  0  0  0  0  0  0
  141.8069   72.0074  220.7896 H   0  0  0  0  0  0  0  0  0  0  0  0
  140.5506   72.0747  219.4699 H   0  0  0  0  0  0  0  0  0  0  0  0
  144.9952   72.0948  217.7324 H   0  0  0  0  0  0  0  0  0  0  0  0
  145.4596   73.7286  218.0366 H   0  0  0  0  0  0  0  0  0  0  0  0
  145.6062   71.3091  220.0204 H   0  0  0  0  0  0  0  0  0  0  0  0
  146.9804   72.2227  219.5160 H   0  0  0  0  0  0  0  0  0  0  0  0
  145.5492   72.9350  221.7686 H   0  0  0  0  0  0  0  0  0  0  0  0
  146.2220   74.2203  220.7597 H   0  0  0  0  0  0  0  0  0  0  0  0
  143.3328   73.6502  221.1701 H   0  0  0  0  0  0  0  0  0  0  0  0
  144.7646   75.7535  220.9294 H   0  0  0  0  0  0  0  0  0  0  0  0
  144.6627   75.3919  219.1369 H   0  0  0  0  0  0  0  0  0  0  0  0
  142.7300   76.3930  220.9600 H   0  0  0  0  0  0  0  0  0  0  0  0
  143.9359   77.4096  219.0465 H   0  0  0  0  0  0  0  0  0  0  0  0
  144.8501   77.0452  217.0169 H   0  0  0  0  0  0  0  0  0  0  0  0
  144.8388   75.9326  214.7924 H   0  0  0  0  0  0  0  0  0  0  0  0
  142.9239   74.4757  214.1339 H   0  0  0  0  0  0  0  0  0  0  0  0
  141.0596   74.1572  215.7117 H   0  0  0  0  0  0  0  0  0  0  0  0
  141.0293   75.2427  217.9385 H   0  0  0  0  0  0  0  0  0  0  0  0
  140.2626   76.5350  219.1489 H   0  0  0  0  0  0  0  0  0  0  0  0
  138.5410   78.2825  219.3047 H   0  0  0  0  0  0  0  0  0  0  0  0
  141.4548   81.2944  219.1332 H   0  0  0  0  0  0  0  0  0  0  0  0
  143.2583   79.6235  218.9731 H   0  0  0  0  0  0  0  0  0  0  0  0
  138.0467   75.1913  221.7230 H   0  0  0  0  0  0  0  0  0  0  0  0
  137.3965   77.5118  222.2948 H   0  0  0  0  0  0  0  0  0  0  0  0
  138.0950   79.8133  222.9409 H   0  0  0  0  0  0  0  0  0  0  0  0
  142.3314   80.5920  223.4023 H   0  0  0  0  0  0  0  0  0  0  0  0
  142.8300   78.2287  222.8125 H   0  0  0  0  0  0  0  0  0  0  0  0
  1  2  2  0
  2  3  1  0
  3  4  1  0
  4  5  1  0
  5  6  2  0
  5  7  1  0
  7  8  1  0
  8  9  1  0
  9 10  1  0
 10 11  1  0
 11 12  1  0
 12 13  1  0
 13 14  1  0
 14 15  1  0
 15 16  2  0
 16 17  1  0
 17 18  2  0
 18 19  1  0
 19 20  2  0
 14 21  1  0
 21 22  2  0
 22 23  1  0
 23 24  2  0
 24 25  1  0
 25 26  2  0
  2 27  1  0
 27 28  2  0
 28 29  1  0
 29 30  2  0
 30 31  1  0
 31 32  2  0
 32 33  1  0
 32 34  1  0
 34 35  2  0
 35 36  1  0
 36 37  2  0
 11  7  1  0
 20 15  1  0
 26 21  1  0
 37 27  1  0
 36 30  1  0
  3 38  1  0
  4 39  1  0
  4 40  1  0
  8 41  1  0
  8 42  1  0
  9 43  1  0
  9 44  1  0
 10 45  1  0
 10 46  1  0
 11 47  1  1
 12 48  1  0
 12 49  1  0
 13 50  1  0
 14 51  1  1
 16 52  1  0
 17 53  1  0
 18 54  1  0
 19 55  1  0
 20 56  1  0
 22 57  1  0
 23 58  1  0
 25 59  1  0
 26 60  1  0
 28 61  1  0
 29 62  1  0
 31 63  1  0
 34 64  1  0
 35 65  1  0
M  END
>  <smiles>  (97) 
O=C(NCC(=O)N1CCC[C@H]1CNC(c1ccccc1)c1ccncc1)c1ccc2cc(F)ccc2n1

>  <score_type>  (97) 
oracle

>  <origin>  (97) 
autodockgpu

>  <m_score__min__energy>  (97) 
-9.4299999999999997

>  <m_primary>  (97) 
energy

>  <rmsd>  (97) 
7.481716532222971

>  <m_score__min__rmsd>  (97) 
7.481716532222971

>  <meeko>  (97) 
{"free_energy": -6.3, "intermolecular_energy": -8.99, "internal_energy": -5.88, "cluster_size": 8, "cluster_id": 8, "rank_in_cluster": 4}

>  <energy>  (97) 
-6.26

>  <cluster_rmsd>  (97) 
1.39

>  <cluster>  (97) 
8

$$$$

     RDKit          3D

 65 69  0  0  1  0  0  0  0  0999 V2000
  139.6130   73.5460  222.3430 O   0  0  0  0  0  0  0  0  0  0  0  0
  140.3150   74.4250  221.7750 C   0  0  0  0  0  0  0  0  0  0  0  0
  141.3070   74.0340  220.8360 N   0  0  0  0  0  0  0  0  0  0  0  0
  141.5250   72.6410  220.5180 C   0  0  0  0  0  0  0  0  0  0  0  0
  142.4940   72.4420  219.4070 C   0  0  0  0  0  0  0  0  0  0  0  0
  142.1770   71.8650  218.3380 O   0  0  0  0  0  0  0  0  0  0  0  0
  143.8050   72.9330  219.5920 N   0  0  0  0  0  0  0  0  0  0  0  0
  145.0190   72.6170  218.8230 C   0  0  0  0  0  0  0  0  0  0  0  0
  145.9500   72.2530  219.9790 C   0  0  0  0  0  0  0  0  0  0  0  0
  145.6810   73.4500  220.8900 C   0  0  0  0  0  0  0  0  0  0  0  0
  144.2440   73.8690  220.5980 C   0  0  1  0  0  0  0  0  0  0  0  0
  144.3230   75.2870  220.1020 C   0  0  0  0  0  0  0  0  0  0  0  0
  143.0430   75.9320  219.9550 N   0  0  0  0  0  0  0  0  0  0  0  0
  143.1090   76.7780  218.7790 C   0  0  1  0  0  0  0  0  0  0  0  0
  143.0730   75.9840  217.5250 C   0  0  0  0  0  0  0  0  0  0  0  0
  142.0640   75.0450  217.3190 C   0  0  0  0  0  0  0  0  0  0  0  0
  142.0180   74.2920  216.1460 C   0  0  0  0  0  0  0  0  0  0  0  0
  142.9790   74.4690  215.1670 C   0  0  0  0  0  0  0  0  0  0  0  0
  143.9700   75.3970  215.3800 C   0  0  0  0  0  0  0  0  0  0  0  0
  144.0470   76.1650  216.5360 C   0  0  0  0  0  0  0  0  0  0  0  0
  142.0500   77.8340  218.7810 C   0  0  0  0  0  0  0  0  0  0  0  0
  142.3570   79.1750  218.6190 C   0  0  0  0  0  0  0  0  0  0  0  0
  141.3610   80.1230  218.6260 C   0  0  0  0  0  0  0  0  0  0  0  0
  140.0750   79.7880  218.7870 N   0  0  0  0  0  0  0  0  0  0  0  0
  139.7530   78.5090  218.9450 C   0  0  0  0  0  0  0  0  0  0  0  0
  140.7010   77.5070  218.9480 C   0  0  0  0  0  0  0  0  0  0  0  0
  140.1490   75.8600  222.0470 C   0  0  0  0  0  0  0  0  0  0  0  0
  138.9190   76.3860  222.3860 C   0  0  0  0  0  0  0  0  0  0  0  0
  138.7310   77.7340  222.6480 C   0  0  0  0  0  0  0  0  0  0  0  0
  139.8240   78.5850  222.5650 C   0  0  0  0  0  0  0  0  0  0  0  0
  139.7000   79.9550  222.8160 C   0  0  0  0  0  0  0  0  0  0  0  0
  140.8460   80.7390  222.7110 C   0  0  0  0  0  0  0  0  0  0  0  0
  140.7050   82.0730  222.9610 F   0  0  0  0  0  0  0  0  0  0  0  0
  142.0730   80.1890  222.3690 C   0  0  0  0  0  0  0  0  0  0  0  0
  142.1630   78.8300  222.1250 C   0  0  0  0  0  0  0  0  0  0  0  0
  141.0410   78.0310  222.2230 C   0  0  0  0  0  0  0  0  0  0  0  0
  141.2080   76.7180  221.9720 N   0  0  0  0  0  0  0  0  0  0  0  0
  141.8890   74.7870  220.3670 H   0  0  0  0  0  0  0  0  0  0  0  0
  141.9106   72.1332  221.4144 H   0  0  0  0  0  0  0  0  0  0  0  0
  140.5609   72.2237  220.1918 H   0  0  0  0  0  0  0  0  0  0  0  0
  144.8637   71.7712  218.1371 H   0  0  0  0  0  0  0  0  0  0  0  0
  145.3798   73.4177  218.1606 H   0  0  0  0  0  0  0  0  0  0  0  0
  145.6661   71.3019  220.4532 H   0  0  0  0  0  0  0  0  0  0  0  0
  147.0036   72.0945  219.7055 H   0  0  0  0  0  0  0  0  0  0  0  0
  145.7905   73.1618  221.9459 H   0  0  0  0  0  0  0  0  0  0  0  0
  146.3907   74.2702  220.7066 H   0  0  0  0  0  0  0  0  0  0  0  0
  143.5435   73.8497  221.4459 H   0  0  0  0  0  0  0  0  0  0  0  0
  144.9232   75.8697  220.8163 H   0  0  0  0  0  0  0  0  0  0  0  0
  144.7746   75.2473  219.0998 H   0  0  0  0  0  0  0  0  0  0  0  0
  142.8680   76.4760  220.8270 H   0  0  0  0  0  0  0  0  0  0  0  0
  144.0804   77.2926  218.8194 H   0  0  0  0  0  0  0  0  0  0  0  0
  141.2946   74.8960  218.0909 H   0  0  0  0  0  0  0  0  0  0  0  0
  141.2149   73.5549  215.9989 H   0  0  0  0  0  0  0  0  0  0  0  0
  142.9506   73.8800  214.2384 H   0  0  0  0  0  0  0  0  0  0  0  0
  144.7351   75.5381  214.6023 H   0  0  0  0  0  0  0  0  0  0  0  0
  144.8554   76.8987  216.6707 H   0  0  0  0  0  0  0  0  0  0  0  0
  143.4042   79.4835  218.4839 H   0  0  0  0  0  0  0  0  0  0  0  0
  141.6274   81.1823  218.4962 H   0  0  0  0  0  0  0  0  0  0  0  0
  138.6948   78.2399  219.0779 H   0  0  0  0  0  0  0  0  0  0  0  0
  140.3977   76.4580  219.0808 H   0  0  0  0  0  0  0  0  0  0  0  0
  138.0543   75.7092  222.4508 H   0  0  0  0  0  0  0  0  0  0  0  0
  137.7368   78.1209  222.9159 H   0  0  0  0  0  0  0  0  0  0  0  0
  138.7304   80.3982  223.0871 H   0  0  0  0  0  0  0  0  0  0  0  0
  142.9657   80.8272  222.2926 H   0  0  0  0  0  0  0  0  0  0  0  0
  143.1311   78.3848  221.8521 H   0  0  0  0  0  0  0  0  0  0  0  0
  1  2  2  0
  2  3  1  0
  3  4  1  0
  4  5  1  0
  5  6  2  0
  5  7  1  0
  7  8  1  0
  8  9  1  0
  9 10  1  0
 10 11  1  0
 11 12  1  0
 12 13  1  0
 13 14  1  0
 14 15  1  0
 15 16  2  0
 16 17  1  0
 17 18  2  0
 18 19  1  0
 19 20  2  0
 14 21  1  0
 21 22  2  0
 22 23  1  0
 23 24  2  0
 24 25  1  0
 25 26  2  0
  2 27  1  0
 27 28  2  0
 28 29  1  0
 29 30  2  0
 30 31  1  0
 31 32  2  0
 32 33  1  0
 32 34  1  0
 34 35  2  0
 35 36  1  0
 36 37  2  0
 11  7  1  0
 20 15  1  0
 26 21  1  0
 37 27  1  0
 36 30  1  0
  3 38  1  0
  4 39  1  0
  4 40  1  0
  8 41  1  0
  8 42  1  0
  9 43  1  0
  9 44  1  0
 10 45  1  0
 10 46  1  0
 11 47  1  1
 12 48  1  0
 12 49  1  0
 13 50  1  0
 14 51  1  1
 16 52  1  0
 17 53  1  0
 18 54  1  0
 19 55  1  0
 20 56  1  0
 22 57  1  0
 23 58  1  0
 25 59  1  0
 26 60  1  0
 28 61  1  0
 29 62  1  0
 31 63  1  0
 34 64  1  0
 35 65  1  0
M  END
>  <smiles>  (98) 
O=C(NCC(=O)N1CCC[C@H]1CNC(c1ccccc1)c1ccncc1)c1ccc2cc(F)ccc2n1

>  <score_type>  (98) 
oracle

>  <origin>  (98) 
autodockgpu

>  <m_score__min__energy>  (98) 
-9.4299999999999997

>  <m_primary>  (98) 
energy

>  <rmsd>  (98) 
7.84069161694397

>  <m_score__min__rmsd>  (98) 
7.84069161694397

>  <meeko>  (98) 
{"free_energy": -6.29, "intermolecular_energy": -8.98, "internal_energy": -5.9, "cluster_size": 8, "cluster_id": 8, "rank_in_cluster": 5}

>  <energy>  (98) 
-6.21

>  <cluster_rmsd>  (98) 
1.32

>  <cluster>  (98) 
8

$$$$

     RDKit          3D

 65 69  0  0  1  0  0  0  0  0999 V2000
  139.9930   74.1130  222.0200 O   0  0  0  0  0  0  0  0  0  0  0  0
  140.2240   75.3420  221.8680 C   0  0  0  0  0  0  0  0  0  0  0  0
  141.4460   75.7600  221.2760 N   0  0  0  0  0  0  0  0  0  0  0  0
  142.4320   74.7960  220.8410 C   0  0  0  0  0  0  0  0  0  0  0  0
  142.1430   74.2350  219.4940 C   0  0  0  0  0  0  0  0  0  0  0  0
  141.7010   73.0700  219.3350 O   0  0  0  0  0  0  0  0  0  0  0  0
  142.3830   75.0670  218.3780 N   0  0  0  0  0  0  0  0  0  0  0  0
  141.7430   75.0310  217.0540 C   0  0  0  0  0  0  0  0  0  0  0  0
  142.9970   75.0080  216.1810 C   0  0  0  0  0  0  0  0  0  0  0  0
  143.7690   76.1520  216.8370 C   0  0  0  0  0  0  0  0  0  0  0  0
  143.3280   76.1530  218.2980 C   0  0  1  0  0  0  0  0  0  0  0  0
  142.7100   77.5040  218.5380 C   0  0  0  0  0  0  0  0  0  0  0  0
  142.3780   77.7630  219.9160 N   0  0  0  0  0  0  0  0  0  0  0  0
  141.6350   79.0070  219.9620 C   0  0  1  0  0  0  0  0  0  0  0  0
  140.1870   78.7950  219.7180 C   0  0  0  0  0  0  0  0  0  0  0  0
  139.7280   77.5650  219.2510 C   0  0  0  0  0  0  0  0  0  0  0  0
  138.3690   77.3500  219.0160 C   0  0  0  0  0  0  0  0  0  0  0  0
  137.4550   78.3640  219.2450 C   0  0  0  0  0  0  0  0  0  0  0  0
  137.9180   79.5730  219.7050 C   0  0  0  0  0  0  0  0  0  0  0  0
  139.2640   79.8210  219.9490 C   0  0  0  0  0  0  0  0  0  0  0  0
  141.8640   79.7560  221.2360 C   0  0  0  0  0  0  0  0  0  0  0  0
  141.6060   81.1130  221.3420 C   0  0  0  0  0  0  0  0  0  0  0  0
  141.8280   81.7740  222.5270 C   0  0  0  0  0  0  0  0  0  0  0  0
  142.2930   81.1380  223.6080 N   0  0  0  0  0  0  0  0  0  0  0  0
  142.5490   79.8370  223.5350 C   0  0  0  0  0  0  0  0  0  0  0  0
  142.3500   79.1120  222.3780 C   0  0  0  0  0  0  0  0  0  0  0  0
  139.2690   76.3790  222.2850 C   0  0  0  0  0  0  0  0  0  0  0  0
  137.9080   76.1530  222.2490 C   0  0  0  0  0  0  0  0  0  0  0  0
  136.9830   77.1100  222.6350 C   0  0  0  0  0  0  0  0  0  0  0  0
  137.4470   78.3430  223.0740 C   0  0  0  0  0  0  0  0  0  0  0  0
  136.5650   79.3510  223.4760 C   0  0  0  0  0  0  0  0  0  0  0  0
  137.1130   80.5580  223.9020 C   0  0  0  0  0  0  0  0  0  0  0  0
  136.2360   81.5290  224.2920 F   0  0  0  0  0  0  0  0  0  0  0  0
  138.4850   80.7630  223.9310 C   0  0  0  0  0  0  0  0  0  0  0  0
  139.3310   79.7470  223.5260 C   0  0  0  0  0  0  0  0  0  0  0  0
  138.8130   78.5400  223.0980 C   0  0  0  0  0  0  0  0  0  0  0  0
  139.7000   77.5990  222.7200 N   0  0  0  0  0  0  0  0  0  0  0  0
  141.6250   76.7990  221.1560 H   0  0  0  0  0  0  0  0  0  0  0  0
  143.4149   75.2891  220.8117 H   0  0  0  0  0  0  0  0  0  0  0  0
  142.4124   73.9604  221.5561 H   0  0  0  0  0  0  0  0  0  0  0  0
  141.1290   74.1286  216.9174 H   0  0  0  0  0  0  0  0  0  0  0  0
  141.0385   75.8501  216.8474 H   0  0  0  0  0  0  0  0  0  0  0  0
  143.5345   74.0513  216.2570 H   0  0  0  0  0  0  0  0  0  0  0  0
  142.8220   75.1151  215.1003 H   0  0  0  0  0  0  0  0  0  0  0  0
  144.8525   75.9778  216.7622 H   0  0  0  0  0  0  0  0  0  0  0  0
  143.5660   77.1160  216.3477 H   0  0  0  0  0  0  0  0  0  0  0  0
  144.1164   76.0071  219.0511 H   0  0  0  0  0  0  0  0  0  0  0  0
  143.4214   78.2735  218.2036 H   0  0  0  0  0  0  0  0  0  0  0  0
  141.7653   77.5250  217.9749 H   0  0  0  0  0  0  0  0  0  0  0  0
  143.2740   77.8150  220.4460 H   0  0  0  0  0  0  0  0  0  0  0  0
  142.0224   79.6314  219.1434 H   0  0  0  0  0  0  0  0  0  0  0  0
  140.4461   76.7527  219.0651 H   0  0  0  0  0  0  0  0  0  0  0  0
  138.0236   76.3726  218.6480 H   0  0  0  0  0  0  0  0  0  0  0  0
  136.3819   78.2054  219.0627 H   0  0  0  0  0  0  0  0  0  0  0  0
  137.1925   80.3793  219.8881 H   0  0  0  0  0  0  0  0  0  0  0  0
  139.5965   80.8032  220.3160 H   0  0  0  0  0  0  0  0  0  0  0  0
  141.2209   81.6654  220.4722 H   0  0  0  0  0  0  0  0  0  0  0  0
  141.6181   82.8521  222.5876 H   0  0  0  0  0  0  0  0  0  0  0  0
  142.9326   79.3199  224.4269 H   0  0  0  0  0  0  0  0  0  0  0  0
  142.5722   78.0349  222.3542 H   0  0  0  0  0  0  0  0  0  0  0  0
  137.5434   75.1755  221.9004 H   0  0  0  0  0  0  0  0  0  0  0  0
  135.9045   76.8975  222.5945 H   0  0  0  0  0  0  0  0  0  0  0  0
  135.4762   79.1957  223.4563 H   0  0  0  0  0  0  0  0  0  0  0  0
  138.8957   81.7245  224.2729 H   0  0  0  0  0  0  0  0  0  0  0  0
  140.4201   79.9004  223.5447 H   0  0  0  0  0  0  0  0  0  0  0  0
  1  2  2  0
  2  3  1  0
  3  4  1  0
  4  5  1  0
  5  6  2  0
  5  7  1  0
  7  8  1  0
  8  9  1  0
  9 10  1  0
 10 11  1  0
 11 12  1  0
 12 13  1  0
 13 14  1  0
 14 15  1  0
 15 16  2  0
 16 17  1  0
 17 18  2  0
 18 19  1  0
 19 20  2  0
 14 21  1  0
 21 22  2  0
 22 23  1  0
 23 24  2  0
 24 25  1  0
 25 26  2  0
  2 27  1  0
 27 28  2  0
 28 29  1  0
 29 30  2  0
 30 31  1  0
 31 32  2  0
 32 33  1  0
 32 34  1  0
 34 35  2  0
 35 36  1  0
 36 37  2  0
 11  7  1  0
 20 15  1  0
 26 21  1  0
 37 27  1  0
 36 30  1  0
  3 38  1  0
  4 39  1  0
  4 40  1  0
  8 41  1  0
  8 42  1  0
  9 43  1  0
  9 44  1  0
 10 45  1  0
 10 46  1  0
 11 47  1  1
 12 48  1  0
 12 49  1  0
 13 50  1  0
 14 51  1  6
 16 52  1  0
 17 53  1  0
 18 54  1  0
 19 55  1  0
 20 56  1  0
 22 57  1  0
 23 58  1  0
 25 59  1  0
 26 60  1  0
 28 61  1  0
 29 62  1  0
 31 63  1  0
 34 64  1  0
 35 65  1  0
M  END
>  <smiles>  (99) 
O=C(NCC(=O)N1CCC[C@H]1CNC(c1ccccc1)c1ccncc1)c1ccc2cc(F)ccc2n1

>  <score_type>  (99) 
oracle

>  <origin>  (99) 
autodockgpu

>  <m_score__min__energy>  (99) 
-9.4299999999999997

>  <m_primary>  (99) 
energy

>  <rmsd>  (99) 
6.449769437579374

>  <m_score__min__rmsd>  (99) 
6.449769437579374

>  <meeko>  (99) 
{"free_energy": -6.26, "intermolecular_energy": -8.94, "internal_energy": -5.32, "cluster_size": 5, "cluster_id": 6, "rank_in_cluster": 5}

>  <energy>  (99) 
-6.68

>  <cluster_rmsd>  (99) 
0.0

>  <cluster>  (99) 
9

$$$$

     RDKit          3D

 65 69  0  0  1  0  0  0  0  0999 V2000
  140.8410   73.3680  222.3520 O   0  0  0  0  0  0  0  0  0  0  0  0
  139.9220   72.5130  222.4660 C   0  0  0  0  0  0  0  0  0  0  0  0
  138.9040   72.4370  221.4790 N   0  0  0  0  0  0  0  0  0  0  0  0
  138.9040   73.3270  220.3390 C   0  0  0  0  0  0  0  0  0  0  0  0
  137.6930   74.1890  220.2740 C   0  0  0  0  0  0  0  0  0  0  0  0
  137.0380   74.3440  219.2140 O   0  0  0  0  0  0  0  0  0  0  0  0
  137.2930   74.8380  221.4630 N   0  0  0  0  0  0  0  0  0  0  0  0
  136.5440   74.2840  222.6020 C   0  0  0  0  0  0  0  0  0  0  0  0
  135.4510   75.3460  222.7120 C   0  0  0  0  0  0  0  0  0  0  0  0
  136.3260   76.5980  222.6620 C   0  0  0  0  0  0  0  0  0  0  0  0
  137.5390   76.2120  221.8220 C   0  0  1  0  0  0  0  0  0  0  0  0
  138.7330   76.3920  222.7200 C   0  0  0  0  0  0  0  0  0  0  0  0
  139.9710   75.9170  222.1560 N   0  0  0  0  0  0  0  0  0  0  0  0
  140.5030   76.9720  221.3150 C   0  0  1  0  0  0  0  0  0  0  0  0
  140.9200   78.1550  222.1090 C   0  0  0  0  0  0  0  0  0  0  0  0
  140.7800   79.4370  221.5830 C   0  0  0  0  0  0  0  0  0  0  0  0
  141.1680   80.5580  222.3180 C   0  0  0  0  0  0  0  0  0  0  0  0
  141.6990   80.4080  223.5870 C   0  0  0  0  0  0  0  0  0  0  0  0
  141.8340   79.1390  224.0960 C   0  0  0  0  0  0  0  0  0  0  0  0
  141.4580   78.0010  223.3930 C   0  0  0  0  0  0  0  0  0  0  0  0
  141.6160   76.4900  220.4390 C   0  0  0  0  0  0  0  0  0  0  0  0
  142.1490   77.2820  219.4360 C   0  0  0  0  0  0  0  0  0  0  0  0
  143.1710   76.8100  218.6460 C   0  0  0  0  0  0  0  0  0  0  0  0
  143.6820   75.5860  218.8170 N   0  0  0  0  0  0  0  0  0  0  0  0
  143.1880   74.8050  219.7720 C   0  0  0  0  0  0  0  0  0  0  0  0
  142.1640   75.2140  220.5990 C   0  0  0  0  0  0  0  0  0  0  0  0
  139.8580   71.5750  223.5970 C   0  0  0  0  0  0  0  0  0  0  0  0
  139.1810   70.3770  223.4930 C   0  0  0  0  0  0  0  0  0  0  0  0
  139.1020   69.4720  224.5410 C   0  0  0  0  0  0  0  0  0  0  0  0
  139.7300   69.7870  225.7390 C   0  0  0  0  0  0  0  0  0  0  0  0
  139.6870   68.9180  226.8330 C   0  0  0  0  0  0  0  0  0  0  0  0
  140.3420   69.3100  227.9970 C   0  0  0  0  0  0  0  0  0  0  0  0
  140.2890   68.4480  229.0530 F   0  0  0  0  0  0  0  0  0  0  0  0
  141.0180   70.5190  228.0780 C   0  0  0  0  0  0  0  0  0  0  0  0
  141.0410   71.3580  226.9790 C   0  0  0  0  0  0  0  0  0  0  0  0
  140.3990   70.9920  225.8120 C   0  0  0  0  0  0  0  0  0  0  0  0
  140.4670   71.8610  224.7840 N   0  0  0  0  0  0  0  0  0  0  0  0
  138.1380   71.7110  221.5910 H   0  0  0  0  0  0  0  0  0  0  0  0
  139.7917   73.9738  220.3993 H   0  0  0  0  0  0  0  0  0  0  0  0
  138.9118   72.7020  219.4338 H   0  0  0  0  0  0  0  0  0  0  0  0
  136.1310   73.2892  222.3788 H   0  0  0  0  0  0  0  0  0  0  0  0
  137.1318   74.1151  223.5163 H   0  0  0  0  0  0  0  0  0  0  0  0
  134.7466   75.3015  221.8683 H   0  0  0  0  0  0  0  0  0  0  0  0
  134.7970   75.2615  223.5924 H   0  0  0  0  0  0  0  0  0  0  0  0
  135.7811   77.4297  222.1915 H   0  0  0  0  0  0  0  0  0  0  0  0
  136.6160   76.9345  223.6683 H   0  0  0  0  0  0  0  0  0  0  0  0
  137.7142   76.8014  220.9099 H   0  0  0  0  0  0  0  0  0  0  0  0
  138.8421   77.4645  222.9386 H   0  0  0  0  0  0  0  0  0  0  0  0
  138.5446   75.7913  223.6220 H   0  0  0  0  0  0  0  0  0  0  0  0
  139.7550   75.0510  221.6180 H   0  0  0  0  0  0  0  0  0  0  0  0
  139.6819   77.2874  220.6545 H   0  0  0  0  0  0  0  0  0  0  0  0
  140.3583   79.5675  220.5755 H   0  0  0  0  0  0  0  0  0  0  0  0
  141.0514   81.5635  221.8875 H   0  0  0  0  0  0  0  0  0  0  0  0
  142.0062   81.2853  224.1752 H   0  0  0  0  0  0  0  0  0  0  0  0
  142.2582   79.0187  225.1038 H   0  0  0  0  0  0  0  0  0  0  0  0
  141.5801   77.0012  223.8351 H   0  0  0  0  0  0  0  0  0  0  0  0
  141.7527   78.2946  219.2701 H   0  0  0  0  0  0  0  0  0  0  0  0
  143.5783   77.4553  217.8537 H   0  0  0  0  0  0  0  0  0  0  0  0
  143.6105   73.7984  219.9070 H   0  0  0  0  0  0  0  0  0  0  0  0
  141.7805   74.5407  221.3798 H   0  0  0  0  0  0  0  0  0  0  0  0
  138.6851   70.1304  222.5426 H   0  0  0  0  0  0  0  0  0  0  0  0
  138.5539   68.5253  224.4258 H   0  0  0  0  0  0  0  0  0  0  0  0
  139.1539   67.9575  226.7760 H   0  0  0  0  0  0  0  0  0  0  0  0
  141.5307   70.8073  229.0075 H   0  0  0  0  0  0  0  0  0  0  0  0
  141.5721   72.3197  227.0343 H   0  0  0  0  0  0  0  0  0  0  0  0
  1  2  2  0
  2  3  1  0
  3  4  1  0
  4  5  1  0
  5  6  2  0
  5  7  1  0
  7  8  1  0
  8  9  1  0
  9 10  1  0
 10 11  1  0
 11 12  1  0
 12 13  1  0
 13 14  1  0
 14 15  1  0
 15 16  2  0
 16 17  1  0
 17 18  2  0
 18 19  1  0
 19 20  2  0
 14 21  1  0
 21 22  2  0
 22 23  1  0
 23 24  2  0
 24 25  1  0
 25 26  2  0
  2 27  1  0
 27 28  2  0
 28 29  1  0
 29 30  2  0
 30 31  1  0
 31 32  2  0
 32 33  1  0
 32 34  1  0
 34 35  2  0
 35 36  1  0
 36 37  2  0
 11  7  1  0
 20 15  1  0
 26 21  1  0
 37 27  1  0
 36 30  1  0
  3 38  1  0
  4 39  1  0
  4 40  1  0
  8 41  1  0
  8 42  1  0
  9 43  1  0
  9 44  1  0
 10 45  1  0
 10 46  1  0
 11 47  1  6
 12 48  1  0
 12 49  1  0
 13 50  1  0
 14 51  1  6
 16 52  1  0
 17 53  1  0
 18 54  1  0
 19 55  1  0
 20 56  1  0
 22 57  1  0
 23 58  1  0
 25 59  1  0
 26 60  1  0
 28 61  1  0
 29 62  1  0
 31 63  1  0
 34 64  1  0
 35 65  1  0
M  END
>  <smiles>  (100) 
O=C(NCC(=O)N1CCC[C@H]1CNC(c1ccccc1)c1ccncc1)c1ccc2cc(F)ccc2n1

>  <score_type>  (100) 
oracle

>  <origin>  (100) 
autodockgpu

>  <m_score__min__energy>  (100) 
-9.4299999999999997

>  <m_primary>  (100) 
energy

>  <rmsd>  (100) 
3.511898148327137

>  <m_score__min__rmsd>  (100) 
3.511898148327137

>  <meeko>  (100) 
{"free_energy": -8.94, "intermolecular_energy": -11.63, "internal_energy": -3.35, "cluster_size": 19, "cluster_id": 1, "rank_in_cluster": 6}

>  <energy>  (100) 
-6.14

>  <cluster_rmsd>  (100) 
0.0

>  <cluster>  (100) 
10

$$$$
