
 63 66  0  0  0  0  0  0  0  0999 V2000
  142.1840   80.8480  223.5890 C   0  0  0  0  0  0  0  0  0  0  0  0
  141.7880   81.4010  222.2520 C   0  0  0  0  0  0  0  0  0  0  0  0
  140.5970   80.7000  221.6880 C   0  0  0  0  0  0  0  0  0  0  0  0
  140.4610   80.7250  220.4370 O   0  0  0  0  0  0  0  0  0  0  0  0
  139.6830   80.0470  222.5620 N   0  0  0  0  0  0  0  0  0  0  0  0
  138.6870   80.8270  223.2600 C   0  0  0  0  0  0  0  0  0  0  0  0
  138.4310   80.5000  224.5670 C   0  0  0  0  0  0  0  0  0  0  0  0
  137.4740   81.2440  225.2400 C   0  0  0  0  0  0  0  0  0  0  0  0
  136.8130   82.2840  224.5850 C   0  0  0  0  0  0  0  0  0  0  0  0
  137.0800   82.6040  223.2660 C   0  0  0  0  0  0  0  0  0  0  0  0
  138.0290   81.8640  222.6020 C   0  0  0  0  0  0  0  0  0  0  0  0
  139.7320   78.6290  222.7620 C   0  0  0  0  0  0  0  0  0  0  0  0
  138.6160   77.9040  222.0400 C   0  0  0  0  0  0  0  0  0  0  0  0
  138.5930   76.4920  222.5960 C   0  0  0  0  0  0  0  0  0  0  0  0
  139.8240   75.8030  222.3630 N   0  0  0  0  0  0  0  0  0  0  0  0
  139.9900   74.4820  221.9070 C   0  0  0  0  0  0  0  0  0  0  0  0
  141.2170   74.0820  221.7420 O   0  0  0  0  0  0  0  0  0  0  0  0
  138.9880   73.4650  221.5820 C   0  0  2  0  0  0  0  0  0  0  0  0
  137.7810   73.4830  222.3400 N   0  0  0  0  0  0  0  0  0  0  0  0
  139.6520   72.0880  221.6130 C   0  0  0  0  0  0  0  0  0  0  0  0
  139.5900   71.4160  222.9020 C   0  0  0  0  0  0  0  0  0  0  0  0
  138.8290   70.3100  223.2060 C   0  0  0  0  0  0  0  0  0  0  0  0
  138.8080   69.7200  224.4580 C   0  0  0  0  0  0  0  0  0  0  0  0
  139.5650   70.2260  225.4820 C   0  0  0  0  0  0  0  0  0  0  0  0
  139.5360   69.6340  226.7150 C   0  0  0  0  0  0  0  0  0  0  0  0
  140.3040   70.1470  227.7490 C   0  0  0  0  0  0  0  0  0  0  0  0
  141.0840   71.2610  227.4850 C   0  0  0  0  0  0  0  0  0  0  0  0
  141.1200   71.8630  226.2460 C   0  0  0  0  0  0  0  0  0  0  0  0
  140.3390   71.3310  225.2130 C   0  0  0  0  0  0  0  0  0  0  0  0
  140.3600   71.9240  223.9560 C   0  0  0  0  0  0  0  0  0  0  0  0
  141.0430   76.5580  222.6490 C   0  0  0  0  0  0  0  0  0  0  0  0
  141.0080   77.9850  222.2610 C   0  0  0  0  0  0  0  0  0  0  0  0
  141.7426   81.4644  224.3861 H   0  0  0  0  0  0  0  0  0  0  0  0
  141.8197   79.8141  223.6807 H   0  0  0  0  0  0  0  0  0  0  0  0
  143.2801   80.8600  223.6807 H   0  0  0  0  0  0  0  0  0  0  0  0
  141.5508   82.4691  222.3655 H   0  0  0  0  0  0  0  0  0  0  0  0
  142.6297   81.2520  221.5596 H   0  0  0  0  0  0  0  0  0  0  0  0
  138.9658   79.6769  225.0636 H   0  0  0  0  0  0  0  0  0  0  0  0
  137.2360   81.0148  226.2892 H   0  0  0  0  0  0  0  0  0  0  0  0
  136.0578   82.8661  225.1335 H   0  0  0  0  0  0  0  0  0  0  0  0
  136.5488   83.4259  222.7637 H   0  0  0  0  0  0  0  0  0  0  0  0
  138.2687   82.0902  221.5525 H   0  0  0  0  0  0  0  0  0  0  0  0
  139.6499   78.5303  223.8545 H   0  0  0  0  0  0  0  0  0  0  0  0
  137.6539   78.4028  222.2283 H   0  0  0  0  0  0  0  0  0  0  0  0
  138.7798   77.9019  220.9523 H   0  0  0  0  0  0  0  0  0  0  0  0
  138.4131   76.5404  223.6801 H   0  0  0  0  0  0  0  0  0  0  0  0
  137.7924   75.9387  222.0833 H   0  0  0  0  0  0  0  0  0  0  0  0
  138.6333   73.7174  220.5718 H   0  0  0  0  0  0  0  0  0  0  0  0
  137.5370   74.4100  222.7430 H   0  0  0  0  0  0  0  0  0  0  0  0
  137.7630   72.7810  223.1080 H   0  0  0  0  0  0  0  0  0  0  0  0
  139.1536   71.4496  220.8687 H   0  0  0  0  0  0  0  0  0  0  0  0
  140.7182   72.2504  221.3964 H   0  0  0  0  0  0  0  0  0  0  0  0
  138.2051   69.8723  222.4128 H   0  0  0  0  0  0  0  0  0  0  0  0
  138.1772   68.8359  224.6327 H   0  0  0  0  0  0  0  0  0  0  0  0
  138.9031   68.7507  226.8861 H   0  0  0  0  0  0  0  0  0  0  0  0
  140.2943   69.6843  228.7469 H   0  0  0  0  0  0  0  0  0  0  0  0
  141.6980   71.6810  228.2953 H   0  0  0  0  0  0  0  0  0  0  0  0
  141.7516   72.7465  226.0715 H   0  0  0  0  0  0  0  0  0  0  0  0
  140.9925   72.8078  223.7860 H   0  0  0  0  0  0  0  0  0  0  0  0
  141.2297   76.5046  223.7317 H   0  0  0  0  0  0  0  0  0  0  0  0
  141.8360   76.0969  222.0419 H   0  0  0  0  0  0  0  0  0  0  0  0
  141.8736   78.5028  222.6999 H   0  0  0  0  0  0  0  0  0  0  0  0
  141.0433   78.0610  221.1642 H   0  0  0  0  0  0  0  0  0  0  0  0
  1  2  1  0
  2  3  1  0
  3  4  2  0
  3  5  1  0
  5  6  1  0
  6  7  2  0
  7  8  1  0
  8  9  2  0
  9 10  1  0
 10 11  2  0
  5 12  1  0
 12 13  1  0
 13 14  1  0
 14 15  1  0
 15 16  1  0
 16 17  2  0
 16 18  1  0
 18 19  1  0
 18 20  1  0
 20 21  1  0
 21 22  2  0
 22 23  1  0
 23 24  2  0
 24 25  1  0
 25 26  2  0
 26 27  1  0
 27 28  2  0
 28 29  1  0
 29 30  2  0
 15 31  1  0
 31 32  1  0
 11  6  1  0
 32 12  1  0
 30 21  1  0
 29 24  1  0
  1 33  1  0
  1 34  1  0
  1 35  1  0
  2 36  1  0
  2 37  1  0
  7 38  1  0
  8 39  1  0
  9 40  1  0
 10 41  1  0
 11 42  1  0
 12 43  1  0
 13 44  1  0
 13 45  1  0
 14 46  1  0
 14 47  1  0
 18 48  1  6
 19 49  1  0
 19 50  1  0
 20 51  1  0
 20 52  1  0
 22 53  1  0
 23 54  1  0
 25 55  1  0
 26 56  1  0
 27 57  1  0
 28 58  1  0
 30 59  1  0
 31 60  1  0
 31 61  1  0
 32 62  1  0
 32 63  1  0
M  END
