
     RDKit          3D

 64 68  0  0  0  0  0  0  0  0999 V2000
  141.0330   72.0000  221.7640 O   0  0  0  0  0  0  0  0  0  0  0  0
  140.0840   72.0400  222.5990 C   0  0  0  0  0  0  0  0  0  0  0  0
  139.0220   73.0120  222.3470 N   0  0  0  0  0  0  0  0  0  0  0  0
  139.1880   73.8030  221.1810 C   0  0  0  0  0  0  0  0  0  0  0  0
  140.2530   74.7680  221.1850 C   0  0  0  0  0  0  0  0  0  0  0  0
  140.3570   75.4290  222.3170 O   0  0  0  0  0  0  0  0  0  0  0  0
  141.2090   75.1330  220.1910 N   0  0  0  0  0  0  0  0  0  0  0  0
  141.6000   74.4690  218.9790 C   0  0  0  0  0  0  0  0  0  0  0  0
  142.5210   75.4090  218.2560 C   0  0  0  0  0  0  0  0  0  0  0  0
  143.0470   76.3270  219.3050 C   0  0  0  0  0  0  0  0  0  0  0  0
  142.0100   76.3460  220.3740 C   0  0  1  0  0  0  0  0  0  0  0  0
  141.2400   77.6130  220.3410 C   0  0  0  0  0  0  0  0  0  0  0  0
  141.9750   78.8190  220.5770 N   0  0  0  0  0  0  0  0  0  0  0  0
  142.2260   79.0030  222.0150 C   0  0  0  0  0  0  0  0  0  0  0  0
  140.9930   79.4850  222.7040 C   0  0  0  0  0  0  0  0  0  0  0  0
  140.8630   80.7570  223.2110 C   0  0  0  0  0  0  0  0  0  0  0  0
  139.6980   81.1810  223.8540 C   0  0  0  0  0  0  0  0  0  0  0  0
  138.6380   80.3120  223.9910 C   0  0  0  0  0  0  0  0  0  0  0  0
  137.4180   80.7400  224.6620 C   0  0  0  0  0  0  0  0  0  0  0  0
  136.2000   80.3680  224.2370 N   0  0  0  0  0  0  0  0  0  0  0  0
  135.0720   80.7590  224.8560 C   0  0  0  0  0  0  0  0  0  0  0  0
  135.1360   81.5770  225.9780 C   0  0  0  0  0  0  0  0  0  0  0  0
  136.3900   81.9590  226.4150 C   0  0  0  0  0  0  0  0  0  0  0  0
  137.4870   81.5350  225.7530 N   0  0  0  0  0  0  0  0  0  0  0  0
  138.7420   79.0310  223.4900 C   0  0  0  0  0  0  0  0  0  0  0  0
  139.9030   78.6400  222.8610 C   0  0  0  0  0  0  0  0  0  0  0  0
  140.0270   71.1660  223.7640 C   0  0  0  0  0  0  0  0  0  0  0  0
  139.3840   69.9590  223.6310 C   0  0  0  0  0  0  0  0  0  0  0  0
  139.2930   69.0800  224.7100 C   0  0  0  0  0  0  0  0  0  0  0  0
  139.8650   69.4570  225.9090 C   0  0  0  0  0  0  0  0  0  0  0  0
  139.8220   68.6460  227.0360 C   0  0  0  0  0  0  0  0  0  0  0  0
  140.3770   68.9930  228.2360 C   0  0  0  0  0  0  0  0  0  0  0  0
  140.3240   68.1830  229.3370 F   0  0  0  0  0  0  0  0  0  0  0  0
  141.0160   70.2060  228.3450 C   0  0  0  0  0  0  0  0  0  0  0  0
  141.0680   71.0290  227.2270 C   0  0  0  0  0  0  0  0  0  0  0  0
  140.5050   70.6720  226.0200 C   0  0  0  0  0  0  0  0  0  0  0  0
  140.5740   71.4970  224.9550 N   0  0  0  0  0  0  0  0  0  0  0  0
  138.2820   72.9930  223.0430 H   0  0  0  0  0  0  0  0  0  0  0  0
  139.3664   73.1175  220.3394 H   0  0  0  0  0  0  0  0  0  0  0  0
  138.2666   74.3998  221.1112 H   0  0  0  0  0  0  0  0  0  0  0  0
  142.1223   73.5294  219.2120 H   0  0  0  0  0  0  0  0  0  0  0  0
  140.7242   74.2177  218.3627 H   0  0  0  0  0  0  0  0  0  0  0  0
  143.3438   74.8538  217.7818 H   0  0  0  0  0  0  0  0  0  0  0  0
  142.0029   75.9557  217.4543 H   0  0  0  0  0  0  0  0  0  0  0  0
  144.0013   75.9505  219.7019 H   0  0  0  0  0  0  0  0  0  0  0  0
  143.2404   77.3338  218.9063 H   0  0  0  0  0  0  0  0  0  0  0  0
  142.4423   76.3300  221.3853 H   0  0  0  0  0  0  0  0  0  0  0  0
  140.7755   77.6949  219.3472 H   0  0  0  0  0  0  0  0  0  0  0  0
  140.5282   77.5403  221.1765 H   0  0  0  0  0  0  0  0  0  0  0  0
  142.9240   78.8130  220.1250 H   0  0  0  0  0  0  0  0  0  0  0  0
  142.5341   78.0428  222.4543 H   0  0  0  0  0  0  0  0  0  0  0  0
  143.0212   79.7520  222.1441 H   0  0  0  0  0  0  0  0  0  0  0  0
  141.7016   81.4612  223.1069 H   0  0  0  0  0  0  0  0  0  0  0  0
  139.6271   82.2050  224.2495 H   0  0  0  0  0  0  0  0  0  0  0  0
  134.0947   80.4302  224.4729 H   0  0  0  0  0  0  0  0  0  0  0  0
  134.2244   81.9072  226.4975 H   0  0  0  0  0  0  0  0  0  0  0  0
  136.4937   82.6059  227.2986 H   0  0  0  0  0  0  0  0  0  0  0  0
  137.9033   78.3266  223.5922 H   0  0  0  0  0  0  0  0  0  0  0  0
  139.9694   77.6153  222.4665 H   0  0  0  0  0  0  0  0  0  0  0  0
  138.9369   69.6834  222.6645 H   0  0  0  0  0  0  0  0  0  0  0  0
  138.7794   68.1125  224.6087 H   0  0  0  0  0  0  0  0  0  0  0  0
  139.3145   67.6731  226.9586 H   0  0  0  0  0  0  0  0  0  0  0  0
  141.4751   70.5171  229.2950 H   0  0  0  0  0  0  0  0  0  0  0  0
  141.5768   72.0009  227.3076 H   0  0  0  0  0  0  0  0  0  0  0  0
  1  2  2  0
  2  3  1  0
  3  4  1  0
  4  5  1  0
  5  6  2  0
  5  7  1  0
  7  8  1  0
  8  9  1  0
  9 10  1  0
 10 11  1  0
 11 12  1  0
 12 13  1  0
 13 14  1  0
 14 15  1  0
 15 16  2  0
 16 17  1  0
 17 18  2  0
 18 19  1  0
 19 20  2  0
 20 21  1  0
 21 22  2  0
 22 23  1  0
 23 24  2  0
 18 25  1  0
 25 26  2  0
  2 27  1  0
 27 28  2  0
 28 29  1  0
 29 30  2  0
 30 31  1  0
 31 32  2  0
 32 33  1  0
 32 34  1  0
 34 35  2  0
 35 36  1  0
 36 37  2  0
 11  7  1  0
 26 15  1  0
 37 27  1  0
 24 19  1  0
 36 30  1  0
  3 38  1  0
  4 39  1  0
  4 40  1  0
  8 41  1  0
  8 42  1  0
  9 43  1  0
  9 44  1  0
 10 45  1  0
 10 46  1  0
 11 47  1  1
 12 48  1  0
 12 49  1  0
 13 50  1  0
 14 51  1  0
 14 52  1  0
 16 53  1  0
 17 54  1  0
 21 55  1  0
 22 56  1  0
 23 57  1  0
 25 58  1  0
 26 59  1  0
 28 60  1  0
 29 61  1  0
 31 62  1  0
 34 63  1  0
 35 64  1  0
M  END
