
     RDKit          3D

 68 72  0  0  0  0  0  0  0  0999 V2000
  140.9000   77.7640  217.5060 O   0  0  0  0  0  0  0  0  0  0  0  0
  141.9030   77.6030  218.2690 C   0  0  0  0  0  0  0  0  0  0  0  0
  142.3400   78.6300  219.1200 N   0  0  0  0  0  0  0  0  0  0  0  0
  141.6580   79.9520  219.1850 C   0  0  0  0  0  0  0  0  0  0  0  0
  141.5660   80.3880  220.5750 C   0  0  0  0  0  0  0  0  0  0  0  0
  141.0140   81.5540  220.7370 O   0  0  0  0  0  0  0  0  0  0  0  0
  141.9650   79.7680  221.7590 N   0  0  0  0  0  0  0  0  0  0  0  0
  142.9140   80.5420  222.6600 C   0  0  0  0  0  0  0  0  0  0  0  0
  142.4040   80.1770  224.0510 C   0  0  0  0  0  0  0  0  0  0  0  0
  141.2930   79.1350  223.8280 C   0  0  0  0  0  0  0  0  0  0  0  0
  141.7860   78.5770  222.4820 C   0  0  1  0  0  0  0  0  0  0  0  0
  140.8590   77.5490  222.0700 C   0  0  0  0  0  0  0  0  0  0  0  0
  139.6310   77.4770  222.2070 O   0  0  0  0  0  0  0  0  0  0  0  0
  141.4510   76.4000  221.3800 N   0  0  0  0  0  0  0  0  0  0  0  0
  140.6380   75.3230  220.9220 C   0  0  1  0  0  0  0  0  0  0  0  0
  139.9300   74.5300  221.9590 C   0  0  0  0  0  0  0  0  0  0  0  0
  138.5270   74.1450  221.5380 C   0  0  0  0  0  0  0  0  0  0  0  0
  138.4440   73.5870  220.1430 C   0  0  2  0  0  0  0  0  0  0  0  0
  138.8470   72.2570  220.0910 O   0  0  0  0  0  0  0  0  0  0  0  0
  140.0650   71.7410  219.7690 C   0  0  0  0  0  0  0  0  0  0  0  0
  141.0480   71.7470  220.7650 C   0  0  0  0  0  0  0  0  0  0  0  0
  142.3190   71.2290  220.4860 C   0  0  0  0  0  0  0  0  0  0  0  0
  142.6130   70.7250  219.2780 N   0  0  0  0  0  0  0  0  0  0  0  0
  141.7030   70.7060  218.3180 C   0  0  0  0  0  0  0  0  0  0  0  0
  140.4260   71.2120  218.5530 C   0  0  0  0  0  0  0  0  0  0  0  0
  139.2060   74.4770  219.1750 C   0  0  0  0  0  0  0  0  0  0  0  0
  139.6270   75.7700  219.8650 C   0  0  0  0  0  0  0  0  0  0  0  0
  142.6390   76.3230  218.2830 C   0  0  0  0  0  0  0  0  0  0  0  0
  142.5540   75.4570  217.1950 C   0  0  0  0  0  0  0  0  0  0  0  0
  143.2630   74.2740  217.2630 C   0  0  0  0  0  0  0  0  0  0  0  0
  144.0300   73.9410  218.3520 C   0  0  0  0  0  0  0  0  0  0  0  0
  144.7520   72.7790  218.4760 C   0  0  0  0  0  0  0  0  0  0  0  0
  145.4890   72.5370  219.6150 C   0  0  0  0  0  0  0  0  0  0  0  0
  146.2050   71.3930  219.7430 F   0  0  0  0  0  0  0  0  0  0  0  0
  145.5480   73.4170  220.6700 C   0  0  0  0  0  0  0  0  0  0  0  0
  144.8160   74.6020  220.5520 C   0  0  0  0  0  0  0  0  0  0  0  0
  144.0820   74.8310  219.4070 C   0  0  0  0  0  0  0  0  0  0  0  0
  143.3950   75.9850  219.3460 N   0  0  0  0  0  0  0  0  0  0  0  0
  143.1750   78.4610  219.7330 H   0  0  0  0  0  0  0  0  0  0  0  0
  142.2341   80.6899  218.6073 H   0  0  0  0  0  0  0  0  0  0  0  0
  140.6463   79.8621  218.7627 H   0  0  0  0  0  0  0  0  0  0  0  0
  143.9547   80.2154  222.5180 H   0  0  0  0  0  0  0  0  0  0  0  0
  142.9267   81.6242  222.4634 H   0  0  0  0  0  0  0  0  0  0  0  0
  143.2159   79.7481  224.6567 H   0  0  0  0  0  0  0  0  0  0  0  0
  142.0300   81.0596  224.5905 H   0  0  0  0  0  0  0  0  0  0  0  0
  141.2777   78.3678  224.6161 H   0  0  0  0  0  0  0  0  0  0  0  0
  140.2624   79.5192  223.8418 H   0  0  0  0  0  0  0  0  0  0  0  0
  142.7275   78.0145  222.3973 H   0  0  0  0  0  0  0  0  0  0  0  0
  142.4770   76.3550  221.2100 H   0  0  0  0  0  0  0  0  0  0  0  0
  141.3870   74.6442  220.4881 H   0  0  0  0  0  0  0  0  0  0  0  0
  139.8702   75.1279  222.8804 H   0  0  0  0  0  0  0  0  0  0  0  0
  140.4985   73.6014  222.1154 H   0  0  0  0  0  0  0  0  0  0  0  0
  137.8905   75.0405  221.5919 H   0  0  0  0  0  0  0  0  0  0  0  0
  138.1937   73.3503  222.2217 H   0  0  0  0  0  0  0  0  0  0  0  0
  137.3900   73.5869  219.8282 H   0  0  0  0  0  0  0  0  0  0  0  0
  140.8238   72.1561  221.7612 H   0  0  0  0  0  0  0  0  0  0  0  0
  143.0895   71.2355  221.2710 H   0  0  0  0  0  0  0  0  0  0  0  0
  141.9550   70.2896  217.3315 H   0  0  0  0  0  0  0  0  0  0  0  0
  139.6846   71.1873  217.7408 H   0  0  0  0  0  0  0  0  0  0  0  0
  138.5603   74.7169  218.3174 H   0  0  0  0  0  0  0  0  0  0  0  0
  140.1056   73.9450  218.8319 H   0  0  0  0  0  0  0  0  0  0  0  0
  138.7619   76.2598  220.3359 H   0  0  0  0  0  0  0  0  0  0  0  0
  140.0503   76.5027  219.1621 H   0  0  0  0  0  0  0  0  0  0  0  0
  141.9444   75.7065  216.3140 H   0  0  0  0  0  0  0  0  0  0  0  0
  143.2115   73.5745  216.4157 H   0  0  0  0  0  0  0  0  0  0  0  0
  144.7418   72.0385  217.6626 H   0  0  0  0  0  0  0  0  0  0  0  0
  146.1451   73.1980  221.5675 H   0  0  0  0  0  0  0  0  0  0  0  0
  144.8253   75.3441  221.3639 H   0  0  0  0  0  0  0  0  0  0  0  0
  1  2  2  0
  2  3  1  0
  3  4  1  0
  4  5  1  0
  5  6  2  0
  5  7  1  0
  7  8  1  0
  8  9  1  0
  9 10  1  0
 10 11  1  0
 11 12  1  0
 12 13  2  0
 12 14  1  0
 14 15  1  0
 15 16  1  0
 16 17  1  0
 17 18  1  0
 18 19  1  0
 19 20  1  0
 20 21  2  0
 21 22  1  0
 22 23  2  0
 23 24  1  0
 24 25  2  0
 18 26  1  0
 26 27  1  0
  2 28  1  0
 28 29  2  0
 29 30  1  0
 30 31  2  0
 31 32  1  0
 32 33  2  0
 33 34  1  0
 33 35  1  0
 35 36  2  0
 36 37  1  0
 37 38  2  0
 11  7  1  0
 27 15  1  0
 38 28  1  0
 25 20  1  0
 37 31  1  0
  3 39  1  0
  4 40  1  0
  4 41  1  0
  8 42  1  0
  8 43  1  0
  9 44  1  0
  9 45  1  0
 10 46  1  0
 10 47  1  0
 11 48  1  1
 14 49  1  0
 15 50  1  6
 16 51  1  0
 16 52  1  0
 17 53  1  0
 17 54  1  0
 18 55  1  6
 21 56  1  0
 22 57  1  0
 24 58  1  0
 25 59  1  0
 26 60  1  0
 26 61  1  0
 27 62  1  0
 27 63  1  0
 29 64  1  0
 30 65  1  0
 32 66  1  0
 35 67  1  0
 36 68  1  0
M  END
>  <smiles>  (1) 
O=C(NCC(=O)N1CCC[C@H]1C(=O)N[C@H]1CC[C@H](Oc2ccncc2)CC1)c1ccc2cc(F)ccc2n1

>  <score_type>  (1) 
oracle

>  <origin>  (1) 
autodockgpu

>  <m_score__min__energy>  (1) 
-9.4700000000000006

>  <m_primary>  (1) 
energy

>  <rmsd>  (1) 
7.68645952474559

>  <m_score__min__rmsd>  (1) 
7.68645952474559

>  <meeko>  (1) 
{"free_energy": -6.25, "intermolecular_energy": -8.64, "internal_energy": -5.05, "cluster_size": 9, "cluster_id": 11, "rank_in_cluster": 8}

>  <energy>  (1) 
-9.47

>  <cluster_rmsd>  (1) 
0.0

>  <cluster>  (1) 
1

$$$$

     RDKit          3D

 68 72  0  0  0  0  0  0  0  0999 V2000
  138.3250   75.1580  221.7970 O   0  0  0  0  0  0  0  0  0  0  0  0
  139.5150   75.5830  221.9190 C   0  0  0  0  0  0  0  0  0  0  0  0
  140.6130   74.7640  221.6120 N   0  0  0  0  0  0  0  0  0  0  0  0
  140.4500   73.3670  221.1230 C   0  0  0  0  0  0  0  0  0  0  0  0
  141.6330   72.9740  220.3620 C   0  0  0  0  0  0  0  0  0  0  0  0
  141.4450   71.9680  219.5590 O   0  0  0  0  0  0  0  0  0  0  0  0
  142.9270   73.4910  220.3460 N   0  0  0  0  0  0  0  0  0  0  0  0
  144.0330   72.6080  220.9040 C   0  0  0  0  0  0  0  0  0  0  0  0
  145.1910   72.9080  219.9570 C   0  0  0  0  0  0  0  0  0  0  0  0
  144.6870   74.0220  219.0220 C   0  0  0  0  0  0  0  0  0  0  0  0
  143.6400   74.6400  219.9640 C   0  0  1  0  0  0  0  0  0  0  0  0
  143.0200   75.7430  219.2660 C   0  0  0  0  0  0  0  0  0  0  0  0
  142.8240   75.9160  218.0570 O   0  0  0  0  0  0  0  0  0  0  0  0
  142.5450   76.8410  220.1110 N   0  0  0  0  0  0  0  0  0  0  0  0
  141.9130   77.9830  219.5390 C   0  0  1  0  0  0  0  0  0  0  0  0
  142.6130   78.6400  218.4060 C   0  0  0  0  0  0  0  0  0  0  0  0
  141.6610   79.1010  217.3220 C   0  0  0  0  0  0  0  0  0  0  0  0
  140.4610   79.8430  217.8460 C   0  0  2  0  0  0  0  0  0  0  0  0
  140.7680   81.1620  218.1670 O   0  0  0  0  0  0  0  0  0  0  0  0
  140.5030   81.8500  219.3110 C   0  0  0  0  0  0  0  0  0  0  0  0
  139.1590   82.0880  219.6190 C   0  0  0  0  0  0  0  0  0  0  0  0
  138.8300   82.7930  220.7840 C   0  0  0  0  0  0  0  0  0  0  0  0
  139.7830   83.2450  221.6140 N   0  0  0  0  0  0  0  0  0  0  0  0
  141.0610   83.0330  221.3470 C   0  0  0  0  0  0  0  0  0  0  0  0
  141.4320   82.3380  220.1990 C   0  0  0  0  0  0  0  0  0  0  0  0
  139.8330   79.0820  219.0010 C   0  0  0  0  0  0  0  0  0  0  0  0
  140.4660   77.7000  219.1290 C   0  0  0  0  0  0  0  0  0  0  0  0
  139.7790   76.9580  222.3880 C   0  0  0  0  0  0  0  0  0  0  0  0
  138.7190   77.7880  222.7470 C   0  0  0  0  0  0  0  0  0  0  0  0
  139.0250   79.0640  223.1780 C   0  0  0  0  0  0  0  0  0  0  0  0
  140.3170   79.5200  223.2570 C   0  0  0  0  0  0  0  0  0  0  0  0
  140.6790   80.7780  223.6740 C   0  0  0  0  0  0  0  0  0  0  0  0
  142.0080   81.1410  223.7150 C   0  0  0  0  0  0  0  0  0  0  0  0
  142.3730   82.3800  224.1270 F   0  0  0  0  0  0  0  0  0  0  0  0
  143.0280   80.2920  223.3520 C   0  0  0  0  0  0  0  0  0  0  0  0
  142.6670   79.0110  222.9270 C   0  0  0  0  0  0  0  0  0  0  0  0
  141.3340   78.6620  222.8900 C   0  0  0  0  0  0  0  0  0  0  0  0
  141.0430   77.4180  222.4710 N   0  0  0  0  0  0  0  0  0  0  0  0
  141.5830   75.1490  221.7290 H   0  0  0  0  0  0  0  0  0  0  0  0
  140.3254   72.6907  221.9815 H   0  0  0  0  0  0  0  0  0  0  0  0
  139.5625   73.3073  220.4759 H   0  0  0  0  0  0  0  0  0  0  0  0
  144.2816   72.8857  221.9390 H   0  0  0  0  0  0  0  0  0  0  0  0
  143.7659   71.5420  220.9523 H   0  0  0  0  0  0  0  0  0  0  0  0
  146.0700   73.2506  220.5226 H   0  0  0  0  0  0  0  0  0  0  0  0
  145.4974   72.0137  219.3945 H   0  0  0  0  0  0  0  0  0  0  0  0
  145.4819   74.7352  218.7583 H   0  0  0  0  0  0  0  0  0  0  0  0
  144.3167   73.6947  218.0393 H   0  0  0  0  0  0  0  0  0  0  0  0
  143.9283   75.1544  220.8926 H   0  0  0  0  0  0  0  0  0  0  0  0
  142.6570   76.8020  221.1460 H   0  0  0  0  0  0  0  0  0  0  0  0
  141.9535   78.7017  220.3708 H   0  0  0  0  0  0  0  0  0  0  0  0
  143.3247   77.9242  217.9688 H   0  0  0  0  0  0  0  0  0  0  0  0
  143.1242   79.5302  218.8013 H   0  0  0  0  0  0  0  0  0  0  0  0
  141.3089   78.2170  216.7701 H   0  0  0  0  0  0  0  0  0  0  0  0
  142.2176   79.8013  216.6819 H   0  0  0  0  0  0  0  0  0  0  0  0
  139.7085   79.9006  217.0457 H   0  0  0  0  0  0  0  0  0  0  0  0
  138.3653   81.7236  218.9502 H   0  0  0  0  0  0  0  0  0  0  0  0
  137.7725   82.9793  221.0226 H   0  0  0  0  0  0  0  0  0  0  0  0
  141.8337   83.4072  222.0346 H   0  0  0  0  0  0  0  0  0  0  0  0
  142.5008   82.1745  219.9965 H   0  0  0  0  0  0  0  0  0  0  0  0
  138.7538   78.9717  218.8191 H   0  0  0  0  0  0  0  0  0  0  0  0
  140.0021   79.6414  219.9329 H   0  0  0  0  0  0  0  0  0  0  0  0
  140.4307   77.1649  218.1686 H   0  0  0  0  0  0  0  0  0  0  0  0
  139.9404   77.0628  219.8555 H   0  0  0  0  0  0  0  0  0  0  0  0
  137.6771   77.4399  222.6893 H   0  0  0  0  0  0  0  0  0  0  0  0
  138.2052   79.7377  223.4678 H   0  0  0  0  0  0  0  0  0  0  0  0
  139.9049   81.4986  223.9764 H   0  0  0  0  0  0  0  0  0  0  0  0
  144.0809   80.6077  223.3945 H   0  0  0  0  0  0  0  0  0  0  0  0
  143.4390   78.2880  222.6249 H   0  0  0  0  0  0  0  0  0  0  0  0
  1  2  2  0
  2  3  1  0
  3  4  1  0
  4  5  1  0
  5  6  2  0
  5  7  1  0
  7  8  1  0
  8  9  1  0
  9 10  1  0
 10 11  1  0
 11 12  1  0
 12 13  2  0
 12 14  1  0
 14 15  1  0
 15 16  1  0
 16 17  1  0
 17 18  1  0
 18 19  1  0
 19 20  1  0
 20 21  2  0
 21 22  1  0
 22 23  2  0
 23 24  1  0
 24 25  2  0
 18 26  1  0
 26 27  1  0
  2 28  1  0
 28 29  2  0
 29 30  1  0
 30 31  2  0
 31 32  1  0
 32 33  2  0
 33 34  1  0
 33 35  1  0
 35 36  2  0
 36 37  1  0
 37 38  2  0
 11  7  1  0
 27 15  1  0
 38 28  1  0
 25 20  1  0
 37 31  1  0
  3 39  1  0
  4 40  1  0
  4 41  1  0
  8 42  1  0
  8 43  1  0
  9 44  1  0
  9 45  1  0
 10 46  1  0
 10 47  1  0
 11 48  1  1
 14 49  1  0
 15 50  1  1
 16 51  1  0
 16 52  1  0
 17 53  1  0
 17 54  1  0
 18 55  1  6
 21 56  1  0
 22 57  1  0
 24 58  1  0
 25 59  1  0
 26 60  1  0
 26 61  1  0
 27 62  1  0
 27 63  1  0
 29 64  1  0
 30 65  1  0
 32 66  1  0
 35 67  1  0
 36 68  1  0
M  END
>  <smiles>  (2) 
O=C(NCC(=O)N1CCC[C@H]1C(=O)N[C@H]1CC[C@H](Oc2ccncc2)CC1)c1ccc2cc(F)ccc2n1

>  <score_type>  (2) 
oracle

>  <origin>  (2) 
autodockgpu

>  <m_score__min__energy>  (2) 
-9.4700000000000006

>  <m_primary>  (2) 
energy

>  <rmsd>  (2) 
6.99208733748191

>  <m_score__min__rmsd>  (2) 
6.99208733748191

>  <meeko>  (2) 
{"free_energy": -6.71, "intermolecular_energy": -9.1, "internal_energy": -4.87, "cluster_size": 2, "cluster_id": 15, "rank_in_cluster": 2}

>  <energy>  (2) 
-9.45

>  <cluster_rmsd>  (2) 
1.16

>  <cluster>  (2) 
1

$$$$

     RDKit          3D

 68 72  0  0  0  0  0  0  0  0999 V2000
  140.1840   73.3530  222.3560 O   0  0  0  0  0  0  0  0  0  0  0  0
  140.0830   72.0940  222.2210 C   0  0  0  0  0  0  0  0  0  0  0  0
  140.0480   71.5020  220.9490 N   0  0  0  0  0  0  0  0  0  0  0  0
  140.1320   72.3020  219.6960 C   0  0  0  0  0  0  0  0  0  0  0  0
  141.4560   72.1430  219.1020 C   0  0  0  0  0  0  0  0  0  0  0  0
  141.4460   71.8700  217.8310 O   0  0  0  0  0  0  0  0  0  0  0  0
  142.7300   72.2360  219.6620 N   0  0  0  0  0  0  0  0  0  0  0  0
  143.5740   70.9710  219.6760 C   0  0  0  0  0  0  0  0  0  0  0  0
  144.9710   71.5140  219.3900 C   0  0  0  0  0  0  0  0  0  0  0  0
  144.8240   73.0470  219.3610 C   0  0  0  0  0  0  0  0  0  0  0  0
  143.5900   73.1640  220.2720 C   0  0  1  0  0  0  0  0  0  0  0  0
  143.2640   74.5670  220.3870 C   0  0  0  0  0  0  0  0  0  0  0  0
  143.9490   75.5700  220.1500 O   0  0  0  0  0  0  0  0  0  0  0  0
  141.9110   74.8660  220.8630 N   0  0  0  0  0  0  0  0  0  0  0  0
  141.4700   76.2130  221.0140 C   0  0  1  0  0  0  0  0  0  0  0  0
  141.2900   77.0030  219.7700 C   0  0  0  0  0  0  0  0  0  0  0  0
  140.0670   77.8960  219.8210 C   0  0  0  0  0  0  0  0  0  0  0  0
  139.9440   78.6820  221.0980 C   0  0  2  0  0  0  0  0  0  0  0  0
  140.7810   79.7930  221.1060 O   0  0  0  0  0  0  0  0  0  0  0  0
  141.5690   80.2660  222.1110 C   0  0  0  0  0  0  0  0  0  0  0  0
  140.9740   81.1260  223.0410 C   0  0  0  0  0  0  0  0  0  0  0  0
  141.7390   81.6420  224.0940 C   0  0  0  0  0  0  0  0  0  0  0  0
  143.0370   81.3260  224.2290 N   0  0  0  0  0  0  0  0  0  0  0  0
  143.6230   80.5150  223.3650 C   0  0  0  0  0  0  0  0  0  0  0  0
  142.9000   79.9790  222.3030 C   0  0  0  0  0  0  0  0  0  0  0  0
  140.1510   77.7730  222.2980 C   0  0  0  0  0  0  0  0  0  0  0  0
  140.1960   76.3140  221.8540 C   0  0  0  0  0  0  0  0  0  0  0  0
  140.0020   71.2150  223.4050 C   0  0  0  0  0  0  0  0  0  0  0  0
  139.3690   69.9780  223.3120 C   0  0  0  0  0  0  0  0  0  0  0  0
  139.3220   69.1980  224.4510 C   0  0  0  0  0  0  0  0  0  0  0  0
  139.8710   69.6060  225.6410 C   0  0  0  0  0  0  0  0  0  0  0  0
  139.8500   68.8750  226.8040 C   0  0  0  0  0  0  0  0  0  0  0  0
  140.4280   69.3770  227.9500 C   0  0  0  0  0  0  0  0  0  0  0  0
  140.4140   68.6600  229.1010 F   0  0  0  0  0  0  0  0  0  0  0  0
  141.0450   70.6050  228.0020 C   0  0  0  0  0  0  0  0  0  0  0  0
  141.0700   71.3550  226.8230 C   0  0  0  0  0  0  0  0  0  0  0  0
  140.4870   70.8410  225.6840 C   0  0  0  0  0  0  0  0  0  0  0  0
  140.5370   71.6050  224.5780 N   0  0  0  0  0  0  0  0  0  0  0  0
  139.9590   70.4580  220.8780 H   0  0  0  0  0  0  0  0  0  0  0  0
  139.3678   71.9522  218.9863 H   0  0  0  0  0  0  0  0  0  0  0  0
  139.9604   73.3635  219.9278 H   0  0  0  0  0  0  0  0  0  0  0  0
  143.5320   70.4741  220.6565 H   0  0  0  0  0  0  0  0  0  0  0  0
  143.2401   70.2088  218.9565 H   0  0  0  0  0  0  0  0  0  0  0  0
  145.6703   71.2106  220.1831 H   0  0  0  0  0  0  0  0  0  0  0  0
  145.3711   71.1263  218.4415 H   0  0  0  0  0  0  0  0  0  0  0  0
  145.7025   73.5574  219.7826 H   0  0  0  0  0  0  0  0  0  0  0  0
  144.7319   73.5033  218.3643 H   0  0  0  0  0  0  0  0  0  0  0  0
  143.6302   72.9001  221.3391 H   0  0  0  0  0  0  0  0  0  0  0  0
  141.2470   74.0970  221.0930 H   0  0  0  0  0  0  0  0  0  0  0  0
  142.3228   76.6717  221.5359 H   0  0  0  0  0  0  0  0  0  0  0  0
  141.1846   76.3086  218.9234 H   0  0  0  0  0  0  0  0  0  0  0  0
  142.1718   77.6505  219.6550 H   0  0  0  0  0  0  0  0  0  0  0  0
  139.1720   77.2655  219.7139 H   0  0  0  0  0  0  0  0  0  0  0  0
  140.1674   78.6251  219.0035 H   0  0  0  0  0  0  0  0  0  0  0  0
  138.9220   79.0834  221.1645 H   0  0  0  0  0  0  0  0  0  0  0  0
  139.9117   81.3949  222.9453 H   0  0  0  0  0  0  0  0  0  0  0  0
  141.2686   82.3179  224.8232 H   0  0  0  0  0  0  0  0  0  0  0  0
  144.6868   80.2626  223.4858 H   0  0  0  0  0  0  0  0  0  0  0  0
  143.4083   79.3061  221.5967 H   0  0  0  0  0  0  0  0  0  0  0  0
  139.3207   77.9116  223.0060 H   0  0  0  0  0  0  0  0  0  0  0  0
  141.1049   78.0299  222.7818 H   0  0  0  0  0  0  0  0  0  0  0  0
  139.3109   76.0628  221.2510 H   0  0  0  0  0  0  0  0  0  0  0  0
  140.1971   75.6161  222.7043 H   0  0  0  0  0  0  0  0  0  0  0  0
  138.9231   69.6349  222.3668 H   0  0  0  0  0  0  0  0  0  0  0  0
  138.8278   68.2165  224.4027 H   0  0  0  0  0  0  0  0  0  0  0  0
  139.3701   67.8853  226.8206 H   0  0  0  0  0  0  0  0  0  0  0  0
  141.4990   70.9805  228.9309 H   0  0  0  0  0  0  0  0  0  0  0  0
  141.5496   72.3447  226.8038 H   0  0  0  0  0  0  0  0  0  0  0  0
  1  2  2  0
  2  3  1  0
  3  4  1  0
  4  5  1  0
  5  6  2  0
  5  7  1  0
  7  8  1  0
  8  9  1  0
  9 10  1  0
 10 11  1  0
 11 12  1  0
 12 13  2  0
 12 14  1  0
 14 15  1  0
 15 16  1  0
 16 17  1  0
 17 18  1  0
 18 19  1  0
 19 20  1  0
 20 21  2  0
 21 22  1  0
 22 23  2  0
 23 24  1  0
 24 25  2  0
 18 26  1  0
 26 27  1  0
  2 28  1  0
 28 29  2  0
 29 30  1  0
 30 31  2  0
 31 32  1  0
 32 33  2  0
 33 34  1  0
 33 35  1  0
 35 36  2  0
 36 37  1  0
 37 38  2  0
 11  7  1  0
 27 15  1  0
 38 28  1  0
 25 20  1  0
 37 31  1  0
  3 39  1  0
  4 40  1  0
  4 41  1  0
  8 42  1  0
  8 43  1  0
  9 44  1  0
  9 45  1  0
 10 46  1  0
 10 47  1  0
 11 48  1  1
 14 49  1  0
 15 50  1  1
 16 51  1  0
 16 52  1  0
 17 53  1  0
 17 54  1  0
 18 55  1  1
 21 56  1  0
 22 57  1  0
 24 58  1  0
 25 59  1  0
 26 60  1  0
 26 61  1  0
 27 62  1  0
 27 63  1  0
 29 64  1  0
 30 65  1  0
 32 66  1  0
 35 67  1  0
 36 68  1  0
M  END
>  <smiles>  (3) 
O=C(NCC(=O)N1CCC[C@H]1C(=O)N[C@H]1CC[C@H](Oc2ccncc2)CC1)c1ccc2cc(F)ccc2n1

>  <score_type>  (3) 
oracle

>  <origin>  (3) 
autodockgpu

>  <m_score__min__energy>  (3) 
-9.4700000000000006

>  <m_primary>  (3) 
energy

>  <rmsd>  (3) 
3.934590006573134

>  <m_score__min__rmsd>  (3) 
3.934590006573134

>  <meeko>  (3) 
{"free_energy": -8.68, "intermolecular_energy": -11.06, "internal_energy": -3.04, "cluster_size": 2, "cluster_id": 5, "rank_in_cluster": 1}

>  <energy>  (3) 
-9.34

>  <cluster_rmsd>  (3) 
1.22

>  <cluster>  (3) 
1

$$$$

     RDKit          3D

 68 72  0  0  0  0  0  0  0  0999 V2000
  140.8060   72.6650  221.4300 O   0  0  0  0  0  0  0  0  0  0  0  0
  139.8750   72.5820  222.2900 C   0  0  0  0  0  0  0  0  0  0  0  0
  138.7770   73.4560  222.2570 N   0  0  0  0  0  0  0  0  0  0  0  0
  138.6350   74.5160  221.2210 C   0  0  0  0  0  0  0  0  0  0  0  0
  139.7320   75.4720  221.3450 C   0  0  0  0  0  0  0  0  0  0  0  0
  140.5230   75.2550  222.3540 O   0  0  0  0  0  0  0  0  0  0  0  0
  140.0780   76.5760  220.5670 N   0  0  0  0  0  0  0  0  0  0  0  0
  139.1990   77.8110  220.6870 C   0  0  0  0  0  0  0  0  0  0  0  0
  140.2200   78.9410  220.6000 C   0  0  0  0  0  0  0  0  0  0  0  0
  141.5720   78.2610  220.3150 C   0  0  0  0  0  0  0  0  0  0  0  0
  141.0360   76.9940  219.6280 C   0  0  1  0  0  0  0  0  0  0  0  0
  142.1730   76.1800  219.2640 C   0  0  0  0  0  0  0  0  0  0  0  0
  143.1330   76.4320  218.5240 O   0  0  0  0  0  0  0  0  0  0  0  0
  142.2100   74.8400  219.8540 N   0  0  0  0  0  0  0  0  0  0  0  0
  143.2830   73.9450  219.5720 C   0  0  1  0  0  0  0  0  0  0  0  0
  143.7450   73.8760  218.1630 C   0  0  0  0  0  0  0  0  0  0  0  0
  145.2520   73.7640  218.0500 C   0  0  0  0  0  0  0  0  0  0  0  0
  145.8530   72.7360  218.9700 C   0  0  2  0  0  0  0  0  0  0  0  0
  145.6990   71.4450  218.4750 O   0  0  0  0  0  0  0  0  0  0  0  0
  144.8760   70.4520  218.9100 C   0  0  0  0  0  0  0  0  0  0  0  0
  143.5060   70.7320  218.9640 C   0  0  0  0  0  0  0  0  0  0  0  0
  142.6140   69.7450  219.4040 C   0  0  0  0  0  0  0  0  0  0  0  0
  143.0510   68.5320  219.7760 N   0  0  0  0  0  0  0  0  0  0  0  0
  144.3400   68.2400  219.7340 C   0  0  0  0  0  0  0  0  0  0  0  0
  145.2610   69.1920  219.3030 C   0  0  0  0  0  0  0  0  0  0  0  0
  145.3040   72.9020  220.3770 C   0  0  0  0  0  0  0  0  0  0  0  0
  144.4920   74.1890  220.4780 C   0  0  0  0  0  0  0  0  0  0  0  0
  139.9210   71.5580  223.3530 C   0  0  0  0  0  0  0  0  0  0  0  0
  139.4680   70.2660  223.0960 C   0  0  0  0  0  0  0  0  0  0  0  0
  139.5330   69.3490  224.1270 C   0  0  0  0  0  0  0  0  0  0  0  0
  140.0230   69.6770  225.3680 C   0  0  0  0  0  0  0  0  0  0  0  0
  140.1090   68.8090  226.4290 C   0  0  0  0  0  0  0  0  0  0  0  0
  140.6150   69.2370  227.6370 C   0  0  0  0  0  0  0  0  0  0  0  0
  140.7040   68.3860  228.6890 F   0  0  0  0  0  0  0  0  0  0  0  0
  141.0530   70.5230  227.8520 C   0  0  0  0  0  0  0  0  0  0  0  0
  140.9690   71.4120  226.7770 C   0  0  0  0  0  0  0  0  0  0  0  0
  140.4600   70.9690  225.5740 C   0  0  0  0  0  0  0  0  0  0  0  0
  140.4000   71.8660  224.5740 N   0  0  0  0  0  0  0  0  0  0  0  0
  138.0290   73.3600  222.9880 H   0  0  0  0  0  0  0  0  0  0  0  0
  138.6606   74.0570  220.2217 H   0  0  0  0  0  0  0  0  0  0  0  0
  137.6773   75.0385  221.3617 H   0  0  0  0  0  0  0  0  0  0  0  0
  138.4724   77.8653  219.8629 H   0  0  0  0  0  0  0  0  0  0  0  0
  138.5913   77.8338  221.6036 H   0  0  0  0  0  0  0  0  0  0  0  0
  139.9589   79.6318  219.7847 H   0  0  0  0  0  0  0  0  0  0  0  0
  140.2507   79.5323  221.5271 H   0  0  0  0  0  0  0  0  0  0  0  0
  142.2067   78.8606  219.6459 H   0  0  0  0  0  0  0  0  0  0  0  0
  142.2228   78.0980  221.1867 H   0  0  0  0  0  0  0  0  0  0  0  0
  140.5246   77.0356  218.6550 H   0  0  0  0  0  0  0  0  0  0  0  0
  141.4520   74.5210  220.4930 H   0  0  0  0  0  0  0  0  0  0  0  0
  142.8234   72.9680  219.7822 H   0  0  0  0  0  0  0  0  0  0  0  0
  143.4190   74.7872  217.6401 H   0  0  0  0  0  0  0  0  0  0  0  0
  143.3085   72.9724  217.7125 H   0  0  0  0  0  0  0  0  0  0  0  0
  145.6919   74.7435  218.2891 H   0  0  0  0  0  0  0  0  0  0  0  0
  145.4743   73.4438  217.0214 H   0  0  0  0  0  0  0  0  0  0  0  0
  146.9387   72.9049  219.0213 H   0  0  0  0  0  0  0  0  0  0  0  0
  143.1314   71.7214  218.6627 H   0  0  0  0  0  0  0  0  0  0  0  0
  141.5377   69.9682  219.4452 H   0  0  0  0  0  0  0  0  0  0  0  0
  144.6862   67.2419  220.0405 H   0  0  0  0  0  0  0  0  0  0  0  0
  146.3285   68.9277  219.2763 H   0  0  0  0  0  0  0  0  0  0  0  0
  146.1401   72.9431  221.0906 H   0  0  0  0  0  0  0  0  0  0  0  0
  144.6520   72.0474  220.6106 H   0  0  0  0  0  0  0  0  0  0  0  0
  145.0785   75.0488  220.1220 H   0  0  0  0  0  0  0  0  0  0  0  0
  144.2015   74.4227  221.5129 H   0  0  0  0  0  0  0  0  0  0  0  0
  139.0730   69.9863  222.1082 H   0  0  0  0  0  0  0  0  0  0  0  0
  139.1809   68.3223  223.9486 H   0  0  0  0  0  0  0  0  0  0  0  0
  139.7726   67.7681  226.3139 H   0  0  0  0  0  0  0  0  0  0  0  0
  141.4520   70.8380  228.8275 H   0  0  0  0  0  0  0  0  0  0  0  0
  141.3050   72.4534  226.8890 H   0  0  0  0  0  0  0  0  0  0  0  0
  1  2  2  0
  2  3  1  0
  3  4  1  0
  4  5  1  0
  5  6  2  0
  5  7  1  0
  7  8  1  0
  8  9  1  0
  9 10  1  0
 10 11  1  0
 11 12  1  0
 12 13  2  0
 12 14  1  0
 14 15  1  0
 15 16  1  0
 16 17  1  0
 17 18  1  0
 18 19  1  0
 19 20  1  0
 20 21  2  0
 21 22  1  0
 22 23  2  0
 23 24  1  0
 24 25  2  0
 18 26  1  0
 26 27  1  0
  2 28  1  0
 28 29  2  0
 29 30  1  0
 30 31  2  0
 31 32  1  0
 32 33  2  0
 33 34  1  0
 33 35  1  0
 35 36  2  0
 36 37  1  0
 37 38  2  0
 11  7  1  0
 27 15  1  0
 38 28  1  0
 25 20  1  0
 37 31  1  0
  3 39  1  0
  4 40  1  0
  4 41  1  0
  8 42  1  0
  8 43  1  0
  9 44  1  0
  9 45  1  0
 10 46  1  0
 10 47  1  0
 11 48  1  6
 14 49  1  0
 15 50  1  1
 16 51  1  0
 16 52  1  0
 17 53  1  0
 17 54  1  0
 18 55  1  1
 21 56  1  0
 22 57  1  0
 24 58  1  0
 25 59  1  0
 26 60  1  0
 26 61  1  0
 27 62  1  0
 27 63  1  0
 29 64  1  0
 30 65  1  0
 32 66  1  0
 35 67  1  0
 36 68  1  0
M  END
>  <smiles>  (4) 
O=C(NCC(=O)N1CCC[C@H]1C(=O)N[C@H]1CC[C@H](Oc2ccncc2)CC1)c1ccc2cc(F)ccc2n1

>  <score_type>  (4) 
oracle

>  <origin>  (4) 
autodockgpu

>  <m_score__min__energy>  (4) 
-9.4700000000000006

>  <m_primary>  (4) 
energy

>  <rmsd>  (4) 
4.691664215719496

>  <m_score__min__rmsd>  (4) 
4.691664215719496

>  <meeko>  (4) 
{"free_energy": -8.25, "intermolecular_energy": -10.64, "internal_energy": -3.31, "cluster_size": 2, "cluster_id": 7, "rank_in_cluster": 2}

>  <energy>  (4) 
-8.87

>  <cluster_rmsd>  (4) 
1.23

>  <cluster>  (4) 
1

$$$$

     RDKit          3D

 68 72  0  0  0  0  0  0  0  0999 V2000
  140.8800   73.3790  222.4500 O   0  0  0  0  0  0  0  0  0  0  0  0
  139.9210   72.5600  222.5960 C   0  0  0  0  0  0  0  0  0  0  0  0
  138.8030   72.5930  221.7490 N   0  0  0  0  0  0  0  0  0  0  0  0
  138.6780   73.5740  220.6350 C   0  0  0  0  0  0  0  0  0  0  0  0
  138.4220   74.9040  221.1800 C   0  0  0  0  0  0  0  0  0  0  0  0
  137.2630   75.0350  221.7550 O   0  0  0  0  0  0  0  0  0  0  0  0
  139.2060   76.0570  221.1930 N   0  0  0  0  0  0  0  0  0  0  0  0
  138.6640   77.2540  221.9570 C   0  0  0  0  0  0  0  0  0  0  0  0
  139.9290   77.8360  222.5820 C   0  0  0  0  0  0  0  0  0  0  0  0
  141.0930   76.9970  222.0230 C   0  0  0  0  0  0  0  0  0  0  0  0
  140.4280   76.5520  220.7090 C   0  0  1  0  0  0  0  0  0  0  0  0
  141.3760   75.7240  219.9980 C   0  0  0  0  0  0  0  0  0  0  0  0
  141.5360   75.5540  218.7830 O   0  0  0  0  0  0  0  0  0  0  0  0
  142.2990   74.9550  220.8360 N   0  0  0  0  0  0  0  0  0  0  0  0
  143.2820   74.1050  220.2510 C   0  0  1  0  0  0  0  0  0  0  0  0
  144.6880   74.5810  220.2880 C   0  0  0  0  0  0  0  0  0  0  0  0
  145.6720   73.4650  220.5740 C   0  0  0  0  0  0  0  0  0  0  0  0
  145.4400   72.2280  219.7490 C   0  0  2  0  0  0  0  0  0  0  0  0
  145.9380   72.3650  218.4580 O   0  0  0  0  0  0  0  0  0  0  0  0
  145.5990   73.2710  217.4990 C   0  0  0  0  0  0  0  0  0  0  0  0
  144.2370   73.5300  217.3150 C   0  0  0  0  0  0  0  0  0  0  0  0
  143.8330   74.4540  216.3420 C   0  0  0  0  0  0  0  0  0  0  0  0
  144.7330   75.0970  215.5810 N   0  0  0  0  0  0  0  0  0  0  0  0
  146.0270   74.8710  215.7350 C   0  0  0  0  0  0  0  0  0  0  0  0
  146.4710   73.9610  216.6900 C   0  0  0  0  0  0  0  0  0  0  0  0
  143.9720   71.8410  219.7820 C   0  0  0  0  0  0  0  0  0  0  0  0
  143.2260   72.6830  220.8120 C   0  0  0  0  0  0  0  0  0  0  0  0
  139.9560   71.5440  223.6670 C   0  0  0  0  0  0  0  0  0  0  0  0
  139.5080   70.2490  223.4150 C   0  0  0  0  0  0  0  0  0  0  0  0
  139.5620   69.3400  224.4540 C   0  0  0  0  0  0  0  0  0  0  0  0
  140.0370   69.6780  225.6980 C   0  0  0  0  0  0  0  0  0  0  0  0
  140.1110   68.8180  226.7670 C   0  0  0  0  0  0  0  0  0  0  0  0
  140.6010   69.2570  227.9780 C   0  0  0  0  0  0  0  0  0  0  0  0
  140.6790   68.4140  229.0370 F   0  0  0  0  0  0  0  0  0  0  0  0
  141.0350   70.5450  228.1880 C   0  0  0  0  0  0  0  0  0  0  0  0
  140.9620   71.4260  227.1050 C   0  0  0  0  0  0  0  0  0  0  0  0
  140.4690   70.9730  225.9000 C   0  0  0  0  0  0  0  0  0  0  0  0
  140.4190   71.8620  224.8920 N   0  0  0  0  0  0  0  0  0  0  0  0
  138.0270   71.9030  221.9030 H   0  0  0  0  0  0  0  0  0  0  0  0
  139.6123   73.5898  220.0546 H   0  0  0  0  0  0  0  0  0  0  0  0
  137.8434   73.2802  219.9815 H   0  0  0  0  0  0  0  0  0  0  0  0
  138.1850   77.9762  221.2795 H   0  0  0  0  0  0  0  0  0  0  0  0
  137.8872   76.9947  222.6914 H   0  0  0  0  0  0  0  0  0  0  0  0
  140.0463   78.8922  222.2980 H   0  0  0  0  0  0  0  0  0  0  0  0
  139.8930   77.7997  223.6808 H   0  0  0  0  0  0  0  0  0  0  0  0
  141.9956   77.6012  221.8489 H   0  0  0  0  0  0  0  0  0  0  0  0
  141.4615   76.1903  222.6738 H   0  0  0  0  0  0  0  0  0  0  0  0
  140.1822   77.2691  219.9119 H   0  0  0  0  0  0  0  0  0  0  0  0
  142.2550   75.0220  221.8740 H   0  0  0  0  0  0  0  0  0  0  0  0
  142.9904   74.1217  219.1905 H   0  0  0  0  0  0  0  0  0  0  0  0
  144.7814   75.3438  221.0751 H   0  0  0  0  0  0  0  0  0  0  0  0
  144.9277   74.9913  219.2960 H   0  0  0  0  0  0  0  0  0  0  0  0
  145.5903   73.1939  221.6369 H   0  0  0  0  0  0  0  0  0  0  0  0
  146.6715   73.8428  220.3129 H   0  0  0  0  0  0  0  0  0  0  0  0
  146.0067   71.3979  220.1960 H   0  0  0  0  0  0  0  0  0  0  0  0
  143.4872   73.0114  217.9305 H   0  0  0  0  0  0  0  0  0  0  0  0
  142.7611   74.6558  216.1994 H   0  0  0  0  0  0  0  0  0  0  0  0
  146.7550   75.4042  215.1060 H   0  0  0  0  0  0  0  0  0  0  0  0
  147.5517   73.7886  216.8009 H   0  0  0  0  0  0  0  0  0  0  0  0
  143.8829   70.7777  220.0492 H   0  0  0  0  0  0  0  0  0  0  0  0
  143.5328   72.0179  218.7891 H   0  0  0  0  0  0  0  0  0  0  0  0
  143.7234   72.6309  221.7917 H   0  0  0  0  0  0  0  0  0  0  0  0
  142.1948   72.3348  220.9716 H   0  0  0  0  0  0  0  0  0  0  0  0
  139.1252   69.9608  222.4248 H   0  0  0  0  0  0  0  0  0  0  0  0
  139.2131   68.3115  224.2794 H   0  0  0  0  0  0  0  0  0  0  0  0
  139.7780   67.7755  226.6559 H   0  0  0  0  0  0  0  0  0  0  0  0
  141.4227   70.8679  229.1655 H   0  0  0  0  0  0  0  0  0  0  0  0
  141.2943   72.4690  227.2132 H   0  0  0  0  0  0  0  0  0  0  0  0
  1  2  2  0
  2  3  1  0
  3  4  1  0
  4  5  1  0
  5  6  2  0
  5  7  1  0
  7  8  1  0
  8  9  1  0
  9 10  1  0
 10 11  1  0
 11 12  1  0
 12 13  2  0
 12 14  1  0
 14 15  1  0
 15 16  1  0
 16 17  1  0
 17 18  1  0
 18 19  1  0
 19 20  1  0
 20 21  2  0
 21 22  1  0
 22 23  2  0
 23 24  1  0
 24 25  2  0
 18 26  1  0
 26 27  1  0
  2 28  1  0
 28 29  2  0
 29 30  1  0
 30 31  2  0
 31 32  1  0
 32 33  2  0
 33 34  1  0
 33 35  1  0
 35 36  2  0
 36 37  1  0
 37 38  2  0
 11  7  1  0
 27 15  1  0
 38 28  1  0
 25 20  1  0
 37 31  1  0
  3 39  1  0
  4 40  1  0
  4 41  1  0
  8 42  1  0
  8 43  1  0
  9 44  1  0
  9 45  1  0
 10 46  1  0
 10 47  1  0
 11 48  1  6
 14 49  1  0
 15 50  1  6
 16 51  1  0
 16 52  1  0
 17 53  1  0
 17 54  1  0
 18 55  1  1
 21 56  1  0
 22 57  1  0
 24 58  1  0
 25 59  1  0
 26 60  1  0
 26 61  1  0
 27 62  1  0
 27 63  1  0
 29 64  1  0
 30 65  1  0
 32 66  1  0
 35 67  1  0
 36 68  1  0
M  END
>  <smiles>  (5) 
O=C(NCC(=O)N1CCC[C@H]1C(=O)N[C@H]1CC[C@H](Oc2ccncc2)CC1)c1ccc2cc(F)ccc2n1

>  <score_type>  (5) 
oracle

>  <origin>  (5) 
autodockgpu

>  <m_score__min__energy>  (5) 
-9.4700000000000006

>  <m_primary>  (5) 
energy

>  <rmsd>  (5) 
4.807978899546977

>  <m_score__min__rmsd>  (5) 
4.807978899546977

>  <meeko>  (5) 
{"free_energy": -9.09, "intermolecular_energy": -11.48, "internal_energy": -3.01, "cluster_size": 4, "cluster_id": 3, "rank_in_cluster": 2}

>  <energy>  (5) 
-8.85

>  <cluster_rmsd>  (5) 
1.75

>  <cluster>  (5) 
1

$$$$

     RDKit          3D

 68 72  0  0  0  0  0  0  0  0999 V2000
  137.8820   70.6920  222.0170 O   0  0  0  0  0  0  0  0  0  0  0  0
  138.7550   71.0740  222.8570 C   0  0  0  0  0  0  0  0  0  0  0  0
  139.3970   72.3140  222.7220 N   0  0  0  0  0  0  0  0  0  0  0  0
  139.0930   73.2500  221.6040 C   0  0  0  0  0  0  0  0  0  0  0  0
  140.0800   74.3250  221.5830 C   0  0  0  0  0  0  0  0  0  0  0  0
  139.8430   75.2890  222.4230 O   0  0  0  0  0  0  0  0  0  0  0  0
  141.2350   74.4960  220.8190 N   0  0  0  0  0  0  0  0  0  0  0  0
  141.9130   73.2380  220.2990 C   0  0  0  0  0  0  0  0  0  0  0  0
  142.3780   73.6740  218.9130 C   0  0  0  0  0  0  0  0  0  0  0  0
  142.0360   75.1720  218.8110 C   0  0  0  0  0  0  0  0  0  0  0  0
  142.0700   75.5050  220.3120 C   0  0  1  0  0  0  0  0  0  0  0  0
  141.7650   76.9110  220.4550 C   0  0  0  0  0  0  0  0  0  0  0  0
  141.7240   77.8110  219.6060 O   0  0  0  0  0  0  0  0  0  0  0  0
  141.4560   77.3580  221.8150 N   0  0  0  0  0  0  0  0  0  0  0  0
  141.1360   78.7210  222.0820 C   0  0  1  0  0  0  0  0  0  0  0  0
  139.7030   79.0420  222.3040 C   0  0  0  0  0  0  0  0  0  0  0  0
  139.5000   80.0610  223.4050 C   0  0  0  0  0  0  0  0  0  0  0  0
  140.4110   81.2540  223.3030 C   0  0  2  0  0  0  0  0  0  0  0  0
  139.9680   82.1650  222.3490 O   0  0  0  0  0  0  0  0  0  0  0  0
  140.4500   82.4000  221.0980 C   0  0  0  0  0  0  0  0  0  0  0  0
  140.4640   83.7270  220.6550 C   0  0  0  0  0  0  0  0  0  0  0  0
  140.9500   84.0250  219.3750 C   0  0  0  0  0  0  0  0  0  0  0  0
  141.4040   83.0570  218.5640 N   0  0  0  0  0  0  0  0  0  0  0  0
  141.4030   81.7950  218.9570 C   0  0  0  0  0  0  0  0  0  0  0  0
  140.9290   81.4540  220.2210 C   0  0  0  0  0  0  0  0  0  0  0  0
  141.8440   80.8030  223.0730 C   0  0  0  0  0  0  0  0  0  0  0  0
  141.9560   79.2920  223.2410 C   0  0  0  0  0  0  0  0  0  0  0  0
  139.1200   70.2190  224.0050 C   0  0  0  0  0  0  0  0  0  0  0  0
  138.8340   68.8570  223.9780 C   0  0  0  0  0  0  0  0  0  0  0  0
  139.1960   68.1060  225.0790 C   0  0  0  0  0  0  0  0  0  0  0  0
  139.8160   68.6610  226.1720 C   0  0  0  0  0  0  0  0  0  0  0  0
  140.1950   67.9650  227.2940 C   0  0  0  0  0  0  0  0  0  0  0  0
  140.8090   68.6170  228.3410 C   0  0  0  0  0  0  0  0  0  0  0  0
  141.1880   67.9370  229.4510 F   0  0  0  0  0  0  0  0  0  0  0  0
  141.0750   69.9670  228.3310 C   0  0  0  0  0  0  0  0  0  0  0  0
  140.6920   70.6820  227.1920 C   0  0  0  0  0  0  0  0  0  0  0  0
  140.0770   70.0160  226.1520 C   0  0  0  0  0  0  0  0  0  0  0  0
  139.7280   70.7520  225.0830 N   0  0  0  0  0  0  0  0  0  0  0  0
  140.1180   72.5940  223.4330 H   0  0  0  0  0  0  0  0  0  0  0  0
  139.1265   72.7037  220.6499 H   0  0  0  0  0  0  0  0  0  0  0  0
  138.0900   73.6779  221.7485 H   0  0  0  0  0  0  0  0  0  0  0  0
  142.7644   72.9519  220.9340 H   0  0  0  0  0  0  0  0  0  0  0  0
  141.2575   72.3547  220.2879 H   0  0  0  0  0  0  0  0  0  0  0  0
  143.4619   73.5199  218.8060 H   0  0  0  0  0  0  0  0  0  0  0  0
  141.8892   73.0909  218.1186 H   0  0  0  0  0  0  0  0  0  0  0  0
  142.7920   75.7338  218.2428 H   0  0  0  0  0  0  0  0  0  0  0  0
  141.1023   75.4181  218.2841 H   0  0  0  0  0  0  0  0  0  0  0  0
  143.0027   75.4627  220.8936 H   0  0  0  0  0  0  0  0  0  0  0  0
  141.4600   76.6830  222.6090 H   0  0  0  0  0  0  0  0  0  0  0  0
  141.4060   79.2055  221.1321 H   0  0  0  0  0  0  0  0  0  0  0  0
  139.1728   78.1177  222.5769 H   0  0  0  0  0  0  0  0  0  0  0  0
  139.3096   79.4744  221.3722 H   0  0  0  0  0  0  0  0  0  0  0  0
  139.6809   79.5680  224.3716 H   0  0  0  0  0  0  0  0  0  0  0  0
  138.4700   80.4351  223.3097 H   0  0  0  0  0  0  0  0  0  0  0  0
  140.3873   81.7954  224.2602 H   0  0  0  0  0  0  0  0  0  0  0  0
  140.0955   84.5319  221.3079 H   0  0  0  0  0  0  0  0  0  0  0  0
  140.9595   85.0692  219.0294 H   0  0  0  0  0  0  0  0  0  0  0  0
  141.7781   81.0110  218.2828 H   0  0  0  0  0  0  0  0  0  0  0  0
  140.9377   80.3976  220.5274 H   0  0  0  0  0  0  0  0  0  0  0  0
  142.5020   81.2990  223.8017 H   0  0  0  0  0  0  0  0  0  0  0  0
  142.1444   81.0727  222.0497 H   0  0  0  0  0  0  0  0  0  0  0  0
  141.5374   78.9753  224.2077 H   0  0  0  0  0  0  0  0  0  0  0  0
  142.9994   78.9440  223.2292 H   0  0  0  0  0  0  0  0  0  0  0  0
  138.3378   68.3957  223.1114 H   0  0  0  0  0  0  0  0  0  0  0  0
  138.9807   67.0273  225.0808 H   0  0  0  0  0  0  0  0  0  0  0  0
  140.0076   66.8829  227.3568 H   0  0  0  0  0  0  0  0  0  0  0  0
  141.5671   70.4618  229.1813 H   0  0  0  0  0  0  0  0  0  0  0  0
  140.8791   71.7640  227.1259 H   0  0  0  0  0  0  0  0  0  0  0  0
  1  2  2  0
  2  3  1  0
  3  4  1  0
  4  5  1  0
  5  6  2  0
  5  7  1  0
  7  8  1  0
  8  9  1  0
  9 10  1  0
 10 11  1  0
 11 12  1  0
 12 13  2  0
 12 14  1  0
 14 15  1  0
 15 16  1  0
 16 17  1  0
 17 18  1  0
 18 19  1  0
 19 20  1  0
 20 21  2  0
 21 22  1  0
 22 23  2  0
 23 24  1  0
 24 25  2  0
 18 26  1  0
 26 27  1  0
  2 28  1  0
 28 29  2  0
 29 30  1  0
 30 31  2  0
 31 32  1  0
 32 33  2  0
 33 34  1  0
 33 35  1  0
 35 36  2  0
 36 37  1  0
 37 38  2  0
 11  7  1  0
 27 15  1  0
 38 28  1  0
 25 20  1  0
 37 31  1  0
  3 39  1  0
  4 40  1  0
  4 41  1  0
  8 42  1  0
  8 43  1  0
  9 44  1  0
  9 45  1  0
 10 46  1  0
 10 47  1  0
 11 48  1  1
 14 49  1  0
 15 50  1  6
 16 51  1  0
 16 52  1  0
 17 53  1  0
 17 54  1  0
 18 55  1  1
 21 56  1  0
 22 57  1  0
 24 58  1  0
 25 59  1  0
 26 60  1  0
 26 61  1  0
 27 62  1  0
 27 63  1  0
 29 64  1  0
 30 65  1  0
 32 66  1  0
 35 67  1  0
 36 68  1  0
M  END
>  <smiles>  (6) 
O=C(NCC(=O)N1CCC[C@H]1C(=O)N[C@H]1CC[C@H](Oc2ccncc2)CC1)c1ccc2cc(F)ccc2n1

>  <score_type>  (6) 
oracle

>  <origin>  (6) 
autodockgpu

>  <m_score__min__energy>  (6) 
-9.4700000000000006

>  <m_primary>  (6) 
energy

>  <rmsd>  (6) 
2.3889759416243836

>  <m_score__min__rmsd>  (6) 
2.3889759416243836

>  <meeko>  (6) 
{"free_energy": -8.82, "intermolecular_energy": -11.21, "internal_energy": -2.88, "cluster_size": 5, "cluster_id": 2, "rank_in_cluster": 2}

>  <energy>  (6) 
-8.41

>  <cluster_rmsd>  (6) 
1.37

>  <cluster>  (6) 
1

$$$$

     RDKit          3D

 68 72  0  0  0  0  0  0  0  0999 V2000
  136.9410   71.7700  222.8190 O   0  0  0  0  0  0  0  0  0  0  0  0
  138.1790   71.5320  222.9770 C   0  0  0  0  0  0  0  0  0  0  0  0
  139.1410   72.1040  222.1310 N   0  0  0  0  0  0  0  0  0  0  0  0
  138.7750   73.0170  221.0130 C   0  0  0  0  0  0  0  0  0  0  0  0
  137.8520   74.0390  221.4990 C   0  0  0  0  0  0  0  0  0  0  0  0
  136.5950   73.7240  221.3900 O   0  0  0  0  0  0  0  0  0  0  0  0
  138.0860   75.2940  222.0610 N   0  0  0  0  0  0  0  0  0  0  0  0
  139.3100   76.0540  221.5740 C   0  0  0  0  0  0  0  0  0  0  0  0
  138.8040   77.4920  221.5440 C   0  0  0  0  0  0  0  0  0  0  0  0
  137.3810   77.4460  222.1300 C   0  0  0  0  0  0  0  0  0  0  0  0
  137.5460   76.1880  223.0000 C   0  0  1  0  0  0  0  0  0  0  0  0
  136.2860   75.9490  223.6660 C   0  0  0  0  0  0  0  0  0  0  0  0
  135.4410   76.7470  224.0910 O   0  0  0  0  0  0  0  0  0  0  0  0
  135.9400   74.5420  223.8820 N   0  0  0  0  0  0  0  0  0  0  0  0
  134.7210   74.1790  224.5250 C   0  0  1  0  0  0  0  0  0  0  0  0
  134.5280   74.6620  225.9160 C   0  0  0  0  0  0  0  0  0  0  0  0
  133.1040   75.1030  226.1850 C   0  0  0  0  0  0  0  0  0  0  0  0
  132.0660   74.1290  225.6990 C   0  0  2  0  0  0  0  0  0  0  0  0
  131.9190   73.0520  226.5680 O   0  0  0  0  0  0  0  0  0  0  0  0
  132.5760   71.8600  226.5760 C   0  0  0  0  0  0  0  0  0  0  0  0
  132.0390   70.8270  225.8000 C   0  0  0  0  0  0  0  0  0  0  0  0
  132.6750   69.5790  225.7720 C   0  0  0  0  0  0  0  0  0  0  0  0
  133.7950   69.3560  226.4770 N   0  0  0  0  0  0  0  0  0  0  0  0
  134.3250   70.3150  227.2180 C   0  0  0  0  0  0  0  0  0  0  0  0
  133.7240   71.5700  227.2750 C   0  0  0  0  0  0  0  0  0  0  0  0
  132.3690   73.7040  224.2730 C   0  0  0  0  0  0  0  0  0  0  0  0
  133.4930   74.5570  223.6950 C   0  0  0  0  0  0  0  0  0  0  0  0
  138.6420   70.6450  224.0630 C   0  0  0  0  0  0  0  0  0  0  0  0
  138.2580   69.3070  224.0820 C   0  0  0  0  0  0  0  0  0  0  0  0
  138.7200   68.5240  225.1220 C   0  0  0  0  0  0  0  0  0  0  0  0
  139.5280   69.0250  226.1120 C   0  0  0  0  0  0  0  0  0  0  0  0
  140.0140   68.2950  227.1710 C   0  0  0  0  0  0  0  0  0  0  0  0
  140.8170   68.8940  228.1160 C   0  0  0  0  0  0  0  0  0  0  0  0
  141.3010   68.1800  229.1620 F   0  0  0  0  0  0  0  0  0  0  0  0
  141.1750   70.2210  228.0640 C   0  0  0  0  0  0  0  0  0  0  0  0
  140.6850   70.9700  226.9900 C   0  0  0  0  0  0  0  0  0  0  0  0
  139.8810   70.3580  226.0520 C   0  0  0  0  0  0  0  0  0  0  0  0
  139.4360   71.1250  225.0410 N   0  0  0  0  0  0  0  0  0  0  0  0
  140.1540   71.8800  222.2890 H   0  0  0  0  0  0  0  0  0  0  0  0
  139.6829   73.4995  220.6219 H   0  0  0  0  0  0  0  0  0  0  0  0
  138.2917   72.4388  220.2117 H   0  0  0  0  0  0  0  0  0  0  0  0
  140.1529   75.9421  222.2718 H   0  0  0  0  0  0  0  0  0  0  0  0
  139.6936   75.7001  220.6057 H   0  0  0  0  0  0  0  0  0  0  0  0
  139.4500   78.1386  222.1561 H   0  0  0  0  0  0  0  0  0  0  0  0
  138.8095   77.9028  220.5236 H   0  0  0  0  0  0  0  0  0  0  0  0
  137.1483   78.3388  222.7290 H   0  0  0  0  0  0  0  0  0  0  0  0
  136.5593   77.4221  221.3991 H   0  0  0  0  0  0  0  0  0  0  0  0
  138.2165   76.1702  223.8718 H   0  0  0  0  0  0  0  0  0  0  0  0
  136.5790   73.7840  223.5640 H   0  0  0  0  0  0  0  0  0  0  0  0
  134.8233   73.0864  224.6004 H   0  0  0  0  0  0  0  0  0  0  0  0
  135.2002   75.5152  226.0895 H   0  0  0  0  0  0  0  0  0  0  0  0
  134.7525   73.8256  226.5942 H   0  0  0  0  0  0  0  0  0  0  0  0
  132.9382   76.0668  225.6815 H   0  0  0  0  0  0  0  0  0  0  0  0
  132.9910   75.1742  227.2769 H   0  0  0  0  0  0  0  0  0  0  0  0
  131.0893   74.6350  225.6884 H   0  0  0  0  0  0  0  0  0  0  0  0
  131.1225   70.9938  225.2151 H   0  0  0  0  0  0  0  0  0  0  0  0
  132.2494   68.7685  225.1621 H   0  0  0  0  0  0  0  0  0  0  0  0
  135.2435   70.1206  227.7911 H   0  0  0  0  0  0  0  0  0  0  0  0
  134.1814   72.3528  227.8979 H   0  0  0  0  0  0  0  0  0  0  0  0
  131.4658   73.8281  223.6575 H   0  0  0  0  0  0  0  0  0  0  0  0
  132.6829   72.6497  224.2725 H   0  0  0  0  0  0  0  0  0  0  0  0
  133.2644   75.6276  223.8030 H   0  0  0  0  0  0  0  0  0  0  0  0
  133.6429   74.3812  222.6195 H   0  0  0  0  0  0  0  0  0  0  0  0
  137.6103   68.8886  223.2975 H   0  0  0  0  0  0  0  0  0  0  0  0
  138.4306   67.4634  225.1580 H   0  0  0  0  0  0  0  0  0  0  0  0
  139.7605   67.2286  227.2638 H   0  0  0  0  0  0  0  0  0  0  0  0
  141.8183   70.6729  228.8333 H   0  0  0  0  0  0  0  0  0  0  0  0
  140.9382   72.0362  226.8944 H   0  0  0  0  0  0  0  0  0  0  0  0
  1  2  2  0
  2  3  1  0
  3  4  1  0
  4  5  1  0
  5  6  2  0
  5  7  1  0
  7  8  1  0
  8  9  1  0
  9 10  1  0
 10 11  1  0
 11 12  1  0
 12 13  2  0
 12 14  1  0
 14 15  1  0
 15 16  1  0
 16 17  1  0
 17 18  1  0
 18 19  1  0
 19 20  1  0
 20 21  2  0
 21 22  1  0
 22 23  2  0
 23 24  1  0
 24 25  2  0
 18 26  1  0
 26 27  1  0
  2 28  1  0
 28 29  2  0
 29 30  1  0
 30 31  2  0
 31 32  1  0
 32 33  2  0
 33 34  1  0
 33 35  1  0
 35 36  2  0
 36 37  1  0
 37 38  2  0
 11  7  1  0
 27 15  1  0
 38 28  1  0
 25 20  1  0
 37 31  1  0
  3 39  1  0
  4 40  1  0
  4 41  1  0
  8 42  1  0
  8 43  1  0
  9 44  1  0
  9 45  1  0
 10 46  1  0
 10 47  1  0
 11 48  1  1
 14 49  1  0
 15 50  1  1
 16 51  1  0
 16 52  1  0
 17 53  1  0
 17 54  1  0
 18 55  1  6
 21 56  1  0
 22 57  1  0
 24 58  1  0
 25 59  1  0
 26 60  1  0
 26 61  1  0
 27 62  1  0
 27 63  1  0
 29 64  1  0
 30 65  1  0
 32 66  1  0
 35 67  1  0
 36 68  1  0
M  END
>  <smiles>  (7) 
O=C(NCC(=O)N1CCC[C@H]1C(=O)N[C@H]1CC[C@H](Oc2ccncc2)CC1)c1ccc2cc(F)ccc2n1

>  <score_type>  (7) 
oracle

>  <origin>  (7) 
autodockgpu

>  <m_score__min__energy>  (7) 
-9.4700000000000006

>  <m_primary>  (7) 
energy

>  <rmsd>  (7) 
5.901219918505346

>  <m_score__min__rmsd>  (7) 
5.901219918505346

>  <meeko>  (7) 
{"free_energy": -7.75, "intermolecular_energy": -10.14, "internal_energy": -3.59, "cluster_size": 2, "cluster_id": 10, "rank_in_cluster": 1}

>  <energy>  (7) 
-8.27

>  <cluster_rmsd>  (7) 
1.44

>  <cluster>  (7) 
1

$$$$

     RDKit          3D

 68 72  0  0  0  0  0  0  0  0999 V2000
  139.5090   70.7920  220.7460 O   0  0  0  0  0  0  0  0  0  0  0  0
  139.8750   71.3500  221.8260 C   0  0  0  0  0  0  0  0  0  0  0  0
  140.3920   72.6540  221.8300 N   0  0  0  0  0  0  0  0  0  0  0  0
  140.5350   73.4570  220.5840 C   0  0  0  0  0  0  0  0  0  0  0  0
  141.4330   74.5820  220.8260 C   0  0  0  0  0  0  0  0  0  0  0  0
  141.3110   75.1240  222.0010 O   0  0  0  0  0  0  0  0  0  0  0  0
  142.4020   75.1730  220.0150 N   0  0  0  0  0  0  0  0  0  0  0  0
  143.3400   74.2400  219.2650 C   0  0  0  0  0  0  0  0  0  0  0  0
  143.5090   74.9600  217.9310 C   0  0  0  0  0  0  0  0  0  0  0  0
  142.7550   76.2940  218.0790 C   0  0  0  0  0  0  0  0  0  0  0  0
  142.8620   76.4360  219.6070 C   0  0  1  0  0  0  0  0  0  0  0  0
  142.1980   77.6630  219.9800 C   0  0  0  0  0  0  0  0  0  0  0  0
  141.8940   78.6490  219.2950 O   0  0  0  0  0  0  0  0  0  0  0  0
  141.8190   77.7760  221.3900 N   0  0  0  0  0  0  0  0  0  0  0  0
  141.1550   78.9390  221.8780 C   0  0  1  0  0  0  0  0  0  0  0  0
  139.6730   78.8800  221.9560 C   0  0  0  0  0  0  0  0  0  0  0  0
  139.1300   79.5520  223.2010 C   0  0  0  0  0  0  0  0  0  0  0  0
  139.7290   80.9060  223.4690 C   0  0  2  0  0  0  0  0  0  0  0  0
  139.1650   81.8910  222.6660 O   0  0  0  0  0  0  0  0  0  0  0  0
  139.7110   82.5550  221.6100 C   0  0  0  0  0  0  0  0  0  0  0  0
  139.5680   83.9460  221.5840 C   0  0  0  0  0  0  0  0  0  0  0  0
  140.1110   84.6780  220.5210 C   0  0  0  0  0  0  0  0  0  0  0  0
  140.7690   84.0670  219.5230 N   0  0  0  0  0  0  0  0  0  0  0  0
  140.9190   82.7530  219.5230 C   0  0  0  0  0  0  0  0  0  0  0  0
  140.3950   81.9870  220.5610 C   0  0  0  0  0  0  0  0  0  0  0  0
  141.2430   80.8430  223.3570 C   0  0  0  0  0  0  0  0  0  0  0  0
  141.7040   79.3950  223.2310 C   0  0  0  0  0  0  0  0  0  0  0  0
  139.7650   70.6380  223.1150 C   0  0  0  0  0  0  0  0  0  0  0  0
  139.1300   69.4000  223.1760 C   0  0  0  0  0  0  0  0  0  0  0  0
  139.0550   68.7800  224.4080 C   0  0  0  0  0  0  0  0  0  0  0  0
  139.5800   69.3440  225.5450 C   0  0  0  0  0  0  0  0  0  0  0  0
  139.5320   68.7760  226.7950 C   0  0  0  0  0  0  0  0  0  0  0  0
  140.0860   69.4270  227.8750 C   0  0  0  0  0  0  0  0  0  0  0  0
  140.0440   68.8720  229.1110 F   0  0  0  0  0  0  0  0  0  0  0  0
  140.7060   70.6510  227.7750 C   0  0  0  0  0  0  0  0  0  0  0  0
  140.7590   71.2360  226.5070 C   0  0  0  0  0  0  0  0  0  0  0  0
  140.1990   70.5730  225.4350 C   0  0  0  0  0  0  0  0  0  0  0  0
  140.2760   71.1810  224.2380 N   0  0  0  0  0  0  0  0  0  0  0  0
  140.6890   73.0810  222.7420 H   0  0  0  0  0  0  0  0  0  0  0  0
  140.9490   72.8234  219.7858 H   0  0  0  0  0  0  0  0  0  0  0  0
  139.5486   73.8364  220.2791 H   0  0  0  0  0  0  0  0  0  0  0  0
  144.3024   74.1369  219.7876 H   0  0  0  0  0  0  0  0  0  0  0  0
  142.9580   73.2130  219.1680 H   0  0  0  0  0  0  0  0  0  0  0  0
  144.5742   75.1423  217.7258 H   0  0  0  0  0  0  0  0  0  0  0  0
  143.1168   74.3626  217.0947 H   0  0  0  0  0  0  0  0  0  0  0  0
  143.2568   77.1167  217.5485 H   0  0  0  0  0  0  0  0  0  0  0  0
  141.7370   76.3204  217.6631 H   0  0  0  0  0  0  0  0  0  0  0  0
  143.8280   76.5959  220.1082 H   0  0  0  0  0  0  0  0  0  0  0  0
  142.0260   77.0040  222.0580 H   0  0  0  0  0  0  0  0  0  0  0  0
  141.3835   79.6750  221.0931 H   0  0  0  0  0  0  0  0  0  0  0  0
  139.3617   77.8250  221.9604 H   0  0  0  0  0  0  0  0  0  0  0  0
  139.2709   79.4168  221.0841 H   0  0  0  0  0  0  0  0  0  0  0  0
  139.3384   78.9032  224.0645 H   0  0  0  0  0  0  0  0  0  0  0  0
  138.0525   79.7039  223.0398 H   0  0  0  0  0  0  0  0  0  0  0  0
  139.4889   81.1962  224.5025 H   0  0  0  0  0  0  0  0  0  0  0  0
  139.0319   84.4621  222.3941 H   0  0  0  0  0  0  0  0  0  0  0  0
  139.9965   85.7719  220.5034 H   0  0  0  0  0  0  0  0  0  0  0  0
  141.4598   82.2633  218.6998 H   0  0  0  0  0  0  0  0  0  0  0  0
  140.5322   80.8958  220.5413 H   0  0  0  0  0  0  0  0  0  0  0  0
  141.6924   81.2901  224.2560 H   0  0  0  0  0  0  0  0  0  0  0  0
  141.5592   81.3986  222.4618 H   0  0  0  0  0  0  0  0  0  0  0  0
  141.2905   78.7823  224.0456 H   0  0  0  0  0  0  0  0  0  0  0  0
  142.7976   79.2953  223.2956 H   0  0  0  0  0  0  0  0  0  0  0  0
  138.7038   68.9330  222.2759 H   0  0  0  0  0  0  0  0  0  0  0  0
  138.5580   67.8014  224.4810 H   0  0  0  0  0  0  0  0  0  0  0  0
  139.0492   67.7974  226.9339 H   0  0  0  0  0  0  0  0  0  0  0  0
  141.1411   71.1476  228.6548 H   0  0  0  0  0  0  0  0  0  0  0  0
  141.2419   72.2142  226.3655 H   0  0  0  0  0  0  0  0  0  0  0  0
  1  2  2  0
  2  3  1  0
  3  4  1  0
  4  5  1  0
  5  6  2  0
  5  7  1  0
  7  8  1  0
  8  9  1  0
  9 10  1  0
 10 11  1  0
 11 12  1  0
 12 13  2  0
 12 14  1  0
 14 15  1  0
 15 16  1  0
 16 17  1  0
 17 18  1  0
 18 19  1  0
 19 20  1  0
 20 21  2  0
 21 22  1  0
 22 23  2  0
 23 24  1  0
 24 25  2  0
 18 26  1  0
 26 27  1  0
  2 28  1  0
 28 29  2  0
 29 30  1  0
 30 31  2  0
 31 32  1  0
 32 33  2  0
 33 34  1  0
 33 35  1  0
 35 36  2  0
 36 37  1  0
 37 38  2  0
 11  7  1  0
 27 15  1  0
 38 28  1  0
 25 20  1  0
 37 31  1  0
  3 39  1  0
  4 40  1  0
  4 41  1  0
  8 42  1  0
  8 43  1  0
  9 44  1  0
  9 45  1  0
 10 46  1  0
 10 47  1  0
 11 48  1  6
 14 49  1  0
 15 50  1  6
 16 51  1  0
 16 52  1  0
 17 53  1  0
 17 54  1  0
 18 55  1  1
 21 56  1  0
 22 57  1  0
 24 58  1  0
 25 59  1  0
 26 60  1  0
 26 61  1  0
 27 62  1  0
 27 63  1  0
 29 64  1  0
 30 65  1  0
 32 66  1  0
 35 67  1  0
 36 68  1  0
M  END
>  <smiles>  (8) 
O=C(NCC(=O)N1CCC[C@H]1C(=O)N[C@H]1CC[C@H](Oc2ccncc2)CC1)c1ccc2cc(F)ccc2n1

>  <score_type>  (8) 
oracle

>  <origin>  (8) 
autodockgpu

>  <m_score__min__energy>  (8) 
-9.4700000000000006

>  <m_primary>  (8) 
energy

>  <rmsd>  (8) 
2.5758629948517426

>  <m_score__min__rmsd>  (8) 
2.5758629948517426

>  <meeko>  (8) 
{"free_energy": -8.48, "intermolecular_energy": -10.86, "internal_energy": -3.46, "cluster_size": 5, "cluster_id": 2, "rank_in_cluster": 5}

>  <energy>  (8) 
-9.29

>  <cluster_rmsd>  (8) 
0.0

>  <cluster>  (8) 
2

$$$$

     RDKit          3D

 68 72  0  0  0  0  0  0  0  0999 V2000
  138.1460   70.2460  221.7340 O   0  0  0  0  0  0  0  0  0  0  0  0
  138.7430   70.8120  222.7020 C   0  0  0  0  0  0  0  0  0  0  0  0
  139.0420   72.1820  222.6670 N   0  0  0  0  0  0  0  0  0  0  0  0
  138.6770   73.0470  221.5110 C   0  0  0  0  0  0  0  0  0  0  0  0
  138.4810   74.4200  221.9690 C   0  0  0  0  0  0  0  0  0  0  0  0
  139.5590   74.9970  222.4130 O   0  0  0  0  0  0  0  0  0  0  0  0
  137.3400   75.2200  222.0110 N   0  0  0  0  0  0  0  0  0  0  0  0
  136.0220   74.5290  222.3250 C   0  0  0  0  0  0  0  0  0  0  0  0
  135.3160   75.5650  223.1940 C   0  0  0  0  0  0  0  0  0  0  0  0
  136.2350   76.8000  223.2000 C   0  0  0  0  0  0  0  0  0  0  0  0
  136.9350   76.5560  221.8520 C   0  0  1  0  0  0  0  0  0  0  0  0
  137.8760   77.6330  221.6460 C   0  0  0  0  0  0  0  0  0  0  0  0
  137.8660   78.5580  220.8240 O   0  0  0  0  0  0  0  0  0  0  0  0
  139.0330   77.6460  222.5450 N   0  0  0  0  0  0  0  0  0  0  0  0
  140.0280   78.6610  222.4430 C   0  0  1  0  0  0  0  0  0  0  0  0
  140.2170   79.5350  223.6280 C   0  0  0  0  0  0  0  0  0  0  0  0
  141.6750   79.8550  223.8860 C   0  0  0  0  0  0  0  0  0  0  0  0
  142.4300   80.2770  222.6550 C   0  0  2  0  0  0  0  0  0  0  0  0
  142.1770   81.6040  222.3220 O   0  0  0  0  0  0  0  0  0  0  0  0
  141.2570   82.1100  221.4540 C   0  0  0  0  0  0  0  0  0  0  0  0
  139.9840   82.3920  221.9620 C   0  0  0  0  0  0  0  0  0  0  0  0
  139.0000   82.9130  221.1130 C   0  0  0  0  0  0  0  0  0  0  0  0
  139.2570   83.1490  219.8170 N   0  0  0  0  0  0  0  0  0  0  0  0
  140.4510   82.8930  219.3110 C   0  0  0  0  0  0  0  0  0  0  0  0
  141.4590   82.3730  220.1200 C   0  0  0  0  0  0  0  0  0  0  0  0
  142.1560   79.3140  221.5130 C   0  0  0  0  0  0  0  0  0  0  0  0
  141.3860   78.0990  222.0190 C   0  0  0  0  0  0  0  0  0  0  0  0
  139.1380   70.0400  223.8970 C   0  0  0  0  0  0  0  0  0  0  0  0
  138.9030   68.6680  223.9510 C   0  0  0  0  0  0  0  0  0  0  0  0
  139.2920   67.9970  225.0930 C   0  0  0  0  0  0  0  0  0  0  0  0
  139.8900   68.6380  226.1500 C   0  0  0  0  0  0  0  0  0  0  0  0
  140.2950   68.0230  227.3110 C   0  0  0  0  0  0  0  0  0  0  0  0
  140.8840   68.7580  228.3160 C   0  0  0  0  0  0  0  0  0  0  0  0
  141.2870   68.1580  229.4640 F   0  0  0  0  0  0  0  0  0  0  0  0
  141.1000   70.1130  228.2270 C   0  0  0  0  0  0  0  0  0  0  0  0
  140.6910   70.7450  227.0490 C   0  0  0  0  0  0  0  0  0  0  0  0
  140.1020   69.9980  226.0510 C   0  0  0  0  0  0  0  0  0  0  0  0
  139.7260   70.6570  224.9410 N   0  0  0  0  0  0  0  0  0  0  0  0
  139.5400   72.6150  223.4840 H   0  0  0  0  0  0  0  0  0  0  0  0
  139.4852   73.0217  220.7653 H   0  0  0  0  0  0  0  0  0  0  0  0
  137.7458   72.6768  221.0574 H   0  0  0  0  0  0  0  0  0  0  0  0
  135.4514   74.3220  221.4076 H   0  0  0  0  0  0  0  0  0  0  0  0
  136.1411   73.5501  222.8125 H   0  0  0  0  0  0  0  0  0  0  0  0
  134.3347   75.8193  222.7668 H   0  0  0  0  0  0  0  0  0  0  0  0
  135.1371   75.1872  224.2115 H   0  0  0  0  0  0  0  0  0  0  0  0
  135.6666   77.7417  223.2094 H   0  0  0  0  0  0  0  0  0  0  0  0
  136.8952   76.9050  224.0736 H   0  0  0  0  0  0  0  0  0  0  0  0
  136.3894   76.6088  220.8983 H   0  0  0  0  0  0  0  0  0  0  0  0
  139.1430   76.9140  223.2780 H   0  0  0  0  0  0  0  0  0  0  0  0
  139.6092   79.3099  221.6597 H   0  0  0  0  0  0  0  0  0  0  0  0
  139.8060   79.0249  224.5117 H   0  0  0  0  0  0  0  0  0  0  0  0
  139.6965   80.4836  223.4302 H   0  0  0  0  0  0  0  0  0  0  0  0
  142.1592   78.9581  224.2996 H   0  0  0  0  0  0  0  0  0  0  0  0
  141.6983   80.7050  224.5838 H   0  0  0  0  0  0  0  0  0  0  0  0
  143.5075   80.2281  222.8708 H   0  0  0  0  0  0  0  0  0  0  0  0
  139.7577   82.2054  223.0222 H   0  0  0  0  0  0  0  0  0  0  0  0
  137.9998   83.1325  221.5148 H   0  0  0  0  0  0  0  0  0  0  0  0
  140.6495   83.0912  218.2474 H   0  0  0  0  0  0  0  0  0  0  0  0
  142.4452   82.1669  219.6784 H   0  0  0  0  0  0  0  0  0  0  0  0
  143.1116   78.9835  221.0798 H   0  0  0  0  0  0  0  0  0  0  0  0
  141.5534   79.8270  220.7489 H   0  0  0  0  0  0  0  0  0  0  0  0
  141.9019   77.6396  222.8750 H   0  0  0  0  0  0  0  0  0  0  0  0
  141.2951   77.3118  221.2561 H   0  0  0  0  0  0  0  0  0  0  0  0
  138.4247   68.1384  223.1139 H   0  0  0  0  0  0  0  0  0  0  0  0
  139.1172   66.9130  225.1584 H   0  0  0  0  0  0  0  0  0  0  0  0
  140.1481   66.9402  227.4377 H   0  0  0  0  0  0  0  0  0  0  0  0
  141.5734   70.6745  229.0459 H   0  0  0  0  0  0  0  0  0  0  0  0
  140.8376   71.8275  226.9196 H   0  0  0  0  0  0  0  0  0  0  0  0
  1  2  2  0
  2  3  1  0
  3  4  1  0
  4  5  1  0
  5  6  2  0
  5  7  1  0
  7  8  1  0
  8  9  1  0
  9 10  1  0
 10 11  1  0
 11 12  1  0
 12 13  2  0
 12 14  1  0
 14 15  1  0
 15 16  1  0
 16 17  1  0
 17 18  1  0
 18 19  1  0
 19 20  1  0
 20 21  2  0
 21 22  1  0
 22 23  2  0
 23 24  1  0
 24 25  2  0
 18 26  1  0
 26 27  1  0
  2 28  1  0
 28 29  2  0
 29 30  1  0
 30 31  2  0
 31 32  1  0
 32 33  2  0
 33 34  1  0
 33 35  1  0
 35 36  2  0
 36 37  1  0
 37 38  2  0
 11  7  1  0
 27 15  1  0
 38 28  1  0
 25 20  1  0
 37 31  1  0
  3 39  1  0
  4 40  1  0
  4 41  1  0
  8 42  1  0
  8 43  1  0
  9 44  1  0
  9 45  1  0
 10 46  1  0
 10 47  1  0
 11 48  1  6
 14 49  1  0
 15 50  1  6
 16 51  1  0
 16 52  1  0
 17 53  1  0
 17 54  1  0
 18 55  1  1
 21 56  1  0
 22 57  1  0
 24 58  1  0
 25 59  1  0
 26 60  1  0
 26 61  1  0
 27 62  1  0
 27 63  1  0
 29 64  1  0
 30 65  1  0
 32 66  1  0
 35 67  1  0
 36 68  1  0
M  END
>  <smiles>  (9) 
O=C(NCC(=O)N1CCC[C@H]1C(=O)N[C@H]1CC[C@H](Oc2ccncc2)CC1)c1ccc2cc(F)ccc2n1

>  <score_type>  (9) 
oracle

>  <origin>  (9) 
autodockgpu

>  <m_score__min__energy>  (9) 
-9.4700000000000006

>  <m_primary>  (9) 
energy

>  <rmsd>  (9) 
3.4008715448193056

>  <m_score__min__rmsd>  (9) 
3.4008715448193056

>  <meeko>  (9) 
{"free_energy": -8.41, "intermolecular_energy": -10.79, "internal_energy": -3.24, "cluster_size": 3, "cluster_id": 6, "rank_in_cluster": 3}

>  <energy>  (9) 
-8.82

>  <cluster_rmsd>  (9) 
0.96

>  <cluster>  (9) 
2

$$$$

     RDKit          3D

 68 72  0  0  0  0  0  0  0  0999 V2000
  142.4830   72.3240  220.4930 O   0  0  0  0  0  0  0  0  0  0  0  0
  142.4440   73.5490  220.8250 C   0  0  0  0  0  0  0  0  0  0  0  0
  143.6060   74.3360  220.8310 N   0  0  0  0  0  0  0  0  0  0  0  0
  144.9380   73.7910  220.4480 C   0  0  0  0  0  0  0  0  0  0  0  0
  144.9280   73.4250  219.0340 C   0  0  0  0  0  0  0  0  0  0  0  0
  145.9040   72.6450  218.6740 O   0  0  0  0  0  0  0  0  0  0  0  0
  144.0510   73.7650  218.0050 N   0  0  0  0  0  0  0  0  0  0  0  0
  143.7800   72.7050  216.9480 C   0  0  0  0  0  0  0  0  0  0  0  0
  142.2970   72.9140  216.6580 C   0  0  0  0  0  0  0  0  0  0  0  0
  141.8810   74.1480  217.4790 C   0  0  0  0  0  0  0  0  0  0  0  0
  143.2560   74.8320  217.5540 C   0  0  1  0  0  0  0  0  0  0  0  0
  143.0960   76.0540  218.3080 C   0  0  0  0  0  0  0  0  0  0  0  0
  143.7230   76.4780  219.2870 O   0  0  0  0  0  0  0  0  0  0  0  0
  142.0240   76.9430  217.8550 N   0  0  0  0  0  0  0  0  0  0  0  0
  141.7700   78.1800  218.5160 C   0  0  1  0  0  0  0  0  0  0  0  0
  142.6430   79.3250  218.1530 C   0  0  0  0  0  0  0  0  0  0  0  0
  141.8800   80.6310  218.0630 C   0  0  0  0  0  0  0  0  0  0  0  0
  140.9590   80.8760  219.2270 C   0  0  2  0  0  0  0  0  0  0  0  0
  141.6490   81.3310  220.3470 O   0  0  0  0  0  0  0  0  0  0  0  0
  141.7080   80.7920  221.5950 C   0  0  0  0  0  0  0  0  0  0  0  0
  140.8010   81.2730  222.5450 C   0  0  0  0  0  0  0  0  0  0  0  0
  140.8190   80.7540  223.8460 C   0  0  0  0  0  0  0  0  0  0  0  0
  141.6940   79.7990  224.1990 N   0  0  0  0  0  0  0  0  0  0  0  0
  142.5620   79.3260  223.3210 C   0  0  0  0  0  0  0  0  0  0  0  0
  142.5790   79.8150  222.0170 C   0  0  0  0  0  0  0  0  0  0  0  0
  140.1230   79.6380  219.5070 C   0  0  0  0  0  0  0  0  0  0  0  0
  140.3080   78.6130  218.3930 C   0  0  0  0  0  0  0  0  0  0  0  0
  141.1680   74.1840  221.2140 C   0  0  0  0  0  0  0  0  0  0  0  0
  139.9880   73.4460  221.1910 C   0  0  0  0  0  0  0  0  0  0  0  0
  138.8240   74.0900  221.5630 C   0  0  0  0  0  0  0  0  0  0  0  0
  138.8080   75.4090  221.9450 C   0  0  0  0  0  0  0  0  0  0  0  0
  137.6820   76.1010  222.3220 C   0  0  0  0  0  0  0  0  0  0  0  0
  137.7720   77.4270  222.6860 C   0  0  0  0  0  0  0  0  0  0  0  0
  136.6650   78.1160  223.0600 F   0  0  0  0  0  0  0  0  0  0  0  0
  138.9580   78.1230  222.6950 C   0  0  0  0  0  0  0  0  0  0  0  0
  140.1070   77.4260  222.3140 C   0  0  0  0  0  0  0  0  0  0  0  0
  140.0030   76.0990  221.9510 C   0  0  0  0  0  0  0  0  0  0  0  0
  141.1390   75.4770  221.5910 N   0  0  0  0  0  0  0  0  0  0  0  0
  143.5360   75.3440  221.1160 H   0  0  0  0  0  0  0  0  0  0  0  0
  145.7104   74.5544  220.6234 H   0  0  0  0  0  0  0  0  0  0  0  0
  145.1572   72.9002  221.0550 H   0  0  0  0  0  0  0  0  0  0  0  0
  144.3902   72.8732  216.0484 H   0  0  0  0  0  0  0  0  0  0  0  0
  144.0277   71.6835  217.2722 H   0  0  0  0  0  0  0  0  0  0  0  0
  142.1381   73.0961  215.5849 H   0  0  0  0  0  0  0  0  0  0  0  0
  141.7023   72.0285  216.9270 H   0  0  0  0  0  0  0  0  0  0  0  0
  141.1370   74.7655  216.9544 H   0  0  0  0  0  0  0  0  0  0  0  0
  141.3917   73.9429  218.4426 H   0  0  0  0  0  0  0  0  0  0  0  0
  143.7511   75.2362  216.6587 H   0  0  0  0  0  0  0  0  0  0  0  0
  141.4320   76.6860  217.0370 H   0  0  0  0  0  0  0  0  0  0  0  0
  142.0206   77.9338  219.5584 H   0  0  0  0  0  0  0  0  0  0  0  0
  143.1067   79.1194  217.1769 H   0  0  0  0  0  0  0  0  0  0  0  0
  143.3986   79.4333  218.9451 H   0  0  0  0  0  0  0  0  0  0  0  0
  141.2793   80.6192  217.1416 H   0  0  0  0  0  0  0  0  0  0  0  0
  142.6259   81.4395  218.0681 H   0  0  0  0  0  0  0  0  0  0  0  0
  140.2645   81.6859  218.9592 H   0  0  0  0  0  0  0  0  0  0  0  0
  140.0772   82.0550  222.2718 H   0  0  0  0  0  0  0  0  0  0  0  0
  140.1045   81.1352  224.5905 H   0  0  0  0  0  0  0  0  0  0  0  0
  143.2737   78.5430  223.6216 H   0  0  0  0  0  0  0  0  0  0  0  0
  143.3106   79.4078  221.3037 H   0  0  0  0  0  0  0  0  0  0  0  0
  139.0620   79.9221  219.5665 H   0  0  0  0  0  0  0  0  0  0  0  0
  140.4476   79.1943  220.4598 H   0  0  0  0  0  0  0  0  0  0  0  0
  140.1178   79.0678  217.4096 H   0  0  0  0  0  0  0  0  0  0  0  0
  139.6105   77.7669  218.4806 H   0  0  0  0  0  0  0  0  0  0  0  0
  139.9827   72.3887  220.8877 H   0  0  0  0  0  0  0  0  0  0  0  0
  137.8786   73.5277  221.5529 H   0  0  0  0  0  0  0  0  0  0  0  0
  136.7056   75.5946  222.3332 H   0  0  0  0  0  0  0  0  0  0  0  0
  139.0000   79.1821  222.9893 H   0  0  0  0  0  0  0  0  0  0  0  0
  141.0847   77.9300  222.3035 H   0  0  0  0  0  0  0  0  0  0  0  0
  1  2  2  0
  2  3  1  0
  3  4  1  0
  4  5  1  0
  5  6  2  0
  5  7  1  0
  7  8  1  0
  8  9  1  0
  9 10  1  0
 10 11  1  0
 11 12  1  0
 12 13  2  0
 12 14  1  0
 14 15  1  0
 15 16  1  0
 16 17  1  0
 17 18  1  0
 18 19  1  0
 19 20  1  0
 20 21  2  0
 21 22  1  0
 22 23  2  0
 23 24  1  0
 24 25  2  0
 18 26  1  0
 26 27  1  0
  2 28  1  0
 28 29  2  0
 29 30  1  0
 30 31  2  0
 31 32  1  0
 32 33  2  0
 33 34  1  0
 33 35  1  0
 35 36  2  0
 36 37  1  0
 37 38  2  0
 11  7  1  0
 27 15  1  0
 38 28  1  0
 25 20  1  0
 37 31  1  0
  3 39  1  0
  4 40  1  0
  4 41  1  0
  8 42  1  0
  8 43  1  0
  9 44  1  0
  9 45  1  0
 10 46  1  0
 10 47  1  0
 11 48  1  6
 14 49  1  0
 15 50  1  1
 16 51  1  0
 16 52  1  0
 17 53  1  0
 17 54  1  0
 18 55  1  6
 21 56  1  0
 22 57  1  0
 24 58  1  0
 25 59  1  0
 26 60  1  0
 26 61  1  0
 27 62  1  0
 27 63  1  0
 29 64  1  0
 30 65  1  0
 32 66  1  0
 35 67  1  0
 36 68  1  0
M  END
>  <smiles>  (10) 
O=C(NCC(=O)N1CCC[C@H]1C(=O)N[C@H]1CC[C@H](Oc2ccncc2)CC1)c1ccc2cc(F)ccc2n1

>  <score_type>  (10) 
oracle

>  <origin>  (10) 
autodockgpu

>  <m_score__min__energy>  (10) 
-9.4700000000000006

>  <m_primary>  (10) 
energy

>  <rmsd>  (10) 
5.93420594837299

>  <m_score__min__rmsd>  (10) 
5.93420594837299

>  <meeko>  (10) 
{"free_energy": -6.93, "intermolecular_energy": -9.32, "internal_energy": -4.78, "cluster_size": 1, "cluster_id": 14, "rank_in_cluster": 1}

>  <energy>  (10) 
-8.75

>  <cluster_rmsd>  (10) 
0.81

>  <cluster>  (10) 
2

$$$$

     RDKit          3D

 68 72  0  0  0  0  0  0  0  0999 V2000
  139.8700   70.7640  220.9440 O   0  0  0  0  0  0  0  0  0  0  0  0
  139.7670   71.3510  222.0650 C   0  0  0  0  0  0  0  0  0  0  0  0
  139.7030   72.7500  222.1500 N   0  0  0  0  0  0  0  0  0  0  0  0
  139.7440   73.6220  220.9430 C   0  0  0  0  0  0  0  0  0  0  0  0
  140.8890   74.5240  221.0300 C   0  0  0  0  0  0  0  0  0  0  0  0
  141.0280   75.1060  222.1850 O   0  0  0  0  0  0  0  0  0  0  0  0
  141.8590   74.8680  220.0900 N   0  0  0  0  0  0  0  0  0  0  0  0
  142.5030   73.7310  219.3120 C   0  0  0  0  0  0  0  0  0  0  0  0
  142.6620   74.3420  217.9230 C   0  0  0  0  0  0  0  0  0  0  0  0
  142.2100   75.8080  218.0580 C   0  0  0  0  0  0  0  0  0  0  0  0
  142.5130   75.9910  219.5550 C   0  0  1  0  0  0  0  0  0  0  0  0
  142.1530   77.3440  219.9120 C   0  0  0  0  0  0  0  0  0  0  0  0
  142.0760   78.3630  219.2130 O   0  0  0  0  0  0  0  0  0  0  0  0
  141.8240   77.5610  221.3230 N   0  0  0  0  0  0  0  0  0  0  0  0
  141.4500   78.8530  221.7960 C   0  0  1  0  0  0  0  0  0  0  0  0
  140.0490   79.0150  222.2630 C   0  0  0  0  0  0  0  0  0  0  0  0
  139.9450   79.8870  223.4970 C   0  0  0  0  0  0  0  0  0  0  0  0
  140.7390   81.1620  223.4060 C   0  0  2  0  0  0  0  0  0  0  0  0
  140.0850   82.1260  222.6440 O   0  0  0  0  0  0  0  0  0  0  0  0
  140.1070   82.3140  221.2960 C   0  0  0  0  0  0  0  0  0  0  0  0
  139.0380   81.7930  220.5590 C   0  0  0  0  0  0  0  0  0  0  0  0
  139.0110   81.9570  219.1680 C   0  0  0  0  0  0  0  0  0  0  0  0
  139.9940   82.6090  218.5270 N   0  0  0  0  0  0  0  0  0  0  0  0
  141.0160   83.1120  219.2000 C   0  0  0  0  0  0  0  0  0  0  0  0
  141.0830   82.9700  220.5840 C   0  0  0  0  0  0  0  0  0  0  0  0
  142.1470   80.8730  222.9160 C   0  0  0  0  0  0  0  0  0  0  0  0
  142.3960   79.3680  222.8820 C   0  0  0  0  0  0  0  0  0  0  0  0
  139.7100   70.5720  223.3190 C   0  0  0  0  0  0  0  0  0  0  0  0
  139.1460   69.2980  223.3230 C   0  0  0  0  0  0  0  0  0  0  0  0
  139.1190   68.6160  224.5240 C   0  0  0  0  0  0  0  0  0  0  0  0
  139.6220   69.1530  225.6830 C   0  0  0  0  0  0  0  0  0  0  0  0
  139.6180   68.5230  226.9040 C   0  0  0  0  0  0  0  0  0  0  0  0
  140.1460   69.1510  228.0110 C   0  0  0  0  0  0  0  0  0  0  0  0
  140.1480   68.5350  229.2190 F   0  0  0  0  0  0  0  0  0  0  0  0
  140.6950   70.4120  227.9670 C   0  0  0  0  0  0  0  0  0  0  0  0
  140.7020   71.0590  226.7280 C   0  0  0  0  0  0  0  0  0  0  0  0
  140.1700   70.4190  225.6290 C   0  0  0  0  0  0  0  0  0  0  0  0
  140.2000   71.0880  224.4630 N   0  0  0  0  0  0  0  0  0  0  0  0
  139.6230   73.1990  223.0950 H   0  0  0  0  0  0  0  0  0  0  0  0
  139.8377   72.9970  220.0427 H   0  0  0  0  0  0  0  0  0  0  0  0
  138.8173   74.2119  220.8864 H   0  0  0  0  0  0  0  0  0  0  0  0
  143.4779   73.4560  219.7409 H   0  0  0  0  0  0  0  0  0  0  0  0
  141.9158   72.8009  219.3212 H   0  0  0  0  0  0  0  0  0  0  0  0
  143.7125   74.2928  217.6004 H   0  0  0  0  0  0  0  0  0  0  0  0
  142.0677   73.8016  217.1715 H   0  0  0  0  0  0  0  0  0  0  0  0
  142.8033   76.4863  217.4272 H   0  0  0  0  0  0  0  0  0  0  0  0
  141.1779   76.0248  217.7452 H   0  0  0  0  0  0  0  0  0  0  0  0
  143.5414   75.9703  219.9447 H   0  0  0  0  0  0  0  0  0  0  0  0
  141.8550   76.7730  222.0020 H   0  0  0  0  0  0  0  0  0  0  0  0
  141.5321   79.4603  220.8825 H   0  0  0  0  0  0  0  0  0  0  0  0
  139.6385   78.0218  222.4975 H   0  0  0  0  0  0  0  0  0  0  0  0
  139.4836   79.5071  221.4579 H   0  0  0  0  0  0  0  0  0  0  0  0
  140.3100   79.3116  224.3605 H   0  0  0  0  0  0  0  0  0  0  0  0
  138.8880   80.1735  223.5997 H   0  0  0  0  0  0  0  0  0  0  0  0
  140.8266   81.5919  224.4147 H   0  0  0  0  0  0  0  0  0  0  0  0
  138.2234   81.2577  221.0688 H   0  0  0  0  0  0  0  0  0  0  0  0
  138.1701   81.5445  218.5912 H   0  0  0  0  0  0  0  0  0  0  0  0
  141.8159   83.6444  218.6645 H   0  0  0  0  0  0  0  0  0  0  0  0
  141.9423   83.3953  221.1232 H   0  0  0  0  0  0  0  0  0  0  0  0
  142.8719   81.3457  223.5949 H   0  0  0  0  0  0  0  0  0  0  0  0
  142.2632   81.2785  221.9001 H   0  0  0  0  0  0  0  0  0  0  0  0
  142.1584   78.9116  223.8543 H   0  0  0  0  0  0  0  0  0  0  0  0
  143.4477   79.1205  222.6753 H   0  0  0  0  0  0  0  0  0  0  0  0
  138.7375   68.8519  222.4042 H   0  0  0  0  0  0  0  0  0  0  0  0
  138.6794   67.6081  224.5527 H   0  0  0  0  0  0  0  0  0  0  0  0
  139.1916   67.5134  226.9982 H   0  0  0  0  0  0  0  0  0  0  0  0
  141.1099   70.8896  228.8668 H   0  0  0  0  0  0  0  0  0  0  0  0
  141.1277   72.0686  226.6309 H   0  0  0  0  0  0  0  0  0  0  0  0
  1  2  2  0
  2  3  1  0
  3  4  1  0
  4  5  1  0
  5  6  2  0
  5  7  1  0
  7  8  1  0
  8  9  1  0
  9 10  1  0
 10 11  1  0
 11 12  1  0
 12 13  2  0
 12 14  1  0
 14 15  1  0
 15 16  1  0
 16 17  1  0
 17 18  1  0
 18 19  1  0
 19 20  1  0
 20 21  2  0
 21 22  1  0
 22 23  2  0
 23 24  1  0
 24 25  2  0
 18 26  1  0
 26 27  1  0
  2 28  1  0
 28 29  2  0
 29 30  1  0
 30 31  2  0
 31 32  1  0
 32 33  2  0
 33 34  1  0
 33 35  1  0
 35 36  2  0
 36 37  1  0
 37 38  2  0
 11  7  1  0
 27 15  1  0
 38 28  1  0
 25 20  1  0
 37 31  1  0
  3 39  1  0
  4 40  1  0
  4 41  1  0
  8 42  1  0
  8 43  1  0
  9 44  1  0
  9 45  1  0
 10 46  1  0
 10 47  1  0
 11 48  1  6
 14 49  1  0
 15 50  1  6
 16 51  1  0
 16 52  1  0
 17 53  1  0
 17 54  1  0
 18 55  1  1
 21 56  1  0
 22 57  1  0
 24 58  1  0
 25 59  1  0
 26 60  1  0
 26 61  1  0
 27 62  1  0
 27 63  1  0
 29 64  1  0
 30 65  1  0
 32 66  1  0
 35 67  1  0
 36 68  1  0
M  END
>  <smiles>  (11) 
O=C(NCC(=O)N1CCC[C@H]1C(=O)N[C@H]1CC[C@H](Oc2ccncc2)CC1)c1ccc2cc(F)ccc2n1

>  <score_type>  (11) 
oracle

>  <origin>  (11) 
autodockgpu

>  <m_score__min__energy>  (11) 
-9.4700000000000006

>  <m_primary>  (11) 
energy

>  <rmsd>  (11) 
2.312078721612715

>  <m_score__min__rmsd>  (11) 
2.312078721612715

>  <meeko>  (11) 
{"free_energy": -8.67, "intermolecular_energy": -11.06, "internal_energy": -3.21, "cluster_size": 5, "cluster_id": 2, "rank_in_cluster": 4}

>  <energy>  (11) 
-8.67

>  <cluster_rmsd>  (11) 
0.78

>  <cluster>  (11) 
2

$$$$

     RDKit          3D

 68 72  0  0  0  0  0  0  0  0999 V2000
  140.9110   73.3720  222.6620 O   0  0  0  0  0  0  0  0  0  0  0  0
  139.9550   72.5410  222.7520 C   0  0  0  0  0  0  0  0  0  0  0  0
  138.8570   72.6000  221.8800 N   0  0  0  0  0  0  0  0  0  0  0  0
  138.7510   73.6230  220.8030 C   0  0  0  0  0  0  0  0  0  0  0  0
  138.5290   74.9380  221.3980 C   0  0  0  0  0  0  0  0  0  0  0  0
  137.4910   75.0060  222.1790 O   0  0  0  0  0  0  0  0  0  0  0  0
  139.2380   76.1320  221.2750 N   0  0  0  0  0  0  0  0  0  0  0  0
  138.6550   77.3570  221.9620 C   0  0  0  0  0  0  0  0  0  0  0  0
  139.9070   78.0640  222.4730 C   0  0  0  0  0  0  0  0  0  0  0  0
  141.0960   77.2500  221.9310 C   0  0  0  0  0  0  0  0  0  0  0  0
  140.4050   76.6550  220.6930 C   0  0  1  0  0  0  0  0  0  0  0  0
  141.3710   75.8260  220.0090 C   0  0  0  0  0  0  0  0  0  0  0  0
  141.5950   75.6900  218.7990 O   0  0  0  0  0  0  0  0  0  0  0  0
  142.2270   75.0080  220.8710 N   0  0  0  0  0  0  0  0  0  0  0  0
  143.2210   74.1520  220.3140 C   0  0  1  0  0  0  0  0  0  0  0  0
  144.6320   74.6030  220.4220 C   0  0  0  0  0  0  0  0  0  0  0  0
  145.5840   73.4660  220.7290 C   0  0  0  0  0  0  0  0  0  0  0  0
  145.3690   72.2470  219.8730 C   0  0  2  0  0  0  0  0  0  0  0  0
  145.9250   72.3990  218.6070 O   0  0  0  0  0  0  0  0  0  0  0  0
  145.5940   73.2810  217.6240 C   0  0  0  0  0  0  0  0  0  0  0  0
  146.6330   73.7740  216.8280 C   0  0  0  0  0  0  0  0  0  0  0  0
  146.3480   74.6850  215.8030 C   0  0  0  0  0  0  0  0  0  0  0  0
  145.0920   75.0950  215.5690 N   0  0  0  0  0  0  0  0  0  0  0  0
  144.0900   74.6450  216.3060 C   0  0  0  0  0  0  0  0  0  0  0  0
  144.3290   73.7380  217.3360 C   0  0  0  0  0  0  0  0  0  0  0  0
  143.8940   71.8850  219.8340 C   0  0  0  0  0  0  0  0  0  0  0  0
  143.1170   72.7210  220.8460 C   0  0  0  0  0  0  0  0  0  0  0  0
  139.9730   71.4830  223.7830 C   0  0  0  0  0  0  0  0  0  0  0  0
  139.4960   70.2090  223.4830 C   0  0  0  0  0  0  0  0  0  0  0  0
  139.5360   69.2590  224.4850 C   0  0  0  0  0  0  0  0  0  0  0  0
  140.0230   69.5380  225.7380 C   0  0  0  0  0  0  0  0  0  0  0  0
  140.0840   68.6360  226.7730 C   0  0  0  0  0  0  0  0  0  0  0  0
  140.5880   69.0170  227.9970 C   0  0  0  0  0  0  0  0  0  0  0  0
  140.6520   68.1310  229.0220 F   0  0  0  0  0  0  0  0  0  0  0  0
  141.0490   70.2860  228.2560 C   0  0  0  0  0  0  0  0  0  0  0  0
  140.9910   71.2100  227.2080 C   0  0  0  0  0  0  0  0  0  0  0  0
  140.4830   70.8150  225.9880 C   0  0  0  0  0  0  0  0  0  0  0  0
  140.4480   71.7440  225.0160 N   0  0  0  0  0  0  0  0  0  0  0  0
  138.0830   71.8980  221.9880 H   0  0  0  0  0  0  0  0  0  0  0  0
  139.6830   73.6379  220.2189 H   0  0  0  0  0  0  0  0  0  0  0  0
  137.9073   73.3731  220.1429 H   0  0  0  0  0  0  0  0  0  0  0  0
  138.1023   77.9884  221.2507 H   0  0  0  0  0  0  0  0  0  0  0  0
  137.9287   77.1171  222.7526 H   0  0  0  0  0  0  0  0  0  0  0  0
  139.9453   79.0965  222.0956 H   0  0  0  0  0  0  0  0  0  0  0  0
  139.9212   78.1209  223.5714 H   0  0  0  0  0  0  0  0  0  0  0  0
  141.9506   77.8890  221.6638 H   0  0  0  0  0  0  0  0  0  0  0  0
  141.5418   76.5257  222.6286 H   0  0  0  0  0  0  0  0  0  0  0  0
  140.0810   77.2853  219.8517 H   0  0  0  0  0  0  0  0  0  0  0  0
  142.1260   75.0440  221.9070 H   0  0  0  0  0  0  0  0  0  0  0  0
  142.9771   74.1928  219.2421 H   0  0  0  0  0  0  0  0  0  0  0  0
  144.7029   75.3492  221.2271 H   0  0  0  0  0  0  0  0  0  0  0  0
  144.9219   75.0274  219.4494 H   0  0  0  0  0  0  0  0  0  0  0  0
  145.4522   73.1779  221.7824 H   0  0  0  0  0  0  0  0  0  0  0  0
  146.5995   73.8318  220.5170 H   0  0  0  0  0  0  0  0  0  0  0  0
  145.9018   71.3998  220.3296 H   0  0  0  0  0  0  0  0  0  0  0  0
  147.6684   73.4480  217.0060 H   0  0  0  0  0  0  0  0  0  0  0  0
  147.1678   75.0709  215.1792 H   0  0  0  0  0  0  0  0  0  0  0  0
  143.0644   74.9882  216.1049 H   0  0  0  0  0  0  0  0  0  0  0  0
  143.4812   73.3767  217.9366 H   0  0  0  0  0  0  0  0  0  0  0  0
  143.7755   70.8187  220.0768 H   0  0  0  0  0  0  0  0  0  0  0  0
  143.5022   72.0877  218.8263 H   0  0  0  0  0  0  0  0  0  0  0  0
  143.5699   72.6430  221.8454 H   0  0  0  0  0  0  0  0  0  0  0  0
  142.0743   72.3877  220.9541 H   0  0  0  0  0  0  0  0  0  0  0  0
  139.1019   69.9683  222.4846 H   0  0  0  0  0  0  0  0  0  0  0  0
  139.1654   68.2454  224.2720 H   0  0  0  0  0  0  0  0  0  0  0  0
  139.7289   67.6057  226.6234 H   0  0  0  0  0  0  0  0  0  0  0  0
  141.4459   70.5623  229.2440 H   0  0  0  0  0  0  0  0  0  0  0  0
  141.3466   72.2405  227.3549 H   0  0  0  0  0  0  0  0  0  0  0  0
  1  2  2  0
  2  3  1  0
  3  4  1  0
  4  5  1  0
  5  6  2  0
  5  7  1  0
  7  8  1  0
  8  9  1  0
  9 10  1  0
 10 11  1  0
 11 12  1  0
 12 13  2  0
 12 14  1  0
 14 15  1  0
 15 16  1  0
 16 17  1  0
 17 18  1  0
 18 19  1  0
 19 20  1  0
 20 21  2  0
 21 22  1  0
 22 23  2  0
 23 24  1  0
 24 25  2  0
 18 26  1  0
 26 27  1  0
  2 28  1  0
 28 29  2  0
 29 30  1  0
 30 31  2  0
 31 32  1  0
 32 33  2  0
 33 34  1  0
 33 35  1  0
 35 36  2  0
 36 37  1  0
 37 38  2  0
 11  7  1  0
 27 15  1  0
 38 28  1  0
 25 20  1  0
 37 31  1  0
  3 39  1  0
  4 40  1  0
  4 41  1  0
  8 42  1  0
  8 43  1  0
  9 44  1  0
  9 45  1  0
 10 46  1  0
 10 47  1  0
 11 48  1  6
 14 49  1  0
 15 50  1  6
 16 51  1  0
 16 52  1  0
 17 53  1  0
 17 54  1  0
 18 55  1  1
 21 56  1  0
 22 57  1  0
 24 58  1  0
 25 59  1  0
 26 60  1  0
 26 61  1  0
 27 62  1  0
 27 63  1  0
 29 64  1  0
 30 65  1  0
 32 66  1  0
 35 67  1  0
 36 68  1  0
M  END
>  <smiles>  (12) 
O=C(NCC(=O)N1CCC[C@H]1C(=O)N[C@H]1CC[C@H](Oc2ccncc2)CC1)c1ccc2cc(F)ccc2n1

>  <score_type>  (12) 
oracle

>  <origin>  (12) 
autodockgpu

>  <m_score__min__energy>  (12) 
-9.4700000000000006

>  <m_primary>  (12) 
energy

>  <rmsd>  (12) 
4.772271805881731

>  <m_score__min__rmsd>  (12) 
4.772271805881731

>  <meeko>  (12) 
{"free_energy": -9.12, "intermolecular_energy": -11.51, "internal_energy": -3.15, "cluster_size": 4, "cluster_id": 3, "rank_in_cluster": 1}

>  <energy>  (12) 
-8.48

>  <cluster_rmsd>  (12) 
1.01

>  <cluster>  (12) 
2

$$$$

     RDKit          3D

 68 72  0  0  0  0  0  0  0  0999 V2000
  139.9840   72.8900  222.4870 O   0  0  0  0  0  0  0  0  0  0  0  0
  140.1570   71.6490  222.6950 C   0  0  0  0  0  0  0  0  0  0  0  0
  140.1410   70.7270  221.6370 N   0  0  0  0  0  0  0  0  0  0  0  0
  139.9300   71.1430  220.2230 C   0  0  0  0  0  0  0  0  0  0  0  0
  141.1240   70.8390  219.4400 C   0  0  0  0  0  0  0  0  0  0  0  0
  140.9100   70.7030  218.1650 O   0  0  0  0  0  0  0  0  0  0  0  0
  142.4550   70.6730  219.8230 N   0  0  0  0  0  0  0  0  0  0  0  0
  143.0340   69.2700  219.7240 C   0  0  0  0  0  0  0  0  0  0  0  0
  144.4590   69.5440  219.2530 C   0  0  0  0  0  0  0  0  0  0  0  0
  144.6070   71.0770  219.2410 C   0  0  0  0  0  0  0  0  0  0  0  0
  143.5510   71.4050  220.3100 C   0  0  1  0  0  0  0  0  0  0  0  0
  143.5190   72.8410  220.4670 C   0  0  0  0  0  0  0  0  0  0  0  0
  144.4350   73.6720  220.4170 O   0  0  0  0  0  0  0  0  0  0  0  0
  142.2000   73.4210  220.7290 N   0  0  0  0  0  0  0  0  0  0  0  0
  142.0400   74.8270  220.8980 C   0  0  1  0  0  0  0  0  0  0  0  0
  142.5450   75.6960  219.8040 C   0  0  0  0  0  0  0  0  0  0  0  0
  141.6290   76.8690  219.5240 C   0  0  0  0  0  0  0  0  0  0  0  0
  141.1820   77.5980  220.7620 C   0  0  2  0  0  0  0  0  0  0  0  0
  142.1680   78.4550  221.2420 O   0  0  0  0  0  0  0  0  0  0  0  0
  142.0800   79.4050  222.2130 C   0  0  0  0  0  0  0  0  0  0  0  0
  140.8070   79.9060  222.5080 C   0  0  0  0  0  0  0  0  0  0  0  0
  140.6600   80.8850  223.4980 C   0  0  0  0  0  0  0  0  0  0  0  0
  141.7210   81.3540  224.1730 N   0  0  0  0  0  0  0  0  0  0  0  0
  142.9360   80.8980  223.9160 C   0  0  0  0  0  0  0  0  0  0  0  0
  143.1270   79.9240  222.9380 C   0  0  0  0  0  0  0  0  0  0  0  0
  140.6930   76.6110  221.8080 C   0  0  0  0  0  0  0  0  0  0  0  0
  140.5920   75.2120  221.2070 C   0  0  0  0  0  0  0  0  0  0  0  0
  140.3830   71.1390  224.0630 C   0  0  0  0  0  0  0  0  0  0  0  0
  140.8170   72.0030  225.0660 C   0  0  0  0  0  0  0  0  0  0  0  0
  141.0120   71.4720  226.3260 C   0  0  0  0  0  0  0  0  0  0  0  0
  140.7940   70.1440  226.6030 C   0  0  0  0  0  0  0  0  0  0  0  0
  140.9750   69.5620  227.8340 C   0  0  0  0  0  0  0  0  0  0  0  0
  140.7310   68.2170  228.0080 C   0  0  0  0  0  0  0  0  0  0  0  0
  140.9060   67.6350  229.2200 F   0  0  0  0  0  0  0  0  0  0  0  0
  140.3040   67.3950  226.9910 C   0  0  0  0  0  0  0  0  0  0  0  0
  140.1170   67.9810  225.7360 C   0  0  0  0  0  0  0  0  0  0  0  0
  140.3660   69.3280  225.5760 C   0  0  0  0  0  0  0  0  0  0  0  0
  140.1720   69.8390  224.3470 N   0  0  0  0  0  0  0  0  0  0  0  0
  140.2840   69.7080  221.8490 H   0  0  0  0  0  0  0  0  0  0  0  0
  139.0700   70.5987  219.8056 H   0  0  0  0  0  0  0  0  0  0  0  0
  139.7342   72.2248  220.1857 H   0  0  0  0  0  0  0  0  0  0  0  0
  143.0267   68.7653  220.7014 H   0  0  0  0  0  0  0  0  0  0  0  0
  142.4678   68.6040  219.0563 H   0  0  0  0  0  0  0  0  0  0  0  0
  145.1851   69.0941  219.9461 H   0  0  0  0  0  0  0  0  0  0  0  0
  144.6487   69.1102  218.2601 H   0  0  0  0  0  0  0  0  0  0  0  0
  145.6153   71.4002  219.5390 H   0  0  0  0  0  0  0  0  0  0  0  0
  144.4727   71.5664  218.2650 H   0  0  0  0  0  0  0  0  0  0  0  0
  143.6813   71.1122  221.3623 H   0  0  0  0  0  0  0  0  0  0  0  0
  141.3560   72.8140  220.7910 H   0  0  0  0  0  0  0  0  0  0  0  0
  142.6930   75.0251  221.7607 H   0  0  0  0  0  0  0  0  0  0  0  0
  142.6359   75.0932  218.8884 H   0  0  0  0  0  0  0  0  0  0  0  0
  143.5177   76.1003  220.1209 H   0  0  0  0  0  0  0  0  0  0  0  0
  140.7368   76.4953  219.0002 H   0  0  0  0  0  0  0  0  0  0  0  0
  142.2023   77.5865  218.9185 H   0  0  0  0  0  0  0  0  0  0  0  0
  140.3309   78.2436  220.4997 H   0  0  0  0  0  0  0  0  0  0  0  0
  139.9264   79.5325  221.9648 H   0  0  0  0  0  0  0  0  0  0  0  0
  139.6578   81.2765  223.7265 H   0  0  0  0  0  0  0  0  0  0  0  0
  143.7982   81.2890  224.4761 H   0  0  0  0  0  0  0  0  0  0  0  0
  144.1457   79.5593  222.7399 H   0  0  0  0  0  0  0  0  0  0  0  0
  139.7018   76.9242  222.1676 H   0  0  0  0  0  0  0  0  0  0  0  0
  141.4073   76.5914  222.6442 H   0  0  0  0  0  0  0  0  0  0  0  0
  139.9879   75.2256  220.2878 H   0  0  0  0  0  0  0  0  0  0  0  0
  140.1032   74.4976  221.8858 H   0  0  0  0  0  0  0  0  0  0  0  0
  140.9977   73.0687  224.8620 H   0  0  0  0  0  0  0  0  0  0  0  0
  141.3533   72.1346  227.1350 H   0  0  0  0  0  0  0  0  0  0  0  0
  141.3159   70.1717  228.6838 H   0  0  0  0  0  0  0  0  0  0  0  0
  140.1179   66.3238  227.1581 H   0  0  0  0  0  0  0  0  0  0  0  0
  139.7748   67.3742  224.8847 H   0  0  0  0  0  0  0  0  0  0  0  0
  1  2  2  0
  2  3  1  0
  3  4  1  0
  4  5  1  0
  5  6  2  0
  5  7  1  0
  7  8  1  0
  8  9  1  0
  9 10  1  0
 10 11  1  0
 11 12  1  0
 12 13  2  0
 12 14  1  0
 14 15  1  0
 15 16  1  0
 16 17  1  0
 17 18  1  0
 18 19  1  0
 19 20  1  0
 20 21  2  0
 21 22  1  0
 22 23  2  0
 23 24  1  0
 24 25  2  0
 18 26  1  0
 26 27  1  0
  2 28  1  0
 28 29  2  0
 29 30  1  0
 30 31  2  0
 31 32  1  0
 32 33  2  0
 33 34  1  0
 33 35  1  0
 35 36  2  0
 36 37  1  0
 37 38  2  0
 11  7  1  0
 27 15  1  0
 38 28  1  0
 25 20  1  0
 37 31  1  0
  3 39  1  0
  4 40  1  0
  4 41  1  0
  8 42  1  0
  8 43  1  0
  9 44  1  0
  9 45  1  0
 10 46  1  0
 10 47  1  0
 11 48  1  1
 14 49  1  0
 15 50  1  1
 16 51  1  0
 16 52  1  0
 17 53  1  0
 17 54  1  0
 18 55  1  6
 21 56  1  0
 22 57  1  0
 24 58  1  0
 25 59  1  0
 26 60  1  0
 26 61  1  0
 27 62  1  0
 27 63  1  0
 29 64  1  0
 30 65  1  0
 32 66  1  0
 35 67  1  0
 36 68  1  0
M  END
>  <smiles>  (13) 
O=C(NCC(=O)N1CCC[C@H]1C(=O)N[C@H]1CC[C@H](Oc2ccncc2)CC1)c1ccc2cc(F)ccc2n1

>  <score_type>  (13) 
oracle

>  <origin>  (13) 
autodockgpu

>  <m_score__min__energy>  (13) 
-9.4700000000000006

>  <m_primary>  (13) 
energy

>  <rmsd>  (13) 
5.081948468216726

>  <m_score__min__rmsd>  (13) 
5.081948468216726

>  <meeko>  (13) 
{"free_energy": -8.49, "intermolecular_energy": -10.87, "internal_energy": -3.11, "cluster_size": 2, "cluster_id": 5, "rank_in_cluster": 2}

>  <energy>  (13) 
-9.12

>  <cluster_rmsd>  (13) 
0.0

>  <cluster>  (13) 
3

$$$$

     RDKit          3D

 68 72  0  0  0  0  0  0  0  0999 V2000
  139.7170   72.5130  221.9730 O   0  0  0  0  0  0  0  0  0  0  0  0
  139.4700   71.3600  222.4450 C   0  0  0  0  0  0  0  0  0  0  0  0
  138.7840   70.3980  221.6880 N   0  0  0  0  0  0  0  0  0  0  0  0
  138.3170   70.6640  220.2990 C   0  0  0  0  0  0  0  0  0  0  0  0
  137.3010   71.7130  220.3170 C   0  0  0  0  0  0  0  0  0  0  0  0
  137.2020   72.3840  219.2080 O   0  0  0  0  0  0  0  0  0  0  0  0
  136.4180   72.1170  221.3180 N   0  0  0  0  0  0  0  0  0  0  0  0
  135.3960   71.0960  221.7940 C   0  0  0  0  0  0  0  0  0  0  0  0
  135.3320   71.3810  223.2910 C   0  0  0  0  0  0  0  0  0  0  0  0
  136.2250   72.6140  223.5200 C   0  0  0  0  0  0  0  0  0  0  0  0
  136.1060   73.2310  222.1150 C   0  0  1  0  0  0  0  0  0  0  0  0
  136.8950   74.4420  222.1020 C   0  0  0  0  0  0  0  0  0  0  0  0
  136.7320   75.5100  222.7060 O   0  0  0  0  0  0  0  0  0  0  0  0
  138.0780   74.4190  221.2380 N   0  0  0  0  0  0  0  0  0  0  0  0
  138.9370   75.5520  221.1440 C   0  0  1  0  0  0  0  0  0  0  0  0
  139.6340   75.9700  222.3860 C   0  0  0  0  0  0  0  0  0  0  0  0
  141.0610   76.4110  222.1320 C   0  0  0  0  0  0  0  0  0  0  0  0
  141.2040   77.3580  220.9710 C   0  0  2  0  0  0  0  0  0  0  0  0
  140.8420   78.6560  221.3140 O   0  0  0  0  0  0  0  0  0  0  0  0
  141.4190   79.4980  222.2150 C   0  0  0  0  0  0  0  0  0  0  0  0
  140.5760   80.3790  222.9000 C   0  0  0  0  0  0  0  0  0  0  0  0
  141.1180   81.2680  223.8380 C   0  0  0  0  0  0  0  0  0  0  0  0
  142.4350   81.2890  224.0930 N   0  0  0  0  0  0  0  0  0  0  0  0
  143.2550   80.4660  223.4600 C   0  0  0  0  0  0  0  0  0  0  0  0
  142.7580   79.5670  222.5190 C   0  0  0  0  0  0  0  0  0  0  0  0
  140.4490   76.8290  219.7640 C   0  0  0  0  0  0  0  0  0  0  0  0
  139.9680   75.4050  220.0230 C   0  0  0  0  0  0  0  0  0  0  0  0
  139.9010   70.9980  223.8100 C   0  0  0  0  0  0  0  0  0  0  0  0
  140.6600   71.8910  224.5620 C   0  0  0  0  0  0  0  0  0  0  0  0
  141.0360   71.5000  225.8320 C   0  0  0  0  0  0  0  0  0  0  0  0
  140.6880   70.2780  226.3540 C   0  0  0  0  0  0  0  0  0  0  0  0
  141.0360   69.8350  227.6070 C   0  0  0  0  0  0  0  0  0  0  0  0
  140.6380   68.5880  228.0380 C   0  0  0  0  0  0  0  0  0  0  0  0
  140.9770   68.1440  229.2740 F   0  0  0  0  0  0  0  0  0  0  0  0
  139.8890   67.7320  227.2650 C   0  0  0  0  0  0  0  0  0  0  0  0
  139.5310   68.1760  225.9890 C   0  0  0  0  0  0  0  0  0  0  0  0
  139.9360   69.4260  225.5710 C   0  0  0  0  0  0  0  0  0  0  0  0
  139.5660   69.8020  224.3340 N   0  0  0  0  0  0  0  0  0  0  0  0
  138.5940   69.4570  222.1130 H   0  0  0  0  0  0  0  0  0  0  0  0
  139.1680   70.9889  219.6824 H   0  0  0  0  0  0  0  0  0  0  0  0
  137.8860   69.7447  219.8758 H   0  0  0  0  0  0  0  0  0  0  0  0
  134.4188   71.2562  221.3150 H   0  0  0  0  0  0  0  0  0  0  0  0
  135.6636   70.0567  221.5526 H   0  0  0  0  0  0  0  0  0  0  0  0
  134.2972   71.5950  223.5966 H   0  0  0  0  0  0  0  0  0  0  0  0
  135.6720   70.5184  223.8830 H   0  0  0  0  0  0  0  0  0  0  0  0
  135.8261   73.2776  224.3013 H   0  0  0  0  0  0  0  0  0  0  0  0
  137.2471   72.4103  223.8720 H   0  0  0  0  0  0  0  0  0  0  0  0
  135.1543   73.6319  221.7361 H   0  0  0  0  0  0  0  0  0  0  0  0
  138.3130   73.5690  220.6830 H   0  0  0  0  0  0  0  0  0  0  0  0
  138.2226   76.3576  220.9192 H   0  0  0  0  0  0  0  0  0  0  0  0
  139.6466   75.1214  223.0858 H   0  0  0  0  0  0  0  0  0  0  0  0
  139.0881   76.8298  222.8016 H   0  0  0  0  0  0  0  0  0  0  0  0
  141.6696   75.5176  221.9284 H   0  0  0  0  0  0  0  0  0  0  0  0
  141.3954   76.9508  223.0302 H   0  0  0  0  0  0  0  0  0  0  0  0
  142.2667   77.4129  220.6925 H   0  0  0  0  0  0  0  0  0  0  0  0
  139.4937   80.3741  222.7036 H   0  0  0  0  0  0  0  0  0  0  0  0
  140.4523   81.9603  224.3743 H   0  0  0  0  0  0  0  0  0  0  0  0
  144.3330   80.4917  223.6775 H   0  0  0  0  0  0  0  0  0  0  0  0
  143.4577   78.8923  222.0039 H   0  0  0  0  0  0  0  0  0  0  0  0
  141.1152   76.8334  218.8887 H   0  0  0  0  0  0  0  0  0  0  0  0
  139.5769   77.4728  219.5771 H   0  0  0  0  0  0  0  0  0  0  0  0
  140.8027   74.7639  220.3429 H   0  0  0  0  0  0  0  0  0  0  0  0
  139.5459   74.9338  219.1231 H   0  0  0  0  0  0  0  0  0  0  0  0
  140.9497   72.8726  224.1589 H   0  0  0  0  0  0  0  0  0  0  0  0
  141.6338   72.1898  226.4458 H   0  0  0  0  0  0  0  0  0  0  0  0
  141.6346   70.4781  228.2688 H   0  0  0  0  0  0  0  0  0  0  0  0
  139.5851   66.7416  227.6346 H   0  0  0  0  0  0  0  0  0  0  0  0
  138.9324   67.5349  225.3251 H   0  0  0  0  0  0  0  0  0  0  0  0
  1  2  2  0
  2  3  1  0
  3  4  1  0
  4  5  1  0
  5  6  2  0
  5  7  1  0
  7  8  1  0
  8  9  1  0
  9 10  1  0
 10 11  1  0
 11 12  1  0
 12 13  2  0
 12 14  1  0
 14 15  1  0
 15 16  1  0
 16 17  1  0
 17 18  1  0
 18 19  1  0
 19 20  1  0
 20 21  2  0
 21 22  1  0
 22 23  2  0
 23 24  1  0
 24 25  2  0
 18 26  1  0
 26 27  1  0
  2 28  1  0
 28 29  2  0
 29 30  1  0
 30 31  2  0
 31 32  1  0
 32 33  2  0
 33 34  1  0
 33 35  1  0
 35 36  2  0
 36 37  1  0
 37 38  2  0
 11  7  1  0
 27 15  1  0
 38 28  1  0
 25 20  1  0
 37 31  1  0
  3 39  1  0
  4 40  1  0
  4 41  1  0
  8 42  1  0
  8 43  1  0
  9 44  1  0
  9 45  1  0
 10 46  1  0
 10 47  1  0
 11 48  1  6
 14 49  1  0
 15 50  1  6
 16 51  1  0
 16 52  1  0
 17 53  1  0
 17 54  1  0
 18 55  1  6
 21 56  1  0
 22 57  1  0
 24 58  1  0
 25 59  1  0
 26 60  1  0
 26 61  1  0
 27 62  1  0
 27 63  1  0
 29 64  1  0
 30 65  1  0
 32 66  1  0
 35 67  1  0
 36 68  1  0
M  END
>  <smiles>  (14) 
O=C(NCC(=O)N1CCC[C@H]1C(=O)N[C@H]1CC[C@H](Oc2ccncc2)CC1)c1ccc2cc(F)ccc2n1

>  <score_type>  (14) 
oracle

>  <origin>  (14) 
autodockgpu

>  <m_score__min__energy>  (14) 
-9.4700000000000006

>  <m_primary>  (14) 
energy

>  <rmsd>  (14) 
5.0855718784343615

>  <m_score__min__rmsd>  (14) 
5.0855718784343615

>  <meeko>  (14) 
{"free_energy": -7.26, "intermolecular_energy": -9.64, "internal_energy": -4.24, "cluster_size": 7, "cluster_id": 9, "rank_in_cluster": 5}

>  <energy>  (14) 
-9.09

>  <cluster_rmsd>  (14) 
0.21

>  <cluster>  (14) 
3

$$$$

     RDKit          3D

 68 72  0  0  0  0  0  0  0  0999 V2000
  139.4020   74.6510  221.0780 O   0  0  0  0  0  0  0  0  0  0  0  0
  139.5320   75.8140  220.5860 C   0  0  0  0  0  0  0  0  0  0  0  0
  139.4330   76.0320  219.2030 N   0  0  0  0  0  0  0  0  0  0  0  0
  139.1660   74.9280  218.2410 C   0  0  0  0  0  0  0  0  0  0  0  0
  140.2750   73.9780  218.2650 C   0  0  0  0  0  0  0  0  0  0  0  0
  139.9400   72.7540  217.9820 O   0  0  0  0  0  0  0  0  0  0  0  0
  141.6300   74.1580  218.5370 N   0  0  0  0  0  0  0  0  0  0  0  0
  142.3750   75.1830  217.6960 C   0  0  0  0  0  0  0  0  0  0  0  0
  143.3190   75.8110  218.7170 C   0  0  0  0  0  0  0  0  0  0  0  0
  143.1190   75.0110  220.0170 C   0  0  0  0  0  0  0  0  0  0  0  0
  142.6460   73.6900  219.3880 C   0  0  1  0  0  0  0  0  0  0  0  0
  142.3900   72.7600  220.4640 C   0  0  0  0  0  0  0  0  0  0  0  0
  143.1770   72.1730  221.2190 O   0  0  0  0  0  0  0  0  0  0  0  0
  140.9800   72.4500  220.7130 N   0  0  0  0  0  0  0  0  0  0  0  0
  140.6020   71.5490  221.7510 C   0  0  1  0  0  0  0  0  0  0  0  0
  140.1960   72.1510  223.0460 C   0  0  0  0  0  0  0  0  0  0  0  0
  139.0230   71.4320  223.6790 C   0  0  0  0  0  0  0  0  0  0  0  0
  139.1650   69.9340  223.6890 C   0  0  2  0  0  0  0  0  0  0  0  0
  140.0080   69.5000  224.7080 O   0  0  0  0  0  0  0  0  0  0  0  0
  140.2540   70.0710  225.9190 C   0  0  0  0  0  0  0  0  0  0  0  0
  141.1400   71.1530  225.9500 C   0  0  0  0  0  0  0  0  0  0  0  0
  141.4290   71.7770  227.1710 C   0  0  0  0  0  0  0  0  0  0  0  0
  140.8680   71.3560  228.3150 N   0  0  0  0  0  0  0  0  0  0  0  0
  140.0260   70.3360  228.3140 C   0  0  0  0  0  0  0  0  0  0  0  0
  139.7110   69.6870  227.1230 C   0  0  0  0  0  0  0  0  0  0  0  0
  139.5860   69.4350  222.3180 C   0  0  0  0  0  0  0  0  0  0  0  0
  139.5180   70.5690  221.3000 C   0  0  0  0  0  0  0  0  0  0  0  0
  139.7900   76.9760  221.4600 C   0  0  0  0  0  0  0  0  0  0  0  0
  138.7760   77.4760  222.2730 C   0  0  0  0  0  0  0  0  0  0  0  0
  139.0740   78.5650  223.0700 C   0  0  0  0  0  0  0  0  0  0  0  0
  140.3160   79.1500  223.0750 C   0  0  0  0  0  0  0  0  0  0  0  0
  140.6670   80.2350  223.8420 C   0  0  0  0  0  0  0  0  0  0  0  0
  141.9430   80.7500  223.7720 C   0  0  0  0  0  0  0  0  0  0  0  0
  142.2970   81.8200  224.5270 F   0  0  0  0  0  0  0  0  0  0  0  0
  142.9190   80.2290  222.9550 C   0  0  0  0  0  0  0  0  0  0  0  0
  142.5690   79.1250  222.1720 C   0  0  0  0  0  0  0  0  0  0  0  0
  141.2880   78.6200  222.2510 C   0  0  0  0  0  0  0  0  0  0  0  0
  141.0050   77.5590  221.4750 N   0  0  0  0  0  0  0  0  0  0  0  0
  139.5500   77.0080  218.8330 H   0  0  0  0  0  0  0  0  0  0  0  0
  138.2363   74.4126  218.5241 H   0  0  0  0  0  0  0  0  0  0  0  0
  139.0629   75.3435  217.2277 H   0  0  0  0  0  0  0  0  0  0  0  0
  142.9333   74.7001  216.8805 H   0  0  0  0  0  0  0  0  0  0  0  0
  141.7159   75.9094  217.1981 H   0  0  0  0  0  0  0  0  0  0  0  0
  144.3614   75.7322  218.3747 H   0  0  0  0  0  0  0  0  0  0  0  0
  143.1067   76.8806  218.8619 H   0  0  0  0  0  0  0  0  0  0  0  0
  144.0561   74.8916  220.5806 H   0  0  0  0  0  0  0  0  0  0  0  0
  142.4433   75.4600  220.7598 H   0  0  0  0  0  0  0  0  0  0  0  0
  143.3138   73.0717  218.7701 H   0  0  0  0  0  0  0  0  0  0  0  0
  140.2310   72.8880  220.1380 H   0  0  0  0  0  0  0  0  0  0  0  0
  141.5486   71.0253  221.9501 H   0  0  0  0  0  0  0  0  0  0  0  0
  139.9150   73.2005  222.8742 H   0  0  0  0  0  0  0  0  0  0  0  0
  141.0496   72.0676  223.7348 H   0  0  0  0  0  0  0  0  0  0  0  0
  138.1132   71.6908  223.1175 H   0  0  0  0  0  0  0  0  0  0  0  0
  138.9754   71.7572  224.7288 H   0  0  0  0  0  0  0  0  0  0  0  0
  138.1825   69.4915  223.9100 H   0  0  0  0  0  0  0  0  0  0  0  0
  141.6073   71.5120  225.0211 H   0  0  0  0  0  0  0  0  0  0  0  0
  142.1276   72.6264  227.1920 H   0  0  0  0  0  0  0  0  0  0  0  0
  139.5727   69.9990  229.2579 H   0  0  0  0  0  0  0  0  0  0  0  0
  139.0070   68.8421  227.1457 H   0  0  0  0  0  0  0  0  0  0  0  0
  138.9123   68.6241  222.0040 H   0  0  0  0  0  0  0  0  0  0  0  0
  140.6202   69.0643  222.3733 H   0  0  0  0  0  0  0  0  0  0  0  0
  138.5282   71.0485  221.3167 H   0  0  0  0  0  0  0  0  0  0  0  0
  139.6725   70.2175  220.2692 H   0  0  0  0  0  0  0  0  0  0  0  0
  137.7746   77.0209  222.2805 H   0  0  0  0  0  0  0  0  0  0  0  0
  138.2898   78.9769  223.7222 H   0  0  0  0  0  0  0  0  0  0  0  0
  139.9268   80.6938  224.5140 H   0  0  0  0  0  0  0  0  0  0  0  0
  143.9297   80.6616  222.9193 H   0  0  0  0  0  0  0  0  0  0  0  0
  143.3076   78.6639  221.4998 H   0  0  0  0  0  0  0  0  0  0  0  0
  1  2  2  0
  2  3  1  0
  3  4  1  0
  4  5  1  0
  5  6  2  0
  5  7  1  0
  7  8  1  0
  8  9  1  0
  9 10  1  0
 10 11  1  0
 11 12  1  0
 12 13  2  0
 12 14  1  0
 14 15  1  0
 15 16  1  0
 16 17  1  0
 17 18  1  0
 18 19  1  0
 19 20  1  0
 20 21  2  0
 21 22  1  0
 22 23  2  0
 23 24  1  0
 24 25  2  0
 18 26  1  0
 26 27  1  0
  2 28  1  0
 28 29  2  0
 29 30  1  0
 30 31  2  0
 31 32  1  0
 32 33  2  0
 33 34  1  0
 33 35  1  0
 35 36  2  0
 36 37  1  0
 37 38  2  0
 11  7  1  0
 27 15  1  0
 38 28  1  0
 25 20  1  0
 37 31  1  0
  3 39  1  0
  4 40  1  0
  4 41  1  0
  8 42  1  0
  8 43  1  0
  9 44  1  0
  9 45  1  0
 10 46  1  0
 10 47  1  0
 11 48  1  6
 14 49  1  0
 15 50  1  1
 16 51  1  0
 16 52  1  0
 17 53  1  0
 17 54  1  0
 18 55  1  1
 21 56  1  0
 22 57  1  0
 24 58  1  0
 25 59  1  0
 26 60  1  0
 26 61  1  0
 27 62  1  0
 27 63  1  0
 29 64  1  0
 30 65  1  0
 32 66  1  0
 35 67  1  0
 36 68  1  0
M  END
>  <smiles>  (15) 
O=C(NCC(=O)N1CCC[C@H]1C(=O)N[C@H]1CC[C@H](Oc2ccncc2)CC1)c1ccc2cc(F)ccc2n1

>  <score_type>  (15) 
oracle

>  <origin>  (15) 
autodockgpu

>  <m_score__min__energy>  (15) 
-9.4700000000000006

>  <m_primary>  (15) 
energy

>  <rmsd>  (15) 
8.198874212872804

>  <m_score__min__rmsd>  (15) 
8.198874212872804

>  <meeko>  (15) 
{"free_energy": -7.36, "intermolecular_energy": -9.74, "internal_energy": -3.97, "cluster_size": 2, "cluster_id": 12, "rank_in_cluster": 1}

>  <energy>  (15) 
-8.71

>  <cluster_rmsd>  (15) 
0.79

>  <cluster>  (15) 
3

$$$$

     RDKit          3D

 68 72  0  0  0  0  0  0  0  0999 V2000
  138.4640   75.2450  221.7560 O   0  0  0  0  0  0  0  0  0  0  0  0
  139.6560   75.6430  221.9360 C   0  0  0  0  0  0  0  0  0  0  0  0
  140.7490   74.8050  221.6640 N   0  0  0  0  0  0  0  0  0  0  0  0
  140.5790   73.4190  221.1480 C   0  0  0  0  0  0  0  0  0  0  0  0
  141.8700   72.8980  220.7080 C   0  0  0  0  0  0  0  0  0  0  0  0
  141.8540   71.6460  220.3580 O   0  0  0  0  0  0  0  0  0  0  0  0
  143.1170   73.5130  220.5960 N   0  0  0  0  0  0  0  0  0  0  0  0
  144.3100   72.7690  221.1760 C   0  0  0  0  0  0  0  0  0  0  0  0
  145.4060   73.0790  220.1610 C   0  0  0  0  0  0  0  0  0  0  0  0
  144.7790   74.0670  219.1600 C   0  0  0  0  0  0  0  0  0  0  0  0
  143.7200   74.6780  220.0930 C   0  0  1  0  0  0  0  0  0  0  0  0
  142.9880   75.6670  219.3350 C   0  0  0  0  0  0  0  0  0  0  0  0
  142.6830   75.6910  218.1360 O   0  0  0  0  0  0  0  0  0  0  0  0
  142.5290   76.8340  220.0920 N   0  0  0  0  0  0  0  0  0  0  0  0
  141.7930   77.8750  219.4550 C   0  0  1  0  0  0  0  0  0  0  0  0
  142.4740   78.5980  218.3500 C   0  0  0  0  0  0  0  0  0  0  0  0
  141.5400   78.9140  217.2000 C   0  0  0  0  0  0  0  0  0  0  0  0
  140.2250   79.5040  217.6330 C   0  0  2  0  0  0  0  0  0  0  0  0
  140.3400   80.8560  217.9390 O   0  0  0  0  0  0  0  0  0  0  0  0
  140.2490   81.4720  219.1500 C   0  0  0  0  0  0  0  0  0  0  0  0
  141.4430   81.8960  219.7440 C   0  0  0  0  0  0  0  0  0  0  0  0
  141.4060   82.5350  220.9910 C   0  0  0  0  0  0  0  0  0  0  0  0
  140.2440   82.7500  221.6260 N   0  0  0  0  0  0  0  0  0  0  0  0
  139.1010   82.3610  221.0860 C   0  0  0  0  0  0  0  0  0  0  0  0
  139.0920   81.7210  219.8490 C   0  0  0  0  0  0  0  0  0  0  0  0
  139.6280   78.6870  218.7660 C   0  0  0  0  0  0  0  0  0  0  0  0
  140.4230   77.4010  218.9660 C   0  0  0  0  0  0  0  0  0  0  0  0
  139.9280   77.0050  222.4380 C   0  0  0  0  0  0  0  0  0  0  0  0
  138.8740   77.8290  222.8240 C   0  0  0  0  0  0  0  0  0  0  0  0
  139.1860   79.0940  223.2840 C   0  0  0  0  0  0  0  0  0  0  0  0
  140.4810   79.5430  223.3660 C   0  0  0  0  0  0  0  0  0  0  0  0
  140.8500   80.7890  223.8120 C   0  0  0  0  0  0  0  0  0  0  0  0
  142.1800   81.1460  223.8530 C   0  0  0  0  0  0  0  0  0  0  0  0
  142.5520   82.3740  224.2930 F   0  0  0  0  0  0  0  0  0  0  0  0
  143.1940   80.3030  223.4630 C   0  0  0  0  0  0  0  0  0  0  0  0
  142.8270   79.0340  223.0080 C   0  0  0  0  0  0  0  0  0  0  0  0
  141.4920   78.6910  222.9710 C   0  0  0  0  0  0  0  0  0  0  0  0
  141.1940   77.4580  222.5230 N   0  0  0  0  0  0  0  0  0  0  0  0
  141.7200   75.1670  221.8300 H   0  0  0  0  0  0  0  0  0  0  0  0
  140.1785   72.7776  221.9469 H   0  0  0  0  0  0  0  0  0  0  0  0
  139.8804   73.4288  220.2983 H   0  0  0  0  0  0  0  0  0  0  0  0
  144.5712   73.1502  222.1742 H   0  0  0  0  0  0  0  0  0  0  0  0
  144.1325   71.6930  221.3201 H   0  0  0  0  0  0  0  0  0  0  0  0
  146.2727   73.5369  220.6601 H   0  0  0  0  0  0  0  0  0  0  0  0
  145.7660   72.1678  219.6609 H   0  0  0  0  0  0  0  0  0  0  0  0
  145.5027   74.8155  218.8052 H   0  0  0  0  0  0  0  0  0  0  0  0
  144.4016   73.6299  218.2238 H   0  0  0  0  0  0  0  0  0  0  0  0
  143.9985   75.2890  220.9643 H   0  0  0  0  0  0  0  0  0  0  0  0
  142.7290   76.9180  221.1100 H   0  0  0  0  0  0  0  0  0  0  0  0
  141.6882   78.6067  220.2696 H   0  0  0  0  0  0  0  0  0  0  0  0
  143.2972   77.9727  217.9741 H   0  0  0  0  0  0  0  0  0  0  0  0
  142.8424   79.5529  218.7530 H   0  0  0  0  0  0  0  0  0  0  0  0
  141.3386   77.9827  216.6503 H   0  0  0  0  0  0  0  0  0  0  0  0
  142.0414   79.6692  216.5769 H   0  0  0  0  0  0  0  0  0  0  0  0
  139.5228   79.4515  216.7879 H   0  0  0  0  0  0  0  0  0  0  0  0
  142.4041   81.7289  219.2357 H   0  0  0  0  0  0  0  0  0  0  0  0
  142.3459   82.8659  221.4569 H   0  0  0  0  0  0  0  0  0  0  0  0
  138.1543   82.5436  221.6156 H   0  0  0  0  0  0  0  0  0  0  0  0
  138.1302   81.4054  219.4186 H   0  0  0  0  0  0  0  0  0  0  0  0
  138.5855   78.4351  218.5218 H   0  0  0  0  0  0  0  0  0  0  0  0
  139.6651   79.2788  219.6925 H   0  0  0  0  0  0  0  0  0  0  0  0
  140.5168   76.8497  218.0188 H   0  0  0  0  0  0  0  0  0  0  0  0
  139.9386   76.7137  219.6752 H   0  0  0  0  0  0  0  0  0  0  0  0
  137.8307   77.4853  222.7649 H   0  0  0  0  0  0  0  0  0  0  0  0
  138.3702   79.7633  223.5947 H   0  0  0  0  0  0  0  0  0  0  0  0
  140.0805   81.5044  224.1376 H   0  0  0  0  0  0  0  0  0  0  0  0
  144.2481   80.6142  223.5073 H   0  0  0  0  0  0  0  0  0  0  0  0
  143.5947   78.3164  222.6828 H   0  0  0  0  0  0  0  0  0  0  0  0
  1  2  2  0
  2  3  1  0
  3  4  1  0
  4  5  1  0
  5  6  2  0
  5  7  1  0
  7  8  1  0
  8  9  1  0
  9 10  1  0
 10 11  1  0
 11 12  1  0
 12 13  2  0
 12 14  1  0
 14 15  1  0
 15 16  1  0
 16 17  1  0
 17 18  1  0
 18 19  1  0
 19 20  1  0
 20 21  2  0
 21 22  1  0
 22 23  2  0
 23 24  1  0
 24 25  2  0
 18 26  1  0
 26 27  1  0
  2 28  1  0
 28 29  2  0
 29 30  1  0
 30 31  2  0
 31 32  1  0
 32 33  2  0
 33 34  1  0
 33 35  1  0
 35 36  2  0
 36 37  1  0
 37 38  2  0
 11  7  1  0
 27 15  1  0
 38 28  1  0
 25 20  1  0
 37 31  1  0
  3 39  1  0
  4 40  1  0
  4 41  1  0
  8 42  1  0
  8 43  1  0
  9 44  1  0
  9 45  1  0
 10 46  1  0
 10 47  1  0
 11 48  1  1
 14 49  1  0
 15 50  1  1
 16 51  1  0
 16 52  1  0
 17 53  1  0
 17 54  1  0
 18 55  1  6
 21 56  1  0
 22 57  1  0
 24 58  1  0
 25 59  1  0
 26 60  1  0
 26 61  1  0
 27 62  1  0
 27 63  1  0
 29 64  1  0
 30 65  1  0
 32 66  1  0
 35 67  1  0
 36 68  1  0
M  END
>  <smiles>  (16) 
O=C(NCC(=O)N1CCC[C@H]1C(=O)N[C@H]1CC[C@H](Oc2ccncc2)CC1)c1ccc2cc(F)ccc2n1

>  <score_type>  (16) 
oracle

>  <origin>  (16) 
autodockgpu

>  <m_score__min__energy>  (16) 
-9.4700000000000006

>  <m_primary>  (16) 
energy

>  <rmsd>  (16) 
7.055917764560505

>  <m_score__min__rmsd>  (16) 
7.055917764560505

>  <meeko>  (16) 
{"free_energy": -6.72, "intermolecular_energy": -9.1, "internal_energy": -5.05, "cluster_size": 2, "cluster_id": 15, "rank_in_cluster": 1}

>  <energy>  (16) 
-8.04

>  <cluster_rmsd>  (16) 
1.3

>  <cluster>  (16) 
3

$$$$

     RDKit          3D

 68 72  0  0  0  0  0  0  0  0999 V2000
  139.9450   71.5000  221.6230 O   0  0  0  0  0  0  0  0  0  0  0  0
  139.2820   71.6810  222.6910 C   0  0  0  0  0  0  0  0  0  0  0  0
  138.0570   72.3650  222.6770 N   0  0  0  0  0  0  0  0  0  0  0  0
  137.4630   72.9070  221.4240 C   0  0  0  0  0  0  0  0  0  0  0  0
  138.4290   73.7790  220.7620 C   0  0  0  0  0  0  0  0  0  0  0  0
  139.0070   73.2510  219.7240 O   0  0  0  0  0  0  0  0  0  0  0  0
  138.8360   75.0820  221.0490 N   0  0  0  0  0  0  0  0  0  0  0  0
  137.8270   75.9870  221.7390 C   0  0  0  0  0  0  0  0  0  0  0  0
  138.7100   76.7820  222.6960 C   0  0  0  0  0  0  0  0  0  0  0  0
  140.1550   76.3510  222.3840 C   0  0  0  0  0  0  0  0  0  0  0  0
  139.9460   75.9330  220.9180 C   0  0  1  0  0  0  0  0  0  0  0  0
  141.2190   75.4790  220.4070 C   0  0  0  0  0  0  0  0  0  0  0  0
  142.1330   76.1090  219.8600 O   0  0  0  0  0  0  0  0  0  0  0  0
  141.4830   74.0450  220.5490 N   0  0  0  0  0  0  0  0  0  0  0  0
  142.7060   73.4780  220.0860 C   0  0  1  0  0  0  0  0  0  0  0  0
  143.9570   74.1870  220.4580 C   0  0  0  0  0  0  0  0  0  0  0  0
  145.0800   73.2350  220.8140 C   0  0  0  0  0  0  0  0  0  0  0  0
  145.2540   72.1090  219.8310 C   0  0  2  0  0  0  0  0  0  0  0  0
  145.9350   72.5180  218.6890 O   0  0  0  0  0  0  0  0  0  0  0  0
  145.4320   72.9410  217.4970 C   0  0  0  0  0  0  0  0  0  0  0  0
  145.6560   72.1260  216.3820 C   0  0  0  0  0  0  0  0  0  0  0  0
  145.1610   72.5150  215.1300 C   0  0  0  0  0  0  0  0  0  0  0  0
  144.4730   73.6570  214.9800 N   0  0  0  0  0  0  0  0  0  0  0  0
  144.2470   74.4460  216.0170 C   0  0  0  0  0  0  0  0  0  0  0  0
  144.7220   74.0980  217.2800 C   0  0  0  0  0  0  0  0  0  0  0  0
  143.9120   71.4650  219.5250 C   0  0  0  0  0  0  0  0  0  0  0  0
  142.8410   72.0020  220.4680 C   0  0  0  0  0  0  0  0  0  0  0  0
  139.7840   71.1720  223.9840 C   0  0  0  0  0  0  0  0  0  0  0  0
  140.6980   71.9220  224.7200 C   0  0  0  0  0  0  0  0  0  0  0  0
  141.1340   71.3970  225.9220 C   0  0  0  0  0  0  0  0  0  0  0  0
  140.6970   70.1830  226.3920 C   0  0  0  0  0  0  0  0  0  0  0  0
  141.0980   69.6120  227.5750 C   0  0  0  0  0  0  0  0  0  0  0  0
  140.6010   68.3840  227.9560 C   0  0  0  0  0  0  0  0  0  0  0  0
  140.9920   67.8140  229.1230 F   0  0  0  0  0  0  0  0  0  0  0  0
  139.6990   67.6730  227.2000 C   0  0  0  0  0  0  0  0  0  0  0  0
  139.2860   68.2480  225.9950 C   0  0  0  0  0  0  0  0  0  0  0  0
  139.7920   69.4770  225.6260 C   0  0  0  0  0  0  0  0  0  0  0  0
  139.3620   69.9830  224.4560 N   0  0  0  0  0  0  0  0  0  0  0  0
  137.5390   72.4990  223.5810 H   0  0  0  0  0  0  0  0  0  0  0  0
  137.2007   72.0754  220.7535 H   0  0  0  0  0  0  0  0  0  0  0  0
  136.5579   73.4826  221.6677 H   0  0  0  0  0  0  0  0  0  0  0  0
  137.3248   76.6480  221.0172 H   0  0  0  0  0  0  0  0  0  0  0  0
  137.0132   75.4412  222.2388 H   0  0  0  0  0  0  0  0  0  0  0  0
  138.5863   77.8616  222.5250 H   0  0  0  0  0  0  0  0  0  0  0  0
  138.4465   76.5896  223.7465 H   0  0  0  0  0  0  0  0  0  0  0  0
  140.8677   77.1832  222.4818 H   0  0  0  0  0  0  0  0  0  0  0  0
  140.5824   75.5843  223.0469 H   0  0  0  0  0  0  0  0  0  0  0  0
  139.6903   76.6643  220.1371 H   0  0  0  0  0  0  0  0  0  0  0  0
  140.7820   73.4180  220.9960 H   0  0  0  0  0  0  0  0  0  0  0  0
  142.6103   73.5958  218.9965 H   0  0  0  0  0  0  0  0  0  0  0  0
  143.7525   74.8313  221.3258 H   0  0  0  0  0  0  0  0  0  0  0  0
  144.2805   74.7737  219.5855 H   0  0  0  0  0  0  0  0  0  0  0  0
  144.8682   72.8027  221.8031 H   0  0  0  0  0  0  0  0  0  0  0  0
  146.0121   73.8190  220.8016 H   0  0  0  0  0  0  0  0  0  0  0  0
  145.8890   71.3377  220.2912 H   0  0  0  0  0  0  0  0  0  0  0  0
  146.2172   71.1858  216.4875 H   0  0  0  0  0  0  0  0  0  0  0  0
  145.3396   71.8728  214.2550 H   0  0  0  0  0  0  0  0  0  0  0  0
  143.6821   75.3802  215.8821 H   0  0  0  0  0  0  0  0  0  0  0  0
  144.5229   74.7690  218.1286 H   0  0  0  0  0  0  0  0  0  0  0  0
  143.9947   70.3755  219.6524 H   0  0  0  0  0  0  0  0  0  0  0  0
  143.6287   71.7024  218.4890 H   0  0  0  0  0  0  0  0  0  0  0  0
  143.1574   71.8982  221.5164 H   0  0  0  0  0  0  0  0  0  0  0  0
  141.8902   71.4561  220.3784 H   0  0  0  0  0  0  0  0  0  0  0  0
  141.0595   72.8959  224.3582 H   0  0  0  0  0  0  0  0  0  0  0  0
  141.8553   71.9710  226.5223 H   0  0  0  0  0  0  0  0  0  0  0  0
  141.8181   70.1363  228.2205 H   0  0  0  0  0  0  0  0  0  0  0  0
  139.3192   66.6946  227.5292 H   0  0  0  0  0  0  0  0  0  0  0  0
  138.5654   67.7263  225.3480 H   0  0  0  0  0  0  0  0  0  0  0  0
  1  2  2  0
  2  3  1  0
  3  4  1  0
  4  5  1  0
  5  6  2  0
  5  7  1  0
  7  8  1  0
  8  9  1  0
  9 10  1  0
 10 11  1  0
 11 12  1  0
 12 13  2  0
 12 14  1  0
 14 15  1  0
 15 16  1  0
 16 17  1  0
 17 18  1  0
 18 19  1  0
 19 20  1  0
 20 21  2  0
 21 22  1  0
 22 23  2  0
 23 24  1  0
 24 25  2  0
 18 26  1  0
 26 27  1  0
  2 28  1  0
 28 29  2  0
 29 30  1  0
 30 31  2  0
 31 32  1  0
 32 33  2  0
 33 34  1  0
 33 35  1  0
 35 36  2  0
 36 37  1  0
 37 38  2  0
 11  7  1  0
 27 15  1  0
 38 28  1  0
 25 20  1  0
 37 31  1  0
  3 39  1  0
  4 40  1  0
  4 41  1  0
  8 42  1  0
  8 43  1  0
  9 44  1  0
  9 45  1  0
 10 46  1  0
 10 47  1  0
 11 48  1  6
 14 49  1  0
 15 50  1  6
 16 51  1  0
 16 52  1  0
 17 53  1  0
 17 54  1  0
 18 55  1  1
 21 56  1  0
 22 57  1  0
 24 58  1  0
 25 59  1  0
 26 60  1  0
 26 61  1  0
 27 62  1  0
 27 63  1  0
 29 64  1  0
 30 65  1  0
 32 66  1  0
 35 67  1  0
 36 68  1  0
M  END
>  <smiles>  (17) 
O=C(NCC(=O)N1CCC[C@H]1C(=O)N[C@H]1CC[C@H](Oc2ccncc2)CC1)c1ccc2cc(F)ccc2n1

>  <score_type>  (17) 
oracle

>  <origin>  (17) 
autodockgpu

>  <m_score__min__energy>  (17) 
-9.4700000000000006

>  <m_primary>  (17) 
energy

>  <rmsd>  (17) 
5.2256526823376435

>  <m_score__min__rmsd>  (17) 
5.2256526823376435

>  <meeko>  (17) 
{"free_energy": -8.04, "intermolecular_energy": -10.43, "internal_energy": -3.72, "cluster_size": 4, "cluster_id": 3, "rank_in_cluster": 4}

>  <energy>  (17) 
-8.78

>  <cluster_rmsd>  (17) 
0.0

>  <cluster>  (17) 
4

$$$$

     RDKit          3D

 68 72  0  0  0  0  0  0  0  0999 V2000
  140.5700   77.4740  218.9760 O   0  0  0  0  0  0  0  0  0  0  0  0
  141.8390   77.4740  218.9210 C   0  0  0  0  0  0  0  0  0  0  0  0
  142.5670   78.6730  218.9660 N   0  0  0  0  0  0  0  0  0  0  0  0
  141.9050   80.0010  219.0880 C   0  0  0  0  0  0  0  0  0  0  0  0
  141.3600   80.1550  220.4340 C   0  0  0  0  0  0  0  0  0  0  0  0
  140.2550   80.8380  220.4920 O   0  0  0  0  0  0  0  0  0  0  0  0
  141.8190   79.6940  221.6680 N   0  0  0  0  0  0  0  0  0  0  0  0
  142.8500   80.5500  222.3870 C   0  0  0  0  0  0  0  0  0  0  0  0
  142.4250   80.4060  223.8450 C   0  0  0  0  0  0  0  0  0  0  0  0
  141.2700   79.3880  223.8440 C   0  0  0  0  0  0  0  0  0  0  0  0
  141.6540   78.6260  222.5650 C   0  0  1  0  0  0  0  0  0  0  0  0
  140.6710   77.5860  222.3640 C   0  0  0  0  0  0  0  0  0  0  0  0
  139.4570   77.5750  222.6060 O   0  0  0  0  0  0  0  0  0  0  0  0
  141.1750   76.3400  221.7830 N   0  0  0  0  0  0  0  0  0  0  0  0
  140.3000   75.2430  221.5330 C   0  0  1  0  0  0  0  0  0  0  0  0
  139.5060   75.2900  220.2790 C   0  0  0  0  0  0  0  0  0  0  0  0
  139.3960   73.9360  219.6090 C   0  0  0  0  0  0  0  0  0  0  0  0
  139.0320   72.8220  220.5520 C   0  0  2  0  0  0  0  0  0  0  0  0
  137.6710   72.8120  220.8420 O   0  0  0  0  0  0  0  0  0  0  0  0
  137.0210   73.3180  221.9260 C   0  0  0  0  0  0  0  0  0  0  0  0
  136.9280   74.7100  222.0260 C   0  0  0  0  0  0  0  0  0  0  0  0
  136.2700   75.2830  223.1220 C   0  0  0  0  0  0  0  0  0  0  0  0
  135.7250   74.5190  224.0800 N   0  0  0  0  0  0  0  0  0  0  0  0
  135.7970   73.2000  224.0100 C   0  0  0  0  0  0  0  0  0  0  0  0
  136.4430   72.5890  222.9380 C   0  0  0  0  0  0  0  0  0  0  0  0
  139.9040   72.8770  221.7950 C   0  0  0  0  0  0  0  0  0  0  0  0
  141.0230   73.8960  221.6110 C   0  0  0  0  0  0  0  0  0  0  0  0
  142.5870   76.2060  218.8080 C   0  0  0  0  0  0  0  0  0  0  0  0
  142.4110   75.3890  217.6940 C   0  0  0  0  0  0  0  0  0  0  0  0
  143.1360   74.2140  217.6410 C   0  0  0  0  0  0  0  0  0  0  0  0
  144.0040   73.8450  218.6390 C   0  0  0  0  0  0  0  0  0  0  0  0
  144.7470   72.6890  218.6420 C   0  0  0  0  0  0  0  0  0  0  0  0
  145.5880   72.4070  219.6960 C   0  0  0  0  0  0  0  0  0  0  0  0
  146.3260   71.2690  219.7050 F   0  0  0  0  0  0  0  0  0  0  0  0
  145.7350   73.2400  220.7810 C   0  0  0  0  0  0  0  0  0  0  0  0
  144.9830   74.4170  220.7850 C   0  0  0  0  0  0  0  0  0  0  0  0
  144.1440   74.6860  219.7240 C   0  0  0  0  0  0  0  0  0  0  0  0
  143.4420   75.8320  219.7810 N   0  0  0  0  0  0  0  0  0  0  0  0
  143.6150   78.6340  218.9130 H   0  0  0  0  0  0  0  0  0  0  0  0
  142.6413   80.7959  218.8980 H   0  0  0  0  0  0  0  0  0  0  0  0
  141.0893   80.0713  218.3534 H   0  0  0  0  0  0  0  0  0  0  0  0
  143.8684   80.1658  222.2283 H   0  0  0  0  0  0  0  0  0  0  0  0
  142.8818   81.5921  222.0363 H   0  0  0  0  0  0  0  0  0  0  0  0
  143.2627   80.0349  224.4538 H   0  0  0  0  0  0  0  0  0  0  0  0
  142.1158   81.3702  224.2748 H   0  0  0  0  0  0  0  0  0  0  0  0
  141.2842   78.7415  224.7338 H   0  0  0  0  0  0  0  0  0  0  0  0
  140.2549   79.8111  223.8663 H   0  0  0  0  0  0  0  0  0  0  0  0
  142.5706   78.0209  222.5040 H   0  0  0  0  0  0  0  0  0  0  0  0
  142.1820   76.2380  221.5380 H   0  0  0  0  0  0  0  0  0  0  0  0
  139.5709   75.3470  222.3501 H   0  0  0  0  0  0  0  0  0  0  0  0
  139.9895   75.9900  219.5817 H   0  0  0  0  0  0  0  0  0  0  0  0
  138.4886   75.6163  220.5405 H   0  0  0  0  0  0  0  0  0  0  0  0
  140.3655   73.6973  219.1474 H   0  0  0  0  0  0  0  0  0  0  0  0
  138.5851   74.0085  218.8692 H   0  0  0  0  0  0  0  0  0  0  0  0
  139.2341   71.8624  220.0537 H   0  0  0  0  0  0  0  0  0  0  0  0
  137.3690   75.3511  221.2485 H   0  0  0  0  0  0  0  0  0  0  0  0
  136.1992   76.3781  223.1981 H   0  0  0  0  0  0  0  0  0  0  0  0
  135.3451   72.5836  224.8011 H   0  0  0  0  0  0  0  0  0  0  0  0
  136.4921   71.4908  222.9000 H   0  0  0  0  0  0  0  0  0  0  0  0
  140.3429   71.8845  221.9747 H   0  0  0  0  0  0  0  0  0  0  0  0
  139.2850   73.1761  222.6537 H   0  0  0  0  0  0  0  0  0  0  0  0
  141.5806   73.6990  220.6835 H   0  0  0  0  0  0  0  0  0  0  0  0
  141.7604   73.8618  222.4265 H   0  0  0  0  0  0  0  0  0  0  0  0
  141.7197   75.6690  216.8855 H   0  0  0  0  0  0  0  0  0  0  0  0
  143.0139   73.5524  216.7707 H   0  0  0  0  0  0  0  0  0  0  0  0
  144.6699   71.9861  217.7994 H   0  0  0  0  0  0  0  0  0  0  0  0
  146.4148   72.9901  221.6089 H   0  0  0  0  0  0  0  0  0  0  0  0
  145.0592   75.1222  221.6258 H   0  0  0  0  0  0  0  0  0  0  0  0
  1  2  2  0
  2  3  1  0
  3  4  1  0
  4  5  1  0
  5  6  2  0
  5  7  1  0
  7  8  1  0
  8  9  1  0
  9 10  1  0
 10 11  1  0
 11 12  1  0
 12 13  2  0
 12 14  1  0
 14 15  1  0
 15 16  1  0
 16 17  1  0
 17 18  1  0
 18 19  1  0
 19 20  1  0
 20 21  2  0
 21 22  1  0
 22 23  2  0
 23 24  1  0
 24 25  2  0
 18 26  1  0
 26 27  1  0
  2 28  1  0
 28 29  2  0
 29 30  1  0
 30 31  2  0
 31 32  1  0
 32 33  2  0
 33 34  1  0
 33 35  1  0
 35 36  2  0
 36 37  1  0
 37 38  2  0
 11  7  1  0
 27 15  1  0
 38 28  1  0
 25 20  1  0
 37 31  1  0
  3 39  1  0
  4 40  1  0
  4 41  1  0
  8 42  1  0
  8 43  1  0
  9 44  1  0
  9 45  1  0
 10 46  1  0
 10 47  1  0
 11 48  1  1
 14 49  1  0
 15 50  1  1
 16 51  1  0
 16 52  1  0
 17 53  1  0
 17 54  1  0
 18 55  1  6
 21 56  1  0
 22 57  1  0
 24 58  1  0
 25 59  1  0
 26 60  1  0
 26 61  1  0
 27 62  1  0
 27 63  1  0
 29 64  1  0
 30 65  1  0
 32 66  1  0
 35 67  1  0
 36 68  1  0
M  END
>  <smiles>  (18) 
O=C(NCC(=O)N1CCC[C@H]1C(=O)N[C@H]1CC[C@H](Oc2ccncc2)CC1)c1ccc2cc(F)ccc2n1

>  <score_type>  (18) 
oracle

>  <origin>  (18) 
autodockgpu

>  <m_score__min__energy>  (18) 
-9.4700000000000006

>  <m_primary>  (18) 
energy

>  <rmsd>  (18) 
7.745572405965892

>  <m_score__min__rmsd>  (18) 
7.745572405965892

>  <meeko>  (18) 
{"free_energy": -7.29, "intermolecular_energy": -9.68, "internal_energy": -4.23, "cluster_size": 9, "cluster_id": 11, "rank_in_cluster": 2}

>  <energy>  (18) 
-8.68

>  <cluster_rmsd>  (18) 
0.0

>  <cluster>  (18) 
5

$$$$

     RDKit          3D

 68 72  0  0  0  0  0  0  0  0999 V2000
  139.1730   73.4660  222.4270 O   0  0  0  0  0  0  0  0  0  0  0  0
  140.0280   72.5270  222.4530 C   0  0  0  0  0  0  0  0  0  0  0  0
  140.9940   72.3980  221.4440 N   0  0  0  0  0  0  0  0  0  0  0  0
  141.0800   73.3460  220.2990 C   0  0  0  0  0  0  0  0  0  0  0  0
  141.6410   74.6150  220.7550 C   0  0  0  0  0  0  0  0  0  0  0  0
  141.2950   74.9520  221.9630 O   0  0  0  0  0  0  0  0  0  0  0  0
  142.4870   75.5250  220.1220 N   0  0  0  0  0  0  0  0  0  0  0  0
  143.6120   74.9510  219.2750 C   0  0  0  0  0  0  0  0  0  0  0  0
  143.6590   75.9250  218.1010 C   0  0  0  0  0  0  0  0  0  0  0  0
  142.6450   77.0340  218.4390 C   0  0  0  0  0  0  0  0  0  0  0  0
  142.6880   76.9070  219.9720 C   0  0  1  0  0  0  0  0  0  0  0  0
  141.7790   77.8890  220.5170 C   0  0  0  0  0  0  0  0  0  0  0  0
  141.3160   78.9190  220.0110 O   0  0  0  0  0  0  0  0  0  0  0  0
  141.3250   77.6410  221.8870 N   0  0  0  0  0  0  0  0  0  0  0  0
  140.4230   78.5360  222.5330 C   0  0  1  0  0  0  0  0  0  0  0  0
  140.9890   79.8200  223.0210 C   0  0  0  0  0  0  0  0  0  0  0  0
  140.0520   80.9890  222.7990 C   0  0  0  0  0  0  0  0  0  0  0  0
  138.6330   80.7170  223.2200 C   0  0  2  0  0  0  0  0  0  0  0  0
  138.4720   80.8220  224.5980 O   0  0  0  0  0  0  0  0  0  0  0  0
  137.3700   81.1890  225.3070 C   0  0  0  0  0  0  0  0  0  0  0  0
  136.1530   80.5960  224.9540 C   0  0  0  0  0  0  0  0  0  0  0  0
  134.9870   80.9390  225.6510 C   0  0  0  0  0  0  0  0  0  0  0  0
  135.0160   81.8280  226.6560 N   0  0  0  0  0  0  0  0  0  0  0  0
  136.1530   82.4020  227.0120 C   0  0  0  0  0  0  0  0  0  0  0  0
  137.3350   82.0910  226.3440 C   0  0  0  0  0  0  0  0  0  0  0  0
  138.1670   79.3810  222.6670 C   0  0  0  0  0  0  0  0  0  0  0  0
  139.1900   78.8330  221.6780 C   0  0  0  0  0  0  0  0  0  0  0  0
  140.0290   71.5400  223.5520 C   0  0  0  0  0  0  0  0  0  0  0  0
  139.5470   70.2520  223.3330 C   0  0  0  0  0  0  0  0  0  0  0  0
  139.5710   69.3720  224.3980 C   0  0  0  0  0  0  0  0  0  0  0  0
  140.0470   69.7310  225.6340 C   0  0  0  0  0  0  0  0  0  0  0  0
  140.0910   68.9000  226.7270 C   0  0  0  0  0  0  0  0  0  0  0  0
  140.5860   69.3590  227.9290 C   0  0  0  0  0  0  0  0  0  0  0  0
  140.6350   68.5450  229.0120 F   0  0  0  0  0  0  0  0  0  0  0  0
  141.0540   70.6410  228.1060 C   0  0  0  0  0  0  0  0  0  0  0  0
  141.0110   71.4920  226.9980 C   0  0  0  0  0  0  0  0  0  0  0  0
  140.5130   71.0190  225.8030 C   0  0  0  0  0  0  0  0  0  0  0  0
  140.4930   71.8810  224.7700 N   0  0  0  0  0  0  0  0  0  0  0  0
  141.6810   71.6060  221.4960 H   0  0  0  0  0  0  0  0  0  0  0  0
  141.7267   72.9193  219.5182 H   0  0  0  0  0  0  0  0  0  0  0  0
  140.0733   73.5174  219.8901 H   0  0  0  0  0  0  0  0  0  0  0  0
  144.5636   74.9448  219.8267 H   0  0  0  0  0  0  0  0  0  0  0  0
  143.4503   73.9050  218.9754 H   0  0  0  0  0  0  0  0  0  0  0  0
  144.6687   76.3481  217.9938 H   0  0  0  0  0  0  0  0  0  0  0  0
  143.4151   75.4276  217.1507 H   0  0  0  0  0  0  0  0  0  0  0  0
  142.9797   78.0233  218.0937 H   0  0  0  0  0  0  0  0  0  0  0  0
  141.6523   76.9369  217.9751 H   0  0  0  0  0  0  0  0  0  0  0  0
  143.5902   77.1570  220.5495 H   0  0  0  0  0  0  0  0  0  0  0  0
  141.6510   76.8010  222.4100 H   0  0  0  0  0  0  0  0  0  0  0  0
  140.1492   77.9683  223.4345 H   0  0  0  0  0  0  0  0  0  0  0  0
  141.9303   80.0161  222.4868 H   0  0  0  0  0  0  0  0  0  0  0  0
  141.1513   79.7231  224.1046 H   0  0  0  0  0  0  0  0  0  0  0  0
  140.0545   81.2371  221.7273 H   0  0  0  0  0  0  0  0  0  0  0  0
  140.4187   81.8172  223.4231 H   0  0  0  0  0  0  0  0  0  0  0  0
  137.9845   81.4935  222.7881 H   0  0  0  0  0  0  0  0  0  0  0  0
  136.1118   79.8644  224.1336 H   0  0  0  0  0  0  0  0  0  0  0  0
  134.0317   80.4718  225.3698 H   0  0  0  0  0  0  0  0  0  0  0  0
  136.1653   83.1276  227.8386 H   0  0  0  0  0  0  0  0  0  0  0  0
  138.2688   82.5819  226.6556 H   0  0  0  0  0  0  0  0  0  0  0  0
  137.2031   79.5164  222.1547 H   0  0  0  0  0  0  0  0  0  0  0  0
  138.0548   78.6689  223.4978 H   0  0  0  0  0  0  0  0  0  0  0  0
  139.4230   79.5799  220.9048 H   0  0  0  0  0  0  0  0  0  0  0  0
  138.8240   77.9426  221.1457 H   0  0  0  0  0  0  0  0  0  0  0  0
  139.1616   69.9466  222.3490 H   0  0  0  0  0  0  0  0  0  0  0  0
  139.1957   68.3486  224.2500 H   0  0  0  0  0  0  0  0  0  0  0  0
  139.7299   67.8644  226.6428 H   0  0  0  0  0  0  0  0  0  0  0  0
  141.4446   70.9810  229.0765 H   0  0  0  0  0  0  0  0  0  0  0  0
  141.3708   72.5283  227.0789 H   0  0  0  0  0  0  0  0  0  0  0  0
  1  2  2  0
  2  3  1  0
  3  4  1  0
  4  5  1  0
  5  6  2  0
  5  7  1  0
  7  8  1  0
  8  9  1  0
  9 10  1  0
 10 11  1  0
 11 12  1  0
 12 13  2  0
 12 14  1  0
 14 15  1  0
 15 16  1  0
 16 17  1  0
 17 18  1  0
 18 19  1  0
 19 20  1  0
 20 21  2  0
 21 22  1  0
 22 23  2  0
 23 24  1  0
 24 25  2  0
 18 26  1  0
 26 27  1  0
  2 28  1  0
 28 29  2  0
 29 30  1  0
 30 31  2  0
 31 32  1  0
 32 33  2  0
 33 34  1  0
 33 35  1  0
 35 36  2  0
 36 37  1  0
 37 38  2  0
 11  7  1  0
 27 15  1  0
 38 28  1  0
 25 20  1  0
 37 31  1  0
  3 39  1  0
  4 40  1  0
  4 41  1  0
  8 42  1  0
  8 43  1  0
  9 44  1  0
  9 45  1  0
 10 46  1  0
 10 47  1  0
 11 48  1  1
 14 49  1  0
 15 50  1  1
 16 51  1  0
 16 52  1  0
 17 53  1  0
 17 54  1  0
 18 55  1  6
 21 56  1  0
 22 57  1  0
 24 58  1  0
 25 59  1  0
 26 60  1  0
 26 61  1  0
 27 62  1  0
 27 63  1  0
 29 64  1  0
 30 65  1  0
 32 66  1  0
 35 67  1  0
 36 68  1  0
M  END
>  <smiles>  (19) 
O=C(NCC(=O)N1CCC[C@H]1C(=O)N[C@H]1CC[C@H](Oc2ccncc2)CC1)c1ccc2cc(F)ccc2n1

>  <score_type>  (19) 
oracle

>  <origin>  (19) 
autodockgpu

>  <m_score__min__energy>  (19) 
-9.4700000000000006

>  <m_primary>  (19) 
energy

>  <rmsd>  (19) 
2.5608386152126603

>  <m_score__min__rmsd>  (19) 
2.5608386152126603

>  <meeko>  (19) 
{"free_energy": -9.45, "intermolecular_energy": -11.84, "internal_energy": -2.21, "cluster_size": 7, "cluster_id": 1, "rank_in_cluster": 2}

>  <energy>  (19) 
-8.49

>  <cluster_rmsd>  (19) 
1.21

>  <cluster>  (19) 
5

$$$$

     RDKit          3D

 68 72  0  0  0  0  0  0  0  0999 V2000
  140.6310   77.4890  218.6050 O   0  0  0  0  0  0  0  0  0  0  0  0
  141.8970   77.5200  218.7040 C   0  0  0  0  0  0  0  0  0  0  0  0
  142.5780   78.7290  218.9150 N   0  0  0  0  0  0  0  0  0  0  0  0
  141.8670   80.0320  219.0390 C   0  0  0  0  0  0  0  0  0  0  0  0
  141.2970   80.1520  220.3780 C   0  0  0  0  0  0  0  0  0  0  0  0
  140.1930   80.8370  220.4330 O   0  0  0  0  0  0  0  0  0  0  0  0
  141.7310   79.6570  221.6080 N   0  0  0  0  0  0  0  0  0  0  0  0
  142.6870   80.5290  222.4070 C   0  0  0  0  0  0  0  0  0  0  0  0
  142.2130   80.2960  223.8380 C   0  0  0  0  0  0  0  0  0  0  0  0
  141.1130   79.2230  223.7440 C   0  0  0  0  0  0  0  0  0  0  0  0
  141.5860   78.5410  222.4480 C   0  0  1  0  0  0  0  0  0  0  0  0
  140.6670   77.4650  222.1600 C   0  0  0  0  0  0  0  0  0  0  0  0
  139.4320   77.4240  222.2400 O   0  0  0  0  0  0  0  0  0  0  0  0
  141.2770   76.2150  221.7010 N   0  0  0  0  0  0  0  0  0  0  0  0
  140.4730   75.0820  221.3820 C   0  0  1  0  0  0  0  0  0  0  0  0
  139.3600   74.7660  222.3130 C   0  0  0  0  0  0  0  0  0  0  0  0
  138.1080   74.3150  221.5910 C   0  0  0  0  0  0  0  0  0  0  0  0
  138.3610   73.2810  220.5270 C   0  0  2  0  0  0  0  0  0  0  0  0
  138.5310   72.0110  221.0690 O   0  0  0  0  0  0  0  0  0  0  0  0
  138.9120   71.6600  222.3280 C   0  0  0  0  0  0  0  0  0  0  0  0
  140.2630   71.8160  222.6570 C   0  0  0  0  0  0  0  0  0  0  0  0
  140.7080   71.4700  223.9390 C   0  0  0  0  0  0  0  0  0  0  0  0
  139.8590   70.9890  224.8620 N   0  0  0  0  0  0  0  0  0  0  0  0
  138.5770   70.8320  224.5780 C   0  0  0  0  0  0  0  0  0  0  0  0
  138.0930   71.1640  223.3150 C   0  0  0  0  0  0  0  0  0  0  0  0
  139.5200   73.7090  219.6420 C   0  0  0  0  0  0  0  0  0  0  0  0
  139.9220   75.1460  219.9560 C   0  0  0  0  0  0  0  0  0  0  0  0
  142.6910   76.2790  218.6030 C   0  0  0  0  0  0  0  0  0  0  0  0
  142.7930   75.6150  217.3830 C   0  0  0  0  0  0  0  0  0  0  0  0
  143.5480   74.4580  217.3460 C   0  0  0  0  0  0  0  0  0  0  0  0
  144.1810   73.9630  218.4590 C   0  0  0  0  0  0  0  0  0  0  0  0
  144.9400   72.8170  218.4820 C   0  0  0  0  0  0  0  0  0  0  0  0
  145.5330   72.4010  219.6540 C   0  0  0  0  0  0  0  0  0  0  0  0
  146.2850   71.2730  219.6850 F   0  0  0  0  0  0  0  0  0  0  0  0
  145.4080   73.0850  220.8420 C   0  0  0  0  0  0  0  0  0  0  0  0
  144.6370   74.2510  220.8260 C   0  0  0  0  0  0  0  0  0  0  0  0
  144.0490   74.6550  219.6460 C   0  0  0  0  0  0  0  0  0  0  0  0
  143.3170   75.7820  219.6870 N   0  0  0  0  0  0  0  0  0  0  0  0
  143.6250   78.7160  218.9870 H   0  0  0  0  0  0  0  0  0  0  0  0
  142.5771   80.8545  218.8681 H   0  0  0  0  0  0  0  0  0  0  0  0
  141.0607   80.0814  218.2924 H   0  0  0  0  0  0  0  0  0  0  0  0
  143.7295   80.2041  222.2739 H   0  0  0  0  0  0  0  0  0  0  0  0
  142.6784   81.5867  222.1049 H   0  0  0  0  0  0  0  0  0  0  0  0
  143.0442   79.9391  224.4639 H   0  0  0  0  0  0  0  0  0  0  0  0
  141.8376   81.2226  224.2969 H   0  0  0  0  0  0  0  0  0  0  0  0
  141.1259   78.5372  224.6039 H   0  0  0  0  0  0  0  0  0  0  0  0
  140.0773   79.5934  223.7433 H   0  0  0  0  0  0  0  0  0  0  0  0
  142.5340   77.9853  222.3978 H   0  0  0  0  0  0  0  0  0  0  0  0
  142.3100   76.1360  221.5960 H   0  0  0  0  0  0  0  0  0  0  0  0
  141.1936   74.2579  221.4894 H   0  0  0  0  0  0  0  0  0  0  0  0
  139.1240   75.6667  222.8987 H   0  0  0  0  0  0  0  0  0  0  0  0
  139.6896   73.9380  222.9578 H   0  0  0  0  0  0  0  0  0  0  0  0
  137.6446   75.1934  221.1181 H   0  0  0  0  0  0  0  0  0  0  0  0
  137.4544   73.8486  222.3428 H   0  0  0  0  0  0  0  0  0  0  0  0
  137.4690   73.2116  219.8870 H   0  0  0  0  0  0  0  0  0  0  0  0
  140.9717   72.2083  221.9128 H   0  0  0  0  0  0  0  0  0  0  0  0
  141.7707   71.5942  224.1944 H   0  0  0  0  0  0  0  0  0  0  0  0
  137.8906   70.4379  225.3419 H   0  0  0  0  0  0  0  0  0  0  0  0
  137.0231   71.0252  223.1005 H   0  0  0  0  0  0  0  0  0  0  0  0
  139.2163   73.6393  218.5871 H   0  0  0  0  0  0  0  0  0  0  0  0
  140.3783   73.0475  219.8311 H   0  0  0  0  0  0  0  0  0  0  0  0
  139.0499   75.8145  219.9050 H   0  0  0  0  0  0  0  0  0  0  0  0
  140.6561   75.5430  219.2394 H   0  0  0  0  0  0  0  0  0  0  0  0
  142.2911   75.9974  216.4820 H   0  0  0  0  0  0  0  0  0  0  0  0
  143.6449   73.9161  216.3936 H   0  0  0  0  0  0  0  0  0  0  0  0
  145.0744   72.2301  217.5614 H   0  0  0  0  0  0  0  0  0  0  0  0
  145.8933   72.7299  221.7631 H   0  0  0  0  0  0  0  0  0  0  0  0
  144.5008   74.8400  221.7450 H   0  0  0  0  0  0  0  0  0  0  0  0
  1  2  2  0
  2  3  1  0
  3  4  1  0
  4  5  1  0
  5  6  2  0
  5  7  1  0
  7  8  1  0
  8  9  1  0
  9 10  1  0
 10 11  1  0
 11 12  1  0
 12 13  2  0
 12 14  1  0
 14 15  1  0
 15 16  1  0
 16 17  1  0
 17 18  1  0
 18 19  1  0
 19 20  1  0
 20 21  2  0
 21 22  1  0
 22 23  2  0
 23 24  1  0
 24 25  2  0
 18 26  1  0
 26 27  1  0
  2 28  1  0
 28 29  2  0
 29 30  1  0
 30 31  2  0
 31 32  1  0
 32 33  2  0
 33 34  1  0
 33 35  1  0
 35 36  2  0
 36 37  1  0
 37 38  2  0
 11  7  1  0
 27 15  1  0
 38 28  1  0
 25 20  1  0
 37 31  1  0
  3 39  1  0
  4 40  1  0
  4 41  1  0
  8 42  1  0
  8 43  1  0
  9 44  1  0
  9 45  1  0
 10 46  1  0
 10 47  1  0
 11 48  1  1
 14 49  1  0
 15 50  1  6
 16 51  1  0
 16 52  1  0
 17 53  1  0
 17 54  1  0
 18 55  1  6
 21 56  1  0
 22 57  1  0
 24 58  1  0
 25 59  1  0
 26 60  1  0
 26 61  1  0
 27 62  1  0
 27 63  1  0
 29 64  1  0
 30 65  1  0
 32 66  1  0
 35 67  1  0
 36 68  1  0
M  END
>  <smiles>  (20) 
O=C(NCC(=O)N1CCC[C@H]1C(=O)N[C@H]1CC[C@H](Oc2ccncc2)CC1)c1ccc2cc(F)ccc2n1

>  <score_type>  (20) 
oracle

>  <origin>  (20) 
autodockgpu

>  <m_score__min__energy>  (20) 
-9.4700000000000006

>  <m_primary>  (20) 
energy

>  <rmsd>  (20) 
7.691130827758399

>  <m_score__min__rmsd>  (20) 
7.691130827758399

>  <meeko>  (20) 
{"free_energy": -7.42, "intermolecular_energy": -9.8, "internal_energy": -3.71, "cluster_size": 9, "cluster_id": 11, "rank_in_cluster": 1}

>  <energy>  (20) 
-8.6

>  <cluster_rmsd>  (20) 
0.0

>  <cluster>  (20) 
6

$$$$

     RDKit          3D

 68 72  0  0  0  0  0  0  0  0999 V2000
  138.3960   72.5170  222.0210 O   0  0  0  0  0  0  0  0  0  0  0  0
  139.4740   72.2840  222.6510 C   0  0  0  0  0  0  0  0  0  0  0  0
  140.6600   72.9640  222.3350 N   0  0  0  0  0  0  0  0  0  0  0  0
  140.7250   73.9920  221.2590 C   0  0  0  0  0  0  0  0  0  0  0  0
  142.1040   74.1350  220.8020 C   0  0  0  0  0  0  0  0  0  0  0  0
  142.9070   73.1980  221.2120 O   0  0  0  0  0  0  0  0  0  0  0  0
  142.7090   75.1020  219.9990 N   0  0  0  0  0  0  0  0  0  0  0  0
  143.8490   74.6440  219.1030 C   0  0  0  0  0  0  0  0  0  0  0  0
  143.6160   75.4690  217.8410 C   0  0  0  0  0  0  0  0  0  0  0  0
  142.4430   76.4110  218.1700 C   0  0  0  0  0  0  0  0  0  0  0  0
  142.6340   76.4710  219.6950 C   0  0  1  0  0  0  0  0  0  0  0  0
  141.6040   77.3320  220.2300 C   0  0  0  0  0  0  0  0  0  0  0  0
  140.8370   78.1150  219.6560 O   0  0  0  0  0  0  0  0  0  0  0  0
  141.4290   77.2830  221.6840 N   0  0  0  0  0  0  0  0  0  0  0  0
  140.4420   78.0830  222.3290 C   0  0  1  0  0  0  0  0  0  0  0  0
  140.6060   79.5560  222.2320 C   0  0  0  0  0  0  0  0  0  0  0  0
  139.2880   80.2750  222.0340 C   0  0  0  0  0  0  0  0  0  0  0  0
  138.2000   79.8150  222.9660 C   0  0  2  0  0  0  0  0  0  0  0  0
  138.3360   80.3700  224.2350 O   0  0  0  0  0  0  0  0  0  0  0  0
  137.5570   81.3000  224.8520 C   0  0  0  0  0  0  0  0  0  0  0  0
  137.0960   82.3680  224.0760 C   0  0  0  0  0  0  0  0  0  0  0  0
  136.2910   83.3540  224.6620 C   0  0  0  0  0  0  0  0  0  0  0  0
  135.9520   83.2910  225.9590 N   0  0  0  0  0  0  0  0  0  0  0  0
  136.3730   82.2920  226.7160 C   0  0  0  0  0  0  0  0  0  0  0  0
  137.1760   81.2910  226.1740 C   0  0  0  0  0  0  0  0  0  0  0  0
  138.1310   78.2980  222.9860 C   0  0  0  0  0  0  0  0  0  0  0  0
  139.0220   77.7140  221.8950 C   0  0  0  0  0  0  0  0  0  0  0  0
  139.5080   71.2880  223.7410 C   0  0  0  0  0  0  0  0  0  0  0  0
  138.8340   70.0780  223.6000 C   0  0  0  0  0  0  0  0  0  0  0  0
  138.8990   69.1840  224.6520 C   0  0  0  0  0  0  0  0  0  0  0  0
  139.5970   69.4570  225.8020 C   0  0  0  0  0  0  0  0  0  0  0  0
  139.6930   68.6100  226.8790 C   0  0  0  0  0  0  0  0  0  0  0  0
  140.4170   68.9800  227.9910 C   0  0  0  0  0  0  0  0  0  0  0  0
  140.5180   68.1480  229.0580 F   0  0  0  0  0  0  0  0  0  0  0  0
  141.0700   70.1870  228.0930 C   0  0  0  0  0  0  0  0  0  0  0  0
  140.9760   71.0540  227.0020 C   0  0  0  0  0  0  0  0  0  0  0  0
  140.2480   70.6710  225.8950 C   0  0  0  0  0  0  0  0  0  0  0  0
  140.1890   71.5450  224.8750 N   0  0  0  0  0  0  0  0  0  0  0  0
  141.5330   72.7410  222.8750 H   0  0  0  0  0  0  0  0  0  0  0  0
  140.0903   73.6807  220.4162 H   0  0  0  0  0  0  0  0  0  0  0  0
  140.3683   74.9555  221.6519 H   0  0  0  0  0  0  0  0  0  0  0  0
  144.8266   74.8710  219.5534 H   0  0  0  0  0  0  0  0  0  0  0  0
  143.8632   73.5585  218.9254 H   0  0  0  0  0  0  0  0  0  0  0  0
  144.5160   76.0499  217.5909 H   0  0  0  0  0  0  0  0  0  0  0  0
  143.3930   74.8303  216.9737 H   0  0  0  0  0  0  0  0  0  0  0  0
  142.5564   77.3977  217.6972 H   0  0  0  0  0  0  0  0  0  0  0  0
  141.4517   76.0859  217.8211 H   0  0  0  0  0  0  0  0  0  0  0  0
  143.5171   76.9422  220.1513 H   0  0  0  0  0  0  0  0  0  0  0  0
  142.0210   76.6570  222.2680 H   0  0  0  0  0  0  0  0  0  0  0  0
  140.6070   77.8333  223.3875 H   0  0  0  0  0  0  0  0  0  0  0  0
  141.2628   79.7823  221.3791 H   0  0  0  0  0  0  0  0  0  0  0  0
  141.0388   79.9070  223.1804 H   0  0  0  0  0  0  0  0  0  0  0  0
  138.9530   80.1068  220.9998 H   0  0  0  0  0  0  0  0  0  0  0  0
  139.4672   81.3385  222.2505 H   0  0  0  0  0  0  0  0  0  0  0  0
  137.2350   80.1814  222.5857 H   0  0  0  0  0  0  0  0  0  0  0  0
  137.3638   82.4338  223.0111 H   0  0  0  0  0  0  0  0  0  0  0  0
  135.9311   84.1934  224.0489 H   0  0  0  0  0  0  0  0  0  0  0  0
  136.0881   82.2512  227.7777 H   0  0  0  0  0  0  0  0  0  0  0  0
  137.5154   80.4694  226.8219 H   0  0  0  0  0  0  0  0  0  0  0  0
  137.0920   77.9796  222.8153 H   0  0  0  0  0  0  0  0  0  0  0  0
  138.4796   77.9365  223.9647 H   0  0  0  0  0  0  0  0  0  0  0  0
  138.7848   78.1601  220.9179 H   0  0  0  0  0  0  0  0  0  0  0  0
  138.8869   76.6286  221.7782 H   0  0  0  0  0  0  0  0  0  0  0  0
  138.2706   69.8422  222.6852 H   0  0  0  0  0  0  0  0  0  0  0  0
  138.3738   68.2214  224.5648 H   0  0  0  0  0  0  0  0  0  0  0  0
  139.1897   67.6322  226.8535 H   0  0  0  0  0  0  0  0  0  0  0  0
  141.6407   70.4570  228.9938 H   0  0  0  0  0  0  0  0  0  0  0  0
  141.4777   72.0327  227.0255 H   0  0  0  0  0  0  0  0  0  0  0  0
  1  2  2  0
  2  3  1  0
  3  4  1  0
  4  5  1  0
  5  6  2  0
  5  7  1  0
  7  8  1  0
  8  9  1  0
  9 10  1  0
 10 11  1  0
 11 12  1  0
 12 13  2  0
 12 14  1  0
 14 15  1  0
 15 16  1  0
 16 17  1  0
 17 18  1  0
 18 19  1  0
 19 20  1  0
 20 21  2  0
 21 22  1  0
 22 23  2  0
 23 24  1  0
 24 25  2  0
 18 26  1  0
 26 27  1  0
  2 28  1  0
 28 29  2  0
 29 30  1  0
 30 31  2  0
 31 32  1  0
 32 33  2  0
 33 34  1  0
 33 35  1  0
 35 36  2  0
 36 37  1  0
 37 38  2  0
 11  7  1  0
 27 15  1  0
 38 28  1  0
 25 20  1  0
 37 31  1  0
  3 39  1  0
  4 40  1  0
  4 41  1  0
  8 42  1  0
  8 43  1  0
  9 44  1  0
  9 45  1  0
 10 46  1  0
 10 47  1  0
 11 48  1  6
 14 49  1  0
 15 50  1  1
 16 51  1  0
 16 52  1  0
 17 53  1  0
 17 54  1  0
 18 55  1  6
 21 56  1  0
 22 57  1  0
 24 58  1  0
 25 59  1  0
 26 60  1  0
 26 61  1  0
 27 62  1  0
 27 63  1  0
 29 64  1  0
 30 65  1  0
 32 66  1  0
 35 67  1  0
 36 68  1  0
M  END
>  <smiles>  (21) 
O=C(NCC(=O)N1CCC[C@H]1C(=O)N[C@H]1CC[C@H](Oc2ccncc2)CC1)c1ccc2cc(F)ccc2n1

>  <score_type>  (21) 
oracle

>  <origin>  (21) 
autodockgpu

>  <m_score__min__energy>  (21) 
-9.4700000000000006

>  <m_primary>  (21) 
energy

>  <rmsd>  (21) 
2.681606282791279

>  <m_score__min__rmsd>  (21) 
2.681606282791279

>  <meeko>  (21) 
{"free_energy": -8.41, "intermolecular_energy": -10.79, "internal_energy": -2.56, "cluster_size": 7, "cluster_id": 1, "rank_in_cluster": 6}

>  <energy>  (21) 
-8.6

>  <cluster_rmsd>  (21) 
0.12

>  <cluster>  (21) 
6

$$$$

     RDKit          3D

 68 72  0  0  0  0  0  0  0  0999 V2000
  137.6410   69.5670  222.1590 O   0  0  0  0  0  0  0  0  0  0  0  0
  138.0020   70.2250  223.1840 C   0  0  0  0  0  0  0  0  0  0  0  0
  137.7440   71.6000  223.2900 N   0  0  0  0  0  0  0  0  0  0  0  0
  137.0340   72.3610  222.2260 C   0  0  0  0  0  0  0  0  0  0  0  0
  137.8550   73.4920  221.8020 C   0  0  0  0  0  0  0  0  0  0  0  0
  137.1990   74.6040  221.6460 O   0  0  0  0  0  0  0  0  0  0  0  0
  139.2210   73.5860  221.5380 N   0  0  0  0  0  0  0  0  0  0  0  0
  139.9580   72.2910  221.2320 C   0  0  0  0  0  0  0  0  0  0  0  0
  140.9410   72.7290  220.1510 C   0  0  0  0  0  0  0  0  0  0  0  0
  140.7660   74.2540  220.0220 C   0  0  0  0  0  0  0  0  0  0  0  0
  140.2530   74.5340  221.4440 C   0  0  1  0  0  0  0  0  0  0  0  0
  140.0140   75.9560  221.5500 C   0  0  0  0  0  0  0  0  0  0  0  0
  139.0310   76.6290  221.2140 O   0  0  0  0  0  0  0  0  0  0  0  0
  141.1000   76.7390  222.1450 N   0  0  0  0  0  0  0  0  0  0  0  0
  140.9810   78.1500  222.3060 C   0  0  1  0  0  0  0  0  0  0  0  0
  141.2310   78.6930  223.6650 C   0  0  0  0  0  0  0  0  0  0  0  0
  141.9960   80.0000  223.6370 C   0  0  0  0  0  0  0  0  0  0  0  0
  141.4610   80.9940  222.6420 C   0  0  2  0  0  0  0  0  0  0  0  0
  140.3270   81.6440  223.1190 O   0  0  0  0  0  0  0  0  0  0  0  0
  139.0920   81.1330  223.3810 C   0  0  0  0  0  0  0  0  0  0  0  0
  138.4430   80.4590  222.3400 C   0  0  0  0  0  0  0  0  0  0  0  0
  137.1700   79.9150  222.5560 C   0  0  0  0  0  0  0  0  0  0  0  0
  136.5600   80.0280  223.7460 N   0  0  0  0  0  0  0  0  0  0  0  0
  137.1510   80.6590  224.7460 C   0  0  0  0  0  0  0  0  0  0  0  0
  138.4160   81.2160  224.5750 C   0  0  0  0  0  0  0  0  0  0  0  0
  141.2410   80.3250  221.2960 C   0  0  0  0  0  0  0  0  0  0  0  0
  141.8360   78.9220  221.2990 C   0  0  0  0  0  0  0  0  0  0  0  0
  138.7050   69.5570  224.2970 C   0  0  0  0  0  0  0  0  0  0  0  0
  138.8030   68.1680  224.3270 C   0  0  0  0  0  0  0  0  0  0  0  0
  139.4710   67.5970  225.3930 C   0  0  0  0  0  0  0  0  0  0  0  0
  140.0250   68.3510  226.3980 C   0  0  0  0  0  0  0  0  0  0  0  0
  140.6960   67.8380  227.4820 C   0  0  0  0  0  0  0  0  0  0  0  0
  141.2130   68.6810  228.4400 C   0  0  0  0  0  0  0  0  0  0  0  0
  141.8780   68.1830  229.5120 F   0  0  0  0  0  0  0  0  0  0  0  0
  141.0950   70.0500  228.3770 C   0  0  0  0  0  0  0  0  0  0  0  0
  140.4140   70.5790  227.2770 C   0  0  0  0  0  0  0  0  0  0  0  0
  139.9010   69.7230  226.3250 C   0  0  0  0  0  0  0  0  0  0  0  0
  139.2530   70.2850  225.2900 N   0  0  0  0  0  0  0  0  0  0  0  0
  138.0620   72.1110  224.1510 H   0  0  0  0  0  0  0  0  0  0  0  0
  136.8478   71.7009  221.3660 H   0  0  0  0  0  0  0  0  0  0  0  0
  136.0761   72.7320  222.6194 H   0  0  0  0  0  0  0  0  0  0  0  0
  140.4845   71.9120  222.1203 H   0  0  0  0  0  0  0  0  0  0  0  0
  139.2966   71.4688  220.9213 H   0  0  0  0  0  0  0  0  0  0  0  0
  141.9716   72.4849  220.4481 H   0  0  0  0  0  0  0  0  0  0  0  0
  140.7503   72.2162  219.1967 H   0  0  0  0  0  0  0  0  0  0  0  0
  141.7171   74.7660  219.8142 H   0  0  0  0  0  0  0  0  0  0  0  0
  140.1200   74.5971  219.2004 H   0  0  0  0  0  0  0  0  0  0  0  0
  140.8914   74.3915  222.3284 H   0  0  0  0  0  0  0  0  0  0  0  0
  141.9760   76.2740  222.4640 H   0  0  0  0  0  0  0  0  0  0  0  0
  139.9093   78.3084  222.1153 H   0  0  0  0  0  0  0  0  0  0  0  0
  141.8132   77.9559  224.2375 H   0  0  0  0  0  0  0  0  0  0  0  0
  140.2540   78.8881  224.1313 H   0  0  0  0  0  0  0  0  0  0  0  0
  143.0439   79.7834  223.3821 H   0  0  0  0  0  0  0  0  0  0  0  0
  141.8912   80.4547  224.6331 H   0  0  0  0  0  0  0  0  0  0  0  0
  142.2132   81.7830  222.4951 H   0  0  0  0  0  0  0  0  0  0  0  0
  138.9293   80.3571  221.3586 H   0  0  0  0  0  0  0  0  0  0  0  0
  136.6619   79.3862  221.7361 H   0  0  0  0  0  0  0  0  0  0  0  0
  136.6416   80.7445  225.7172 H   0  0  0  0  0  0  0  0  0  0  0  0
  138.8881   81.7378  225.4205 H   0  0  0  0  0  0  0  0  0  0  0  0
  141.7256   80.9229  220.5101 H   0  0  0  0  0  0  0  0  0  0  0  0
  140.1602   80.2548  221.1038 H   0  0  0  0  0  0  0  0  0  0  0  0
  142.8882   78.9458  221.6188 H   0  0  0  0  0  0  0  0  0  0  0  0
  141.8283   78.4604  220.3005 H   0  0  0  0  0  0  0  0  0  0  0  0
  138.3645   67.5482  223.5310 H   0  0  0  0  0  0  0  0  0  0  0  0
  139.5621   66.5017  225.4382 H   0  0  0  0  0  0  0  0  0  0  0  0
  140.8205   66.7499  227.5847 H   0  0  0  0  0  0  0  0  0  0  0  0
  141.5178   70.6996  229.1576 H   0  0  0  0  0  0  0  0  0  0  0  0
  140.2885   71.6667  227.1717 H   0  0  0  0  0  0  0  0  0  0  0  0
  1  2  2  0
  2  3  1  0
  3  4  1  0
  4  5  1  0
  5  6  2  0
  5  7  1  0
  7  8  1  0
  8  9  1  0
  9 10  1  0
 10 11  1  0
 11 12  1  0
 12 13  2  0
 12 14  1  0
 14 15  1  0
 15 16  1  0
 16 17  1  0
 17 18  1  0
 18 19  1  0
 19 20  1  0
 20 21  2  0
 21 22  1  0
 22 23  2  0
 23 24  1  0
 24 25  2  0
 18 26  1  0
 26 27  1  0
  2 28  1  0
 28 29  2  0
 29 30  1  0
 30 31  2  0
 31 32  1  0
 32 33  2  0
 33 34  1  0
 33 35  1  0
 35 36  2  0
 36 37  1  0
 37 38  2  0
 11  7  1  0
 27 15  1  0
 38 28  1  0
 25 20  1  0
 37 31  1  0
  3 39  1  0
  4 40  1  0
  4 41  1  0
  8 42  1  0
  8 43  1  0
  9 44  1  0
  9 45  1  0
 10 46  1  0
 10 47  1  0
 11 48  1  1
 14 49  1  0
 15 50  1  6
 16 51  1  0
 16 52  1  0
 17 53  1  0
 17 54  1  0
 18 55  1  6
 21 56  1  0
 22 57  1  0
 24 58  1  0
 25 59  1  0
 26 60  1  0
 26 61  1  0
 27 62  1  0
 27 63  1  0
 29 64  1  0
 30 65  1  0
 32 66  1  0
 35 67  1  0
 36 68  1  0
M  END
>  <smiles>  (22) 
O=C(NCC(=O)N1CCC[C@H]1C(=O)N[C@H]1CC[C@H](Oc2ccncc2)CC1)c1ccc2cc(F)ccc2n1

>  <score_type>  (22) 
oracle

>  <origin>  (22) 
autodockgpu

>  <m_score__min__energy>  (22) 
-9.4700000000000006

>  <m_primary>  (22) 
energy

>  <rmsd>  (22) 
2.5522481431137685

>  <m_score__min__rmsd>  (22) 
2.5522481431137685

>  <meeko>  (22) 
{"free_energy": -8.78, "intermolecular_energy": -11.17, "internal_energy": -2.28, "cluster_size": 1, "cluster_id": 4, "rank_in_cluster": 1}

>  <energy>  (22) 
-8.41

>  <cluster_rmsd>  (22) 
0.69

>  <cluster>  (22) 
6

$$$$

     RDKit          3D

 68 72  0  0  0  0  0  0  0  0999 V2000
  138.8470   72.4280  222.1920 O   0  0  0  0  0  0  0  0  0  0  0  0
  138.4300   71.5220  222.9780 C   0  0  0  0  0  0  0  0  0  0  0  0
  137.1910   70.8960  222.7700 N   0  0  0  0  0  0  0  0  0  0  0  0
  136.3060   71.2450  221.6250 C   0  0  0  0  0  0  0  0  0  0  0  0
  136.0510   72.6820  221.6230 C   0  0  0  0  0  0  0  0  0  0  0  0
  136.4750   73.3020  220.5620 O   0  0  0  0  0  0  0  0  0  0  0  0
  135.4300   73.5050  222.5620 N   0  0  0  0  0  0  0  0  0  0  0  0
  134.3090   72.8900  223.3870 C   0  0  0  0  0  0  0  0  0  0  0  0
  134.5320   73.5270  224.7560 C   0  0  0  0  0  0  0  0  0  0  0  0
  135.6780   74.5370  224.5640 C   0  0  0  0  0  0  0  0  0  0  0  0
  135.4730   74.8160  223.0650 C   0  0  1  0  0  0  0  0  0  0  0  0
  136.4760   75.7720  222.6570 C   0  0  0  0  0  0  0  0  0  0  0  0
  136.4670   77.0090  222.6990 O   0  0  0  0  0  0  0  0  0  0  0  0
  137.7050   75.2030  222.0990 N   0  0  0  0  0  0  0  0  0  0  0  0
  138.7700   76.0450  221.6640 C   0  0  1  0  0  0  0  0  0  0  0  0
  139.5930   76.6840  222.7210 C   0  0  0  0  0  0  0  0  0  0  0  0
  141.0660   76.7170  222.3700 C   0  0  0  0  0  0  0  0  0  0  0  0
  141.3450   77.1940  220.9700 C   0  0  2  0  0  0  0  0  0  0  0  0
  141.2680   78.5790  220.8700 O   0  0  0  0  0  0  0  0  0  0  0  0
  141.6080   79.5260  221.7870 C   0  0  0  0  0  0  0  0  0  0  0  0
  140.8190   80.6800  221.8400 C   0  0  0  0  0  0  0  0  0  0  0  0
  141.1260   81.6870  222.7650 C   0  0  0  0  0  0  0  0  0  0  0  0
  142.1650   81.5630  223.6060 N   0  0  0  0  0  0  0  0  0  0  0  0
  142.9260   80.4810  223.5780 C   0  0  0  0  0  0  0  0  0  0  0  0
  142.6570   79.4570  222.6740 C   0  0  0  0  0  0  0  0  0  0  0  0
  140.4430   76.4760  219.9800 C   0  0  0  0  0  0  0  0  0  0  0  0
  139.6970   75.3400  220.6720 C   0  0  0  0  0  0  0  0  0  0  0  0
  139.2410   71.1000  224.1370 C   0  0  0  0  0  0  0  0  0  0  0  0
  140.3200   71.8760  224.5530 C   0  0  0  0  0  0  0  0  0  0  0  0
  141.0440   71.4330  225.6430 C   0  0  0  0  0  0  0  0  0  0  0  0
  140.7300   70.2730  226.3070 C   0  0  0  0  0  0  0  0  0  0  0  0
  141.4150   69.7820  227.3920 C   0  0  0  0  0  0  0  0  0  0  0  0
  141.0210   68.6040  227.9870 C   0  0  0  0  0  0  0  0  0  0  0  0
  141.6910   68.1140  229.0600 F   0  0  0  0  0  0  0  0  0  0  0  0
  139.9480   67.8640  227.5470 C   0  0  0  0  0  0  0  0  0  0  0  0
  139.2460   68.3560  226.4430 C   0  0  0  0  0  0  0  0  0  0  0  0
  139.6520   69.5370  225.8570 C   0  0  0  0  0  0  0  0  0  0  0  0
  138.9430   69.9640  224.7980 N   0  0  0  0  0  0  0  0  0  0  0  0
  136.8780   70.1540  223.4430 H   0  0  0  0  0  0  0  0  0  0  0  0
  136.7965   70.9590  220.6829 H   0  0  0  0  0  0  0  0  0  0  0  0
  135.3526   70.7051  221.7227 H   0  0  0  0  0  0  0  0  0  0  0  0
  133.3221   73.1547  222.9796 H   0  0  0  0  0  0  0  0  0  0  0  0
  134.3239   71.7902  223.4032 H   0  0  0  0  0  0  0  0  0  0  0  0
  133.6199   74.0414  225.0928 H   0  0  0  0  0  0  0  0  0  0  0  0
  134.7783   72.7738  225.5189 H   0  0  0  0  0  0  0  0  0  0  0  0
  135.5439   75.4401  225.1775 H   0  0  0  0  0  0  0  0  0  0  0  0
  136.6799   74.1898  224.8566 H   0  0  0  0  0  0  0  0  0  0  0  0
  134.5743   75.3265  222.6886 H   0  0  0  0  0  0  0  0  0  0  0  0
  137.8220   74.1710  222.0160 H   0  0  0  0  0  0  0  0  0  0  0  0
  138.2235   76.8658  221.1764 H   0  0  0  0  0  0  0  0  0  0  0  0
  139.4660   76.1192  223.6564 H   0  0  0  0  0  0  0  0  0  0  0  0
  139.2516   77.7243  222.8266 H   0  0  0  0  0  0  0  0  0  0  0  0
  141.4712   75.7000  222.4774 H   0  0  0  0  0  0  0  0  0  0  0  0
  141.5430   77.4340  223.0544 H   0  0  0  0  0  0  0  0  0  0  0  0
  142.3832   76.9371  220.7127 H   0  0  0  0  0  0  0  0  0  0  0  0
  139.9626   80.7963  221.1595 H   0  0  0  0  0  0  0  0  0  0  0  0
  140.5052   82.5943  222.8026 H   0  0  0  0  0  0  0  0  0  0  0  0
  143.7747   80.3902  224.2719 H   0  0  0  0  0  0  0  0  0  0  0  0
  143.3025   78.5663  222.6689 H   0  0  0  0  0  0  0  0  0  0  0  0
  141.0549   76.0643  219.1639 H   0  0  0  0  0  0  0  0  0  0  0  0
  139.7113   77.1921  219.5777 H   0  0  0  0  0  0  0  0  0  0  0  0
  140.3990   74.6767  221.1986 H   0  0  0  0  0  0  0  0  0  0  0  0
  139.1473   74.7045  219.9621 H   0  0  0  0  0  0  0  0  0  0  0  0
  140.5861   72.8078  224.0326 H   0  0  0  0  0  0  0  0  0  0  0  0
  141.9005   72.0294  225.9905 H   0  0  0  0  0  0  0  0  0  0  0  0
  142.2818   70.3320  227.7872 H   0  0  0  0  0  0  0  0  0  0  0  0
  139.6554   66.9264  228.0422 H   0  0  0  0  0  0  0  0  0  0  0  0
  138.3792   67.8074  226.0458 H   0  0  0  0  0  0  0  0  0  0  0  0
  1  2  2  0
  2  3  1  0
  3  4  1  0
  4  5  1  0
  5  6  2  0
  5  7  1  0
  7  8  1  0
  8  9  1  0
  9 10  1  0
 10 11  1  0
 11 12  1  0
 12 13  2  0
 12 14  1  0
 14 15  1  0
 15 16  1  0
 16 17  1  0
 17 18  1  0
 18 19  1  0
 19 20  1  0
 20 21  2  0
 21 22  1  0
 22 23  2  0
 23 24  1  0
 24 25  2  0
 18 26  1  0
 26 27  1  0
  2 28  1  0
 28 29  2  0
 29 30  1  0
 30 31  2  0
 31 32  1  0
 32 33  2  0
 33 34  1  0
 33 35  1  0
 35 36  2  0
 36 37  1  0
 37 38  2  0
 11  7  1  0
 27 15  1  0
 38 28  1  0
 25 20  1  0
 37 31  1  0
  3 39  1  0
  4 40  1  0
  4 41  1  0
  8 42  1  0
  8 43  1  0
  9 44  1  0
  9 45  1  0
 10 46  1  0
 10 47  1  0
 11 48  1  1
 14 49  1  0
 15 50  1  6
 16 51  1  0
 16 52  1  0
 17 53  1  0
 17 54  1  0
 18 55  1  6
 21 56  1  0
 22 57  1  0
 24 58  1  0
 25 59  1  0
 26 60  1  0
 26 61  1  0
 27 62  1  0
 27 63  1  0
 29 64  1  0
 30 65  1  0
 32 66  1  0
 35 67  1  0
 36 68  1  0
M  END
>  <smiles>  (23) 
O=C(NCC(=O)N1CCC[C@H]1C(=O)N[C@H]1CC[C@H](Oc2ccncc2)CC1)c1ccc2cc(F)ccc2n1

>  <score_type>  (23) 
oracle

>  <origin>  (23) 
autodockgpu

>  <m_score__min__energy>  (23) 
-9.4700000000000006

>  <m_primary>  (23) 
energy

>  <rmsd>  (23) 
5.186848249401162

>  <m_score__min__rmsd>  (23) 
5.186848249401162

>  <meeko>  (23) 
{"free_energy": -7.39, "intermolecular_energy": -9.77, "internal_energy": -4.04, "cluster_size": 7, "cluster_id": 9, "rank_in_cluster": 2}

>  <energy>  (23) 
-8.49

>  <cluster_rmsd>  (23) 
0.0

>  <cluster>  (23) 
7

$$$$

     RDKit          3D

 68 72  0  0  0  0  0  0  0  0999 V2000
  138.7550   70.6060  221.4180 O   0  0  0  0  0  0  0  0  0  0  0  0
  139.1770   71.1360  222.4930 C   0  0  0  0  0  0  0  0  0  0  0  0
  139.4560   72.5090  222.5640 N   0  0  0  0  0  0  0  0  0  0  0  0
  139.2710   73.4200  221.4000 C   0  0  0  0  0  0  0  0  0  0  0  0
  140.4690   74.2360  221.2220 C   0  0  0  0  0  0  0  0  0  0  0  0
  140.9480   74.7350  222.3240 O   0  0  0  0  0  0  0  0  0  0  0  0
  141.1890   74.5710  220.0760 N   0  0  0  0  0  0  0  0  0  0  0  0
  141.6480   73.4250  219.1880 C   0  0  0  0  0  0  0  0  0  0  0  0
  141.4700   74.0110  217.7910 C   0  0  0  0  0  0  0  0  0  0  0  0
  141.0440   75.4750  218.0040 C   0  0  0  0  0  0  0  0  0  0  0  0
  141.6850   75.6890  219.3860 C   0  0  1  0  0  0  0  0  0  0  0  0
  141.3990   77.0450  219.7950 C   0  0  0  0  0  0  0  0  0  0  0  0
  141.0240   78.0200  219.1300 O   0  0  0  0  0  0  0  0  0  0  0  0
  141.5800   77.3290  221.2200 N   0  0  0  0  0  0  0  0  0  0  0  0
  141.3260   78.6290  221.7450 C   0  0  1  0  0  0  0  0  0  0  0  0
  139.9380   78.9130  222.1920 C   0  0  0  0  0  0  0  0  0  0  0  0
  139.8930   79.7350  223.4630 C   0  0  0  0  0  0  0  0  0  0  0  0
  140.8130   80.9260  223.4460 C   0  0  2  0  0  0  0  0  0  0  0  0
  140.2780   81.9840  222.7170 O   0  0  0  0  0  0  0  0  0  0  0  0
  140.5580   82.3770  221.4440 C   0  0  0  0  0  0  0  0  0  0  0  0
  140.4250   83.7380  221.1490 C   0  0  0  0  0  0  0  0  0  0  0  0
  140.7000   84.1960  219.8540 C   0  0  0  0  0  0  0  0  0  0  0  0
  141.0910   83.3510  218.8890 N   0  0  0  0  0  0  0  0  0  0  0  0
  141.2260   82.0590  219.1400 C   0  0  0  0  0  0  0  0  0  0  0  0
  140.9620   81.5620  220.4130 C   0  0  0  0  0  0  0  0  0  0  0  0
  142.1970   80.5170  222.9710 C   0  0  0  0  0  0  0  0  0  0  0  0
  142.2930   78.9980  222.8720 C   0  0  0  0  0  0  0  0  0  0  0  0
  139.3840   70.3160  223.7040 C   0  0  0  0  0  0  0  0  0  0  0  0
  138.9710   68.9870  223.7250 C   0  0  0  0  0  0  0  0  0  0  0  0
  139.1890   68.2680  224.8850 C   0  0  0  0  0  0  0  0  0  0  0  0
  139.7880   68.8240  225.9880 C   0  0  0  0  0  0  0  0  0  0  0  0
  140.0270   68.1600  227.1670 C   0  0  0  0  0  0  0  0  0  0  0  0
  140.6330   68.8100  228.2200 C   0  0  0  0  0  0  0  0  0  0  0  0
  140.8730   68.1600  229.3860 F   0  0  0  0  0  0  0  0  0  0  0  0
  141.0270   70.1260  228.1610 C   0  0  0  0  0  0  0  0  0  0  0  0
  140.7880   70.8080  226.9650 C   0  0  0  0  0  0  0  0  0  0  0  0
  140.1790   70.1460  225.9200 C   0  0  0  0  0  0  0  0  0  0  0  0
  139.9710   70.8500  224.7930 N   0  0  0  0  0  0  0  0  0  0  0  0
  139.8080   72.9100  223.4680 H   0  0  0  0  0  0  0  0  0  0  0  0
  139.0960   72.8236  220.4924 H   0  0  0  0  0  0  0  0  0  0  0  0
  138.4063   74.0750  221.5823 H   0  0  0  0  0  0  0  0  0  0  0  0
  142.6996   73.1667  219.3815 H   0  0  0  0  0  0  0  0  0  0  0  0
  141.0915   72.4900  219.3496 H   0  0  0  0  0  0  0  0  0  0  0  0
  142.4164   73.9644  217.2322 H   0  0  0  0  0  0  0  0  0  0  0  0
  140.7231   73.4517  217.2085 H   0  0  0  0  0  0  0  0  0  0  0  0
  141.4656   76.1462  217.2413 H   0  0  0  0  0  0  0  0  0  0  0  0
  139.9648   75.6771  217.9372 H   0  0  0  0  0  0  0  0  0  0  0  0
  142.7761   75.6854  219.5257 H   0  0  0  0  0  0  0  0  0  0  0  0
  141.8930   76.5810  221.8750 H   0  0  0  0  0  0  0  0  0  0  0  0
  141.4899   79.2632  220.8613 H   0  0  0  0  0  0  0  0  0  0  0  0
  139.4232   77.9577  222.3717 H   0  0  0  0  0  0  0  0  0  0  0  0
  139.4454   79.4962  221.4001 H   0  0  0  0  0  0  0  0  0  0  0  0
  140.1783   79.0878  224.3055 H   0  0  0  0  0  0  0  0  0  0  0  0
  138.8679   80.1220  223.5595 H   0  0  0  0  0  0  0  0  0  0  0  0
  140.9187   81.3005  224.4749 H   0  0  0  0  0  0  0  0  0  0  0  0
  140.1063   84.4445  221.9295 H   0  0  0  0  0  0  0  0  0  0  0  0
  140.5934   85.2666  219.6249 H   0  0  0  0  0  0  0  0  0  0  0  0
  141.5478   81.3757  218.3403 H   0  0  0  0  0  0  0  0  0  0  0  0
  141.0802   80.4845  220.5999 H   0  0  0  0  0  0  0  0  0  0  0  0
  142.9491   80.8827  223.6856 H   0  0  0  0  0  0  0  0  0  0  0  0
  142.3788   80.9534  221.9778 H   0  0  0  0  0  0  0  0  0  0  0  0
  141.9873   78.5261  223.8174 H   0  0  0  0  0  0  0  0  0  0  0  0
  143.3190   78.6544  222.6738 H   0  0  0  0  0  0  0  0  0  0  0  0
  138.4888   68.5259  222.8505 H   0  0  0  0  0  0  0  0  0  0  0  0
  138.8721   67.2154  224.9258 H   0  0  0  0  0  0  0  0  0  0  0  0
  139.7333   67.1050  227.2707 H   0  0  0  0  0  0  0  0  0  0  0  0
  141.5090   70.6201  229.0174 H   0  0  0  0  0  0  0  0  0  0  0  0
  141.0827   71.8624  226.8583 H   0  0  0  0  0  0  0  0  0  0  0  0
  1  2  2  0
  2  3  1  0
  3  4  1  0
  4  5  1  0
  5  6  2  0
  5  7  1  0
  7  8  1  0
  8  9  1  0
  9 10  1  0
 10 11  1  0
 11 12  1  0
 12 13  2  0
 12 14  1  0
 14 15  1  0
 15 16  1  0
 16 17  1  0
 17 18  1  0
 18 19  1  0
 19 20  1  0
 20 21  2  0
 21 22  1  0
 22 23  2  0
 23 24  1  0
 24 25  2  0
 18 26  1  0
 26 27  1  0
  2 28  1  0
 28 29  2  0
 29 30  1  0
 30 31  2  0
 31 32  1  0
 32 33  2  0
 33 34  1  0
 33 35  1  0
 35 36  2  0
 36 37  1  0
 37 38  2  0
 11  7  1  0
 27 15  1  0
 38 28  1  0
 25 20  1  0
 37 31  1  0
  3 39  1  0
  4 40  1  0
  4 41  1  0
  8 42  1  0
  8 43  1  0
  9 44  1  0
  9 45  1  0
 10 46  1  0
 10 47  1  0
 11 48  1  6
 14 49  1  0
 15 50  1  6
 16 51  1  0
 16 52  1  0
 17 53  1  0
 17 54  1  0
 18 55  1  1
 21 56  1  0
 22 57  1  0
 24 58  1  0
 25 59  1  0
 26 60  1  0
 26 61  1  0
 27 62  1  0
 27 63  1  0
 29 64  1  0
 30 65  1  0
 32 66  1  0
 35 67  1  0
 36 68  1  0
M  END
>  <smiles>  (24) 
O=C(NCC(=O)N1CCC[C@H]1C(=O)N[C@H]1CC[C@H](Oc2ccncc2)CC1)c1ccc2cc(F)ccc2n1

>  <score_type>  (24) 
oracle

>  <origin>  (24) 
autodockgpu

>  <m_score__min__energy>  (24) 
-9.4700000000000006

>  <m_primary>  (24) 
energy

>  <rmsd>  (24) 
2.185404459503897

>  <m_score__min__rmsd>  (24) 
2.185404459503897

>  <meeko>  (24) 
{"free_energy": -8.75, "intermolecular_energy": -11.13, "internal_energy": -3.23, "cluster_size": 5, "cluster_id": 2, "rank_in_cluster": 3}

>  <energy>  (24) 
-8.25

>  <cluster_rmsd>  (24) 
0.56

>  <cluster>  (24) 
7

$$$$

     RDKit          3D

 68 72  0  0  0  0  0  0  0  0999 V2000
  138.1990   70.3510  221.6440 O   0  0  0  0  0  0  0  0  0  0  0  0
  138.7750   70.8960  222.6360 C   0  0  0  0  0  0  0  0  0  0  0  0
  139.0910   72.2630  222.6290 N   0  0  0  0  0  0  0  0  0  0  0  0
  138.7680   73.1490  221.4770 C   0  0  0  0  0  0  0  0  0  0  0  0
  138.5650   74.5150  221.9510 C   0  0  0  0  0  0  0  0  0  0  0  0
  139.6460   75.1070  222.3640 O   0  0  0  0  0  0  0  0  0  0  0  0
  137.4120   75.2950  222.0350 N   0  0  0  0  0  0  0  0  0  0  0  0
  136.1050   74.5700  222.3180 C   0  0  0  0  0  0  0  0  0  0  0  0
  135.3870   75.5520  223.2400 C   0  0  0  0  0  0  0  0  0  0  0  0
  136.2890   76.7980  223.3040 C   0  0  0  0  0  0  0  0  0  0  0  0
  136.9880   76.6310  221.9440 C   0  0  1  0  0  0  0  0  0  0  0  0
  137.9120   77.7310  221.7900 C   0  0  0  0  0  0  0  0  0  0  0  0
  137.8860   78.6950  221.0150 O   0  0  0  0  0  0  0  0  0  0  0  0
  139.0720   77.7150  222.6850 N   0  0  0  0  0  0  0  0  0  0  0  0
  140.0520   78.7480  222.6300 C   0  0  1  0  0  0  0  0  0  0  0  0
  139.6160   80.1080  223.0370 C   0  0  0  0  0  0  0  0  0  0  0  0
  140.6710   80.8420  223.8380 C   0  0  0  0  0  0  0  0  0  0  0  0
  142.0480   80.7680  223.2370 C   0  0  2  0  0  0  0  0  0  0  0  0
  142.2010   81.6600  222.1800 O   0  0  0  0  0  0  0  0  0  0  0  0
  141.5930   81.6580  220.9620 C   0  0  0  0  0  0  0  0  0  0  0  0
  140.7010   82.7000  220.6890 C   0  0  0  0  0  0  0  0  0  0  0  0
  140.0470   82.7470  219.4510 C   0  0  0  0  0  0  0  0  0  0  0  0
  140.2630   81.8070  218.5170 N   0  0  0  0  0  0  0  0  0  0  0  0
  141.1020   80.8110  218.7480 C   0  0  0  0  0  0  0  0  0  0  0  0
  141.7720   80.7260  219.9660 C   0  0  0  0  0  0  0  0  0  0  0  0
  142.3810   79.3350  222.8580 C   0  0  0  0  0  0  0  0  0  0  0  0
  141.3210   78.3840  223.4030 C   0  0  0  0  0  0  0  0  0  0  0  0
  139.1290   70.1020  223.8290 C   0  0  0  0  0  0  0  0  0  0  0  0
  138.8560   68.7370  223.8650 C   0  0  0  0  0  0  0  0  0  0  0  0
  139.2080   68.0440  225.0080 C   0  0  0  0  0  0  0  0  0  0  0  0
  139.8050   68.6580  226.0810 C   0  0  0  0  0  0  0  0  0  0  0  0
  140.1730   68.0220  227.2420 C   0  0  0  0  0  0  0  0  0  0  0  0
  140.7640   68.7300  228.2640 C   0  0  0  0  0  0  0  0  0  0  0  0
  141.1310   68.1090  229.4120 F   0  0  0  0  0  0  0  0  0  0  0  0
  141.0180   70.0800  228.1920 C   0  0  0  0  0  0  0  0  0  0  0  0
  140.6470   70.7350  227.0140 C   0  0  0  0  0  0  0  0  0  0  0  0
  140.0550   70.0130  225.9990 C   0  0  0  0  0  0  0  0  0  0  0  0
  139.7160   70.6930  224.8890 N   0  0  0  0  0  0  0  0  0  0  0  0
  139.5720   72.6770  223.4660 H   0  0  0  0  0  0  0  0  0  0  0  0
  139.5995   73.1312  220.7571 H   0  0  0  0  0  0  0  0  0  0  0  0
  137.8496   72.7919  220.9880 H   0  0  0  0  0  0  0  0  0  0  0  0
  135.5342   74.4006  221.3931 H   0  0  0  0  0  0  0  0  0  0  0  0
  136.2397   73.5699  222.7558 H   0  0  0  0  0  0  0  0  0  0  0  0
  134.4007   75.8131  222.8289 H   0  0  0  0  0  0  0  0  0  0  0  0
  135.2168   75.1220  224.2381 H   0  0  0  0  0  0  0  0  0  0  0  0
  135.7076   77.7300  223.3613 H   0  0  0  0  0  0  0  0  0  0  0  0
  136.9507   76.8688  224.1799 H   0  0  0  0  0  0  0  0  0  0  0  0
  136.4394   76.7225  220.9950 H   0  0  0  0  0  0  0  0  0  0  0  0
  139.1950   76.9490  223.3800 H   0  0  0  0  0  0  0  0  0  0  0  0
  140.2524   78.8101  221.5502 H   0  0  0  0  0  0  0  0  0  0  0  0
  138.7073   80.0179  223.6503 H   0  0  0  0  0  0  0  0  0  0  0  0
  139.4308   80.6870  222.1202 H   0  0  0  0  0  0  0  0  0  0  0  0
  140.7084   80.4040  224.8464 H   0  0  0  0  0  0  0  0  0  0  0  0
  140.3832   81.9036  223.8514 H   0  0  0  0  0  0  0  0  0  0  0  0
  142.7785   81.0833  223.9965 H   0  0  0  0  0  0  0  0  0  0  0  0
  140.5138   83.4790  221.4428 H   0  0  0  0  0  0  0  0  0  0  0  0
  139.3451   83.5674  219.2407 H   0  0  0  0  0  0  0  0  0  0  0  0
  141.2713   80.0468  217.9751 H   0  0  0  0  0  0  0  0  0  0  0  0
  142.4649   79.8888  220.1367 H   0  0  0  0  0  0  0  0  0  0  0  0
  143.3609   79.0664  223.2796 H   0  0  0  0  0  0  0  0  0  0  0  0
  142.4071   79.2515  221.7615 H   0  0  0  0  0  0  0  0  0  0  0  0
  141.1772   78.5384  224.4826 H   0  0  0  0  0  0  0  0  0  0  0  0
  141.6004   77.3275  223.2778 H   0  0  0  0  0  0  0  0  0  0  0  0
  138.3777   68.2287  223.0148 H   0  0  0  0  0  0  0  0  0  0  0  0
  139.0029   66.9645  225.0596 H   0  0  0  0  0  0  0  0  0  0  0  0
  139.9946   66.9425  227.3553 H   0  0  0  0  0  0  0  0  0  0  0  0
  141.4921   70.6203  229.0246 H   0  0  0  0  0  0  0  0  0  0  0  0
  140.8253   71.8142  226.8980 H   0  0  0  0  0  0  0  0  0  0  0  0
  1  2  2  0
  2  3  1  0
  3  4  1  0
  4  5  1  0
  5  6  2  0
  5  7  1  0
  7  8  1  0
  8  9  1  0
  9 10  1  0
 10 11  1  0
 11 12  1  0
 12 13  2  0
 12 14  1  0
 14 15  1  0
 15 16  1  0
 16 17  1  0
 17 18  1  0
 18 19  1  0
 19 20  1  0
 20 21  2  0
 21 22  1  0
 22 23  2  0
 23 24  1  0
 24 25  2  0
 18 26  1  0
 26 27  1  0
  2 28  1  0
 28 29  2  0
 29 30  1  0
 30 31  2  0
 31 32  1  0
 32 33  2  0
 33 34  1  0
 33 35  1  0
 35 36  2  0
 36 37  1  0
 37 38  2  0
 11  7  1  0
 27 15  1  0
 38 28  1  0
 25 20  1  0
 37 31  1  0
  3 39  1  0
  4 40  1  0
  4 41  1  0
  8 42  1  0
  8 43  1  0
  9 44  1  0
  9 45  1  0
 10 46  1  0
 10 47  1  0
 11 48  1  6
 14 49  1  0
 15 50  1  6
 16 51  1  0
 16 52  1  0
 17 53  1  0
 17 54  1  0
 18 55  1  1
 21 56  1  0
 22 57  1  0
 24 58  1  0
 25 59  1  0
 26 60  1  0
 26 61  1  0
 27 62  1  0
 27 63  1  0
 29 64  1  0
 30 65  1  0
 32 66  1  0
 35 67  1  0
 36 68  1  0
M  END
>  <smiles>  (25) 
O=C(NCC(=O)N1CCC[C@H]1C(=O)N[C@H]1CC[C@H](Oc2ccncc2)CC1)c1ccc2cc(F)ccc2n1

>  <score_type>  (25) 
oracle

>  <origin>  (25) 
autodockgpu

>  <m_score__min__energy>  (25) 
-9.4700000000000006

>  <m_primary>  (25) 
energy

>  <rmsd>  (25) 
3.4441530478096265

>  <m_score__min__rmsd>  (25) 
3.4441530478096265

>  <meeko>  (25) 
{"free_energy": -8.6, "intermolecular_energy": -10.99, "internal_energy": -3.19, "cluster_size": 3, "cluster_id": 6, "rank_in_cluster": 1}

>  <energy>  (25) 
-8.03

>  <cluster_rmsd>  (25) 
0.0

>  <cluster>  (25) 
8

$$$$

     RDKit          3D

 68 72  0  0  0  0  0  0  0  0999 V2000
  140.8790   72.5820  221.4280 O   0  0  0  0  0  0  0  0  0  0  0  0
  139.9500   72.5640  222.2950 C   0  0  0  0  0  0  0  0  0  0  0  0
  138.8840   73.4730  222.2340 N   0  0  0  0  0  0  0  0  0  0  0  0
  138.7730   74.4980  221.1590 C   0  0  0  0  0  0  0  0  0  0  0  0
  139.8680   75.4560  221.2800 C   0  0  0  0  0  0  0  0  0  0  0  0
  140.5820   75.3220  222.3590 O   0  0  0  0  0  0  0  0  0  0  0  0
  140.2820   76.4880  220.4380 N   0  0  0  0  0  0  0  0  0  0  0  0
  139.3730   77.7030  220.3340 C   0  0  0  0  0  0  0  0  0  0  0  0
  140.3770   78.8480  220.2470 C   0  0  0  0  0  0  0  0  0  0  0  0
  141.7640   78.1820  220.1860 C   0  0  0  0  0  0  0  0  0  0  0  0
  141.3330   76.8380  219.5750 C   0  0  1  0  0  0  0  0  0  0  0  0
  142.5180   76.0260  219.4240 C   0  0  0  0  0  0  0  0  0  0  0  0
  143.5610   76.2410  218.7930 O   0  0  0  0  0  0  0  0  0  0  0  0
  142.4980   74.7380  220.1210 N   0  0  0  0  0  0  0  0  0  0  0  0
  143.6100   73.8500  220.0510 C   0  0  1  0  0  0  0  0  0  0  0  0
  144.0660   73.4520  218.6950 C   0  0  0  0  0  0  0  0  0  0  0  0
  145.5750   73.3830  218.5860 C   0  0  0  0  0  0  0  0  0  0  0  0
  146.2310   72.6430  219.7210 C   0  0  2  0  0  0  0  0  0  0  0  0
  146.1350   71.2640  219.5640 O   0  0  0  0  0  0  0  0  0  0  0  0
  145.0290   70.5000  219.3480 C   0  0  0  0  0  0  0  0  0  0  0  0
  145.1250   69.4930  218.3810 C   0  0  0  0  0  0  0  0  0  0  0  0
  144.0160   68.6780  218.1180 C   0  0  0  0  0  0  0  0  0  0  0  0
  142.8600   68.8460  218.7790 N   0  0  0  0  0  0  0  0  0  0  0  0
  142.7430   69.7890  219.6980 C   0  0  0  0  0  0  0  0  0  0  0  0
  143.8200   70.6220  219.9910 C   0  0  0  0  0  0  0  0  0  0  0  0
  145.6840   73.1300  221.0520 C   0  0  0  0  0  0  0  0  0  0  0  0
  144.8120   74.3640  220.8460 C   0  0  0  0  0  0  0  0  0  0  0  0
  139.9670   71.5790  223.3950 C   0  0  0  0  0  0  0  0  0  0  0  0
  139.5010   70.2840  223.1800 C   0  0  0  0  0  0  0  0  0  0  0  0
  139.5400   69.4050  224.2450 C   0  0  0  0  0  0  0  0  0  0  0  0
  140.0150   69.7730  225.4800 C   0  0  0  0  0  0  0  0  0  0  0  0
  140.0730   68.9440  226.5740 C   0  0  0  0  0  0  0  0  0  0  0  0
  140.5650   69.4110  227.7730 C   0  0  0  0  0  0  0  0  0  0  0  0
  140.6280   68.5990  228.8570 F   0  0  0  0  0  0  0  0  0  0  0  0
  141.0170   70.6990  227.9480 C   0  0  0  0  0  0  0  0  0  0  0  0
  140.9600   71.5480  226.8390 C   0  0  0  0  0  0  0  0  0  0  0  0
  140.4650   71.0670  225.6450 C   0  0  0  0  0  0  0  0  0  0  0  0
  140.4310   71.9270  224.6120 N   0  0  0  0  0  0  0  0  0  0  0  0
  138.1370   73.4310  222.9710 H   0  0  0  0  0  0  0  0  0  0  0  0
  138.8246   74.0053  220.1768 H   0  0  0  0  0  0  0  0  0  0  0  0
  137.8132   75.0265  221.2562 H   0  0  0  0  0  0  0  0  0  0  0  0
  138.7437   77.6547  219.4331 H   0  0  0  0  0  0  0  0  0  0  0  0
  138.6649   77.7984  221.1704 H   0  0  0  0  0  0  0  0  0  0  0  0
  140.1987   79.4465  219.3414 H   0  0  0  0  0  0  0  0  0  0  0  0
  140.2912   79.5295  221.1062 H   0  0  0  0  0  0  0  0  0  0  0  0
  142.4608   78.7306  219.5352 H   0  0  0  0  0  0  0  0  0  0  0  0
  142.3129   78.1245  221.1376 H   0  0  0  0  0  0  0  0  0  0  0  0
  140.9358   76.7675  218.5516 H   0  0  0  0  0  0  0  0  0  0  0  0
  141.6690   74.4520  220.6840 H   0  0  0  0  0  0  0  0  0  0  0  0
  143.1977   72.9372  220.5058 H   0  0  0  0  0  0  0  0  0  0  0  0
  143.6933   74.1882  217.9676 H   0  0  0  0  0  0  0  0  0  0  0  0
  143.6705   72.4458  218.4920 H   0  0  0  0  0  0  0  0  0  0  0  0
  145.9690   74.4098  218.5673 H   0  0  0  0  0  0  0  0  0  0  0  0
  145.8055   72.8278  217.6648 H   0  0  0  0  0  0  0  0  0  0  0  0
  147.3081   72.8660  219.7094 H   0  0  0  0  0  0  0  0  0  0  0  0
  146.0654   69.3422  217.8307 H   0  0  0  0  0  0  0  0  0  0  0  0
  144.0941   67.8874  217.3572 H   0  0  0  0  0  0  0  0  0  0  0  0
  141.7907   69.9163  220.2337 H   0  0  0  0  0  0  0  0  0  0  0  0
  143.6998   71.4001  220.7592 H   0  0  0  0  0  0  0  0  0  0  0  0
  146.5221   73.3848  221.7174 H   0  0  0  0  0  0  0  0  0  0  0  0
  145.0748   72.3323  221.5020 H   0  0  0  0  0  0  0  0  0  0  0  0
  145.3545   75.1339  220.2777 H   0  0  0  0  0  0  0  0  0  0  0  0
  144.5174   74.8335  221.7962 H   0  0  0  0  0  0  0  0  0  0  0  0
  139.1159   69.9726  222.1978 H   0  0  0  0  0  0  0  0  0  0  0  0
  139.1787   68.3763  224.0991 H   0  0  0  0  0  0  0  0  0  0  0  0
  139.7253   67.9036  226.4923 H   0  0  0  0  0  0  0  0  0  0  0  0
  141.4057   71.0449  228.9171 H   0  0  0  0  0  0  0  0  0  0  0  0
  141.3064   72.5890  226.9178 H   0  0  0  0  0  0  0  0  0  0  0  0
  1  2  2  0
  2  3  1  0
  3  4  1  0
  4  5  1  0
  5  6  2  0
  5  7  1  0
  7  8  1  0
  8  9  1  0
  9 10  1  0
 10 11  1  0
 11 12  1  0
 12 13  2  0
 12 14  1  0
 14 15  1  0
 15 16  1  0
 16 17  1  0
 17 18  1  0
 18 19  1  0
 19 20  1  0
 20 21  2  0
 21 22  1  0
 22 23  2  0
 23 24  1  0
 24 25  2  0
 18 26  1  0
 26 27  1  0
  2 28  1  0
 28 29  2  0
 29 30  1  0
 30 31  2  0
 31 32  1  0
 32 33  2  0
 33 34  1  0
 33 35  1  0
 35 36  2  0
 36 37  1  0
 37 38  2  0
 11  7  1  0
 27 15  1  0
 38 28  1  0
 25 20  1  0
 37 31  1  0
  3 39  1  0
  4 40  1  0
  4 41  1  0
  8 42  1  0
  8 43  1  0
  9 44  1  0
  9 45  1  0
 10 46  1  0
 10 47  1  0
 11 48  1  6
 14 49  1  0
 15 50  1  1
 16 51  1  0
 16 52  1  0
 17 53  1  0
 17 54  1  0
 18 55  1  1
 21 56  1  0
 22 57  1  0
 24 58  1  0
 25 59  1  0
 26 60  1  0
 26 61  1  0
 27 62  1  0
 27 63  1  0
 29 64  1  0
 30 65  1  0
 32 66  1  0
 35 67  1  0
 36 68  1  0
M  END
>  <smiles>  (26) 
O=C(NCC(=O)N1CCC[C@H]1C(=O)N[C@H]1CC[C@H](Oc2ccncc2)CC1)c1ccc2cc(F)ccc2n1

>  <score_type>  (26) 
oracle

>  <origin>  (26) 
autodockgpu

>  <m_score__min__energy>  (26) 
-9.4700000000000006

>  <m_primary>  (26) 
energy

>  <rmsd>  (26) 
4.715544587810086

>  <m_score__min__rmsd>  (26) 
4.715544587810086

>  <meeko>  (26) 
{"free_energy": -8.49, "intermolecular_energy": -10.87, "internal_energy": -3.53, "cluster_size": 2, "cluster_id": 7, "rank_in_cluster": 1}

>  <energy>  (26) 
-7.92

>  <cluster_rmsd>  (26) 
0.0

>  <cluster>  (26) 
9

$$$$

     RDKit          3D

 68 72  0  0  0  0  0  0  0  0999 V2000
  138.3350   70.3200  221.6100 O   0  0  0  0  0  0  0  0  0  0  0  0
  138.8640   70.8810  222.6200 C   0  0  0  0  0  0  0  0  0  0  0  0
  139.1360   72.2570  222.6260 N   0  0  0  0  0  0  0  0  0  0  0  0
  138.8190   73.1350  221.4660 C   0  0  0  0  0  0  0  0  0  0  0  0
  138.6050   74.5030  221.9310 C   0  0  0  0  0  0  0  0  0  0  0  0
  139.6800   75.0990  222.3570 O   0  0  0  0  0  0  0  0  0  0  0  0
  137.4490   75.2800  221.9950 N   0  0  0  0  0  0  0  0  0  0  0  0
  136.1410   74.5540  222.2640 C   0  0  0  0  0  0  0  0  0  0  0  0
  135.4080   75.5390  223.1710 C   0  0  0  0  0  0  0  0  0  0  0  0
  136.3060   76.7880  223.2400 C   0  0  0  0  0  0  0  0  0  0  0  0
  137.0230   76.6150  221.8900 C   0  0  1  0  0  0  0  0  0  0  0  0
  137.9470   77.7160  221.7410 C   0  0  0  0  0  0  0  0  0  0  0  0
  137.9310   78.6730  220.9560 O   0  0  0  0  0  0  0  0  0  0  0  0
  139.0900   77.7130  222.6560 N   0  0  0  0  0  0  0  0  0  0  0  0
  140.0680   78.7490  222.6090 C   0  0  1  0  0  0  0  0  0  0  0  0
  139.6280   80.1050  223.0250 C   0  0  0  0  0  0  0  0  0  0  0  0
  140.6820   80.8350  223.8320 C   0  0  0  0  0  0  0  0  0  0  0  0
  142.0600   80.7690  223.2290 C   0  0  2  0  0  0  0  0  0  0  0  0
  142.2090   81.6690  222.1790 O   0  0  0  0  0  0  0  0  0  0  0  0
  141.5230   81.7390  221.0050 C   0  0  0  0  0  0  0  0  0  0  0  0
  140.6570   82.8250  220.8340 C   0  0  0  0  0  0  0  0  0  0  0  0
  139.9250   82.9460  219.6450 C   0  0  0  0  0  0  0  0  0  0  0  0
  140.0410   82.0370  218.6640 N   0  0  0  0  0  0  0  0  0  0  0  0
  140.8530   81.0020  218.8000 C   0  0  0  0  0  0  0  0  0  0  0  0
  141.5980   80.8430  219.9650 C   0  0  0  0  0  0  0  0  0  0  0  0
  142.3960   79.3390  222.8400 C   0  0  0  0  0  0  0  0  0  0  0  0
  141.3380   78.3820  223.3790 C   0  0  0  0  0  0  0  0  0  0  0  0
  139.2070   70.0950  223.8220 C   0  0  0  0  0  0  0  0  0  0  0  0
  138.9210   68.7330  223.8700 C   0  0  0  0  0  0  0  0  0  0  0  0
  139.2640   68.0480  225.0200 C   0  0  0  0  0  0  0  0  0  0  0  0
  139.8630   68.6670  226.0890 C   0  0  0  0  0  0  0  0  0  0  0  0
  140.2210   68.0380  227.2570 C   0  0  0  0  0  0  0  0  0  0  0  0
  140.8160   68.7510  228.2750 C   0  0  0  0  0  0  0  0  0  0  0  0
  141.1740   68.1370  229.4300 F   0  0  0  0  0  0  0  0  0  0  0  0
  141.0820   70.0980  228.1910 C   0  0  0  0  0  0  0  0  0  0  0  0
  140.7200   70.7440  227.0060 C   0  0  0  0  0  0  0  0  0  0  0  0
  140.1250   70.0190  225.9950 C   0  0  0  0  0  0  0  0  0  0  0  0
  139.7950   70.6900  224.8780 N   0  0  0  0  0  0  0  0  0  0  0  0
  139.5780   72.6840  223.4770 H   0  0  0  0  0  0  0  0  0  0  0  0
  139.6571   73.1173  220.7537 H   0  0  0  0  0  0  0  0  0  0  0  0
  137.9070   72.7707  220.9706 H   0  0  0  0  0  0  0  0  0  0  0  0
  135.5832   74.3782  221.3324 H   0  0  0  0  0  0  0  0  0  0  0  0
  136.2723   73.5566  222.7090 H   0  0  0  0  0  0  0  0  0  0  0  0
  134.4265   75.7951  222.7454 H   0  0  0  0  0  0  0  0  0  0  0  0
  135.2256   75.1140  224.1691 H   0  0  0  0  0  0  0  0  0  0  0  0
  135.7215   77.7188  223.2845 H   0  0  0  0  0  0  0  0  0  0  0  0
  136.9560   76.8656  224.1240 H   0  0  0  0  0  0  0  0  0  0  0  0
  136.4863   76.7002  220.9336 H   0  0  0  0  0  0  0  0  0  0  0  0
  139.2040   76.9540  223.3600 H   0  0  0  0  0  0  0  0  0  0  0  0
  140.2692   78.8198  221.5299 H   0  0  0  0  0  0  0  0  0  0  0  0
  138.7191   80.0086  223.6371 H   0  0  0  0  0  0  0  0  0  0  0  0
  139.4411   80.6902  222.1125 H   0  0  0  0  0  0  0  0  0  0  0  0
  140.7209   80.3887  224.8366 H   0  0  0  0  0  0  0  0  0  0  0  0
  140.3917   81.8958  223.8547 H   0  0  0  0  0  0  0  0  0  0  0  0
  142.7912   81.0806  223.9894 H   0  0  0  0  0  0  0  0  0  0  0  0
  140.5515   83.5790  221.6279 H   0  0  0  0  0  0  0  0  0  0  0  0
  139.2442   83.7999  219.5135 H   0  0  0  0  0  0  0  0  0  0  0  0
  140.9400   80.2638  217.9892 H   0  0  0  0  0  0  0  0  0  0  0  0
  142.2668   79.9744  220.0562 H   0  0  0  0  0  0  0  0  0  0  0  0
  143.3766   79.0696  223.2594 H   0  0  0  0  0  0  0  0  0  0  0  0
  142.4219   79.2630  221.7429 H   0  0  0  0  0  0  0  0  0  0  0  0
  141.1944   78.5286  224.4597 H   0  0  0  0  0  0  0  0  0  0  0  0
  141.6194   77.3269  223.2465 H   0  0  0  0  0  0  0  0  0  0  0  0
  138.4397   68.2212  223.0235 H   0  0  0  0  0  0  0  0  0  0  0  0
  139.0500   66.9707  225.0810 H   0  0  0  0  0  0  0  0  0  0  0  0
  140.0319   66.9614  227.3798 H   0  0  0  0  0  0  0  0  0  0  0  0
  141.5584   70.6423  229.0197 H   0  0  0  0  0  0  0  0  0  0  0  0
  140.9078   71.8206  226.8808 H   0  0  0  0  0  0  0  0  0  0  0  0
  1  2  2  0
  2  3  1  0
  3  4  1  0
  4  5  1  0
  5  6  2  0
  5  7  1  0
  7  8  1  0
  8  9  1  0
  9 10  1  0
 10 11  1  0
 11 12  1  0
 12 13  2  0
 12 14  1  0
 14 15  1  0
 15 16  1  0
 16 17  1  0
 17 18  1  0
 18 19  1  0
 19 20  1  0
 20 21  2  0
 21 22  1  0
 22 23  2  0
 23 24  1  0
 24 25  2  0
 18 26  1  0
 26 27  1  0
  2 28  1  0
 28 29  2  0
 29 30  1  0
 30 31  2  0
 31 32  1  0
 32 33  2  0
 33 34  1  0
 33 35  1  0
 35 36  2  0
 36 37  1  0
 37 38  2  0
 11  7  1  0
 27 15  1  0
 38 28  1  0
 25 20  1  0
 37 31  1  0
  3 39  1  0
  4 40  1  0
  4 41  1  0
  8 42  1  0
  8 43  1  0
  9 44  1  0
  9 45  1  0
 10 46  1  0
 10 47  1  0
 11 48  1  6
 14 49  1  0
 15 50  1  6
 16 51  1  0
 16 52  1  0
 17 53  1  0
 17 54  1  0
 18 55  1  1
 21 56  1  0
 22 57  1  0
 24 58  1  0
 25 59  1  0
 26 60  1  0
 26 61  1  0
 27 62  1  0
 27 63  1  0
 29 64  1  0
 30 65  1  0
 32 66  1  0
 35 67  1  0
 36 68  1  0
M  END
>  <smiles>  (27) 
O=C(NCC(=O)N1CCC[C@H]1C(=O)N[C@H]1CC[C@H](Oc2ccncc2)CC1)c1ccc2cc(F)ccc2n1

>  <score_type>  (27) 
oracle

>  <origin>  (27) 
autodockgpu

>  <m_score__min__energy>  (27) 
-9.4700000000000006

>  <m_primary>  (27) 
energy

>  <rmsd>  (27) 
3.4183894820645353

>  <m_score__min__rmsd>  (27) 
3.4183894820645353

>  <meeko>  (27) 
{"free_energy": -8.6, "intermolecular_energy": -10.98, "internal_energy": -3.21, "cluster_size": 3, "cluster_id": 6, "rank_in_cluster": 2}

>  <energy>  (27) 
-7.39

>  <cluster_rmsd>  (27) 
1.91

>  <cluster>  (27) 
9

$$$$

     RDKit          3D

 68 72  0  0  0  0  0  0  0  0999 V2000
  139.3170   74.4460  220.8140 O   0  0  0  0  0  0  0  0  0  0  0  0
  139.4730   75.6260  220.3700 C   0  0  0  0  0  0  0  0  0  0  0  0
  139.4510   75.8910  218.9920 N   0  0  0  0  0  0  0  0  0  0  0  0
  139.2390   74.8200  217.9790 C   0  0  0  0  0  0  0  0  0  0  0  0
  140.3760   73.9040  217.9900 C   0  0  0  0  0  0  0  0  0  0  0  0
  140.0820   72.6780  217.6700 O   0  0  0  0  0  0  0  0  0  0  0  0
  141.7230   74.1170  218.2810 N   0  0  0  0  0  0  0  0  0  0  0  0
  142.4780   75.0930  217.3910 C   0  0  0  0  0  0  0  0  0  0  0  0
  143.3900   75.7980  218.3900 C   0  0  0  0  0  0  0  0  0  0  0  0
  143.1670   75.0830  219.7350 C   0  0  0  0  0  0  0  0  0  0  0  0
  142.7220   73.7180  219.1840 C   0  0  1  0  0  0  0  0  0  0  0  0
  142.4500   72.8580  220.3130 C   0  0  0  0  0  0  0  0  0  0  0  0
  143.2160   72.3940  221.1680 O   0  0  0  0  0  0  0  0  0  0  0  0
  141.0510   72.4620  220.4860 N   0  0  0  0  0  0  0  0  0  0  0  0
  140.6580   71.6180  221.5660 C   0  0  1  0  0  0  0  0  0  0  0  0
  140.3050   72.2870  222.8440 C   0  0  0  0  0  0  0  0  0  0  0  0
  139.1170   71.6430  223.5290 C   0  0  0  0  0  0  0  0  0  0  0  0
  139.1970   70.1420  223.5950 C   0  0  2  0  0  0  0  0  0  0  0  0
  140.0420   69.7120  224.6130 O   0  0  0  0  0  0  0  0  0  0  0  0
  140.2250   70.2380  225.8550 C   0  0  0  0  0  0  0  0  0  0  0  0
  141.0490   71.3640  225.9600 C   0  0  0  0  0  0  0  0  0  0  0  0
  141.2720   71.9450  227.2150 C   0  0  0  0  0  0  0  0  0  0  0  0
  140.7060   71.4400  228.3230 N   0  0  0  0  0  0  0  0  0  0  0  0
  139.9220   70.3780  228.2530 C   0  0  0  0  0  0  0  0  0  0  0  0
  139.6750   69.7690  227.0250 C   0  0  0  0  0  0  0  0  0  0  0  0
  139.5670   69.5730  222.2360 C   0  0  0  0  0  0  0  0  0  0  0  0
  139.5240   70.6680  221.1750 C   0  0  0  0  0  0  0  0  0  0  0  0
  139.6810   76.7570  221.2960 C   0  0  0  0  0  0  0  0  0  0  0  0
  138.6830   77.1110  222.2000 C   0  0  0  0  0  0  0  0  0  0  0  0
  138.9320   78.1780  223.0420 C   0  0  0  0  0  0  0  0  0  0  0  0
  140.1120   78.8790  223.0060 C   0  0  0  0  0  0  0  0  0  0  0  0
  140.4120   79.9480  223.8140 C   0  0  0  0  0  0  0  0  0  0  0  0
  141.6270   80.5880  223.6970 C   0  0  0  0  0  0  0  0  0  0  0  0
  141.9310   81.6430  224.4930 F   0  0  0  0  0  0  0  0  0  0  0  0
  142.5890   80.2090  222.7900 C   0  0  0  0  0  0  0  0  0  0  0  0
  142.2900   79.1220  221.9640 C   0  0  0  0  0  0  0  0  0  0  0  0
  141.0710   78.4920  222.0910 C   0  0  0  0  0  0  0  0  0  0  0  0
  140.8350   77.4530  221.2700 N   0  0  0  0  0  0  0  0  0  0  0  0
  139.5880   76.8780  218.6620 H   0  0  0  0  0  0  0  0  0  0  0  0
  138.3198   74.2656  218.2192 H   0  0  0  0  0  0  0  0  0  0  0  0
  139.1450   75.2739  216.9814 H   0  0  0  0  0  0  0  0  0  0  0  0
  143.0610   74.5638  216.6229 H   0  0  0  0  0  0  0  0  0  0  0  0
  141.8240   75.7769  216.8302 H   0  0  0  0  0  0  0  0  0  0  0  0
  144.4412   75.7094  218.0783 H   0  0  0  0  0  0  0  0  0  0  0  0
  143.1629   76.8721  218.4589 H   0  0  0  0  0  0  0  0  0  0  0  0
  144.0916   75.0116  220.3267 H   0  0  0  0  0  0  0  0  0  0  0  0
  142.4694   75.5722  220.4307 H   0  0  0  0  0  0  0  0  0  0  0  0
  143.4101   73.0677  218.6239 H   0  0  0  0  0  0  0  0  0  0  0  0
  140.3190   72.7950  219.8240 H   0  0  0  0  0  0  0  0  0  0  0  0
  141.5856   71.0620  221.7670 H   0  0  0  0  0  0  0  0  0  0  0  0
  140.0637   73.3398  222.6358 H   0  0  0  0  0  0  0  0  0  0  0  0
  141.1691   72.1950  223.5184 H   0  0  0  0  0  0  0  0  0  0  0  0
  138.2065   71.9182  222.9766 H   0  0  0  0  0  0  0  0  0  0  0  0
  139.1061   72.0101  224.5659 H   0  0  0  0  0  0  0  0  0  0  0  0
  138.2019   69.7504  223.8528 H   0  0  0  0  0  0  0  0  0  0  0  0
  141.5192   71.7907  225.0618 H   0  0  0  0  0  0  0  0  0  0  0  0
  141.9214   72.8293  227.2941 H   0  0  0  0  0  0  0  0  0  0  0  0
  139.4632   69.9740  229.1675 H   0  0  0  0  0  0  0  0  0  0  0  0
  139.0200   68.8859  226.9899 H   0  0  0  0  0  0  0  0  0  0  0  0
  138.8536   68.7797  221.9681 H   0  0  0  0  0  0  0  0  0  0  0  0
  140.5861   69.1618  222.2852 H   0  0  0  0  0  0  0  0  0  0  0  0
  138.5556   71.1894  221.1921 H   0  0  0  0  0  0  0  0  0  0  0  0
  139.6411   70.2707  220.1560 H   0  0  0  0  0  0  0  0  0  0  0  0
  137.7311   76.5614  222.2424 H   0  0  0  0  0  0  0  0  0  0  0  0
  138.1588   78.4758  223.7655 H   0  0  0  0  0  0  0  0  0  0  0  0
  139.6796   80.2950  224.5577 H   0  0  0  0  0  0  0  0  0  0  0  0
  143.5508   80.7379  222.7179 H   0  0  0  0  0  0  0  0  0  0  0  0
  143.0207   78.7727  221.2196 H   0  0  0  0  0  0  0  0  0  0  0  0
  1  2  2  0
  2  3  1  0
  3  4  1  0
  4  5  1  0
  5  6  2  0
  5  7  1  0
  7  8  1  0
  8  9  1  0
  9 10  1  0
 10 11  1  0
 11 12  1  0
 12 13  2  0
 12 14  1  0
 14 15  1  0
 15 16  1  0
 16 17  1  0
 17 18  1  0
 18 19  1  0
 19 20  1  0
 20 21  2  0
 21 22  1  0
 22 23  2  0
 23 24  1  0
 24 25  2  0
 18 26  1  0
 26 27  1  0
  2 28  1  0
 28 29  2  0
 29 30  1  0
 30 31  2  0
 31 32  1  0
 32 33  2  0
 33 34  1  0
 33 35  1  0
 35 36  2  0
 36 37  1  0
 37 38  2  0
 11  7  1  0
 27 15  1  0
 38 28  1  0
 25 20  1  0
 37 31  1  0
  3 39  1  0
  4 40  1  0
  4 41  1  0
  8 42  1  0
  8 43  1  0
  9 44  1  0
  9 45  1  0
 10 46  1  0
 10 47  1  0
 11 48  1  6
 14 49  1  0
 15 50  1  1
 16 51  1  0
 16 52  1  0
 17 53  1  0
 17 54  1  0
 18 55  1  1
 21 56  1  0
 22 57  1  0
 24 58  1  0
 25 59  1  0
 26 60  1  0
 26 61  1  0
 27 62  1  0
 27 63  1  0
 29 64  1  0
 30 65  1  0
 32 66  1  0
 35 67  1  0
 36 68  1  0
M  END
>  <smiles>  (28) 
O=C(NCC(=O)N1CCC[C@H]1C(=O)N[C@H]1CC[C@H](Oc2ccncc2)CC1)c1ccc2cc(F)ccc2n1

>  <score_type>  (28) 
oracle

>  <origin>  (28) 
autodockgpu

>  <m_score__min__energy>  (28) 
-9.4700000000000006

>  <m_primary>  (28) 
energy

>  <rmsd>  (28) 
8.09018030656682

>  <m_score__min__rmsd>  (28) 
8.09018030656682

>  <meeko>  (28) 
{"free_energy": -7.04, "intermolecular_energy": -9.43, "internal_energy": -4.02, "cluster_size": 2, "cluster_id": 12, "rank_in_cluster": 2}

>  <energy>  (28) 
-7.31

>  <cluster_rmsd>  (28) 
1.9

>  <cluster>  (28) 
9

$$$$

     RDKit          3D

 68 72  0  0  0  0  0  0  0  0999 V2000
  141.0820   77.2960  217.5360 O   0  0  0  0  0  0  0  0  0  0  0  0
  142.0540   77.2080  218.3490 C   0  0  0  0  0  0  0  0  0  0  0  0
  142.3650   78.2600  219.2240 N   0  0  0  0  0  0  0  0  0  0  0  0
  141.5790   79.5240  219.2590 C   0  0  0  0  0  0  0  0  0  0  0  0
  141.7890   80.1960  220.5390 C   0  0  0  0  0  0  0  0  0  0  0  0
  141.7520   81.4940  220.4770 O   0  0  0  0  0  0  0  0  0  0  0  0
  142.0190   79.6850  221.8160 N   0  0  0  0  0  0  0  0  0  0  0  0
  142.8680   80.5270  222.7550 C   0  0  0  0  0  0  0  0  0  0  0  0
  142.1790   80.3040  224.0980 C   0  0  0  0  0  0  0  0  0  0  0  0
  141.0760   79.2620  223.8320 C   0  0  0  0  0  0  0  0  0  0  0  0
  141.7190   78.5710  222.6170 C   0  0  1  0  0  0  0  0  0  0  0  0
  140.8230   77.5220  222.1870 C   0  0  0  0  0  0  0  0  0  0  0  0
  139.6040   77.3920  222.3550 O   0  0  0  0  0  0  0  0  0  0  0  0
  141.4420   76.4300  221.4320 N   0  0  0  0  0  0  0  0  0  0  0  0
  140.6610   75.3390  220.9510 C   0  0  1  0  0  0  0  0  0  0  0  0
  140.0010   74.4850  221.9710 C   0  0  0  0  0  0  0  0  0  0  0  0
  138.6060   74.0630  221.5610 C   0  0  0  0  0  0  0  0  0  0  0  0
  138.5180   73.5500  220.1490 C   0  0  2  0  0  0  0  0  0  0  0  0
  138.9690   72.2380  220.0450 O   0  0  0  0  0  0  0  0  0  0  0  0
  140.2150   71.7810  219.7400 C   0  0  0  0  0  0  0  0  0  0  0  0
  141.1580   71.7520  220.7720 C   0  0  0  0  0  0  0  0  0  0  0  0
  142.4550   71.2910  220.5120 C   0  0  0  0  0  0  0  0  0  0  0  0
  142.8100   70.8740  219.2870 N   0  0  0  0  0  0  0  0  0  0  0  0
  141.9380   70.8890  218.2930 C   0  0  0  0  0  0  0  0  0  0  0  0
  140.6380   71.3410  218.5080 C   0  0  0  0  0  0  0  0  0  0  0  0
  139.2290   74.5000  219.2000 C   0  0  0  0  0  0  0  0  0  0  0  0
  139.6150   75.7840  219.9270 C   0  0  0  0  0  0  0  0  0  0  0  0
  142.8880   75.9900  218.3950 C   0  0  0  0  0  0  0  0  0  0  0  0
  143.0100   75.1850  217.2650 C   0  0  0  0  0  0  0  0  0  0  0  0
  143.8020   74.0580  217.3660 C   0  0  0  0  0  0  0  0  0  0  0  0
  144.4540   73.7230  218.5280 C   0  0  0  0  0  0  0  0  0  0  0  0
  145.2500   72.6140  218.6870 C   0  0  0  0  0  0  0  0  0  0  0  0
  145.8580   72.3650  219.8980 C   0  0  0  0  0  0  0  0  0  0  0  0
  146.6460   71.2740  220.0620 F   0  0  0  0  0  0  0  0  0  0  0  0
  145.7130   73.1840  220.9930 C   0  0  0  0  0  0  0  0  0  0  0  0
  144.9050   74.3140  220.8390 C   0  0  0  0  0  0  0  0  0  0  0  0
  144.3010   74.5510  219.6220 C   0  0  0  0  0  0  0  0  0  0  0  0
  143.5330   75.6510  219.5290 N   0  0  0  0  0  0  0  0  0  0  0  0
  143.1790   78.1530  219.8780 H   0  0  0  0  0  0  0  0  0  0  0  0
  141.9079   80.1824  218.4415 H   0  0  0  0  0  0  0  0  0  0  0  0
  140.5103   79.2932  219.1384 H   0  0  0  0  0  0  0  0  0  0  0  0
  143.9092   80.1730  222.7771 H   0  0  0  0  0  0  0  0  0  0  0  0
  142.9337   81.5853  222.4623 H   0  0  0  0  0  0  0  0  0  0  0  0
  142.8969   79.9221  224.8388 H   0  0  0  0  0  0  0  0  0  0  0  0
  141.7651   81.2394  224.5025 H   0  0  0  0  0  0  0  0  0  0  0  0
  140.9408   78.5735  224.6791 H   0  0  0  0  0  0  0  0  0  0  0  0
  140.0627   79.6616  223.6786 H   0  0  0  0  0  0  0  0  0  0  0  0
  142.6482   77.9890  222.7051 H   0  0  0  0  0  0  0  0  0  0  0  0
  142.4640   76.4360  221.2320 H   0  0  0  0  0  0  0  0  0  0  0  0
  141.4270   74.7037  220.4823 H   0  0  0  0  0  0  0  0  0  0  0  0
  139.9362   75.0481  222.9137 H   0  0  0  0  0  0  0  0  0  0  0  0
  140.6056   73.5731  222.0845 H   0  0  0  0  0  0  0  0  0  0  0  0
  137.9384   74.9320  221.6567 H   0  0  0  0  0  0  0  0  0  0  0  0
  138.3143   73.2338  222.2223 H   0  0  0  0  0  0  0  0  0  0  0  0
  137.4594   73.5213  219.8516 H   0  0  0  0  0  0  0  0  0  0  0  0
  140.8830   72.0893  221.7823 H   0  0  0  0  0  0  0  0  0  0  0  0
  143.1949   71.2705  221.3257 H   0  0  0  0  0  0  0  0  0  0  0  0
  142.2401   70.5435  217.2933 H   0  0  0  0  0  0  0  0  0  0  0  0
  139.9288   71.3461  217.6671 H   0  0  0  0  0  0  0  0  0  0  0  0
  138.5594   74.7446  218.3622 H   0  0  0  0  0  0  0  0  0  0  0  0
  140.1412   74.0138  218.8238 H   0  0  0  0  0  0  0  0  0  0  0  0
  138.7413   76.2252  220.4290 H   0  0  0  0  0  0  0  0  0  0  0  0
  139.9984   76.5553  219.2428 H   0  0  0  0  0  0  0  0  0  0  0  0
  142.4945   75.4375  216.3266 H   0  0  0  0  0  0  0  0  0  0  0  0
  143.9145   73.4068  216.4866 H   0  0  0  0  0  0  0  0  0  0  0  0
  145.4022   71.9230  217.8448 H   0  0  0  0  0  0  0  0  0  0  0  0
  146.2109   72.9597  221.9479 H   0  0  0  0  0  0  0  0  0  0  0  0
  144.7524   75.0070  221.6796 H   0  0  0  0  0  0  0  0  0  0  0  0
  1  2  2  0
  2  3  1  0
  3  4  1  0
  4  5  1  0
  5  6  2  0
  5  7  1  0
  7  8  1  0
  8  9  1  0
  9 10  1  0
 10 11  1  0
 11 12  1  0
 12 13  2  0
 12 14  1  0
 14 15  1  0
 15 16  1  0
 16 17  1  0
 17 18  1  0
 18 19  1  0
 19 20  1  0
 20 21  2  0
 21 22  1  0
 22 23  2  0
 23 24  1  0
 24 25  2  0
 18 26  1  0
 26 27  1  0
  2 28  1  0
 28 29  2  0
 29 30  1  0
 30 31  2  0
 31 32  1  0
 32 33  2  0
 33 34  1  0
 33 35  1  0
 35 36  2  0
 36 37  1  0
 37 38  2  0
 11  7  1  0
 27 15  1  0
 38 28  1  0
 25 20  1  0
 37 31  1  0
  3 39  1  0
  4 40  1  0
  4 41  1  0
  8 42  1  0
  8 43  1  0
  9 44  1  0
  9 45  1  0
 10 46  1  0
 10 47  1  0
 11 48  1  1
 14 49  1  0
 15 50  1  6
 16 51  1  0
 16 52  1  0
 17 53  1  0
 17 54  1  0
 18 55  1  6
 21 56  1  0
 22 57  1  0
 24 58  1  0
 25 59  1  0
 26 60  1  0
 26 61  1  0
 27 62  1  0
 27 63  1  0
 29 64  1  0
 30 65  1  0
 32 66  1  0
 35 67  1  0
 36 68  1  0
M  END
>  <smiles>  (29) 
O=C(NCC(=O)N1CCC[C@H]1C(=O)N[C@H]1CC[C@H](Oc2ccncc2)CC1)c1ccc2cc(F)ccc2n1

>  <score_type>  (29) 
oracle

>  <origin>  (29) 
autodockgpu

>  <m_score__min__energy>  (29) 
-9.4700000000000006

>  <m_primary>  (29) 
energy

>  <rmsd>  (29) 
7.606754926218897

>  <m_score__min__rmsd>  (29) 
7.606754926218897

>  <meeko>  (29) 
{"free_energy": -6.49, "intermolecular_energy": -8.87, "internal_energy": -4.97, "cluster_size": 9, "cluster_id": 11, "rank_in_cluster": 6}

>  <energy>  (29) 
-7.28

>  <cluster_rmsd>  (29) 
1.9

>  <cluster>  (29) 
9

$$$$

     RDKit          3D

 68 72  0  0  0  0  0  0  0  0999 V2000
  140.7090   72.9060  221.8590 O   0  0  0  0  0  0  0  0  0  0  0  0
  139.6750   72.6340  222.5450 C   0  0  0  0  0  0  0  0  0  0  0  0
  138.4700   73.3240  222.3450 N   0  0  0  0  0  0  0  0  0  0  0  0
  138.3290   74.3990  221.3240 C   0  0  0  0  0  0  0  0  0  0  0  0
  139.2970   75.4580  221.5910 C   0  0  0  0  0  0  0  0  0  0  0  0
  139.9740   75.3020  222.6900 O   0  0  0  0  0  0  0  0  0  0  0  0
  139.6220   76.6070  220.8700 N   0  0  0  0  0  0  0  0  0  0  0  0
  138.7630   77.8390  221.1070 C   0  0  0  0  0  0  0  0  0  0  0  0
  139.7920   78.9640  221.0470 C   0  0  0  0  0  0  0  0  0  0  0  0
  141.1220   78.2910  220.6610 C   0  0  0  0  0  0  0  0  0  0  0  0
  140.5430   77.0750  219.9190 C   0  0  1  0  0  0  0  0  0  0  0  0
  141.6550   76.2770  219.4540 C   0  0  0  0  0  0  0  0  0  0  0  0
  142.3940   76.4280  218.4730 O   0  0  0  0  0  0  0  0  0  0  0  0
  141.9680   75.0950  220.2610 N   0  0  0  0  0  0  0  0  0  0  0  0
  143.0440   74.2310  219.9060 C   0  0  1  0  0  0  0  0  0  0  0  0
  144.4100   74.8140  219.9400 C   0  0  0  0  0  0  0  0  0  0  0  0
  145.4400   73.8480  220.4880 C   0  0  0  0  0  0  0  0  0  0  0  0
  145.3510   72.4670  219.8970 C   0  0  2  0  0  0  0  0  0  0  0  0
  145.9330   72.4050  218.6350 O   0  0  0  0  0  0  0  0  0  0  0  0
  145.6300   73.1160  217.5150 C   0  0  0  0  0  0  0  0  0  0  0  0
  146.6840   73.7600  216.8590 C   0  0  0  0  0  0  0  0  0  0  0  0
  146.4270   74.5050  215.7010 C   0  0  0  0  0  0  0  0  0  0  0  0
  145.1840   74.6130  215.2070 N   0  0  0  0  0  0  0  0  0  0  0  0
  144.1690   74.0130  215.8060 C   0  0  0  0  0  0  0  0  0  0  0  0
  144.3800   73.2630  216.9600 C   0  0  0  0  0  0  0  0  0  0  0  0
  143.9120   71.9800  219.9130 C   0  0  0  0  0  0  0  0  0  0  0  0
  143.0390   72.9350  220.7190 C   0  0  0  0  0  0  0  0  0  0  0  0
  139.7140   71.5770  223.5760 C   0  0  0  0  0  0  0  0  0  0  0  0
  139.1460   70.3320  223.3190 C   0  0  0  0  0  0  0  0  0  0  0  0
  139.2100   69.3820  224.3200 C   0  0  0  0  0  0  0  0  0  0  0  0
  139.8050   69.6340  225.5310 C   0  0  0  0  0  0  0  0  0  0  0  0
  139.8950   68.7300  226.5620 C   0  0  0  0  0  0  0  0  0  0  0  0
  140.5110   69.0830  227.7430 C   0  0  0  0  0  0  0  0  0  0  0  0
  140.6050   68.1970  228.7650 F   0  0  0  0  0  0  0  0  0  0  0  0
  141.0610   70.3260  227.9590 C   0  0  0  0  0  0  0  0  0  0  0  0
  140.9740   71.2500  226.9150 C   0  0  0  0  0  0  0  0  0  0  0  0
  140.3530   70.8840  225.7390 C   0  0  0  0  0  0  0  0  0  0  0  0
  140.2950   71.8120  224.7680 N   0  0  0  0  0  0  0  0  0  0  0  0
  137.6380   73.0740  222.9340 H   0  0  0  0  0  0  0  0  0  0  0  0
  138.5116   73.9799  220.3235 H   0  0  0  0  0  0  0  0  0  0  0  0
  137.3114   74.8144  221.3692 H   0  0  0  0  0  0  0  0  0  0  0  0
  138.0019   77.9520  220.3209 H   0  0  0  0  0  0  0  0  0  0  0  0
  138.1961   77.8081  222.0492 H   0  0  0  0  0  0  0  0  0  0  0  0
  139.5040   79.7073  220.2890 H   0  0  0  0  0  0  0  0  0  0  0  0
  139.8692   79.4956  222.0069 H   0  0  0  0  0  0  0  0  0  0  0  0
  141.7346   78.9262  220.0043 H   0  0  0  0  0  0  0  0  0  0  0  0
  141.8071   78.0667  221.4919 H   0  0  0  0  0  0  0  0  0  0  0  0
  139.9905   77.1816  218.9738 H   0  0  0  0  0  0  0  0  0  0  0  0
  141.4100   74.8700  221.1120 H   0  0  0  0  0  0  0  0  0  0  0  0
  142.8314   74.0308  218.8455 H   0  0  0  0  0  0  0  0  0  0  0  0
  144.3947   75.7114  220.5759 H   0  0  0  0  0  0  0  0  0  0  0  0
  144.6958   75.0558  218.9057 H   0  0  0  0  0  0  0  0  0  0  0  0
  145.2979   73.7696  221.5760 H   0  0  0  0  0  0  0  0  0  0  0  0
  146.4292   74.2481  220.2208 H   0  0  0  0  0  0  0  0  0  0  0  0
  145.9360   71.7787  220.5247 H   0  0  0  0  0  0  0  0  0  0  0  0
  147.7091   73.6819  217.2502 H   0  0  0  0  0  0  0  0  0  0  0  0
  147.2584   75.0102  215.1877 H   0  0  0  0  0  0  0  0  0  0  0  0
  143.1546   74.1068  215.3911 H   0  0  0  0  0  0  0  0  0  0  0  0
  143.5212   72.7733  217.4424 H   0  0  0  0  0  0  0  0  0  0  0  0
  143.8725   70.9798  220.3691 H   0  0  0  0  0  0  0  0  0  0  0  0
  143.5370   71.9382  218.8797 H   0  0  0  0  0  0  0  0  0  0  0  0
  143.4646   73.1013  221.7196 H   0  0  0  0  0  0  0  0  0  0  0  0
  142.0236   72.5429  220.8777 H   0  0  0  0  0  0  0  0  0  0  0  0
  138.6642   70.1130  222.3547 H   0  0  0  0  0  0  0  0  0  0  0  0
  138.7693   68.3903  224.1405 H   0  0  0  0  0  0  0  0  0  0  0  0
  139.4737   67.7207  226.4441 H   0  0  0  0  0  0  0  0  0  0  0  0
  141.5478   70.5807  228.9120 H   0  0  0  0  0  0  0  0  0  0  0  0
  141.3964   72.2592  227.0295 H   0  0  0  0  0  0  0  0  0  0  0  0
  1  2  2  0
  2  3  1  0
  3  4  1  0
  4  5  1  0
  5  6  2  0
  5  7  1  0
  7  8  1  0
  8  9  1  0
  9 10  1  0
 10 11  1  0
 11 12  1  0
 12 13  2  0
 12 14  1  0
 14 15  1  0
 15 16  1  0
 16 17  1  0
 17 18  1  0
 18 19  1  0
 19 20  1  0
 20 21  2  0
 21 22  1  0
 22 23  2  0
 23 24  1  0
 24 25  2  0
 18 26  1  0
 26 27  1  0
  2 28  1  0
 28 29  2  0
 29 30  1  0
 30 31  2  0
 31 32  1  0
 32 33  2  0
 33 34  1  0
 33 35  1  0
 35 36  2  0
 36 37  1  0
 37 38  2  0
 11  7  1  0
 27 15  1  0
 38 28  1  0
 25 20  1  0
 37 31  1  0
  3 39  1  0
  4 40  1  0
  4 41  1  0
  8 42  1  0
  8 43  1  0
  9 44  1  0
  9 45  1  0
 10 46  1  0
 10 47  1  0
 11 48  1  6
 14 49  1  0
 15 50  1  6
 16 51  1  0
 16 52  1  0
 17 53  1  0
 17 54  1  0
 18 55  1  1
 21 56  1  0
 22 57  1  0
 24 58  1  0
 25 59  1  0
 26 60  1  0
 26 61  1  0
 27 62  1  0
 27 63  1  0
 29 64  1  0
 30 65  1  0
 32 66  1  0
 35 67  1  0
 36 68  1  0
M  END
>  <smiles>  (30) 
O=C(NCC(=O)N1CCC[C@H]1C(=O)N[C@H]1CC[C@H](Oc2ccncc2)CC1)c1ccc2cc(F)ccc2n1

>  <score_type>  (30) 
oracle

>  <origin>  (30) 
autodockgpu

>  <m_score__min__energy>  (30) 
-9.4700000000000006

>  <m_primary>  (30) 
energy

>  <rmsd>  (30) 
4.5882309323157235

>  <m_score__min__rmsd>  (30) 
4.5882309323157235

>  <meeko>  (30) 
{"free_energy": -8.71, "intermolecular_energy": -11.1, "internal_energy": -3.24, "cluster_size": 4, "cluster_id": 3, "rank_in_cluster": 3}

>  <energy>  (30) 
-7.26

>  <cluster_rmsd>  (30) 
1.85

>  <cluster>  (30) 
9

$$$$

     RDKit          3D

 68 72  0  0  0  0  0  0  0  0999 V2000
  141.4660   80.7030  219.6740 O   0  0  0  0  0  0  0  0  0  0  0  0
  141.9590   79.5620  219.9350 C   0  0  0  0  0  0  0  0  0  0  0  0
  142.1830   79.1540  221.2590 N   0  0  0  0  0  0  0  0  0  0  0  0
  141.8540   80.0200  222.4240 C   0  0  0  0  0  0  0  0  0  0  0  0
  140.9700   79.3000  223.3360 C   0  0  0  0  0  0  0  0  0  0  0  0
  141.3820   79.2660  224.5690 O   0  0  0  0  0  0  0  0  0  0  0  0
  139.7600   78.6450  223.1140 N   0  0  0  0  0  0  0  0  0  0  0  0
  138.4900   79.3810  223.5140 C   0  0  0  0  0  0  0  0  0  0  0  0
  137.5270   78.9910  222.3970 C   0  0  0  0  0  0  0  0  0  0  0  0
  138.2890   77.9740  221.5270 C   0  0  0  0  0  0  0  0  0  0  0  0
  139.2470   77.4400  222.6050 C   0  0  1  0  0  0  0  0  0  0  0  0
  140.0850   76.4380  221.9880 C   0  0  0  0  0  0  0  0  0  0  0  0
  141.1200   76.5610  221.3210 O   0  0  0  0  0  0  0  0  0  0  0  0
  139.6520   75.0500  222.1680 N   0  0  0  0  0  0  0  0  0  0  0  0
  140.3980   73.9730  221.6090 C   0  0  1  0  0  0  0  0  0  0  0  0
  140.3760   72.6860  222.3500 C   0  0  0  0  0  0  0  0  0  0  0  0
  140.2960   71.4860  221.4290 C   0  0  0  0  0  0  0  0  0  0  0  0
  141.2630   71.5410  220.2770 C   0  0  2  0  0  0  0  0  0  0  0  0
  142.5510   71.1850  220.6650 O   0  0  0  0  0  0  0  0  0  0  0  0
  143.7430   71.7020  220.2580 C   0  0  0  0  0  0  0  0  0  0  0  0
  144.3430   71.1220  219.1350 C   0  0  0  0  0  0  0  0  0  0  0  0
  145.5710   71.6150  218.6750 C   0  0  0  0  0  0  0  0  0  0  0  0
  146.1830   72.6370  219.2920 N   0  0  0  0  0  0  0  0  0  0  0  0
  145.6370   73.2040  220.3550 C   0  0  0  0  0  0  0  0  0  0  0  0
  144.4180   72.7450  220.8460 C   0  0  0  0  0  0  0  0  0  0  0  0
  141.2000   72.9000  219.6020 C   0  0  0  0  0  0  0  0  0  0  0  0
  140.0280   73.7080  220.1480 C   0  0  0  0  0  0  0  0  0  0  0  0
  142.3090   78.6280  218.8460 C   0  0  0  0  0  0  0  0  0  0  0  0
  142.2170   79.0370  217.5190 C   0  0  0  0  0  0  0  0  0  0  0  0
  142.5560   78.1210  216.5420 C   0  0  0  0  0  0  0  0  0  0  0  0
  142.9720   76.8490  216.8450 C   0  0  0  0  0  0  0  0  0  0  0  0
  143.3180   75.8960  215.9170 C   0  0  0  0  0  0  0  0  0  0  0  0
  143.7210   74.6430  216.3250 C   0  0  0  0  0  0  0  0  0  0  0  0
  144.0650   73.6990  215.4150 F   0  0  0  0  0  0  0  0  0  0  0  0
  143.7990   74.2750  217.6480 C   0  0  0  0  0  0  0  0  0  0  0  0
  143.4480   75.2380  218.5980 C   0  0  0  0  0  0  0  0  0  0  0  0
  143.0470   76.4880  218.1750 C   0  0  0  0  0  0  0  0  0  0  0  0
  142.7190   77.3760  219.1310 N   0  0  0  0  0  0  0  0  0  0  0  0
  142.5960   78.2050  221.4350 H   0  0  0  0  0  0  0  0  0  0  0  0
  142.7804   80.2921  222.9509 H   0  0  0  0  0  0  0  0  0  0  0  0
  141.3498   80.9315  222.0705 H   0  0  0  0  0  0  0  0  0  0  0  0
  138.1234   79.0407  224.4937 H   0  0  0  0  0  0  0  0  0  0  0  0
  138.6244   80.4674  223.6223 H   0  0  0  0  0  0  0  0  0  0  0  0
  136.6188   78.5331  222.8159 H   0  0  0  0  0  0  0  0  0  0  0  0
  137.2067   79.8662  221.8127 H   0  0  0  0  0  0  0  0  0  0  0  0
  137.6289   77.1883  221.1308 H   0  0  0  0  0  0  0  0  0  0  0  0
  138.7621   78.3762  220.6190 H   0  0  0  0  0  0  0  0  0  0  0  0
  138.8836   76.8636  223.4685 H   0  0  0  0  0  0  0  0  0  0  0  0
  138.7930   74.8290  222.7130 H   0  0  0  0  0  0  0  0  0  0  0  0
  141.4288   74.3476  221.6927 H   0  0  0  0  0  0  0  0  0  0  0  0
  139.5009   72.6778  223.0164 H   0  0  0  0  0  0  0  0  0  0  0  0
  141.3165   72.6105  222.9154 H   0  0  0  0  0  0  0  0  0  0  0  0
  139.2754   71.4275  221.0230 H   0  0  0  0  0  0  0  0  0  0  0  0
  140.5609   70.6027  222.0287 H   0  0  0  0  0  0  0  0  0  0  0  0
  140.9622   70.7912  219.5305 H   0  0  0  0  0  0  0  0  0  0  0  0
  143.8537   70.2843  218.6166 H   0  0  0  0  0  0  0  0  0  0  0  0
  146.0414   71.1563  217.7928 H   0  0  0  0  0  0  0  0  0  0  0  0
  146.1480   74.0413  220.8528 H   0  0  0  0  0  0  0  0  0  0  0  0
  143.9819   73.2315  221.7310 H   0  0  0  0  0  0  0  0  0  0  0  0
  141.0717   72.7614  218.5183 H   0  0  0  0  0  0  0  0  0  0  0  0
  142.1346   73.4437  219.8042 H   0  0  0  0  0  0  0  0  0  0  0  0
  139.0932   73.1321  220.0813 H   0  0  0  0  0  0  0  0  0  0  0  0
  139.8586   74.6364  219.5828 H   0  0  0  0  0  0  0  0  0  0  0  0
  141.8863   80.0530  217.2575 H   0  0  0  0  0  0  0  0  0  0  0  0
  142.4902   78.4214  215.4859 H   0  0  0  0  0  0  0  0  0  0  0  0
  143.2730   76.1345  214.8441 H   0  0  0  0  0  0  0  0  0  0  0  0
  144.1234   73.2669  217.9453 H   0  0  0  0  0  0  0  0  0  0  0  0
  143.4911   75.0016  219.6714 H   0  0  0  0  0  0  0  0  0  0  0  0
  1  2  2  0
  2  3  1  0
  3  4  1  0
  4  5  1  0
  5  6  2  0
  5  7  1  0
  7  8  1  0
  8  9  1  0
  9 10  1  0
 10 11  1  0
 11 12  1  0
 12 13  2  0
 12 14  1  0
 14 15  1  0
 15 16  1  0
 16 17  1  0
 17 18  1  0
 18 19  1  0
 19 20  1  0
 20 21  2  0
 21 22  1  0
 22 23  2  0
 23 24  1  0
 24 25  2  0
 18 26  1  0
 26 27  1  0
  2 28  1  0
 28 29  2  0
 29 30  1  0
 30 31  2  0
 31 32  1  0
 32 33  2  0
 33 34  1  0
 33 35  1  0
 35 36  2  0
 36 37  1  0
 37 38  2  0
 11  7  1  0
 27 15  1  0
 38 28  1  0
 25 20  1  0
 37 31  1  0
  3 39  1  0
  4 40  1  0
  4 41  1  0
  8 42  1  0
  8 43  1  0
  9 44  1  0
  9 45  1  0
 10 46  1  0
 10 47  1  0
 11 48  1  1
 14 49  1  0
 15 50  1  6
 16 51  1  0
 16 52  1  0
 17 53  1  0
 17 54  1  0
 18 55  1  6
 21 56  1  0
 22 57  1  0
 24 58  1  0
 25 59  1  0
 26 60  1  0
 26 61  1  0
 27 62  1  0
 27 63  1  0
 29 64  1  0
 30 65  1  0
 32 66  1  0
 35 67  1  0
 36 68  1  0
M  END
>  <smiles>  (31) 
O=C(NCC(=O)N1CCC[C@H]1C(=O)N[C@H]1CC[C@H](Oc2ccncc2)CC1)c1ccc2cc(F)ccc2n1

>  <score_type>  (31) 
oracle

>  <origin>  (31) 
autodockgpu

>  <m_score__min__energy>  (31) 
-9.4700000000000006

>  <m_primary>  (31) 
energy

>  <rmsd>  (31) 
8.901020247134205

>  <m_score__min__rmsd>  (31) 
8.901020247134205

>  <meeko>  (31) 
{"free_energy": -6.99, "intermolecular_energy": -9.37, "internal_energy": -4.3, "cluster_size": 1, "cluster_id": 13, "rank_in_cluster": 1}

>  <energy>  (31) 
-7.25

>  <cluster_rmsd>  (31) 
1.86

>  <cluster>  (31) 
9

$$$$

     RDKit          3D

 68 72  0  0  0  0  0  0  0  0999 V2000
  140.1660   73.6700  222.3390 O   0  0  0  0  0  0  0  0  0  0  0  0
  140.4590   72.4360  222.2870 C   0  0  0  0  0  0  0  0  0  0  0  0
  141.0290   71.8740  221.1350 N   0  0  0  0  0  0  0  0  0  0  0  0
  141.3260   72.6810  219.9190 C   0  0  0  0  0  0  0  0  0  0  0  0
  142.5770   73.4090  220.1090 C   0  0  0  0  0  0  0  0  0  0  0  0
  143.4090   72.8420  220.9320 O   0  0  0  0  0  0  0  0  0  0  0  0
  143.0350   74.6060  219.5590 N   0  0  0  0  0  0  0  0  0  0  0  0
  144.0710   74.5070  218.4500 C   0  0  0  0  0  0  0  0  0  0  0  0
  143.6470   75.6330  217.5130 C   0  0  0  0  0  0  0  0  0  0  0  0
  142.4860   76.3530  218.2250 C   0  0  0  0  0  0  0  0  0  0  0  0
  142.8650   75.9960  219.6720 C   0  0  1  0  0  0  0  0  0  0  0  0
  141.8760   76.5900  220.5420 C   0  0  0  0  0  0  0  0  0  0  0  0
  140.9130   76.0770  221.1270 O   0  0  0  0  0  0  0  0  0  0  0  0
  142.0190   78.0290  220.7750 N   0  0  0  0  0  0  0  0  0  0  0  0
  141.1060   78.7270  221.6180 C   0  0  1  0  0  0  0  0  0  0  0  0
  141.2470   78.5150  223.0810 C   0  0  0  0  0  0  0  0  0  0  0  0
  141.0380   79.7880  223.8750 C   0  0  0  0  0  0  0  0  0  0  0  0
  139.8210   80.5690  223.4590 C   0  0  2  0  0  0  0  0  0  0  0  0
  138.6530   80.0250  223.9830 O   0  0  0  0  0  0  0  0  0  0  0  0
  137.6080   80.6560  224.5870 C   0  0  0  0  0  0  0  0  0  0  0  0
  136.3200   80.3020  224.1740 C   0  0  0  0  0  0  0  0  0  0  0  0
  135.2090   80.9210  224.7620 C   0  0  0  0  0  0  0  0  0  0  0  0
  135.3590   81.8500  225.7190 N   0  0  0  0  0  0  0  0  0  0  0  0
  136.5660   82.2030  226.1290 C   0  0  0  0  0  0  0  0  0  0  0  0
  137.6970   81.6130  225.5710 C   0  0  0  0  0  0  0  0  0  0  0  0
  139.7820   80.7170  221.9480 C   0  0  0  0  0  0  0  0  0  0  0  0
  141.0910   80.2310  221.3350 C   0  0  0  0  0  0  0  0  0  0  0  0
  140.2100   71.5540  223.4460 C   0  0  0  0  0  0  0  0  0  0  0  0
  139.4740   70.3830  223.2840 C   0  0  0  0  0  0  0  0  0  0  0  0
  139.2710   69.5970  224.4020 C   0  0  0  0  0  0  0  0  0  0  0  0
  139.7670   69.9380  225.6360 C   0  0  0  0  0  0  0  0  0  0  0  0
  139.5930   69.1980  226.7810 C   0  0  0  0  0  0  0  0  0  0  0  0
  140.1290   69.6290  227.9740 C   0  0  0  0  0  0  0  0  0  0  0  0
  139.9640   68.9040  229.1080 F   0  0  0  0  0  0  0  0  0  0  0  0
  140.8520   70.7940  228.0940 C   0  0  0  0  0  0  0  0  0  0  0  0
  141.0320   71.5520  226.9340 C   0  0  0  0  0  0  0  0  0  0  0  0
  140.4890   71.1080  225.7470 C   0  0  0  0  0  0  0  0  0  0  0  0
  140.6910   71.8770  224.6620 N   0  0  0  0  0  0  0  0  0  0  0  0
  141.2540   70.8480  221.1270 H   0  0  0  0  0  0  0  0  0  0  0  0
  141.4193   72.0131  219.0500 H   0  0  0  0  0  0  0  0  0  0  0  0
  140.5088   73.3969  219.7466 H   0  0  0  0  0  0  0  0  0  0  0  0
  145.0872   74.6717  218.8375 H   0  0  0  0  0  0  0  0  0  0  0  0
  144.1076   73.5197  217.9663 H   0  0  0  0  0  0  0  0  0  0  0  0
  144.4834   76.3274  217.3448 H   0  0  0  0  0  0  0  0  0  0  0  0
  143.3434   75.2488  216.5280 H   0  0  0  0  0  0  0  0  0  0  0  0
  142.4978   77.4385  218.0473 H   0  0  0  0  0  0  0  0  0  0  0  0
  141.4730   76.0651  217.9071 H   0  0  0  0  0  0  0  0  0  0  0  0
  143.7783   76.3863  220.1448 H   0  0  0  0  0  0  0  0  0  0  0  0
  142.7950   78.5640  220.3330 H   0  0  0  0  0  0  0  0  0  0  0  0
  140.1470   78.2642  221.3420 H   0  0  0  0  0  0  0  0  0  0  0  0
  142.2581   78.1334  223.2862 H   0  0  0  0  0  0  0  0  0  0  0  0
  140.4729   77.7974  223.3906 H   0  0  0  0  0  0  0  0  0  0  0  0
  141.9228   80.4282  223.7436 H   0  0  0  0  0  0  0  0  0  0  0  0
  140.8859   79.4911  224.9232 H   0  0  0  0  0  0  0  0  0  0  0  0
  139.8915   81.5809  223.8845 H   0  0  0  0  0  0  0  0  0  0  0  0
  136.1796   79.5416  223.3916 H   0  0  0  0  0  0  0  0  0  0  0  0
  134.1971   80.6409  224.4339 H   0  0  0  0  0  0  0  0  0  0  0  0
  136.6767   82.9657  226.9139 H   0  0  0  0  0  0  0  0  0  0  0  0
  138.6909   81.9213  225.9275 H   0  0  0  0  0  0  0  0  0  0  0  0
  139.6319   81.7759  221.6908 H   0  0  0  0  0  0  0  0  0  0  0  0
  138.9540   80.1118  221.5503 H   0  0  0  0  0  0  0  0  0  0  0  0
  141.9510   80.7255  221.8103 H   0  0  0  0  0  0  0  0  0  0  0  0
  141.1614   80.4571  220.2608 H   0  0  0  0  0  0  0  0  0  0  0  0
  139.0694   70.0946  222.3026 H   0  0  0  0  0  0  0  0  0  0  0  0
  138.6926   68.6669  224.3000 H   0  0  0  0  0  0  0  0  0  0  0  0
  139.0233   68.2577  226.7443 H   0  0  0  0  0  0  0  0  0  0  0  0
  141.2695   71.1141  229.0600 H   0  0  0  0  0  0  0  0  0  0  0  0
  141.6008   72.4929  226.9675 H   0  0  0  0  0  0  0  0  0  0  0  0
  1  2  2  0
  2  3  1  0
  3  4  1  0
  4  5  1  0
  5  6  2  0
  5  7  1  0
  7  8  1  0
  8  9  1  0
  9 10  1  0
 10 11  1  0
 11 12  1  0
 12 13  2  0
 12 14  1  0
 14 15  1  0
 15 16  1  0
 16 17  1  0
 17 18  1  0
 18 19  1  0
 19 20  1  0
 20 21  2  0
 21 22  1  0
 22 23  2  0
 23 24  1  0
 24 25  2  0
 18 26  1  0
 26 27  1  0
  2 28  1  0
 28 29  2  0
 29 30  1  0
 30 31  2  0
 31 32  1  0
 32 33  2  0
 33 34  1  0
 33 35  1  0
 35 36  2  0
 36 37  1  0
 37 38  2  0
 11  7  1  0
 27 15  1  0
 38 28  1  0
 25 20  1  0
 37 31  1  0
  3 39  1  0
  4 40  1  0
  4 41  1  0
  8 42  1  0
  8 43  1  0
  9 44  1  0
  9 45  1  0
 10 46  1  0
 10 47  1  0
 11 48  1  1
 14 49  1  0
 15 50  1  6
 16 51  1  0
 16 52  1  0
 17 53  1  0
 17 54  1  0
 18 55  1  1
 21 56  1  0
 22 57  1  0
 24 58  1  0
 25 59  1  0
 26 60  1  0
 26 61  1  0
 27 62  1  0
 27 63  1  0
 29 64  1  0
 30 65  1  0
 32 66  1  0
 35 67  1  0
 36 68  1  0
M  END
>  <smiles>  (32) 
O=C(NCC(=O)N1CCC[C@H]1C(=O)N[C@H]1CC[C@H](Oc2ccncc2)CC1)c1ccc2cc(F)ccc2n1

>  <score_type>  (32) 
oracle

>  <origin>  (32) 
autodockgpu

>  <m_score__min__energy>  (32) 
-9.4700000000000006

>  <m_primary>  (32) 
energy

>  <rmsd>  (32) 
2.730232175593484

>  <m_score__min__rmsd>  (32) 
2.730232175593484

>  <meeko>  (32) 
{"free_energy": -9.47, "intermolecular_energy": -11.85, "internal_energy": -1.84, "cluster_size": 7, "cluster_id": 1, "rank_in_cluster": 1}

>  <energy>  (32) 
-6.98

>  <cluster_rmsd>  (32) 
1.83

>  <cluster>  (32) 
9

$$$$

     RDKit          3D

 68 72  0  0  0  0  0  0  0  0999 V2000
  138.7590   72.2670  221.4640 O   0  0  0  0  0  0  0  0  0  0  0  0
  139.6710   72.3200  222.3460 C   0  0  0  0  0  0  0  0  0  0  0  0
  140.7200   73.2460  222.2490 N   0  0  0  0  0  0  0  0  0  0  0  0
  140.8230   74.2170  221.1240 C   0  0  0  0  0  0  0  0  0  0  0  0
  139.6360   75.0670  221.1010 C   0  0  0  0  0  0  0  0  0  0  0  0
  138.7130   74.6780  220.2720 O   0  0  0  0  0  0  0  0  0  0  0  0
  139.3210   76.2220  221.8160 N   0  0  0  0  0  0  0  0  0  0  0  0
  140.2780   77.3970  221.6900 C   0  0  0  0  0  0  0  0  0  0  0  0
  139.3240   78.5880  221.6810 C   0  0  0  0  0  0  0  0  0  0  0  0
  137.9220   78.0000  221.9250 C   0  0  0  0  0  0  0  0  0  0  0  0
  138.3470   76.7350  222.6880 C   0  0  1  0  0  0  0  0  0  0  0  0
  137.1460   76.0050  223.0280 C   0  0  0  0  0  0  0  0  0  0  0  0
  136.1000   76.3920  223.5650 O   0  0  0  0  0  0  0  0  0  0  0  0
  137.1540   74.5800  222.6920 N   0  0  0  0  0  0  0  0  0  0  0  0
  136.0260   73.7560  222.9750 C   0  0  1  0  0  0  0  0  0  0  0  0
  134.8270   73.9450  222.1200 C   0  0  0  0  0  0  0  0  0  0  0  0
  134.1460   72.6360  221.7760 C   0  0  0  0  0  0  0  0  0  0  0  0
  133.9490   71.7270  222.9580 C   0  0  2  0  0  0  0  0  0  0  0  0
  132.8600   72.1140  223.7330 O   0  0  0  0  0  0  0  0  0  0  0  0
  132.8450   72.7700  224.9250 C   0  0  0  0  0  0  0  0  0  0  0  0
  133.2970   74.0940  224.9340 C   0  0  0  0  0  0  0  0  0  0  0  0
  133.3040   74.8160  226.1350 C   0  0  0  0  0  0  0  0  0  0  0  0
  132.8820   74.2590  227.2810 N   0  0  0  0  0  0  0  0  0  0  0  0
  132.4490   73.0100  227.3010 C   0  0  0  0  0  0  0  0  0  0  0  0
  132.4260   72.2560  226.1300 C   0  0  0  0  0  0  0  0  0  0  0  0
  135.2360   71.6140  223.7570 C   0  0  0  0  0  0  0  0  0  0  0  0
  136.3860   72.2690  223.0000 C   0  0  0  0  0  0  0  0  0  0  0  0
  139.6520   71.4040  223.5050 C   0  0  0  0  0  0  0  0  0  0  0  0
  138.9510   70.2030  223.4320 C   0  0  0  0  0  0  0  0  0  0  0  0
  138.9670   69.3850  224.5460 C   0  0  0  0  0  0  0  0  0  0  0  0
  139.6400   69.7250  225.6930 C   0  0  0  0  0  0  0  0  0  0  0  0
  139.6870   68.9550  226.8300 C   0  0  0  0  0  0  0  0  0  0  0  0
  140.3900   69.3880  227.9330 C   0  0  0  0  0  0  0  0  0  0  0  0
  140.4420   68.6330  229.0580 F   0  0  0  0  0  0  0  0  0  0  0  0
  141.0700   70.5830  227.9670 C   0  0  0  0  0  0  0  0  0  0  0  0
  141.0260   71.3720  226.8140 C   0  0  0  0  0  0  0  0  0  0  0  0
  140.3190   70.9270  225.7180 C   0  0  0  0  0  0  0  0  0  0  0  0
  140.3080   71.7260  224.6360 N   0  0  0  0  0  0  0  0  0  0  0  0
  141.4590   73.2570  222.9950 H   0  0  0  0  0  0  0  0  0  0  0  0
  141.7181   74.8417  221.2602 H   0  0  0  0  0  0  0  0  0  0  0  0
  140.8982   73.6685  220.1735 H   0  0  0  0  0  0  0  0  0  0  0  0
  140.9671   77.4441  222.5461 H   0  0  0  0  0  0  0  0  0  0  0  0
  140.9284   77.3446  220.8044 H   0  0  0  0  0  0  0  0  0  0  0  0
  139.5873   79.2965  222.4802 H   0  0  0  0  0  0  0  0  0  0  0  0
  139.3731   79.1406  220.7311 H   0  0  0  0  0  0  0  0  0  0  0  0
  137.2931   78.6635  222.5368 H   0  0  0  0  0  0  0  0  0  0  0  0
  137.3052   77.8375  221.0288 H   0  0  0  0  0  0  0  0  0  0  0  0
  138.8133   76.7882  223.6828 H   0  0  0  0  0  0  0  0  0  0  0  0
  137.9840   74.1470  222.2360 H   0  0  0  0  0  0  0  0  0  0  0  0
  135.7366   74.1078  223.9762 H   0  0  0  0  0  0  0  0  0  0  0  0
  135.1342   74.4386  221.1862 H   0  0  0  0  0  0  0  0  0  0  0  0
  134.1079   74.5571  222.6842 H   0  0  0  0  0  0  0  0  0  0  0  0
  134.7618   72.1094  221.0320 H   0  0  0  0  0  0  0  0  0  0  0  0
  133.1456   72.8856  221.3927 H   0  0  0  0  0  0  0  0  0  0  0  0
  133.7053   70.7202  222.5879 H   0  0  0  0  0  0  0  0  0  0  0  0
  133.6450   74.5658  224.0032 H   0  0  0  0  0  0  0  0  0  0  0  0
  133.6612   75.8564  226.1386 H   0  0  0  0  0  0  0  0  0  0  0  0
  132.1055   72.5644  228.2462 H   0  0  0  0  0  0  0  0  0  0  0  0
  132.0619   71.2188  226.1702 H   0  0  0  0  0  0  0  0  0  0  0  0
  135.4686   70.5517  223.9226 H   0  0  0  0  0  0  0  0  0  0  0  0
  135.1049   72.1251  224.7222 H   0  0  0  0  0  0  0  0  0  0  0  0
  136.4576   71.8685  221.9780 H   0  0  0  0  0  0  0  0  0  0  0  0
  137.3610   72.0812  223.4735 H   0  0  0  0  0  0  0  0  0  0  0  0
  138.4047   69.9159  222.5214 H   0  0  0  0  0  0  0  0  0  0  0  0
  138.4224   68.4299  224.5123 H   0  0  0  0  0  0  0  0  0  0  0  0
  139.1614   67.9892  226.8598 H   0  0  0  0  0  0  0  0  0  0  0  0
  141.6238   70.9036  228.8617 H   0  0  0  0  0  0  0  0  0  0  0  0
  141.5504   72.3384  226.7818 H   0  0  0  0  0  0  0  0  0  0  0  0
  1  2  2  0
  2  3  1  0
  3  4  1  0
  4  5  1  0
  5  6  2  0
  5  7  1  0
  7  8  1  0
  8  9  1  0
  9 10  1  0
 10 11  1  0
 11 12  1  0
 12 13  2  0
 12 14  1  0
 14 15  1  0
 15 16  1  0
 16 17  1  0
 17 18  1  0
 18 19  1  0
 19 20  1  0
 20 21  2  0
 21 22  1  0
 22 23  2  0
 23 24  1  0
 24 25  2  0
 18 26  1  0
 26 27  1  0
  2 28  1  0
 28 29  2  0
 29 30  1  0
 30 31  2  0
 31 32  1  0
 32 33  2  0
 33 34  1  0
 33 35  1  0
 35 36  2  0
 36 37  1  0
 37 38  2  0
 11  7  1  0
 27 15  1  0
 38 28  1  0
 25 20  1  0
 37 31  1  0
  3 39  1  0
  4 40  1  0
  4 41  1  0
  8 42  1  0
  8 43  1  0
  9 44  1  0
  9 45  1  0
 10 46  1  0
 10 47  1  0
 11 48  1  1
 14 49  1  0
 15 50  1  1
 16 51  1  0
 16 52  1  0
 17 53  1  0
 17 54  1  0
 18 55  1  6
 21 56  1  0
 22 57  1  0
 24 58  1  0
 25 59  1  0
 26 60  1  0
 26 61  1  0
 27 62  1  0
 27 63  1  0
 29 64  1  0
 30 65  1  0
 32 66  1  0
 35 67  1  0
 36 68  1  0
M  END
>  <smiles>  (33) 
O=C(NCC(=O)N1CCC[C@H]1C(=O)N[C@H]1CC[C@H](Oc2ccncc2)CC1)c1ccc2cc(F)ccc2n1

>  <score_type>  (33) 
oracle

>  <origin>  (33) 
autodockgpu

>  <m_score__min__energy>  (33) 
-9.4700000000000006

>  <m_primary>  (33) 
energy

>  <rmsd>  (33) 
5.771462832589597

>  <m_score__min__rmsd>  (33) 
5.771462832589597

>  <meeko>  (33) 
{"free_energy": -6.87, "intermolecular_energy": -9.25, "internal_energy": -4.27, "cluster_size": 2, "cluster_id": 10, "rank_in_cluster": 2}

>  <energy>  (33) 
-7.75

>  <cluster_rmsd>  (33) 
0.0

>  <cluster>  (33) 
10

$$$$

     RDKit          3D

 68 72  0  0  0  0  0  0  0  0999 V2000
  139.3370   74.0930  222.3380 O   0  0  0  0  0  0  0  0  0  0  0  0
  140.0190   73.0390  222.1460 C   0  0  0  0  0  0  0  0  0  0  0  0
  140.7830   72.8720  220.9810 N   0  0  0  0  0  0  0  0  0  0  0  0
  140.8470   73.9110  219.9160 C   0  0  0  0  0  0  0  0  0  0  0  0
  142.1090   74.6380  220.0160 C   0  0  0  0  0  0  0  0  0  0  0  0
  142.6760   74.5730  221.1850 O   0  0  0  0  0  0  0  0  0  0  0  0
  142.8130   75.3880  219.0740 N   0  0  0  0  0  0  0  0  0  0  0  0
  143.5850   74.6190  218.0130 C   0  0  0  0  0  0  0  0  0  0  0  0
  143.3770   75.4850  216.7750 C   0  0  0  0  0  0  0  0  0  0  0  0
  142.6120   76.7300  217.2610 C   0  0  0  0  0  0  0  0  0  0  0  0
  143.0880   76.7200  218.7230 C   0  0  1  0  0  0  0  0  0  0  0  0
  142.4710   77.8430  219.3910 C   0  0  0  0  0  0  0  0  0  0  0  0
  142.1740   78.9660  218.9620 O   0  0  0  0  0  0  0  0  0  0  0  0
  142.1390   77.6380  220.8030 N   0  0  0  0  0  0  0  0  0  0  0  0
  141.5240   78.6710  221.5680 C   0  0  1  0  0  0  0  0  0  0  0  0
  140.4820   78.2550  222.5410 C   0  0  0  0  0  0  0  0  0  0  0  0
  140.5570   79.0300  223.8400 C   0  0  0  0  0  0  0  0  0  0  0  0
  140.6950   80.5160  223.6510 C   0  0  2  0  0  0  0  0  0  0  0  0
  139.4780   81.1140  223.3400 O   0  0  0  0  0  0  0  0  0  0  0  0
  138.2570   80.9220  223.9100 C   0  0  0  0  0  0  0  0  0  0  0  0
  137.3780   80.0460  223.2640 C   0  0  0  0  0  0  0  0  0  0  0  0
  136.1080   79.8130  223.8080 C   0  0  0  0  0  0  0  0  0  0  0  0
  135.7190   80.4150  224.9430 N   0  0  0  0  0  0  0  0  0  0  0  0
  136.5300   81.2470  225.5740 C   0  0  0  0  0  0  0  0  0  0  0  0
  137.8000   81.5080  225.0680 C   0  0  0  0  0  0  0  0  0  0  0  0
  141.7830   80.8190  222.6350 C   0  0  0  0  0  0  0  0  0  0  0  0
  142.5500   79.5480  222.2870 C   0  0  0  0  0  0  0  0  0  0  0  0
  140.0270   71.9550  223.1490 C   0  0  0  0  0  0  0  0  0  0  0  0
  139.5480   70.6910  222.8140 C   0  0  0  0  0  0  0  0  0  0  0  0
  139.5780   69.7160  223.7910 C   0  0  0  0  0  0  0  0  0  0  0  0
  140.0590   69.9610  225.0540 C   0  0  0  0  0  0  0  0  0  0  0  0
  140.1100   69.0320  226.0660 C   0  0  0  0  0  0  0  0  0  0  0  0
  140.6080   69.3790  227.3020 C   0  0  0  0  0  0  0  0  0  0  0  0
  140.6640   68.4680  228.3050 F   0  0  0  0  0  0  0  0  0  0  0  0
  141.0730   70.6400  227.5960 C   0  0  0  0  0  0  0  0  0  0  0  0
  141.0240   71.5900  226.5720 C   0  0  0  0  0  0  0  0  0  0  0  0
  140.5220   71.2290  225.3400 C   0  0  0  0  0  0  0  0  0  0  0  0
  140.4960   72.1820  224.3920 N   0  0  0  0  0  0  0  0  0  0  0  0
  141.3300   71.9850  220.8550 H   0  0  0  0  0  0  0  0  0  0  0  0
  140.7795   73.4288  218.9296 H   0  0  0  0  0  0  0  0  0  0  0  0
  140.0099   74.6137  220.0405 H   0  0  0  0  0  0  0  0  0  0  0  0
  144.6513   74.5426  218.2721 H   0  0  0  0  0  0  0  0  0  0  0  0
  143.2481   73.5794  217.8873 H   0  0  0  0  0  0  0  0  0  0  0  0
  144.3460   75.7749  216.3425 H   0  0  0  0  0  0  0  0  0  0  0  0
  142.8219   74.9474  215.9921 H   0  0  0  0  0  0  0  0  0  0  0  0
  142.9206   77.6421  216.7291 H   0  0  0  0  0  0  0  0  0  0  0  0
  141.5226   76.7158  217.1090 H   0  0  0  0  0  0  0  0  0  0  0  0
  144.1384   76.9055  218.9919 H   0  0  0  0  0  0  0  0  0  0  0  0
  142.3440   76.7290  221.2690 H   0  0  0  0  0  0  0  0  0  0  0  0
  140.9944   79.2412  220.7905 H   0  0  0  0  0  0  0  0  0  0  0  0
  140.6120   77.1851  222.7609 H   0  0  0  0  0  0  0  0  0  0  0  0
  139.5011   78.4590  222.0870 H   0  0  0  0  0  0  0  0  0  0  0  0
  141.4268   78.6702  224.4092 H   0  0  0  0  0  0  0  0  0  0  0  0
  139.6085   78.8603  224.3705 H   0  0  0  0  0  0  0  0  0  0  0  0
  141.0070   80.9628  224.6065 H   0  0  0  0  0  0  0  0  0  0  0  0
  137.6822   79.5430  222.3343 H   0  0  0  0  0  0  0  0  0  0  0  0
  135.4183   79.1254  223.2966 H   0  0  0  0  0  0  0  0  0  0  0  0
  136.1996   81.7350  226.5028 H   0  0  0  0  0  0  0  0  0  0  0  0
  138.4579   82.2034  225.6099 H   0  0  0  0  0  0  0  0  0  0  0  0
  142.4788   81.5586  223.0579 H   0  0  0  0  0  0  0  0  0  0  0  0
  141.3186   81.2184  221.7214 H   0  0  0  0  0  0  0  0  0  0  0  0
  142.9159   79.0521  223.1982 H   0  0  0  0  0  0  0  0  0  0  0  0
  143.4372   79.7491  221.6686 H   0  0  0  0  0  0  0  0  0  0  0  0
  139.1598   70.4771  221.8073 H   0  0  0  0  0  0  0  0  0  0  0  0
  139.2044   68.7099  223.5500 H   0  0  0  0  0  0  0  0  0  0  0  0
  139.7516   68.0074  225.8877 H   0  0  0  0  0  0  0  0  0  0  0  0
  141.4659   70.8895  228.5927 H   0  0  0  0  0  0  0  0  0  0  0  0
  141.3823   72.6151  226.7474 H   0  0  0  0  0  0  0  0  0  0  0  0
  1  2  2  0
  2  3  1  0
  3  4  1  0
  4  5  1  0
  5  6  2  0
  5  7  1  0
  7  8  1  0
  8  9  1  0
  9 10  1  0
 10 11  1  0
 11 12  1  0
 12 13  2  0
 12 14  1  0
 14 15  1  0
 15 16  1  0
 16 17  1  0
 17 18  1  0
 18 19  1  0
 19 20  1  0
 20 21  2  0
 21 22  1  0
 22 23  2  0
 23 24  1  0
 24 25  2  0
 18 26  1  0
 26 27  1  0
  2 28  1  0
 28 29  2  0
 29 30  1  0
 30 31  2  0
 31 32  1  0
 32 33  2  0
 33 34  1  0
 33 35  1  0
 35 36  2  0
 36 37  1  0
 37 38  2  0
 11  7  1  0
 27 15  1  0
 38 28  1  0
 25 20  1  0
 37 31  1  0
  3 39  1  0
  4 40  1  0
  4 41  1  0
  8 42  1  0
  8 43  1  0
  9 44  1  0
  9 45  1  0
 10 46  1  0
 10 47  1  0
 11 48  1  6
 14 49  1  0
 15 50  1  6
 16 51  1  0
 16 52  1  0
 17 53  1  0
 17 54  1  0
 18 55  1  1
 21 56  1  0
 22 57  1  0
 24 58  1  0
 25 59  1  0
 26 60  1  0
 26 61  1  0
 27 62  1  0
 27 63  1  0
 29 64  1  0
 30 65  1  0
 32 66  1  0
 35 67  1  0
 36 68  1  0
M  END
>  <smiles>  (34) 
O=C(NCC(=O)N1CCC[C@H]1C(=O)N[C@H]1CC[C@H](Oc2ccncc2)CC1)c1ccc2cc(F)ccc2n1

>  <score_type>  (34) 
oracle

>  <origin>  (34) 
autodockgpu

>  <m_score__min__energy>  (34) 
-9.4700000000000006

>  <m_primary>  (34) 
energy

>  <rmsd>  (34) 
2.814172389484603

>  <m_score__min__rmsd>  (34) 
2.814172389484603

>  <meeko>  (34) 
{"free_energy": -8.87, "intermolecular_energy": -11.26, "internal_energy": -2.61, "cluster_size": 7, "cluster_id": 1, "rank_in_cluster": 4}

>  <energy>  (34) 
-6.87

>  <cluster_rmsd>  (34) 
1.92

>  <cluster>  (34) 
10

$$$$

     RDKit          3D

 68 72  0  0  0  0  0  0  0  0999 V2000
  138.8550   73.0740  222.2340 O   0  0  0  0  0  0  0  0  0  0  0  0
  139.8410   72.2880  222.3840 C   0  0  0  0  0  0  0  0  0  0  0  0
  140.9280   72.3100  221.4970 N   0  0  0  0  0  0  0  0  0  0  0  0
  140.9940   73.2500  220.3440 C   0  0  0  0  0  0  0  0  0  0  0  0
  141.4670   74.5540  220.8020 C   0  0  0  0  0  0  0  0  0  0  0  0
  140.9820   74.9300  221.9480 O   0  0  0  0  0  0  0  0  0  0  0  0
  142.3510   75.4640  220.2230 N   0  0  0  0  0  0  0  0  0  0  0  0
  143.5130   74.8900  219.4260 C   0  0  0  0  0  0  0  0  0  0  0  0
  143.6270   75.8780  218.2700 C   0  0  0  0  0  0  0  0  0  0  0  0
  142.6080   76.9920  218.5710 C   0  0  0  0  0  0  0  0  0  0  0  0
  142.5730   76.8460  220.1020 C   0  0  1  0  0  0  0  0  0  0  0  0
  141.6460   77.8290  220.6140 C   0  0  0  0  0  0  0  0  0  0  0  0
  141.1230   78.8020  220.0560 O   0  0  0  0  0  0  0  0  0  0  0  0
  141.2560   77.6630  222.0160 N   0  0  0  0  0  0  0  0  0  0  0  0
  140.3440   78.5690  222.6330 C   0  0  1  0  0  0  0  0  0  0  0  0
  140.8540   79.9310  222.9350 C   0  0  0  0  0  0  0  0  0  0  0  0
  139.8240   81.0090  222.6670 C   0  0  0  0  0  0  0  0  0  0  0  0
  138.4620   80.6990  223.2280 C   0  0  2  0  0  0  0  0  0  0  0  0
  138.3970   80.9460  224.5950 O   0  0  0  0  0  0  0  0  0  0  0  0
  137.3160   81.2680  225.3580 C   0  0  0  0  0  0  0  0  0  0  0  0
  136.0800   80.7340  224.9760 C   0  0  0  0  0  0  0  0  0  0  0  0
  134.9350   81.0340  225.7260 C   0  0  0  0  0  0  0  0  0  0  0  0
  135.0020   81.8250  226.8070 N   0  0  0  0  0  0  0  0  0  0  0  0
  136.1580   82.3430  227.1910 C   0  0  0  0  0  0  0  0  0  0  0  0
  137.3200   82.0710  226.4740 C   0  0  0  0  0  0  0  0  0  0  0  0
  138.0510   79.2830  222.8600 C   0  0  0  0  0  0  0  0  0  0  0  0
  139.0330   78.6920  221.8540 C   0  0  0  0  0  0  0  0  0  0  0  0
  139.8720   71.3240  223.5030 C   0  0  0  0  0  0  0  0  0  0  0  0
  139.3510   70.0440  223.3360 C   0  0  0  0  0  0  0  0  0  0  0  0
  139.4050   69.1850  224.4160 C   0  0  0  0  0  0  0  0  0  0  0  0
  139.9480   69.5580  225.6210 C   0  0  0  0  0  0  0  0  0  0  0  0
  140.0260   68.7490  226.7280 C   0  0  0  0  0  0  0  0  0  0  0  0
  140.5880   69.2200  227.8950 C   0  0  0  0  0  0  0  0  0  0  0  0
  140.6700   68.4270  228.9920 F   0  0  0  0  0  0  0  0  0  0  0  0
  141.0930   70.4940  228.0220 C   0  0  0  0  0  0  0  0  0  0  0  0
  141.0170   71.3230  226.9000 C   0  0  0  0  0  0  0  0  0  0  0  0
  140.4510   70.8380  225.7390 C   0  0  0  0  0  0  0  0  0  0  0  0
  140.4020   71.6780  224.6910 N   0  0  0  0  0  0  0  0  0  0  0  0
  141.7230   71.6420  221.6510 H   0  0  0  0  0  0  0  0  0  0  0  0
  141.6877   72.8538  219.5878 H   0  0  0  0  0  0  0  0  0  0  0  0
  139.9921   73.3588  219.9032 H   0  0  0  0  0  0  0  0  0  0  0  0
  144.4355   74.8680  220.0247 H   0  0  0  0  0  0  0  0  0  0  0  0
  143.3580   73.8494  219.1049 H   0  0  0  0  0  0  0  0  0  0  0  0
  144.6445   76.2927  218.2190 H   0  0  0  0  0  0  0  0  0  0  0  0
  143.4261   75.3951  217.3023 H   0  0  0  0  0  0  0  0  0  0  0  0
  142.9685   77.9822  218.2554 H   0  0  0  0  0  0  0  0  0  0  0  0
  141.6389   76.9102  218.0570 H   0  0  0  0  0  0  0  0  0  0  0  0
  143.4476   77.0807  220.7266 H   0  0  0  0  0  0  0  0  0  0  0  0
  141.6350   76.8770  222.5830 H   0  0  0  0  0  0  0  0  0  0  0  0
  140.1774   78.0905  223.6094 H   0  0  0  0  0  0  0  0  0  0  0  0
  141.7375   80.1237  222.3086 H   0  0  0  0  0  0  0  0  0  0  0  0
  141.1023   79.9649  224.0061 H   0  0  0  0  0  0  0  0  0  0  0  0
  139.7302   81.1365  221.5785 H   0  0  0  0  0  0  0  0  0  0  0  0
  140.1773   81.9222  223.1682 H   0  0  0  0  0  0  0  0  0  0  0  0
  137.7308   81.3812  222.7699 H   0  0  0  0  0  0  0  0  0  0  0  0
  136.0078   80.0828  224.0924 H   0  0  0  0  0  0  0  0  0  0  0  0
  133.9647   80.6136  225.4230 H   0  0  0  0  0  0  0  0  0  0  0  0
  136.2007   82.9904  228.0793 H   0  0  0  0  0  0  0  0  0  0  0  0
  138.2700   82.5118  226.8105 H   0  0  0  0  0  0  0  0  0  0  0  0
  137.0443   79.3008  222.4171 H   0  0  0  0  0  0  0  0  0  0  0  0
  138.0519   78.6624  223.7682 H   0  0  0  0  0  0  0  0  0  0  0  0
  139.1548   79.3609  220.9893 H   0  0  0  0  0  0  0  0  0  0  0  0
  138.6918   77.7272  221.4506 H   0  0  0  0  0  0  0  0  0  0  0  0
  138.9120   69.7281  222.3781 H   0  0  0  0  0  0  0  0  0  0  0  0
  138.9996   68.1682  224.3074 H   0  0  0  0  0  0  0  0  0  0  0  0
  139.6382   67.7206  226.6831 H   0  0  0  0  0  0  0  0  0  0  0  0
  141.5370   70.8442  228.9655 H   0  0  0  0  0  0  0  0  0  0  0  0
  141.4044   72.3517  226.9418 H   0  0  0  0  0  0  0  0  0  0  0  0
  1  2  2  0
  2  3  1  0
  3  4  1  0
  4  5  1  0
  5  6  2  0
  5  7  1  0
  7  8  1  0
  8  9  1  0
  9 10  1  0
 10 11  1  0
 11 12  1  0
 12 13  2  0
 12 14  1  0
 14 15  1  0
 15 16  1  0
 16 17  1  0
 17 18  1  0
 18 19  1  0
 19 20  1  0
 20 21  2  0
 21 22  1  0
 22 23  2  0
 23 24  1  0
 24 25  2  0
 18 26  1  0
 26 27  1  0
  2 28  1  0
 28 29  2  0
 29 30  1  0
 30 31  2  0
 31 32  1  0
 32 33  2  0
 33 34  1  0
 33 35  1  0
 35 36  2  0
 36 37  1  0
 37 38  2  0
 11  7  1  0
 27 15  1  0
 38 28  1  0
 25 20  1  0
 37 31  1  0
  3 39  1  0
  4 40  1  0
  4 41  1  0
  8 42  1  0
  8 43  1  0
  9 44  1  0
  9 45  1  0
 10 46  1  0
 10 47  1  0
 11 48  1  1
 14 49  1  0
 15 50  1  1
 16 51  1  0
 16 52  1  0
 17 53  1  0
 17 54  1  0
 18 55  1  6
 21 56  1  0
 22 57  1  0
 24 58  1  0
 25 59  1  0
 26 60  1  0
 26 61  1  0
 27 62  1  0
 27 63  1  0
 29 64  1  0
 30 65  1  0
 32 66  1  0
 35 67  1  0
 36 68  1  0
M  END
>  <smiles>  (35) 
O=C(NCC(=O)N1CCC[C@H]1C(=O)N[C@H]1CC[C@H](Oc2ccncc2)CC1)c1ccc2cc(F)ccc2n1

>  <score_type>  (35) 
oracle

>  <origin>  (35) 
autodockgpu

>  <m_score__min__energy>  (35) 
-9.4700000000000006

>  <m_primary>  (35) 
energy

>  <rmsd>  (35) 
2.5360818027287593

>  <m_score__min__rmsd>  (35) 
2.5360818027287593

>  <meeko>  (35) 
{"free_energy": -9.34, "intermolecular_energy": -11.73, "internal_energy": -2.32, "cluster_size": 7, "cluster_id": 1, "rank_in_cluster": 3}

>  <energy>  (35) 
-7.42

>  <cluster_rmsd>  (35) 
0.0

>  <cluster>  (35) 
11

$$$$

     RDKit          3D

 68 72  0  0  0  0  0  0  0  0999 V2000
  138.6960   72.2060  221.8700 O   0  0  0  0  0  0  0  0  0  0  0  0
  138.3560   71.2210  222.5970 C   0  0  0  0  0  0  0  0  0  0  0  0
  137.2630   70.4110  222.2550 N   0  0  0  0  0  0  0  0  0  0  0  0
  136.4490   70.6480  221.0310 C   0  0  0  0  0  0  0  0  0  0  0  0
  135.9560   72.0230  221.0290 C   0  0  0  0  0  0  0  0  0  0  0  0
  136.0590   72.6290  219.8840 O   0  0  0  0  0  0  0  0  0  0  0  0
  135.3920   72.7960  222.0430 N   0  0  0  0  0  0  0  0  0  0  0  0
  134.4400   72.0950  223.0000 C   0  0  0  0  0  0  0  0  0  0  0  0
  134.7800   72.7560  224.3320 C   0  0  0  0  0  0  0  0  0  0  0  0
  135.8050   73.8570  224.0020 C   0  0  0  0  0  0  0  0  0  0  0  0
  135.3890   74.1090  222.5420 C   0  0  1  0  0  0  0  0  0  0  0  0
  136.2490   75.1430  222.0150 C   0  0  0  0  0  0  0  0  0  0  0  0
  135.9690   76.1910  221.4180 O   0  0  0  0  0  0  0  0  0  0  0  0
  137.6860   74.9310  222.2070 N   0  0  0  0  0  0  0  0  0  0  0  0
  138.6350   75.8830  221.7330 C   0  0  1  0  0  0  0  0  0  0  0  0
  139.6130   76.4040  222.7230 C   0  0  0  0  0  0  0  0  0  0  0  0
  141.0010   76.5670  222.1380 C   0  0  0  0  0  0  0  0  0  0  0  0
  141.0180   77.2570  220.8010 C   0  0  2  0  0  0  0  0  0  0  0  0
  140.8870   78.6360  220.9290 O   0  0  0  0  0  0  0  0  0  0  0  0
  141.2220   79.4360  221.9780 C   0  0  0  0  0  0  0  0  0  0  0  0
  142.5790   79.5350  222.3020 C   0  0  0  0  0  0  0  0  0  0  0  0
  142.9780   80.3440  223.3740 C   0  0  0  0  0  0  0  0  0  0  0  0
  142.0790   81.0300  224.0970 N   0  0  0  0  0  0  0  0  0  0  0  0
  140.7900   80.9560  223.8120 C   0  0  0  0  0  0  0  0  0  0  0  0
  140.3500   80.1620  222.7550 C   0  0  0  0  0  0  0  0  0  0  0  0
  139.9780   76.6440  219.8790 C   0  0  0  0  0  0  0  0  0  0  0  0
  139.3960   75.3810  220.5040 C   0  0  0  0  0  0  0  0  0  0  0  0
  139.1070   70.8990  223.8270 C   0  0  0  0  0  0  0  0  0  0  0  0
  140.0600   71.7900  224.3160 C   0  0  0  0  0  0  0  0  0  0  0  0
  140.7320   71.4370  225.4700 C   0  0  0  0  0  0  0  0  0  0  0  0
  140.4880   70.2570  226.1270 C   0  0  0  0  0  0  0  0  0  0  0  0
  141.1280   69.8530  227.2740 C   0  0  0  0  0  0  0  0  0  0  0  0
  140.8110   68.6450  227.8570 C   0  0  0  0  0  0  0  0  0  0  0  0
  141.4370   68.2400  228.9890 F   0  0  0  0  0  0  0  0  0  0  0  0
  139.8630   67.7910  227.3430 C   0  0  0  0  0  0  0  0  0  0  0  0
  139.2080   68.1950  226.1770 C   0  0  0  0  0  0  0  0  0  0  0  0
  139.5350   69.4060  225.6040 C   0  0  0  0  0  0  0  0  0  0  0  0
  138.8760   69.7440  224.4820 N   0  0  0  0  0  0  0  0  0  0  0  0
  137.0090   69.6080  222.8830 H   0  0  0  0  0  0  0  0  0  0  0  0
  137.0713   70.4809  220.1395 H   0  0  0  0  0  0  0  0  0  0  0  0
  135.5957   69.9540  221.0198 H   0  0  0  0  0  0  0  0  0  0  0  0
  133.3909   72.2741  222.7219 H   0  0  0  0  0  0  0  0  0  0  0  0
  134.5487   71.0004  223.0091 H   0  0  0  0  0  0  0  0  0  0  0  0
  133.8780   73.1947  224.7836 H   0  0  0  0  0  0  0  0  0  0  0  0
  135.1824   72.0303  225.0540 H   0  0  0  0  0  0  0  0  0  0  0  0
  135.6749   74.7493  224.6319 H   0  0  0  0  0  0  0  0  0  0  0  0
  136.8613   73.5964  224.1641 H   0  0  0  0  0  0  0  0  0  0  0  0
  134.4106   74.5405  222.2842 H   0  0  0  0  0  0  0  0  0  0  0  0
  138.0360   74.0820  222.6970 H   0  0  0  0  0  0  0  0  0  0  0  0
  137.9887   76.7348  221.4748 H   0  0  0  0  0  0  0  0  0  0  0  0
  139.6668   75.7023  223.5684 H   0  0  0  0  0  0  0  0  0  0  0  0
  139.2668   77.3978  223.0432 H   0  0  0  0  0  0  0  0  0  0  0  0
  141.4469   75.5685  222.0189 H   0  0  0  0  0  0  0  0  0  0  0  0
  141.5700   77.2012  222.8337 H   0  0  0  0  0  0  0  0  0  0  0  0
  142.0017   77.0962  220.3358 H   0  0  0  0  0  0  0  0  0  0  0  0
  143.3288   78.9808  221.7184 H   0  0  0  0  0  0  0  0  0  0  0  0
  144.0458   80.4182  223.6274 H   0  0  0  0  0  0  0  0  0  0  0  0
  140.0626   81.5232  224.4114 H   0  0  0  0  0  0  0  0  0  0  0  0
  139.2732   80.1144  222.5355 H   0  0  0  0  0  0  0  0  0  0  0  0
  140.4496   76.3894  218.9184 H   0  0  0  0  0  0  0  0  0  0  0  0
  139.1678   77.3708  219.7200 H   0  0  0  0  0  0  0  0  0  0  0  0
  140.1972   74.6872  220.7984 H   0  0  0  0  0  0  0  0  0  0  0  0
  138.7500   74.8268  219.8073 H   0  0  0  0  0  0  0  0  0  0  0  0
  140.2695   72.7397  223.8019 H   0  0  0  0  0  0  0  0  0  0  0  0
  141.4882   72.1249  225.8761 H   0  0  0  0  0  0  0  0  0  0  0  0
  141.8961   70.4960  227.7285 H   0  0  0  0  0  0  0  0  0  0  0  0
  139.6308   66.8318  227.8289 H   0  0  0  0  0  0  0  0  0  0  0  0
  138.4394   67.5538  225.7207 H   0  0  0  0  0  0  0  0  0  0  0  0
  1  2  2  0
  2  3  1  0
  3  4  1  0
  4  5  1  0
  5  6  2  0
  5  7  1  0
  7  8  1  0
  8  9  1  0
  9 10  1  0
 10 11  1  0
 11 12  1  0
 12 13  2  0
 12 14  1  0
 14 15  1  0
 15 16  1  0
 16 17  1  0
 17 18  1  0
 18 19  1  0
 19 20  1  0
 20 21  2  0
 21 22  1  0
 22 23  2  0
 23 24  1  0
 24 25  2  0
 18 26  1  0
 26 27  1  0
  2 28  1  0
 28 29  2  0
 29 30  1  0
 30 31  2  0
 31 32  1  0
 32 33  2  0
 33 34  1  0
 33 35  1  0
 35 36  2  0
 36 37  1  0
 37 38  2  0
 11  7  1  0
 27 15  1  0
 38 28  1  0
 25 20  1  0
 37 31  1  0
  3 39  1  0
  4 40  1  0
  4 41  1  0
  8 42  1  0
  8 43  1  0
  9 44  1  0
  9 45  1  0
 10 46  1  0
 10 47  1  0
 11 48  1  1
 14 49  1  0
 15 50  1  6
 16 51  1  0
 16 52  1  0
 17 53  1  0
 17 54  1  0
 18 55  1  6
 21 56  1  0
 22 57  1  0
 24 58  1  0
 25 59  1  0
 26 60  1  0
 26 61  1  0
 27 62  1  0
 27 63  1  0
 29 64  1  0
 30 65  1  0
 32 66  1  0
 35 67  1  0
 36 68  1  0
M  END
>  <smiles>  (36) 
O=C(NCC(=O)N1CCC[C@H]1C(=O)N[C@H]1CC[C@H](Oc2ccncc2)CC1)c1ccc2cc(F)ccc2n1

>  <score_type>  (36) 
oracle

>  <origin>  (36) 
autodockgpu

>  <m_score__min__energy>  (36) 
-9.4700000000000006

>  <m_primary>  (36) 
energy

>  <rmsd>  (36) 
5.196800421629069

>  <m_score__min__rmsd>  (36) 
5.196800421629069

>  <meeko>  (36) 
{"free_energy": -7.25, "intermolecular_energy": -9.64, "internal_energy": -3.69, "cluster_size": 7, "cluster_id": 9, "rank_in_cluster": 6}

>  <energy>  (36) 
-7.29

>  <cluster_rmsd>  (36) 
1.54

>  <cluster>  (36) 
11

$$$$

     RDKit          3D

 68 72  0  0  0  0  0  0  0  0999 V2000
  138.8000   72.5970  222.0180 O   0  0  0  0  0  0  0  0  0  0  0  0
  138.3160   71.7420  222.8220 C   0  0  0  0  0  0  0  0  0  0  0  0
  137.0020   71.2720  222.6770 N   0  0  0  0  0  0  0  0  0  0  0  0
  136.1080   71.7350  221.5790 C   0  0  0  0  0  0  0  0  0  0  0  0
  135.9990   73.1900  221.6180 C   0  0  0  0  0  0  0  0  0  0  0  0
  136.4760   73.7930  220.5690 O   0  0  0  0  0  0  0  0  0  0  0  0
  135.4690   74.0450  222.5840 N   0  0  0  0  0  0  0  0  0  0  0  0
  134.2850   73.5310  223.3890 C   0  0  0  0  0  0  0  0  0  0  0  0
  134.5730   74.0940  224.7770 C   0  0  0  0  0  0  0  0  0  0  0  0
  135.8240   74.9770  224.6180 C   0  0  0  0  0  0  0  0  0  0  0  0
  135.6550   75.3260  223.1290 C   0  0  1  0  0  0  0  0  0  0  0  0
  136.7600   76.1780  222.7520 C   0  0  0  0  0  0  0  0  0  0  0  0
  136.8910   77.4060  222.8440 O   0  0  0  0  0  0  0  0  0  0  0  0
  137.9150   75.4970  222.1640 N   0  0  0  0  0  0  0  0  0  0  0  0
  139.0670   76.2300  221.7550 C   0  0  1  0  0  0  0  0  0  0  0  0
  140.3840   75.5720  221.9490 C   0  0  0  0  0  0  0  0  0  0  0  0
  141.3340   75.8210  220.7960 C   0  0  0  0  0  0  0  0  0  0  0  0
  141.3980   77.2620  220.3660 C   0  0  2  0  0  0  0  0  0  0  0  0
  142.1960   78.0210  221.2160 O   0  0  0  0  0  0  0  0  0  0  0  0
  141.8400   79.0410  222.0440 C   0  0  0  0  0  0  0  0  0  0  0  0
  140.9210   78.7520  223.0590 C   0  0  0  0  0  0  0  0  0  0  0  0
  140.5190   79.7650  223.9390 C   0  0  0  0  0  0  0  0  0  0  0  0
  141.0020   81.0120  223.8270 N   0  0  0  0  0  0  0  0  0  0  0  0
  141.8720   81.3130  222.8770 C   0  0  0  0  0  0  0  0  0  0  0  0
  142.2980   80.3360  221.9810 C   0  0  0  0  0  0  0  0  0  0  0  0
  139.9970   77.8270  220.2040 C   0  0  0  0  0  0  0  0  0  0  0  0
  138.9630   76.7110  220.3060 C   0  0  0  0  0  0  0  0  0  0  0  0
  139.1270   71.2150  223.9390 C   0  0  0  0  0  0  0  0  0  0  0  0
  140.2680   71.8970  224.3530 C   0  0  0  0  0  0  0  0  0  0  0  0
  140.9890   71.3590  225.4020 C   0  0  0  0  0  0  0  0  0  0  0  0
  140.6140   70.1950  226.0260 C   0  0  0  0  0  0  0  0  0  0  0  0
  141.2930   69.6120  227.0680 C   0  0  0  0  0  0  0  0  0  0  0  0
  140.8350   68.4380  227.6250 C   0  0  0  0  0  0  0  0  0  0  0  0
  141.4980   67.8580  228.6560 F   0  0  0  0  0  0  0  0  0  0  0  0
  139.7020   67.7930  227.1870 C   0  0  0  0  0  0  0  0  0  0  0  0
  139.0060   68.3800  226.1270 C   0  0  0  0  0  0  0  0  0  0  0  0
  139.4760   69.5540  225.5790 C   0  0  0  0  0  0  0  0  0  0  0  0
  138.7690   70.0740  224.5600 N   0  0  0  0  0  0  0  0  0  0  0  0
  136.6340   70.5680  223.3650 H   0  0  0  0  0  0  0  0  0  0  0  0
  136.5269   71.4250  220.6103 H   0  0  0  0  0  0  0  0  0  0  0  0
  135.1103   71.2900  221.7076 H   0  0  0  0  0  0  0  0  0  0  0  0
  133.3345   73.9162  222.9913 H   0  0  0  0  0  0  0  0  0  0  0  0
  134.1783   72.4364  223.3691 H   0  0  0  0  0  0  0  0  0  0  0  0
  133.7223   74.6947  225.1312 H   0  0  0  0  0  0  0  0  0  0  0  0
  134.7326   73.2935  225.5144 H   0  0  0  0  0  0  0  0  0  0  0  0
  135.7886   75.8687  225.2612 H   0  0  0  0  0  0  0  0  0  0  0  0
  136.7807   74.5121  224.8984 H   0  0  0  0  0  0  0  0  0  0  0  0
  134.8194   75.9448  222.7699 H   0  0  0  0  0  0  0  0  0  0  0  0
  137.9140   74.4630  222.0390 H   0  0  0  0  0  0  0  0  0  0  0  0
  139.0528   77.0792  222.4540 H   0  0  0  0  0  0  0  0  0  0  0  0
  140.2253   74.4879  222.0471 H   0  0  0  0  0  0  0  0  0  0  0  0
  140.8398   75.9985  222.8548 H   0  0  0  0  0  0  0  0  0  0  0  0
  141.0047   75.2167  219.9379 H   0  0  0  0  0  0  0  0  0  0  0  0
  142.3404   75.5437  221.1427 H   0  0  0  0  0  0  0  0  0  0  0  0
  141.8854   77.3118  219.3812 H   0  0  0  0  0  0  0  0  0  0  0  0
  140.5164   77.7346  223.1653 H   0  0  0  0  0  0  0  0  0  0  0  0
  139.7955   79.5345  224.7349 H   0  0  0  0  0  0  0  0  0  0  0  0
  142.2603   82.3389  222.7946 H   0  0  0  0  0  0  0  0  0  0  0  0
  143.0226   80.6083  221.1994 H   0  0  0  0  0  0  0  0  0  0  0  0
  139.9124   78.3117  219.2202 H   0  0  0  0  0  0  0  0  0  0  0  0
  139.8120   78.5611  221.0020 H   0  0  0  0  0  0  0  0  0  0  0  0
  139.1997   75.8954  219.6068 H   0  0  0  0  0  0  0  0  0  0  0  0
  137.9496   77.0524  220.0484 H   0  0  0  0  0  0  0  0  0  0  0  0
  140.5840   72.8298  223.8631 H   0  0  0  0  0  0  0  0  0  0  0  0
  141.8933   71.8806  225.7485 H   0  0  0  0  0  0  0  0  0  0  0  0
  142.2061   70.0843  227.4593 H   0  0  0  0  0  0  0  0  0  0  0  0
  139.3589   66.8564  227.6507 H   0  0  0  0  0  0  0  0  0  0  0  0
  138.0924   67.9099  225.7340 H   0  0  0  0  0  0  0  0  0  0  0  0
  1  2  2  0
  2  3  1  0
  3  4  1  0
  4  5  1  0
  5  6  2  0
  5  7  1  0
  7  8  1  0
  8  9  1  0
  9 10  1  0
 10 11  1  0
 11 12  1  0
 12 13  2  0
 12 14  1  0
 14 15  1  0
 15 16  1  0
 16 17  1  0
 17 18  1  0
 18 19  1  0
 19 20  1  0
 20 21  2  0
 21 22  1  0
 22 23  2  0
 23 24  1  0
 24 25  2  0
 18 26  1  0
 26 27  1  0
  2 28  1  0
 28 29  2  0
 29 30  1  0
 30 31  2  0
 31 32  1  0
 32 33  2  0
 33 34  1  0
 33 35  1  0
 35 36  2  0
 36 37  1  0
 37 38  2  0
 11  7  1  0
 27 15  1  0
 38 28  1  0
 25 20  1  0
 37 31  1  0
  3 39  1  0
  4 40  1  0
  4 41  1  0
  8 42  1  0
  8 43  1  0
  9 44  1  0
  9 45  1  0
 10 46  1  0
 10 47  1  0
 11 48  1  1
 14 49  1  0
 15 50  1  1
 16 51  1  0
 16 52  1  0
 17 53  1  0
 17 54  1  0
 18 55  1  6
 21 56  1  0
 22 57  1  0
 24 58  1  0
 25 59  1  0
 26 60  1  0
 26 61  1  0
 27 62  1  0
 27 63  1  0
 29 64  1  0
 30 65  1  0
 32 66  1  0
 35 67  1  0
 36 68  1  0
M  END
>  <smiles>  (37) 
O=C(NCC(=O)N1CCC[C@H]1C(=O)N[C@H]1CC[C@H](Oc2ccncc2)CC1)c1ccc2cc(F)ccc2n1

>  <score_type>  (37) 
oracle

>  <origin>  (37) 
autodockgpu

>  <m_score__min__energy>  (37) 
-9.4700000000000006

>  <m_primary>  (37) 
energy

>  <rmsd>  (37) 
5.038224270079014

>  <m_score__min__rmsd>  (37) 
5.038224270079014

>  <meeko>  (37) 
{"free_energy": -7.31, "intermolecular_energy": -9.69, "internal_energy": -4.19, "cluster_size": 7, "cluster_id": 9, "rank_in_cluster": 3}

>  <energy>  (37) 
-7.1

>  <cluster_rmsd>  (37) 
1.59

>  <cluster>  (37) 
11

$$$$

     RDKit          3D

 68 72  0  0  0  0  0  0  0  0999 V2000
  140.3550   77.2950  218.3120 O   0  0  0  0  0  0  0  0  0  0  0  0
  141.5660   77.3360  218.6940 C   0  0  0  0  0  0  0  0  0  0  0  0
  142.1400   78.5280  219.1600 N   0  0  0  0  0  0  0  0  0  0  0  0
  141.3720   79.8020  219.2410 C   0  0  0  0  0  0  0  0  0  0  0  0
  141.3070   80.2470  220.6300 C   0  0  0  0  0  0  0  0  0  0  0  0
  140.6350   81.3450  220.8120 O   0  0  0  0  0  0  0  0  0  0  0  0
  141.8390   79.6960  221.7960 N   0  0  0  0  0  0  0  0  0  0  0  0
  142.9280   80.4890  222.5020 C   0  0  0  0  0  0  0  0  0  0  0  0
  142.5970   80.2480  223.9720 C   0  0  0  0  0  0  0  0  0  0  0  0
  141.4300   79.2440  223.9770 C   0  0  0  0  0  0  0  0  0  0  0  0
  141.7180   78.5690  222.6260 C   0  0  1  0  0  0  0  0  0  0  0  0
  140.7080   77.5560  222.4190 C   0  0  0  0  0  0  0  0  0  0  0  0
  139.4950   77.5750  222.6620 O   0  0  0  0  0  0  0  0  0  0  0  0
  141.1800   76.3010  221.8300 N   0  0  0  0  0  0  0  0  0  0  0  0
  140.2770   75.2280  221.5750 C   0  0  1  0  0  0  0  0  0  0  0  0
  139.4450   75.3290  220.3490 C   0  0  0  0  0  0  0  0  0  0  0  0
  139.2890   73.9990  219.6410 C   0  0  0  0  0  0  0  0  0  0  0  0
  138.9330   72.8620  220.5600 C   0  0  2  0  0  0  0  0  0  0  0  0
  137.5820   72.8680  220.8930 O   0  0  0  0  0  0  0  0  0  0  0  0
  136.9620   73.4570  221.9520 C   0  0  0  0  0  0  0  0  0  0  0  0
  136.3830   72.6140  222.9060 C   0  0  0  0  0  0  0  0  0  0  0  0
  135.7320   73.1690  224.0160 C   0  0  0  0  0  0  0  0  0  0  0  0
  135.6530   74.4980  224.1810 N   0  0  0  0  0  0  0  0  0  0  0  0
  136.1930   75.3180  223.2940 C   0  0  0  0  0  0  0  0  0  0  0  0
  136.8490   74.8090  222.1770 C   0  0  0  0  0  0  0  0  0  0  0  0
  139.8450   72.8630  221.7760 C   0  0  0  0  0  0  0  0  0  0  0  0
  140.9760   73.8670  221.5870 C   0  0  0  0  0  0  0  0  0  0  0  0
  142.4060   76.1220  218.6590 C   0  0  0  0  0  0  0  0  0  0  0  0
  142.3780   75.2860  217.5460 C   0  0  0  0  0  0  0  0  0  0  0  0
  143.1840   74.1640  217.5680 C   0  0  0  0  0  0  0  0  0  0  0  0
  143.9910   73.8650  218.6370 C   0  0  0  0  0  0  0  0  0  0  0  0
  144.8090   72.7630  218.7160 C   0  0  0  0  0  0  0  0  0  0  0  0
  145.5800   72.5500  219.8380 C   0  0  0  0  0  0  0  0  0  0  0  0
  146.3910   71.4660  219.9220 F   0  0  0  0  0  0  0  0  0  0  0  0
  145.5810   73.4000  220.9200 C   0  0  0  0  0  0  0  0  0  0  0  0
  144.7510   74.5220  220.8470 C   0  0  0  0  0  0  0  0  0  0  0  0
  143.9850   74.7230  219.7180 C   0  0  0  0  0  0  0  0  0  0  0  0
  143.2030   75.8170  219.7020 N   0  0  0  0  0  0  0  0  0  0  0  0
  143.1450   78.5240  219.4620 H   0  0  0  0  0  0  0  0  0  0  0  0
  141.8724   80.5704  218.6334 H   0  0  0  0  0  0  0  0  0  0  0  0
  140.3525   79.6388  218.8615 H   0  0  0  0  0  0  0  0  0  0  0  0
  143.9279   80.1061  222.2499 H   0  0  0  0  0  0  0  0  0  0  0  0
  142.9527   81.5526  222.2225 H   0  0  0  0  0  0  0  0  0  0  0  0
  143.4672   79.8272  224.4971 H   0  0  0  0  0  0  0  0  0  0  0  0
  142.3305   81.1829  224.4867 H   0  0  0  0  0  0  0  0  0  0  0  0
  141.4930   78.5369  224.8173 H   0  0  0  0  0  0  0  0  0  0  0  0
  140.4248   79.6748  224.0954 H   0  0  0  0  0  0  0  0  0  0  0  0
  142.6195   77.9601  222.4629 H   0  0  0  0  0  0  0  0  0  0  0  0
  142.1840   76.1750  221.5840 H   0  0  0  0  0  0  0  0  0  0  0  0
  139.5769   75.3188  222.4186 H   0  0  0  0  0  0  0  0  0  0  0  0
  139.9194   76.0422  219.6588 H   0  0  0  0  0  0  0  0  0  0  0  0
  138.4426   75.6649  220.6528 H   0  0  0  0  0  0  0  0  0  0  0  0
  140.2392   73.7577  219.1422 H   0  0  0  0  0  0  0  0  0  0  0  0
  138.4573   74.1094  218.9296 H   0  0  0  0  0  0  0  0  0  0  0  0
  139.1003   71.9148  220.0263 H   0  0  0  0  0  0  0  0  0  0  0  0
  136.4383   71.5220  222.7858 H   0  0  0  0  0  0  0  0  0  0  0  0
  135.2779   72.5034  224.7649 H   0  0  0  0  0  0  0  0  0  0  0  0
  136.1232   76.4060  223.4400 H   0  0  0  0  0  0  0  0  0  0  0  0
  137.2903   75.5091  221.4524 H   0  0  0  0  0  0  0  0  0  0  0  0
  140.2707   71.8578  221.9113 H   0  0  0  0  0  0  0  0  0  0  0  0
  139.2591   73.1462  222.6629 H   0  0  0  0  0  0  0  0  0  0  0  0
  141.4994   73.6896  220.6359 H   0  0  0  0  0  0  0  0  0  0  0  0
  141.7386   73.7937  222.3764 H   0  0  0  0  0  0  0  0  0  0  0  0
  141.7374   75.5106  216.6805 H   0  0  0  0  0  0  0  0  0  0  0  0
  143.1787   73.4882  216.7001 H   0  0  0  0  0  0  0  0  0  0  0  0
  144.8482   72.0486  217.8805 H   0  0  0  0  0  0  0  0  0  0  0  0
  146.2072   73.2051  221.8031 H   0  0  0  0  0  0  0  0  0  0  0  0
  144.7092   75.2374  221.6815 H   0  0  0  0  0  0  0  0  0  0  0  0
  1  2  2  0
  2  3  1  0
  3  4  1  0
  4  5  1  0
  5  6  2  0
  5  7  1  0
  7  8  1  0
  8  9  1  0
  9 10  1  0
 10 11  1  0
 11 12  1  0
 12 13  2  0
 12 14  1  0
 14 15  1  0
 15 16  1  0
 16 17  1  0
 17 18  1  0
 18 19  1  0
 19 20  1  0
 20 21  2  0
 21 22  1  0
 22 23  2  0
 23 24  1  0
 24 25  2  0
 18 26  1  0
 26 27  1  0
  2 28  1  0
 28 29  2  0
 29 30  1  0
 30 31  2  0
 31 32  1  0
 32 33  2  0
 33 34  1  0
 33 35  1  0
 35 36  2  0
 36 37  1  0
 37 38  2  0
 11  7  1  0
 27 15  1  0
 38 28  1  0
 25 20  1  0
 37 31  1  0
  3 39  1  0
  4 40  1  0
  4 41  1  0
  8 42  1  0
  8 43  1  0
  9 44  1  0
  9 45  1  0
 10 46  1  0
 10 47  1  0
 11 48  1  1
 14 49  1  0
 15 50  1  1
 16 51  1  0
 16 52  1  0
 17 53  1  0
 17 54  1  0
 18 55  1  6
 21 56  1  0
 22 57  1  0
 24 58  1  0
 25 59  1  0
 26 60  1  0
 26 61  1  0
 27 62  1  0
 27 63  1  0
 29 64  1  0
 30 65  1  0
 32 66  1  0
 35 67  1  0
 36 68  1  0
M  END
>  <smiles>  (38) 
O=C(NCC(=O)N1CCC[C@H]1C(=O)N[C@H]1CC[C@H](Oc2ccncc2)CC1)c1ccc2cc(F)ccc2n1

>  <score_type>  (38) 
oracle

>  <origin>  (38) 
autodockgpu

>  <m_score__min__energy>  (38) 
-9.4700000000000006

>  <m_primary>  (38) 
energy

>  <rmsd>  (38) 
7.686787610026548

>  <m_score__min__rmsd>  (38) 
7.686787610026548

>  <meeko>  (38) 
{"free_energy": -7.1, "intermolecular_energy": -9.49, "internal_energy": -4.34, "cluster_size": 9, "cluster_id": 11, "rank_in_cluster": 3}

>  <energy>  (38) 
-7.02

>  <cluster_rmsd>  (38) 
1.58

>  <cluster>  (38) 
11

$$$$

     RDKit          3D

 68 72  0  0  0  0  0  0  0  0999 V2000
  140.4970   77.2710  218.0790 O   0  0  0  0  0  0  0  0  0  0  0  0
  141.6590   77.2550  218.5900 C   0  0  0  0  0  0  0  0  0  0  0  0
  142.2320   78.4170  219.1280 N   0  0  0  0  0  0  0  0  0  0  0  0
  141.5170   79.7240  219.1400 C   0  0  0  0  0  0  0  0  0  0  0  0
  141.3590   80.1830  220.5170 C   0  0  0  0  0  0  0  0  0  0  0  0
  140.6090   81.2380  220.6490 O   0  0  0  0  0  0  0  0  0  0  0  0
  141.8710   79.6850  221.7150 N   0  0  0  0  0  0  0  0  0  0  0  0
  142.9340   80.5190  222.4130 C   0  0  0  0  0  0  0  0  0  0  0  0
  142.5730   80.3320  223.8840 C   0  0  0  0  0  0  0  0  0  0  0  0
  141.4180   79.3150  223.9030 C   0  0  0  0  0  0  0  0  0  0  0  0
  141.7440   78.5910  222.5860 C   0  0  1  0  0  0  0  0  0  0  0  0
  140.7500   77.5580  222.3970 C   0  0  0  0  0  0  0  0  0  0  0  0
  139.5540   77.5310  222.7140 O   0  0  0  0  0  0  0  0  0  0  0  0
  141.2190   76.3420  221.7280 N   0  0  0  0  0  0  0  0  0  0  0  0
  140.3310   75.2550  221.4820 C   0  0  1  0  0  0  0  0  0  0  0  0
  139.5560   75.2960  220.2150 C   0  0  0  0  0  0  0  0  0  0  0  0
  139.4350   73.9340  219.5640 C   0  0  0  0  0  0  0  0  0  0  0  0
  139.0400   72.8390  220.5180 C   0  0  2  0  0  0  0  0  0  0  0  0
  137.6750   72.8540  220.7870 O   0  0  0  0  0  0  0  0  0  0  0  0
  137.0210   73.3510  221.8730 C   0  0  0  0  0  0  0  0  0  0  0  0
  136.9280   74.7420  221.9840 C   0  0  0  0  0  0  0  0  0  0  0  0
  136.2650   75.3070  223.0820 C   0  0  0  0  0  0  0  0  0  0  0  0
  135.7150   74.5340  224.0320 N   0  0  0  0  0  0  0  0  0  0  0  0
  135.7880   73.2160  223.9510 C   0  0  0  0  0  0  0  0  0  0  0  0
  136.4380   72.6140  222.8770 C   0  0  0  0  0  0  0  0  0  0  0  0
  139.8940   72.9000  221.7720 C   0  0  0  0  0  0  0  0  0  0  0  0
  141.0320   73.8990  221.5890 C   0  0  0  0  0  0  0  0  0  0  0  0
  142.4450   76.0050  218.6330 C   0  0  0  0  0  0  0  0  0  0  0  0
  142.2500   75.0260  217.6620 C   0  0  0  0  0  0  0  0  0  0  0  0
  143.0120   73.8760  217.7520 C   0  0  0  0  0  0  0  0  0  0  0  0
  143.9310   73.6840  218.7540 C   0  0  0  0  0  0  0  0  0  0  0  0
  144.7110   72.5620  218.8950 C   0  0  0  0  0  0  0  0  0  0  0  0
  145.6050   72.4650  219.9400 C   0  0  0  0  0  0  0  0  0  0  0  0
  146.3790   71.3610  220.0850 F   0  0  0  0  0  0  0  0  0  0  0  0
  145.7680   73.4540  220.8810 C   0  0  0  0  0  0  0  0  0  0  0  0
  144.9770   74.5990  220.7440 C   0  0  0  0  0  0  0  0  0  0  0  0
  144.0870   74.6820  219.6940 C   0  0  0  0  0  0  0  0  0  0  0  0
  143.3500   75.8040  219.6110 N   0  0  0  0  0  0  0  0  0  0  0  0
  143.1970   78.3660  219.5380 H   0  0  0  0  0  0  0  0  0  0  0  0
  142.0986   80.4647  218.5716 H   0  0  0  0  0  0  0  0  0  0  0  0
  140.5255   79.6023  218.6794 H   0  0  0  0  0  0  0  0  0  0  0  0
  143.9439   80.1393  222.1984 H   0  0  0  0  0  0  0  0  0  0  0  0
  142.9521   81.5710  222.0922 H   0  0  0  0  0  0  0  0  0  0  0  0
  143.4359   79.9429  224.4443 H   0  0  0  0  0  0  0  0  0  0  0  0
  142.2845   81.2831  224.3554 H   0  0  0  0  0  0  0  0  0  0  0  0
  141.4702   78.6422  224.7717 H   0  0  0  0  0  0  0  0  0  0  0  0
  140.4055   79.7377  223.9822 H   0  0  0  0  0  0  0  0  0  0  0  0
  142.6559   77.9874  222.4672 H   0  0  0  0  0  0  0  0  0  0  0  0
  142.2080   76.2560  221.4160 H   0  0  0  0  0  0  0  0  0  0  0  0
  139.5924   75.3814  222.2873 H   0  0  0  0  0  0  0  0  0  0  0  0
  140.0607   75.9779  219.5148 H   0  0  0  0  0  0  0  0  0  0  0  0
  138.5401   75.6423  220.4560 H   0  0  0  0  0  0  0  0  0  0  0  0
  140.4074   73.6738  219.1204 H   0  0  0  0  0  0  0  0  0  0  0  0
  138.6360   74.0078  218.8116 H   0  0  0  0  0  0  0  0  0  0  0  0
  139.2347   71.8687  220.0377 H   0  0  0  0  0  0  0  0  0  0  0  0
  137.3728   75.3892  221.2137 H   0  0  0  0  0  0  0  0  0  0  0  0
  136.1941   76.4014  223.1668 H   0  0  0  0  0  0  0  0  0  0  0  0
  135.3334   72.5929  224.7353 H   0  0  0  0  0  0  0  0  0  0  0  0
  136.4867   71.5161  222.8302 H   0  0  0  0  0  0  0  0  0  0  0  0
  140.3145   71.9037  221.9735 H   0  0  0  0  0  0  0  0  0  0  0  0
  139.2672   73.2222  222.6166 H   0  0  0  0  0  0  0  0  0  0  0  0
  141.5991   73.6801  220.6722 H   0  0  0  0  0  0  0  0  0  0  0  0
  141.7579   73.8651  222.4148 H   0  0  0  0  0  0  0  0  0  0  0  0
  141.5169   75.1627  216.8534 H   0  0  0  0  0  0  0  0  0  0  0  0
  142.8776   73.0886  216.9957 H   0  0  0  0  0  0  0  0  0  0  0  0
  144.6220   71.7381  218.1716 H   0  0  0  0  0  0  0  0  0  0  0  0
  146.4888   73.3492  221.7053 H   0  0  0  0  0  0  0  0  0  0  0  0
  145.0638   75.4244  221.4659 H   0  0  0  0  0  0  0  0  0  0  0  0
  1  2  2  0
  2  3  1  0
  3  4  1  0
  4  5  1  0
  5  6  2  0
  5  7  1  0
  7  8  1  0
  8  9  1  0
  9 10  1  0
 10 11  1  0
 11 12  1  0
 12 13  2  0
 12 14  1  0
 14 15  1  0
 15 16  1  0
 16 17  1  0
 17 18  1  0
 18 19  1  0
 19 20  1  0
 20 21  2  0
 21 22  1  0
 22 23  2  0
 23 24  1  0
 24 25  2  0
 18 26  1  0
 26 27  1  0
  2 28  1  0
 28 29  2  0
 29 30  1  0
 30 31  2  0
 31 32  1  0
 32 33  2  0
 33 34  1  0
 33 35  1  0
 35 36  2  0
 36 37  1  0
 37 38  2  0
 11  7  1  0
 27 15  1  0
 38 28  1  0
 25 20  1  0
 37 31  1  0
  3 39  1  0
  4 40  1  0
  4 41  1  0
  8 42  1  0
  8 43  1  0
  9 44  1  0
  9 45  1  0
 10 46  1  0
 10 47  1  0
 11 48  1  1
 14 49  1  0
 15 50  1  1
 16 51  1  0
 16 52  1  0
 17 53  1  0
 17 54  1  0
 18 55  1  6
 21 56  1  0
 22 57  1  0
 24 58  1  0
 25 59  1  0
 26 60  1  0
 26 61  1  0
 27 62  1  0
 27 63  1  0
 29 64  1  0
 30 65  1  0
 32 66  1  0
 35 67  1  0
 36 68  1  0
M  END
>  <smiles>  (39) 
O=C(NCC(=O)N1CCC[C@H]1C(=O)N[C@H]1CC[C@H](Oc2ccncc2)CC1)c1ccc2cc(F)ccc2n1

>  <score_type>  (39) 
oracle

>  <origin>  (39) 
autodockgpu

>  <m_score__min__energy>  (39) 
-9.4700000000000006

>  <m_primary>  (39) 
energy

>  <rmsd>  (39) 
7.635133764800983

>  <m_score__min__rmsd>  (39) 
7.635133764800983

>  <meeko>  (39) 
{"free_energy": -7.02, "intermolecular_energy": -9.41, "internal_energy": -4.47, "cluster_size": 9, "cluster_id": 11, "rank_in_cluster": 4}

>  <energy>  (39) 
-6.5

>  <cluster_rmsd>  (39) 
1.51

>  <cluster>  (39) 
11

$$$$

     RDKit          3D

 68 72  0  0  0  0  0  0  0  0999 V2000
  139.2410   72.4340  221.9000 O   0  0  0  0  0  0  0  0  0  0  0  0
  138.7690   71.4680  222.5750 C   0  0  0  0  0  0  0  0  0  0  0  0
  137.6390   70.7600  222.1360 N   0  0  0  0  0  0  0  0  0  0  0  0
  136.9380   71.0900  220.8640 C   0  0  0  0  0  0  0  0  0  0  0  0
  136.3800   72.4360  220.9480 C   0  0  0  0  0  0  0  0  0  0  0  0
  136.5570   73.1590  219.8810 O   0  0  0  0  0  0  0  0  0  0  0  0
  135.6870   73.0800  221.9730 N   0  0  0  0  0  0  0  0  0  0  0  0
  134.5130   72.3360  222.5890 C   0  0  0  0  0  0  0  0  0  0  0  0
  134.6320   72.7120  224.0620 C   0  0  0  0  0  0  0  0  0  0  0  0
  135.7840   73.7310  224.1410 C   0  0  0  0  0  0  0  0  0  0  0  0
  135.6870   74.2780  222.7060 C   0  0  1  0  0  0  0  0  0  0  0  0
  136.7130   75.2840  222.5530 C   0  0  0  0  0  0  0  0  0  0  0  0
  136.7680   76.4440  222.9820 O   0  0  0  0  0  0  0  0  0  0  0  0
  137.8800   74.8840  221.7630 N   0  0  0  0  0  0  0  0  0  0  0  0
  138.9600   75.7880  221.5440 C   0  0  1  0  0  0  0  0  0  0  0  0
  140.3320   75.2270  221.6270 C   0  0  0  0  0  0  0  0  0  0  0  0
  141.2590   75.7980  220.5750 C   0  0  0  0  0  0  0  0  0  0  0  0
  141.1900   77.2970  220.4570 C   0  0  2  0  0  0  0  0  0  0  0  0
  141.9100   77.9300  221.4650 O   0  0  0  0  0  0  0  0  0  0  0  0
  141.5940   79.0500  222.1710 C   0  0  0  0  0  0  0  0  0  0  0  0
  140.5660   78.9450  223.1140 C   0  0  0  0  0  0  0  0  0  0  0  0
  140.2000   80.0670  223.8680 C   0  0  0  0  0  0  0  0  0  0  0  0
  140.8200   81.2460  223.7020 N   0  0  0  0  0  0  0  0  0  0  0  0
  141.7960   81.3730  222.8190 C   0  0  0  0  0  0  0  0  0  0  0  0
  142.1910   80.2830  222.0480 C   0  0  0  0  0  0  0  0  0  0  0  0
  139.7430   77.7530  220.3830 C   0  0  0  0  0  0  0  0  0  0  0  0
  138.8170   76.5520  220.2260 C   0  0  0  0  0  0  0  0  0  0  0  0
  139.3990   71.0590  223.8460 C   0  0  0  0  0  0  0  0  0  0  0  0
  140.3400   71.8860  224.4550 C   0  0  0  0  0  0  0  0  0  0  0  0
  140.8980   71.4530  225.6430 C   0  0  0  0  0  0  0  0  0  0  0  0
  140.5530   70.2550  226.2190 C   0  0  0  0  0  0  0  0  0  0  0  0
  141.0770   69.7730  227.3940 C   0  0  0  0  0  0  0  0  0  0  0  0
  140.6660   68.5550  227.8890 C   0  0  0  0  0  0  0  0  0  0  0  0
  141.1780   68.0730  229.0490 F   0  0  0  0  0  0  0  0  0  0  0  0
  139.7330   67.7650  227.2580 C   0  0  0  0  0  0  0  0  0  0  0  0
  139.1960   68.2490  226.0620 C   0  0  0  0  0  0  0  0  0  0  0  0
  139.6170   69.4700  225.5780 C   0  0  0  0  0  0  0  0  0  0  0  0
  139.0690   69.8860  224.4230 N   0  0  0  0  0  0  0  0  0  0  0  0
  137.2740   69.9700  222.7240 H   0  0  0  0  0  0  0  0  0  0  0  0
  137.6523   71.0412  220.0289 H   0  0  0  0  0  0  0  0  0  0  0  0
  136.1258   70.3674  220.6962 H   0  0  0  0  0  0  0  0  0  0  0  0
  133.5572   72.6784  222.1657 H   0  0  0  0  0  0  0  0  0  0  0  0
  134.5323   71.2514  222.4067 H   0  0  0  0  0  0  0  0  0  0  0  0
  133.6950   73.1642  224.4192 H   0  0  0  0  0  0  0  0  0  0  0  0
  134.8259   71.8308  224.6912 H   0  0  0  0  0  0  0  0  0  0  0  0
  135.6005   74.5091  224.8965 H   0  0  0  0  0  0  0  0  0  0  0  0
  136.7637   73.3290  224.4386 H   0  0  0  0  0  0  0  0  0  0  0  0
  134.8159   74.8553  222.3626 H   0  0  0  0  0  0  0  0  0  0  0  0
  137.9410   73.9290  221.3530 H   0  0  0  0  0  0  0  0  0  0  0  0
  138.8636   76.4655  222.4052 H   0  0  0  0  0  0  0  0  0  0  0  0
  140.2755   74.1367  221.4925 H   0  0  0  0  0  0  0  0  0  0  0  0
  140.7419   75.4935  222.6124 H   0  0  0  0  0  0  0  0  0  0  0  0
  140.9914   75.3604  219.6019 H   0  0  0  0  0  0  0  0  0  0  0  0
  142.2854   75.5465  220.8803 H   0  0  0  0  0  0  0  0  0  0  0  0
  141.6753   77.5970  219.5165 H   0  0  0  0  0  0  0  0  0  0  0  0
  140.0478   77.9861  223.2625 H   0  0  0  0  0  0  0  0  0  0  0  0
  139.3911   79.9807  224.6085 H   0  0  0  0  0  0  0  0  0  0  0  0
  142.2979   82.3437  222.6930 H   0  0  0  0  0  0  0  0  0  0  0  0
  143.0046   80.4117  221.3189 H   0  0  0  0  0  0  0  0  0  0  0  0
  139.6175   78.4233  219.5199 H   0  0  0  0  0  0  0  0  0  0  0  0
  139.4870   78.2831  221.3122 H   0  0  0  0  0  0  0  0  0  0  0  0
  139.1308   75.9266  219.3773 H   0  0  0  0  0  0  0  0  0  0  0  0
  137.7771   76.8474  220.0227 H   0  0  0  0  0  0  0  0  0  0  0  0
  140.6284   72.8483  224.0069 H   0  0  0  0  0  0  0  0  0  0  0  0
  141.6430   72.0889  226.1437 H   0  0  0  0  0  0  0  0  0  0  0  0
  141.8276   70.3619  227.9415 H   0  0  0  0  0  0  0  0  0  0  0  0
  139.4236   66.7958  227.6761 H   0  0  0  0  0  0  0  0  0  0  0  0
  138.4453   67.6622  225.5123 H   0  0  0  0  0  0  0  0  0  0  0  0
  1  2  2  0
  2  3  1  0
  3  4  1  0
  4  5  1  0
  5  6  2  0
  5  7  1  0
  7  8  1  0
  8  9  1  0
  9 10  1  0
 10 11  1  0
 11 12  1  0
 12 13  2  0
 12 14  1  0
 14 15  1  0
 15 16  1  0
 16 17  1  0
 17 18  1  0
 18 19  1  0
 19 20  1  0
 20 21  2  0
 21 22  1  0
 22 23  2  0
 23 24  1  0
 24 25  2  0
 18 26  1  0
 26 27  1  0
  2 28  1  0
 28 29  2  0
 29 30  1  0
 30 31  2  0
 31 32  1  0
 32 33  2  0
 33 34  1  0
 33 35  1  0
 35 36  2  0
 36 37  1  0
 37 38  2  0
 11  7  1  0
 27 15  1  0
 38 28  1  0
 25 20  1  0
 37 31  1  0
  3 39  1  0
  4 40  1  0
  4 41  1  0
  8 42  1  0
  8 43  1  0
  9 44  1  0
  9 45  1  0
 10 46  1  0
 10 47  1  0
 11 48  1  1
 14 49  1  0
 15 50  1  1
 16 51  1  0
 16 52  1  0
 17 53  1  0
 17 54  1  0
 18 55  1  6
 21 56  1  0
 22 57  1  0
 24 58  1  0
 25 59  1  0
 26 60  1  0
 26 61  1  0
 27 62  1  0
 27 63  1  0
 29 64  1  0
 30 65  1  0
 32 66  1  0
 35 67  1  0
 36 68  1  0
M  END
>  <smiles>  (40) 
O=C(NCC(=O)N1CCC[C@H]1C(=O)N[C@H]1CC[C@H](Oc2ccncc2)CC1)c1ccc2cc(F)ccc2n1

>  <score_type>  (40) 
oracle

>  <origin>  (40) 
autodockgpu

>  <m_score__min__energy>  (40) 
-9.4700000000000006

>  <m_primary>  (40) 
energy

>  <rmsd>  (40) 
5.0845696555339455

>  <m_score__min__rmsd>  (40) 
5.0845696555339455

>  <meeko>  (40) 
{"free_energy": -6.98, "intermolecular_energy": -9.37, "internal_energy": -4.25, "cluster_size": 7, "cluster_id": 9, "rank_in_cluster": 7}

>  <energy>  (40) 
-6.49

>  <cluster_rmsd>  (40) 
1.51

>  <cluster>  (40) 
11

$$$$

     RDKit          3D

 68 72  0  0  0  0  0  0  0  0999 V2000
  133.5900   69.9830  226.5870 O   0  0  0  0  0  0  0  0  0  0  0  0
  133.9080   71.1290  226.1410 C   0  0  0  0  0  0  0  0  0  0  0  0
  134.9330   71.2800  225.1940 N   0  0  0  0  0  0  0  0  0  0  0  0
  135.6950   70.1200  224.6560 C   0  0  0  0  0  0  0  0  0  0  0  0
  136.7530   70.5970  223.7700 C   0  0  0  0  0  0  0  0  0  0  0  0
  136.6150   71.8320  223.3850 O   0  0  0  0  0  0  0  0  0  0  0  0
  137.8860   69.9590  223.2670 N   0  0  0  0  0  0  0  0  0  0  0  0
  137.7650   68.4750  222.9580 C   0  0  0  0  0  0  0  0  0  0  0  0
  138.6010   68.3420  221.6880 C   0  0  0  0  0  0  0  0  0  0  0  0
  139.2240   69.7300  221.4530 C   0  0  0  0  0  0  0  0  0  0  0  0
  139.2200   70.2200  222.9110 C   0  0  1  0  0  0  0  0  0  0  0  0
  139.7810   71.5520  222.9260 C   0  0  0  0  0  0  0  0  0  0  0  0
  140.8460   71.9660  223.4010 O   0  0  0  0  0  0  0  0  0  0  0  0
  138.9720   72.5890  222.2810 N   0  0  0  0  0  0  0  0  0  0  0  0
  139.4210   73.9400  222.2290 C   0  0  1  0  0  0  0  0  0  0  0  0
  140.6060   74.2200  221.3780 C   0  0  0  0  0  0  0  0  0  0  0  0
  140.4820   75.5260  220.6210 C   0  0  0  0  0  0  0  0  0  0  0  0
  140.0220   76.6790  221.4730 C   0  0  2  0  0  0  0  0  0  0  0  0
  141.0580   77.1990  222.2420 O   0  0  0  0  0  0  0  0  0  0  0  0
  141.4410   78.4960  222.4010 C   0  0  0  0  0  0  0  0  0  0  0  0
  141.7920   78.9070  223.6910 C   0  0  0  0  0  0  0  0  0  0  0  0
  142.1930   80.2320  223.9100 C   0  0  0  0  0  0  0  0  0  0  0  0
  142.2480   81.1150  222.9020 N   0  0  0  0  0  0  0  0  0  0  0  0
  141.9230   80.7530  221.6720 C   0  0  0  0  0  0  0  0  0  0  0  0
  141.5180   79.4460  221.4100 C   0  0  0  0  0  0  0  0  0  0  0  0
  138.8130   76.2740  222.2980 C   0  0  0  0  0  0  0  0  0  0  0  0
  138.3000   74.9100  221.8510 C   0  0  0  0  0  0  0  0  0  0  0  0
  133.2040   72.3400  226.6070 C   0  0  0  0  0  0  0  0  0  0  0  0
  131.9610   72.2300  227.2250 C   0  0  0  0  0  0  0  0  0  0  0  0
  131.3470   73.3960  227.6400 C   0  0  0  0  0  0  0  0  0  0  0  0
  131.9230   74.6290  227.4610 C   0  0  0  0  0  0  0  0  0  0  0  0
  131.3580   75.8200  227.8500 C   0  0  0  0  0  0  0  0  0  0  0  0
  132.0170   77.0080  227.6210 C   0  0  0  0  0  0  0  0  0  0  0  0
  131.4680   78.1870  228.0030 F   0  0  0  0  0  0  0  0  0  0  0  0
  133.2460   77.0770  227.0060 C   0  0  0  0  0  0  0  0  0  0  0  0
  133.8260   75.8700  226.6080 C   0  0  0  0  0  0  0  0  0  0  0  0
  133.1550   74.6890  226.8430 C   0  0  0  0  0  0  0  0  0  0  0  0
  133.7580   73.5570  226.4370 N   0  0  0  0  0  0  0  0  0  0  0  0
  135.1710   72.2430  224.8520 H   0  0  0  0  0  0  0  0  0  0  0  0
  136.1413   69.5571  225.4891 H   0  0  0  0  0  0  0  0  0  0  0  0
  135.0140   69.4655  224.0922 H   0  0  0  0  0  0  0  0  0  0  0  0
  138.1777   67.8627  223.7733 H   0  0  0  0  0  0  0  0  0  0  0  0
  136.7267   68.1310  222.8417 H   0  0  0  0  0  0  0  0  0  0  0  0
  139.3884   67.5861  221.8244 H   0  0  0  0  0  0  0  0  0  0  0  0
  137.9903   68.0205  220.8314 H   0  0  0  0  0  0  0  0  0  0  0  0
  140.2409   69.6649  221.0387 H   0  0  0  0  0  0  0  0  0  0  0  0
  138.7055   70.3738  220.7273 H   0  0  0  0  0  0  0  0  0  0  0  0
  139.8491   69.7502  223.6814 H   0  0  0  0  0  0  0  0  0  0  0  0
  138.0560   72.3530  221.8460 H   0  0  0  0  0  0  0  0  0  0  0  0
  139.7519   74.1063  223.2648 H   0  0  0  0  0  0  0  0  0  0  0  0
  140.7203   73.4013  220.6523 H   0  0  0  0  0  0  0  0  0  0  0  0
  141.4810   74.2995  222.0398 H   0  0  0  0  0  0  0  0  0  0  0  0
  139.7577   75.3868  219.8049 H   0  0  0  0  0  0  0  0  0  0  0  0
  141.4867   75.7800  220.2522 H   0  0  0  0  0  0  0  0  0  0  0  0
  139.7053   77.4996  220.8125 H   0  0  0  0  0  0  0  0  0  0  0  0
  141.7536   78.1948  224.5284 H   0  0  0  0  0  0  0  0  0  0  0  0
  142.4672   80.5531  224.9257 H   0  0  0  0  0  0  0  0  0  0  0  0
  141.9727   81.4862  220.8535 H   0  0  0  0  0  0  0  0  0  0  0  0
  141.2520   79.1658  220.3801 H   0  0  0  0  0  0  0  0  0  0  0  0
  138.0171   77.0219  222.1666 H   0  0  0  0  0  0  0  0  0  0  0  0
  139.1054   76.2167  223.3569 H   0  0  0  0  0  0  0  0  0  0  0  0
  138.1235   74.8971  220.7653 H   0  0  0  0  0  0  0  0  0  0  0  0
  137.3413   74.6473  222.3221 H   0  0  0  0  0  0  0  0  0  0  0  0
  131.4851   71.2500  227.3773 H   0  0  0  0  0  0  0  0  0  0  0  0
  130.3641   73.3342  228.1300 H   0  0  0  0  0  0  0  0  0  0  0  0
  130.3762   75.8247  228.3459 H   0  0  0  0  0  0  0  0  0  0  0  0
  133.7495   78.0400  226.8353 H   0  0  0  0  0  0  0  0  0  0  0  0
  134.8079   75.8621  226.1123 H   0  0  0  0  0  0  0  0  0  0  0  0
  1  2  2  0
  2  3  1  0
  3  4  1  0
  4  5  1  0
  5  6  2  0
  5  7  1  0
  7  8  1  0
  8  9  1  0
  9 10  1  0
 10 11  1  0
 11 12  1  0
 12 13  2  0
 12 14  1  0
 14 15  1  0
 15 16  1  0
 16 17  1  0
 17 18  1  0
 18 19  1  0
 19 20  1  0
 20 21  2  0
 21 22  1  0
 22 23  2  0
 23 24  1  0
 24 25  2  0
 18 26  1  0
 26 27  1  0
  2 28  1  0
 28 29  2  0
 29 30  1  0
 30 31  2  0
 31 32  1  0
 32 33  2  0
 33 34  1  0
 33 35  1  0
 35 36  2  0
 36 37  1  0
 37 38  2  0
 11  7  1  0
 27 15  1  0
 38 28  1  0
 25 20  1  0
 37 31  1  0
  3 39  1  0
  4 40  1  0
  4 41  1  0
  8 42  1  0
  8 43  1  0
  9 44  1  0
  9 45  1  0
 10 46  1  0
 10 47  1  0
 11 48  1  1
 14 49  1  0
 15 50  1  1
 16 51  1  0
 16 52  1  0
 17 53  1  0
 17 54  1  0
 18 55  1  6
 21 56  1  0
 22 57  1  0
 24 58  1  0
 25 59  1  0
 26 60  1  0
 26 61  1  0
 27 62  1  0
 27 63  1  0
 29 64  1  0
 30 65  1  0
 32 66  1  0
 35 67  1  0
 36 68  1  0
M  END
>  <smiles>  (41) 
O=C(NCC(=O)N1CCC[C@H]1C(=O)N[C@H]1CC[C@H](Oc2ccncc2)CC1)c1ccc2cc(F)ccc2n1

>  <score_type>  (41) 
oracle

>  <origin>  (41) 
autodockgpu

>  <m_score__min__energy>  (41) 
-9.4700000000000006

>  <m_primary>  (41) 
energy

>  <rmsd>  (41) 
7.9348187837848

>  <m_score__min__rmsd>  (41) 
7.9348187837848

>  <meeko>  (41) 
{"free_energy": -8.03, "intermolecular_energy": -10.42, "internal_energy": -3.27, "cluster_size": 1, "cluster_id": 8, "rank_in_cluster": 1}

>  <energy>  (41) 
-6.35

>  <cluster_rmsd>  (41) 
1.51

>  <cluster>  (41) 
11

$$$$

     RDKit          3D

 68 72  0  0  0  0  0  0  0  0999 V2000
  138.8060   70.4110  221.4190 O   0  0  0  0  0  0  0  0  0  0  0  0
  139.1640   70.9770  222.4980 C   0  0  0  0  0  0  0  0  0  0  0  0
  139.3620   72.3650  222.5570 N   0  0  0  0  0  0  0  0  0  0  0  0
  139.1600   73.2490  221.3760 C   0  0  0  0  0  0  0  0  0  0  0  0
  140.3010   74.1490  221.2370 C   0  0  0  0  0  0  0  0  0  0  0  0
  140.6750   74.7170  222.3450 O   0  0  0  0  0  0  0  0  0  0  0  0
  141.0600   74.5030  220.1220 N   0  0  0  0  0  0  0  0  0  0  0  0
  141.5470   73.3720  219.2290 C   0  0  0  0  0  0  0  0  0  0  0  0
  141.4180   73.9850  217.8370 C   0  0  0  0  0  0  0  0  0  0  0  0
  140.9880   75.4460  218.0630 C   0  0  0  0  0  0  0  0  0  0  0  0
  141.5820   75.6320  219.4700 C   0  0  1  0  0  0  0  0  0  0  0  0
  141.2870   76.9810  219.8940 C   0  0  0  0  0  0  0  0  0  0  0  0
  140.8860   77.9550  219.2440 O   0  0  0  0  0  0  0  0  0  0  0  0
  141.4900   77.2570  221.3180 N   0  0  0  0  0  0  0  0  0  0  0  0
  141.2290   78.5500  221.8570 C   0  0  1  0  0  0  0  0  0  0  0  0
  141.2070   78.6670  223.3380 C   0  0  0  0  0  0  0  0  0  0  0  0
  141.8540   79.9450  223.8290 C   0  0  0  0  0  0  0  0  0  0  0  0
  141.4080   81.1750  223.0860 C   0  0  2  0  0  0  0  0  0  0  0  0
  140.1610   81.6160  223.5170 O   0  0  0  0  0  0  0  0  0  0  0  0
  138.9650   80.9650  223.4940 C   0  0  0  0  0  0  0  0  0  0  0  0
  138.1110   81.1540  224.5850 C   0  0  0  0  0  0  0  0  0  0  0  0
  136.8690   80.5060  224.6130 C   0  0  0  0  0  0  0  0  0  0  0  0
  136.4820   79.7070  223.6070 N   0  0  0  0  0  0  0  0  0  0  0  0
  137.2690   79.5120  222.5630 C   0  0  0  0  0  0  0  0  0  0  0  0
  138.5120   80.1350  222.4950 C   0  0  0  0  0  0  0  0  0  0  0  0
  141.4690   80.9360  221.5870 C   0  0  0  0  0  0  0  0  0  0  0  0
  142.1710   79.6150  221.2910 C   0  0  0  0  0  0  0  0  0  0  0  0
  139.3810   70.1870  223.7270 C   0  0  0  0  0  0  0  0  0  0  0  0
  138.9680   68.8590  223.7840 C   0  0  0  0  0  0  0  0  0  0  0  0
  139.1950   68.1680  224.9580 C   0  0  0  0  0  0  0  0  0  0  0  0
  139.8040   68.7500  226.0430 C   0  0  0  0  0  0  0  0  0  0  0  0
  140.0530   68.1140  227.2350 C   0  0  0  0  0  0  0  0  0  0  0  0
  140.6680   68.7880  228.2670 C   0  0  0  0  0  0  0  0  0  0  0  0
  140.9180   68.1670  229.4460 F   0  0  0  0  0  0  0  0  0  0  0  0
  141.0620   70.1030  228.1730 C   0  0  0  0  0  0  0  0  0  0  0  0
  140.8130   70.7570  226.9630 C   0  0  0  0  0  0  0  0  0  0  0  0
  140.1950   70.0690  225.9390 C   0  0  0  0  0  0  0  0  0  0  0  0
  139.9770   70.7460  224.7980 N   0  0  0  0  0  0  0  0  0  0  0  0
  139.6620   72.7980  223.4660 H   0  0  0  0  0  0  0  0  0  0  0  0
  139.0670   72.6331  220.4694 H   0  0  0  0  0  0  0  0  0  0  0  0
  138.2430   73.8405  221.5151 H   0  0  0  0  0  0  0  0  0  0  0  0
  142.5908   73.1073  219.4535 H   0  0  0  0  0  0  0  0  0  0  0  0
  140.9835   72.4356  219.3540 H   0  0  0  0  0  0  0  0  0  0  0  0
  142.3828   73.9464  217.3101 H   0  0  0  0  0  0  0  0  0  0  0  0
  140.6903   73.4388  217.2188 H   0  0  0  0  0  0  0  0  0  0  0  0
  141.4368   76.1304  217.3280 H   0  0  0  0  0  0  0  0  0  0  0  0
  139.9122   75.6524  217.9632 H   0  0  0  0  0  0  0  0  0  0  0  0
  142.6676   75.6218  219.6469 H   0  0  0  0  0  0  0  0  0  0  0  0
  141.8250   76.5090  221.9610 H   0  0  0  0  0  0  0  0  0  0  0  0
  140.1939   78.7253  221.5286 H   0  0  0  0  0  0  0  0  0  0  0  0
  141.7474   77.8106  223.7675 H   0  0  0  0  0  0  0  0  0  0  0  0
  140.1541   78.6821  223.6562 H   0  0  0  0  0  0  0  0  0  0  0  0
  142.9439   79.8477  223.7162 H   0  0  0  0  0  0  0  0  0  0  0  0
  141.5497   80.0760  224.8779 H   0  0  0  0  0  0  0  0  0  0  0  0
  142.1054   81.9945  223.3141 H   0  0  0  0  0  0  0  0  0  0  0  0
  138.4126   81.8078  225.4166 H   0  0  0  0  0  0  0  0  0  0  0  0
  136.2004   80.6547  225.4737 H   0  0  0  0  0  0  0  0  0  0  0  0
  136.9403   78.8547  221.7445 H   0  0  0  0  0  0  0  0  0  0  0  0
  139.1505   79.9584  221.6169 H   0  0  0  0  0  0  0  0  0  0  0  0
  142.0247   81.7572  221.1107 H   0  0  0  0  0  0  0  0  0  0  0  0
  140.4444   80.8944  221.1888 H   0  0  0  0  0  0  0  0  0  0  0  0
  143.1503   79.5739  221.7903 H   0  0  0  0  0  0  0  0  0  0  0  0
  142.3668   79.4748  220.2177 H   0  0  0  0  0  0  0  0  0  0  0  0
  138.4784   68.3772  222.9248 H   0  0  0  0  0  0  0  0  0  0  0  0
  138.8777   67.1170  225.0265 H   0  0  0  0  0  0  0  0  0  0  0  0
  139.7600   67.0619  227.3659 H   0  0  0  0  0  0  0  0  0  0  0  0
  141.5515   70.6171  229.0133 H   0  0  0  0  0  0  0  0  0  0  0  0
  141.1065   71.8086  226.8286 H   0  0  0  0  0  0  0  0  0  0  0  0
  1  2  2  0
  2  3  1  0
  3  4  1  0
  4  5  1  0
  5  6  2  0
  5  7  1  0
  7  8  1  0
  8  9  1  0
  9 10  1  0
 10 11  1  0
 11 12  1  0
 12 13  2  0
 12 14  1  0
 14 15  1  0
 15 16  1  0
 16 17  1  0
 17 18  1  0
 18 19  1  0
 19 20  1  0
 20 21  2  0
 21 22  1  0
 22 23  2  0
 23 24  1  0
 24 25  2  0
 18 26  1  0
 26 27  1  0
  2 28  1  0
 28 29  2  0
 29 30  1  0
 30 31  2  0
 31 32  1  0
 32 33  2  0
 33 34  1  0
 33 35  1  0
 35 36  2  0
 36 37  1  0
 37 38  2  0
 11  7  1  0
 27 15  1  0
 38 28  1  0
 25 20  1  0
 37 31  1  0
  3 39  1  0
  4 40  1  0
  4 41  1  0
  8 42  1  0
  8 43  1  0
  9 44  1  0
  9 45  1  0
 10 46  1  0
 10 47  1  0
 11 48  1  6
 14 49  1  0
 15 50  1  6
 16 51  1  0
 16 52  1  0
 17 53  1  0
 17 54  1  0
 18 55  1  6
 21 56  1  0
 22 57  1  0
 24 58  1  0
 25 59  1  0
 26 60  1  0
 26 61  1  0
 27 62  1  0
 27 63  1  0
 29 64  1  0
 30 65  1  0
 32 66  1  0
 35 67  1  0
 36 68  1  0
M  END
>  <smiles>  (42) 
O=C(NCC(=O)N1CCC[C@H]1C(=O)N[C@H]1CC[C@H](Oc2ccncc2)CC1)c1ccc2cc(F)ccc2n1

>  <score_type>  (42) 
oracle

>  <origin>  (42) 
autodockgpu

>  <m_score__min__energy>  (42) 
-9.4700000000000006

>  <m_primary>  (42) 
energy

>  <rmsd>  (42) 
1.9320187487816896

>  <m_score__min__rmsd>  (42) 
1.9320187487816896

>  <meeko>  (42) 
{"free_energy": -8.85, "intermolecular_energy": -11.24, "internal_energy": -3.13, "cluster_size": 7, "cluster_id": 1, "rank_in_cluster": 5}

>  <energy>  (42) 
-6.25

>  <cluster_rmsd>  (42) 
1.49

>  <cluster>  (42) 
11

$$$$

     RDKit          3D

 68 72  0  0  0  0  0  0  0  0999 V2000
  139.2620   78.2190  222.7580 O   0  0  0  0  0  0  0  0  0  0  0  0
  140.1520   77.3170  222.6740 C   0  0  0  0  0  0  0  0  0  0  0  0
  141.4400   77.5180  223.1940 N   0  0  0  0  0  0  0  0  0  0  0  0
  141.8350   78.7820  223.8740 C   0  0  0  0  0  0  0  0  0  0  0  0
  142.2160   79.7770  222.8750 C   0  0  0  0  0  0  0  0  0  0  0  0
  143.5000   79.9080  222.7100 O   0  0  0  0  0  0  0  0  0  0  0  0
  141.4420   80.6070  222.0650 N   0  0  0  0  0  0  0  0  0  0  0  0
  141.1470   82.0050  222.5890 C   0  0  0  0  0  0  0  0  0  0  0  0
  141.2220   82.8450  221.3180 C   0  0  0  0  0  0  0  0  0  0  0  0
  141.4300   81.8430  220.1670 C   0  0  0  0  0  0  0  0  0  0  0  0
  140.7790   80.6160  220.8270 C   0  0  1  0  0  0  0  0  0  0  0  0
  140.8650   79.5190  219.8910 C   0  0  0  0  0  0  0  0  0  0  0  0
  140.1500   79.2370  218.9210 O   0  0  0  0  0  0  0  0  0  0  0  0
  141.9670   78.5800  220.1140 N   0  0  0  0  0  0  0  0  0  0  0  0
  142.1590   77.4600  219.2550 C   0  0  1  0  0  0  0  0  0  0  0  0
  141.0260   76.5060  219.1340 C   0  0  0  0  0  0  0  0  0  0  0  0
  140.8410   76.0000  217.7190 C   0  0  0  0  0  0  0  0  0  0  0  0
  142.1210   75.5560  217.0620 C   0  0  2  0  0  0  0  0  0  0  0  0
  142.5090   74.2900  217.4870 O   0  0  0  0  0  0  0  0  0  0  0  0
  143.6890   73.8940  218.0380 C   0  0  0  0  0  0  0  0  0  0  0  0
  144.6880   73.4520  217.1630 C   0  0  0  0  0  0  0  0  0  0  0  0
  145.9220   73.0330  217.6770 C   0  0  0  0  0  0  0  0  0  0  0  0
  146.1650   73.0480  218.9970 N   0  0  0  0  0  0  0  0  0  0  0  0
  145.2390   73.4610  219.8460 C   0  0  0  0  0  0  0  0  0  0  0  0
  143.9980   73.8860  219.3780 C   0  0  0  0  0  0  0  0  0  0  0  0
  143.2030   76.6050  217.2540 C   0  0  0  0  0  0  0  0  0  0  0  0
  142.6070   77.8750  217.8520 C   0  0  0  0  0  0  0  0  0  0  0  0
  139.8540   76.0240  222.0250 C   0  0  0  0  0  0  0  0  0  0  0  0
  138.6010   75.8000  221.4590 C   0  0  0  0  0  0  0  0  0  0  0  0
  138.3780   74.5730  220.8660 C   0  0  0  0  0  0  0  0  0  0  0  0
  139.3400   73.5940  220.8250 C   0  0  0  0  0  0  0  0  0  0  0  0
  139.1720   72.3560  220.2540 C   0  0  0  0  0  0  0  0  0  0  0  0
  140.2020   71.4400  220.2680 C   0  0  0  0  0  0  0  0  0  0  0  0
  140.0450   70.2160  219.7040 F   0  0  0  0  0  0  0  0  0  0  0  0
  141.4270   71.6980  220.8380 C   0  0  0  0  0  0  0  0  0  0  0  0
  141.6040   72.9550  221.4220 C   0  0  0  0  0  0  0  0  0  0  0  0
  140.5650   73.8620  221.4010 C   0  0  0  0  0  0  0  0  0  0  0  0
  140.7900   75.0550  221.9780 N   0  0  0  0  0  0  0  0  0  0  0  0
  142.1510   76.7500  223.1010 H   0  0  0  0  0  0  0  0  0  0  0  0
  140.9872   79.1610  224.4635 H   0  0  0  0  0  0  0  0  0  0  0  0
  142.6886   78.5874  224.5400 H   0  0  0  0  0  0  0  0  0  0  0  0
  140.1470   82.0580  223.0442 H   0  0  0  0  0  0  0  0  0  0  0  0
  141.8365   82.3360  223.3796 H   0  0  0  0  0  0  0  0  0  0  0  0
  140.2870   83.4062  221.1736 H   0  0  0  0  0  0  0  0  0  0  0  0
  142.0370   83.5822  221.3664 H   0  0  0  0  0  0  0  0  0  0  0  0
  140.9063   82.1488  219.2493 H   0  0  0  0  0  0  0  0  0  0  0  0
  142.4669   81.7120  219.8240 H   0  0  0  0  0  0  0  0  0  0  0  0
  139.7020   80.5798  221.0476 H   0  0  0  0  0  0  0  0  0  0  0  0
  142.6320   78.7210  220.9030 H   0  0  0  0  0  0  0  0  0  0  0  0
  142.9569   76.9114  219.7769 H   0  0  0  0  0  0  0  0  0  0  0  0
  140.1027   77.0133  219.4505 H   0  0  0  0  0  0  0  0  0  0  0  0
  141.2507   75.6385  219.7719 H   0  0  0  0  0  0  0  0  0  0  0  0
  140.4035   76.8089  217.1155 H   0  0  0  0  0  0  0  0  0  0  0  0
  140.1866   75.1177  217.7764 H   0  0  0  0  0  0  0  0  0  0  0  0
  141.9452   75.4625  215.9802 H   0  0  0  0  0  0  0  0  0  0  0  0
  144.5053   73.4338  216.0784 H   0  0  0  0  0  0  0  0  0  0  0  0
  146.7052   72.6858  216.9871 H   0  0  0  0  0  0  0  0  0  0  0  0
  145.4497   73.4689  220.9256 H   0  0  0  0  0  0  0  0  0  0  0  0
  143.2425   74.2254  220.1018 H   0  0  0  0  0  0  0  0  0  0  0  0
  143.6572   76.8406  216.2802 H   0  0  0  0  0  0  0  0  0  0  0  0
  143.9671   76.2103  217.9399 H   0  0  0  0  0  0  0  0  0  0  0  0
  141.7497   78.2210  217.2559 H   0  0  0  0  0  0  0  0  0  0  0  0
  143.3256   78.7076  217.8701 H   0  0  0  0  0  0  0  0  0  0  0  0
  137.8180   76.5722  221.4835 H   0  0  0  0  0  0  0  0  0  0  0  0
  137.3966   74.3731  220.4111 H   0  0  0  0  0  0  0  0  0  0  0  0
  138.2124   72.0947  219.7840 H   0  0  0  0  0  0  0  0  0  0  0  0
  142.2316   70.9480  220.8342 H   0  0  0  0  0  0  0  0  0  0  0  0
  142.5622   73.2186  221.8937 H   0  0  0  0  0  0  0  0  0  0  0  0
  1  2  2  0
  2  3  1  0
  3  4  1  0
  4  5  1  0
  5  6  2  0
  5  7  1  0
  7  8  1  0
  8  9  1  0
  9 10  1  0
 10 11  1  0
 11 12  1  0
 12 13  2  0
 12 14  1  0
 14 15  1  0
 15 16  1  0
 16 17  1  0
 17 18  1  0
 18 19  1  0
 19 20  1  0
 20 21  2  0
 21 22  1  0
 22 23  2  0
 23 24  1  0
 24 25  2  0
 18 26  1  0
 26 27  1  0
  2 28  1  0
 28 29  2  0
 29 30  1  0
 30 31  2  0
 31 32  1  0
 32 33  2  0
 33 34  1  0
 33 35  1  0
 35 36  2  0
 36 37  1  0
 37 38  2  0
 11  7  1  0
 27 15  1  0
 38 28  1  0
 25 20  1  0
 37 31  1  0
  3 39  1  0
  4 40  1  0
  4 41  1  0
  8 42  1  0
  8 43  1  0
  9 44  1  0
  9 45  1  0
 10 46  1  0
 10 47  1  0
 11 48  1  1
 14 49  1  0
 15 50  1  1
 16 51  1  0
 16 52  1  0
 17 53  1  0
 17 54  1  0
 18 55  1  6
 21 56  1  0
 22 57  1  0
 24 58  1  0
 25 59  1  0
 26 60  1  0
 26 61  1  0
 27 62  1  0
 27 63  1  0
 29 64  1  0
 30 65  1  0
 32 66  1  0
 35 67  1  0
 36 68  1  0
M  END
>  <smiles>  (43) 
O=C(NCC(=O)N1CCC[C@H]1C(=O)N[C@H]1CC[C@H](Oc2ccncc2)CC1)c1ccc2cc(F)ccc2n1

>  <score_type>  (43) 
oracle

>  <origin>  (43) 
autodockgpu

>  <m_score__min__energy>  (43) 
-9.4700000000000006

>  <m_primary>  (43) 
energy

>  <rmsd>  (43) 
6.462084244270771

>  <m_score__min__rmsd>  (43) 
6.462084244270771

>  <meeko>  (43) 
{"free_energy": -6.71, "intermolecular_energy": -9.1, "internal_energy": -4.62, "cluster_size": 1, "cluster_id": 16, "rank_in_cluster": 1}

>  <energy>  (43) 
-6.24

>  <cluster_rmsd>  (43) 
1.49

>  <cluster>  (43) 
11

$$$$

     RDKit          3D

 68 72  0  0  0  0  0  0  0  0999 V2000
  139.4330   70.7690  221.7310 O   0  0  0  0  0  0  0  0  0  0  0  0
  140.1700   71.4260  222.5300 C   0  0  0  0  0  0  0  0  0  0  0  0
  140.8620   72.5700  222.1030 N   0  0  0  0  0  0  0  0  0  0  0  0
  140.7710   73.0800  220.7070 C   0  0  0  0  0  0  0  0  0  0  0  0
  141.5110   74.3340  220.5950 C   0  0  0  0  0  0  0  0  0  0  0  0
  141.6860   74.9570  221.7230 O   0  0  0  0  0  0  0  0  0  0  0  0
  142.0640   74.9770  219.4880 N   0  0  0  0  0  0  0  0  0  0  0  0
  142.7870   74.1070  218.4720 C   0  0  0  0  0  0  0  0  0  0  0  0
  142.3980   74.7660  217.1520 C   0  0  0  0  0  0  0  0  0  0  0  0
  141.5920   76.0210  217.5340 C   0  0  0  0  0  0  0  0  0  0  0  0
  142.2040   76.2570  218.9250 C   0  0  1  0  0  0  0  0  0  0  0  0
  141.5700   77.4270  219.4890 C   0  0  0  0  0  0  0  0  0  0  0  0
  140.8620   78.2890  218.9530 O   0  0  0  0  0  0  0  0  0  0  0  0
  141.7950   77.6430  220.9200 N   0  0  0  0  0  0  0  0  0  0  0  0
  141.2200   78.7610  221.5900 C   0  0  1  0  0  0  0  0  0  0  0  0
  140.2910   78.4660  222.7100 C   0  0  0  0  0  0  0  0  0  0  0  0
  140.4620   79.4200  223.8740 C   0  0  0  0  0  0  0  0  0  0  0  0
  140.5290   80.8670  223.4660 C   0  0  2  0  0  0  0  0  0  0  0  0
  139.2680   81.3890  223.1970 O   0  0  0  0  0  0  0  0  0  0  0  0
  138.0650   81.0430  223.7330 C   0  0  0  0  0  0  0  0  0  0  0  0
  137.7120   81.6330  224.9510 C   0  0  0  0  0  0  0  0  0  0  0  0
  136.4860   81.3120  225.5470 C   0  0  0  0  0  0  0  0  0  0  0  0
  135.6390   80.4470  224.9680 N   0  0  0  0  0  0  0  0  0  0  0  0
  135.9470   79.8750  223.8160 C   0  0  0  0  0  0  0  0  0  0  0  0
  137.1560   80.1660  223.1900 C   0  0  0  0  0  0  0  0  0  0  0  0
  141.5040   81.0450  222.3140 C   0  0  0  0  0  0  0  0  0  0  0  0
  142.2790   79.7540  222.0740 C   0  0  0  0  0  0  0  0  0  0  0  0
  140.3170   71.0040  223.9370 C   0  0  0  0  0  0  0  0  0  0  0  0
  140.7940   71.9030  224.8880 C   0  0  0  0  0  0  0  0  0  0  0  0
  140.9120   71.4530  226.1900 C   0  0  0  0  0  0  0  0  0  0  0  0
  140.5790   70.1720  226.5540 C   0  0  0  0  0  0  0  0  0  0  0  0
  140.6800   69.6700  227.8290 C   0  0  0  0  0  0  0  0  0  0  0  0
  140.3220   68.3660  228.0920 C   0  0  0  0  0  0  0  0  0  0  0  0
  140.4170   67.8640  229.3480 F   0  0  0  0  0  0  0  0  0  0  0  0
  139.8560   67.5070  227.1240 C   0  0  0  0  0  0  0  0  0  0  0  0
  139.7510   68.0100  225.8250 C   0  0  0  0  0  0  0  0  0  0  0  0
  140.1130   69.3170  225.5760 C   0  0  0  0  0  0  0  0  0  0  0  0
  139.9940   69.7490  224.3080 N   0  0  0  0  0  0  0  0  0  0  0  0
  141.4660   73.0840  222.7910 H   0  0  0  0  0  0  0  0  0  0  0  0
  141.2006   72.3384  220.0175 H   0  0  0  0  0  0  0  0  0  0  0  0
  139.7158   73.2539  220.4494 H   0  0  0  0  0  0  0  0  0  0  0  0
  143.8758   74.1341  218.6261 H   0  0  0  0  0  0  0  0  0  0  0  0
  142.5185   73.0419  218.5308 H   0  0  0  0  0  0  0  0  0  0  0  0
  143.2972   75.0460  216.5836 H   0  0  0  0  0  0  0  0  0  0  0  0
  141.8126   74.0858  216.5158 H   0  0  0  0  0  0  0  0  0  0  0  0
  141.7798   76.8608  216.8488 H   0  0  0  0  0  0  0  0  0  0  0  0
  140.4972   75.9190  217.5005 H   0  0  0  0  0  0  0  0  0  0  0  0
  143.2582   76.5439  219.0530 H   0  0  0  0  0  0  0  0  0  0  0  0
  142.3760   76.9780  221.4720 H   0  0  0  0  0  0  0  0  0  0  0  0
  140.5991   79.2031  220.7969 H   0  0  0  0  0  0  0  0  0  0  0  0
  140.4791   77.4414  223.0634 H   0  0  0  0  0  0  0  0  0  0  0  0
  139.2647   78.5821  222.3315 H   0  0  0  0  0  0  0  0  0  0  0  0
  141.3941   79.1637  224.3989 H   0  0  0  0  0  0  0  0  0  0  0  0
  139.5748   79.3076  224.5145 H   0  0  0  0  0  0  0  0  0  0  0  0
  140.9148   81.4518  224.3141 H   0  0  0  0  0  0  0  0  0  0  0  0
  138.3938   82.3455  225.4383 H   0  0  0  0  0  0  0  0  0  0  0  0
  136.2127   81.7767  226.5058 H   0  0  0  0  0  0  0  0  0  0  0  0
  135.2455   79.1669  223.3508 H   0  0  0  0  0  0  0  0  0  0  0  0
  137.3911   79.6795  222.2319 H   0  0  0  0  0  0  0  0  0  0  0  0
  142.2102   81.8525  222.5574 H   0  0  0  0  0  0  0  0  0  0  0  0
  140.9408   81.2993  221.4040 H   0  0  0  0  0  0  0  0  0  0  0  0
  142.7468   79.4016  223.0051 H   0  0  0  0  0  0  0  0  0  0  0  0
  143.0962   79.8832  221.3491 H   0  0  0  0  0  0  0  0  0  0  0  0
  141.0667   72.9327  224.6134 H   0  0  0  0  0  0  0  0  0  0  0  0
  141.2851   72.1445  226.9598 H   0  0  0  0  0  0  0  0  0  0  0  0
  141.0481   70.3119  228.6429 H   0  0  0  0  0  0  0  0  0  0  0  0
  139.5782   66.4697  227.3623 H   0  0  0  0  0  0  0  0  0  0  0  0
  139.3834   67.3701  225.0093 H   0  0  0  0  0  0  0  0  0  0  0  0
  1  2  2  0
  2  3  1  0
  3  4  1  0
  4  5  1  0
  5  6  2  0
  5  7  1  0
  7  8  1  0
  8  9  1  0
  9 10  1  0
 10 11  1  0
 11 12  1  0
 12 13  2  0
 12 14  1  0
 14 15  1  0
 15 16  1  0
 16 17  1  0
 17 18  1  0
 18 19  1  0
 19 20  1  0
 20 21  2  0
 21 22  1  0
 22 23  2  0
 23 24  1  0
 24 25  2  0
 18 26  1  0
 26 27  1  0
  2 28  1  0
 28 29  2  0
 29 30  1  0
 30 31  2  0
 31 32  1  0
 32 33  2  0
 33 34  1  0
 33 35  1  0
 35 36  2  0
 36 37  1  0
 37 38  2  0
 11  7  1  0
 27 15  1  0
 38 28  1  0
 25 20  1  0
 37 31  1  0
  3 39  1  0
  4 40  1  0
  4 41  1  0
  8 42  1  0
  8 43  1  0
  9 44  1  0
  9 45  1  0
 10 46  1  0
 10 47  1  0
 11 48  1  6
 14 49  1  0
 15 50  1  6
 16 51  1  0
 16 52  1  0
 17 53  1  0
 17 54  1  0
 18 55  1  1
 21 56  1  0
 22 57  1  0
 24 58  1  0
 25 59  1  0
 26 60  1  0
 26 61  1  0
 27 62  1  0
 27 63  1  0
 29 64  1  0
 30 65  1  0
 32 66  1  0
 35 67  1  0
 36 68  1  0
M  END
>  <smiles>  (44) 
O=C(NCC(=O)N1CCC[C@H]1C(=O)N[C@H]1CC[C@H](Oc2ccncc2)CC1)c1ccc2cc(F)ccc2n1

>  <score_type>  (44) 
oracle

>  <origin>  (44) 
autodockgpu

>  <m_score__min__energy>  (44) 
-9.4700000000000006

>  <m_primary>  (44) 
energy

>  <rmsd>  (44) 
3.04388411078508

>  <m_score__min__rmsd>  (44) 
3.04388411078508

>  <meeko>  (44) 
{"free_energy": -8.27, "intermolecular_energy": -10.66, "internal_energy": -3.05, "cluster_size": 7, "cluster_id": 1, "rank_in_cluster": 7}

>  <energy>  (44) 
-7.36

>  <cluster_rmsd>  (44) 
0.0

>  <cluster>  (44) 
12

$$$$

     RDKit          3D

 68 72  0  0  0  0  0  0  0  0999 V2000
  137.5640   69.8480  222.1480 O   0  0  0  0  0  0  0  0  0  0  0  0
  137.8710   70.4690  223.2120 C   0  0  0  0  0  0  0  0  0  0  0  0
  137.5050   71.8100  223.4010 N   0  0  0  0  0  0  0  0  0  0  0  0
  136.7380   72.5760  222.3800 C   0  0  0  0  0  0  0  0  0  0  0  0
  137.6500   73.0770  221.3560 C   0  0  0  0  0  0  0  0  0  0  0  0
  137.0690   73.7230  220.3880 O   0  0  0  0  0  0  0  0  0  0  0  0
  139.0360   72.9850  221.2380 N   0  0  0  0  0  0  0  0  0  0  0  0
  139.6010   71.6750  220.7100 C   0  0  0  0  0  0  0  0  0  0  0  0
  140.7630   72.1530  219.8450 C   0  0  0  0  0  0  0  0  0  0  0  0
  140.8370   73.6770  220.0510 C   0  0  0  0  0  0  0  0  0  0  0  0
  140.2030   73.7380  221.4510 C   0  0  1  0  0  0  0  0  0  0  0  0
  140.1710   75.1250  221.8560 C   0  0  0  0  0  0  0  0  0  0  0  0
  141.0610   75.8400  222.3320 O   0  0  0  0  0  0  0  0  0  0  0  0
  138.8850   75.8060  221.6830 N   0  0  0  0  0  0  0  0  0  0  0  0
  138.7290   77.1760  222.0430 C   0  0  1  0  0  0  0  0  0  0  0  0
  139.3330   78.1810  221.1320 C   0  0  0  0  0  0  0  0  0  0  0  0
  138.4570   79.4040  220.9550 C   0  0  0  0  0  0  0  0  0  0  0  0
  137.9200   79.9570  222.2470 C   0  0  2  0  0  0  0  0  0  0  0  0
  138.8730   80.7110  222.9240 O   0  0  0  0  0  0  0  0  0  0  0  0
  140.2120   80.4930  223.0450 C   0  0  0  0  0  0  0  0  0  0  0  0
  140.6160   79.4060  223.8270 C   0  0  0  0  0  0  0  0  0  0  0  0
  141.9820   79.1370  223.9860 C   0  0  0  0  0  0  0  0  0  0  0  0
  142.9120   79.9050  223.3980 N   0  0  0  0  0  0  0  0  0  0  0  0
  142.5580   80.9390  222.6530 C   0  0  0  0  0  0  0  0  0  0  0  0
  141.2110   81.2420  222.4700 C   0  0  0  0  0  0  0  0  0  0  0  0
  137.3350   78.8400  223.0950 C   0  0  0  0  0  0  0  0  0  0  0  0
  137.2660   77.5470  222.2900 C   0  0  0  0  0  0  0  0  0  0  0  0
  138.6240   69.7920  224.2870 C   0  0  0  0  0  0  0  0  0  0  0  0
  138.7840   68.4090  224.2620 C   0  0  0  0  0  0  0  0  0  0  0  0
  139.4970   67.8280  225.2930 C   0  0  0  0  0  0  0  0  0  0  0  0
  140.0360   68.5680  226.3170 C   0  0  0  0  0  0  0  0  0  0  0  0
  140.7490   68.0460  227.3680 C   0  0  0  0  0  0  0  0  0  0  0  0
  141.2470   68.8750  228.3500 C   0  0  0  0  0  0  0  0  0  0  0  0
  141.9530   68.3680  229.3900 F   0  0  0  0  0  0  0  0  0  0  0  0
  141.0670   70.2390  228.3410 C   0  0  0  0  0  0  0  0  0  0  0  0
  140.3420   70.7780  227.2740 C   0  0  0  0  0  0  0  0  0  0  0  0
  139.8500   69.9360  226.2990 C   0  0  0  0  0  0  0  0  0  0  0  0
  139.1580   70.5060  225.2970 N   0  0  0  0  0  0  0  0  0  0  0  0
  137.7810   72.2920  224.2920 H   0  0  0  0  0  0  0  0  0  0  0  0
  135.9904   71.9175  221.9138 H   0  0  0  0  0  0  0  0  0  0  0  0
  136.2313   73.4239  222.8642 H   0  0  0  0  0  0  0  0  0  0  0  0
  139.9523   71.0322  221.5306 H   0  0  0  0  0  0  0  0  0  0  0  0
  138.8662   71.0640  220.1653 H   0  0  0  0  0  0  0  0  0  0  0  0
  141.7012   71.6767  220.1659 H   0  0  0  0  0  0  0  0  0  0  0  0
  140.6145   71.8933  218.7865 H   0  0  0  0  0  0  0  0  0  0  0  0
  141.8726   74.0477  220.0466 H   0  0  0  0  0  0  0  0  0  0  0  0
  140.3546   74.2916  219.2767 H   0  0  0  0  0  0  0  0  0  0  0  0
  140.6995   73.3051  222.3319 H   0  0  0  0  0  0  0  0  0  0  0  0
  138.0650   75.2990  221.2900 H   0  0  0  0  0  0  0  0  0  0  0  0
  139.3112   77.2314  222.9746 H   0  0  0  0  0  0  0  0  0  0  0  0
  139.4914   77.7152  220.1482 H   0  0  0  0  0  0  0  0  0  0  0  0
  140.2815   78.5113  221.5805 H   0  0  0  0  0  0  0  0  0  0  0  0
  137.6058   79.1313  220.3138 H   0  0  0  0  0  0  0  0  0  0  0  0
  139.0863   80.1874  220.5076 H   0  0  0  0  0  0  0  0  0  0  0  0
  137.1020   80.6550  222.0155 H   0  0  0  0  0  0  0  0  0  0  0  0
  139.8658   78.7660  224.3144 H   0  0  0  0  0  0  0  0  0  0  0  0
  142.2970   78.2824  224.6028 H   0  0  0  0  0  0  0  0  0  0  0  0
  143.3297   81.5614  222.1766 H   0  0  0  0  0  0  0  0  0  0  0  0
  140.9384   82.1064  221.8468 H   0  0  0  0  0  0  0  0  0  0  0  0
  136.3217   79.1215  223.4175 H   0  0  0  0  0  0  0  0  0  0  0  0
  137.9787   78.6817  223.9728 H   0  0  0  0  0  0  0  0  0  0  0  0
  136.7391   77.7085  221.3380 H   0  0  0  0  0  0  0  0  0  0  0  0
  136.7147   76.7537  222.8161 H   0  0  0  0  0  0  0  0  0  0  0  0
  138.3580   67.8008  223.4504 H   0  0  0  0  0  0  0  0  0  0  0  0
  139.6376   66.7370  225.2938 H   0  0  0  0  0  0  0  0  0  0  0  0
  140.9235   66.9615  227.4264 H   0  0  0  0  0  0  0  0  0  0  0  0
  141.4756   70.8774  229.1382 H   0  0  0  0  0  0  0  0  0  0  0  0
  140.1659   71.8621  227.2129 H   0  0  0  0  0  0  0  0  0  0  0  0
  1  2  2  0
  2  3  1  0
  3  4  1  0
  4  5  1  0
  5  6  2  0
  5  7  1  0
  7  8  1  0
  8  9  1  0
  9 10  1  0
 10 11  1  0
 11 12  1  0
 12 13  2  0
 12 14  1  0
 14 15  1  0
 15 16  1  0
 16 17  1  0
 17 18  1  0
 18 19  1  0
 19 20  1  0
 20 21  2  0
 21 22  1  0
 22 23  2  0
 23 24  1  0
 24 25  2  0
 18 26  1  0
 26 27  1  0
  2 28  1  0
 28 29  2  0
 29 30  1  0
 30 31  2  0
 31 32  1  0
 32 33  2  0
 33 34  1  0
 33 35  1  0
 35 36  2  0
 36 37  1  0
 37 38  2  0
 11  7  1  0
 27 15  1  0
 38 28  1  0
 25 20  1  0
 37 31  1  0
  3 39  1  0
  4 40  1  0
  4 41  1  0
  8 42  1  0
  8 43  1  0
  9 44  1  0
  9 45  1  0
 10 46  1  0
 10 47  1  0
 11 48  1  1
 14 49  1  0
 15 50  1  1
 16 51  1  0
 16 52  1  0
 17 53  1  0
 17 54  1  0
 18 55  1  6
 21 56  1  0
 22 57  1  0
 24 58  1  0
 25 59  1  0
 26 60  1  0
 26 61  1  0
 27 62  1  0
 27 63  1  0
 29 64  1  0
 30 65  1  0
 32 66  1  0
 35 67  1  0
 36 68  1  0
M  END
>  <smiles>  (45) 
O=C(NCC(=O)N1CCC[C@H]1C(=O)N[C@H]1CC[C@H](Oc2ccncc2)CC1)c1ccc2cc(F)ccc2n1

>  <score_type>  (45) 
oracle

>  <origin>  (45) 
autodockgpu

>  <m_score__min__energy>  (45) 
-9.4700000000000006

>  <m_primary>  (45) 
energy

>  <rmsd>  (45) 
3.2485868752632068

>  <m_score__min__rmsd>  (45) 
3.2485868752632068

>  <meeko>  (45) 
{"free_energy": -7.92, "intermolecular_energy": -10.3, "internal_energy": -3.29, "cluster_size": 7, "cluster_id": 9, "rank_in_cluster": 1}

>  <energy>  (45) 
-7.04

>  <cluster_rmsd>  (45) 
0.29

>  <cluster>  (45) 
12

$$$$

     RDKit          3D

 68 72  0  0  0  0  0  0  0  0999 V2000
  139.1150   72.4410  221.8990 O   0  0  0  0  0  0  0  0  0  0  0  0
  138.8080   71.3550  222.4800 C   0  0  0  0  0  0  0  0  0  0  0  0
  137.8750   70.4700  221.9180 N   0  0  0  0  0  0  0  0  0  0  0  0
  137.2020   70.7450  220.6180 C   0  0  0  0  0  0  0  0  0  0  0  0
  135.9020   71.3640  220.8600 C   0  0  0  0  0  0  0  0  0  0  0  0
  135.0890   71.3200  219.8460 O   0  0  0  0  0  0  0  0  0  0  0  0
  135.3820   71.9920  221.9910 N   0  0  0  0  0  0  0  0  0  0  0  0
  134.6630   71.1120  223.0020 C   0  0  0  0  0  0  0  0  0  0  0  0
  135.0880   71.7350  224.3280 C   0  0  0  0  0  0  0  0  0  0  0  0
  135.9090   72.9830  223.9580 C   0  0  0  0  0  0  0  0  0  0  0  0
  135.2750   73.2610  222.5840 C   0  0  1  0  0  0  0  0  0  0  0  0
  135.9190   74.4320  222.0350 C   0  0  0  0  0  0  0  0  0  0  0  0
  135.4530   75.3580  221.3590 O   0  0  0  0  0  0  0  0  0  0  0  0
  137.3520   74.5570  222.3110 N   0  0  0  0  0  0  0  0  0  0  0  0
  138.0960   75.6710  221.8250 C   0  0  1  0  0  0  0  0  0  0  0  0
  139.4320   75.9000  222.4310 C   0  0  0  0  0  0  0  0  0  0  0  0
  140.4650   76.3350  221.4130 C   0  0  0  0  0  0  0  0  0  0  0  0
  139.9870   77.4270  220.4930 C   0  0  2  0  0  0  0  0  0  0  0  0
  140.0320   78.6760  221.1040 O   0  0  0  0  0  0  0  0  0  0  0  0
  140.9780   79.1890  221.9380 C   0  0  0  0  0  0  0  0  0  0  0  0
  140.9030   78.8350  223.2890 C   0  0  0  0  0  0  0  0  0  0  0  0
  141.8510   79.3360  224.1910 C   0  0  0  0  0  0  0  0  0  0  0  0
  142.8350   80.1510  223.7800 N   0  0  0  0  0  0  0  0  0  0  0  0
  142.9300   80.5010  222.5080 C   0  0  0  0  0  0  0  0  0  0  0  0
  142.0080   80.0270  221.5790 C   0  0  0  0  0  0  0  0  0  0  0  0
  138.6140   77.0850  219.9400 C   0  0  0  0  0  0  0  0  0  0  0  0
  138.2400   75.6520  220.3020 C   0  0  0  0  0  0  0  0  0  0  0  0
  139.4280   70.9890  223.7700 C   0  0  0  0  0  0  0  0  0  0  0  0
  140.3320   71.8550  224.3780 C   0  0  0  0  0  0  0  0  0  0  0  0
  140.8820   71.4620  225.5830 C   0  0  0  0  0  0  0  0  0  0  0  0
  140.5630   70.2660  226.1770 C   0  0  0  0  0  0  0  0  0  0  0  0
  141.0810   69.8220  227.3700 C   0  0  0  0  0  0  0  0  0  0  0  0
  140.6980   68.6010  227.8810 C   0  0  0  0  0  0  0  0  0  0  0  0
  141.2030   68.1570  229.0590 F   0  0  0  0  0  0  0  0  0  0  0  0
  139.8010   67.7720  227.2500 C   0  0  0  0  0  0  0  0  0  0  0  0
  139.2700   68.2170  226.0360 C   0  0  0  0  0  0  0  0  0  0  0  0
  139.6630   69.4400  225.5350 C   0  0  0  0  0  0  0  0  0  0  0  0
  139.1230   69.8180  224.3630 N   0  0  0  0  0  0  0  0  0  0  0  0
  137.6420   69.5840  222.4300 H   0  0  0  0  0  0  0  0  0  0  0  0
  137.8257   71.4256  220.0198 H   0  0  0  0  0  0  0  0  0  0  0  0
  137.0605   69.8000  220.0731 H   0  0  0  0  0  0  0  0  0  0  0  0
  133.5721   71.1610  222.8694 H   0  0  0  0  0  0  0  0  0  0  0  0
  134.9119   70.0441  222.9150 H   0  0  0  0  0  0  0  0  0  0  0  0
  134.2047   72.0185  224.9191 H   0  0  0  0  0  0  0  0  0  0  0  0
  135.6726   71.0309  224.9383 H   0  0  0  0  0  0  0  0  0  0  0  0
  135.7496   73.8106  224.6649 H   0  0  0  0  0  0  0  0  0  0  0  0
  137.0021   72.8606  223.9680 H   0  0  0  0  0  0  0  0  0  0  0  0
  134.2239   73.5688  222.4817 H   0  0  0  0  0  0  0  0  0  0  0  0
  137.8490   73.8340  222.8720 H   0  0  0  0  0  0  0  0  0  0  0  0
  137.4724   76.5167  222.1505 H   0  0  0  0  0  0  0  0  0  0  0  0
  139.7714   74.9647  222.9000 H   0  0  0  0  0  0  0  0  0  0  0  0
  139.3294   76.7092  223.1690 H   0  0  0  0  0  0  0  0  0  0  0  0
  140.7396   75.4622  220.8024 H   0  0  0  0  0  0  0  0  0  0  0  0
  141.3193   76.7400  221.9753 H   0  0  0  0  0  0  0  0  0  0  0  0
  140.6768   77.4924  219.6386 H   0  0  0  0  0  0  0  0  0  0  0  0
  140.1037   78.1666  223.6417 H   0  0  0  0  0  0  0  0  0  0  0  0
  141.7877   79.0569  225.2531 H   0  0  0  0  0  0  0  0  0  0  0  0
  143.7409   81.1694  222.1829 H   0  0  0  0  0  0  0  0  0  0  0  0
  142.1060   80.3316  220.5266 H   0  0  0  0  0  0  0  0  0  0  0  0
  138.6269   77.1912  218.8452 H   0  0  0  0  0  0  0  0  0  0  0  0
  137.8717   77.7697  220.3761 H   0  0  0  0  0  0  0  0  0  0  0  0
  139.0319   74.9532  219.9943 H   0  0  0  0  0  0  0  0  0  0  0  0
  137.3215   75.3176  219.7976 H   0  0  0  0  0  0  0  0  0  0  0  0
  140.5988   72.8170  223.9162 H   0  0  0  0  0  0  0  0  0  0  0  0
  141.5993   72.1295  226.0830 H   0  0  0  0  0  0  0  0  0  0  0  0
  141.8038   70.4435  227.9188 H   0  0  0  0  0  0  0  0  0  0  0  0
  139.5139   66.8017  227.6813 H   0  0  0  0  0  0  0  0  0  0  0  0
  138.5460   67.5979  225.4859 H   0  0  0  0  0  0  0  0  0  0  0  0
  1  2  2  0
  2  3  1  0
  3  4  1  0
  4  5  1  0
  5  6  2  0
  5  7  1  0
  7  8  1  0
  8  9  1  0
  9 10  1  0
 10 11  1  0
 11 12  1  0
 12 13  2  0
 12 14  1  0
 14 15  1  0
 15 16  1  0
 16 17  1  0
 17 18  1  0
 18 19  1  0
 19 20  1  0
 20 21  2  0
 21 22  1  0
 22 23  2  0
 23 24  1  0
 24 25  2  0
 18 26  1  0
 26 27  1  0
  2 28  1  0
 28 29  2  0
 29 30  1  0
 30 31  2  0
 31 32  1  0
 32 33  2  0
 33 34  1  0
 33 35  1  0
 35 36  2  0
 36 37  1  0
 37 38  2  0
 11  7  1  0
 27 15  1  0
 38 28  1  0
 25 20  1  0
 37 31  1  0
  3 39  1  0
  4 40  1  0
  4 41  1  0
  8 42  1  0
  8 43  1  0
  9 44  1  0
  9 45  1  0
 10 46  1  0
 10 47  1  0
 11 48  1  1
 14 49  1  0
 15 50  1  6
 16 51  1  0
 16 52  1  0
 17 53  1  0
 17 54  1  0
 18 55  1  6
 21 56  1  0
 22 57  1  0
 24 58  1  0
 25 59  1  0
 26 60  1  0
 26 61  1  0
 27 62  1  0
 27 63  1  0
 29 64  1  0
 30 65  1  0
 32 66  1  0
 35 67  1  0
 36 68  1  0
M  END
>  <smiles>  (46) 
O=C(NCC(=O)N1CCC[C@H]1C(=O)N[C@H]1CC[C@H](Oc2ccncc2)CC1)c1ccc2cc(F)ccc2n1

>  <score_type>  (46) 
oracle

>  <origin>  (46) 
autodockgpu

>  <m_score__min__energy>  (46) 
-9.4700000000000006

>  <m_primary>  (46) 
energy

>  <rmsd>  (46) 
5.399193472981956

>  <m_score__min__rmsd>  (46) 
5.399193472981956

>  <meeko>  (46) 
{"free_energy": -7.28, "intermolecular_energy": -9.67, "internal_energy": -3.71, "cluster_size": 7, "cluster_id": 9, "rank_in_cluster": 4}

>  <energy>  (46) 
-6.99

>  <cluster_rmsd>  (46) 
0.0

>  <cluster>  (46) 
13

$$$$

     RDKit          3D

 68 72  0  0  0  0  0  0  0  0999 V2000
  141.0840   77.3090  217.5430 O   0  0  0  0  0  0  0  0  0  0  0  0
  142.0640   77.2290  218.3480 C   0  0  0  0  0  0  0  0  0  0  0  0
  142.3680   78.2800  219.2270 N   0  0  0  0  0  0  0  0  0  0  0  0
  141.5670   79.5340  219.2740 C   0  0  0  0  0  0  0  0  0  0  0  0
  141.8070   80.2210  220.5400 C   0  0  0  0  0  0  0  0  0  0  0  0
  141.8100   81.5180  220.4560 O   0  0  0  0  0  0  0  0  0  0  0  0
  142.0300   79.7250  221.8240 N   0  0  0  0  0  0  0  0  0  0  0  0
  142.8760   80.5770  222.7580 C   0  0  0  0  0  0  0  0  0  0  0  0
  142.1800   80.3710  224.1000 C   0  0  0  0  0  0  0  0  0  0  0  0
  141.0770   79.3280  223.8410 C   0  0  0  0  0  0  0  0  0  0  0  0
  141.7240   78.6210  222.6380 C   0  0  1  0  0  0  0  0  0  0  0  0
  140.8290   77.5690  222.2160 C   0  0  0  0  0  0  0  0  0  0  0  0
  139.6170   77.4200  222.4200 O   0  0  0  0  0  0  0  0  0  0  0  0
  141.4370   76.4990  221.4220 N   0  0  0  0  0  0  0  0  0  0  0  0
  140.6550   75.4070  220.9440 C   0  0  1  0  0  0  0  0  0  0  0  0
  140.0410   74.5240  221.9690 C   0  0  0  0  0  0  0  0  0  0  0  0
  138.6390   74.0900  221.5960 C   0  0  0  0  0  0  0  0  0  0  0  0
  138.5110   73.6050  220.1780 C   0  0  2  0  0  0  0  0  0  0  0  0
  138.9760   72.3020  220.0320 O   0  0  0  0  0  0  0  0  0  0  0  0
  140.2250   71.8680  219.7070 C   0  0  0  0  0  0  0  0  0  0  0  0
  141.1620   71.7790  220.7410 C   0  0  0  0  0  0  0  0  0  0  0  0
  142.4630   71.3390  220.4610 C   0  0  0  0  0  0  0  0  0  0  0  0
  142.8260   70.9980  219.2150 N   0  0  0  0  0  0  0  0  0  0  0  0
  141.9590   71.0710  218.2190 C   0  0  0  0  0  0  0  0  0  0  0  0
  140.6570   71.5040  218.4530 C   0  0  0  0  0  0  0  0  0  0  0  0
  139.1760   74.5830  219.2250 C   0  0  0  0  0  0  0  0  0  0  0  0
  139.5690   75.8580  219.9650 C   0  0  0  0  0  0  0  0  0  0  0  0
  142.9130   76.0210  218.3820 C   0  0  0  0  0  0  0  0  0  0  0  0
  143.0830   75.2560  217.2310 C   0  0  0  0  0  0  0  0  0  0  0  0
  143.8870   74.1360  217.3210 C   0  0  0  0  0  0  0  0  0  0  0  0
  144.5050   73.7710  218.4920 C   0  0  0  0  0  0  0  0  0  0  0  0
  145.3110   72.6690  218.6400 C   0  0  0  0  0  0  0  0  0  0  0  0
  145.8840   72.3870  219.8620 C   0  0  0  0  0  0  0  0  0  0  0  0
  146.6810   71.3010  220.0160 F   0  0  0  0  0  0  0  0  0  0  0  0
  145.6910   73.1680  220.9780 C   0  0  0  0  0  0  0  0  0  0  0  0
  144.8730   74.2910  220.8340 C   0  0  0  0  0  0  0  0  0  0  0  0
  144.3050   74.5610  219.6060 C   0  0  0  0  0  0  0  0  0  0  0  0
  143.5250   75.6530  219.5250 N   0  0  0  0  0  0  0  0  0  0  0  0
  143.1880   78.1790  219.8740 H   0  0  0  0  0  0  0  0  0  0  0  0
  141.8621   80.1884  218.4406 H   0  0  0  0  0  0  0  0  0  0  0  0
  140.4982   79.2884  219.1884 H   0  0  0  0  0  0  0  0  0  0  0  0
  143.9165   80.2216  222.7895 H   0  0  0  0  0  0  0  0  0  0  0  0
  142.9448   81.6317  222.4532 H   0  0  0  0  0  0  0  0  0  0  0  0
  142.8936   79.9968  224.8488 H   0  0  0  0  0  0  0  0  0  0  0  0
  141.7656   81.3118  224.4913 H   0  0  0  0  0  0  0  0  0  0  0  0
  140.9364   78.6501  224.6958 H   0  0  0  0  0  0  0  0  0  0  0  0
  140.0653   79.7277  223.6775 H   0  0  0  0  0  0  0  0  0  0  0  0
  142.6515   78.0383  222.7386 H   0  0  0  0  0  0  0  0  0  0  0  0
  142.4520   76.5220  221.1890 H   0  0  0  0  0  0  0  0  0  0  0  0
  141.4125   74.7921  220.4359 H   0  0  0  0  0  0  0  0  0  0  0  0
  139.9995   75.0681  222.9241 H   0  0  0  0  0  0  0  0  0  0  0  0
  140.6617   73.6191  222.0456 H   0  0  0  0  0  0  0  0  0  0  0  0
  137.9629   74.9470  221.7318 H   0  0  0  0  0  0  0  0  0  0  0  0
  138.3813   73.2430  222.2489 H   0  0  0  0  0  0  0  0  0  0  0  0
  137.4433   73.5680  219.9160 H   0  0  0  0  0  0  0  0  0  0  0  0
  140.8797   72.0527  221.7683 H   0  0  0  0  0  0  0  0  0  0  0  0
  143.1986   71.2721  221.2761 H   0  0  0  0  0  0  0  0  0  0  0  0
  142.2680   70.7885  217.2018 H   0  0  0  0  0  0  0  0  0  0  0  0
  139.9525   71.5566  217.6098 H   0  0  0  0  0  0  0  0  0  0  0  0
  138.4750   74.8345  218.4155 H   0  0  0  0  0  0  0  0  0  0  0  0
  140.0812   74.1174  218.8081 H   0  0  0  0  0  0  0  0  0  0  0  0
  138.7070   76.2767  220.5050 H   0  0  0  0  0  0  0  0  0  0  0  0
  139.9184   76.6484  219.2844 H   0  0  0  0  0  0  0  0  0  0  0  0
  142.5951   75.5332  216.2849 H   0  0  0  0  0  0  0  0  0  0  0  0
  144.0372   73.5159  216.4249 H   0  0  0  0  0  0  0  0  0  0  0  0
  145.5001   72.0089  217.7806 H   0  0  0  0  0  0  0  0  0  0  0  0
  146.1602   72.9190  221.9413 H   0  0  0  0  0  0  0  0  0  0  0  0
  144.6835   74.9537  221.6913 H   0  0  0  0  0  0  0  0  0  0  0  0
  1  2  2  0
  2  3  1  0
  3  4  1  0
  4  5  1  0
  5  6  2  0
  5  7  1  0
  7  8  1  0
  8  9  1  0
  9 10  1  0
 10 11  1  0
 11 12  1  0
 12 13  2  0
 12 14  1  0
 14 15  1  0
 15 16  1  0
 16 17  1  0
 17 18  1  0
 18 19  1  0
 19 20  1  0
 20 21  2  0
 21 22  1  0
 22 23  2  0
 23 24  1  0
 24 25  2  0
 18 26  1  0
 26 27  1  0
  2 28  1  0
 28 29  2  0
 29 30  1  0
 30 31  2  0
 31 32  1  0
 32 33  2  0
 33 34  1  0
 33 35  1  0
 35 36  2  0
 36 37  1  0
 37 38  2  0
 11  7  1  0
 27 15  1  0
 38 28  1  0
 25 20  1  0
 37 31  1  0
  3 39  1  0
  4 40  1  0
  4 41  1  0
  8 42  1  0
  8 43  1  0
  9 44  1  0
  9 45  1  0
 10 46  1  0
 10 47  1  0
 11 48  1  1
 14 49  1  0
 15 50  1  6
 16 51  1  0
 16 52  1  0
 17 53  1  0
 17 54  1  0
 18 55  1  6
 21 56  1  0
 22 57  1  0
 24 58  1  0
 25 59  1  0
 26 60  1  0
 26 61  1  0
 27 62  1  0
 27 63  1  0
 29 64  1  0
 30 65  1  0
 32 66  1  0
 35 67  1  0
 36 68  1  0
M  END
>  <smiles>  (47) 
O=C(NCC(=O)N1CCC[C@H]1C(=O)N[C@H]1CC[C@H](Oc2ccncc2)CC1)c1ccc2cc(F)ccc2n1

>  <score_type>  (47) 
oracle

>  <origin>  (47) 
autodockgpu

>  <m_score__min__energy>  (47) 
-9.4700000000000006

>  <m_primary>  (47) 
energy

>  <rmsd>  (47) 
7.628861935709816

>  <m_score__min__rmsd>  (47) 
7.628861935709816

>  <meeko>  (47) 
{"free_energy": -6.5, "intermolecular_energy": -8.89, "internal_energy": -4.96, "cluster_size": 9, "cluster_id": 11, "rank_in_cluster": 5}

>  <energy>  (47) 
-6.93

>  <cluster_rmsd>  (47) 
0.0

>  <cluster>  (47) 
14

$$$$

     RDKit          3D

 68 72  0  0  0  0  0  0  0  0999 V2000
  140.8920   77.8480  217.5360 O   0  0  0  0  0  0  0  0  0  0  0  0
  141.9090   77.6730  218.2770 C   0  0  0  0  0  0  0  0  0  0  0  0
  142.3900   78.7010  219.1020 N   0  0  0  0  0  0  0  0  0  0  0  0
  141.7410   80.0400  219.1650 C   0  0  0  0  0  0  0  0  0  0  0  0
  141.5680   80.4350  220.5590 C   0  0  0  0  0  0  0  0  0  0  0  0
  140.9240   81.5530  220.7250 O   0  0  0  0  0  0  0  0  0  0  0  0
  141.9710   79.8200  221.7440 N   0  0  0  0  0  0  0  0  0  0  0  0
  142.9270   80.5970  222.6370 C   0  0  0  0  0  0  0  0  0  0  0  0
  142.4230   80.2400  224.0320 C   0  0  0  0  0  0  0  0  0  0  0  0
  141.3080   79.2000  223.8200 C   0  0  0  0  0  0  0  0  0  0  0  0
  141.7940   78.6330  222.4740 C   0  0  1  0  0  0  0  0  0  0  0  0
  140.8620   77.6050  222.0720 C   0  0  0  0  0  0  0  0  0  0  0  0
  139.6350   77.5330  222.2210 O   0  0  0  0  0  0  0  0  0  0  0  0
  141.4470   76.4560  221.3760 N   0  0  0  0  0  0  0  0  0  0  0  0
  140.6290   75.3790  220.9260 C   0  0  1  0  0  0  0  0  0  0  0  0
  139.9130   74.6010  221.9690 C   0  0  0  0  0  0  0  0  0  0  0  0
  138.5090   74.2190  221.5480 C   0  0  0  0  0  0  0  0  0  0  0  0
  138.4270   73.6490  220.1580 C   0  0  2  0  0  0  0  0  0  0  0  0
  138.8230   72.3150  220.1210 O   0  0  0  0  0  0  0  0  0  0  0  0
  140.0650   71.7940  219.9230 C   0  0  0  0  0  0  0  0  0  0  0  0
  140.3200   71.1980  218.6840 C   0  0  0  0  0  0  0  0  0  0  0  0
  141.5820   70.6460  218.4270 C   0  0  0  0  0  0  0  0  0  0  0  0
  142.5540   70.6790  219.3510 N   0  0  0  0  0  0  0  0  0  0  0  0
  142.3410   71.2370  220.5310 C   0  0  0  0  0  0  0  0  0  0  0  0
  141.1010   71.7980  220.8280 C   0  0  0  0  0  0  0  0  0  0  0  0
  139.1970   74.5240  219.1830 C   0  0  0  0  0  0  0  0  0  0  0  0
  139.6230   75.8210  219.8620 C   0  0  0  0  0  0  0  0  0  0  0  0
  142.6150   76.3760  218.2910 C   0  0  0  0  0  0  0  0  0  0  0  0
  142.4730   75.4930  217.2240 C   0  0  0  0  0  0  0  0  0  0  0  0
  143.1560   74.2940  217.2910 C   0  0  0  0  0  0  0  0  0  0  0  0
  143.9520   73.9640  218.3610 C   0  0  0  0  0  0  0  0  0  0  0  0
  144.6510   72.7880  218.4830 C   0  0  0  0  0  0  0  0  0  0  0  0
  145.4200   72.5500  219.6000 C   0  0  0  0  0  0  0  0  0  0  0  0
  146.1140   71.3920  219.7270 F   0  0  0  0  0  0  0  0  0  0  0  0
  145.5360   73.4490  220.6360 C   0  0  0  0  0  0  0  0  0  0  0  0
  144.8280   74.6480  220.5190 C   0  0  0  0  0  0  0  0  0  0  0  0
  144.0610   74.8720  219.3950 C   0  0  0  0  0  0  0  0  0  0  0  0
  143.3990   76.0410  219.3350 N   0  0  0  0  0  0  0  0  0  0  0  0
  143.2360   78.5210  219.6970 H   0  0  0  0  0  0  0  0  0  0  0  0
  142.3742   80.7783  218.6512 H   0  0  0  0  0  0  0  0  0  0  0  0
  140.7578   79.9929  218.6739 H   0  0  0  0  0  0  0  0  0  0  0  0
  143.9663   80.2673  222.4915 H   0  0  0  0  0  0  0  0  0  0  0  0
  142.9413   81.6782  222.4349 H   0  0  0  0  0  0  0  0  0  0  0  0
  143.2368   79.8118  224.6356 H   0  0  0  0  0  0  0  0  0  0  0  0
  142.0540   81.1263  224.5689 H   0  0  0  0  0  0  0  0  0  0  0  0
  141.2941   78.4372  224.6124 H   0  0  0  0  0  0  0  0  0  0  0  0
  140.2785   79.5870  223.8364 H   0  0  0  0  0  0  0  0  0  0  0  0
  142.7339   78.0681  222.3879 H   0  0  0  0  0  0  0  0  0  0  0  0
  142.4720   76.4110  221.1950 H   0  0  0  0  0  0  0  0  0  0  0  0
  141.3755   74.6920  220.5008 H   0  0  0  0  0  0  0  0  0  0  0  0
  139.8536   75.2090  222.8837 H   0  0  0  0  0  0  0  0  0  0  0  0
  140.4758   73.6709  222.1367 H   0  0  0  0  0  0  0  0  0  0  0  0
  137.8767   75.1180  221.5923 H   0  0  0  0  0  0  0  0  0  0  0  0
  138.1700   73.4322  222.2380 H   0  0  0  0  0  0  0  0  0  0  0  0
  137.3741   73.6536  219.8397 H   0  0  0  0  0  0  0  0  0  0  0  0
  139.5341   71.1627  217.9152 H   0  0  0  0  0  0  0  0  0  0  0  0
  141.7790   70.1778  217.4513 H   0  0  0  0  0  0  0  0  0  0  0  0
  143.1458   71.2582  221.2805 H   0  0  0  0  0  0  0  0  0  0  0  0
  140.9457   72.2577  221.8152 H   0  0  0  0  0  0  0  0  0  0  0  0
  138.5554   74.7590  218.3210 H   0  0  0  0  0  0  0  0  0  0  0  0
  140.0942   73.9834  218.8473 H   0  0  0  0  0  0  0  0  0  0  0  0
  138.7592   76.3197  220.3259 H   0  0  0  0  0  0  0  0  0  0  0  0
  140.0521   76.5447  219.1533 H   0  0  0  0  0  0  0  0  0  0  0  0
  141.8401   75.7410  216.3592 H   0  0  0  0  0  0  0  0  0  0  0  0
  143.0593   73.5798  216.4600 H   0  0  0  0  0  0  0  0  0  0  0  0
  144.5962   72.0330  217.6849 H   0  0  0  0  0  0  0  0  0  0  0  0
  146.1584   73.2331  221.5169 H   0  0  0  0  0  0  0  0  0  0  0  0
  144.8819   75.4052  221.3151 H   0  0  0  0  0  0  0  0  0  0  0  0
  1  2  2  0
  2  3  1  0
  3  4  1  0
  4  5  1  0
  5  6  2  0
  5  7  1  0
  7  8  1  0
  8  9  1  0
  9 10  1  0
 10 11  1  0
 11 12  1  0
 12 13  2  0
 12 14  1  0
 14 15  1  0
 15 16  1  0
 16 17  1  0
 17 18  1  0
 18 19  1  0
 19 20  1  0
 20 21  2  0
 21 22  1  0
 22 23  2  0
 23 24  1  0
 24 25  2  0
 18 26  1  0
 26 27  1  0
  2 28  1  0
 28 29  2  0
 29 30  1  0
 30 31  2  0
 31 32  1  0
 32 33  2  0
 33 34  1  0
 33 35  1  0
 35 36  2  0
 36 37  1  0
 37 38  2  0
 11  7  1  0
 27 15  1  0
 38 28  1  0
 25 20  1  0
 37 31  1  0
  3 39  1  0
  4 40  1  0
  4 41  1  0
  8 42  1  0
  8 43  1  0
  9 44  1  0
  9 45  1  0
 10 46  1  0
 10 47  1  0
 11 48  1  1
 14 49  1  0
 15 50  1  6
 16 51  1  0
 16 52  1  0
 17 53  1  0
 17 54  1  0
 18 55  1  6
 21 56  1  0
 22 57  1  0
 24 58  1  0
 25 59  1  0
 26 60  1  0
 26 61  1  0
 27 62  1  0
 27 63  1  0
 29 64  1  0
 30 65  1  0
 32 66  1  0
 35 67  1  0
 36 68  1  0
M  END
>  <smiles>  (48) 
O=C(NCC(=O)N1CCC[C@H]1C(=O)N[C@H]1CC[C@H](Oc2ccncc2)CC1)c1ccc2cc(F)ccc2n1

>  <score_type>  (48) 
oracle

>  <origin>  (48) 
autodockgpu

>  <m_score__min__energy>  (48) 
-9.4700000000000006

>  <m_primary>  (48) 
energy

>  <rmsd>  (48) 
7.6904301472257695

>  <m_score__min__rmsd>  (48) 
7.6904301472257695

>  <meeko>  (48) 
{"free_energy": -6.24, "intermolecular_energy": -8.63, "internal_energy": -5.07, "cluster_size": 9, "cluster_id": 11, "rank_in_cluster": 9}

>  <energy>  (48) 
-6.72

>  <cluster_rmsd>  (48) 
0.0

>  <cluster>  (48) 
15

$$$$

     RDKit          3D

 68 72  0  0  0  0  0  0  0  0999 V2000
  141.1200   77.8960  217.2670 O   0  0  0  0  0  0  0  0  0  0  0  0
  141.9690   77.6520  218.1790 C   0  0  0  0  0  0  0  0  0  0  0  0
  142.2340   78.5850  219.1930 N   0  0  0  0  0  0  0  0  0  0  0  0
  141.5390   79.8990  219.2650 C   0  0  0  0  0  0  0  0  0  0  0  0
  141.6300   80.4280  220.6230 C   0  0  0  0  0  0  0  0  0  0  0  0
  141.3040   81.6820  220.7350 O   0  0  0  0  0  0  0  0  0  0  0  0
  142.0030   79.8190  221.8210 N   0  0  0  0  0  0  0  0  0  0  0  0
  142.9420   80.5970  222.7300 C   0  0  0  0  0  0  0  0  0  0  0  0
  142.4050   80.2520  224.1160 C   0  0  0  0  0  0  0  0  0  0  0  0
  141.2910   79.2150  223.8850 C   0  0  0  0  0  0  0  0  0  0  0  0
  141.8040   78.6380  222.5550 C   0  0  1  0  0  0  0  0  0  0  0  0
  140.8770   77.6110  222.1380 C   0  0  0  0  0  0  0  0  0  0  0  0
  139.6540   77.5190  222.3090 O   0  0  0  0  0  0  0  0  0  0  0  0
  141.4620   76.4920  221.3960 N   0  0  0  0  0  0  0  0  0  0  0  0
  140.6480   75.4190  220.9280 C   0  0  1  0  0  0  0  0  0  0  0  0
  139.9260   74.6280  221.9570 C   0  0  0  0  0  0  0  0  0  0  0  0
  138.5250   74.2500  221.5220 C   0  0  0  0  0  0  0  0  0  0  0  0
  138.4540   73.6950  220.1250 C   0  0  2  0  0  0  0  0  0  0  0  0
  138.8510   72.3630  220.0760 O   0  0  0  0  0  0  0  0  0  0  0  0
  140.0690   71.8420  219.7610 C   0  0  0  0  0  0  0  0  0  0  0  0
  141.0300   71.7990  220.7770 C   0  0  0  0  0  0  0  0  0  0  0  0
  142.3000   71.2730  220.5070 C   0  0  0  0  0  0  0  0  0  0  0  0
  142.6120   70.8070  219.2880 N   0  0  0  0  0  0  0  0  0  0  0  0
  141.7230   70.8350  218.3090 C   0  0  0  0  0  0  0  0  0  0  0  0
  140.4490   71.3500  218.5350 C   0  0  0  0  0  0  0  0  0  0  0  0
  139.2290   74.5820  219.1660 C   0  0  0  0  0  0  0  0  0  0  0  0
  139.6490   75.8720  219.8620 C   0  0  0  0  0  0  0  0  0  0  0  0
  142.7040   76.3710  218.1980 C   0  0  0  0  0  0  0  0  0  0  0  0
  142.6850   75.5390  217.0810 C   0  0  0  0  0  0  0  0  0  0  0  0
  143.3890   74.3530  217.1550 C   0  0  0  0  0  0  0  0  0  0  0  0
  144.0900   73.9870  218.2780 C   0  0  0  0  0  0  0  0  0  0  0  0
  144.8040   72.8200  218.4090 C   0  0  0  0  0  0  0  0  0  0  0  0
  145.4720   72.5440  219.5820 C   0  0  0  0  0  0  0  0  0  0  0  0
  146.1800   71.3950  219.7190 F   0  0  0  0  0  0  0  0  0  0  0  0
  145.4670   73.3910  220.6660 C   0  0  0  0  0  0  0  0  0  0  0  0
  144.7430   74.5800  220.5390 C   0  0  0  0  0  0  0  0  0  0  0  0
  144.0790   74.8440  219.3600 C   0  0  0  0  0  0  0  0  0  0  0  0
  143.3960   76.0000  219.2940 N   0  0  0  0  0  0  0  0  0  0  0  0
  142.9470   78.3490  219.9270 H   0  0  0  0  0  0  0  0  0  0  0  0
  142.0136   80.6029  218.5655 H   0  0  0  0  0  0  0  0  0  0  0  0
  140.4809   79.7677  218.9945 H   0  0  0  0  0  0  0  0  0  0  0  0
  143.9827   80.2613  222.6102 H   0  0  0  0  0  0  0  0  0  0  0  0
  142.9661   81.6767  222.5211 H   0  0  0  0  0  0  0  0  0  0  0  0
  143.2030   79.8248  224.7411 H   0  0  0  0  0  0  0  0  0  0  0  0
  142.0278   81.1434  224.6387 H   0  0  0  0  0  0  0  0  0  0  0  0
  141.2562   78.4572  224.6815 H   0  0  0  0  0  0  0  0  0  0  0  0
  140.2630   79.6064  223.8756 H   0  0  0  0  0  0  0  0  0  0  0  0
  142.7432   78.0686  222.4944 H   0  0  0  0  0  0  0  0  0  0  0  0
  142.4830   76.4650  221.1940 H   0  0  0  0  0  0  0  0  0  0  0  0
  141.3982   74.7377  220.5001 H   0  0  0  0  0  0  0  0  0  0  0  0
  139.8600   75.2250  222.8786 H   0  0  0  0  0  0  0  0  0  0  0  0
  140.4885   73.6964  222.1174 H   0  0  0  0  0  0  0  0  0  0  0  0
  137.8919   75.1482  221.5714 H   0  0  0  0  0  0  0  0  0  0  0  0
  138.1810   73.4559  222.2011 H   0  0  0  0  0  0  0  0  0  0  0  0
  137.4035   73.7012  219.7988 H   0  0  0  0  0  0  0  0  0  0  0  0
  140.7897   72.1761  221.7820 H   0  0  0  0  0  0  0  0  0  0  0  0
  143.0538   71.2415  221.3075 H   0  0  0  0  0  0  0  0  0  0  0  0
  141.9907   70.4505  217.3138 H   0  0  0  0  0  0  0  0  0  0  0  0
  139.7247   71.3635  217.7072 H   0  0  0  0  0  0  0  0  0  0  0  0
  138.5928   74.8259  218.3024 H   0  0  0  0  0  0  0  0  0  0  0  0
  140.1294   74.0463  218.8308 H   0  0  0  0  0  0  0  0  0  0  0  0
  138.7816   76.3649  220.3254 H   0  0  0  0  0  0  0  0  0  0  0  0
  140.0822   76.6039  219.1643 H   0  0  0  0  0  0  0  0  0  0  0  0
  142.1295   75.8164  216.1730 H   0  0  0  0  0  0  0  0  0  0  0  0
  143.3883   73.6791  216.2856 H   0  0  0  0  0  0  0  0  0  0  0  0
  144.8423   72.1041  217.5747 H   0  0  0  0  0  0  0  0  0  0  0  0
  146.0084   73.1437  221.5911 H   0  0  0  0  0  0  0  0  0  0  0  0
  144.7035   75.2979  221.3715 H   0  0  0  0  0  0  0  0  0  0  0  0
  1  2  2  0
  2  3  1  0
  3  4  1  0
  4  5  1  0
  5  6  2  0
  5  7  1  0
  7  8  1  0
  8  9  1  0
  9 10  1  0
 10 11  1  0
 11 12  1  0
 12 13  2  0
 12 14  1  0
 14 15  1  0
 15 16  1  0
 16 17  1  0
 17 18  1  0
 18 19  1  0
 19 20  1  0
 20 21  2  0
 21 22  1  0
 22 23  2  0
 23 24  1  0
 24 25  2  0
 18 26  1  0
 26 27  1  0
  2 28  1  0
 28 29  2  0
 29 30  1  0
 30 31  2  0
 31 32  1  0
 32 33  2  0
 33 34  1  0
 33 35  1  0
 35 36  2  0
 36 37  1  0
 37 38  2  0
 11  7  1  0
 27 15  1  0
 38 28  1  0
 25 20  1  0
 37 31  1  0
  3 39  1  0
  4 40  1  0
  4 41  1  0
  8 42  1  0
  8 43  1  0
  9 44  1  0
  9 45  1  0
 10 46  1  0
 10 47  1  0
 11 48  1  1
 14 49  1  0
 15 50  1  6
 16 51  1  0
 16 52  1  0
 17 53  1  0
 17 54  1  0
 18 55  1  6
 21 56  1  0
 22 57  1  0
 24 58  1  0
 25 59  1  0
 26 60  1  0
 26 61  1  0
 27 62  1  0
 27 63  1  0
 29 64  1  0
 30 65  1  0
 32 66  1  0
 35 67  1  0
 36 68  1  0
M  END
>  <smiles>  (49) 
O=C(NCC(=O)N1CCC[C@H]1C(=O)N[C@H]1CC[C@H](Oc2ccncc2)CC1)c1ccc2cc(F)ccc2n1

>  <score_type>  (49) 
oracle

>  <origin>  (49) 
autodockgpu

>  <m_score__min__energy>  (49) 
-9.4700000000000006

>  <m_primary>  (49) 
energy

>  <rmsd>  (49) 
7.706191827279568

>  <m_score__min__rmsd>  (49) 
7.706191827279568

>  <meeko>  (49) 
{"free_energy": -6.35, "intermolecular_energy": -8.73, "internal_energy": -5.07, "cluster_size": 9, "cluster_id": 11, "rank_in_cluster": 7}

>  <energy>  (49) 
-6.71

>  <cluster_rmsd>  (49) 
0.37

>  <cluster>  (49) 
15

$$$$

     RDKit          3D

 68 72  0  0  0  0  0  0  0  0999 V2000
  141.2820   71.7740  221.7810 O   0  0  0  0  0  0  0  0  0  0  0  0
  140.2630   71.9000  222.5280 C   0  0  0  0  0  0  0  0  0  0  0  0
  139.2770   72.8590  222.2550 N   0  0  0  0  0  0  0  0  0  0  0  0
  139.3600   73.7720  221.0810 C   0  0  0  0  0  0  0  0  0  0  0  0
  140.5730   74.5800  221.1740 C   0  0  0  0  0  0  0  0  0  0  0  0
  140.7110   75.2150  222.3000 O   0  0  0  0  0  0  0  0  0  0  0  0
  141.6090   74.7860  220.2640 N   0  0  0  0  0  0  0  0  0  0  0  0
  142.1880   73.5550  219.5830 C   0  0  0  0  0  0  0  0  0  0  0  0
  142.4580   74.0670  218.1720 C   0  0  0  0  0  0  0  0  0  0  0  0
  142.1270   75.5700  218.2030 C   0  0  0  0  0  0  0  0  0  0  0  0
  142.3790   75.8170  219.7000 C   0  0  1  0  0  0  0  0  0  0  0  0
  142.1190   77.2140  219.9620 C   0  0  0  0  0  0  0  0  0  0  0  0
  142.1110   78.1840  219.1940 O   0  0  0  0  0  0  0  0  0  0  0  0
  141.8170   77.5520  221.3550 N   0  0  0  0  0  0  0  0  0  0  0  0
  141.5400   78.8970  221.7380 C   0  0  1  0  0  0  0  0  0  0  0  0
  140.1460   79.2030  222.1480 C   0  0  0  0  0  0  0  0  0  0  0  0
  140.0820   80.1560  223.3230 C   0  0  0  0  0  0  0  0  0  0  0  0
  140.9820   81.3530  223.1820 C   0  0  2  0  0  0  0  0  0  0  0  0
  140.4330   82.3180  222.3430 O   0  0  0  0  0  0  0  0  0  0  0  0
  140.7200   82.5850  221.0400 C   0  0  0  0  0  0  0  0  0  0  0  0
  140.6490   83.9200  220.6290 C   0  0  0  0  0  0  0  0  0  0  0  0
  140.9350   84.2510  219.2980 C   0  0  0  0  0  0  0  0  0  0  0  0
  141.2780   83.3080  218.4070 N   0  0  0  0  0  0  0  0  0  0  0  0
  141.3540   82.0380  218.7690 C   0  0  0  0  0  0  0  0  0  0  0  0
  141.0770   81.6650  220.0820 C   0  0  0  0  0  0  0  0  0  0  0  0
  142.3740   80.9180  222.7570 C   0  0  0  0  0  0  0  0  0  0  0  0
  142.4960   79.3990  222.8210 C   0  0  0  0  0  0  0  0  0  0  0  0
  140.0870   71.0340  223.7120 C   0  0  0  0  0  0  0  0  0  0  0  0
  139.3410   69.8620  223.6140 C   0  0  0  0  0  0  0  0  0  0  0  0
  139.2080   69.0920  224.7530 C   0  0  0  0  0  0  0  0  0  0  0  0
  139.7820   69.4480  225.9480 C   0  0  0  0  0  0  0  0  0  0  0  0
  139.6810   68.7240  227.1120 C   0  0  0  0  0  0  0  0  0  0  0  0
  140.2920   69.1710  228.2630 C   0  0  0  0  0  0  0  0  0  0  0  0
  140.1980   68.4610  229.4140 F   0  0  0  0  0  0  0  0  0  0  0  0
  141.0220   70.3360  228.3200 C   0  0  0  0  0  0  0  0  0  0  0  0
  141.1290   71.0780  227.1410 C   0  0  0  0  0  0  0  0  0  0  0  0
  140.5110   70.6190  225.9970 C   0  0  0  0  0  0  0  0  0  0  0  0
  140.6450   71.3730  224.8910 N   0  0  0  0  0  0  0  0  0  0  0  0
  138.4510   72.9370  222.8980 H   0  0  0  0  0  0  0  0  0  0  0  0
  139.3861   73.1774  220.1559 H   0  0  0  0  0  0  0  0  0  0  0  0
  138.4807   74.4328  221.0691 H   0  0  0  0  0  0  0  0  0  0  0  0
  143.1166   73.2273  220.0732 H   0  0  0  0  0  0  0  0  0  0  0  0
  141.5247   72.6781  219.6160 H   0  0  0  0  0  0  0  0  0  0  0  0
  143.5134   73.9123  217.9034 H   0  0  0  0  0  0  0  0  0  0  0  0
  141.8528   73.5337  217.4242 H   0  0  0  0  0  0  0  0  0  0  0  0
  142.8027   76.1582  217.5646 H   0  0  0  0  0  0  0  0  0  0  0  0
  141.1315   75.8517  217.8293 H   0  0  0  0  0  0  0  0  0  0  0  0
  143.3838   75.7354  220.1400 H   0  0  0  0  0  0  0  0  0  0  0  0
  141.7960   76.8120  222.0880 H   0  0  0  0  0  0  0  0  0  0  0  0
  141.6976   79.4373  220.7929 H   0  0  0  0  0  0  0  0  0  0  0  0
  139.6467   78.2638  222.4282 H   0  0  0  0  0  0  0  0  0  0  0  0
  139.6467   79.6888  221.2967 H   0  0  0  0  0  0  0  0  0  0  0  0
  140.3736   79.6076  224.2309 H   0  0  0  0  0  0  0  0  0  0  0  0
  139.0504   80.5343  223.3735 H   0  0  0  0  0  0  0  0  0  0  0  0
  141.0773   81.8373  224.1651 H   0  0  0  0  0  0  0  0  0  0  0  0
  140.3702   84.7056  221.3467 H   0  0  0  0  0  0  0  0  0  0  0  0
  140.8774   85.3018  218.9779 H   0  0  0  0  0  0  0  0  0  0  0  0
  141.6370   81.2736  218.0303 H   0  0  0  0  0  0  0  0  0  0  0  0
  141.1458   80.6032  220.3610 H   0  0  0  0  0  0  0  0  0  0  0  0
  143.1170   81.3705  223.4302 H   0  0  0  0  0  0  0  0  0  0  0  0
  142.5522   81.2482  221.7230 H   0  0  0  0  0  0  0  0  0  0  0  0
  142.1945   79.0252  223.8106 H   0  0  0  0  0  0  0  0  0  0  0  0
  143.5283   79.0533  222.6633 H   0  0  0  0  0  0  0  0  0  0  0  0
  138.8748   69.5606  222.6644 H   0  0  0  0  0  0  0  0  0  0  0  0
  138.6224   68.1623  224.7007 H   0  0  0  0  0  0  0  0  0  0  0  0
  139.1100   67.7839  227.1246 H   0  0  0  0  0  0  0  0  0  0  0  0
  141.5004   70.6686  229.2530 H   0  0  0  0  0  0  0  0  0  0  0  0
  141.7000   72.0181  227.1256 H   0  0  0  0  0  0  0  0  0  0  0  0
  1  2  2  0
  2  3  1  0
  3  4  1  0
  4  5  1  0
  5  6  2  0
  5  7  1  0
  7  8  1  0
  8  9  1  0
  9 10  1  0
 10 11  1  0
 11 12  1  0
 12 13  2  0
 12 14  1  0
 14 15  1  0
 15 16  1  0
 16 17  1  0
 17 18  1  0
 18 19  1  0
 19 20  1  0
 20 21  2  0
 21 22  1  0
 22 23  2  0
 23 24  1  0
 24 25  2  0
 18 26  1  0
 26 27  1  0
  2 28  1  0
 28 29  2  0
 29 30  1  0
 30 31  2  0
 31 32  1  0
 32 33  2  0
 33 34  1  0
 33 35  1  0
 35 36  2  0
 36 37  1  0
 37 38  2  0
 11  7  1  0
 27 15  1  0
 38 28  1  0
 25 20  1  0
 37 31  1  0
  3 39  1  0
  4 40  1  0
  4 41  1  0
  8 42  1  0
  8 43  1  0
  9 44  1  0
  9 45  1  0
 10 46  1  0
 10 47  1  0
 11 48  1  6
 14 49  1  0
 15 50  1  6
 16 51  1  0
 16 52  1  0
 17 53  1  0
 17 54  1  0
 18 55  1  1
 21 56  1  0
 22 57  1  0
 24 58  1  0
 25 59  1  0
 26 60  1  0
 26 61  1  0
 27 62  1  0
 27 63  1  0
 29 64  1  0
 30 65  1  0
 32 66  1  0
 35 67  1  0
 36 68  1  0
M  END
>  <smiles>  (50) 
O=C(NCC(=O)N1CCC[C@H]1C(=O)N[C@H]1CC[C@H](Oc2ccncc2)CC1)c1ccc2cc(F)ccc2n1

>  <score_type>  (50) 
oracle

>  <origin>  (50) 
autodockgpu

>  <m_score__min__energy>  (50) 
-9.4700000000000006

>  <m_primary>  (50) 
energy

>  <rmsd>  (50) 
2.3065583286763998

>  <m_score__min__rmsd>  (50) 
2.3065583286763998

>  <meeko>  (50) 
{"free_energy": -9.29, "intermolecular_energy": -11.67, "internal_energy": -2.72, "cluster_size": 5, "cluster_id": 2, "rank_in_cluster": 1}

>  <energy>  (50) 
-6.71

>  <cluster_rmsd>  (50) 
0.0

>  <cluster>  (50) 
16

$$$$
