
     RDKit          3D

 60 64  0  0  0  0  0  0  0  0999 V2000
  137.9100   70.6480  221.0750 O   0  0  0  0  0  0  0  0  0  0  0  0
  138.1380   71.3830  222.0670 C   0  0  0  0  0  0  0  0  0  0  0  0
  137.9000   72.7780  221.9650 N   0  0  0  0  0  0  0  0  0  0  0  0
  137.4130   73.4830  220.8520 C   0  0  0  0  0  0  0  0  0  0  0  0
  138.2480   74.0500  219.8270 C   0  0  0  0  0  0  0  0  0  0  0  0
  137.5890   74.8270  218.9860 O   0  0  0  0  0  0  0  0  0  0  0  0
  139.6110   73.9430  219.5360 N   0  0  0  0  0  0  0  0  0  0  0  0
  140.4310   74.8660  218.7890 C   0  0  0  0  0  0  0  0  0  0  0  0
  140.9180   74.1470  217.5610 C   0  0  0  0  0  0  0  0  0  0  0  0
  141.9200   73.1120  218.0850 C   0  0  0  0  0  0  0  0  0  0  0  0
  141.2570   72.1560  219.0320 C   0  0  0  0  0  0  0  0  0  0  0  0
  140.3410   72.7510  220.0410 C   0  0  1  0  0  0  0  0  0  0  0  0
  141.1580   73.1550  221.2480 C   0  0  0  0  0  0  0  0  0  0  0  0
  140.7990   74.5230  221.7260 C   0  0  0  0  0  0  0  0  0  0  0  0
  139.6240   74.8140  222.3380 N   0  0  0  0  0  0  0  0  0  0  0  0
  139.6140   76.1420  222.6450 C   0  0  0  0  0  0  0  0  0  0  0  0
  140.8320   76.6340  222.1900 C   0  0  0  0  0  0  0  0  0  0  0  0
  141.2360   78.0350  222.3210 C   0  0  0  0  0  0  0  0  0  0  0  0
  141.4600   78.6200  223.5360 C   0  0  0  0  0  0  0  0  0  0  0  0
  141.8430   79.9450  223.6900 C   0  0  0  0  0  0  0  0  0  0  0  0
  142.0030   80.7040  222.5350 C   0  0  0  0  0  0  0  0  0  0  0  0
  141.7750   80.1060  221.3080 C   0  0  0  0  0  0  0  0  0  0  0  0
  141.3960   78.7910  221.1780 C   0  0  0  0  0  0  0  0  0  0  0  0
  141.4870   75.6290  221.6580 O   0  0  0  0  0  0  0  0  0  0  0  0
  138.6440   70.7890  223.3090 C   0  0  0  0  0  0  0  0  0  0  0  0
  138.3460   69.4970  223.6260 C   0  0  0  0  0  0  0  0  0  0  0  0
  138.8540   68.9940  224.8130 C   0  0  0  0  0  0  0  0  0  0  0  0
  139.6350   69.7420  225.6630 C   0  0  0  0  0  0  0  0  0  0  0  0
  140.1230   69.2050  226.8390 C   0  0  0  0  0  0  0  0  0  0  0  0
  140.9030   70.0470  227.6270 C   0  0  0  0  0  0  0  0  0  0  0  0
  141.3960   69.5570  228.7810 F   0  0  0  0  0  0  0  0  0  0  0  0
  141.1580   71.3390  227.2370 C   0  0  0  0  0  0  0  0  0  0  0  0
  140.6700   71.8740  226.0640 C   0  0  0  0  0  0  0  0  0  0  0  0
  139.8970   71.0470  225.2770 C   0  0  0  0  0  0  0  0  0  0  0  0
  139.4000   71.5280  224.1250 N   0  0  0  0  0  0  0  0  0  0  0  0
  138.1240   73.3320  222.8510 H   0  0  0  0  0  0  0  0  0  0  0  0
  136.7353   72.7889  220.3334 H   0  0  0  0  0  0  0  0  0  0  0  0
  137.0294   74.3939  221.3348 H   0  0  0  0  0  0  0  0  0  0  0  0
  139.8374   75.7454  218.4986 H   0  0  0  0  0  0  0  0  0  0  0  0
  141.2797   75.2104  219.3982 H   0  0  0  0  0  0  0  0  0  0  0  0
  140.0824   73.6510  217.0454 H   0  0  0  0  0  0  0  0  0  0  0  0
  141.3728   74.8329  216.8312 H   0  0  0  0  0  0  0  0  0  0  0  0
  142.3333   72.5487  217.2354 H   0  0  0  0  0  0  0  0  0  0  0  0
  142.7214   73.6399  218.6226 H   0  0  0  0  0  0  0  0  0  0  0  0
  140.6747   71.4410  218.4322 H   0  0  0  0  0  0  0  0  0  0  0  0
  142.0758   71.7050  219.6117 H   0  0  0  0  0  0  0  0  0  0  0  0
  139.5859   71.9913  220.2912 H   0  0  0  0  0  0  0  0  0  0  0  0
  140.9754   72.4348  222.0592 H   0  0  0  0  0  0  0  0  0  0  0  0
  142.2188   73.1612  220.9571 H   0  0  0  0  0  0  0  0  0  0  0  0
  138.8126   76.7047  223.1462 H   0  0  0  0  0  0  0  0  0  0  0  0
  141.3297   78.0075  224.4404 H   0  0  0  0  0  0  0  0  0  0  0  0
  142.0135   80.3783  224.6866 H   0  0  0  0  0  0  0  0  0  0  0  0
  142.3052   81.7599  222.5960 H   0  0  0  0  0  0  0  0  0  0  0  0
  141.9026   80.7092  220.3970 H   0  0  0  0  0  0  0  0  0  0  0  0
  141.2241   78.3512  220.1845 H   0  0  0  0  0  0  0  0  0  0  0  0
  137.7248   68.8763  222.9635 H   0  0  0  0  0  0  0  0  0  0  0  0
  138.6233   67.9539  225.0868 H   0  0  0  0  0  0  0  0  0  0  0  0
  139.9069   68.1683  227.1365 H   0  0  0  0  0  0  0  0  0  0  0  0
  141.7776   71.9734  227.8879 H   0  0  0  0  0  0  0  0  0  0  0  0
  140.8870   72.9115  225.7699 H   0  0  0  0  0  0  0  0  0  0  0  0
  1  2  2  0
  2  3  1  0
  3  4  1  0
  4  5  1  0
  5  6  2  0
  5  7  1  0
  7  8  1  0
  8  9  1  0
  9 10  1  0
 10 11  1  0
 11 12  1  0
 12 13  1  0
 13 14  1  0
 14 15  2  0
 15 16  1  0
 16 17  2  0
 17 18  1  0
 18 19  2  0
 19 20  1  0
 20 21  2  0
 21 22  1  0
 22 23  2  0
 17 24  1  0
  2 25  1  0
 25 26  2  0
 26 27  1  0
 27 28  2  0
 28 29  1  0
 29 30  2  0
 30 31  1  0
 30 32  1  0
 32 33  2  0
 33 34  1  0
 34 35  2  0
 12  7  1  0
 24 14  1  0
 35 25  1  0
 23 18  1  0
 34 28  1  0
  3 36  1  0
  4 37  1  0
  4 38  1  0
  8 39  1  0
  8 40  1  0
  9 41  1  0
  9 42  1  0
 10 43  1  0
 10 44  1  0
 11 45  1  0
 11 46  1  0
 12 47  1  1
 13 48  1  0
 13 49  1  0
 16 50  1  0
 19 51  1  0
 20 52  1  0
 21 53  1  0
 22 54  1  0
 23 55  1  0
 26 56  1  0
 27 57  1  0
 29 58  1  0
 32 59  1  0
 33 60  1  0
M  END
