
     RDKit          3D

 71 76  0  0  0  0  0  0  0  0999 V2000
  146.0300   73.4710  218.6660 N   0  0  0  0  0  0  0  0  0  0  0  0
  145.3600   72.6210  220.0310 S   0  0  0  0  0  0  0  0  0  0  0  0
  145.3520   71.1610  219.7420 O   0  0  0  0  0  0  0  0  0  0  0  0
  146.2800   72.8850  221.1920 O   0  0  0  0  0  0  0  0  0  0  0  0
  143.7500   73.1910  220.3350 C   0  0  0  0  0  0  0  0  0  0  0  0
  142.7830   72.3370  220.8510 C   0  0  0  0  0  0  0  0  0  0  0  0
  141.4870   72.7990  221.0960 C   0  0  0  0  0  0  0  0  0  0  0  0
  141.1140   74.1010  220.8420 C   0  0  0  0  0  0  0  0  0  0  0  0
  142.1030   74.9370  220.3250 C   0  0  0  0  0  0  0  0  0  0  0  0
  143.3870   74.4970  220.0790 C   0  0  0  0  0  0  0  0  0  0  0  0
  141.6840   76.3560  220.0530 C   0  0  0  0  0  0  0  0  0  0  0  0
  140.9700   76.7860  221.3350 C   0  0  0  0  0  0  0  0  0  0  0  0
  139.7550   76.0150  221.4740 N   0  0  0  0  0  0  0  0  0  0  0  0
  138.5460   76.5740  221.9760 C   0  0  0  0  0  0  0  0  0  0  0  0
  138.1860   77.8420  221.7060 N   0  0  0  0  0  0  0  0  0  0  0  0
  137.0660   78.4100  222.1520 C   0  0  0  0  0  0  0  0  0  0  0  0
  136.7210   79.7580  221.8430 N   0  0  0  0  0  0  0  0  0  0  0  0
  136.6280   80.7250  222.9040 C   0  0  0  0  0  0  0  0  0  0  0  0
  137.8460   80.5650  223.7630 C   0  0  0  0  0  0  0  0  0  0  0  0
  138.9640   81.2270  223.5280 C   0  0  0  0  0  0  0  0  0  0  0  0
  140.2650   80.6060  223.3740 C   0  0  0  0  0  0  0  0  0  0  0  0
  141.2980   81.2810  222.7190 C   0  0  0  0  0  0  0  0  0  0  0  0
  142.5500   80.7250  222.5520 C   0  0  0  0  0  0  0  0  0  0  0  0
  142.8380   79.4500  223.0370 C   0  0  0  0  0  0  0  0  0  0  0  0
  141.8220   78.7780  223.6850 C   0  0  0  0  0  0  0  0  0  0  0  0
  140.5780   79.3480  223.8430 C   0  0  0  0  0  0  0  0  0  0  0  0
  136.2550   77.6510  222.9210 N   0  0  0  0  0  0  0  0  0  0  0  0
  136.5570   76.3770  223.2280 C   0  0  0  0  0  0  0  0  0  0  0  0
  135.6670   75.6220  224.0410 N   0  0  0  0  0  0  0  0  0  0  0  0
  134.6560   76.3270  224.8000 C   0  0  0  0  0  0  0  0  0  0  0  0
  134.4090   75.5910  226.1210 C   0  0  0  0  0  0  0  0  0  0  0  0
  134.0550   74.2030  225.7940 C   0  0  0  0  0  0  0  0  0  0  0  0
  133.0240   73.5930  226.5030 C   0  0  0  0  0  0  0  0  0  0  0  0
  132.6820   72.2920  226.2060 C   0  0  0  0  0  0  0  0  0  0  0  0
  133.3720   71.6320  225.2150 C   0  0  0  0  0  0  0  0  0  0  0  0
  134.3850   72.2130  224.5100 C   0  0  0  0  0  0  0  0  0  0  0  0
  134.7260   73.5220  224.8110 C   0  0  0  0  0  0  0  0  0  0  0  0
  135.8210   74.1880  224.0670 C   0  0  0  0  0  0  0  0  0  0  0  0
  137.7030   75.8590  222.7470 N   0  0  0  0  0  0  0  0  0  0  0  0
  139.7560   74.6150  221.0900 C   0  0  0  0  0  0  0  0  0  0  0  0
  145.2830   74.1310  218.3070 H   0  0  0  0  0  0  0  0  0  0  0  0
  146.7650   74.1230  219.0690 H   0  0  0  0  0  0  0  0  0  0  0  0
  143.0394   71.2896  221.0682 H   0  0  0  0  0  0  0  0  0  0  0  0
  140.7411   72.1013  221.5045 H   0  0  0  0  0  0  0  0  0  0  0  0
  144.1318   75.1973  219.6730 H   0  0  0  0  0  0  0  0  0  0  0  0
  142.5607   76.9923  219.8620 H   0  0  0  0  0  0  0  0  0  0  0  0
  141.0435   76.4440  219.1631 H   0  0  0  0  0  0  0  0  0  0  0  0
  141.6239   76.6045  222.2008 H   0  0  0  0  0  0  0  0  0  0  0  0
  140.7282   77.8580  221.2860 H   0  0  0  0  0  0  0  0  0  0  0  0
  136.5450   79.9950  220.8380 H   0  0  0  0  0  0  0  0  0  0  0  0
  136.5943   81.7414  222.4847 H   0  0  0  0  0  0  0  0  0  0  0  0
  135.7129   80.5682  223.4939 H   0  0  0  0  0  0  0  0  0  0  0  0
  137.8071   79.8732  224.6174 H   0  0  0  0  0  0  0  0  0  0  0  0
  138.9044   82.3221  223.4435 H   0  0  0  0  0  0  0  0  0  0  0  0
  141.1070   82.2894  222.3231 H   0  0  0  0  0  0  0  0  0  0  0  0
  143.3315   81.2957  222.0290 H   0  0  0  0  0  0  0  0  0  0  0  0
  143.8330   78.9989  222.9085 H   0  0  0  0  0  0  0  0  0  0  0  0
  142.0087   77.7694  224.0824 H   0  0  0  0  0  0  0  0  0  0  0  0
  139.7996   78.7738  224.3668 H   0  0  0  0  0  0  0  0  0  0  0  0
  135.0004   77.3507  225.0086 H   0  0  0  0  0  0  0  0  0  0  0  0
  133.7218   76.3674  224.2206 H   0  0  0  0  0  0  0  0  0  0  0  0
  135.3195   75.6110  226.7379 H   0  0  0  0  0  0  0  0  0  0  0  0
  133.5995   76.0739  226.6880 H   0  0  0  0  0  0  0  0  0  0  0  0
  132.4888   74.1432  227.2910 H   0  0  0  0  0  0  0  0  0  0  0  0
  131.8705   71.7888  226.7522 H   0  0  0  0  0  0  0  0  0  0  0  0
  133.0953   70.5932  224.9818 H   0  0  0  0  0  0  0  0  0  0  0  0
  134.9169   71.6574  223.7237 H   0  0  0  0  0  0  0  0  0  0  0  0
  136.7782   73.9430  224.5504 H   0  0  0  0  0  0  0  0  0  0  0  0
  135.7934   73.8260  223.0286 H   0  0  0  0  0  0  0  0  0  0  0  0
  139.2980   74.0267  221.8988 H   0  0  0  0  0  0  0  0  0  0  0  0
  139.1870   74.5242  220.1530 H   0  0  0  0  0  0  0  0  0  0  0  0
  1  2  1  0
  2  3  2  0
  2  4  2  0
  2  5  1  0
  5  6  2  0
  6  7  1  0
  7  8  2  0
  8  9  1  0
  9 10  2  0
  9 11  1  0
 11 12  1  0
 12 13  1  0
 13 14  1  0
 14 15  2  0
 15 16  1  0
 16 17  1  0
 17 18  1  0
 18 19  1  0
 19 20  2  0
 20 21  1  0
 21 22  2  0
 22 23  1  0
 23 24  2  0
 24 25  1  0
 25 26  2  0
 16 27  2  0
 27 28  1  0
 28 29  1  0
 29 30  1  0
 30 31  1  0
 31 32  1  0
 32 33  2  0
 33 34  1  0
 34 35  2  0
 35 36  1  0
 36 37  2  0
 37 38  1  0
 28 39  2  0
 13 40  1  0
 10  5  1  0
 39 14  1  0
 40  8  1  0
 26 21  1  0
 38 29  1  0
 37 32  1  0
  1 41  1  0
  1 42  1  0
  6 43  1  0
  7 44  1  0
 10 45  1  0
 11 46  1  0
 11 47  1  0
 12 48  1  0
 12 49  1  0
 17 50  1  0
 18 51  1  0
 18 52  1  0
 19 53  1  0
 20 54  1  0
 22 55  1  0
 23 56  1  0
 24 57  1  0
 25 58  1  0
 26 59  1  0
 30 60  1  0
 30 61  1  0
 31 62  1  0
 31 63  1  0
 33 64  1  0
 34 65  1  0
 35 66  1  0
 36 67  1  0
 38 68  1  0
 38 69  1  0
 40 70  1  0
 40 71  1  0
M  END
>  <smiles>  (1) 
NS(=O)(=O)c1ccc2c(c1)CCN(c1nc(NC/C=C/c3ccccc3)nc(N3CCc4ccccc4C3)n1)C2

>  <score_type>  (1) 
oracle

>  <origin>  (1) 
autodockgpu

>  <m_score__min__energy>  (1) 
-10.630000000000001

>  <m_primary>  (1) 
energy

>  <rmsd>  (1) 
10.683708360295126

>  <m_score__min__rmsd>  (1) 
10.683708360295126

>  <meeko>  (1) 
{"free_energy": -10.05, "intermolecular_energy": -12.74, "internal_energy": -1.96, "cluster_size": 42, "cluster_id": 2, "rank_in_cluster": 28}

>  <energy>  (1) 
-10.63

>  <cluster_rmsd>  (1) 
0.0

>  <cluster>  (1) 
1

$$$$

     RDKit          3D

 71 76  0  0  0  0  0  0  0  0999 V2000
  145.7480   71.5250  220.0580 N   0  0  0  0  0  0  0  0  0  0  0  0
  145.5350   73.2450  219.8850 S   0  0  0  0  0  0  0  0  0  0  0  0
  146.4680   73.9490  220.8050 O   0  0  0  0  0  0  0  0  0  0  0  0
  145.9000   73.5800  218.4640 O   0  0  0  0  0  0  0  0  0  0  0  0
  143.8900   73.6640  220.2470 C   0  0  0  0  0  0  0  0  0  0  0  0
  143.0320   72.7320  220.8200 C   0  0  0  0  0  0  0  0  0  0  0  0
  141.7090   73.0720  221.1110 C   0  0  0  0  0  0  0  0  0  0  0  0
  141.2000   74.3260  220.8470 C   0  0  0  0  0  0  0  0  0  0  0  0
  142.0810   75.2400  220.2720 C   0  0  0  0  0  0  0  0  0  0  0  0
  143.3900   74.9210  219.9800 C   0  0  0  0  0  0  0  0  0  0  0  0
  141.5130   76.6060  219.9890 C   0  0  0  0  0  0  0  0  0  0  0  0
  140.8130   76.9940  221.2910 C   0  0  0  0  0  0  0  0  0  0  0  0
  139.6860   76.1130  221.4970 N   0  0  0  0  0  0  0  0  0  0  0  0
  138.4510   76.5640  222.0400 C   0  0  0  0  0  0  0  0  0  0  0  0
  138.0320   77.8340  221.8900 N   0  0  0  0  0  0  0  0  0  0  0  0
  136.8850   78.3030  222.3780 C   0  0  0  0  0  0  0  0  0  0  0  0
  136.4780   79.6580  222.1970 N   0  0  0  0  0  0  0  0  0  0  0  0
  136.5360   80.5680  223.3090 C   0  0  0  0  0  0  0  0  0  0  0  0
  137.9490   81.0580  223.4130 C   0  0  0  0  0  0  0  0  0  0  0  0
  138.8570   80.4350  224.1420 C   0  0  0  0  0  0  0  0  0  0  0  0
  140.2280   80.2120  223.7260 C   0  0  0  0  0  0  0  0  0  0  0  0
  140.9460   81.2240  223.0860 C   0  0  0  0  0  0  0  0  0  0  0  0
  142.2510   81.0530  222.6750 C   0  0  0  0  0  0  0  0  0  0  0  0
  142.9160   79.8450  222.8840 C   0  0  0  0  0  0  0  0  0  0  0  0
  142.2120   78.8400  223.5160 C   0  0  0  0  0  0  0  0  0  0  0  0
  140.9080   79.0300  223.9200 C   0  0  0  0  0  0  0  0  0  0  0  0
  136.1060   77.4370  223.0620 N   0  0  0  0  0  0  0  0  0  0  0  0
  136.4660   76.1540  223.2480 C   0  0  0  0  0  0  0  0  0  0  0  0
  135.6090   75.2840  223.9760 N   0  0  0  0  0  0  0  0  0  0  0  0
  135.8170   73.8560  223.8660 C   0  0  0  0  0  0  0  0  0  0  0  0
  134.4660   73.1390  223.9580 C   0  0  0  0  0  0  0  0  0  0  0  0
  133.8270   73.5580  225.2140 C   0  0  0  0  0  0  0  0  0  0  0  0
  133.1750   72.5990  225.9830 C   0  0  0  0  0  0  0  0  0  0  0  0
  132.5720   72.9790  227.1620 C   0  0  0  0  0  0  0  0  0  0  0  0
  132.6340   74.2990  227.5450 C   0  0  0  0  0  0  0  0  0  0  0  0
  133.2680   75.2530  226.8050 C   0  0  0  0  0  0  0  0  0  0  0  0
  133.8730   74.8670  225.6200 C   0  0  0  0  0  0  0  0  0  0  0  0
  134.5730   75.8740  224.7870 C   0  0  0  0  0  0  0  0  0  0  0  0
  137.6380   75.7390  222.7300 N   0  0  0  0  0  0  0  0  0  0  0  0
  139.8090   74.7110  221.1420 C   0  0  0  0  0  0  0  0  0  0  0  0
  146.6570   71.3690  220.5800 H   0  0  0  0  0  0  0  0  0  0  0  0
  145.0070   71.2140  220.7530 H   0  0  0  0  0  0  0  0  0  0  0  0
  143.3978   71.7195  221.0458 H   0  0  0  0  0  0  0  0  0  0  0  0
  141.0522   72.3154  221.5652 H   0  0  0  0  0  0  0  0  0  0  0  0
  144.0450   75.6801  219.5275 H   0  0  0  0  0  0  0  0  0  0  0  0
  142.3143   77.3202  219.7483 H   0  0  0  0  0  0  0  0  0  0  0  0
  140.8318   76.6100  219.1253 H   0  0  0  0  0  0  0  0  0  0  0  0
  141.5161   76.8969  222.1314 H   0  0  0  0  0  0  0  0  0  0  0  0
  140.4655   78.0360  221.2312 H   0  0  0  0  0  0  0  0  0  0  0  0
  136.1470   79.9410  221.2440 H   0  0  0  0  0  0  0  0  0  0  0  0
  135.8557   81.4153  223.1375 H   0  0  0  0  0  0  0  0  0  0  0  0
  136.2292   80.0661  224.2385 H   0  0  0  0  0  0  0  0  0  0  0  0
  138.2390   81.9661  222.8641 H   0  0  0  0  0  0  0  0  0  0  0  0
  138.5530   80.0603  225.1305 H   0  0  0  0  0  0  0  0  0  0  0  0
  140.4538   82.1907  222.9034 H   0  0  0  0  0  0  0  0  0  0  0  0
  142.7750   81.8810  222.1752 H   0  0  0  0  0  0  0  0  0  0  0  0
  143.9568   79.6995  222.5591 H   0  0  0  0  0  0  0  0  0  0  0  0
  142.6997   77.8714  223.7003 H   0  0  0  0  0  0  0  0  0  0  0  0
  140.3869   78.2002  224.4199 H   0  0  0  0  0  0  0  0  0  0  0  0
  136.2896   73.6269  222.8995 H   0  0  0  0  0  0  0  0  0  0  0  0
  136.4715   73.5150  224.6817 H   0  0  0  0  0  0  0  0  0  0  0  0
  133.8332   73.4194  223.1031 H   0  0  0  0  0  0  0  0  0  0  0  0
  134.6048   72.0479  223.9395 H   0  0  0  0  0  0  0  0  0  0  0  0
  133.1414   71.5500  225.6535 H   0  0  0  0  0  0  0  0  0  0  0  0
  132.0497   72.2394  227.7867 H   0  0  0  0  0  0  0  0  0  0  0  0
  132.1519   74.5974  228.4877 H   0  0  0  0  0  0  0  0  0  0  0  0
  133.2982   76.3004  227.1398 H   0  0  0  0  0  0  0  0  0  0  0  0
  133.8393   76.3595  224.1267 H   0  0  0  0  0  0  0  0  0  0  0  0
  135.0461   76.6017  225.4628 H   0  0  0  0  0  0  0  0  0  0  0  0
  139.4441   74.1008  221.9813 H   0  0  0  0  0  0  0  0  0  0  0  0
  139.2143   74.5421  220.2322 H   0  0  0  0  0  0  0  0  0  0  0  0
  1  2  1  0
  2  3  2  0
  2  4  2  0
  2  5  1  0
  5  6  2  0
  6  7  1  0
  7  8  2  0
  8  9  1  0
  9 10  2  0
  9 11  1  0
 11 12  1  0
 12 13  1  0
 13 14  1  0
 14 15  2  0
 15 16  1  0
 16 17  1  0
 17 18  1  0
 18 19  1  0
 19 20  2  0
 20 21  1  0
 21 22  2  0
 22 23  1  0
 23 24  2  0
 24 25  1  0
 25 26  2  0
 16 27  2  0
 27 28  1  0
 28 29  1  0
 29 30  1  0
 30 31  1  0
 31 32  1  0
 32 33  2  0
 33 34  1  0
 34 35  2  0
 35 36  1  0
 36 37  2  0
 37 38  1  0
 28 39  2  0
 13 40  1  0
 10  5  1  0
 39 14  1  0
 40  8  1  0
 26 21  1  0
 38 29  1  0
 37 32  1  0
  1 41  1  0
  1 42  1  0
  6 43  1  0
  7 44  1  0
 10 45  1  0
 11 46  1  0
 11 47  1  0
 12 48  1  0
 12 49  1  0
 17 50  1  0
 18 51  1  0
 18 52  1  0
 19 53  1  0
 20 54  1  0
 22 55  1  0
 23 56  1  0
 24 57  1  0
 25 58  1  0
 26 59  1  0
 30 60  1  0
 30 61  1  0
 31 62  1  0
 31 63  1  0
 33 64  1  0
 34 65  1  0
 35 66  1  0
 36 67  1  0
 38 68  1  0
 38 69  1  0
 40 70  1  0
 40 71  1  0
M  END
>  <smiles>  (2) 
NS(=O)(=O)c1ccc2c(c1)CCN(c1nc(NC/C=C/c3ccccc3)nc(N3CCc4ccccc4C3)n1)C2

>  <score_type>  (2) 
oracle

>  <origin>  (2) 
autodockgpu

>  <m_score__min__energy>  (2) 
-10.630000000000001

>  <m_primary>  (2) 
energy

>  <rmsd>  (2) 
10.556142372794117

>  <m_score__min__rmsd>  (2) 
10.556142372794117

>  <meeko>  (2) 
{"free_energy": -10.03, "intermolecular_energy": -12.72, "internal_energy": -1.92, "cluster_size": 42, "cluster_id": 2, "rank_in_cluster": 33}

>  <energy>  (2) 
-10.61

>  <cluster_rmsd>  (2) 
0.29

>  <cluster>  (2) 
1

$$$$

     RDKit          3D

 71 76  0  0  0  0  0  0  0  0999 V2000
  145.9830   73.4270  218.5370 N   0  0  0  0  0  0  0  0  0  0  0  0
  145.3960   72.6430  219.9780 S   0  0  0  0  0  0  0  0  0  0  0  0
  145.4250   71.1690  219.7790 O   0  0  0  0  0  0  0  0  0  0  0  0
  146.3510   73.0080  221.0820 O   0  0  0  0  0  0  0  0  0  0  0  0
  143.7810   73.1820  220.3130 C   0  0  0  0  0  0  0  0  0  0  0  0
  142.8190   72.2900  220.7730 C   0  0  0  0  0  0  0  0  0  0  0  0
  141.5200   72.7260  221.0420 C   0  0  0  0  0  0  0  0  0  0  0  0
  141.1370   74.0390  220.8670 C   0  0  0  0  0  0  0  0  0  0  0  0
  142.1200   74.9120  220.4040 C   0  0  0  0  0  0  0  0  0  0  0  0
  143.4080   74.4970  220.1350 C   0  0  0  0  0  0  0  0  0  0  0  0
  141.6900   76.3420  220.2180 C   0  0  0  0  0  0  0  0  0  0  0  0
  140.9700   76.6870  221.5210 C   0  0  0  0  0  0  0  0  0  0  0  0
  139.7610   75.9000  221.6100 N   0  0  0  0  0  0  0  0  0  0  0  0
  138.5470   76.4180  222.1430 C   0  0  0  0  0  0  0  0  0  0  0  0
  138.2000   77.7090  221.9890 N   0  0  0  0  0  0  0  0  0  0  0  0
  137.0760   78.2400  222.4680 C   0  0  0  0  0  0  0  0  0  0  0  0
  136.7440   79.6150  222.2830 N   0  0  0  0  0  0  0  0  0  0  0  0
  136.5910   80.4660  223.4330 C   0  0  0  0  0  0  0  0  0  0  0  0
  137.9490   80.6380  224.0460 C   0  0  0  0  0  0  0  0  0  0  0  0
  138.9530   81.1870  223.3870 C   0  0  0  0  0  0  0  0  0  0  0  0
  140.2740   80.6010  223.2710 C   0  0  0  0  0  0  0  0  0  0  0  0
  140.5560   79.3700  223.8690 C   0  0  0  0  0  0  0  0  0  0  0  0
  141.7990   78.7790  223.7830 C   0  0  0  0  0  0  0  0  0  0  0  0
  142.8380   79.3940  223.0850 C   0  0  0  0  0  0  0  0  0  0  0  0
  142.5660   80.6100  222.4930 C   0  0  0  0  0  0  0  0  0  0  0  0
  141.3180   81.1860  222.5890 C   0  0  0  0  0  0  0  0  0  0  0  0
  136.2450   77.4180  223.1460 N   0  0  0  0  0  0  0  0  0  0  0  0
  136.5340   76.1170  223.3350 C   0  0  0  0  0  0  0  0  0  0  0  0
  135.6250   75.2960  224.0560 N   0  0  0  0  0  0  0  0  0  0  0  0
  135.7810   73.8590  223.9810 C   0  0  0  0  0  0  0  0  0  0  0  0
  134.4010   73.1960  224.0500 C   0  0  0  0  0  0  0  0  0  0  0  0
  133.7460   73.6650  225.2790 C   0  0  0  0  0  0  0  0  0  0  0  0
  133.0370   72.7470  226.0490 C   0  0  0  0  0  0  0  0  0  0  0  0
  132.4190   73.1740  227.2040 C   0  0  0  0  0  0  0  0  0  0  0  0
  132.5220   74.4990  227.5630 C   0  0  0  0  0  0  0  0  0  0  0  0
  133.2110   75.4130  226.8220 C   0  0  0  0  0  0  0  0  0  0  0  0
  133.8320   74.9790  225.6610 C   0  0  0  0  0  0  0  0  0  0  0  0
  134.5920   75.9410  224.8280 C   0  0  0  0  0  0  0  0  0  0  0  0
  137.6850   75.6390  222.8270 N   0  0  0  0  0  0  0  0  0  0  0  0
  139.7740   74.5260  221.1420 C   0  0  0  0  0  0  0  0  0  0  0  0
  145.2540   74.1370  218.2430 H   0  0  0  0  0  0  0  0  0  0  0  0
  146.8010   74.0270  218.8530 H   0  0  0  0  0  0  0  0  0  0  0  0
  143.0830   71.2332  220.9261 H   0  0  0  0  0  0  0  0  0  0  0  0
  140.7787   71.9989  221.4051 H   0  0  0  0  0  0  0  0  0  0  0  0
  144.1480   75.2261  219.7732 H   0  0  0  0  0  0  0  0  0  0  0  0
  142.5620   76.9957  220.0688 H   0  0  0  0  0  0  0  0  0  0  0  0
  141.0508   76.4791  219.3333 H   0  0  0  0  0  0  0  0  0  0  0  0
  141.6234   76.4581  222.3758 H   0  0  0  0  0  0  0  0  0  0  0  0
  140.7197   77.7580  221.5363 H   0  0  0  0  0  0  0  0  0  0  0  0
  136.6240   79.9560  221.3010 H   0  0  0  0  0  0  0  0  0  0  0  0
  136.1899   81.4435  223.1270 H   0  0  0  0  0  0  0  0  0  0  0  0
  135.8915   80.0209  224.1559 H   0  0  0  0  0  0  0  0  0  0  0  0
  138.1140   80.2956  225.0783 H   0  0  0  0  0  0  0  0  0  0  0  0
  138.7752   82.1536  222.8930 H   0  0  0  0  0  0  0  0  0  0  0  0
  139.7600   78.8552  224.4270 H   0  0  0  0  0  0  0  0  0  0  0  0
  141.9734   77.8091  224.2717 H   0  0  0  0  0  0  0  0  0  0  0  0
  143.8321   78.9292  223.0097 H   0  0  0  0  0  0  0  0  0  0  0  0
  143.3592   81.1287  221.9346 H   0  0  0  0  0  0  0  0  0  0  0  0
  141.1478   82.1561  222.0992 H   0  0  0  0  0  0  0  0  0  0  0  0
  136.2703   73.5914  223.0329 H   0  0  0  0  0  0  0  0  0  0  0  0
  136.3997   73.5109  224.8213 H   0  0  0  0  0  0  0  0  0  0  0  0
  133.8025   73.4826  223.1727 H   0  0  0  0  0  0  0  0  0  0  0  0
  134.4978   72.1003  224.0567 H   0  0  0  0  0  0  0  0  0  0  0  0
  132.9710   71.6936  225.7390 H   0  0  0  0  0  0  0  0  0  0  0  0
  131.8527   72.4678  227.8289 H   0  0  0  0  0  0  0  0  0  0  0  0
  132.0276   74.8345  228.4866 H   0  0  0  0  0  0  0  0  0  0  0  0
  133.2724   76.4653  227.1366 H   0  0  0  0  0  0  0  0  0  0  0  0
  133.8951   76.4410  224.1393 H   0  0  0  0  0  0  0  0  0  0  0  0
  135.0756   76.6630  225.5024 H   0  0  0  0  0  0  0  0  0  0  0  0
  139.3190   73.8861  221.9124 H   0  0  0  0  0  0  0  0  0  0  0  0
  139.2077   74.4874  220.1998 H   0  0  0  0  0  0  0  0  0  0  0  0
  1  2  1  0
  2  3  2  0
  2  4  2  0
  2  5  1  0
  5  6  2  0
  6  7  1  0
  7  8  2  0
  8  9  1  0
  9 10  2  0
  9 11  1  0
 11 12  1  0
 12 13  1  0
 13 14  1  0
 14 15  2  0
 15 16  1  0
 16 17  1  0
 17 18  1  0
 18 19  1  0
 19 20  2  0
 20 21  1  0
 21 22  2  0
 22 23  1  0
 23 24  2  0
 24 25  1  0
 25 26  2  0
 16 27  2  0
 27 28  1  0
 28 29  1  0
 29 30  1  0
 30 31  1  0
 31 32  1  0
 32 33  2  0
 33 34  1  0
 34 35  2  0
 35 36  1  0
 36 37  2  0
 37 38  1  0
 28 39  2  0
 13 40  1  0
 10  5  1  0
 39 14  1  0
 40  8  1  0
 26 21  1  0
 38 29  1  0
 37 32  1  0
  1 41  1  0
  1 42  1  0
  6 43  1  0
  7 44  1  0
 10 45  1  0
 11 46  1  0
 11 47  1  0
 12 48  1  0
 12 49  1  0
 17 50  1  0
 18 51  1  0
 18 52  1  0
 19 53  1  0
 20 54  1  0
 22 55  1  0
 23 56  1  0
 24 57  1  0
 25 58  1  0
 26 59  1  0
 30 60  1  0
 30 61  1  0
 31 62  1  0
 31 63  1  0
 33 64  1  0
 34 65  1  0
 35 66  1  0
 36 67  1  0
 38 68  1  0
 38 69  1  0
 40 70  1  0
 40 71  1  0
M  END
>  <smiles>  (3) 
NS(=O)(=O)c1ccc2c(c1)CCN(c1nc(NC/C=C/c3ccccc3)nc(N3CCc4ccccc4C3)n1)C2

>  <score_type>  (3) 
oracle

>  <origin>  (3) 
autodockgpu

>  <m_score__min__energy>  (3) 
-10.630000000000001

>  <m_primary>  (3) 
energy

>  <rmsd>  (3) 
10.577449054091062

>  <m_score__min__rmsd>  (3) 
10.577449054091062

>  <meeko>  (3) 
{"free_energy": -10.56, "intermolecular_energy": -13.24, "internal_energy": -1.92, "cluster_size": 42, "cluster_id": 2, "rank_in_cluster": 1}

>  <energy>  (3) 
-10.58

>  <cluster_rmsd>  (3) 
0.28

>  <cluster>  (3) 
1

$$$$

     RDKit          3D

 71 76  0  0  0  0  0  0  0  0999 V2000
  146.0640   73.4510  218.4900 N   0  0  0  0  0  0  0  0  0  0  0  0
  145.5280   72.8790  220.0450 S   0  0  0  0  0  0  0  0  0  0  0  0
  145.5980   71.3930  220.0700 O   0  0  0  0  0  0  0  0  0  0  0  0
  146.4900   73.4330  221.0600 O   0  0  0  0  0  0  0  0  0  0  0  0
  143.9030   73.4170  220.3310 C   0  0  0  0  0  0  0  0  0  0  0  0
  142.9400   72.5350  220.8090 C   0  0  0  0  0  0  0  0  0  0  0  0
  141.6330   72.9710  221.0390 C   0  0  0  0  0  0  0  0  0  0  0  0
  141.2430   74.2730  220.8070 C   0  0  0  0  0  0  0  0  0  0  0  0
  142.2280   75.1350  220.3280 C   0  0  0  0  0  0  0  0  0  0  0  0
  143.5230   74.7210  220.0970 C   0  0  0  0  0  0  0  0  0  0  0  0
  141.7900   76.5540  220.0790 C   0  0  0  0  0  0  0  0  0  0  0  0
  141.0450   76.9420  221.3560 C   0  0  0  0  0  0  0  0  0  0  0  0
  139.8410   76.1490  221.4540 N   0  0  0  0  0  0  0  0  0  0  0  0
  138.6140   76.6780  221.9450 C   0  0  0  0  0  0  0  0  0  0  0  0
  138.2450   77.9500  221.7090 N   0  0  0  0  0  0  0  0  0  0  0  0
  137.1080   78.4890  222.1460 C   0  0  0  0  0  0  0  0  0  0  0  0
  136.7530   79.8440  221.8740 N   0  0  0  0  0  0  0  0  0  0  0  0
  137.6700   80.8970  222.2180 C   0  0  0  0  0  0  0  0  0  0  0  0
  137.9000   80.8260  223.6980 C   0  0  0  0  0  0  0  0  0  0  0  0
  138.9110   80.1570  224.2210 C   0  0  0  0  0  0  0  0  0  0  0  0
  140.2650   80.1820  223.7020 C   0  0  0  0  0  0  0  0  0  0  0  0
  141.1000   79.0720  223.8490 C   0  0  0  0  0  0  0  0  0  0  0  0
  142.3930   79.0560  223.3700 C   0  0  0  0  0  0  0  0  0  0  0  0
  142.9260   80.1620  222.7100 C   0  0  0  0  0  0  0  0  0  0  0  0
  142.1070   81.2620  222.5610 C   0  0  0  0  0  0  0  0  0  0  0  0
  140.8170   81.2610  223.0460 C   0  0  0  0  0  0  0  0  0  0  0  0
  136.2870   77.6970  222.8700 N   0  0  0  0  0  0  0  0  0  0  0  0
  136.5980   76.4160  223.1420 C   0  0  0  0  0  0  0  0  0  0  0  0
  135.6980   75.6240  223.9080 N   0  0  0  0  0  0  0  0  0  0  0  0
  135.8200   74.1840  223.8480 C   0  0  0  0  0  0  0  0  0  0  0  0
  134.4300   73.5520  223.9760 C   0  0  0  0  0  0  0  0  0  0  0  0
  133.8300   74.0530  225.2210 C   0  0  0  0  0  0  0  0  0  0  0  0
  133.1300   73.1610  226.0300 C   0  0  0  0  0  0  0  0  0  0  0  0
  132.5640   73.6180  227.2000 C   0  0  0  0  0  0  0  0  0  0  0  0
  132.7070   74.9450  227.5350 C   0  0  0  0  0  0  0  0  0  0  0  0
  133.3890   75.8330  226.7560 C   0  0  0  0  0  0  0  0  0  0  0  0
  133.9580   75.3700  225.5800 C   0  0  0  0  0  0  0  0  0  0  0  0
  134.7070   76.3030  224.7060 C   0  0  0  0  0  0  0  0  0  0  0  0
  137.7610   75.9270  222.6720 N   0  0  0  0  0  0  0  0  0  0  0  0
  139.8720   74.7590  221.0400 C   0  0  0  0  0  0  0  0  0  0  0  0
  145.3600   74.1700  218.1570 H   0  0  0  0  0  0  0  0  0  0  0  0
  146.9350   74.0280  218.6840 H   0  0  0  0  0  0  0  0  0  0  0  0
  143.2093   71.4871  221.0073 H   0  0  0  0  0  0  0  0  0  0  0  0
  140.8910   72.2525  221.4174 H   0  0  0  0  0  0  0  0  0  0  0  0
  144.2635   75.4420  219.7205 H   0  0  0  0  0  0  0  0  0  0  0  0
  142.6592   77.2090  219.9194 H   0  0  0  0  0  0  0  0  0  0  0  0
  141.1655   76.6519  219.1788 H   0  0  0  0  0  0  0  0  0  0  0  0
  141.6853   76.7509  222.2298 H   0  0  0  0  0  0  0  0  0  0  0  0
  140.7863   78.0108  221.3268 H   0  0  0  0  0  0  0  0  0  0  0  0
  135.8230   80.0200  221.4270 H   0  0  0  0  0  0  0  0  0  0  0  0
  138.6208   80.7573  221.6827 H   0  0  0  0  0  0  0  0  0  0  0  0
  137.2590   81.8775  221.9356 H   0  0  0  0  0  0  0  0  0  0  0  0
  137.2034   81.3485  224.3702 H   0  0  0  0  0  0  0  0  0  0  0  0
  138.7131   79.5395  225.1096 H   0  0  0  0  0  0  0  0  0  0  0  0
  140.7131   78.1805  224.3643 H   0  0  0  0  0  0  0  0  0  0  0  0
  143.0124   78.1579  223.5107 H   0  0  0  0  0  0  0  0  0  0  0  0
  143.9561   80.1579  222.3243 H   0  0  0  0  0  0  0  0  0  0  0  0
  142.4902   82.1554  222.0462 H   0  0  0  0  0  0  0  0  0  0  0  0
  140.2009   82.1610  222.9032 H   0  0  0  0  0  0  0  0  0  0  0  0
  136.2688   73.8930  222.8868 H   0  0  0  0  0  0  0  0  0  0  0  0
  136.4610   73.8340  224.6706 H   0  0  0  0  0  0  0  0  0  0  0  0
  133.8063   73.8389  223.1165 H   0  0  0  0  0  0  0  0  0  0  0  0
  134.5035   72.4546  223.9955 H   0  0  0  0  0  0  0  0  0  0  0  0
  133.0304   72.1050  225.7384 H   0  0  0  0  0  0  0  0  0  0  0  0
  132.0067   72.9330  227.8559 H   0  0  0  0  0  0  0  0  0  0  0  0
  132.2524   75.3046  228.4699 H   0  0  0  0  0  0  0  0  0  0  0  0
  133.4848   76.8878  227.0530 H   0  0  0  0  0  0  0  0  0  0  0  0
  133.9964   76.8074  224.0347 H   0  0  0  0  0  0  0  0  0  0  0  0
  135.2292   77.0249  225.3511 H   0  0  0  0  0  0  0  0  0  0  0  0
  139.4087   74.1456  221.8268 H   0  0  0  0  0  0  0  0  0  0  0  0
  139.3220   74.6794  220.0907 H   0  0  0  0  0  0  0  0  0  0  0  0
  1  2  1  0
  2  3  2  0
  2  4  2  0
  2  5  1  0
  5  6  2  0
  6  7  1  0
  7  8  2  0
  8  9  1  0
  9 10  2  0
  9 11  1  0
 11 12  1  0
 12 13  1  0
 13 14  1  0
 14 15  2  0
 15 16  1  0
 16 17  1  0
 17 18  1  0
 18 19  1  0
 19 20  2  0
 20 21  1  0
 21 22  2  0
 22 23  1  0
 23 24  2  0
 24 25  1  0
 25 26  2  0
 16 27  2  0
 27 28  1  0
 28 29  1  0
 29 30  1  0
 30 31  1  0
 31 32  1  0
 32 33  2  0
 33 34  1  0
 34 35  2  0
 35 36  1  0
 36 37  2  0
 37 38  1  0
 28 39  2  0
 13 40  1  0
 10  5  1  0
 39 14  1  0
 40  8  1  0
 26 21  1  0
 38 29  1  0
 37 32  1  0
  1 41  1  0
  1 42  1  0
  6 43  1  0
  7 44  1  0
 10 45  1  0
 11 46  1  0
 11 47  1  0
 12 48  1  0
 12 49  1  0
 17 50  1  0
 18 51  1  0
 18 52  1  0
 19 53  1  0
 20 54  1  0
 22 55  1  0
 23 56  1  0
 24 57  1  0
 25 58  1  0
 26 59  1  0
 30 60  1  0
 30 61  1  0
 31 62  1  0
 31 63  1  0
 33 64  1  0
 34 65  1  0
 35 66  1  0
 36 67  1  0
 38 68  1  0
 38 69  1  0
 40 70  1  0
 40 71  1  0
M  END
>  <smiles>  (4) 
NS(=O)(=O)c1ccc2c(c1)CCN(c1nc(NC/C=C/c3ccccc3)nc(N3CCc4ccccc4C3)n1)C2

>  <score_type>  (4) 
oracle

>  <origin>  (4) 
autodockgpu

>  <m_score__min__energy>  (4) 
-10.630000000000001

>  <m_primary>  (4) 
energy

>  <rmsd>  (4) 
10.326770363285524

>  <m_score__min__rmsd>  (4) 
10.326770363285524

>  <meeko>  (4) 
{"free_energy": -10.38, "intermolecular_energy": -13.07, "internal_energy": -1.95, "cluster_size": 42, "cluster_id": 2, "rank_in_cluster": 12}

>  <energy>  (4) 
-10.48

>  <cluster_rmsd>  (4) 
0.78

>  <cluster>  (4) 
1

$$$$

     RDKit          3D

 71 76  0  0  0  0  0  0  0  0999 V2000
  146.0200   73.4000  218.4960 N   0  0  0  0  0  0  0  0  0  0  0  0
  145.4270   72.6070  219.9290 S   0  0  0  0  0  0  0  0  0  0  0  0
  145.4580   71.1340  219.7200 O   0  0  0  0  0  0  0  0  0  0  0  0
  146.3770   72.9650  221.0390 O   0  0  0  0  0  0  0  0  0  0  0  0
  143.8100   73.1420  220.2600 C   0  0  0  0  0  0  0  0  0  0  0  0
  142.8660   72.2630  220.7760 C   0  0  0  0  0  0  0  0  0  0  0  0
  141.5650   72.6960  221.0430 C   0  0  0  0  0  0  0  0  0  0  0  0
  141.1640   73.9940  220.8110 C   0  0  0  0  0  0  0  0  0  0  0  0
  142.1300   74.8560  220.2930 C   0  0  0  0  0  0  0  0  0  0  0  0
  143.4190   74.4440  220.0260 C   0  0  0  0  0  0  0  0  0  0  0  0
  141.6800   76.2700  220.0450 C   0  0  0  0  0  0  0  0  0  0  0  0
  140.9730   76.6680  221.3410 C   0  0  0  0  0  0  0  0  0  0  0  0
  139.7750   75.8720  221.4840 N   0  0  0  0  0  0  0  0  0  0  0  0
  138.5630   76.4010  222.0080 C   0  0  0  0  0  0  0  0  0  0  0  0
  138.2080   77.6850  221.8170 N   0  0  0  0  0  0  0  0  0  0  0  0
  137.0840   78.2260  222.2860 C   0  0  0  0  0  0  0  0  0  0  0  0
  136.7450   79.5930  222.0610 N   0  0  0  0  0  0  0  0  0  0  0  0
  136.6620   80.4940  223.1790 C   0  0  0  0  0  0  0  0  0  0  0  0
  137.8940   80.2920  224.0090 C   0  0  0  0  0  0  0  0  0  0  0  0
  138.9800   81.0260  223.8460 C   0  0  0  0  0  0  0  0  0  0  0  0
  140.2730   80.4990  223.4550 C   0  0  0  0  0  0  0  0  0  0  0  0
  140.6640   79.2180  223.8520 C   0  0  0  0  0  0  0  0  0  0  0  0
  141.8850   78.6810  223.5010 C   0  0  0  0  0  0  0  0  0  0  0  0
  142.7900   79.4040  222.7260 C   0  0  0  0  0  0  0  0  0  0  0  0
  142.4100   80.6700  222.3310 C   0  0  0  0  0  0  0  0  0  0  0  0
  141.1860   81.1910  222.6900 C   0  0  0  0  0  0  0  0  0  0  0  0
  136.2630   77.4220  222.9960 N   0  0  0  0  0  0  0  0  0  0  0  0
  136.5590   76.1290  223.2240 C   0  0  0  0  0  0  0  0  0  0  0  0
  135.6590   75.3260  223.9770 N   0  0  0  0  0  0  0  0  0  0  0  0
  135.8060   73.8870  223.9260 C   0  0  0  0  0  0  0  0  0  0  0  0
  134.4240   73.2330  224.0330 C   0  0  0  0  0  0  0  0  0  0  0  0
  133.7950   73.7290  225.2650 C   0  0  0  0  0  0  0  0  0  0  0  0
  133.0950   72.8300  226.0650 C   0  0  0  0  0  0  0  0  0  0  0  0
  132.5000   73.2820  227.2230 C   0  0  0  0  0  0  0  0  0  0  0  0
  132.6160   74.6130  227.5540 C   0  0  0  0  0  0  0  0  0  0  0  0
  133.2960   75.5090  226.7830 C   0  0  0  0  0  0  0  0  0  0  0  0
  133.8940   75.0500  225.6190 C   0  0  0  0  0  0  0  0  0  0  0  0
  134.6430   75.9920  224.7550 C   0  0  0  0  0  0  0  0  0  0  0  0
  137.7090   75.6400  222.7230 N   0  0  0  0  0  0  0  0  0  0  0  0
  139.7980   74.4790  221.0820 C   0  0  0  0  0  0  0  0  0  0  0  0
  145.3000   74.1250  218.2140 H   0  0  0  0  0  0  0  0  0  0  0  0
  146.8470   73.9850  218.8150 H   0  0  0  0  0  0  0  0  0  0  0  0
  143.1452   71.2180  220.9759 H   0  0  0  0  0  0  0  0  0  0  0  0
  140.8379   71.9786  221.4512 H   0  0  0  0  0  0  0  0  0  0  0  0
  144.1454   75.1638  219.6208 H   0  0  0  0  0  0  0  0  0  0  0  0
  142.5417   76.9261  219.8526 H   0  0  0  0  0  0  0  0  0  0  0  0
  141.0276   76.3574  219.1637 H   0  0  0  0  0  0  0  0  0  0  0  0
  141.6407   76.4874  222.1964 H   0  0  0  0  0  0  0  0  0  0  0  0
  140.7097   77.7356  221.3094 H   0  0  0  0  0  0  0  0  0  0  0  0
  136.5660   79.8910  221.0730 H   0  0  0  0  0  0  0  0  0  0  0  0
  136.6154   81.5333  222.8218 H   0  0  0  0  0  0  0  0  0  0  0  0
  135.7570   80.2954  223.7719 H   0  0  0  0  0  0  0  0  0  0  0  0
  137.8935   79.5066  224.7792 H   0  0  0  0  0  0  0  0  0  0  0  0
  138.8980   82.1093  224.0184 H   0  0  0  0  0  0  0  0  0  0  0  0
  139.9754   78.6177  224.4648 H   0  0  0  0  0  0  0  0  0  0  0  0
  142.1483   77.6674  223.8376 H   0  0  0  0  0  0  0  0  0  0  0  0
  143.7656   78.9831  222.4414 H   0  0  0  0  0  0  0  0  0  0  0  0
  143.0960   81.2739  221.7189 H   0  0  0  0  0  0  0  0  0  0  0  0
  140.9263   82.2046  222.3507 H   0  0  0  0  0  0  0  0  0  0  0  0
  136.2761   73.5991  222.9741 H   0  0  0  0  0  0  0  0  0  0  0  0
  136.4385   73.5512  224.7610 H   0  0  0  0  0  0  0  0  0  0  0  0
  133.8106   73.5064  223.1618 H   0  0  0  0  0  0  0  0  0  0  0  0
  134.5148   72.1371  224.0584 H   0  0  0  0  0  0  0  0  0  0  0  0
  133.0177   71.7714  225.7762 H   0  0  0  0  0  0  0  0  0  0  0  0
  131.9419   72.5909  227.8717 H   0  0  0  0  0  0  0  0  0  0  0  0
  132.1400   74.9690  228.4796 H   0  0  0  0  0  0  0  0  0  0  0  0
  133.3682   76.5667  227.0763 H   0  0  0  0  0  0  0  0  0  0  0  0
  133.9363   76.4826  224.0695 H   0  0  0  0  0  0  0  0  0  0  0  0
  135.1419   76.7246  225.4064 H   0  0  0  0  0  0  0  0  0  0  0  0
  139.3610   73.8715  221.8882 H   0  0  0  0  0  0  0  0  0  0  0  0
  139.2196   74.3894  220.1506 H   0  0  0  0  0  0  0  0  0  0  0  0
  1  2  1  0
  2  3  2  0
  2  4  2  0
  2  5  1  0
  5  6  2  0
  6  7  1  0
  7  8  2  0
  8  9  1  0
  9 10  2  0
  9 11  1  0
 11 12  1  0
 12 13  1  0
 13 14  1  0
 14 15  2  0
 15 16  1  0
 16 17  1  0
 17 18  1  0
 18 19  1  0
 19 20  2  0
 20 21  1  0
 21 22  2  0
 22 23  1  0
 23 24  2  0
 24 25  1  0
 25 26  2  0
 16 27  2  0
 27 28  1  0
 28 29  1  0
 29 30  1  0
 30 31  1  0
 31 32  1  0
 32 33  2  0
 33 34  1  0
 34 35  2  0
 35 36  1  0
 36 37  2  0
 37 38  1  0
 28 39  2  0
 13 40  1  0
 10  5  1  0
 39 14  1  0
 40  8  1  0
 26 21  1  0
 38 29  1  0
 37 32  1  0
  1 41  1  0
  1 42  1  0
  6 43  1  0
  7 44  1  0
 10 45  1  0
 11 46  1  0
 11 47  1  0
 12 48  1  0
 12 49  1  0
 17 50  1  0
 18 51  1  0
 18 52  1  0
 19 53  1  0
 20 54  1  0
 22 55  1  0
 23 56  1  0
 24 57  1  0
 25 58  1  0
 26 59  1  0
 30 60  1  0
 30 61  1  0
 31 62  1  0
 31 63  1  0
 33 64  1  0
 34 65  1  0
 35 66  1  0
 36 67  1  0
 38 68  1  0
 38 69  1  0
 40 70  1  0
 40 71  1  0
M  END
>  <smiles>  (5) 
NS(=O)(=O)c1ccc2c(c1)CCN(c1nc(NC/C=C/c3ccccc3)nc(N3CCc4ccccc4C3)n1)C2

>  <score_type>  (5) 
oracle

>  <origin>  (5) 
autodockgpu

>  <m_score__min__energy>  (5) 
-10.630000000000001

>  <m_primary>  (5) 
energy

>  <rmsd>  (5) 
10.500899805329496

>  <m_score__min__rmsd>  (5) 
10.500899805329496

>  <meeko>  (5) 
{"free_energy": -10.45, "intermolecular_energy": -13.13, "internal_energy": -1.92, "cluster_size": 42, "cluster_id": 2, "rank_in_cluster": 11}

>  <energy>  (5) 
-9.43

>  <cluster_rmsd>  (5) 
1.85

>  <cluster>  (5) 
1

$$$$

     RDKit          3D

 71 76  0  0  0  0  0  0  0  0999 V2000
  145.7050   71.4920  220.0720 N   0  0  0  0  0  0  0  0  0  0  0  0
  145.5460   73.1920  219.7250 S   0  0  0  0  0  0  0  0  0  0  0  0
  146.4800   73.9570  220.5940 O   0  0  0  0  0  0  0  0  0  0  0  0
  145.9520   73.3750  218.2890 O   0  0  0  0  0  0  0  0  0  0  0  0
  143.9080   73.6890  220.0050 C   0  0  0  0  0  0  0  0  0  0  0  0
  142.9060   72.7460  220.2040 C   0  0  0  0  0  0  0  0  0  0  0  0
  141.5880   73.1500  220.4300 C   0  0  0  0  0  0  0  0  0  0  0  0
  141.2250   74.4790  220.4640 C   0  0  0  0  0  0  0  0  0  0  0  0
  142.2480   75.4040  220.2600 C   0  0  0  0  0  0  0  0  0  0  0  0
  143.5540   75.0220  220.0380 C   0  0  0  0  0  0  0  0  0  0  0  0
  141.8380   76.8510  220.3000 C   0  0  0  0  0  0  0  0  0  0  0  0
  141.0010   76.9660  221.5740 C   0  0  0  0  0  0  0  0  0  0  0  0
  139.7880   76.1980  221.4070 N   0  0  0  0  0  0  0  0  0  0  0  0
  138.5310   76.6330  221.9120 C   0  0  0  0  0  0  0  0  0  0  0  0
  138.0920   77.8920  221.7340 N   0  0  0  0  0  0  0  0  0  0  0  0
  136.9230   78.3450  222.1860 C   0  0  0  0  0  0  0  0  0  0  0  0
  136.4950   79.6890  221.9760 N   0  0  0  0  0  0  0  0  0  0  0  0
  136.5020   80.6150  223.0760 C   0  0  0  0  0  0  0  0  0  0  0  0
  137.8000   80.4330  223.8040 C   0  0  0  0  0  0  0  0  0  0  0  0
  138.8720   81.1510  223.5210 C   0  0  0  0  0  0  0  0  0  0  0  0
  140.2020   80.6020  223.3470 C   0  0  0  0  0  0  0  0  0  0  0  0
  140.5610   79.4040  223.9700 C   0  0  0  0  0  0  0  0  0  0  0  0
  141.8150   78.8490  223.8300 C   0  0  0  0  0  0  0  0  0  0  0  0
  142.7900   79.4690  223.0500 C   0  0  0  0  0  0  0  0  0  0  0  0
  142.4430   80.6520  222.4310 C   0  0  0  0  0  0  0  0  0  0  0  0
  141.1850   81.1930  222.5820 C   0  0  0  0  0  0  0  0  0  0  0  0
  136.1450   77.4740  222.8650 N   0  0  0  0  0  0  0  0  0  0  0  0
  136.5260   76.2010  223.0780 C   0  0  0  0  0  0  0  0  0  0  0  0
  135.6680   75.3240  223.7980 N   0  0  0  0  0  0  0  0  0  0  0  0
  135.8520   73.8970  223.6470 C   0  0  0  0  0  0  0  0  0  0  0  0
  134.4920   73.1980  223.7440 C   0  0  0  0  0  0  0  0  0  0  0  0
  133.8820   73.5930  225.0220 C   0  0  0  0  0  0  0  0  0  0  0  0
  133.2280   72.6230  225.7770 C   0  0  0  0  0  0  0  0  0  0  0  0
  132.6530   72.9810  226.9770 C   0  0  0  0  0  0  0  0  0  0  0  0
  132.7410   74.2900  227.3930 C   0  0  0  0  0  0  0  0  0  0  0  0
  133.3770   75.2530  226.6670 C   0  0  0  0  0  0  0  0  0  0  0  0
  133.9550   74.8900  225.4620 C   0  0  0  0  0  0  0  0  0  0  0  0
  134.6560   75.9080  224.6440 C   0  0  0  0  0  0  0  0  0  0  0  0
  137.7170   75.8020  222.5950 N   0  0  0  0  0  0  0  0  0  0  0  0
  139.8420   74.9330  220.6980 C   0  0  0  0  0  0  0  0  0  0  0  0
  146.6130   71.3600  220.6020 H   0  0  0  0  0  0  0  0  0  0  0  0
  144.9600   71.2780  220.7980 H   0  0  0  0  0  0  0  0  0  0  0  0
  143.1528   71.6742  220.1833 H   0  0  0  0  0  0  0  0  0  0  0  0
  140.8152   72.3828  220.5858 H   0  0  0  0  0  0  0  0  0  0  0  0
  144.3251   75.7914  219.8849 H   0  0  0  0  0  0  0  0  0  0  0  0
  142.7204   77.5056  220.3521 H   0  0  0  0  0  0  0  0  0  0  0  0
  141.2831   77.1577  219.4011 H   0  0  0  0  0  0  0  0  0  0  0  0
  141.5723   76.5733  222.4281 H   0  0  0  0  0  0  0  0  0  0  0  0
  140.7519   78.0206  221.7628 H   0  0  0  0  0  0  0  0  0  0  0  0
  136.1850   79.9530  221.0100 H   0  0  0  0  0  0  0  0  0  0  0  0
  136.4223   81.6459  222.7007 H   0  0  0  0  0  0  0  0  0  0  0  0
  135.6501   80.4293  223.7467 H   0  0  0  0  0  0  0  0  0  0  0  0
  137.8616   79.6765  224.6002 H   0  0  0  0  0  0  0  0  0  0  0  0
  138.7469   82.2382  223.4100 H   0  0  0  0  0  0  0  0  0  0  0  0
  139.8175   78.8860  224.5936 H   0  0  0  0  0  0  0  0  0  0  0  0
  142.0497   77.9036  224.3410 H   0  0  0  0  0  0  0  0  0  0  0  0
  143.7933   79.0335  222.9331 H   0  0  0  0  0  0  0  0  0  0  0  0
  143.1836   81.1724  221.8060 H   0  0  0  0  0  0  0  0  0  0  0  0
  140.9546   82.1386  222.0694 H   0  0  0  0  0  0  0  0  0  0  0  0
  136.3042   73.6865  222.6666 H   0  0  0  0  0  0  0  0  0  0  0  0
  136.5151   73.5248  224.4418 H   0  0  0  0  0  0  0  0  0  0  0  0
  133.8487   73.5106  222.9083 H   0  0  0  0  0  0  0  0  0  0  0  0
  134.6134   72.1059  223.6939 H   0  0  0  0  0  0  0  0  0  0  0  0
  133.1710   71.5841  225.4201 H   0  0  0  0  0  0  0  0  0  0  0  0
  132.1321   72.2327  227.5925 H   0  0  0  0  0  0  0  0  0  0  0  0
  132.2790   74.5709  228.3510 H   0  0  0  0  0  0  0  0  0  0  0  0
  133.4296   76.2905  227.0287 H   0  0  0  0  0  0  0  0  0  0  0  0
  133.9185   76.4228  224.0107 H   0  0  0  0  0  0  0  0  0  0  0  0
  135.1529   76.6094  225.3304 H   0  0  0  0  0  0  0  0  0  0  0  0
  139.3161   74.1718  221.2929 H   0  0  0  0  0  0  0  0  0  0  0  0
  139.3657   75.0775  219.7170 H   0  0  0  0  0  0  0  0  0  0  0  0
  1  2  1  0
  2  3  2  0
  2  4  2  0
  2  5  1  0
  5  6  2  0
  6  7  1  0
  7  8  2  0
  8  9  1  0
  9 10  2  0
  9 11  1  0
 11 12  1  0
 12 13  1  0
 13 14  1  0
 14 15  2  0
 15 16  1  0
 16 17  1  0
 17 18  1  0
 18 19  1  0
 19 20  2  0
 20 21  1  0
 21 22  2  0
 22 23  1  0
 23 24  2  0
 24 25  1  0
 25 26  2  0
 16 27  2  0
 27 28  1  0
 28 29  1  0
 29 30  1  0
 30 31  1  0
 31 32  1  0
 32 33  2  0
 33 34  1  0
 34 35  2  0
 35 36  1  0
 36 37  2  0
 37 38  1  0
 28 39  2  0
 13 40  1  0
 10  5  1  0
 39 14  1  0
 40  8  1  0
 26 21  1  0
 38 29  1  0
 37 32  1  0
  1 41  1  0
  1 42  1  0
  6 43  1  0
  7 44  1  0
 10 45  1  0
 11 46  1  0
 11 47  1  0
 12 48  1  0
 12 49  1  0
 17 50  1  0
 18 51  1  0
 18 52  1  0
 19 53  1  0
 20 54  1  0
 22 55  1  0
 23 56  1  0
 24 57  1  0
 25 58  1  0
 26 59  1  0
 30 60  1  0
 30 61  1  0
 31 62  1  0
 31 63  1  0
 33 64  1  0
 34 65  1  0
 35 66  1  0
 36 67  1  0
 38 68  1  0
 38 69  1  0
 40 70  1  0
 40 71  1  0
M  END
>  <smiles>  (6) 
NS(=O)(=O)c1ccc2c(c1)CCN(c1nc(NC/C=C/c3ccccc3)nc(N3CCc4ccccc4C3)n1)C2

>  <score_type>  (6) 
oracle

>  <origin>  (6) 
autodockgpu

>  <m_score__min__energy>  (6) 
-10.630000000000001

>  <m_primary>  (6) 
energy

>  <rmsd>  (6) 
10.404200314245713

>  <m_score__min__rmsd>  (6) 
10.404200314245713

>  <meeko>  (6) 
{"free_energy": -9.91, "intermolecular_energy": -12.59, "internal_energy": -1.94, "cluster_size": 42, "cluster_id": 2, "rank_in_cluster": 36}

>  <energy>  (6) 
-9.3

>  <cluster_rmsd>  (6) 
1.87

>  <cluster>  (6) 
1

$$$$

     RDKit          3D

 71 76  0  0  0  0  0  0  0  0999 V2000
  146.0650   73.4250  218.5490 N   0  0  0  0  0  0  0  0  0  0  0  0
  145.4400   72.6120  219.9560 S   0  0  0  0  0  0  0  0  0  0  0  0
  145.4510   71.1430  219.7180 O   0  0  0  0  0  0  0  0  0  0  0  0
  146.3790   72.9320  221.0870 O   0  0  0  0  0  0  0  0  0  0  0  0
  143.8260   73.1650  220.2760 C   0  0  0  0  0  0  0  0  0  0  0  0
  142.8610   72.2890  220.7590 C   0  0  0  0  0  0  0  0  0  0  0  0
  141.5630   72.7370  221.0160 C   0  0  0  0  0  0  0  0  0  0  0  0
  141.1860   74.0460  220.8070 C   0  0  0  0  0  0  0  0  0  0  0  0
  142.1720   74.9030  220.3220 C   0  0  0  0  0  0  0  0  0  0  0  0
  143.4590   74.4770  220.0640 C   0  0  0  0  0  0  0  0  0  0  0  0
  141.7470   76.3290  220.0980 C   0  0  0  0  0  0  0  0  0  0  0  0
  141.0280   76.7110  221.3920 C   0  0  0  0  0  0  0  0  0  0  0  0
  139.8160   75.9300  221.5010 N   0  0  0  0  0  0  0  0  0  0  0  0
  138.6040   76.4670  222.0190 C   0  0  0  0  0  0  0  0  0  0  0  0
  138.2600   77.7540  221.8290 N   0  0  0  0  0  0  0  0  0  0  0  0
  137.1370   78.3010  222.2920 C   0  0  0  0  0  0  0  0  0  0  0  0
  136.8090   79.6710  222.0680 N   0  0  0  0  0  0  0  0  0  0  0  0
  136.6020   80.5420  223.1940 C   0  0  0  0  0  0  0  0  0  0  0  0
  137.9330   81.1300  223.5560 C   0  0  0  0  0  0  0  0  0  0  0  0
  138.8570   80.4370  224.1970 C   0  0  0  0  0  0  0  0  0  0  0  0
  140.2100   80.2370  223.7170 C   0  0  0  0  0  0  0  0  0  0  0  0
  140.8780   81.2600  223.0400 C   0  0  0  0  0  0  0  0  0  0  0  0
  142.1650   81.1100  222.5670 C   0  0  0  0  0  0  0  0  0  0  0  0
  142.8610   79.9160  222.7500 C   0  0  0  0  0  0  0  0  0  0  0  0
  142.2070   78.9010  223.4190 C   0  0  0  0  0  0  0  0  0  0  0  0
  140.9210   79.0690  223.8840 C   0  0  0  0  0  0  0  0  0  0  0  0
  136.3050   77.5010  222.9950 N   0  0  0  0  0  0  0  0  0  0  0  0
  136.5920   76.2060  223.2210 C   0  0  0  0  0  0  0  0  0  0  0  0
  135.6810   75.4080  223.9670 N   0  0  0  0  0  0  0  0  0  0  0  0
  135.8020   73.9670  223.8940 C   0  0  0  0  0  0  0  0  0  0  0  0
  134.4100   73.3360  223.9980 C   0  0  0  0  0  0  0  0  0  0  0  0
  133.7950   73.8250  225.2400 C   0  0  0  0  0  0  0  0  0  0  0  0
  133.0830   72.9260  226.0300 C   0  0  0  0  0  0  0  0  0  0  0  0
  132.5020   73.3710  227.1970 C   0  0  0  0  0  0  0  0  0  0  0  0
  132.6420   74.6940  227.5470 C   0  0  0  0  0  0  0  0  0  0  0  0
  133.3350   75.5900  226.7860 C   0  0  0  0  0  0  0  0  0  0  0  0
  133.9190   75.1380  225.6140 C   0  0  0  0  0  0  0  0  0  0  0  0
  134.6800   76.0800  224.7590 C   0  0  0  0  0  0  0  0  0  0  0  0
  137.7410   75.7100  222.7260 N   0  0  0  0  0  0  0  0  0  0  0  0
  139.8240   74.5450  221.0690 C   0  0  0  0  0  0  0  0  0  0  0  0
  145.3380   74.1320  218.2420 H   0  0  0  0  0  0  0  0  0  0  0  0
  146.8650   74.0290  218.9000 H   0  0  0  0  0  0  0  0  0  0  0  0
  143.1211   71.2357  220.9401 H   0  0  0  0  0  0  0  0  0  0  0  0
  140.8185   72.0225  221.3971 H   0  0  0  0  0  0  0  0  0  0  0  0
  144.2020   75.1937  219.6841 H   0  0  0  0  0  0  0  0  0  0  0  0
  142.6212   76.9755  219.9315 H   0  0  0  0  0  0  0  0  0  0  0  0
  141.1083   76.4448  219.2099 H   0  0  0  0  0  0  0  0  0  0  0  0
  141.6805   76.5025  222.2527 H   0  0  0  0  0  0  0  0  0  0  0  0
  140.7814   77.7829  221.3795 H   0  0  0  0  0  0  0  0  0  0  0  0
  136.7310   79.9940  221.0750 H   0  0  0  0  0  0  0  0  0  0  0  0
  135.8975   81.3430  222.9254 H   0  0  0  0  0  0  0  0  0  0  0  0
  136.1791   79.9854  224.0433 H   0  0  0  0  0  0  0  0  0  0  0  0
  138.1470   82.1727  223.2787 H   0  0  0  0  0  0  0  0  0  0  0  0
  138.5812   79.9812  225.1594 H   0  0  0  0  0  0  0  0  0  0  0  0
  140.3605   82.2171  222.8787 H   0  0  0  0  0  0  0  0  0  0  0  0
  142.6490   81.9442  222.0380 H   0  0  0  0  0  0  0  0  0  0  0  0
  143.8879   79.7881  222.3770 H   0  0  0  0  0  0  0  0  0  0  0  0
  142.7209   77.9425  223.5835 H   0  0  0  0  0  0  0  0  0  0  0  0
  140.4403   78.2326  224.4125 H   0  0  0  0  0  0  0  0  0  0  0  0
  136.2626   73.6850  222.9357 H   0  0  0  0  0  0  0  0  0  0  0  0
  136.4321   73.6078  224.7210 H   0  0  0  0  0  0  0  0  0  0  0  0
  133.7977   73.6325  223.1336 H   0  0  0  0  0  0  0  0  0  0  0  0
  134.4819   72.2384  224.0073 H   0  0  0  0  0  0  0  0  0  0  0  0
  132.9857   71.8734  225.7258 H   0  0  0  0  0  0  0  0  0  0  0  0
  131.9355   72.6799  227.8384 H   0  0  0  0  0  0  0  0  0  0  0  0
  132.1757   75.0444  228.4796 H   0  0  0  0  0  0  0  0  0  0  0  0
  133.4273   76.6418  227.0946 H   0  0  0  0  0  0  0  0  0  0  0  0
  133.9784   76.5917  224.0838 H   0  0  0  0  0  0  0  0  0  0  0  0
  135.1940   76.7952  225.4180 H   0  0  0  0  0  0  0  0  0  0  0  0
  139.3666   73.9269  221.8556 H   0  0  0  0  0  0  0  0  0  0  0  0
  139.2576   74.4839  220.1280 H   0  0  0  0  0  0  0  0  0  0  0  0
  1  2  1  0
  2  3  2  0
  2  4  2  0
  2  5  1  0
  5  6  2  0
  6  7  1  0
  7  8  2  0
  8  9  1  0
  9 10  2  0
  9 11  1  0
 11 12  1  0
 12 13  1  0
 13 14  1  0
 14 15  2  0
 15 16  1  0
 16 17  1  0
 17 18  1  0
 18 19  1  0
 19 20  2  0
 20 21  1  0
 21 22  2  0
 22 23  1  0
 23 24  2  0
 24 25  1  0
 25 26  2  0
 16 27  2  0
 27 28  1  0
 28 29  1  0
 29 30  1  0
 30 31  1  0
 31 32  1  0
 32 33  2  0
 33 34  1  0
 34 35  2  0
 35 36  1  0
 36 37  2  0
 37 38  1  0
 28 39  2  0
 13 40  1  0
 10  5  1  0
 39 14  1  0
 40  8  1  0
 26 21  1  0
 38 29  1  0
 37 32  1  0
  1 41  1  0
  1 42  1  0
  6 43  1  0
  7 44  1  0
 10 45  1  0
 11 46  1  0
 11 47  1  0
 12 48  1  0
 12 49  1  0
 17 50  1  0
 18 51  1  0
 18 52  1  0
 19 53  1  0
 20 54  1  0
 22 55  1  0
 23 56  1  0
 24 57  1  0
 25 58  1  0
 26 59  1  0
 30 60  1  0
 30 61  1  0
 31 62  1  0
 31 63  1  0
 33 64  1  0
 34 65  1  0
 35 66  1  0
 36 67  1  0
 38 68  1  0
 38 69  1  0
 40 70  1  0
 40 71  1  0
M  END
>  <smiles>  (7) 
NS(=O)(=O)c1ccc2c(c1)CCN(c1nc(NC/C=C/c3ccccc3)nc(N3CCc4ccccc4C3)n1)C2

>  <score_type>  (7) 
oracle

>  <origin>  (7) 
autodockgpu

>  <m_score__min__energy>  (7) 
-10.630000000000001

>  <m_primary>  (7) 
energy

>  <rmsd>  (7) 
10.448339398681606

>  <m_score__min__rmsd>  (7) 
10.448339398681606

>  <meeko>  (7) 
{"free_energy": -10.5, "intermolecular_energy": -13.18, "internal_energy": -1.9, "cluster_size": 42, "cluster_id": 2, "rank_in_cluster": 3}

>  <energy>  (7) 
-9.06

>  <cluster_rmsd>  (7) 
1.83

>  <cluster>  (7) 
1

$$$$

     RDKit          3D

 71 76  0  0  0  0  0  0  0  0999 V2000
  146.0730   73.4490  218.6630 N   0  0  0  0  0  0  0  0  0  0  0  0
  145.4010   72.5660  220.0060 S   0  0  0  0  0  0  0  0  0  0  0  0
  145.4050   71.1130  219.6870 O   0  0  0  0  0  0  0  0  0  0  0  0
  146.3110   72.8130  221.1780 O   0  0  0  0  0  0  0  0  0  0  0  0
  143.7850   73.1190  220.3110 C   0  0  0  0  0  0  0  0  0  0  0  0
  142.8460   72.2740  220.8900 C   0  0  0  0  0  0  0  0  0  0  0  0
  141.5460   72.7210  221.1360 C   0  0  0  0  0  0  0  0  0  0  0  0
  141.1400   74.0000  220.8200 C   0  0  0  0  0  0  0  0  0  0  0  0
  142.1000   74.8270  220.2400 C   0  0  0  0  0  0  0  0  0  0  0  0
  143.3890   74.4010  219.9930 C   0  0  0  0  0  0  0  0  0  0  0  0
  141.6450   76.2210  219.9010 C   0  0  0  0  0  0  0  0  0  0  0  0
  140.9460   76.7030  221.1720 C   0  0  0  0  0  0  0  0  0  0  0  0
  139.7510   75.9160  221.3760 N   0  0  0  0  0  0  0  0  0  0  0  0
  138.5400   76.4760  221.8710 C   0  0  0  0  0  0  0  0  0  0  0  0
  138.1620   77.7300  221.5650 N   0  0  0  0  0  0  0  0  0  0  0  0
  137.0390   78.2980  222.0030 C   0  0  0  0  0  0  0  0  0  0  0  0
  136.6740   79.6320  221.6540 N   0  0  0  0  0  0  0  0  0  0  0  0
  136.7030   80.6590  222.6610 C   0  0  0  0  0  0  0  0  0  0  0  0
  137.7140   80.2490  223.6900 C   0  0  0  0  0  0  0  0  0  0  0  0
  138.8340   80.9210  223.8830 C   0  0  0  0  0  0  0  0  0  0  0  0
  140.1570   80.4110  223.5790 C   0  0  0  0  0  0  0  0  0  0  0  0
  141.1250   81.2460  223.0160 C   0  0  0  0  0  0  0  0  0  0  0  0
  142.3940   80.7990  222.7130 C   0  0  0  0  0  0  0  0  0  0  0  0
  142.7670   79.4790  222.9600 C   0  0  0  0  0  0  0  0  0  0  0  0
  141.8160   78.6490  223.5160 C   0  0  0  0  0  0  0  0  0  0  0  0
  140.5530   79.1120  223.8120 C   0  0  0  0  0  0  0  0  0  0  0  0
  136.2430   77.5550  222.8030 N   0  0  0  0  0  0  0  0  0  0  0  0
  136.5650   76.2940  223.1470 C   0  0  0  0  0  0  0  0  0  0  0  0
  135.6910   75.5550  223.9930 N   0  0  0  0  0  0  0  0  0  0  0  0
  134.7230   76.2780  224.7890 C   0  0  0  0  0  0  0  0  0  0  0  0
  134.5120   75.5450  226.1180 C   0  0  0  0  0  0  0  0  0  0  0  0
  134.1190   74.1640  225.8030 C   0  0  0  0  0  0  0  0  0  0  0  0
  133.1040   73.5720  226.5490 C   0  0  0  0  0  0  0  0  0  0  0  0
  132.7260   72.2780  226.2640 C   0  0  0  0  0  0  0  0  0  0  0  0
  133.3670   71.6070  225.2460 C   0  0  0  0  0  0  0  0  0  0  0  0
  134.3640   72.1700  224.5050 C   0  0  0  0  0  0  0  0  0  0  0  0
  134.7400   73.4720  224.7950 C   0  0  0  0  0  0  0  0  0  0  0  0
  135.8190   74.1190  224.0110 C   0  0  0  0  0  0  0  0  0  0  0  0
  137.7120   75.7760  222.6730 N   0  0  0  0  0  0  0  0  0  0  0  0
  139.7750   74.4980  221.0670 C   0  0  0  0  0  0  0  0  0  0  0  0
  145.3280   74.1190  218.3200 H   0  0  0  0  0  0  0  0  0  0  0  0
  146.8090   74.0900  219.0830 H   0  0  0  0  0  0  0  0  0  0  0  0
  143.1288   71.2450  221.1566 H   0  0  0  0  0  0  0  0  0  0  0  0
  140.8235   72.0310  221.5963 H   0  0  0  0  0  0  0  0  0  0  0  0
  144.1109   75.0938  219.5360 H   0  0  0  0  0  0  0  0  0  0  0  0
  142.5039   76.8644  219.6595 H   0  0  0  0  0  0  0  0  0  0  0  0
  140.9866   76.2483  219.0202 H   0  0  0  0  0  0  0  0  0  0  0  0
  141.6198   76.5812  222.0329 H   0  0  0  0  0  0  0  0  0  0  0  0
  140.6799   77.7655  221.0710 H   0  0  0  0  0  0  0  0  0  0  0  0
  136.3940   79.8140  220.6620 H   0  0  0  0  0  0  0  0  0  0  0  0
  136.9934   81.6195  222.2103 H   0  0  0  0  0  0  0  0  0  0  0  0
  135.7105   80.7823  223.1189 H   0  0  0  0  0  0  0  0  0  0  0  0
  137.5158   79.3585  224.3046 H   0  0  0  0  0  0  0  0  0  0  0  0
  138.7585   81.9352  224.3023 H   0  0  0  0  0  0  0  0  0  0  0  0
  140.8666   82.2947  222.8075 H   0  0  0  0  0  0  0  0  0  0  0  0
  143.1223   81.4943  222.2700 H   0  0  0  0  0  0  0  0  0  0  0  0
  143.7771   79.1145  222.7216 H   0  0  0  0  0  0  0  0  0  0  0  0
  142.0705   77.5998  223.7266 H   0  0  0  0  0  0  0  0  0  0  0  0
  139.8277   78.4132  224.2544 H   0  0  0  0  0  0  0  0  0  0  0  0
  135.0943   77.2947  224.9850 H   0  0  0  0  0  0  0  0  0  0  0  0
  133.7688   76.3370  224.2450 H   0  0  0  0  0  0  0  0  0  0  0  0
  135.4454   75.5464  226.7001 H   0  0  0  0  0  0  0  0  0  0  0  0
  133.7341   76.0425  226.7158 H   0  0  0  0  0  0  0  0  0  0  0  0
  132.6092   74.1309  227.3570 H   0  0  0  0  0  0  0  0  0  0  0  0
  131.9261   71.7892  226.8395 H   0  0  0  0  0  0  0  0  0  0  0  0
  133.0621   70.5742  225.0214 H   0  0  0  0  0  0  0  0  0  0  0  0
  134.8563   71.6060  223.6991 H   0  0  0  0  0  0  0  0  0  0  0  0
  136.7889   73.8551  224.4577 H   0  0  0  0  0  0  0  0  0  0  0  0
  135.7458   73.7597  222.9739 H   0  0  0  0  0  0  0  0  0  0  0  0
  139.3449   73.9444  221.9147 H   0  0  0  0  0  0  0  0  0  0  0  0
  139.1906   74.3451  220.1477 H   0  0  0  0  0  0  0  0  0  0  0  0
  1  2  1  0
  2  3  2  0
  2  4  2  0
  2  5  1  0
  5  6  2  0
  6  7  1  0
  7  8  2  0
  8  9  1  0
  9 10  2  0
  9 11  1  0
 11 12  1  0
 12 13  1  0
 13 14  1  0
 14 15  2  0
 15 16  1  0
 16 17  1  0
 17 18  1  0
 18 19  1  0
 19 20  2  0
 20 21  1  0
 21 22  2  0
 22 23  1  0
 23 24  2  0
 24 25  1  0
 25 26  2  0
 16 27  2  0
 27 28  1  0
 28 29  1  0
 29 30  1  0
 30 31  1  0
 31 32  1  0
 32 33  2  0
 33 34  1  0
 34 35  2  0
 35 36  1  0
 36 37  2  0
 37 38  1  0
 28 39  2  0
 13 40  1  0
 10  5  1  0
 39 14  1  0
 40  8  1  0
 26 21  1  0
 38 29  1  0
 37 32  1  0
  1 41  1  0
  1 42  1  0
  6 43  1  0
  7 44  1  0
 10 45  1  0
 11 46  1  0
 11 47  1  0
 12 48  1  0
 12 49  1  0
 17 50  1  0
 18 51  1  0
 18 52  1  0
 19 53  1  0
 20 54  1  0
 22 55  1  0
 23 56  1  0
 24 57  1  0
 25 58  1  0
 26 59  1  0
 30 60  1  0
 30 61  1  0
 31 62  1  0
 31 63  1  0
 33 64  1  0
 34 65  1  0
 35 66  1  0
 36 67  1  0
 38 68  1  0
 38 69  1  0
 40 70  1  0
 40 71  1  0
M  END
>  <smiles>  (8) 
NS(=O)(=O)c1ccc2c(c1)CCN(c1nc(NC/C=C/c3ccccc3)nc(N3CCc4ccccc4C3)n1)C2

>  <score_type>  (8) 
oracle

>  <origin>  (8) 
autodockgpu

>  <m_score__min__energy>  (8) 
-10.630000000000001

>  <m_primary>  (8) 
energy

>  <rmsd>  (8) 
10.69058101402686

>  <m_score__min__rmsd>  (8) 
10.69058101402686

>  <meeko>  (8) 
{"free_energy": -10.01, "intermolecular_energy": -12.69, "internal_energy": -1.96, "cluster_size": 42, "cluster_id": 2, "rank_in_cluster": 35}

>  <energy>  (8) 
-10.56

>  <cluster_rmsd>  (8) 
0.0

>  <cluster>  (8) 
2

$$$$

     RDKit          3D

 71 76  0  0  0  0  0  0  0  0999 V2000
  145.9730   73.4030  218.5510 N   0  0  0  0  0  0  0  0  0  0  0  0
  145.3730   72.5750  219.9610 S   0  0  0  0  0  0  0  0  0  0  0  0
  145.3770   71.1100  219.7060 O   0  0  0  0  0  0  0  0  0  0  0  0
  146.3330   72.8810  221.0780 O   0  0  0  0  0  0  0  0  0  0  0  0
  143.7660   73.1280  220.3170 C   0  0  0  0  0  0  0  0  0  0  0  0
  142.8300   72.2660  220.8750 C   0  0  0  0  0  0  0  0  0  0  0  0
  141.5380   72.7130  221.1610 C   0  0  0  0  0  0  0  0  0  0  0  0
  141.1380   74.0080  220.9080 C   0  0  0  0  0  0  0  0  0  0  0  0
  142.0970   74.8510  220.3490 C   0  0  0  0  0  0  0  0  0  0  0  0
  143.3770   74.4250  220.0610 C   0  0  0  0  0  0  0  0  0  0  0  0
  141.6490   76.2620  220.0780 C   0  0  0  0  0  0  0  0  0  0  0  0
  140.9740   76.6950  221.3790 C   0  0  0  0  0  0  0  0  0  0  0  0
  139.7760   75.9090  221.5690 N   0  0  0  0  0  0  0  0  0  0  0  0
  138.5780   76.4580  222.1090 C   0  0  0  0  0  0  0  0  0  0  0  0
  138.2500   77.7510  221.9360 N   0  0  0  0  0  0  0  0  0  0  0  0
  137.1420   78.3100  222.4200 C   0  0  0  0  0  0  0  0  0  0  0  0
  136.8310   79.6860  222.2150 N   0  0  0  0  0  0  0  0  0  0  0  0
  136.6050   80.5380  223.3520 C   0  0  0  0  0  0  0  0  0  0  0  0
  137.9370   80.7960  223.9890 C   0  0  0  0  0  0  0  0  0  0  0  0
  138.9690   81.2500  223.3020 C   0  0  0  0  0  0  0  0  0  0  0  0
  140.2610   80.5960  223.2370 C   0  0  0  0  0  0  0  0  0  0  0  0
  141.3180   81.1840  222.5380 C   0  0  0  0  0  0  0  0  0  0  0  0
  142.5610   80.5940  222.4530 C   0  0  0  0  0  0  0  0  0  0  0  0
  142.8180   79.3700  223.0700 C   0  0  0  0  0  0  0  0  0  0  0  0
  141.7780   78.7830  223.7610 C   0  0  0  0  0  0  0  0  0  0  0  0
  140.5420   79.3870  223.8360 C   0  0  0  0  0  0  0  0  0  0  0  0
  136.3080   77.5150  223.1260 N   0  0  0  0  0  0  0  0  0  0  0  0
  136.5780   76.2130  223.3340 C   0  0  0  0  0  0  0  0  0  0  0  0
  135.6660   75.4200  224.0840 N   0  0  0  0  0  0  0  0  0  0  0  0
  134.6680   76.0890  224.8900 C   0  0  0  0  0  0  0  0  0  0  0  0
  134.3960   75.2600  226.1500 C   0  0  0  0  0  0  0  0  0  0  0  0
  134.0100   73.9100  225.7160 C   0  0  0  0  0  0  0  0  0  0  0  0
  132.9610   73.2720  226.3720 C   0  0  0  0  0  0  0  0  0  0  0  0
  132.5890   72.0070  225.9740 C   0  0  0  0  0  0  0  0  0  0  0  0
  133.2690   71.4090  224.9370 C   0  0  0  0  0  0  0  0  0  0  0  0
  134.3000   72.0170  224.2830 C   0  0  0  0  0  0  0  0  0  0  0  0
  134.6700   73.2900  224.6860 C   0  0  0  0  0  0  0  0  0  0  0  0
  135.7850   73.9850  223.9990 C   0  0  0  0  0  0  0  0  0  0  0  0
  137.7140   75.7060  222.8190 N   0  0  0  0  0  0  0  0  0  0  0  0
  139.7820   74.5060  221.1990 C   0  0  0  0  0  0  0  0  0  0  0  0
  145.2560   74.1360  218.2850 H   0  0  0  0  0  0  0  0  0  0  0  0
  146.8010   73.9770  218.8890 H   0  0  0  0  0  0  0  0  0  0  0  0
  143.1084   71.2244  221.0930 H   0  0  0  0  0  0  0  0  0  0  0  0
  140.8166   72.0094  221.6021 H   0  0  0  0  0  0  0  0  0  0  0  0
  144.0972   75.1304  219.6209 H   0  0  0  0  0  0  0  0  0  0  0  0
  142.5097   76.9082  219.8508 H   0  0  0  0  0  0  0  0  0  0  0  0
  140.9770   76.3323  219.2100 H   0  0  0  0  0  0  0  0  0  0  0  0
  141.6603   76.5320  222.2231 H   0  0  0  0  0  0  0  0  0  0  0  0
  140.7148   77.7628  221.3270 H   0  0  0  0  0  0  0  0  0  0  0  0
  136.7780   80.0290  221.2260 H   0  0  0  0  0  0  0  0  0  0  0  0
  136.1532   81.4869  223.0272 H   0  0  0  0  0  0  0  0  0  0  0  0
  135.9185   80.0596  224.0661 H   0  0  0  0  0  0  0  0  0  0  0  0
  138.0588   80.6006  225.0646 H   0  0  0  0  0  0  0  0  0  0  0  0
  138.8397   82.1875  222.7413 H   0  0  0  0  0  0  0  0  0  0  0  0
  141.1529   82.1501  222.0387 H   0  0  0  0  0  0  0  0  0  0  0  0
  143.3619   81.0960  221.8903 H   0  0  0  0  0  0  0  0  0  0  0  0
  143.8073   78.8931  223.0084 H   0  0  0  0  0  0  0  0  0  0  0  0
  141.9384   77.8162  224.2606 H   0  0  0  0  0  0  0  0  0  0  0  0
  139.7436   78.8816  224.3992 H   0  0  0  0  0  0  0  0  0  0  0  0
  135.0353   77.0851  225.1777 H   0  0  0  0  0  0  0  0  0  0  0  0
  133.7385   76.1963  224.3116 H   0  0  0  0  0  0  0  0  0  0  0  0
  135.3034   75.2101  226.7698 H   0  0  0  0  0  0  0  0  0  0  0  0
  133.5954   75.7178  226.7495 H   0  0  0  0  0  0  0  0  0  0  0  0
  132.4353   73.7723  227.1986 H   0  0  0  0  0  0  0  0  0  0  0  0
  131.7624   71.4832  226.4763 H   0  0  0  0  0  0  0  0  0  0  0  0
  132.9683   70.3986  224.6227 H   0  0  0  0  0  0  0  0  0  0  0  0
  134.8233   71.5107  223.4585 H   0  0  0  0  0  0  0  0  0  0  0  0
  136.7336   73.6798  224.4648 H   0  0  0  0  0  0  0  0  0  0  0  0
  135.7537   73.7055  222.9356 H   0  0  0  0  0  0  0  0  0  0  0  0
  139.3609   73.9199  222.0291 H   0  0  0  0  0  0  0  0  0  0  0  0
  139.1812   74.3977  220.2840 H   0  0  0  0  0  0  0  0  0  0  0  0
  1  2  1  0
  2  3  2  0
  2  4  2  0
  2  5  1  0
  5  6  2  0
  6  7  1  0
  7  8  2  0
  8  9  1  0
  9 10  2  0
  9 11  1  0
 11 12  1  0
 12 13  1  0
 13 14  1  0
 14 15  2  0
 15 16  1  0
 16 17  1  0
 17 18  1  0
 18 19  1  0
 19 20  2  0
 20 21  1  0
 21 22  2  0
 22 23  1  0
 23 24  2  0
 24 25  1  0
 25 26  2  0
 16 27  2  0
 27 28  1  0
 28 29  1  0
 29 30  1  0
 30 31  1  0
 31 32  1  0
 32 33  2  0
 33 34  1  0
 34 35  2  0
 35 36  1  0
 36 37  2  0
 37 38  1  0
 28 39  2  0
 13 40  1  0
 10  5  1  0
 39 14  1  0
 40  8  1  0
 26 21  1  0
 38 29  1  0
 37 32  1  0
  1 41  1  0
  1 42  1  0
  6 43  1  0
  7 44  1  0
 10 45  1  0
 11 46  1  0
 11 47  1  0
 12 48  1  0
 12 49  1  0
 17 50  1  0
 18 51  1  0
 18 52  1  0
 19 53  1  0
 20 54  1  0
 22 55  1  0
 23 56  1  0
 24 57  1  0
 25 58  1  0
 26 59  1  0
 30 60  1  0
 30 61  1  0
 31 62  1  0
 31 63  1  0
 33 64  1  0
 34 65  1  0
 35 66  1  0
 36 67  1  0
 38 68  1  0
 38 69  1  0
 40 70  1  0
 40 71  1  0
M  END
>  <smiles>  (9) 
NS(=O)(=O)c1ccc2c(c1)CCN(c1nc(NC/C=C/c3ccccc3)nc(N3CCc4ccccc4C3)n1)C2

>  <score_type>  (9) 
oracle

>  <origin>  (9) 
autodockgpu

>  <m_score__min__energy>  (9) 
-10.630000000000001

>  <m_primary>  (9) 
energy

>  <rmsd>  (9) 
10.754726986028853

>  <m_score__min__rmsd>  (9) 
10.754726986028853

>  <meeko>  (9) 
{"free_energy": -10.07, "intermolecular_energy": -12.75, "internal_energy": -1.95, "cluster_size": 42, "cluster_id": 2, "rank_in_cluster": 27}

>  <energy>  (9) 
-10.52

>  <cluster_rmsd>  (9) 
0.3

>  <cluster>  (9) 
2

$$$$

     RDKit          3D

 71 76  0  0  0  0  0  0  0  0999 V2000
  145.9760   73.4060  218.5050 N   0  0  0  0  0  0  0  0  0  0  0  0
  145.4080   72.6750  219.9800 S   0  0  0  0  0  0  0  0  0  0  0  0
  145.4450   71.1950  219.8380 O   0  0  0  0  0  0  0  0  0  0  0  0
  146.3700   73.0890  221.0600 O   0  0  0  0  0  0  0  0  0  0  0  0
  143.7920   73.2160  220.3090 C   0  0  0  0  0  0  0  0  0  0  0  0
  142.8320   72.3290  220.7820 C   0  0  0  0  0  0  0  0  0  0  0  0
  141.5320   72.7670  221.0470 C   0  0  0  0  0  0  0  0  0  0  0  0
  141.1470   74.0760  220.8550 C   0  0  0  0  0  0  0  0  0  0  0  0
  142.1290   74.9450  220.3800 C   0  0  0  0  0  0  0  0  0  0  0  0
  143.4170   74.5280  220.1150 C   0  0  0  0  0  0  0  0  0  0  0  0
  141.6960   76.3720  220.1760 C   0  0  0  0  0  0  0  0  0  0  0  0
  140.9770   76.7320  221.4750 C   0  0  0  0  0  0  0  0  0  0  0  0
  139.7690   75.9440  221.5750 N   0  0  0  0  0  0  0  0  0  0  0  0
  138.5550   76.4680  222.1020 C   0  0  0  0  0  0  0  0  0  0  0  0
  138.2030   77.7540  221.9270 N   0  0  0  0  0  0  0  0  0  0  0  0
  137.0780   78.2900  222.4000 C   0  0  0  0  0  0  0  0  0  0  0  0
  136.7410   79.6600  222.1920 N   0  0  0  0  0  0  0  0  0  0  0  0
  136.5440   80.5200  223.3280 C   0  0  0  0  0  0  0  0  0  0  0  0
  137.8690   81.1390  223.6570 C   0  0  0  0  0  0  0  0  0  0  0  0
  138.8470   80.4500  224.2170 C   0  0  0  0  0  0  0  0  0  0  0  0
  140.1690   80.2900  223.6430 C   0  0  0  0  0  0  0  0  0  0  0  0
  140.6980   81.2710  222.8010 C   0  0  0  0  0  0  0  0  0  0  0  0
  141.9510   81.1560  222.2350 C   0  0  0  0  0  0  0  0  0  0  0  0
  142.7500   80.0410  222.4840 C   0  0  0  0  0  0  0  0  0  0  0  0
  142.2330   79.0680  223.3140 C   0  0  0  0  0  0  0  0  0  0  0  0
  140.9800   79.2000  223.8710 C   0  0  0  0  0  0  0  0  0  0  0  0
  136.2520   77.4770  223.0950 N   0  0  0  0  0  0  0  0  0  0  0  0
  136.5470   76.1810  223.3060 C   0  0  0  0  0  0  0  0  0  0  0  0
  135.6420   75.3690  224.0440 N   0  0  0  0  0  0  0  0  0  0  0  0
  135.7870   73.9310  223.9730 C   0  0  0  0  0  0  0  0  0  0  0  0
  134.4040   73.2780  224.0660 C   0  0  0  0  0  0  0  0  0  0  0  0
  133.7710   73.7570  225.3020 C   0  0  0  0  0  0  0  0  0  0  0  0
  133.0660   72.8480  226.0870 C   0  0  0  0  0  0  0  0  0  0  0  0
  132.4680   73.2840  227.2480 C   0  0  0  0  0  0  0  0  0  0  0  0
  132.5850   74.6100  227.5990 C   0  0  0  0  0  0  0  0  0  0  0  0
  133.2700   75.5150  226.8440 C   0  0  0  0  0  0  0  0  0  0  0  0
  133.8710   75.0720  225.6760 C   0  0  0  0  0  0  0  0  0  0  0  0
  134.6250   76.0260  224.8280 C   0  0  0  0  0  0  0  0  0  0  0  0
  137.6980   75.6980  222.8020 N   0  0  0  0  0  0  0  0  0  0  0  0
  139.7830   74.5650  221.1250 C   0  0  0  0  0  0  0  0  0  0  0  0
  145.2610   74.1330  218.2150 H   0  0  0  0  0  0  0  0  0  0  0  0
  146.8220   73.9860  218.7810 H   0  0  0  0  0  0  0  0  0  0  0  0
  143.0977   71.2747  220.9489 H   0  0  0  0  0  0  0  0  0  0  0  0
  140.7923   72.0438  221.4208 H   0  0  0  0  0  0  0  0  0  0  0  0
  144.1557   75.2534  219.7433 H   0  0  0  0  0  0  0  0  0  0  0  0
  142.5665   77.0254  220.0174 H   0  0  0  0  0  0  0  0  0  0  0  0
  141.0557   76.4966  219.2903 H   0  0  0  0  0  0  0  0  0  0  0  0
  141.6316   76.5148  222.3319 H   0  0  0  0  0  0  0  0  0  0  0  0
  140.7250   77.8027  221.4773 H   0  0  0  0  0  0  0  0  0  0  0  0
  136.6490   79.9920  221.2030 H   0  0  0  0  0  0  0  0  0  0  0  0
  135.8129   81.3046  223.0833 H   0  0  0  0  0  0  0  0  0  0  0  0
  136.1587   79.9486  224.1854 H   0  0  0  0  0  0  0  0  0  0  0  0
  138.0322   82.2017  223.4245 H   0  0  0  0  0  0  0  0  0  0  0  0
  138.6451   79.9651  225.1835 H   0  0  0  0  0  0  0  0  0  0  0  0
  140.0956   82.1649  222.5819 H   0  0  0  0  0  0  0  0  0  0  0  0
  142.3248   81.9552  221.5781 H   0  0  0  0  0  0  0  0  0  0  0  0
  143.7504   79.9413  222.0375 H   0  0  0  0  0  0  0  0  0  0  0  0
  142.8313   78.1717  223.5348 H   0  0  0  0  0  0  0  0  0  0  0  0
  140.6102   78.3987  224.5276 H   0  0  0  0  0  0  0  0  0  0  0  0
  136.2599   73.6559  223.0187 H   0  0  0  0  0  0  0  0  0  0  0  0
  136.4161   73.5823  224.8052 H   0  0  0  0  0  0  0  0  0  0  0  0
  133.7943   73.5646  223.1965 H   0  0  0  0  0  0  0  0  0  0  0  0
  134.4934   72.1817  224.0766 H   0  0  0  0  0  0  0  0  0  0  0  0
  132.9878   71.7938  225.7829 H   0  0  0  0  0  0  0  0  0  0  0  0
  131.9062   72.5845  227.8845 H   0  0  0  0  0  0  0  0  0  0  0  0
  132.1057   74.9536  228.5275 H   0  0  0  0  0  0  0  0  0  0  0  0
  133.3438   76.5681  227.1531 H   0  0  0  0  0  0  0  0  0  0  0  0
  133.9216   76.5280  224.1474 H   0  0  0  0  0  0  0  0  0  0  0  0
  135.1229   76.7484  225.4915 H   0  0  0  0  0  0  0  0  0  0  0  0
  139.3294   73.9346  221.9040 H   0  0  0  0  0  0  0  0  0  0  0  0
  139.2158   74.5135  220.1839 H   0  0  0  0  0  0  0  0  0  0  0  0
  1  2  1  0
  2  3  2  0
  2  4  2  0
  2  5  1  0
  5  6  2  0
  6  7  1  0
  7  8  2  0
  8  9  1  0
  9 10  2  0
  9 11  1  0
 11 12  1  0
 12 13  1  0
 13 14  1  0
 14 15  2  0
 15 16  1  0
 16 17  1  0
 17 18  1  0
 18 19  1  0
 19 20  2  0
 20 21  1  0
 21 22  2  0
 22 23  1  0
 23 24  2  0
 24 25  1  0
 25 26  2  0
 16 27  2  0
 27 28  1  0
 28 29  1  0
 29 30  1  0
 30 31  1  0
 31 32  1  0
 32 33  2  0
 33 34  1  0
 34 35  2  0
 35 36  1  0
 36 37  2  0
 37 38  1  0
 28 39  2  0
 13 40  1  0
 10  5  1  0
 39 14  1  0
 40  8  1  0
 26 21  1  0
 38 29  1  0
 37 32  1  0
  1 41  1  0
  1 42  1  0
  6 43  1  0
  7 44  1  0
 10 45  1  0
 11 46  1  0
 11 47  1  0
 12 48  1  0
 12 49  1  0
 17 50  1  0
 18 51  1  0
 18 52  1  0
 19 53  1  0
 20 54  1  0
 22 55  1  0
 23 56  1  0
 24 57  1  0
 25 58  1  0
 26 59  1  0
 30 60  1  0
 30 61  1  0
 31 62  1  0
 31 63  1  0
 33 64  1  0
 34 65  1  0
 35 66  1  0
 36 67  1  0
 38 68  1  0
 38 69  1  0
 40 70  1  0
 40 71  1  0
M  END
>  <smiles>  (10) 
NS(=O)(=O)c1ccc2c(c1)CCN(c1nc(NC/C=C/c3ccccc3)nc(N3CCc4ccccc4C3)n1)C2

>  <score_type>  (10) 
oracle

>  <origin>  (10) 
autodockgpu

>  <m_score__min__energy>  (10) 
-10.630000000000001

>  <m_primary>  (10) 
energy

>  <rmsd>  (10) 
10.532537230997653

>  <m_score__min__rmsd>  (10) 
10.532537230997653

>  <meeko>  (10) 
{"free_energy": -10.45, "intermolecular_energy": -13.13, "internal_energy": -1.91, "cluster_size": 42, "cluster_id": 2, "rank_in_cluster": 10}

>  <energy>  (10) 
-10.5

>  <cluster_rmsd>  (10) 
0.31

>  <cluster>  (10) 
2

$$$$

     RDKit          3D

 71 76  0  0  0  0  0  0  0  0999 V2000
  146.0950   73.4190  218.5540 N   0  0  0  0  0  0  0  0  0  0  0  0
  145.4860   72.6230  219.9780 S   0  0  0  0  0  0  0  0  0  0  0  0
  145.5160   71.1500  219.7660 O   0  0  0  0  0  0  0  0  0  0  0  0
  146.4240   72.9760  221.1000 O   0  0  0  0  0  0  0  0  0  0  0  0
  143.8660   73.1600  220.2940 C   0  0  0  0  0  0  0  0  0  0  0  0
  142.9120   72.2780  220.7880 C   0  0  0  0  0  0  0  0  0  0  0  0
  141.6090   72.7140  221.0420 C   0  0  0  0  0  0  0  0  0  0  0  0
  141.2160   74.0160  220.8180 C   0  0  0  0  0  0  0  0  0  0  0  0
  142.1920   74.8790  220.3220 C   0  0  0  0  0  0  0  0  0  0  0  0
  143.4830   74.4650  220.0680 C   0  0  0  0  0  0  0  0  0  0  0  0
  141.7500   76.2980  220.0830 C   0  0  0  0  0  0  0  0  0  0  0  0
  141.0270   76.6850  221.3730 C   0  0  0  0  0  0  0  0  0  0  0  0
  139.8250   75.8920  221.4920 N   0  0  0  0  0  0  0  0  0  0  0  0
  138.6070   76.4200  222.0050 C   0  0  0  0  0  0  0  0  0  0  0  0
  138.2500   77.7010  221.8060 N   0  0  0  0  0  0  0  0  0  0  0  0
  137.1220   78.2410  222.2650 C   0  0  0  0  0  0  0  0  0  0  0  0
  136.7800   79.6060  222.0310 N   0  0  0  0  0  0  0  0  0  0  0  0
  136.6520   80.5040  223.1470 C   0  0  0  0  0  0  0  0  0  0  0  0
  137.8950   80.3700  223.9730 C   0  0  0  0  0  0  0  0  0  0  0  0
  138.9750   81.0940  223.7420 C   0  0  0  0  0  0  0  0  0  0  0  0
  140.2910   80.5420  223.4840 C   0  0  0  0  0  0  0  0  0  0  0  0
  140.5910   79.2290  223.8520 C   0  0  0  0  0  0  0  0  0  0  0  0
  141.8300   78.6660  223.6240 C   0  0  0  0  0  0  0  0  0  0  0  0
  142.8460   79.3960  223.0090 C   0  0  0  0  0  0  0  0  0  0  0  0
  142.5560   80.6950  222.6430 C   0  0  0  0  0  0  0  0  0  0  0  0
  141.3130   81.2400  222.8780 C   0  0  0  0  0  0  0  0  0  0  0  0
  136.2970   77.4380  222.9730 N   0  0  0  0  0  0  0  0  0  0  0  0
  136.5960   76.1470  223.2080 C   0  0  0  0  0  0  0  0  0  0  0  0
  135.6930   75.3450  223.9590 N   0  0  0  0  0  0  0  0  0  0  0  0
  135.8170   73.9050  223.8810 C   0  0  0  0  0  0  0  0  0  0  0  0
  134.4260   73.2710  223.9950 C   0  0  0  0  0  0  0  0  0  0  0  0
  133.8210   73.7550  225.2430 C   0  0  0  0  0  0  0  0  0  0  0  0
  133.1170   72.8530  226.0370 C   0  0  0  0  0  0  0  0  0  0  0  0
  132.5450   73.2930  227.2100 C   0  0  0  0  0  0  0  0  0  0  0  0
  132.6860   74.6160  227.5630 C   0  0  0  0  0  0  0  0  0  0  0  0
  133.3710   75.5150  226.7990 C   0  0  0  0  0  0  0  0  0  0  0  0
  133.9450   75.0670  225.6200 C   0  0  0  0  0  0  0  0  0  0  0  0
  134.6980   76.0130  224.7620 C   0  0  0  0  0  0  0  0  0  0  0  0
  137.7510   75.6590  222.7180 N   0  0  0  0  0  0  0  0  0  0  0  0
  139.8490   74.5020  221.0760 C   0  0  0  0  0  0  0  0  0  0  0  0
  145.3700   74.1290  218.2530 H   0  0  0  0  0  0  0  0  0  0  0  0
  146.9060   74.0180  218.8880 H   0  0  0  0  0  0  0  0  0  0  0  0
  143.1846   71.2298  220.9802 H   0  0  0  0  0  0  0  0  0  0  0  0
  140.8736   71.9955  221.4331 H   0  0  0  0  0  0  0  0  0  0  0  0
  144.2173   75.1861  219.6797 H   0  0  0  0  0  0  0  0  0  0  0  0
  142.6165   76.9530  219.9093 H   0  0  0  0  0  0  0  0  0  0  0  0
  141.1098   76.3969  219.1940 H   0  0  0  0  0  0  0  0  0  0  0  0
  141.6825   76.4935  222.2353 H   0  0  0  0  0  0  0  0  0  0  0  0
  140.7675   77.7537  221.3485 H   0  0  0  0  0  0  0  0  0  0  0  0
  136.6330   79.9050  221.0380 H   0  0  0  0  0  0  0  0  0  0  0  0
  136.5488   81.5385  222.7876 H   0  0  0  0  0  0  0  0  0  0  0  0
  135.7606   80.2591  223.7431 H   0  0  0  0  0  0  0  0  0  0  0  0
  137.9083   79.6442  224.7995 H   0  0  0  0  0  0  0  0  0  0  0  0
  138.8694   82.1889  223.7455 H   0  0  0  0  0  0  0  0  0  0  0  0
  139.8135   78.6230  224.3401 H   0  0  0  0  0  0  0  0  0  0  0  0
  142.0186   77.6269  223.9317 H   0  0  0  0  0  0  0  0  0  0  0  0
  143.8367   78.9556  222.8233 H   0  0  0  0  0  0  0  0  0  0  0  0
  143.3306   81.3052  222.1555 H   0  0  0  0  0  0  0  0  0  0  0  0
  141.1279   82.2791  222.5680 H   0  0  0  0  0  0  0  0  0  0  0  0
  136.2701   73.6266  222.9181 H   0  0  0  0  0  0  0  0  0  0  0  0
  136.4551   73.5446  224.7013 H   0  0  0  0  0  0  0  0  0  0  0  0
  133.8059   73.5691  223.1367 H   0  0  0  0  0  0  0  0  0  0  0  0
  134.4998   72.1735  224.0004 H   0  0  0  0  0  0  0  0  0  0  0  0
  133.0190   71.8011  225.7307 H   0  0  0  0  0  0  0  0  0  0  0  0
  131.9849   72.5990  227.8539 H   0  0  0  0  0  0  0  0  0  0  0  0
  132.2271   74.9629  228.5006 H   0  0  0  0  0  0  0  0  0  0  0  0
  133.4650   76.5659  227.1101 H   0  0  0  0  0  0  0  0  0  0  0  0
  133.9903   76.5266  224.0946 H   0  0  0  0  0  0  0  0  0  0  0  0
  135.2169   76.7262  225.4193 H   0  0  0  0  0  0  0  0  0  0  0  0
  139.3998   73.8878  221.8704 H   0  0  0  0  0  0  0  0  0  0  0  0
  139.2824   74.4234  220.1364 H   0  0  0  0  0  0  0  0  0  0  0  0
  1  2  1  0
  2  3  2  0
  2  4  2  0
  2  5  1  0
  5  6  2  0
  6  7  1  0
  7  8  2  0
  8  9  1  0
  9 10  2  0
  9 11  1  0
 11 12  1  0
 12 13  1  0
 13 14  1  0
 14 15  2  0
 15 16  1  0
 16 17  1  0
 17 18  1  0
 18 19  1  0
 19 20  2  0
 20 21  1  0
 21 22  2  0
 22 23  1  0
 23 24  2  0
 24 25  1  0
 25 26  2  0
 16 27  2  0
 27 28  1  0
 28 29  1  0
 29 30  1  0
 30 31  1  0
 31 32  1  0
 32 33  2  0
 33 34  1  0
 34 35  2  0
 35 36  1  0
 36 37  2  0
 37 38  1  0
 28 39  2  0
 13 40  1  0
 10  5  1  0
 39 14  1  0
 40  8  1  0
 26 21  1  0
 38 29  1  0
 37 32  1  0
  1 41  1  0
  1 42  1  0
  6 43  1  0
  7 44  1  0
 10 45  1  0
 11 46  1  0
 11 47  1  0
 12 48  1  0
 12 49  1  0
 17 50  1  0
 18 51  1  0
 18 52  1  0
 19 53  1  0
 20 54  1  0
 22 55  1  0
 23 56  1  0
 24 57  1  0
 25 58  1  0
 26 59  1  0
 30 60  1  0
 30 61  1  0
 31 62  1  0
 31 63  1  0
 33 64  1  0
 34 65  1  0
 35 66  1  0
 36 67  1  0
 38 68  1  0
 38 69  1  0
 40 70  1  0
 40 71  1  0
M  END
>  <smiles>  (11) 
NS(=O)(=O)c1ccc2c(c1)CCN(c1nc(NC/C=C/c3ccccc3)nc(N3CCc4ccccc4C3)n1)C2

>  <score_type>  (11) 
oracle

>  <origin>  (11) 
autodockgpu

>  <m_score__min__energy>  (11) 
-10.630000000000001

>  <m_primary>  (11) 
energy

>  <rmsd>  (11) 
10.460687582018592

>  <m_score__min__rmsd>  (11) 
10.460687582018592

>  <meeko>  (11) 
{"free_energy": -10.49, "intermolecular_energy": -13.17, "internal_energy": -1.9, "cluster_size": 42, "cluster_id": 2, "rank_in_cluster": 4}

>  <energy>  (11) 
-10.49

>  <cluster_rmsd>  (11) 
0.17

>  <cluster>  (11) 
2

$$$$

     RDKit          3D

 71 76  0  0  0  0  0  0  0  0999 V2000
  146.0430   73.4310  218.4720 N   0  0  0  0  0  0  0  0  0  0  0  0
  145.5370   72.8220  220.0230 S   0  0  0  0  0  0  0  0  0  0  0  0
  145.6250   71.3370  220.0180 O   0  0  0  0  0  0  0  0  0  0  0  0
  146.5070   73.3680  221.0340 O   0  0  0  0  0  0  0  0  0  0  0  0
  143.9100   73.3340  220.3430 C   0  0  0  0  0  0  0  0  0  0  0  0
  142.9730   72.4400  220.8480 C   0  0  0  0  0  0  0  0  0  0  0  0
  141.6640   72.8550  221.1050 C   0  0  0  0  0  0  0  0  0  0  0  0
  141.2480   74.1490  220.8750 C   0  0  0  0  0  0  0  0  0  0  0  0
  142.2070   75.0250  220.3690 C   0  0  0  0  0  0  0  0  0  0  0  0
  143.5030   74.6310  220.1100 C   0  0  0  0  0  0  0  0  0  0  0  0
  141.7400   76.4340  220.1220 C   0  0  0  0  0  0  0  0  0  0  0  0
  141.0170   76.8180  221.4130 C   0  0  0  0  0  0  0  0  0  0  0  0
  139.8290   76.0060  221.5440 N   0  0  0  0  0  0  0  0  0  0  0  0
  138.6050   76.5170  222.0600 C   0  0  0  0  0  0  0  0  0  0  0  0
  138.2360   77.7970  221.8730 N   0  0  0  0  0  0  0  0  0  0  0  0
  137.1020   78.3210  222.3350 C   0  0  0  0  0  0  0  0  0  0  0  0
  136.7480   79.6850  222.1140 N   0  0  0  0  0  0  0  0  0  0  0  0
  136.5740   80.5620  223.2410 C   0  0  0  0  0  0  0  0  0  0  0  0
  137.8940   80.6510  223.9460 C   0  0  0  0  0  0  0  0  0  0  0  0
  138.9530   81.2110  223.3890 C   0  0  0  0  0  0  0  0  0  0  0  0
  140.2590   80.5880  223.3060 C   0  0  0  0  0  0  0  0  0  0  0  0
  141.2970   81.2120  222.6100 C   0  0  0  0  0  0  0  0  0  0  0  0
  142.5540   80.6530  222.5080 C   0  0  0  0  0  0  0  0  0  0  0  0
  142.8430   79.4260  223.1020 C   0  0  0  0  0  0  0  0  0  0  0  0
  141.8220   78.8030  223.7910 C   0  0  0  0  0  0  0  0  0  0  0  0
  140.5720   79.3770  223.8830 C   0  0  0  0  0  0  0  0  0  0  0  0
  136.2840   77.5030  223.0330 N   0  0  0  0  0  0  0  0  0  0  0  0
  136.5950   76.2130  223.2550 C   0  0  0  0  0  0  0  0  0  0  0  0
  135.6980   75.3940  223.9960 N   0  0  0  0  0  0  0  0  0  0  0  0
  135.8290   73.9560  223.8960 C   0  0  0  0  0  0  0  0  0  0  0  0
  134.4430   73.3130  224.0030 C   0  0  0  0  0  0  0  0  0  0  0  0
  133.8370   73.7740  225.2590 C   0  0  0  0  0  0  0  0  0  0  0  0
  133.1400   72.8560  226.0400 C   0  0  0  0  0  0  0  0  0  0  0  0
  132.5680   73.2760  227.2210 C   0  0  0  0  0  0  0  0  0  0  0  0
  132.7020   74.5940  227.5940 C   0  0  0  0  0  0  0  0  0  0  0  0
  133.3800   75.5080  226.8420 C   0  0  0  0  0  0  0  0  0  0  0  0
  133.9550   75.0820  225.6550 C   0  0  0  0  0  0  0  0  0  0  0  0
  134.7010   76.0440  224.8110 C   0  0  0  0  0  0  0  0  0  0  0  0
  137.7550   75.7410  222.7620 N   0  0  0  0  0  0  0  0  0  0  0  0
  139.8740   74.6140  221.1360 C   0  0  0  0  0  0  0  0  0  0  0  0
  145.3220   74.1410  218.1590 H   0  0  0  0  0  0  0  0  0  0  0  0
  146.9050   74.0200  218.6640 H   0  0  0  0  0  0  0  0  0  0  0  0
  143.2644   71.3981  221.0468 H   0  0  0  0  0  0  0  0  0  0  0  0
  140.9426   72.1264  221.5034 H   0  0  0  0  0  0  0  0  0  0  0  0
  144.2224   75.3617  219.7119 H   0  0  0  0  0  0  0  0  0  0  0  0
  142.5944   77.1023  219.9391 H   0  0  0  0  0  0  0  0  0  0  0  0
  141.0938   76.5157  219.2355 H   0  0  0  0  0  0  0  0  0  0  0  0
  141.6800   76.6437  222.2733 H   0  0  0  0  0  0  0  0  0  0  0  0
  140.7394   77.8819  221.3821 H   0  0  0  0  0  0  0  0  0  0  0  0
  136.6260   79.9990  221.1230 H   0  0  0  0  0  0  0  0  0  0  0  0
  136.2632   81.5595  222.8970 H   0  0  0  0  0  0  0  0  0  0  0  0
  135.7969   80.1766  223.9175 H   0  0  0  0  0  0  0  0  0  0  0  0
  137.9838   80.2362  224.9608 H   0  0  0  0  0  0  0  0  0  0  0  0
  138.8358   82.2170  222.9597 H   0  0  0  0  0  0  0  0  0  0  0  0
  141.1056   82.1816  222.1271 H   0  0  0  0  0  0  0  0  0  0  0  0
  143.3395   81.1834  221.9497 H   0  0  0  0  0  0  0  0  0  0  0  0
  143.8425   78.9731  223.0251 H   0  0  0  0  0  0  0  0  0  0  0  0
  142.0088   77.8328  224.2745 H   0  0  0  0  0  0  0  0  0  0  0  0
  139.7892   78.8439  224.4424 H   0  0  0  0  0  0  0  0  0  0  0  0
  136.2816   73.6947  222.9281 H   0  0  0  0  0  0  0  0  0  0  0  0
  136.4704   73.5868  224.7098 H   0  0  0  0  0  0  0  0  0  0  0  0
  133.8197   73.6206  223.1504 H   0  0  0  0  0  0  0  0  0  0  0  0
  134.5234   72.2160  223.9920 H   0  0  0  0  0  0  0  0  0  0  0  0
  133.0471   71.8083  225.7181 H   0  0  0  0  0  0  0  0  0  0  0  0
  132.0131   72.5693  227.8556 H   0  0  0  0  0  0  0  0  0  0  0  0
  132.2433   74.9240  228.5377 H   0  0  0  0  0  0  0  0  0  0  0  0
  133.4680   76.5547  227.1687 H   0  0  0  0  0  0  0  0  0  0  0  0
  133.9894   76.5641  224.1529 H   0  0  0  0  0  0  0  0  0  0  0  0
  135.2176   76.7494  225.4785 H   0  0  0  0  0  0  0  0  0  0  0  0
  139.4383   73.9972  221.9358 H   0  0  0  0  0  0  0  0  0  0  0  0
  139.3048   74.5205  220.1994 H   0  0  0  0  0  0  0  0  0  0  0  0
  1  2  1  0
  2  3  2  0
  2  4  2  0
  2  5  1  0
  5  6  2  0
  6  7  1  0
  7  8  2  0
  8  9  1  0
  9 10  2  0
  9 11  1  0
 11 12  1  0
 12 13  1  0
 13 14  1  0
 14 15  2  0
 15 16  1  0
 16 17  1  0
 17 18  1  0
 18 19  1  0
 19 20  2  0
 20 21  1  0
 21 22  2  0
 22 23  1  0
 23 24  2  0
 24 25  1  0
 25 26  2  0
 16 27  2  0
 27 28  1  0
 28 29  1  0
 29 30  1  0
 30 31  1  0
 31 32  1  0
 32 33  2  0
 33 34  1  0
 34 35  2  0
 35 36  1  0
 36 37  2  0
 37 38  1  0
 28 39  2  0
 13 40  1  0
 10  5  1  0
 39 14  1  0
 40  8  1  0
 26 21  1  0
 38 29  1  0
 37 32  1  0
  1 41  1  0
  1 42  1  0
  6 43  1  0
  7 44  1  0
 10 45  1  0
 11 46  1  0
 11 47  1  0
 12 48  1  0
 12 49  1  0
 17 50  1  0
 18 51  1  0
 18 52  1  0
 19 53  1  0
 20 54  1  0
 22 55  1  0
 23 56  1  0
 24 57  1  0
 25 58  1  0
 26 59  1  0
 30 60  1  0
 30 61  1  0
 31 62  1  0
 31 63  1  0
 33 64  1  0
 34 65  1  0
 35 66  1  0
 36 67  1  0
 38 68  1  0
 38 69  1  0
 40 70  1  0
 40 71  1  0
M  END
>  <smiles>  (12) 
NS(=O)(=O)c1ccc2c(c1)CCN(c1nc(NC/C=C/c3ccccc3)nc(N3CCc4ccccc4C3)n1)C2

>  <score_type>  (12) 
oracle

>  <origin>  (12) 
autodockgpu

>  <m_score__min__energy>  (12) 
-10.630000000000001

>  <m_primary>  (12) 
energy

>  <rmsd>  (12) 
10.460747556765748

>  <m_score__min__rmsd>  (12) 
10.460747556765748

>  <meeko>  (12) 
{"free_energy": -10.46, "intermolecular_energy": -13.14, "internal_energy": -1.97, "cluster_size": 42, "cluster_id": 2, "rank_in_cluster": 9}

>  <energy>  (12) 
-10.48

>  <cluster_rmsd>  (12) 
0.27

>  <cluster>  (12) 
2

$$$$

     RDKit          3D

 71 76  0  0  0  0  0  0  0  0999 V2000
  146.0750   73.4180  218.6780 N   0  0  0  0  0  0  0  0  0  0  0  0
  145.4120   72.6450  220.0910 S   0  0  0  0  0  0  0  0  0  0  0  0
  145.4060   71.1710  219.8840 O   0  0  0  0  0  0  0  0  0  0  0  0
  146.3360   72.9750  221.2320 O   0  0  0  0  0  0  0  0  0  0  0  0
  143.8020   73.2290  220.3700 C   0  0  0  0  0  0  0  0  0  0  0  0
  142.8190   72.3810  220.8660 C   0  0  0  0  0  0  0  0  0  0  0  0
  141.5230   72.8540  221.0900 C   0  0  0  0  0  0  0  0  0  0  0  0
  141.1660   74.1600  220.8330 C   0  0  0  0  0  0  0  0  0  0  0  0
  142.1710   74.9880  220.3360 C   0  0  0  0  0  0  0  0  0  0  0  0
  143.4550   74.5380  220.1110 C   0  0  0  0  0  0  0  0  0  0  0  0
  141.7680   76.4120  220.0610 C   0  0  0  0  0  0  0  0  0  0  0  0
  141.0360   76.8440  221.3310 C   0  0  0  0  0  0  0  0  0  0  0  0
  139.8120   76.0840  221.4470 N   0  0  0  0  0  0  0  0  0  0  0  0
  138.6000   76.6520  221.9300 C   0  0  0  0  0  0  0  0  0  0  0  0
  138.2580   77.9250  221.6610 N   0  0  0  0  0  0  0  0  0  0  0  0
  137.1360   78.5010  222.0900 C   0  0  0  0  0  0  0  0  0  0  0  0
  136.8100   79.8550  221.7830 N   0  0  0  0  0  0  0  0  0  0  0  0
  137.7080   80.9060  222.1780 C   0  0  0  0  0  0  0  0  0  0  0  0
  137.8590   80.8300  223.6680 C   0  0  0  0  0  0  0  0  0  0  0  0
  138.8310   80.1450  224.2420 C   0  0  0  0  0  0  0  0  0  0  0  0
  140.2000   80.1100  223.7640 C   0  0  0  0  0  0  0  0  0  0  0  0
  140.7680   81.2350  223.1610 C   0  0  0  0  0  0  0  0  0  0  0  0
  142.0650   81.2420  222.6940 C   0  0  0  0  0  0  0  0  0  0  0  0
  142.8740   80.1120  222.8060 C   0  0  0  0  0  0  0  0  0  0  0  0
  142.3190   78.9970  223.4010 C   0  0  0  0  0  0  0  0  0  0  0  0
  141.0210   79.0080  223.8620 C   0  0  0  0  0  0  0  0  0  0  0  0
  136.3020   77.7470  222.8390 N   0  0  0  0  0  0  0  0  0  0  0  0
  136.5860   76.4670  223.1430 C   0  0  0  0  0  0  0  0  0  0  0  0
  135.6730   75.7170  223.9350 N   0  0  0  0  0  0  0  0  0  0  0  0
  135.7860   74.2740  223.9400 C   0  0  0  0  0  0  0  0  0  0  0  0
  134.3900   73.6580  224.0840 C   0  0  0  0  0  0  0  0  0  0  0  0
  133.7830   74.2180  225.3000 C   0  0  0  0  0  0  0  0  0  0  0  0
  133.0690   73.3680  226.1400 C   0  0  0  0  0  0  0  0  0  0  0  0
  132.4950   73.8800  227.2840 C   0  0  0  0  0  0  0  0  0  0  0  0
  132.6450   75.2200  227.5610 C   0  0  0  0  0  0  0  0  0  0  0  0
  133.3400   76.0680  226.7490 C   0  0  0  0  0  0  0  0  0  0  0  0
  133.9160   75.5490  225.6010 C   0  0  0  0  0  0  0  0  0  0  0  0
  134.6810   76.4370  224.6930 C   0  0  0  0  0  0  0  0  0  0  0  0
  137.7350   75.9410  222.6810 N   0  0  0  0  0  0  0  0  0  0  0  0
  139.8080   74.6850  221.0590 C   0  0  0  0  0  0  0  0  0  0  0  0
  145.3590   74.1210  218.3360 H   0  0  0  0  0  0  0  0  0  0  0  0
  146.8700   74.0270  219.0330 H   0  0  0  0  0  0  0  0  0  0  0  0
  143.0625   71.3306  221.0837 H   0  0  0  0  0  0  0  0  0  0  0  0
  140.7640   72.1620  221.4838 H   0  0  0  0  0  0  0  0  0  0  0  0
  144.2126   75.2328  219.7196 H   0  0  0  0  0  0  0  0  0  0  0  0
  142.6530   77.0417  219.8870 H   0  0  0  0  0  0  0  0  0  0  0  0
  141.1436   76.5077  219.1605 H   0  0  0  0  0  0  0  0  0  0  0  0
  141.6732   76.6540  222.2073 H   0  0  0  0  0  0  0  0  0  0  0  0
  140.8045   77.9182  221.2808 H   0  0  0  0  0  0  0  0  0  0  0  0
  135.9120   80.0340  221.2720 H   0  0  0  0  0  0  0  0  0  0  0  0
  138.6857   80.7672  221.6934 H   0  0  0  0  0  0  0  0  0  0  0  0
  137.3134   81.8877  221.8770 H   0  0  0  0  0  0  0  0  0  0  0  0
  137.1362   81.3624  224.3037 H   0  0  0  0  0  0  0  0  0  0  0  0
  138.5863   79.5623  225.1423 H   0  0  0  0  0  0  0  0  0  0  0  0
  140.1600   82.1456  223.0553 H   0  0  0  0  0  0  0  0  0  0  0  0
  142.4676   82.1525  222.2261 H   0  0  0  0  0  0  0  0  0  0  0  0
  143.9099   80.1092  222.4361 H   0  0  0  0  0  0  0  0  0  0  0  0
  142.9234   78.0843  223.5089 H   0  0  0  0  0  0  0  0  0  0  0  0
  140.6220   78.0957  224.3295 H   0  0  0  0  0  0  0  0  0  0  0  0
  136.2407   73.9376  222.9966 H   0  0  0  0  0  0  0  0  0  0  0  0
  136.4180   73.9564  224.7825 H   0  0  0  0  0  0  0  0  0  0  0  0
  133.7758   73.9106  223.2071 H   0  0  0  0  0  0  0  0  0  0  0  0
  134.4554   72.5621  224.1531 H   0  0  0  0  0  0  0  0  0  0  0  0
  132.9641   72.3010  225.8939 H   0  0  0  0  0  0  0  0  0  0  0  0
  131.9266   73.2286  227.9641 H   0  0  0  0  0  0  0  0  0  0  0  0
  132.1854   75.6239  228.4751 H   0  0  0  0  0  0  0  0  0  0  0  0
  133.4402   77.1345  226.9990 H   0  0  0  0  0  0  0  0  0  0  0  0
  133.9804   76.9168  223.9937 H   0  0  0  0  0  0  0  0  0  0  0  0
  135.2036   77.1821  225.3109 H   0  0  0  0  0  0  0  0  0  0  0  0
  139.3311   74.0983  221.8580 H   0  0  0  0  0  0  0  0  0  0  0  0
  139.2547   74.6016  220.1120 H   0  0  0  0  0  0  0  0  0  0  0  0
  1  2  1  0
  2  3  2  0
  2  4  2  0
  2  5  1  0
  5  6  2  0
  6  7  1  0
  7  8  2  0
  8  9  1  0
  9 10  2  0
  9 11  1  0
 11 12  1  0
 12 13  1  0
 13 14  1  0
 14 15  2  0
 15 16  1  0
 16 17  1  0
 17 18  1  0
 18 19  1  0
 19 20  2  0
 20 21  1  0
 21 22  2  0
 22 23  1  0
 23 24  2  0
 24 25  1  0
 25 26  2  0
 16 27  2  0
 27 28  1  0
 28 29  1  0
 29 30  1  0
 30 31  1  0
 31 32  1  0
 32 33  2  0
 33 34  1  0
 34 35  2  0
 35 36  1  0
 36 37  2  0
 37 38  1  0
 28 39  2  0
 13 40  1  0
 10  5  1  0
 39 14  1  0
 40  8  1  0
 26 21  1  0
 38 29  1  0
 37 32  1  0
  1 41  1  0
  1 42  1  0
  6 43  1  0
  7 44  1  0
 10 45  1  0
 11 46  1  0
 11 47  1  0
 12 48  1  0
 12 49  1  0
 17 50  1  0
 18 51  1  0
 18 52  1  0
 19 53  1  0
 20 54  1  0
 22 55  1  0
 23 56  1  0
 24 57  1  0
 25 58  1  0
 26 59  1  0
 30 60  1  0
 30 61  1  0
 31 62  1  0
 31 63  1  0
 33 64  1  0
 34 65  1  0
 35 66  1  0
 36 67  1  0
 38 68  1  0
 38 69  1  0
 40 70  1  0
 40 71  1  0
M  END
>  <smiles>  (13) 
NS(=O)(=O)c1ccc2c(c1)CCN(c1nc(NC/C=C/c3ccccc3)nc(N3CCc4ccccc4C3)n1)C2

>  <score_type>  (13) 
oracle

>  <origin>  (13) 
autodockgpu

>  <m_score__min__energy>  (13) 
-10.630000000000001

>  <m_primary>  (13) 
energy

>  <rmsd>  (13) 
10.323773696478472

>  <m_score__min__rmsd>  (13) 
10.323773696478472

>  <meeko>  (13) 
{"free_energy": -10.32, "intermolecular_energy": -13.0, "internal_energy": -1.96, "cluster_size": 42, "cluster_id": 2, "rank_in_cluster": 17}

>  <energy>  (13) 
-10.48

>  <cluster_rmsd>  (13) 
0.12

>  <cluster>  (13) 
2

$$$$

     RDKit          3D

 71 76  0  0  0  0  0  0  0  0999 V2000
  146.0580   73.4400  218.2570 N   0  0  0  0  0  0  0  0  0  0  0  0
  145.6830   73.0160  219.9040 S   0  0  0  0  0  0  0  0  0  0  0  0
  145.8730   71.5520  220.0880 O   0  0  0  0  0  0  0  0  0  0  0  0
  146.6700   73.7510  220.7700 O   0  0  0  0  0  0  0  0  0  0  0  0
  144.0460   73.4680  220.2600 C   0  0  0  0  0  0  0  0  0  0  0  0
  143.1350   72.5230  220.7170 C   0  0  0  0  0  0  0  0  0  0  0  0
  141.8170   72.8900  221.0030 C   0  0  0  0  0  0  0  0  0  0  0  0
  141.3670   74.1840  220.8480 C   0  0  0  0  0  0  0  0  0  0  0  0
  142.3010   75.1110  220.3880 C   0  0  0  0  0  0  0  0  0  0  0  0
  143.6050   74.7650  220.1020 C   0  0  0  0  0  0  0  0  0  0  0  0
  141.7980   76.5200  220.2240 C   0  0  0  0  0  0  0  0  0  0  0  0
  141.0730   76.8120  221.5370 C   0  0  0  0  0  0  0  0  0  0  0  0
  139.9060   75.9630  221.6270 N   0  0  0  0  0  0  0  0  0  0  0  0
  138.6730   76.4130  222.1760 C   0  0  0  0  0  0  0  0  0  0  0  0
  138.3180   77.7110  222.1530 N   0  0  0  0  0  0  0  0  0  0  0  0
  137.1760   78.1800  222.6530 C   0  0  0  0  0  0  0  0  0  0  0  0
  136.8370   79.5650  222.6090 N   0  0  0  0  0  0  0  0  0  0  0  0
  136.9980   80.2930  221.3800 C   0  0  0  0  0  0  0  0  0  0  0  0
  138.3430   80.9540  221.4250 C   0  0  0  0  0  0  0  0  0  0  0  0
  139.4660   80.2740  221.2820 C   0  0  0  0  0  0  0  0  0  0  0  0
  140.5370   80.2480  222.2590 C   0  0  0  0  0  0  0  0  0  0  0  0
  141.5480   81.2120  222.2260 C   0  0  0  0  0  0  0  0  0  0  0  0
  142.5840   81.2220  223.1360 C   0  0  0  0  0  0  0  0  0  0  0  0
  142.6650   80.2590  224.1410 C   0  0  0  0  0  0  0  0  0  0  0  0
  141.6700   79.3040  224.1800 C   0  0  0  0  0  0  0  0  0  0  0  0
  140.6420   79.3090  223.2620 C   0  0  0  0  0  0  0  0  0  0  0  0
  136.3340   77.2840  223.2140 N   0  0  0  0  0  0  0  0  0  0  0  0
  136.6300   75.9720  223.2690 C   0  0  0  0  0  0  0  0  0  0  0  0
  135.7080   75.0710  223.8710 N   0  0  0  0  0  0  0  0  0  0  0  0
  135.8430   73.6570  223.5950 C   0  0  0  0  0  0  0  0  0  0  0  0
  134.4530   73.0110  223.5740 C   0  0  0  0  0  0  0  0  0  0  0  0
  133.8050   73.3140  224.8570 C   0  0  0  0  0  0  0  0  0  0  0  0
  133.0820   72.3080  225.4930 C   0  0  0  0  0  0  0  0  0  0  0  0
  132.4700   72.5790  226.6970 C   0  0  0  0  0  0  0  0  0  0  0  0
  132.5910   73.8390  227.2370 C   0  0  0  0  0  0  0  0  0  0  0  0
  133.2950   74.8370  226.6290 C   0  0  0  0  0  0  0  0  0  0  0  0
  133.9090   74.5610  225.4180 C   0  0  0  0  0  0  0  0  0  0  0  0
  134.6840   75.6190  224.7260 C   0  0  0  0  0  0  0  0  0  0  0  0
  137.7990   75.5590  222.7470 N   0  0  0  0  0  0  0  0  0  0  0  0
  139.9840   74.5980  221.1420 C   0  0  0  0  0  0  0  0  0  0  0  0
  145.3500   74.1640  217.9470 H   0  0  0  0  0  0  0  0  0  0  0  0
  146.9680   73.9860  218.3040 H   0  0  0  0  0  0  0  0  0  0  0  0
  143.4534   71.4791  220.8545 H   0  0  0  0  0  0  0  0  0  0  0  0
  141.1166   72.1221  221.3632 H   0  0  0  0  0  0  0  0  0  0  0  0
  144.3036   75.5349  219.7426 H   0  0  0  0  0  0  0  0  0  0  0  0
  142.6347   77.2186  220.0762 H   0  0  0  0  0  0  0  0  0  0  0  0
  141.1451   76.6358  219.3464 H   0  0  0  0  0  0  0  0  0  0  0  0
  141.7450   76.6067  222.3833 H   0  0  0  0  0  0  0  0  0  0  0  0
  140.7683   77.8685  221.5673 H   0  0  0  0  0  0  0  0  0  0  0  0
  136.4770   80.0030  223.4900 H   0  0  0  0  0  0  0  0  0  0  0  0
  136.9462   79.6033  220.5246 H   0  0  0  0  0  0  0  0  0  0  0  0
  136.2004   81.0416  221.2640 H   0  0  0  0  0  0  0  0  0  0  0  0
  138.3961   82.0414  221.5823 H   0  0  0  0  0  0  0  0  0  0  0  0
  139.5977   79.6883  220.3603 H   0  0  0  0  0  0  0  0  0  0  0  0
  141.5164   81.9890  221.4480 H   0  0  0  0  0  0  0  0  0  0  0  0
  143.3577   82.0010  223.0680 H   0  0  0  0  0  0  0  0  0  0  0  0
  143.4872   80.2606  224.8717 H   0  0  0  0  0  0  0  0  0  0  0  0
  141.6976   78.5256  224.9567 H   0  0  0  0  0  0  0  0  0  0  0  0
  139.8705   78.5281  223.3332 H   0  0  0  0  0  0  0  0  0  0  0  0
  136.3279   73.5179  222.6175 H   0  0  0  0  0  0  0  0  0  0  0  0
  136.4571   73.1856  224.3764 H   0  0  0  0  0  0  0  0  0  0  0  0
  133.8589   73.4254  222.7462 H   0  0  0  0  0  0  0  0  0  0  0  0
  134.5336   71.9237  223.4283 H   0  0  0  0  0  0  0  0  0  0  0  0
  133.0006   71.3091  225.0395 H   0  0  0  0  0  0  0  0  0  0  0  0
  131.8937   71.8006  227.2185 H   0  0  0  0  0  0  0  0  0  0  0  0
  132.0999   74.0502  228.1984 H   0  0  0  0  0  0  0  0  0  0  0  0
  133.3730   75.8337  227.0878 H   0  0  0  0  0  0  0  0  0  0  0  0
  133.9954   76.2201  224.1141 H   0  0  0  0  0  0  0  0  0  0  0  0
  135.1771   76.2339  225.4933 H   0  0  0  0  0  0  0  0  0  0  0  0
  139.5698   73.9266  221.9086 H   0  0  0  0  0  0  0  0  0  0  0  0
  139.4110   74.5421  220.2047 H   0  0  0  0  0  0  0  0  0  0  0  0
  1  2  1  0
  2  3  2  0
  2  4  2  0
  2  5  1  0
  5  6  2  0
  6  7  1  0
  7  8  2  0
  8  9  1  0
  9 10  2  0
  9 11  1  0
 11 12  1  0
 12 13  1  0
 13 14  1  0
 14 15  2  0
 15 16  1  0
 16 17  1  0
 17 18  1  0
 18 19  1  0
 19 20  2  0
 20 21  1  0
 21 22  2  0
 22 23  1  0
 23 24  2  0
 24 25  1  0
 25 26  2  0
 16 27  2  0
 27 28  1  0
 28 29  1  0
 29 30  1  0
 30 31  1  0
 31 32  1  0
 32 33  2  0
 33 34  1  0
 34 35  2  0
 35 36  1  0
 36 37  2  0
 37 38  1  0
 28 39  2  0
 13 40  1  0
 10  5  1  0
 39 14  1  0
 40  8  1  0
 26 21  1  0
 38 29  1  0
 37 32  1  0
  1 41  1  0
  1 42  1  0
  6 43  1  0
  7 44  1  0
 10 45  1  0
 11 46  1  0
 11 47  1  0
 12 48  1  0
 12 49  1  0
 17 50  1  0
 18 51  1  0
 18 52  1  0
 19 53  1  0
 20 54  1  0
 22 55  1  0
 23 56  1  0
 24 57  1  0
 25 58  1  0
 26 59  1  0
 30 60  1  0
 30 61  1  0
 31 62  1  0
 31 63  1  0
 33 64  1  0
 34 65  1  0
 35 66  1  0
 36 67  1  0
 38 68  1  0
 38 69  1  0
 40 70  1  0
 40 71  1  0
M  END
>  <smiles>  (14) 
NS(=O)(=O)c1ccc2c(c1)CCN(c1nc(NC/C=C/c3ccccc3)nc(N3CCc4ccccc4C3)n1)C2

>  <score_type>  (14) 
oracle

>  <origin>  (14) 
autodockgpu

>  <m_score__min__energy>  (14) 
-10.630000000000001

>  <m_primary>  (14) 
energy

>  <rmsd>  (14) 
10.509348735924828

>  <m_score__min__rmsd>  (14) 
10.509348735924828

>  <meeko>  (14) 
{"free_energy": -9.65, "intermolecular_energy": -12.34, "internal_energy": -1.74, "cluster_size": 42, "cluster_id": 2, "rank_in_cluster": 41}

>  <energy>  (14) 
-10.47

>  <cluster_rmsd>  (14) 
0.14

>  <cluster>  (14) 
2

$$$$

     RDKit          3D

 71 76  0  0  0  0  0  0  0  0999 V2000
  146.0210   73.3840  218.0140 N   0  0  0  0  0  0  0  0  0  0  0  0
  144.9390   72.4570  219.0150 S   0  0  0  0  0  0  0  0  0  0  0  0
  144.2720   71.4180  218.1840 O   0  0  0  0  0  0  0  0  0  0  0  0
  145.7910   71.7810  220.0540 O   0  0  0  0  0  0  0  0  0  0  0  0
  143.7620   73.5140  219.7290 C   0  0  0  0  0  0  0  0  0  0  0  0
  143.8240   74.8860  219.5190 C   0  0  0  0  0  0  0  0  0  0  0  0
  142.8750   75.7350  220.0940 C   0  0  0  0  0  0  0  0  0  0  0  0
  141.8510   75.2590  220.8850 C   0  0  0  0  0  0  0  0  0  0  0  0
  141.8130   73.8800  221.0810 C   0  0  0  0  0  0  0  0  0  0  0  0
  142.7410   73.0280  220.5180 C   0  0  0  0  0  0  0  0  0  0  0  0
  140.6900   73.3730  221.9450 C   0  0  0  0  0  0  0  0  0  0  0  0
  139.4460   74.0590  221.3810 C   0  0  0  0  0  0  0  0  0  0  0  0
  139.5460   75.4810  221.6240 N   0  0  0  0  0  0  0  0  0  0  0  0
  138.4210   76.2780  221.9770 C   0  0  0  0  0  0  0  0  0  0  0  0
  138.2340   77.5070  221.4620 N   0  0  0  0  0  0  0  0  0  0  0  0
  137.1980   78.2900  221.7610 C   0  0  0  0  0  0  0  0  0  0  0  0
  137.0360   79.5880  221.1930 N   0  0  0  0  0  0  0  0  0  0  0  0
  137.8390   80.6780  221.6800 C   0  0  0  0  0  0  0  0  0  0  0  0
  137.6540   80.7400  223.1660 C   0  0  0  0  0  0  0  0  0  0  0  0
  138.5840   80.3280  224.0090 C   0  0  0  0  0  0  0  0  0  0  0  0
  139.9820   80.1560  223.6640 C   0  0  0  0  0  0  0  0  0  0  0  0
  140.5250   78.8760  223.5290 C   0  0  0  0  0  0  0  0  0  0  0  0
  141.8490   78.6700  223.2030 C   0  0  0  0  0  0  0  0  0  0  0  0
  142.7100   79.7450  222.9910 C   0  0  0  0  0  0  0  0  0  0  0  0
  142.1810   81.0120  223.1230 C   0  0  0  0  0  0  0  0  0  0  0  0
  140.8560   81.2000  223.4500 C   0  0  0  0  0  0  0  0  0  0  0  0
  136.2900   77.8040  222.6350 N   0  0  0  0  0  0  0  0  0  0  0  0
  136.4190   76.5830  223.1860 C   0  0  0  0  0  0  0  0  0  0  0  0
  135.4330   76.1190  224.1010 N   0  0  0  0  0  0  0  0  0  0  0  0
  134.2750   76.9500  224.3500 C   0  0  0  0  0  0  0  0  0  0  0  0
  133.8330   76.7770  225.8070 C   0  0  0  0  0  0  0  0  0  0  0  0
  133.6020   75.3430  226.0310 C   0  0  0  0  0  0  0  0  0  0  0  0
  132.4900   74.9540  226.7730 C   0  0  0  0  0  0  0  0  0  0  0  0
  132.2620   73.6130  226.9900 C   0  0  0  0  0  0  0  0  0  0  0  0
  133.1440   72.6950  226.4660 C   0  0  0  0  0  0  0  0  0  0  0  0
  134.2390   73.0570  225.7380 C   0  0  0  0  0  0  0  0  0  0  0  0
  134.4640   74.4070  225.5210 C   0  0  0  0  0  0  0  0  0  0  0  0
  135.6430   74.8400  224.7330 C   0  0  0  0  0  0  0  0  0  0  0  0
  137.4870   75.8380  222.8440 N   0  0  0  0  0  0  0  0  0  0  0  0
  140.8380   76.1310  221.5050 C   0  0  0  0  0  0  0  0  0  0  0  0
  145.4630   74.1850  217.6020 H   0  0  0  0  0  0  0  0  0  0  0  0
  146.6880   73.8660  218.6850 H   0  0  0  0  0  0  0  0  0  0  0  0
  144.6263   75.3070  218.8953 H   0  0  0  0  0  0  0  0  0  0  0  0
  142.9471   76.8171  219.9098 H   0  0  0  0  0  0  0  0  0  0  0  0
  142.6652   71.9460  220.7012 H   0  0  0  0  0  0  0  0  0  0  0  0
  140.6014   72.2793  221.8681 H   0  0  0  0  0  0  0  0  0  0  0  0
  140.8460   73.5926  223.0115 H   0  0  0  0  0  0  0  0  0  0  0  0
  139.3800   73.8728  220.2989 H   0  0  0  0  0  0  0  0  0  0  0  0
  138.5453   73.6592  221.8699 H   0  0  0  0  0  0  0  0  0  0  0  0
  136.3260   79.6980  220.4310 H   0  0  0  0  0  0  0  0  0  0  0  0
  138.8979   80.5019  221.4397 H   0  0  0  0  0  0  0  0  0  0  0  0
  137.5352   81.6252  221.2103 H   0  0  0  0  0  0  0  0  0  0  0  0
  136.7124   81.1420  223.5682 H   0  0  0  0  0  0  0  0  0  0  0  0
  138.2777   80.1004  225.0407 H   0  0  0  0  0  0  0  0  0  0  0  0
  139.8747   78.0032  223.6881 H   0  0  0  0  0  0  0  0  0  0  0  0
  142.2308   77.6427  223.1090 H   0  0  0  0  0  0  0  0  0  0  0  0
  143.7671   79.5897  222.7294 H   0  0  0  0  0  0  0  0  0  0  0  0
  142.8281   81.8873  222.9645 H   0  0  0  0  0  0  0  0  0  0  0  0
  140.4788   82.2290  223.5445 H   0  0  0  0  0  0  0  0  0  0  0  0
  134.5322   78.0036  224.1664 H   0  0  0  0  0  0  0  0  0  0  0  0
  133.4562   76.6529  223.6782 H   0  0  0  0  0  0  0  0  0  0  0  0
  134.6199   77.1409  226.4840 H   0  0  0  0  0  0  0  0  0  0  0  0
  132.9168   77.3527  226.0050 H   0  0  0  0  0  0  0  0  0  0  0  0
  131.8016   75.7087  227.1811 H   0  0  0  0  0  0  0  0  0  0  0  0
  131.3897   73.2812  227.5723 H   0  0  0  0  0  0  0  0  0  0  0  0
  132.9579   71.6252  226.6418 H   0  0  0  0  0  0  0  0  0  0  0  0
  134.9250   72.2979  225.3340 H   0  0  0  0  0  0  0  0  0  0  0  0
  136.5108   74.9146  225.4049 H   0  0  0  0  0  0  0  0  0  0  0  0
  135.8138   74.0951  223.9418 H   0  0  0  0  0  0  0  0  0  0  0  0
  140.7235   77.0340  220.8873 H   0  0  0  0  0  0  0  0  0  0  0  0
  141.1838   76.3776  222.5197 H   0  0  0  0  0  0  0  0  0  0  0  0
  1  2  1  0
  2  3  2  0
  2  4  2  0
  2  5  1  0
  5  6  2  0
  6  7  1  0
  7  8  2  0
  8  9  1  0
  9 10  2  0
  9 11  1  0
 11 12  1  0
 12 13  1  0
 13 14  1  0
 14 15  2  0
 15 16  1  0
 16 17  1  0
 17 18  1  0
 18 19  1  0
 19 20  2  0
 20 21  1  0
 21 22  2  0
 22 23  1  0
 23 24  2  0
 24 25  1  0
 25 26  2  0
 16 27  2  0
 27 28  1  0
 28 29  1  0
 29 30  1  0
 30 31  1  0
 31 32  1  0
 32 33  2  0
 33 34  1  0
 34 35  2  0
 35 36  1  0
 36 37  2  0
 37 38  1  0
 28 39  2  0
 13 40  1  0
 10  5  1  0
 39 14  1  0
 40  8  1  0
 26 21  1  0
 38 29  1  0
 37 32  1  0
  1 41  1  0
  1 42  1  0
  6 43  1  0
  7 44  1  0
 10 45  1  0
 11 46  1  0
 11 47  1  0
 12 48  1  0
 12 49  1  0
 17 50  1  0
 18 51  1  0
 18 52  1  0
 19 53  1  0
 20 54  1  0
 22 55  1  0
 23 56  1  0
 24 57  1  0
 25 58  1  0
 26 59  1  0
 30 60  1  0
 30 61  1  0
 31 62  1  0
 31 63  1  0
 33 64  1  0
 34 65  1  0
 35 66  1  0
 36 67  1  0
 38 68  1  0
 38 69  1  0
 40 70  1  0
 40 71  1  0
M  END
>  <smiles>  (15) 
NS(=O)(=O)c1ccc2c(c1)CCN(c1nc(NC/C=C/c3ccccc3)nc(N3CCc4ccccc4C3)n1)C2

>  <score_type>  (15) 
oracle

>  <origin>  (15) 
autodockgpu

>  <m_score__min__energy>  (15) 
-10.630000000000001

>  <m_primary>  (15) 
energy

>  <rmsd>  (15) 
10.82278163993769

>  <m_score__min__rmsd>  (15) 
10.82278163993769

>  <meeko>  (15) 
{"free_energy": -9.78, "intermolecular_energy": -12.46, "internal_energy": -2.05, "cluster_size": 42, "cluster_id": 2, "rank_in_cluster": 40}

>  <energy>  (15) 
-10.47

>  <cluster_rmsd>  (15) 
0.21

>  <cluster>  (15) 
2

$$$$

     RDKit          3D

 71 76  0  0  0  0  0  0  0  0999 V2000
  146.0030   73.4500  218.3020 N   0  0  0  0  0  0  0  0  0  0  0  0
  145.6030   72.9710  219.9280 S   0  0  0  0  0  0  0  0  0  0  0  0
  145.7700   71.4990  220.0590 O   0  0  0  0  0  0  0  0  0  0  0  0
  146.5890   73.6590  220.8310 O   0  0  0  0  0  0  0  0  0  0  0  0
  143.9680   73.4330  220.2810 C   0  0  0  0  0  0  0  0  0  0  0  0
  143.0730   72.5150  220.8180 C   0  0  0  0  0  0  0  0  0  0  0  0
  141.7580   72.8890  221.1020 C   0  0  0  0  0  0  0  0  0  0  0  0
  141.2940   74.1660  220.8680 C   0  0  0  0  0  0  0  0  0  0  0  0
  142.2100   75.0670  220.3290 C   0  0  0  0  0  0  0  0  0  0  0  0
  143.5130   74.7130  220.0440 C   0  0  0  0  0  0  0  0  0  0  0  0
  141.6910   76.4570  220.0790 C   0  0  0  0  0  0  0  0  0  0  0  0
  140.9870   76.8320  221.3820 C   0  0  0  0  0  0  0  0  0  0  0  0
  139.8300   75.9820  221.5500 N   0  0  0  0  0  0  0  0  0  0  0  0
  138.6020   76.4590  222.0900 C   0  0  0  0  0  0  0  0  0  0  0  0
  138.2450   77.7530  222.0040 N   0  0  0  0  0  0  0  0  0  0  0  0
  137.1070   78.2460  222.4920 C   0  0  0  0  0  0  0  0  0  0  0  0
  136.7650   79.6260  222.3800 N   0  0  0  0  0  0  0  0  0  0  0  0
  136.6260   80.4190  223.5720 C   0  0  0  0  0  0  0  0  0  0  0  0
  137.9940   80.5790  224.1650 C   0  0  0  0  0  0  0  0  0  0  0  0
  138.9850   81.1470  223.5030 C   0  0  0  0  0  0  0  0  0  0  0  0
  140.3050   80.5670  223.3490 C   0  0  0  0  0  0  0  0  0  0  0  0
  140.5950   79.3140  223.8940 C   0  0  0  0  0  0  0  0  0  0  0  0
  141.8370   78.7270  223.7690 C   0  0  0  0  0  0  0  0  0  0  0  0
  142.8670   79.3690  223.0840 C   0  0  0  0  0  0  0  0  0  0  0  0
  142.5870   80.6080  222.5430 C   0  0  0  0  0  0  0  0  0  0  0  0
  141.3410   81.1790  222.6770 C   0  0  0  0  0  0  0  0  0  0  0  0
  136.2740   77.3790  223.1090 N   0  0  0  0  0  0  0  0  0  0  0  0
  136.5730   76.0730  223.2290 C   0  0  0  0  0  0  0  0  0  0  0  0
  135.6600   75.2030  223.8870 N   0  0  0  0  0  0  0  0  0  0  0  0
  135.7950   73.7760  223.6850 C   0  0  0  0  0  0  0  0  0  0  0  0
  134.4060   73.1280  223.7120 C   0  0  0  0  0  0  0  0  0  0  0  0
  133.7720   73.4970  224.9860 C   0  0  0  0  0  0  0  0  0  0  0  0
  133.0580   72.5240  225.6810 C   0  0  0  0  0  0  0  0  0  0  0  0
  132.4590   72.8570  226.8770 C   0  0  0  0  0  0  0  0  0  0  0  0
  132.5840   74.1440  227.3480 C   0  0  0  0  0  0  0  0  0  0  0  0
  133.2780   75.1100  226.6800 C   0  0  0  0  0  0  0  0  0  0  0  0
  133.8800   74.7710  225.4790 C   0  0  0  0  0  0  0  0  0  0  0  0
  134.6440   75.7930  224.7240 C   0  0  0  0  0  0  0  0  0  0  0  0
  137.7370   75.6340  222.7140 N   0  0  0  0  0  0  0  0  0  0  0  0
  139.9120   74.5880  221.1570 C   0  0  0  0  0  0  0  0  0  0  0  0
  145.2820   74.1620  217.9940 H   0  0  0  0  0  0  0  0  0  0  0  0
  146.8960   74.0200  218.3840 H   0  0  0  0  0  0  0  0  0  0  0  0
  143.4033   71.4856  221.0209 H   0  0  0  0  0  0  0  0  0  0  0  0
  141.0710   72.1416  221.5256 H   0  0  0  0  0  0  0  0  0  0  0  0
  144.1985   75.4626  219.6218 H   0  0  0  0  0  0  0  0  0  0  0  0
  142.5183   77.1507  219.8685 H   0  0  0  0  0  0  0  0  0  0  0  0
  141.0213   76.5072  219.2078 H   0  0  0  0  0  0  0  0  0  0  0  0
  141.6756   76.6899  222.2280 H   0  0  0  0  0  0  0  0  0  0  0  0
  140.6735   77.8858  221.3465 H   0  0  0  0  0  0  0  0  0  0  0  0
  136.6260   80.0140  221.4170 H   0  0  0  0  0  0  0  0  0  0  0  0
  136.2071   81.4047  223.3213 H   0  0  0  0  0  0  0  0  0  0  0  0
  135.9471   79.9309  224.2867 H   0  0  0  0  0  0  0  0  0  0  0  0
  138.1779   80.2110  225.1852 H   0  0  0  0  0  0  0  0  0  0  0  0
  138.7968   82.1256  223.0372 H   0  0  0  0  0  0  0  0  0  0  0  0
  139.8062   78.7772  224.4414 H   0  0  0  0  0  0  0  0  0  0  0  0
  142.0170   77.7383  224.2163 H   0  0  0  0  0  0  0  0  0  0  0  0
  143.8604   78.9084  222.9789 H   0  0  0  0  0  0  0  0  0  0  0  0
  143.3730   81.1486  221.9953 H   0  0  0  0  0  0  0  0  0  0  0  0
  141.1648   82.1675  222.2277 H   0  0  0  0  0  0  0  0  0  0  0  0
  136.2705   73.5858  222.7115 H   0  0  0  0  0  0  0  0  0  0  0  0
  136.4176   73.3475  224.4842 H   0  0  0  0  0  0  0  0  0  0  0  0
  133.8021   73.4985  222.8706 H   0  0  0  0  0  0  0  0  0  0  0  0
  134.4863   72.0347  223.6211 H   0  0  0  0  0  0  0  0  0  0  0  0
  132.9731   71.5029  225.2807 H   0  0  0  0  0  0  0  0  0  0  0  0
  131.8904   72.1064  227.4456 H   0  0  0  0  0  0  0  0  0  0  0  0
  132.1043   74.4047  228.3030 H   0  0  0  0  0  0  0  0  0  0  0  0
  133.3575   76.1301  227.0838 H   0  0  0  0  0  0  0  0  0  0  0  0
  133.9468   76.3598  224.0894 H   0  0  0  0  0  0  0  0  0  0  0  0
  135.1440   76.4484  225.4523 H   0  0  0  0  0  0  0  0  0  0  0  0
  139.5166   73.9668  221.9741 H   0  0  0  0  0  0  0  0  0  0  0  0
  139.3240   74.4642  220.2356 H   0  0  0  0  0  0  0  0  0  0  0  0
  1  2  1  0
  2  3  2  0
  2  4  2  0
  2  5  1  0
  5  6  2  0
  6  7  1  0
  7  8  2  0
  8  9  1  0
  9 10  2  0
  9 11  1  0
 11 12  1  0
 12 13  1  0
 13 14  1  0
 14 15  2  0
 15 16  1  0
 16 17  1  0
 17 18  1  0
 18 19  1  0
 19 20  2  0
 20 21  1  0
 21 22  2  0
 22 23  1  0
 23 24  2  0
 24 25  1  0
 25 26  2  0
 16 27  2  0
 27 28  1  0
 28 29  1  0
 29 30  1  0
 30 31  1  0
 31 32  1  0
 32 33  2  0
 33 34  1  0
 34 35  2  0
 35 36  1  0
 36 37  2  0
 37 38  1  0
 28 39  2  0
 13 40  1  0
 10  5  1  0
 39 14  1  0
 40  8  1  0
 26 21  1  0
 38 29  1  0
 37 32  1  0
  1 41  1  0
  1 42  1  0
  6 43  1  0
  7 44  1  0
 10 45  1  0
 11 46  1  0
 11 47  1  0
 12 48  1  0
 12 49  1  0
 17 50  1  0
 18 51  1  0
 18 52  1  0
 19 53  1  0
 20 54  1  0
 22 55  1  0
 23 56  1  0
 24 57  1  0
 25 58  1  0
 26 59  1  0
 30 60  1  0
 30 61  1  0
 31 62  1  0
 31 63  1  0
 33 64  1  0
 34 65  1  0
 35 66  1  0
 36 67  1  0
 38 68  1  0
 38 69  1  0
 40 70  1  0
 40 71  1  0
M  END
>  <smiles>  (16) 
NS(=O)(=O)c1ccc2c(c1)CCN(c1nc(NC/C=C/c3ccccc3)nc(N3CCc4ccccc4C3)n1)C2

>  <score_type>  (16) 
oracle

>  <origin>  (16) 
autodockgpu

>  <m_score__min__energy>  (16) 
-10.630000000000001

>  <m_primary>  (16) 
energy

>  <rmsd>  (16) 
10.498762121225468

>  <m_score__min__rmsd>  (16) 
10.498762121225468

>  <meeko>  (16) 
{"free_energy": -10.48, "intermolecular_energy": -13.17, "internal_energy": -1.95, "cluster_size": 42, "cluster_id": 2, "rank_in_cluster": 5}

>  <energy>  (16) 
-10.46

>  <cluster_rmsd>  (16) 
0.17

>  <cluster>  (16) 
2

$$$$

     RDKit          3D

 71 76  0  0  0  0  0  0  0  0999 V2000
  138.8630   83.3060  221.9350 N   0  0  0  0  0  0  0  0  0  0  0  0
  140.2950   82.7160  221.1390 S   0  0  0  0  0  0  0  0  0  0  0  0
  140.1540   82.9110  219.6710 O   0  0  0  0  0  0  0  0  0  0  0  0
  141.4390   83.5570  221.6370 O   0  0  0  0  0  0  0  0  0  0  0  0
  140.5160   81.0360  221.5120 C   0  0  0  0  0  0  0  0  0  0  0  0
  139.9710   80.4910  222.6690 C   0  0  0  0  0  0  0  0  0  0  0  0
  140.1490   79.1380  222.9670 C   0  0  0  0  0  0  0  0  0  0  0  0
  140.8620   78.2940  222.1420 C   0  0  0  0  0  0  0  0  0  0  0  0
  141.3970   78.8660  220.9890 C   0  0  0  0  0  0  0  0  0  0  0  0
  141.2290   80.1990  220.6800 C   0  0  0  0  0  0  0  0  0  0  0  0
  142.1720   77.9340  220.0960 C   0  0  0  0  0  0  0  0  0  0  0  0
  141.2590   76.7180  219.9450 C   0  0  0  0  0  0  0  0  0  0  0  0
  141.1400   76.0600  221.2260 N   0  0  0  0  0  0  0  0  0  0  0  0
  141.0910   74.6440  221.3570 C   0  0  0  0  0  0  0  0  0  0  0  0
  140.0600   74.0230  221.9590 N   0  0  0  0  0  0  0  0  0  0  0  0
  139.9690   72.7010  222.1050 C   0  0  0  0  0  0  0  0  0  0  0  0
  138.8580   72.0820  222.7500 N   0  0  0  0  0  0  0  0  0  0  0  0
  138.7010   70.6540  222.6720 C   0  0  0  0  0  0  0  0  0  0  0  0
  138.9600   70.0990  224.0400 C   0  0  0  0  0  0  0  0  0  0  0  0
  140.1560   70.1350  224.5980 C   0  0  0  0  0  0  0  0  0  0  0  0
  140.4310   70.6890  225.9100 C   0  0  0  0  0  0  0  0  0  0  0  0
  141.1830   71.8590  226.0400 C   0  0  0  0  0  0  0  0  0  0  0  0
  141.4670   72.4180  227.2690 C   0  0  0  0  0  0  0  0  0  0  0  0
  141.0070   71.8300  228.4460 C   0  0  0  0  0  0  0  0  0  0  0  0
  140.2630   70.6740  228.3250 C   0  0  0  0  0  0  0  0  0  0  0  0
  139.9900   70.1300  227.0890 C   0  0  0  0  0  0  0  0  0  0  0  0
  140.9820   71.9550  221.6140 N   0  0  0  0  0  0  0  0  0  0  0  0
  142.0420   72.5140  221.0010 C   0  0  0  0  0  0  0  0  0  0  0  0
  143.0810   71.6820  220.5010 N   0  0  0  0  0  0  0  0  0  0  0  0
  144.4400   72.1800  220.5280 C   0  0  0  0  0  0  0  0  0  0  0  0
  145.2010   71.6390  219.3140 C   0  0  0  0  0  0  0  0  0  0  0  0
  145.0980   70.1730  219.3450 C   0  0  0  0  0  0  0  0  0  0  0  0
  146.2280   69.4180  219.0390 C   0  0  0  0  0  0  0  0  0  0  0  0
  146.1440   68.0430  219.0650 C   0  0  0  0  0  0  0  0  0  0  0  0
  144.9440   67.4560  219.3930 C   0  0  0  0  0  0  0  0  0  0  0  0
  143.8270   68.1780  219.6950 C   0  0  0  0  0  0  0  0  0  0  0  0
  143.9150   69.5610  219.6690 C   0  0  0  0  0  0  0  0  0  0  0  0
  142.7240   70.3810  219.9920 C   0  0  0  0  0  0  0  0  0  0  0  0
  142.0770   73.8550  220.8830 N   0  0  0  0  0  0  0  0  0  0  0  0
  141.0660   76.8640  222.4310 C   0  0  0  0  0  0  0  0  0  0  0  0
  138.4520   84.0670  221.3240 H   0  0  0  0  0  0  0  0  0  0  0  0
  138.1530   82.5190  221.8640 H   0  0  0  0  0  0  0  0  0  0  0  0
  139.3954   81.1300  223.3548 H   0  0  0  0  0  0  0  0  0  0  0  0
  139.7064   78.7330  223.8890 H   0  0  0  0  0  0  0  0  0  0  0  0
  141.6703   80.6008  219.7560 H   0  0  0  0  0  0  0  0  0  0  0  0
  142.3659   78.4005  219.1189 H   0  0  0  0  0  0  0  0  0  0  0  0
  143.1570   77.6736  220.5106 H   0  0  0  0  0  0  0  0  0  0  0  0
  140.2652   77.0426  219.6029 H   0  0  0  0  0  0  0  0  0  0  0  0
  141.6842   76.0222  219.2067 H   0  0  0  0  0  0  0  0  0  0  0  0
  138.1890   72.7020  223.2650 H   0  0  0  0  0  0  0  0  0  0  0  0
  137.6782   70.4051  222.3528 H   0  0  0  0  0  0  0  0  0  0  0  0
  139.4017   70.2257  221.9401 H   0  0  0  0  0  0  0  0  0  0  0  0
  138.1263   69.6469  224.5973 H   0  0  0  0  0  0  0  0  0  0  0  0
  141.0002   69.7170  224.0301 H   0  0  0  0  0  0  0  0  0  0  0  0
  141.5615   72.3512  225.1320 H   0  0  0  0  0  0  0  0  0  0  0  0
  142.0645   73.3401  227.3206 H   0  0  0  0  0  0  0  0  0  0  0  0
  141.2278   72.2690  229.4302 H   0  0  0  0  0  0  0  0  0  0  0  0
  139.8817   70.1788  229.2302 H   0  0  0  0  0  0  0  0  0  0  0  0
  139.3928   69.2074  227.0416 H   0  0  0  0  0  0  0  0  0  0  0  0
  144.4293   73.2795  220.4950 H   0  0  0  0  0  0  0  0  0  0  0  0
  144.9360   71.8480  221.4520 H   0  0  0  0  0  0  0  0  0  0  0  0
  144.7540   72.0273  218.3870 H   0  0  0  0  0  0  0  0  0  0  0  0
  146.2545   71.9540  219.3454 H   0  0  0  0  0  0  0  0  0  0  0  0
  147.1754   69.9133  218.7799 H   0  0  0  0  0  0  0  0  0  0  0  0
  147.0222   67.4247  218.8273 H   0  0  0  0  0  0  0  0  0  0  0  0
  144.8827   66.3579  219.4126 H   0  0  0  0  0  0  0  0  0  0  0  0
  142.8823   67.6765  219.9521 H   0  0  0  0  0  0  0  0  0  0  0  0
  142.1244   70.5100  219.0789 H   0  0  0  0  0  0  0  0  0  0  0  0
  142.1546   69.8568  220.7737 H   0  0  0  0  0  0  0  0  0  0  0  0
  140.2265   76.5045  223.0442 H   0  0  0  0  0  0  0  0  0  0  0  0
  142.0250   76.7629  222.9603 H   0  0  0  0  0  0  0  0  0  0  0  0
  1  2  1  0
  2  3  2  0
  2  4  2  0
  2  5  1  0
  5  6  2  0
  6  7  1  0
  7  8  2  0
  8  9  1  0
  9 10  2  0
  9 11  1  0
 11 12  1  0
 12 13  1  0
 13 14  1  0
 14 15  2  0
 15 16  1  0
 16 17  1  0
 17 18  1  0
 18 19  1  0
 19 20  2  0
 20 21  1  0
 21 22  2  0
 22 23  1  0
 23 24  2  0
 24 25  1  0
 25 26  2  0
 16 27  2  0
 27 28  1  0
 28 29  1  0
 29 30  1  0
 30 31  1  0
 31 32  1  0
 32 33  2  0
 33 34  1  0
 34 35  2  0
 35 36  1  0
 36 37  2  0
 37 38  1  0
 28 39  2  0
 13 40  1  0
 10  5  1  0
 39 14  1  0
 40  8  1  0
 26 21  1  0
 38 29  1  0
 37 32  1  0
  1 41  1  0
  1 42  1  0
  6 43  1  0
  7 44  1  0
 10 45  1  0
 11 46  1  0
 11 47  1  0
 12 48  1  0
 12 49  1  0
 17 50  1  0
 18 51  1  0
 18 52  1  0
 19 53  1  0
 20 54  1  0
 22 55  1  0
 23 56  1  0
 24 57  1  0
 25 58  1  0
 26 59  1  0
 30 60  1  0
 30 61  1  0
 31 62  1  0
 31 63  1  0
 33 64  1  0
 34 65  1  0
 35 66  1  0
 36 67  1  0
 38 68  1  0
 38 69  1  0
 40 70  1  0
 40 71  1  0
M  END
>  <smiles>  (17) 
NS(=O)(=O)c1ccc2c(c1)CCN(c1nc(NC/C=C/c3ccccc3)nc(N3CCc4ccccc4C3)n1)C2

>  <score_type>  (17) 
oracle

>  <origin>  (17) 
autodockgpu

>  <m_score__min__energy>  (17) 
-10.630000000000001

>  <m_primary>  (17) 
energy

>  <rmsd>  (17) 
10.633441944620499

>  <m_score__min__rmsd>  (17) 
10.633441944620499

>  <meeko>  (17) 
{"free_energy": -10.48, "intermolecular_energy": -13.16, "internal_energy": -1.37, "cluster_size": 7, "cluster_id": 1, "rank_in_cluster": 4}

>  <energy>  (17) 
-10.45

>  <cluster_rmsd>  (17) 
0.3

>  <cluster>  (17) 
2

$$$$

     RDKit          3D

 71 76  0  0  0  0  0  0  0  0999 V2000
  145.9770   73.4030  218.1710 N   0  0  0  0  0  0  0  0  0  0  0  0
  145.5920   73.0610  219.8340 S   0  0  0  0  0  0  0  0  0  0  0  0
  145.7610   71.6040  220.0860 O   0  0  0  0  0  0  0  0  0  0  0  0
  146.5860   73.8210  220.6690 O   0  0  0  0  0  0  0  0  0  0  0  0
  143.9600   73.5500  220.1640 C   0  0  0  0  0  0  0  0  0  0  0  0
  143.0220   72.6290  220.6160 C   0  0  0  0  0  0  0  0  0  0  0  0
  141.7100   73.0260  220.8810 C   0  0  0  0  0  0  0  0  0  0  0  0
  141.2900   74.3280  220.7090 C   0  0  0  0  0  0  0  0  0  0  0  0
  142.2490   75.2310  220.2540 C   0  0  0  0  0  0  0  0  0  0  0  0
  143.5490   74.8550  219.9890 C   0  0  0  0  0  0  0  0  0  0  0  0
  141.7780   76.6490  220.0710 C   0  0  0  0  0  0  0  0  0  0  0  0
  141.0420   76.9670  221.3730 C   0  0  0  0  0  0  0  0  0  0  0  0
  139.8560   76.1450  221.4530 N   0  0  0  0  0  0  0  0  0  0  0  0
  138.6260   76.6250  221.9820 C   0  0  0  0  0  0  0  0  0  0  0  0
  138.2520   77.9110  221.8510 N   0  0  0  0  0  0  0  0  0  0  0  0
  137.1110   78.4080  222.3280 C   0  0  0  0  0  0  0  0  0  0  0  0
  136.7520   79.7790  222.1680 N   0  0  0  0  0  0  0  0  0  0  0  0
  136.5590   80.6000  223.3330 C   0  0  0  0  0  0  0  0  0  0  0  0
  137.9110   81.0660  223.7810 C   0  0  0  0  0  0  0  0  0  0  0  0
  138.8390   80.2290  224.2080 C   0  0  0  0  0  0  0  0  0  0  0  0
  140.1960   80.1830  223.7010 C   0  0  0  0  0  0  0  0  0  0  0  0
  140.7070   81.2440  222.9500 C   0  0  0  0  0  0  0  0  0  0  0  0
  141.9930   81.2390  222.4500 C   0  0  0  0  0  0  0  0  0  0  0  0
  142.8460   80.1600  222.6780 C   0  0  0  0  0  0  0  0  0  0  0  0
  142.3480   79.1080  223.4200 C   0  0  0  0  0  0  0  0  0  0  0  0
  141.0610   79.1300  223.9110 C   0  0  0  0  0  0  0  0  0  0  0  0
  136.2910   77.5540  222.9790 N   0  0  0  0  0  0  0  0  0  0  0  0
  136.6060   76.2560  223.1440 C   0  0  0  0  0  0  0  0  0  0  0  0
  135.7070   75.4000  223.8370 N   0  0  0  0  0  0  0  0  0  0  0  0
  135.8280   73.9700  223.6490 C   0  0  0  0  0  0  0  0  0  0  0  0
  134.4380   73.3300  223.7230 C   0  0  0  0  0  0  0  0  0  0  0  0
  133.8410   73.7180  225.0080 C   0  0  0  0  0  0  0  0  0  0  0  0
  133.1410   72.7580  225.7350 C   0  0  0  0  0  0  0  0  0  0  0  0
  132.5770   73.1080  226.9420 C   0  0  0  0  0  0  0  0  0  0  0  0
  132.7220   74.4000  227.3940 C   0  0  0  0  0  0  0  0  0  0  0  0
  133.4030   75.3540  226.6960 C   0  0  0  0  0  0  0  0  0  0  0  0
  133.9690   74.9980  225.4830 C   0  0  0  0  0  0  0  0  0  0  0  0
  134.7180   76.0050  224.6950 C   0  0  0  0  0  0  0  0  0  0  0  0
  137.7730   75.8140  222.6390 N   0  0  0  0  0  0  0  0  0  0  0  0
  139.9110   74.7740  220.9800 C   0  0  0  0  0  0  0  0  0  0  0  0
  145.2070   72.9860  217.5750 H   0  0  0  0  0  0  0  0  0  0  0  0
  145.8400   74.4510  218.0570 H   0  0  0  0  0  0  0  0  0  0  0  0
  143.3157   71.5796  220.7660 H   0  0  0  0  0  0  0  0  0  0  0  0
  140.9886   72.2764  221.2383 H   0  0  0  0  0  0  0  0  0  0  0  0
  144.2687   75.6068  219.6328 H   0  0  0  0  0  0  0  0  0  0  0  0
  142.6310   77.3287  219.9283 H   0  0  0  0  0  0  0  0  0  0  0  0
  141.1394   76.7711  219.1837 H   0  0  0  0  0  0  0  0  0  0  0  0
  141.6980   76.7532  222.2297 H   0  0  0  0  0  0  0  0  0  0  0  0
  140.7606   78.0302  221.3920 H   0  0  0  0  0  0  0  0  0  0  0  0
  136.6410   80.1400  221.1910 H   0  0  0  0  0  0  0  0  0  0  0  0
  135.9268   81.4648  223.0831 H   0  0  0  0  0  0  0  0  0  0  0  0
  136.0599   80.0310  224.1311 H   0  0  0  0  0  0  0  0  0  0  0  0
  138.1382   82.1419  223.7533 H   0  0  0  0  0  0  0  0  0  0  0  0
  138.5635   79.5190  225.0018 H   0  0  0  0  0  0  0  0  0  0  0  0
  140.0625   82.1128  222.7504 H   0  0  0  0  0  0  0  0  0  0  0  0
  142.3502   82.0982  221.8634 H   0  0  0  0  0  0  0  0  0  0  0  0
  143.8726   80.1476  222.2832 H   0  0  0  0  0  0  0  0  0  0  0  0
  142.9894   78.2376  223.6226 H   0  0  0  0  0  0  0  0  0  0  0  0
  140.7076   78.2687  224.4969 H   0  0  0  0  0  0  0  0  0  0  0  0
  136.2748   73.7653  222.6649 H   0  0  0  0  0  0  0  0  0  0  0  0
  136.4703   73.5480  224.4360 H   0  0  0  0  0  0  0  0  0  0  0  0
  133.8129   73.6927  222.8937 H   0  0  0  0  0  0  0  0  0  0  0  0
  134.5109   72.2352  223.6445 H   0  0  0  0  0  0  0  0  0  0  0  0
  133.0398   71.7326  225.3499 H   0  0  0  0  0  0  0  0  0  0  0  0
  132.0201   72.3674  227.5347 H   0  0  0  0  0  0  0  0  0  0  0  0
  132.2699   74.6748  228.3584 H   0  0  0  0  0  0  0  0  0  0  0  0
  133.5000   76.3780  227.0859 H   0  0  0  0  0  0  0  0  0  0  0  0
  134.0069   76.5687  224.0733 H   0  0  0  0  0  0  0  0  0  0  0  0
  135.2425   76.6648  225.4018 H   0  0  0  0  0  0  0  0  0  0  0  0
  139.4716   74.1181  221.7460 H   0  0  0  0  0  0  0  0  0  0  0  0
  139.3499   74.7223  220.0353 H   0  0  0  0  0  0  0  0  0  0  0  0
  1  2  1  0
  2  3  2  0
  2  4  2  0
  2  5  1  0
  5  6  2  0
  6  7  1  0
  7  8  2  0
  8  9  1  0
  9 10  2  0
  9 11  1  0
 11 12  1  0
 12 13  1  0
 13 14  1  0
 14 15  2  0
 15 16  1  0
 16 17  1  0
 17 18  1  0
 18 19  1  0
 19 20  2  0
 20 21  1  0
 21 22  2  0
 22 23  1  0
 23 24  2  0
 24 25  1  0
 25 26  2  0
 16 27  2  0
 27 28  1  0
 28 29  1  0
 29 30  1  0
 30 31  1  0
 31 32  1  0
 32 33  2  0
 33 34  1  0
 34 35  2  0
 35 36  1  0
 36 37  2  0
 37 38  1  0
 28 39  2  0
 13 40  1  0
 10  5  1  0
 39 14  1  0
 40  8  1  0
 26 21  1  0
 38 29  1  0
 37 32  1  0
  1 41  1  0
  1 42  1  0
  6 43  1  0
  7 44  1  0
 10 45  1  0
 11 46  1  0
 11 47  1  0
 12 48  1  0
 12 49  1  0
 17 50  1  0
 18 51  1  0
 18 52  1  0
 19 53  1  0
 20 54  1  0
 22 55  1  0
 23 56  1  0
 24 57  1  0
 25 58  1  0
 26 59  1  0
 30 60  1  0
 30 61  1  0
 31 62  1  0
 31 63  1  0
 33 64  1  0
 34 65  1  0
 35 66  1  0
 36 67  1  0
 38 68  1  0
 38 69  1  0
 40 70  1  0
 40 71  1  0
M  END
>  <smiles>  (18) 
NS(=O)(=O)c1ccc2c(c1)CCN(c1nc(NC/C=C/c3ccccc3)nc(N3CCc4ccccc4C3)n1)C2

>  <score_type>  (18) 
oracle

>  <origin>  (18) 
autodockgpu

>  <m_score__min__energy>  (18) 
-10.630000000000001

>  <m_primary>  (18) 
energy

>  <rmsd>  (18) 
10.365778025500171

>  <m_score__min__rmsd>  (18) 
10.365778025500171

>  <meeko>  (18) 
{"free_energy": -10.07, "intermolecular_energy": -12.76, "internal_energy": -1.92, "cluster_size": 42, "cluster_id": 2, "rank_in_cluster": 26}

>  <energy>  (18) 
-10.45

>  <cluster_rmsd>  (18) 
0.18

>  <cluster>  (18) 
2

$$$$

     RDKit          3D

 71 76  0  0  0  0  0  0  0  0999 V2000
  145.9730   73.4430  218.4550 N   0  0  0  0  0  0  0  0  0  0  0  0
  145.4380   72.6990  219.9360 S   0  0  0  0  0  0  0  0  0  0  0  0
  145.4780   71.2200  219.7820 O   0  0  0  0  0  0  0  0  0  0  0  0
  146.4210   73.1070  220.9990 O   0  0  0  0  0  0  0  0  0  0  0  0
  143.8270   73.2310  220.3030 C   0  0  0  0  0  0  0  0  0  0  0  0
  142.8800   72.3360  220.7870 C   0  0  0  0  0  0  0  0  0  0  0  0
  141.5850   72.7670  221.0820 C   0  0  0  0  0  0  0  0  0  0  0  0
  141.1920   74.0760  220.9100 C   0  0  0  0  0  0  0  0  0  0  0  0
  142.1600   74.9530  220.4230 C   0  0  0  0  0  0  0  0  0  0  0  0
  143.4440   74.5430  220.1280 C   0  0  0  0  0  0  0  0  0  0  0  0
  141.7190   76.3800  220.2400 C   0  0  0  0  0  0  0  0  0  0  0  0
  141.0250   76.7260  221.5570 C   0  0  0  0  0  0  0  0  0  0  0  0
  139.8220   75.9330  221.6750 N   0  0  0  0  0  0  0  0  0  0  0  0
  138.6170   76.4480  222.2310 C   0  0  0  0  0  0  0  0  0  0  0  0
  138.3000   77.7530  222.1510 N   0  0  0  0  0  0  0  0  0  0  0  0
  137.1850   78.2810  222.6550 C   0  0  0  0  0  0  0  0  0  0  0  0
  136.8870   79.6720  222.5490 N   0  0  0  0  0  0  0  0  0  0  0  0
  136.6540   80.4380  223.7440 C   0  0  0  0  0  0  0  0  0  0  0  0
  137.7850   81.4130  223.8770 C   0  0  0  0  0  0  0  0  0  0  0  0
  138.7690   81.4730  222.9990 C   0  0  0  0  0  0  0  0  0  0  0  0
  140.0390   80.7910  223.1450 C   0  0  0  0  0  0  0  0  0  0  0  0
  141.1980   81.3230  222.5750 C   0  0  0  0  0  0  0  0  0  0  0  0
  142.4250   80.7050  222.6910 C   0  0  0  0  0  0  0  0  0  0  0  0
  142.5610   79.5070  223.3920 C   0  0  0  0  0  0  0  0  0  0  0  0
  141.4200   78.9760  223.9580 C   0  0  0  0  0  0  0  0  0  0  0  0
  140.2020   79.6070  223.8320 C   0  0  0  0  0  0  0  0  0  0  0  0
  136.3330   77.4400  223.2800 N   0  0  0  0  0  0  0  0  0  0  0  0
  136.5910   76.1250  223.3940 C   0  0  0  0  0  0  0  0  0  0  0  0
  135.6590   75.2840  224.0630 N   0  0  0  0  0  0  0  0  0  0  0  0
  135.7800   73.8510  223.9020 C   0  0  0  0  0  0  0  0  0  0  0  0
  134.3850   73.2180  223.9270 C   0  0  0  0  0  0  0  0  0  0  0  0
  133.7360   73.6290  225.1800 C   0  0  0  0  0  0  0  0  0  0  0  0
  133.0020   72.6840  225.8920 C   0  0  0  0  0  0  0  0  0  0  0  0
  132.3890   73.0560  227.0690 C   0  0  0  0  0  0  0  0  0  0  0  0
  132.5220   74.3540  227.5060 C   0  0  0  0  0  0  0  0  0  0  0  0
  133.2360   75.2940  226.8230 C   0  0  0  0  0  0  0  0  0  0  0  0
  133.8520   74.9160  225.6400 C   0  0  0  0  0  0  0  0  0  0  0  0
  134.6380   75.9070  224.8690 C   0  0  0  0  0  0  0  0  0  0  0  0
  137.7340   75.6500  222.8650 N   0  0  0  0  0  0  0  0  0  0  0  0
  139.8320   74.5580  221.2120 C   0  0  0  0  0  0  0  0  0  0  0  0
  145.2580   74.1810  218.1950 H   0  0  0  0  0  0  0  0  0  0  0  0
  146.8320   74.0110  218.7160 H   0  0  0  0  0  0  0  0  0  0  0  0
  143.1526   71.2811  220.9387 H   0  0  0  0  0  0  0  0  0  0  0  0
  140.8553   72.0379  221.4640 H   0  0  0  0  0  0  0  0  0  0  0  0
  144.1725   75.2741  219.7476 H   0  0  0  0  0  0  0  0  0  0  0  0
  142.5842   77.0376  220.0697 H   0  0  0  0  0  0  0  0  0  0  0  0
  141.0609   76.5106  219.3683 H   0  0  0  0  0  0  0  0  0  0  0  0
  141.6978   76.5037  222.3984 H   0  0  0  0  0  0  0  0  0  0  0  0
  140.7693   77.7957  221.5736 H   0  0  0  0  0  0  0  0  0  0  0  0
  136.8480   80.0870  221.5880 H   0  0  0  0  0  0  0  0  0  0  0  0
  135.6990   80.9780  223.6646 H   0  0  0  0  0  0  0  0  0  0  0  0
  136.6019   79.7801  224.6240 H   0  0  0  0  0  0  0  0  0  0  0  0
  137.7953   82.1014  224.7349 H   0  0  0  0  0  0  0  0  0  0  0  0
  138.6143   82.0816  222.0959 H   0  0  0  0  0  0  0  0  0  0  0  0
  141.1294   82.2670  222.0146 H   0  0  0  0  0  0  0  0  0  0  0  0
  143.3092   81.1633  222.2240 H   0  0  0  0  0  0  0  0  0  0  0  0
  143.5359   79.0069  223.4895 H   0  0  0  0  0  0  0  0  0  0  0  0
  141.4842   78.0323  224.5196 H   0  0  0  0  0  0  0  0  0  0  0  0
  139.3202   79.1456  224.3004 H   0  0  0  0  0  0  0  0  0  0  0  0
  136.2667   73.6292  222.9408 H   0  0  0  0  0  0  0  0  0  0  0  0
  136.3861   73.4384  224.7220 H   0  0  0  0  0  0  0  0  0  0  0  0
  133.7972   73.5702  223.0665 H   0  0  0  0  0  0  0  0  0  0  0  0
  134.4558   72.1218  223.8687 H   0  0  0  0  0  0  0  0  0  0  0  0
  132.9125   71.6529  225.5195 H   0  0  0  0  0  0  0  0  0  0  0  0
  131.8034   72.3277  227.6492 H   0  0  0  0  0  0  0  0  0  0  0  0
  132.0315   74.6459  228.4463 H   0  0  0  0  0  0  0  0  0  0  0  0
  133.3208   76.3238  227.2004 H   0  0  0  0  0  0  0  0  0  0  0  0
  133.9564   76.4639  224.2092 H   0  0  0  0  0  0  0  0  0  0  0  0
  135.1355   76.5758  225.5867 H   0  0  0  0  0  0  0  0  0  0  0  0
  139.3964   73.9188  221.9941 H   0  0  0  0  0  0  0  0  0  0  0  0
  139.2464   74.5133  220.2819 H   0  0  0  0  0  0  0  0  0  0  0  0
  1  2  1  0
  2  3  2  0
  2  4  2  0
  2  5  1  0
  5  6  2  0
  6  7  1  0
  7  8  2  0
  8  9  1  0
  9 10  2  0
  9 11  1  0
 11 12  1  0
 12 13  1  0
 13 14  1  0
 14 15  2  0
 15 16  1  0
 16 17  1  0
 17 18  1  0
 18 19  1  0
 19 20  2  0
 20 21  1  0
 21 22  2  0
 22 23  1  0
 23 24  2  0
 24 25  1  0
 25 26  2  0
 16 27  2  0
 27 28  1  0
 28 29  1  0
 29 30  1  0
 30 31  1  0
 31 32  1  0
 32 33  2  0
 33 34  1  0
 34 35  2  0
 35 36  1  0
 36 37  2  0
 37 38  1  0
 28 39  2  0
 13 40  1  0
 10  5  1  0
 39 14  1  0
 40  8  1  0
 26 21  1  0
 38 29  1  0
 37 32  1  0
  1 41  1  0
  1 42  1  0
  6 43  1  0
  7 44  1  0
 10 45  1  0
 11 46  1  0
 11 47  1  0
 12 48  1  0
 12 49  1  0
 17 50  1  0
 18 51  1  0
 18 52  1  0
 19 53  1  0
 20 54  1  0
 22 55  1  0
 23 56  1  0
 24 57  1  0
 25 58  1  0
 26 59  1  0
 30 60  1  0
 30 61  1  0
 31 62  1  0
 31 63  1  0
 33 64  1  0
 34 65  1  0
 35 66  1  0
 36 67  1  0
 38 68  1  0
 38 69  1  0
 40 70  1  0
 40 71  1  0
M  END
>  <smiles>  (19) 
NS(=O)(=O)c1ccc2c(c1)CCN(c1nc(NC/C=C/c3ccccc3)nc(N3CCc4ccccc4C3)n1)C2

>  <score_type>  (19) 
oracle

>  <origin>  (19) 
autodockgpu

>  <m_score__min__energy>  (19) 
-10.630000000000001

>  <m_primary>  (19) 
energy

>  <rmsd>  (19) 
10.558569306173107

>  <m_score__min__rmsd>  (19) 
10.558569306173107

>  <meeko>  (19) 
{"free_energy": -10.35, "intermolecular_energy": -13.03, "internal_energy": -1.9, "cluster_size": 42, "cluster_id": 2, "rank_in_cluster": 15}

>  <energy>  (19) 
-10.38

>  <cluster_rmsd>  (19) 
0.52

>  <cluster>  (19) 
2

$$$$

     RDKit          3D

 71 76  0  0  0  0  0  0  0  0999 V2000
  140.8690   82.3230  219.6740 N   0  0  0  0  0  0  0  0  0  0  0  0
  140.6990   81.9990  221.3770 S   0  0  0  0  0  0  0  0  0  0  0  0
  141.7780   82.7060  222.1190 O   0  0  0  0  0  0  0  0  0  0  0  0
  139.3680   82.5650  221.7890 O   0  0  0  0  0  0  0  0  0  0  0  0
  140.7900   80.2880  221.6530 C   0  0  0  0  0  0  0  0  0  0  0  0
  140.2190   79.7240  222.7880 C   0  0  0  0  0  0  0  0  0  0  0  0
  140.2930   78.3460  223.0070 C   0  0  0  0  0  0  0  0  0  0  0  0
  140.9250   77.4970  222.1240 C   0  0  0  0  0  0  0  0  0  0  0  0
  141.4880   78.0890  220.9950 C   0  0  0  0  0  0  0  0  0  0  0  0
  141.4230   79.4470  220.7630 C   0  0  0  0  0  0  0  0  0  0  0  0
  142.1740   77.1500  220.0380 C   0  0  0  0  0  0  0  0  0  0  0  0
  141.1650   76.0210  219.8370 C   0  0  0  0  0  0  0  0  0  0  0  0
  141.0110   75.3030  221.0820 N   0  0  0  0  0  0  0  0  0  0  0  0
  140.8510   73.8900  221.1360 C   0  0  0  0  0  0  0  0  0  0  0  0
  140.9320   73.1240  220.0320 N   0  0  0  0  0  0  0  0  0  0  0  0
  140.7910   71.7990  220.0320 C   0  0  0  0  0  0  0  0  0  0  0  0
  140.8840   71.0240  218.8390 N   0  0  0  0  0  0  0  0  0  0  0  0
  141.5410   69.7450  218.8760 C   0  0  0  0  0  0  0  0  0  0  0  0
  142.9400   69.9740  219.3640 C   0  0  0  0  0  0  0  0  0  0  0  0
  143.7520   70.8430  218.7890 C   0  0  0  0  0  0  0  0  0  0  0  0
  144.1190   72.1230  219.3620 C   0  0  0  0  0  0  0  0  0  0  0  0
  143.7420   73.3130  218.7350 C   0  0  0  0  0  0  0  0  0  0  0  0
  144.0710   74.5500  219.2480 C   0  0  0  0  0  0  0  0  0  0  0  0
  144.8030   74.6650  220.4290 C   0  0  0  0  0  0  0  0  0  0  0  0
  145.1790   73.4940  221.0530 C   0  0  0  0  0  0  0  0  0  0  0  0
  144.8410   72.2660  220.5270 C   0  0  0  0  0  0  0  0  0  0  0  0
  140.5510   71.2050  221.2210 N   0  0  0  0  0  0  0  0  0  0  0  0
  140.4580   71.9130  222.3610 C   0  0  0  0  0  0  0  0  0  0  0  0
  140.2050   71.2370  223.5870 N   0  0  0  0  0  0  0  0  0  0  0  0
  139.5750   69.9350  223.5420 C   0  0  0  0  0  0  0  0  0  0  0  0
  138.6770   69.7640  224.7720 C   0  0  0  0  0  0  0  0  0  0  0  0
  139.5100   69.9880  225.9620 C   0  0  0  0  0  0  0  0  0  0  0  0
  139.3450   69.1460  227.0590 C   0  0  0  0  0  0  0  0  0  0  0  0
  140.1190   69.3440  228.1800 C   0  0  0  0  0  0  0  0  0  0  0  0
  141.0350   70.3720  228.1830 C   0  0  0  0  0  0  0  0  0  0  0  0
  141.2110   71.2060  227.1190 C   0  0  0  0  0  0  0  0  0  0  0  0
  140.4300   71.0030  225.9920 C   0  0  0  0  0  0  0  0  0  0  0  0
  140.5920   71.8890  224.8140 C   0  0  0  0  0  0  0  0  0  0  0  0
  140.6110   73.2490  222.2980 N   0  0  0  0  0  0  0  0  0  0  0  0
  141.0180   76.0410  222.3310 C   0  0  0  0  0  0  0  0  0  0  0  0
  141.7380   81.8170  219.3400 H   0  0  0  0  0  0  0  0  0  0  0  0
  140.0780   81.7930  219.2030 H   0  0  0  0  0  0  0  0  0  0  0  0
  139.7056   80.3666  223.5184 H   0  0  0  0  0  0  0  0  0  0  0  0
  139.8322   77.9253  223.9129 H   0  0  0  0  0  0  0  0  0  0  0  0
  141.8827   79.8648  219.8552 H   0  0  0  0  0  0  0  0  0  0  0  0
  142.3913   77.6539  219.0847 H   0  0  0  0  0  0  0  0  0  0  0  0
  143.1406   76.7896  220.4198 H   0  0  0  0  0  0  0  0  0  0  0  0
  140.1958   76.4421  219.5314 H   0  0  0  0  0  0  0  0  0  0  0  0
  141.5231   75.3364  219.0540 H   0  0  0  0  0  0  0  0  0  0  0  0
  140.4630   71.4240  217.9670 H   0  0  0  0  0  0  0  0  0  0  0  0
  141.0095   69.0689  219.5618 H   0  0  0  0  0  0  0  0  0  0  0  0
  141.5484   69.2830  217.8778 H   0  0  0  0  0  0  0  0  0  0  0  0
  143.3022   69.3995  220.2293 H   0  0  0  0  0  0  0  0  0  0  0  0
  144.1780   70.5776  217.8102 H   0  0  0  0  0  0  0  0  0  0  0  0
  143.1634   73.2616  217.8009 H   0  0  0  0  0  0  0  0  0  0  0  0
  143.7513   75.4592  218.7178 H   0  0  0  0  0  0  0  0  0  0  0  0
  145.0692   75.6478  220.8453 H   0  0  0  0  0  0  0  0  0  0  0  0
  145.7587   73.5411  221.9867 H   0  0  0  0  0  0  0  0  0  0  0  0
  145.1619   71.3594  221.0609 H   0  0  0  0  0  0  0  0  0  0  0  0
  138.9672   69.8523  222.6289 H   0  0  0  0  0  0  0  0  0  0  0  0
  140.3474   69.1518  223.5380 H   0  0  0  0  0  0  0  0  0  0  0  0
  137.8577   70.4974  224.7437 H   0  0  0  0  0  0  0  0  0  0  0  0
  138.2355   68.7567  224.7922 H   0  0  0  0  0  0  0  0  0  0  0  0
  138.6051   68.3326  227.0300 H   0  0  0  0  0  0  0  0  0  0  0  0
  140.0076   68.6918  229.0588 H   0  0  0  0  0  0  0  0  0  0  0  0
  141.6505   70.5268  229.0814 H   0  0  0  0  0  0  0  0  0  0  0  0
  141.9525   72.0178  227.1539 H   0  0  0  0  0  0  0  0  0  0  0  0
  139.9658   72.7826  224.9535 H   0  0  0  0  0  0  0  0  0  0  0  0
  141.6562   72.1556  224.7347 H   0  0  0  0  0  0  0  0  0  0  0  0
  140.1609   75.7152  222.9386 H   0  0  0  0  0  0  0  0  0  0  0  0
  141.9726   75.8346  222.8370 H   0  0  0  0  0  0  0  0  0  0  0  0
  1  2  1  0
  2  3  2  0
  2  4  2  0
  2  5  1  0
  5  6  2  0
  6  7  1  0
  7  8  2  0
  8  9  1  0
  9 10  2  0
  9 11  1  0
 11 12  1  0
 12 13  1  0
 13 14  1  0
 14 15  2  0
 15 16  1  0
 16 17  1  0
 17 18  1  0
 18 19  1  0
 19 20  2  0
 20 21  1  0
 21 22  2  0
 22 23  1  0
 23 24  2  0
 24 25  1  0
 25 26  2  0
 16 27  2  0
 27 28  1  0
 28 29  1  0
 29 30  1  0
 30 31  1  0
 31 32  1  0
 32 33  2  0
 33 34  1  0
 34 35  2  0
 35 36  1  0
 36 37  2  0
 37 38  1  0
 28 39  2  0
 13 40  1  0
 10  5  1  0
 39 14  1  0
 40  8  1  0
 26 21  1  0
 38 29  1  0
 37 32  1  0
  1 41  1  0
  1 42  1  0
  6 43  1  0
  7 44  1  0
 10 45  1  0
 11 46  1  0
 11 47  1  0
 12 48  1  0
 12 49  1  0
 17 50  1  0
 18 51  1  0
 18 52  1  0
 19 53  1  0
 20 54  1  0
 22 55  1  0
 23 56  1  0
 24 57  1  0
 25 58  1  0
 26 59  1  0
 30 60  1  0
 30 61  1  0
 31 62  1  0
 31 63  1  0
 33 64  1  0
 34 65  1  0
 35 66  1  0
 36 67  1  0
 38 68  1  0
 38 69  1  0
 40 70  1  0
 40 71  1  0
M  END
>  <smiles>  (20) 
NS(=O)(=O)c1ccc2c(c1)CCN(c1nc(NC/C=C/c3ccccc3)nc(N3CCc4ccccc4C3)n1)C2

>  <score_type>  (20) 
oracle

>  <origin>  (20) 
autodockgpu

>  <m_score__min__energy>  (20) 
-10.630000000000001

>  <m_primary>  (20) 
energy

>  <rmsd>  (20) 
10.884898981990485

>  <m_score__min__rmsd>  (20) 
10.884898981990485

>  <meeko>  (20) 
{"free_energy": -9.06, "intermolecular_energy": -11.74, "internal_energy": -2.35, "cluster_size": 7, "cluster_id": 1, "rank_in_cluster": 7}

>  <energy>  (20) 
-10.36

>  <cluster_rmsd>  (20) 
0.5

>  <cluster>  (20) 
2

$$$$

     RDKit          3D

 71 76  0  0  0  0  0  0  0  0999 V2000
  145.9450   73.3870  218.1110 N   0  0  0  0  0  0  0  0  0  0  0  0
  145.5930   73.0810  219.7890 S   0  0  0  0  0  0  0  0  0  0  0  0
  145.7910   71.6350  220.0750 O   0  0  0  0  0  0  0  0  0  0  0  0
  146.5880   73.8790  220.5870 O   0  0  0  0  0  0  0  0  0  0  0  0
  143.9580   73.5520  220.1330 C   0  0  0  0  0  0  0  0  0  0  0  0
  143.0210   72.6100  220.5390 C   0  0  0  0  0  0  0  0  0  0  0  0
  141.7060   72.9920  220.8160 C   0  0  0  0  0  0  0  0  0  0  0  0
  141.2840   74.2990  220.7010 C   0  0  0  0  0  0  0  0  0  0  0  0
  142.2440   75.2240  220.2930 C   0  0  0  0  0  0  0  0  0  0  0  0
  143.5460   74.8630  220.0170 C   0  0  0  0  0  0  0  0  0  0  0  0
  141.7700   76.6470  220.1730 C   0  0  0  0  0  0  0  0  0  0  0  0
  141.0280   76.9040  221.4840 C   0  0  0  0  0  0  0  0  0  0  0  0
  139.8440   76.0770  221.5210 N   0  0  0  0  0  0  0  0  0  0  0  0
  138.6100   76.5300  222.0660 C   0  0  0  0  0  0  0  0  0  0  0  0
  138.2320   77.8190  221.9890 N   0  0  0  0  0  0  0  0  0  0  0  0
  137.0870   78.2910  222.4820 C   0  0  0  0  0  0  0  0  0  0  0  0
  136.7240   79.6660  222.3800 N   0  0  0  0  0  0  0  0  0  0  0  0
  136.5390   80.4400  223.5780 C   0  0  0  0  0  0  0  0  0  0  0  0
  137.8990   80.7130  224.1480 C   0  0  0  0  0  0  0  0  0  0  0  0
  138.8740   81.2320  223.4250 C   0  0  0  0  0  0  0  0  0  0  0  0
  140.1930   80.6480  223.2890 C   0  0  0  0  0  0  0  0  0  0  0  0
  140.4980   79.4360  223.9140 C   0  0  0  0  0  0  0  0  0  0  0  0
  141.7400   78.8470  223.8100 C   0  0  0  0  0  0  0  0  0  0  0  0
  142.7570   79.4450  223.0670 C   0  0  0  0  0  0  0  0  0  0  0  0
  142.4630   80.6430  222.4470 C   0  0  0  0  0  0  0  0  0  0  0  0
  141.2160   81.2170  222.5620 C   0  0  0  0  0  0  0  0  0  0  0  0
  136.2690   77.4070  223.0940 N   0  0  0  0  0  0  0  0  0  0  0  0
  136.5880   76.1050  223.2040 C   0  0  0  0  0  0  0  0  0  0  0  0
  135.6890   75.2170  223.8580 N   0  0  0  0  0  0  0  0  0  0  0  0
  135.8380   73.7940  223.6360 C   0  0  0  0  0  0  0  0  0  0  0  0
  134.4570   73.1310  223.6650 C   0  0  0  0  0  0  0  0  0  0  0  0
  133.8280   73.4750  224.9480 C   0  0  0  0  0  0  0  0  0  0  0  0
  133.1310   72.4870  225.6360 C   0  0  0  0  0  0  0  0  0  0  0  0
  132.5370   72.7970  226.8400 C   0  0  0  0  0  0  0  0  0  0  0  0
  132.6510   74.0790  227.3270 C   0  0  0  0  0  0  0  0  0  0  0  0
  133.3300   75.0610  226.6680 C   0  0  0  0  0  0  0  0  0  0  0  0
  133.9260   74.7450  225.4570 C   0  0  0  0  0  0  0  0  0  0  0  0
  134.6740   75.7840  224.7100 C   0  0  0  0  0  0  0  0  0  0  0  0
  137.7580   75.6880  222.6850 N   0  0  0  0  0  0  0  0  0  0  0  0
  139.9040   74.7290  220.9860 C   0  0  0  0  0  0  0  0  0  0  0  0
  145.1410   72.9970  217.5420 H   0  0  0  0  0  0  0  0  0  0  0  0
  145.8500   74.4380  217.9870 H   0  0  0  0  0  0  0  0  0  0  0  0
  143.3167   71.5556  220.6431 H   0  0  0  0  0  0  0  0  0  0  0  0
  140.9848   72.2255  221.1359 H   0  0  0  0  0  0  0  0  0  0  0  0
  144.2662   75.6316  219.6998 H   0  0  0  0  0  0  0  0  0  0  0  0
  142.6218   77.3346  220.0650 H   0  0  0  0  0  0  0  0  0  0  0  0
  141.1346   76.8074  219.2896 H   0  0  0  0  0  0  0  0  0  0  0  0
  141.6806   76.6528  222.3331 H   0  0  0  0  0  0  0  0  0  0  0  0
  140.7442   77.9647  221.5500 H   0  0  0  0  0  0  0  0  0  0  0  0
  136.6030   80.0650  221.4190 H   0  0  0  0  0  0  0  0  0  0  0  0
  136.0338   81.3876  223.3395 H   0  0  0  0  0  0  0  0  0  0  0  0
  135.9162   79.8939  224.3018 H   0  0  0  0  0  0  0  0  0  0  0  0
  138.0906   80.4727  225.2042 H   0  0  0  0  0  0  0  0  0  0  0  0
  138.6713   82.1713  222.8896 H   0  0  0  0  0  0  0  0  0  0  0  0
  139.7205   78.9348  224.5093 H   0  0  0  0  0  0  0  0  0  0  0  0
  141.9314   77.8916  224.3205 H   0  0  0  0  0  0  0  0  0  0  0  0
  143.7510   78.9821  222.9786 H   0  0  0  0  0  0  0  0  0  0  0  0
  143.2376   81.1477  221.8511 H   0  0  0  0  0  0  0  0  0  0  0  0
  141.0285   82.1726  222.0504 H   0  0  0  0  0  0  0  0  0  0  0  0
  136.3080   73.6219  222.6565 H   0  0  0  0  0  0  0  0  0  0  0  0
  136.4715   73.3618  224.4246 H   0  0  0  0  0  0  0  0  0  0  0  0
  133.8428   73.5063  222.8332 H   0  0  0  0  0  0  0  0  0  0  0  0
  134.5490   72.0400  223.5591 H   0  0  0  0  0  0  0  0  0  0  0  0
  133.0550   71.4701  225.2236 H   0  0  0  0  0  0  0  0  0  0  0  0
  131.9810   72.0325  227.4025 H   0  0  0  0  0  0  0  0  0  0  0  0
  132.1744   74.3218  228.2882 H   0  0  0  0  0  0  0  0  0  0  0  0
  133.4028   76.0759  227.0859 H   0  0  0  0  0  0  0  0  0  0  0  0
  133.9663   76.3520  224.0883 H   0  0  0  0  0  0  0  0  0  0  0  0
  135.1732   76.4340  225.4437 H   0  0  0  0  0  0  0  0  0  0  0  0
  139.4629   74.0379  221.7193 H   0  0  0  0  0  0  0  0  0  0  0  0
  139.3470   74.7194  220.0375 H   0  0  0  0  0  0  0  0  0  0  0  0
  1  2  1  0
  2  3  2  0
  2  4  2  0
  2  5  1  0
  5  6  2  0
  6  7  1  0
  7  8  2  0
  8  9  1  0
  9 10  2  0
  9 11  1  0
 11 12  1  0
 12 13  1  0
 13 14  1  0
 14 15  2  0
 15 16  1  0
 16 17  1  0
 17 18  1  0
 18 19  1  0
 19 20  2  0
 20 21  1  0
 21 22  2  0
 22 23  1  0
 23 24  2  0
 24 25  1  0
 25 26  2  0
 16 27  2  0
 27 28  1  0
 28 29  1  0
 29 30  1  0
 30 31  1  0
 31 32  1  0
 32 33  2  0
 33 34  1  0
 34 35  2  0
 35 36  1  0
 36 37  2  0
 37 38  1  0
 28 39  2  0
 13 40  1  0
 10  5  1  0
 39 14  1  0
 40  8  1  0
 26 21  1  0
 38 29  1  0
 37 32  1  0
  1 41  1  0
  1 42  1  0
  6 43  1  0
  7 44  1  0
 10 45  1  0
 11 46  1  0
 11 47  1  0
 12 48  1  0
 12 49  1  0
 17 50  1  0
 18 51  1  0
 18 52  1  0
 19 53  1  0
 20 54  1  0
 22 55  1  0
 23 56  1  0
 24 57  1  0
 25 58  1  0
 26 59  1  0
 30 60  1  0
 30 61  1  0
 31 62  1  0
 31 63  1  0
 33 64  1  0
 34 65  1  0
 35 66  1  0
 36 67  1  0
 38 68  1  0
 38 69  1  0
 40 70  1  0
 40 71  1  0
M  END
>  <smiles>  (21) 
NS(=O)(=O)c1ccc2c(c1)CCN(c1nc(NC/C=C/c3ccccc3)nc(N3CCc4ccccc4C3)n1)C2

>  <score_type>  (21) 
oracle

>  <origin>  (21) 
autodockgpu

>  <m_score__min__energy>  (21) 
-10.630000000000001

>  <m_primary>  (21) 
energy

>  <rmsd>  (21) 
10.460066705850501

>  <m_score__min__rmsd>  (21) 
10.460066705850501

>  <meeko>  (21) 
{"free_energy": -10.08, "intermolecular_energy": -12.77, "internal_energy": -1.94, "cluster_size": 42, "cluster_id": 2, "rank_in_cluster": 23}

>  <energy>  (21) 
-10.35

>  <cluster_rmsd>  (21) 
0.31

>  <cluster>  (21) 
2

$$$$

     RDKit          3D

 71 76  0  0  0  0  0  0  0  0999 V2000
  135.6960   81.5850  230.5520 N   0  0  0  0  0  0  0  0  0  0  0  0
  134.5550   81.7300  229.2450 S   0  0  0  0  0  0  0  0  0  0  0  0
  133.5870   80.6020  229.3130 O   0  0  0  0  0  0  0  0  0  0  0  0
  133.8170   83.0230  229.4620 O   0  0  0  0  0  0  0  0  0  0  0  0
  135.4040   81.7130  227.7310 C   0  0  0  0  0  0  0  0  0  0  0  0
  136.6170   82.3780  227.5930 C   0  0  0  0  0  0  0  0  0  0  0  0
  137.2980   82.3630  226.3740 C   0  0  0  0  0  0  0  0  0  0  0  0
  136.8080   81.7000  225.2690 C   0  0  0  0  0  0  0  0  0  0  0  0
  135.5900   81.0430  225.4340 C   0  0  0  0  0  0  0  0  0  0  0  0
  134.9050   81.0470  226.6320 C   0  0  0  0  0  0  0  0  0  0  0  0
  135.0650   80.3230  224.2210 C   0  0  0  0  0  0  0  0  0  0  0  0
  136.2630   79.5150  223.7220 C   0  0  0  0  0  0  0  0  0  0  0  0
  137.2800   80.4280  223.2530 N   0  0  0  0  0  0  0  0  0  0  0  0
  138.0800   80.1600  222.1060 C   0  0  0  0  0  0  0  0  0  0  0  0
  138.2010   78.9190  221.6010 N   0  0  0  0  0  0  0  0  0  0  0  0
  138.9360   78.6190  220.5310 C   0  0  0  0  0  0  0  0  0  0  0  0
  139.0380   77.2880  220.0260 N   0  0  0  0  0  0  0  0  0  0  0  0
  140.1110   76.4420  220.4760 C   0  0  0  0  0  0  0  0  0  0  0  0
  140.0740   76.4300  221.9740 C   0  0  0  0  0  0  0  0  0  0  0  0
  141.0400   76.9570  222.7060 C   0  0  0  0  0  0  0  0  0  0  0  0
  141.3410   78.3740  222.7660 C   0  0  0  0  0  0  0  0  0  0  0  0
  140.7670   79.1780  223.7530 C   0  0  0  0  0  0  0  0  0  0  0  0
  141.0270   80.5290  223.8450 C   0  0  0  0  0  0  0  0  0  0  0  0
  141.8860   81.1560  222.9430 C   0  0  0  0  0  0  0  0  0  0  0  0
  142.4560   80.3680  221.9640 C   0  0  0  0  0  0  0  0  0  0  0  0
  142.1850   79.0190  221.8880 C   0  0  0  0  0  0  0  0  0  0  0  0
  139.5940   79.6340  219.9300 N   0  0  0  0  0  0  0  0  0  0  0  0
  139.5150   80.8980  220.3850 C   0  0  0  0  0  0  0  0  0  0  0  0
  140.2270   81.9300  219.7140 N   0  0  0  0  0  0  0  0  0  0  0  0
  140.0650   83.2930  220.1730 C   0  0  0  0  0  0  0  0  0  0  0  0
  140.1550   84.2440  218.9750 C   0  0  0  0  0  0  0  0  0  0  0  0
  141.4340   83.9850  218.3000 C   0  0  0  0  0  0  0  0  0  0  0  0
  142.1810   85.0700  217.8470 C   0  0  0  0  0  0  0  0  0  0  0  0
  143.3830   84.8410  217.2130 C   0  0  0  0  0  0  0  0  0  0  0  0
  143.8090   83.5430  217.0450 C   0  0  0  0  0  0  0  0  0  0  0  0
  143.0910   82.4680  217.4810 C   0  0  0  0  0  0  0  0  0  0  0  0
  141.8840   82.7030  218.1190 C   0  0  0  0  0  0  0  0  0  0  0  0
  141.0750   81.5610  218.6080 C   0  0  0  0  0  0  0  0  0  0  0  0
  138.7550   81.1390  221.4700 N   0  0  0  0  0  0  0  0  0  0  0  0
  137.5050   81.6680  223.9710 C   0  0  0  0  0  0  0  0  0  0  0  0
  135.9460   80.5600  230.6430 H   0  0  0  0  0  0  0  0  0  0  0  0
  136.5930   82.0290  230.1980 H   0  0  0  0  0  0  0  0  0  0  0  0
  137.0434   82.9198  228.4501 H   0  0  0  0  0  0  0  0  0  0  0  0
  138.2561   82.8973  226.2928 H   0  0  0  0  0  0  0  0  0  0  0  0
  133.9475   80.5113  226.7111 H   0  0  0  0  0  0  0  0  0  0  0  0
  134.2309   79.6588  224.4913 H   0  0  0  0  0  0  0  0  0  0  0  0
  134.6715   81.0109  223.4582 H   0  0  0  0  0  0  0  0  0  0  0  0
  136.6652   78.9048  224.5441 H   0  0  0  0  0  0  0  0  0  0  0  0
  135.9501   78.8520  222.9019 H   0  0  0  0  0  0  0  0  0  0  0  0
  138.3150   76.9750  219.3360 H   0  0  0  0  0  0  0  0  0  0  0  0
  139.9733   75.4218  220.0883 H   0  0  0  0  0  0  0  0  0  0  0  0
  141.0796   76.8176  220.1144 H   0  0  0  0  0  0  0  0  0  0  0  0
  139.2145   75.9673  222.4811 H   0  0  0  0  0  0  0  0  0  0  0  0
  141.6567   76.2751  223.3099 H   0  0  0  0  0  0  0  0  0  0  0  0
  140.0840   78.7177  224.4821 H   0  0  0  0  0  0  0  0  0  0  0  0
  140.5503   81.1202  224.6407 H   0  0  0  0  0  0  0  0  0  0  0  0
  142.1001   82.2329  223.0091 H   0  0  0  0  0  0  0  0  0  0  0  0
  143.1383   80.8244  221.2318 H   0  0  0  0  0  0  0  0  0  0  0  0
  142.6636   78.4309  221.0911 H   0  0  0  0  0  0  0  0  0  0  0  0
  139.0835   83.4036  220.6572 H   0  0  0  0  0  0  0  0  0  0  0  0
  140.8574   83.5352  220.8965 H   0  0  0  0  0  0  0  0  0  0  0  0
  139.3206   84.0564  218.2832 H   0  0  0  0  0  0  0  0  0  0  0  0
  140.0973   85.2912  219.3067 H   0  0  0  0  0  0  0  0  0  0  0  0
  141.8158   86.0972  217.9936 H   0  0  0  0  0  0  0  0  0  0  0  0
  143.9916   85.6812  216.8474 H   0  0  0  0  0  0  0  0  0  0  0  0
  144.7687   83.3649  216.5379 H   0  0  0  0  0  0  0  0  0  0  0  0
  143.4603   81.4429  217.3301 H   0  0  0  0  0  0  0  0  0  0  0  0
  140.4443   81.1950  217.7845 H   0  0  0  0  0  0  0  0  0  0  0  0
  141.7674   80.7813  218.9581 H   0  0  0  0  0  0  0  0  0  0  0  0
  138.5847   81.7835  224.1469 H   0  0  0  0  0  0  0  0  0  0  0  0
  137.1068   82.4886  223.3561 H   0  0  0  0  0  0  0  0  0  0  0  0
  1  2  1  0
  2  3  2  0
  2  4  2  0
  2  5  1  0
  5  6  2  0
  6  7  1  0
  7  8  2  0
  8  9  1  0
  9 10  2  0
  9 11  1  0
 11 12  1  0
 12 13  1  0
 13 14  1  0
 14 15  2  0
 15 16  1  0
 16 17  1  0
 17 18  1  0
 18 19  1  0
 19 20  2  0
 20 21  1  0
 21 22  2  0
 22 23  1  0
 23 24  2  0
 24 25  1  0
 25 26  2  0
 16 27  2  0
 27 28  1  0
 28 29  1  0
 29 30  1  0
 30 31  1  0
 31 32  1  0
 32 33  2  0
 33 34  1  0
 34 35  2  0
 35 36  1  0
 36 37  2  0
 37 38  1  0
 28 39  2  0
 13 40  1  0
 10  5  1  0
 39 14  1  0
 40  8  1  0
 26 21  1  0
 38 29  1  0
 37 32  1  0
  1 41  1  0
  1 42  1  0
  6 43  1  0
  7 44  1  0
 10 45  1  0
 11 46  1  0
 11 47  1  0
 12 48  1  0
 12 49  1  0
 17 50  1  0
 18 51  1  0
 18 52  1  0
 19 53  1  0
 20 54  1  0
 22 55  1  0
 23 56  1  0
 24 57  1  0
 25 58  1  0
 26 59  1  0
 30 60  1  0
 30 61  1  0
 31 62  1  0
 31 63  1  0
 33 64  1  0
 34 65  1  0
 35 66  1  0
 36 67  1  0
 38 68  1  0
 38 69  1  0
 40 70  1  0
 40 71  1  0
M  END
>  <smiles>  (22) 
NS(=O)(=O)c1ccc2c(c1)CCN(c1nc(NC/C=C/c3ccccc3)nc(N3CCc4ccccc4C3)n1)C2

>  <score_type>  (22) 
oracle

>  <origin>  (22) 
autodockgpu

>  <m_score__min__energy>  (22) 
-10.630000000000001

>  <m_primary>  (22) 
energy

>  <rmsd>  (22) 
7.271789979591634

>  <m_score__min__rmsd>  (22) 
7.271789979591634

>  <meeko>  (22) 
{"free_energy": -8.43, "intermolecular_energy": -11.12, "internal_energy": -2.88, "cluster_size": 1, "cluster_id": 3, "rank_in_cluster": 1}

>  <energy>  (22) 
-10.35

>  <cluster_rmsd>  (22) 
0.24

>  <cluster>  (22) 
2

$$$$

     RDKit          3D

 71 76  0  0  0  0  0  0  0  0999 V2000
  145.9300   73.4040  218.2450 N   0  0  0  0  0  0  0  0  0  0  0  0
  145.5550   73.0040  219.8970 S   0  0  0  0  0  0  0  0  0  0  0  0
  145.7250   71.5390  220.0970 O   0  0  0  0  0  0  0  0  0  0  0  0
  146.5540   73.7350  220.7520 O   0  0  0  0  0  0  0  0  0  0  0  0
  143.9250   73.4820  220.2540 C   0  0  0  0  0  0  0  0  0  0  0  0
  143.0400   72.5900  220.8470 C   0  0  0  0  0  0  0  0  0  0  0  0
  141.7290   72.9770  221.1340 C   0  0  0  0  0  0  0  0  0  0  0  0
  141.2590   74.2410  220.8450 C   0  0  0  0  0  0  0  0  0  0  0  0
  142.1670   75.1150  220.2500 C   0  0  0  0  0  0  0  0  0  0  0  0
  143.4650   74.7490  219.9620 C   0  0  0  0  0  0  0  0  0  0  0  0
  141.6420   76.4920  219.9420 C   0  0  0  0  0  0  0  0  0  0  0  0
  140.9580   76.9280  221.2360 C   0  0  0  0  0  0  0  0  0  0  0  0
  139.8040   76.0870  221.4630 N   0  0  0  0  0  0  0  0  0  0  0  0
  138.5850   76.5890  221.9980 C   0  0  0  0  0  0  0  0  0  0  0  0
  138.2150   77.8720  221.8380 N   0  0  0  0  0  0  0  0  0  0  0  0
  137.0840   78.3880  222.3190 C   0  0  0  0  0  0  0  0  0  0  0  0
  136.7290   79.7550  222.1280 N   0  0  0  0  0  0  0  0  0  0  0  0
  136.5280   80.6010  223.2740 C   0  0  0  0  0  0  0  0  0  0  0  0
  137.8600   81.1820  223.6410 C   0  0  0  0  0  0  0  0  0  0  0  0
  138.8040   80.4660  224.2230 C   0  0  0  0  0  0  0  0  0  0  0  0
  140.1440   80.2950  223.6970 C   0  0  0  0  0  0  0  0  0  0  0  0
  140.7260   81.2890  222.9060 C   0  0  0  0  0  0  0  0  0  0  0  0
  141.9970   81.1650  222.3860 C   0  0  0  0  0  0  0  0  0  0  0  0
  142.7640   80.0270  222.6330 C   0  0  0  0  0  0  0  0  0  0  0  0
  142.1960   79.0410  223.4130 C   0  0  0  0  0  0  0  0  0  0  0  0
  140.9240   79.1820  223.9240 C   0  0  0  0  0  0  0  0  0  0  0  0
  136.2710   77.5560  223.0070 N   0  0  0  0  0  0  0  0  0  0  0  0
  136.5830   76.2620  223.2020 C   0  0  0  0  0  0  0  0  0  0  0  0
  135.6910   75.4290  223.9330 N   0  0  0  0  0  0  0  0  0  0  0  0
  135.8210   73.9940  223.8040 C   0  0  0  0  0  0  0  0  0  0  0  0
  134.4350   73.3480  223.9090 C   0  0  0  0  0  0  0  0  0  0  0  0
  133.8390   73.7850  225.1790 C   0  0  0  0  0  0  0  0  0  0  0  0
  133.1480   72.8520  225.9470 C   0  0  0  0  0  0  0  0  0  0  0  0
  132.5840   73.2490  227.1400 C   0  0  0  0  0  0  0  0  0  0  0  0
  132.7220   74.5600  227.5370 C   0  0  0  0  0  0  0  0  0  0  0  0
  133.3940   75.4880  226.7980 C   0  0  0  0  0  0  0  0  0  0  0  0
  133.9600   75.0850  225.5990 C   0  0  0  0  0  0  0  0  0  0  0  0
  134.7000   76.0630  224.7680 C   0  0  0  0  0  0  0  0  0  0  0  0
  137.7390   75.7990  222.6910 N   0  0  0  0  0  0  0  0  0  0  0  0
  139.8820   74.6760  221.1360 C   0  0  0  0  0  0  0  0  0  0  0  0
  145.1040   73.1080  217.6510 H   0  0  0  0  0  0  0  0  0  0  0  0
  145.9030   74.4650  218.1950 H   0  0  0  0  0  0  0  0  0  0  0  0
  143.3744   71.5712  221.0923 H   0  0  0  0  0  0  0  0  0  0  0  0
  141.0502   72.2510  221.6053 H   0  0  0  0  0  0  0  0  0  0  0  0
  144.1427   75.4775  219.4930 H   0  0  0  0  0  0  0  0  0  0  0  0
  142.4650   77.1754  219.6859 H   0  0  0  0  0  0  0  0  0  0  0  0
  140.9589   76.5002  219.0799 H   0  0  0  0  0  0  0  0  0  0  0  0
  141.6599   76.8264  222.0769 H   0  0  0  0  0  0  0  0  0  0  0  0
  140.6428   77.9787  221.1548 H   0  0  0  0  0  0  0  0  0  0  0  0
  136.6270   80.0960  221.1430 H   0  0  0  0  0  0  0  0  0  0  0  0
  135.8213   81.4070  223.0271 H   0  0  0  0  0  0  0  0  0  0  0  0
  136.1106   80.0254  224.1134 H   0  0  0  0  0  0  0  0  0  0  0  0
  138.0576   82.2408  223.4178 H   0  0  0  0  0  0  0  0  0  0  0  0
  138.5572   79.9654  225.1709 H   0  0  0  0  0  0  0  0  0  0  0  0
  140.1506   82.2015  222.6908 H   0  0  0  0  0  0  0  0  0  0  0  0
  142.4116   81.9749  221.7678 H   0  0  0  0  0  0  0  0  0  0  0  0
  143.7792   79.9200  222.2232 H   0  0  0  0  0  0  0  0  0  0  0  0
  142.7680   78.1270  223.6307 H   0  0  0  0  0  0  0  0  0  0  0  0
  140.5128   78.3694  224.5409 H   0  0  0  0  0  0  0  0  0  0  0  0
  136.2663   73.7517  222.8278 H   0  0  0  0  0  0  0  0  0  0  0  0
  136.4684   73.6092  224.6058 H   0  0  0  0  0  0  0  0  0  0  0  0
  133.8050   73.6718  223.0674 H   0  0  0  0  0  0  0  0  0  0  0  0
  134.5152   72.2514  223.8757 H   0  0  0  0  0  0  0  0  0  0  0  0
  133.0533   71.8106  225.6057 H   0  0  0  0  0  0  0  0  0  0  0  0
  132.0328   72.5306  227.7645 H   0  0  0  0  0  0  0  0  0  0  0  0
  132.2711   74.8719  228.4906 H   0  0  0  0  0  0  0  0  0  0  0  0
  133.4844   76.5282  227.1441 H   0  0  0  0  0  0  0  0  0  0  0  0
  133.9836   76.5957  224.1254 H   0  0  0  0  0  0  0  0  0  0  0  0
  135.2218   76.7552  225.4452 H   0  0  0  0  0  0  0  0  0  0  0  0
  139.5008   74.0945  221.9884 H   0  0  0  0  0  0  0  0  0  0  0  0
  139.2796   74.5082  220.2311 H   0  0  0  0  0  0  0  0  0  0  0  0
  1  2  1  0
  2  3  2  0
  2  4  2  0
  2  5  1  0
  5  6  2  0
  6  7  1  0
  7  8  2  0
  8  9  1  0
  9 10  2  0
  9 11  1  0
 11 12  1  0
 12 13  1  0
 13 14  1  0
 14 15  2  0
 15 16  1  0
 16 17  1  0
 17 18  1  0
 18 19  1  0
 19 20  2  0
 20 21  1  0
 21 22  2  0
 22 23  1  0
 23 24  2  0
 24 25  1  0
 25 26  2  0
 16 27  2  0
 27 28  1  0
 28 29  1  0
 29 30  1  0
 30 31  1  0
 31 32  1  0
 32 33  2  0
 33 34  1  0
 34 35  2  0
 35 36  1  0
 36 37  2  0
 37 38  1  0
 28 39  2  0
 13 40  1  0
 10  5  1  0
 39 14  1  0
 40  8  1  0
 26 21  1  0
 38 29  1  0
 37 32  1  0
  1 41  1  0
  1 42  1  0
  6 43  1  0
  7 44  1  0
 10 45  1  0
 11 46  1  0
 11 47  1  0
 12 48  1  0
 12 49  1  0
 17 50  1  0
 18 51  1  0
 18 52  1  0
 19 53  1  0
 20 54  1  0
 22 55  1  0
 23 56  1  0
 24 57  1  0
 25 58  1  0
 26 59  1  0
 30 60  1  0
 30 61  1  0
 31 62  1  0
 31 63  1  0
 33 64  1  0
 34 65  1  0
 35 66  1  0
 36 67  1  0
 38 68  1  0
 38 69  1  0
 40 70  1  0
 40 71  1  0
M  END
>  <smiles>  (23) 
NS(=O)(=O)c1ccc2c(c1)CCN(c1nc(NC/C=C/c3ccccc3)nc(N3CCc4ccccc4C3)n1)C2

>  <score_type>  (23) 
oracle

>  <origin>  (23) 
autodockgpu

>  <m_score__min__energy>  (23) 
-10.630000000000001

>  <m_primary>  (23) 
energy

>  <rmsd>  (23) 
10.418575729412188

>  <m_score__min__rmsd>  (23) 
10.418575729412188

>  <meeko>  (23) 
{"free_energy": -10.03, "intermolecular_energy": -12.72, "internal_energy": -1.96, "cluster_size": 42, "cluster_id": 2, "rank_in_cluster": 34}

>  <energy>  (23) 
-10.34

>  <cluster_rmsd>  (23) 
0.25

>  <cluster>  (23) 
2

$$$$

     RDKit          3D

 71 76  0  0  0  0  0  0  0  0999 V2000
  145.9830   73.4620  218.3490 N   0  0  0  0  0  0  0  0  0  0  0  0
  145.5630   72.9620  219.9630 S   0  0  0  0  0  0  0  0  0  0  0  0
  145.7100   71.4850  220.0720 O   0  0  0  0  0  0  0  0  0  0  0  0
  146.5510   73.6220  220.8860 O   0  0  0  0  0  0  0  0  0  0  0  0
  143.9320   73.4400  220.3120 C   0  0  0  0  0  0  0  0  0  0  0  0
  143.0230   72.5260  220.8330 C   0  0  0  0  0  0  0  0  0  0  0  0
  141.7110   72.9140  221.1130 C   0  0  0  0  0  0  0  0  0  0  0  0
  141.2630   74.1980  220.8890 C   0  0  0  0  0  0  0  0  0  0  0  0
  142.1930   75.0930  220.3660 C   0  0  0  0  0  0  0  0  0  0  0  0
  143.4930   74.7270  220.0850 C   0  0  0  0  0  0  0  0  0  0  0  0
  141.6920   76.4920  220.1260 C   0  0  0  0  0  0  0  0  0  0  0  0
  140.9840   76.8620  221.4300 C   0  0  0  0  0  0  0  0  0  0  0  0
  139.8160   76.0240  221.5810 N   0  0  0  0  0  0  0  0  0  0  0  0
  138.5910   76.5090  222.1180 C   0  0  0  0  0  0  0  0  0  0  0  0
  138.2230   77.7970  221.9940 N   0  0  0  0  0  0  0  0  0  0  0  0
  137.0870   78.2980  222.4780 C   0  0  0  0  0  0  0  0  0  0  0  0
  136.7330   79.6710  222.3240 N   0  0  0  0  0  0  0  0  0  0  0  0
  137.4670   80.4910  221.3970 C   0  0  0  0  0  0  0  0  0  0  0  0
  138.2730   81.4650  222.2020 C   0  0  0  0  0  0  0  0  0  0  0  0
  138.9790   81.0930  223.2550 C   0  0  0  0  0  0  0  0  0  0  0  0
  140.3180   80.5410  223.1880 C   0  0  0  0  0  0  0  0  0  0  0  0
  140.6270   79.3530  223.8560 C   0  0  0  0  0  0  0  0  0  0  0  0
  141.8870   78.7950  223.8170 C   0  0  0  0  0  0  0  0  0  0  0  0
  142.9180   79.4010  223.1010 C   0  0  0  0  0  0  0  0  0  0  0  0
  142.6200   80.5750  222.4390 C   0  0  0  0  0  0  0  0  0  0  0  0
  141.3550   81.1180  222.4880 C   0  0  0  0  0  0  0  0  0  0  0  0
  136.2660   77.4470  223.1320 N   0  0  0  0  0  0  0  0  0  0  0  0
  136.5760   76.1470  223.2910 C   0  0  0  0  0  0  0  0  0  0  0  0
  135.6770   75.2930  223.9870 N   0  0  0  0  0  0  0  0  0  0  0  0
  135.8280   73.8610  223.8400 C   0  0  0  0  0  0  0  0  0  0  0  0
  134.4470   73.1980  223.9000 C   0  0  0  0  0  0  0  0  0  0  0  0
  133.8140   73.6090  225.1610 C   0  0  0  0  0  0  0  0  0  0  0  0
  133.1150   72.6560  225.8980 C   0  0  0  0  0  0  0  0  0  0  0  0
  132.5180   73.0280  227.0820 C   0  0  0  0  0  0  0  0  0  0  0  0
  132.6290   74.3340  227.5020 C   0  0  0  0  0  0  0  0  0  0  0  0
  133.3090   75.2810  226.7940 C   0  0  0  0  0  0  0  0  0  0  0  0
  133.9090   74.9030  225.6040 C   0  0  0  0  0  0  0  0  0  0  0  0
  134.6580   75.9030  224.8060 C   0  0  0  0  0  0  0  0  0  0  0  0
  137.7380   75.7000  222.7790 N   0  0  0  0  0  0  0  0  0  0  0  0
  139.8840   74.6330  221.1740 C   0  0  0  0  0  0  0  0  0  0  0  0
  145.2800   74.1960  218.0510 H   0  0  0  0  0  0  0  0  0  0  0  0
  146.8880   74.0100  218.4460 H   0  0  0  0  0  0  0  0  0  0  0  0
  143.3394   71.4903  221.0259 H   0  0  0  0  0  0  0  0  0  0  0  0
  141.0127   72.1709  221.5256 H   0  0  0  0  0  0  0  0  0  0  0  0
  144.1893   75.4727  219.6739 H   0  0  0  0  0  0  0  0  0  0  0  0
  142.5287   77.1779  219.9274 H   0  0  0  0  0  0  0  0  0  0  0  0
  141.0287   76.5592  219.2511 H   0  0  0  0  0  0  0  0  0  0  0  0
  141.6655   76.7025  222.2786 H   0  0  0  0  0  0  0  0  0  0  0  0
  140.6837   77.9199  221.4046 H   0  0  0  0  0  0  0  0  0  0  0  0
  135.9400   80.0350  222.9030 H   0  0  0  0  0  0  0  0  0  0  0  0
  138.1342   79.8642  220.7871 H   0  0  0  0  0  0  0  0  0  0  0  0
  136.7813   81.0206  220.7192 H   0  0  0  0  0  0  0  0  0  0  0  0
  138.2769   82.5245  221.9064 H   0  0  0  0  0  0  0  0  0  0  0  0
  138.5206   81.2098  224.2481 H   0  0  0  0  0  0  0  0  0  0  0  0
  139.8387   78.8463  224.4320 H   0  0  0  0  0  0  0  0  0  0  0  0
  142.0816   77.8577  224.3589 H   0  0  0  0  0  0  0  0  0  0  0  0
  143.9261   78.9624  223.0650 H   0  0  0  0  0  0  0  0  0  0  0  0
  143.4057   81.0854  221.8627 H   0  0  0  0  0  0  0  0  0  0  0  0
  141.1641   82.0546  221.9437 H   0  0  0  0  0  0  0  0  0  0  0  0
  136.3008   73.6387  222.8720 H   0  0  0  0  0  0  0  0  0  0  0  0
  136.4598   73.4714  224.6518 H   0  0  0  0  0  0  0  0  0  0  0  0
  133.8348   73.5276  223.0476 H   0  0  0  0  0  0  0  0  0  0  0  0
  134.5406   72.1030  223.8524 H   0  0  0  0  0  0  0  0  0  0  0  0
  133.0407   71.6190  225.5388 H   0  0  0  0  0  0  0  0  0  0  0  0
  131.9615   72.2932  227.6823 H   0  0  0  0  0  0  0  0  0  0  0  0
  132.1494   74.6262  228.4479 H   0  0  0  0  0  0  0  0  0  0  0  0
  133.3791   76.3166  227.1581 H   0  0  0  0  0  0  0  0  0  0  0  0
  133.9515   76.4369  224.1535 H   0  0  0  0  0  0  0  0  0  0  0  0
  135.1542   76.5912  225.5061 H   0  0  0  0  0  0  0  0  0  0  0  0
  139.4763   74.0081  221.9822 H   0  0  0  0  0  0  0  0  0  0  0  0
  139.3002   74.5255  220.2479 H   0  0  0  0  0  0  0  0  0  0  0  0
  1  2  1  0
  2  3  2  0
  2  4  2  0
  2  5  1  0
  5  6  2  0
  6  7  1  0
  7  8  2  0
  8  9  1  0
  9 10  2  0
  9 11  1  0
 11 12  1  0
 12 13  1  0
 13 14  1  0
 14 15  2  0
 15 16  1  0
 16 17  1  0
 17 18  1  0
 18 19  1  0
 19 20  2  0
 20 21  1  0
 21 22  2  0
 22 23  1  0
 23 24  2  0
 24 25  1  0
 25 26  2  0
 16 27  2  0
 27 28  1  0
 28 29  1  0
 29 30  1  0
 30 31  1  0
 31 32  1  0
 32 33  2  0
 33 34  1  0
 34 35  2  0
 35 36  1  0
 36 37  2  0
 37 38  1  0
 28 39  2  0
 13 40  1  0
 10  5  1  0
 39 14  1  0
 40  8  1  0
 26 21  1  0
 38 29  1  0
 37 32  1  0
  1 41  1  0
  1 42  1  0
  6 43  1  0
  7 44  1  0
 10 45  1  0
 11 46  1  0
 11 47  1  0
 12 48  1  0
 12 49  1  0
 17 50  1  0
 18 51  1  0
 18 52  1  0
 19 53  1  0
 20 54  1  0
 22 55  1  0
 23 56  1  0
 24 57  1  0
 25 58  1  0
 26 59  1  0
 30 60  1  0
 30 61  1  0
 31 62  1  0
 31 63  1  0
 33 64  1  0
 34 65  1  0
 35 66  1  0
 36 67  1  0
 38 68  1  0
 38 69  1  0
 40 70  1  0
 40 71  1  0
M  END
>  <smiles>  (24) 
NS(=O)(=O)c1ccc2c(c1)CCN(c1nc(NC/C=C/c3ccccc3)nc(N3CCc4ccccc4C3)n1)C2

>  <score_type>  (24) 
oracle

>  <origin>  (24) 
autodockgpu

>  <m_score__min__energy>  (24) 
-10.630000000000001

>  <m_primary>  (24) 
energy

>  <rmsd>  (24) 
10.508303228550277

>  <m_score__min__rmsd>  (24) 
10.508303228550277

>  <meeko>  (24) 
{"free_energy": -10.2, "intermolecular_energy": -12.89, "internal_energy": -1.96, "cluster_size": 42, "cluster_id": 2, "rank_in_cluster": 21}

>  <energy>  (24) 
-10.32

>  <cluster_rmsd>  (24) 
0.54

>  <cluster>  (24) 
2

$$$$

     RDKit          3D

 71 76  0  0  0  0  0  0  0  0999 V2000
  146.0650   73.4030  218.5550 N   0  0  0  0  0  0  0  0  0  0  0  0
  145.4810   72.7480  220.0590 S   0  0  0  0  0  0  0  0  0  0  0  0
  145.5140   71.2630  219.9920 O   0  0  0  0  0  0  0  0  0  0  0  0
  146.4350   73.2120  221.1260 O   0  0  0  0  0  0  0  0  0  0  0  0
  143.8640   73.3100  220.3470 C   0  0  0  0  0  0  0  0  0  0  0  0
  142.8880   72.4420  220.8210 C   0  0  0  0  0  0  0  0  0  0  0  0
  141.5880   72.8970  221.0530 C   0  0  0  0  0  0  0  0  0  0  0  0
  141.2180   74.2060  220.8250 C   0  0  0  0  0  0  0  0  0  0  0  0
  142.2160   75.0550  220.3490 C   0  0  0  0  0  0  0  0  0  0  0  0
  143.5050   74.6220  220.1170 C   0  0  0  0  0  0  0  0  0  0  0  0
  141.8010   76.4800  220.1050 C   0  0  0  0  0  0  0  0  0  0  0  0
  141.0610   76.8760  221.3830 C   0  0  0  0  0  0  0  0  0  0  0  0
  139.8450   76.1020  221.4780 N   0  0  0  0  0  0  0  0  0  0  0  0
  138.6260   76.6470  221.9710 C   0  0  0  0  0  0  0  0  0  0  0  0
  138.2730   77.9230  221.7330 N   0  0  0  0  0  0  0  0  0  0  0  0
  137.1440   78.4790  222.1720 C   0  0  0  0  0  0  0  0  0  0  0  0
  136.8070   79.8370  221.8970 N   0  0  0  0  0  0  0  0  0  0  0  0
  137.6720   80.8880  222.3630 C   0  0  0  0  0  0  0  0  0  0  0  0
  137.9490   80.6300  223.8130 C   0  0  0  0  0  0  0  0  0  0  0  0
  138.9780   79.9050  224.2140 C   0  0  0  0  0  0  0  0  0  0  0  0
  140.3260   80.0430  223.6980 C   0  0  0  0  0  0  0  0  0  0  0  0
  141.2550   79.0130  223.8630 C   0  0  0  0  0  0  0  0  0  0  0  0
  142.5470   79.1040  223.3870 C   0  0  0  0  0  0  0  0  0  0  0  0
  142.9830   80.2440  222.7130 C   0  0  0  0  0  0  0  0  0  0  0  0
  142.0700   81.2650  222.5470 C   0  0  0  0  0  0  0  0  0  0  0  0
  140.7840   81.1570  223.0290 C   0  0  0  0  0  0  0  0  0  0  0  0
  136.3150   77.6990  222.8990 N   0  0  0  0  0  0  0  0  0  0  0  0
  136.6090   76.4140  223.1720 C   0  0  0  0  0  0  0  0  0  0  0  0
  135.7010   75.6360  223.9420 N   0  0  0  0  0  0  0  0  0  0  0  0
  135.8240   74.1950  223.9100 C   0  0  0  0  0  0  0  0  0  0  0  0
  134.4320   73.5650  224.0340 C   0  0  0  0  0  0  0  0  0  0  0  0
  133.8190   74.0880  225.2630 C   0  0  0  0  0  0  0  0  0  0  0  0
  133.1090   73.2110  226.0790 C   0  0  0  0  0  0  0  0  0  0  0  0
  132.5300   73.6880  227.2340 C   0  0  0  0  0  0  0  0  0  0  0  0
  132.6690   75.0220  227.5470 C   0  0  0  0  0  0  0  0  0  0  0  0
  133.3600   75.8960  226.7600 C   0  0  0  0  0  0  0  0  0  0  0  0
  133.9420   75.4120  225.5990 C   0  0  0  0  0  0  0  0  0  0  0  0
  134.7010   76.3300  224.7170 C   0  0  0  0  0  0  0  0  0  0  0  0
  137.7650   75.9100  222.7010 N   0  0  0  0  0  0  0  0  0  0  0  0
  139.8540   74.7120  221.0590 C   0  0  0  0  0  0  0  0  0  0  0  0
  145.3520   74.1120  218.2200 H   0  0  0  0  0  0  0  0  0  0  0  0
  146.9060   73.9990  218.8100 H   0  0  0  0  0  0  0  0  0  0  0  0
  143.1409   71.3892  221.0149 H   0  0  0  0  0  0  0  0  0  0  0  0
  140.8352   72.1888  221.4295 H   0  0  0  0  0  0  0  0  0  0  0  0
  144.2570   75.3326  219.7435 H   0  0  0  0  0  0  0  0  0  0  0  0
  142.6806   77.1216  219.9481 H   0  0  0  0  0  0  0  0  0  0  0  0
  141.1785   76.5906  219.2048 H   0  0  0  0  0  0  0  0  0  0  0  0
  141.6977   76.6723  222.2566 H   0  0  0  0  0  0  0  0  0  0  0  0
  140.8191   77.9487  221.3566 H   0  0  0  0  0  0  0  0  0  0  0  0
  135.9280   80.0180  221.3580 H   0  0  0  0  0  0  0  0  0  0  0  0
  138.6130   80.8810  221.7933 H   0  0  0  0  0  0  0  0  0  0  0  0
  137.1973   81.8709  222.2270 H   0  0  0  0  0  0  0  0  0  0  0  0
  137.2735   81.0583  224.5681 H   0  0  0  0  0  0  0  0  0  0  0  0
  138.8004   79.1465  224.9907 H   0  0  0  0  0  0  0  0  0  0  0  0
  140.9462   78.0983  224.3903 H   0  0  0  0  0  0  0  0  0  0  0  0
  143.2424   78.2658  223.5414 H   0  0  0  0  0  0  0  0  0  0  0  0
  144.0109   80.3259  222.3300 H   0  0  0  0  0  0  0  0  0  0  0  0
  142.3744   82.1816  222.0204 H   0  0  0  0  0  0  0  0  0  0  0  0
  140.0919   81.9976  222.8728 H   0  0  0  0  0  0  0  0  0  0  0  0
  136.2837   73.8864  222.9595 H   0  0  0  0  0  0  0  0  0  0  0  0
  136.4558   73.8604  224.7460 H   0  0  0  0  0  0  0  0  0  0  0  0
  133.8178   73.8366  223.1628 H   0  0  0  0  0  0  0  0  0  0  0  0
  134.5050   72.4681  224.0736 H   0  0  0  0  0  0  0  0  0  0  0  0
  133.0118   72.1503  225.8045 H   0  0  0  0  0  0  0  0  0  0  0  0
  131.9657   73.0145  227.8958 H   0  0  0  0  0  0  0  0  0  0  0  0
  132.2035   75.3983  228.4699 H   0  0  0  0  0  0  0  0  0  0  0  0
  133.4528   76.9559  227.0392 H   0  0  0  0  0  0  0  0  0  0  0  0
  133.9981   76.8227  224.0291 H   0  0  0  0  0  0  0  0  0  0  0  0
  135.2160   77.0635  225.3548 H   0  0  0  0  0  0  0  0  0  0  0  0
  139.3809   74.1032  221.8436 H   0  0  0  0  0  0  0  0  0  0  0  0
  139.3028   74.6437  220.1095 H   0  0  0  0  0  0  0  0  0  0  0  0
  1  2  1  0
  2  3  2  0
  2  4  2  0
  2  5  1  0
  5  6  2  0
  6  7  1  0
  7  8  2  0
  8  9  1  0
  9 10  2  0
  9 11  1  0
 11 12  1  0
 12 13  1  0
 13 14  1  0
 14 15  2  0
 15 16  1  0
 16 17  1  0
 17 18  1  0
 18 19  1  0
 19 20  2  0
 20 21  1  0
 21 22  2  0
 22 23  1  0
 23 24  2  0
 24 25  1  0
 25 26  2  0
 16 27  2  0
 27 28  1  0
 28 29  1  0
 29 30  1  0
 30 31  1  0
 31 32  1  0
 32 33  2  0
 33 34  1  0
 34 35  2  0
 35 36  1  0
 36 37  2  0
 37 38  1  0
 28 39  2  0
 13 40  1  0
 10  5  1  0
 39 14  1  0
 40  8  1  0
 26 21  1  0
 38 29  1  0
 37 32  1  0
  1 41  1  0
  1 42  1  0
  6 43  1  0
  7 44  1  0
 10 45  1  0
 11 46  1  0
 11 47  1  0
 12 48  1  0
 12 49  1  0
 17 50  1  0
 18 51  1  0
 18 52  1  0
 19 53  1  0
 20 54  1  0
 22 55  1  0
 23 56  1  0
 24 57  1  0
 25 58  1  0
 26 59  1  0
 30 60  1  0
 30 61  1  0
 31 62  1  0
 31 63  1  0
 33 64  1  0
 34 65  1  0
 35 66  1  0
 36 67  1  0
 38 68  1  0
 38 69  1  0
 40 70  1  0
 40 71  1  0
M  END
>  <smiles>  (25) 
NS(=O)(=O)c1ccc2c(c1)CCN(c1nc(NC/C=C/c3ccccc3)nc(N3CCc4ccccc4C3)n1)C2

>  <score_type>  (25) 
oracle

>  <origin>  (25) 
autodockgpu

>  <m_score__min__energy>  (25) 
-10.630000000000001

>  <m_primary>  (25) 
energy

>  <rmsd>  (25) 
10.338323051856968

>  <m_score__min__rmsd>  (25) 
10.338323051856968

>  <meeko>  (25) 
{"free_energy": -10.36, "intermolecular_energy": -13.05, "internal_energy": -1.92, "cluster_size": 42, "cluster_id": 2, "rank_in_cluster": 13}

>  <energy>  (25) 
-10.25

>  <cluster_rmsd>  (25) 
1.03

>  <cluster>  (25) 
2

$$$$

     RDKit          3D

 71 76  0  0  0  0  0  0  0  0999 V2000
  146.6180   73.7620  219.6570 N   0  0  0  0  0  0  0  0  0  0  0  0
  145.1050   73.0590  219.1580 S   0  0  0  0  0  0  0  0  0  0  0  0
  145.0380   73.0460  217.6720 O   0  0  0  0  0  0  0  0  0  0  0  0
  145.1060   71.6410  219.6610 O   0  0  0  0  0  0  0  0  0  0  0  0
  143.7910   73.9800  219.8190 C   0  0  0  0  0  0  0  0  0  0  0  0
  143.6930   75.3450  219.5770 C   0  0  0  0  0  0  0  0  0  0  0  0
  142.6340   76.0840  220.1100 C   0  0  0  0  0  0  0  0  0  0  0  0
  141.6550   75.5050  220.8870 C   0  0  0  0  0  0  0  0  0  0  0  0
  141.7770   74.1350  221.1150 C   0  0  0  0  0  0  0  0  0  0  0  0
  142.8160   73.3910  220.5950 C   0  0  0  0  0  0  0  0  0  0  0  0
  140.7010   73.5140  221.9640 C   0  0  0  0  0  0  0  0  0  0  0  0
  139.4000   74.0340  221.3550 C   0  0  0  0  0  0  0  0  0  0  0  0
  139.3210   75.4610  221.5660 N   0  0  0  0  0  0  0  0  0  0  0  0
  138.1000   76.1240  221.8740 C   0  0  0  0  0  0  0  0  0  0  0  0
  137.7230   77.2480  221.2370 N   0  0  0  0  0  0  0  0  0  0  0  0
  136.5900   77.9030  221.4890 C   0  0  0  0  0  0  0  0  0  0  0  0
  136.2280   79.0930  220.7910 N   0  0  0  0  0  0  0  0  0  0  0  0
  136.4130   80.3690  221.4270 C   0  0  0  0  0  0  0  0  0  0  0  0
  137.8860   80.5600  221.6270 C   0  0  0  0  0  0  0  0  0  0  0  0
  138.4460   80.5160  222.8230 C   0  0  0  0  0  0  0  0  0  0  0  0
  139.8550   80.2710  223.0580 C   0  0  0  0  0  0  0  0  0  0  0  0
  140.2970   79.0090  223.4590 C   0  0  0  0  0  0  0  0  0  0  0  0
  141.6280   78.7350  223.6930 C   0  0  0  0  0  0  0  0  0  0  0  0
  142.6000   79.7220  223.5370 C   0  0  0  0  0  0  0  0  0  0  0  0
  142.1710   80.9730  223.1410 C   0  0  0  0  0  0  0  0  0  0  0  0
  140.8370   81.2270  222.9120 C   0  0  0  0  0  0  0  0  0  0  0  0
  135.7820   77.3930  222.4450 N   0  0  0  0  0  0  0  0  0  0  0  0
  136.1010   76.2720  223.1180 C   0  0  0  0  0  0  0  0  0  0  0  0
  135.2140   75.7780  224.1140 N   0  0  0  0  0  0  0  0  0  0  0  0
  134.1640   76.6470  224.5980 C   0  0  0  0  0  0  0  0  0  0  0  0
  133.9070   76.3530  226.0800 C   0  0  0  0  0  0  0  0  0  0  0  0
  133.6030   74.9210  226.2000 C   0  0  0  0  0  0  0  0  0  0  0  0
  132.5740   74.5260  227.0500 C   0  0  0  0  0  0  0  0  0  0  0  0
  132.2790   73.1850  227.1720 C   0  0  0  0  0  0  0  0  0  0  0  0
  133.0140   72.2740  226.4470 C   0  0  0  0  0  0  0  0  0  0  0  0
  134.0260   72.6420  225.6100 C   0  0  0  0  0  0  0  0  0  0  0  0
  134.3190   73.9910  225.4910 C   0  0  0  0  0  0  0  0  0  0  0  0
  135.4110   74.4310  224.5900 C   0  0  0  0  0  0  0  0  0  0  0  0
  137.2590   75.6550  222.8180 N   0  0  0  0  0  0  0  0  0  0  0  0
  140.5280   76.2600  221.4630 C   0  0  0  0  0  0  0  0  0  0  0  0
  147.0770   74.1720  218.7940 H   0  0  0  0  0  0  0  0  0  0  0  0
  146.3590   74.6180  220.2300 H   0  0  0  0  0  0  0  0  0  0  0  0
  144.4543   75.8468  218.9617 H   0  0  0  0  0  0  0  0  0  0  0  0
  142.5802   77.1629  219.9025 H   0  0  0  0  0  0  0  0  0  0  0  0
  142.8670   72.3120  220.8027 H   0  0  0  0  0  0  0  0  0  0  0  0
  140.7460   72.4162  221.9103 H   0  0  0  0  0  0  0  0  0  0  0  0
  140.8016   73.7717  223.0286 H   0  0  0  0  0  0  0  0  0  0  0  0
  139.3856   73.8191  220.2763 H   0  0  0  0  0  0  0  0  0  0  0  0
  138.5415   73.5390  221.8324 H   0  0  0  0  0  0  0  0  0  0  0  0
  135.8340   78.9870  219.8270 H   0  0  0  0  0  0  0  0  0  0  0  0
  136.0134   81.1696  220.7872 H   0  0  0  0  0  0  0  0  0  0  0  0
  135.8823   80.4039  222.3899 H   0  0  0  0  0  0  0  0  0  0  0  0
  138.5223   80.7430  220.7486 H   0  0  0  0  0  0  0  0  0  0  0  0
  137.7997   80.6760  223.6986 H   0  0  0  0  0  0  0  0  0  0  0  0
  139.5579   78.2054  223.5929 H   0  0  0  0  0  0  0  0  0  0  0  0
  141.9268   77.7240  224.0070 H   0  0  0  0  0  0  0  0  0  0  0  0
  143.6640   79.5128  223.7217 H   0  0  0  0  0  0  0  0  0  0  0  0
  142.9065   81.7798  223.0062 H   0  0  0  0  0  0  0  0  0  0  0  0
  140.5417   82.2391  222.5982 H   0  0  0  0  0  0  0  0  0  0  0  0
  134.4716   77.6964  224.4794 H   0  0  0  0  0  0  0  0  0  0  0  0
  133.2438   76.4698  224.0219 H   0  0  0  0  0  0  0  0  0  0  0  0
  134.8012   76.5980  226.6720 H   0  0  0  0  0  0  0  0  0  0  0  0
  133.0697   76.9595  226.4557 H   0  0  0  0  0  0  0  0  0  0  0  0
  132.0028   75.2752  227.6178 H   0  0  0  0  0  0  0  0  0  0  0  0
  131.4702   72.8484  227.8372 H   0  0  0  0  0  0  0  0  0  0  0  0
  132.7751   71.2049  226.5470 H   0  0  0  0  0  0  0  0  0  0  0  0
  134.5941   71.8884  225.0448 H   0  0  0  0  0  0  0  0  0  0  0  0
  136.3634   74.3847  225.1385 H   0  0  0  0  0  0  0  0  0  0  0  0
  135.4193   73.7618  223.7170 H   0  0  0  0  0  0  0  0  0  0  0  0
  140.3218   77.1302  220.8225 H   0  0  0  0  0  0  0  0  0  0  0  0
  140.8148   76.5664  222.4798 H   0  0  0  0  0  0  0  0  0  0  0  0
  1  2  1  0
  2  3  2  0
  2  4  2  0
  2  5  1  0
  5  6  2  0
  6  7  1  0
  7  8  2  0
  8  9  1  0
  9 10  2  0
  9 11  1  0
 11 12  1  0
 12 13  1  0
 13 14  1  0
 14 15  2  0
 15 16  1  0
 16 17  1  0
 17 18  1  0
 18 19  1  0
 19 20  2  0
 20 21  1  0
 21 22  2  0
 22 23  1  0
 23 24  2  0
 24 25  1  0
 25 26  2  0
 16 27  2  0
 27 28  1  0
 28 29  1  0
 29 30  1  0
 30 31  1  0
 31 32  1  0
 32 33  2  0
 33 34  1  0
 34 35  2  0
 35 36  1  0
 36 37  2  0
 37 38  1  0
 28 39  2  0
 13 40  1  0
 10  5  1  0
 39 14  1  0
 40  8  1  0
 26 21  1  0
 38 29  1  0
 37 32  1  0
  1 41  1  0
  1 42  1  0
  6 43  1  0
  7 44  1  0
 10 45  1  0
 11 46  1  0
 11 47  1  0
 12 48  1  0
 12 49  1  0
 17 50  1  0
 18 51  1  0
 18 52  1  0
 19 53  1  0
 20 54  1  0
 22 55  1  0
 23 56  1  0
 24 57  1  0
 25 58  1  0
 26 59  1  0
 30 60  1  0
 30 61  1  0
 31 62  1  0
 31 63  1  0
 33 64  1  0
 34 65  1  0
 35 66  1  0
 36 67  1  0
 38 68  1  0
 38 69  1  0
 40 70  1  0
 40 71  1  0
M  END
>  <smiles>  (26) 
NS(=O)(=O)c1ccc2c(c1)CCN(c1nc(NC/C=C/c3ccccc3)nc(N3CCc4ccccc4C3)n1)C2

>  <score_type>  (26) 
oracle

>  <origin>  (26) 
autodockgpu

>  <m_score__min__energy>  (26) 
-10.630000000000001

>  <m_primary>  (26) 
energy

>  <rmsd>  (26) 
11.077723046779175

>  <m_score__min__rmsd>  (26) 
11.077723046779175

>  <meeko>  (26) 
{"free_energy": -9.46, "intermolecular_energy": -12.14, "internal_energy": -1.92, "cluster_size": 42, "cluster_id": 2, "rank_in_cluster": 42}

>  <energy>  (26) 
-10.21

>  <cluster_rmsd>  (26) 
0.41

>  <cluster>  (26) 
2

$$$$

     RDKit          3D

 71 76  0  0  0  0  0  0  0  0999 V2000
  145.8680   71.5250  220.0850 N   0  0  0  0  0  0  0  0  0  0  0  0
  145.7360   73.2290  219.7510 S   0  0  0  0  0  0  0  0  0  0  0  0
  146.6920   73.9730  220.6150 O   0  0  0  0  0  0  0  0  0  0  0  0
  146.1290   73.4140  218.3110 O   0  0  0  0  0  0  0  0  0  0  0  0
  144.1080   73.7530  220.0510 C   0  0  0  0  0  0  0  0  0  0  0  0
  143.1850   72.8940  220.6350 C   0  0  0  0  0  0  0  0  0  0  0  0
  141.8760   73.3190  220.8760 C   0  0  0  0  0  0  0  0  0  0  0  0
  141.4470   74.5870  220.5510 C   0  0  0  0  0  0  0  0  0  0  0  0
  142.3920   75.4280  219.9660 C   0  0  0  0  0  0  0  0  0  0  0  0
  143.6880   75.0250  219.7230 C   0  0  0  0  0  0  0  0  0  0  0  0
  141.9110   76.8110  219.6170 C   0  0  0  0  0  0  0  0  0  0  0  0
  141.2010   77.2890  220.8830 C   0  0  0  0  0  0  0  0  0  0  0  0
  140.0210   76.4800  221.0910 N   0  0  0  0  0  0  0  0  0  0  0  0
  138.7990   77.0210  221.5820 C   0  0  0  0  0  0  0  0  0  0  0  0
  138.4410   78.2950  221.3420 N   0  0  0  0  0  0  0  0  0  0  0  0
  137.3090   78.8460  221.7780 C   0  0  0  0  0  0  0  0  0  0  0  0
  136.9660   80.2030  221.5020 N   0  0  0  0  0  0  0  0  0  0  0  0
  137.7600   81.2620  222.0650 C   0  0  0  0  0  0  0  0  0  0  0  0
  137.8380   81.0250  223.5430 C   0  0  0  0  0  0  0  0  0  0  0  0
  138.7400   80.2240  224.0810 C   0  0  0  0  0  0  0  0  0  0  0  0
  140.1280   80.1600  223.6680 C   0  0  0  0  0  0  0  0  0  0  0  0
  140.8660   78.9870  223.8430 C   0  0  0  0  0  0  0  0  0  0  0  0
  142.1880   78.8860  223.4640 C   0  0  0  0  0  0  0  0  0  0  0  0
  142.8500   79.9650  222.8810 C   0  0  0  0  0  0  0  0  0  0  0  0
  142.1280   81.1280  222.7050 C   0  0  0  0  0  0  0  0  0  0  0  0
  140.8080   81.2110  223.0900 C   0  0  0  0  0  0  0  0  0  0  0  0
  136.4820   78.0630  222.5040 N   0  0  0  0  0  0  0  0  0  0  0  0
  136.7810   76.7800  222.7800 C   0  0  0  0  0  0  0  0  0  0  0  0
  135.8750   75.9990  223.5480 N   0  0  0  0  0  0  0  0  0  0  0  0
  135.9760   74.5570  223.4820 C   0  0  0  0  0  0  0  0  0  0  0  0
  134.5770   73.9450  223.6180 C   0  0  0  0  0  0  0  0  0  0  0  0
  133.9930   74.4490  224.8680 C   0  0  0  0  0  0  0  0  0  0  0  0
  133.2850   73.5650  225.6780 C   0  0  0  0  0  0  0  0  0  0  0  0
  132.7330   74.0250  226.8540 C   0  0  0  0  0  0  0  0  0  0  0  0
  132.8980   75.3490  227.1930 C   0  0  0  0  0  0  0  0  0  0  0  0
  133.5880   76.2300  226.4120 C   0  0  0  0  0  0  0  0  0  0  0  0
  134.1420   75.7630  225.2310 C   0  0  0  0  0  0  0  0  0  0  0  0
  134.8990   76.6890  224.3560 C   0  0  0  0  0  0  0  0  0  0  0  0
  137.9400   76.2800  222.3110 N   0  0  0  0  0  0  0  0  0  0  0  0
  140.0720   75.0610  220.7930 C   0  0  0  0  0  0  0  0  0  0  0  0
  146.7350   71.3850  220.6780 H   0  0  0  0  0  0  0  0  0  0  0  0
  145.0730   71.3030  220.7530 H   0  0  0  0  0  0  0  0  0  0  0  0
  143.4869   71.8725  220.9094 H   0  0  0  0  0  0  0  0  0  0  0  0
  141.1656   72.6189  221.3399 H   0  0  0  0  0  0  0  0  0  0  0  0
  144.3969   75.7279  219.2611 H   0  0  0  0  0  0  0  0  0  0  0  0
  142.7579   77.4688  219.3722 H   0  0  0  0  0  0  0  0  0  0  0  0
  141.2533   76.8193  218.7353 H   0  0  0  0  0  0  0  0  0  0  0  0
  141.8757   77.1869  221.7458 H   0  0  0  0  0  0  0  0  0  0  0  0
  140.9145   78.3454  220.7738 H   0  0  0  0  0  0  0  0  0  0  0  0
  136.1350   80.3770  220.8890 H   0  0  0  0  0  0  0  0  0  0  0  0
  138.7694   81.2484  221.6280 H   0  0  0  0  0  0  0  0  0  0  0  0
  137.3085   82.2421  221.8516 H   0  0  0  0  0  0  0  0  0  0  0  0
  137.1199   81.5353  224.2018 H   0  0  0  0  0  0  0  0  0  0  0  0
  138.4163   79.5612  224.8970 H   0  0  0  0  0  0  0  0  0  0  0  0
  140.3758   78.1140  224.2987 H   0  0  0  0  0  0  0  0  0  0  0  0
  142.7275   77.9408  223.6240 H   0  0  0  0  0  0  0  0  0  0  0  0
  143.9038   79.8927  222.5740 H   0  0  0  0  0  0  0  0  0  0  0  0
  142.6147   82.0031  222.2498 H   0  0  0  0  0  0  0  0  0  0  0  0
  140.2724   82.1582  222.9291 H   0  0  0  0  0  0  0  0  0  0  0  0
  136.4135   74.2630  222.5165 H   0  0  0  0  0  0  0  0  0  0  0  0
  136.6180   74.1946  224.2984 H   0  0  0  0  0  0  0  0  0  0  0  0
  133.9517   74.2444  222.7640 H   0  0  0  0  0  0  0  0  0  0  0  0
  134.6349   72.8466  223.6332 H   0  0  0  0  0  0  0  0  0  0  0  0
  133.1677   72.5119  225.3827 H   0  0  0  0  0  0  0  0  0  0  0  0
  132.1700   73.3456  227.5108 H   0  0  0  0  0  0  0  0  0  0  0  0
  132.4553   75.7118  228.1323 H   0  0  0  0  0  0  0  0  0  0  0  0
  133.7013   77.2823  226.7119 H   0  0  0  0  0  0  0  0  0  0  0  0
  134.1915   77.2069  223.6918 H   0  0  0  0  0  0  0  0  0  0  0  0
  135.4361   77.4001  225.0009 H   0  0  0  0  0  0  0  0  0  0  0  0
  139.6516   74.5058  221.6445 H   0  0  0  0  0  0  0  0  0  0  0  0
  139.4915   74.8899  219.8744 H   0  0  0  0  0  0  0  0  0  0  0  0
  1  2  1  0
  2  3  2  0
  2  4  2  0
  2  5  1  0
  5  6  2  0
  6  7  1  0
  7  8  2  0
  8  9  1  0
  9 10  2  0
  9 11  1  0
 11 12  1  0
 12 13  1  0
 13 14  1  0
 14 15  2  0
 15 16  1  0
 16 17  1  0
 17 18  1  0
 18 19  1  0
 19 20  2  0
 20 21  1  0
 21 22  2  0
 22 23  1  0
 23 24  2  0
 24 25  1  0
 25 26  2  0
 16 27  2  0
 27 28  1  0
 28 29  1  0
 29 30  1  0
 30 31  1  0
 31 32  1  0
 32 33  2  0
 33 34  1  0
 34 35  2  0
 35 36  1  0
 36 37  2  0
 37 38  1  0
 28 39  2  0
 13 40  1  0
 10  5  1  0
 39 14  1  0
 40  8  1  0
 26 21  1  0
 38 29  1  0
 37 32  1  0
  1 41  1  0
  1 42  1  0
  6 43  1  0
  7 44  1  0
 10 45  1  0
 11 46  1  0
 11 47  1  0
 12 48  1  0
 12 49  1  0
 17 50  1  0
 18 51  1  0
 18 52  1  0
 19 53  1  0
 20 54  1  0
 22 55  1  0
 23 56  1  0
 24 57  1  0
 25 58  1  0
 26 59  1  0
 30 60  1  0
 30 61  1  0
 31 62  1  0
 31 63  1  0
 33 64  1  0
 34 65  1  0
 35 66  1  0
 36 67  1  0
 38 68  1  0
 38 69  1  0
 40 70  1  0
 40 71  1  0
M  END
>  <smiles>  (27) 
NS(=O)(=O)c1ccc2c(c1)CCN(c1nc(NC/C=C/c3ccccc3)nc(N3CCc4ccccc4C3)n1)C2

>  <score_type>  (27) 
oracle

>  <origin>  (27) 
autodockgpu

>  <m_score__min__energy>  (27) 
-10.630000000000001

>  <m_primary>  (27) 
energy

>  <rmsd>  (27) 
9.879684978940444

>  <m_score__min__rmsd>  (27) 
9.879684978940444

>  <meeko>  (27) 
{"free_energy": -9.85, "intermolecular_energy": -12.54, "internal_energy": -2.06, "cluster_size": 42, "cluster_id": 2, "rank_in_cluster": 38}

>  <energy>  (27) 
-10.21

>  <cluster_rmsd>  (27) 
1.01

>  <cluster>  (27) 
2

$$$$

     RDKit          3D

 71 76  0  0  0  0  0  0  0  0999 V2000
  146.3420   73.0840  221.4740 N   0  0  0  0  0  0  0  0  0  0  0  0
  145.3690   72.7220  220.0750 S   0  0  0  0  0  0  0  0  0  0  0  0
  145.9460   73.4060  218.8870 O   0  0  0  0  0  0  0  0  0  0  0  0
  145.4510   71.2330  219.8720 O   0  0  0  0  0  0  0  0  0  0  0  0
  143.7390   73.2490  220.3510 C   0  0  0  0  0  0  0  0  0  0  0  0
  142.7560   72.3420  220.7290 C   0  0  0  0  0  0  0  0  0  0  0  0
  141.4450   72.7700  220.9500 C   0  0  0  0  0  0  0  0  0  0  0  0
  141.0710   74.0880  220.8070 C   0  0  0  0  0  0  0  0  0  0  0  0
  142.0750   74.9770  220.4260 C   0  0  0  0  0  0  0  0  0  0  0  0
  143.3750   74.5710  220.2050 C   0  0  0  0  0  0  0  0  0  0  0  0
  141.6540   76.4140  220.2740 C   0  0  0  0  0  0  0  0  0  0  0  0
  140.8700   76.7100  221.5520 C   0  0  0  0  0  0  0  0  0  0  0  0
  139.6590   75.9210  221.5510 N   0  0  0  0  0  0  0  0  0  0  0  0
  138.4200   76.4210  222.0430 C   0  0  0  0  0  0  0  0  0  0  0  0
  138.0170   77.6810  221.7990 N   0  0  0  0  0  0  0  0  0  0  0  0
  136.8670   78.1930  222.2360 C   0  0  0  0  0  0  0  0  0  0  0  0
  136.4760   79.5360  221.9540 N   0  0  0  0  0  0  0  0  0  0  0  0
  136.5480   80.5260  222.9950 C   0  0  0  0  0  0  0  0  0  0  0  0
  137.9660   81.0070  223.0580 C   0  0  0  0  0  0  0  0  0  0  0  0
  138.8480   80.4880  223.8940 C   0  0  0  0  0  0  0  0  0  0  0  0
  140.2430   80.2570  223.5720 C   0  0  0  0  0  0  0  0  0  0  0  0
  140.8370   79.0240  223.8480 C   0  0  0  0  0  0  0  0  0  0  0  0
  142.1600   78.7640  223.5580 C   0  0  0  0  0  0  0  0  0  0  0  0
  142.9690   79.7350  222.9690 C   0  0  0  0  0  0  0  0  0  0  0  0
  142.3880   80.9560  222.6940 C   0  0  0  0  0  0  0  0  0  0  0  0
  141.0640   81.1980  222.9910 C   0  0  0  0  0  0  0  0  0  0  0  0
  136.0700   77.3840  222.9680 N   0  0  0  0  0  0  0  0  0  0  0  0
  136.4150   76.1140  223.2480 C   0  0  0  0  0  0  0  0  0  0  0  0
  135.5390   75.3050  224.0230 N   0  0  0  0  0  0  0  0  0  0  0  0
  135.7400   73.8720  224.0230 C   0  0  0  0  0  0  0  0  0  0  0  0
  134.3820   73.1710  224.1430 C   0  0  0  0  0  0  0  0  0  0  0  0
  133.7250   73.6860  225.3520 C   0  0  0  0  0  0  0  0  0  0  0  0
  133.0520   72.7890  226.1790 C   0  0  0  0  0  0  0  0  0  0  0  0
  132.4320   73.2590  227.3160 C   0  0  0  0  0  0  0  0  0  0  0  0
  132.4950   74.6040  227.6010 C   0  0  0  0  0  0  0  0  0  0  0  0
  133.1480   75.4970  226.8030 C   0  0  0  0  0  0  0  0  0  0  0  0
  133.7720   75.0210  225.6610 C   0  0  0  0  0  0  0  0  0  0  0  0
  134.4930   75.9590  224.7690 C   0  0  0  0  0  0  0  0  0  0  0  0
  137.5890   75.6540  222.7780 N   0  0  0  0  0  0  0  0  0  0  0  0
  139.6950   74.5670  221.0330 C   0  0  0  0  0  0  0  0  0  0  0  0
  146.6540   72.1620  221.8910 H   0  0  0  0  0  0  0  0  0  0  0  0
  147.2420   73.5020  221.0940 H   0  0  0  0  0  0  0  0  0  0  0  0
  143.0123   71.2797  220.8550 H   0  0  0  0  0  0  0  0  0  0  0  0
  140.6868   72.0308  221.2478 H   0  0  0  0  0  0  0  0  0  0  0  0
  144.1316   75.3122  219.9082 H   0  0  0  0  0  0  0  0  0  0  0  0
  142.5320   77.0717  220.1934 H   0  0  0  0  0  0  0  0  0  0  0  0
  141.0594   76.5858  219.3646 H   0  0  0  0  0  0  0  0  0  0  0  0
  141.4805   76.4484  222.4288 H   0  0  0  0  0  0  0  0  0  0  0  0
  140.6180   77.7799  221.5956 H   0  0  0  0  0  0  0  0  0  0  0  0
  136.1460   79.7510  220.9840 H   0  0  0  0  0  0  0  0  0  0  0  0
  135.8761   81.3654  222.7628 H   0  0  0  0  0  0  0  0  0  0  0  0
  136.2396   80.0981  223.9603 H   0  0  0  0  0  0  0  0  0  0  0  0
  138.2829   81.8185  222.3864 H   0  0  0  0  0  0  0  0  0  0  0  0
  138.5011   80.2129  224.9010 H   0  0  0  0  0  0  0  0  0  0  0  0
  140.2294   78.2334  224.3124 H   0  0  0  0  0  0  0  0  0  0  0  0
  142.5830   77.7766  223.7947 H   0  0  0  0  0  0  0  0  0  0  0  0
  144.0250   79.5362  222.7337 H   0  0  0  0  0  0  0  0  0  0  0  0
  142.9918   81.7497  222.2299 H   0  0  0  0  0  0  0  0  0  0  0  0
  140.6443   82.1867  222.7534 H   0  0  0  0  0  0  0  0  0  0  0  0
  136.2284   73.5693  223.0850 H   0  0  0  0  0  0  0  0  0  0  0  0
  136.3777   73.5889  224.8734 H   0  0  0  0  0  0  0  0  0  0  0  0
  133.7663   73.3908  223.2583 H   0  0  0  0  0  0  0  0  0  0  0  0
  134.5129   72.0807  224.2075 H   0  0  0  0  0  0  0  0  0  0  0  0
  133.0162   71.7188  225.9272 H   0  0  0  0  0  0  0  0  0  0  0  0
  131.8953   72.5704  227.9852 H   0  0  0  0  0  0  0  0  0  0  0  0
  131.9982   74.9742  228.5099 H   0  0  0  0  0  0  0  0  0  0  0  0
  133.1784   76.5663  227.0592 H   0  0  0  0  0  0  0  0  0  0  0  0
  133.7744   76.3981  224.0613 H   0  0  0  0  0  0  0  0  0  0  0  0
  134.9589   76.7323  225.3975 H   0  0  0  0  0  0  0  0  0  0  0  0
  139.2027   73.8993  221.7553 H   0  0  0  0  0  0  0  0  0  0  0  0
  139.1757   74.5650  220.0633 H   0  0  0  0  0  0  0  0  0  0  0  0
  1  2  1  0
  2  3  2  0
  2  4  2  0
  2  5  1  0
  5  6  2  0
  6  7  1  0
  7  8  2  0
  8  9  1  0
  9 10  2  0
  9 11  1  0
 11 12  1  0
 12 13  1  0
 13 14  1  0
 14 15  2  0
 15 16  1  0
 16 17  1  0
 17 18  1  0
 18 19  1  0
 19 20  2  0
 20 21  1  0
 21 22  2  0
 22 23  1  0
 23 24  2  0
 24 25  1  0
 25 26  2  0
 16 27  2  0
 27 28  1  0
 28 29  1  0
 29 30  1  0
 30 31  1  0
 31 32  1  0
 32 33  2  0
 33 34  1  0
 34 35  2  0
 35 36  1  0
 36 37  2  0
 37 38  1  0
 28 39  2  0
 13 40  1  0
 10  5  1  0
 39 14  1  0
 40  8  1  0
 26 21  1  0
 38 29  1  0
 37 32  1  0
  1 41  1  0
  1 42  1  0
  6 43  1  0
  7 44  1  0
 10 45  1  0
 11 46  1  0
 11 47  1  0
 12 48  1  0
 12 49  1  0
 17 50  1  0
 18 51  1  0
 18 52  1  0
 19 53  1  0
 20 54  1  0
 22 55  1  0
 23 56  1  0
 24 57  1  0
 25 58  1  0
 26 59  1  0
 30 60  1  0
 30 61  1  0
 31 62  1  0
 31 63  1  0
 33 64  1  0
 34 65  1  0
 35 66  1  0
 36 67  1  0
 38 68  1  0
 38 69  1  0
 40 70  1  0
 40 71  1  0
M  END
>  <smiles>  (28) 
NS(=O)(=O)c1ccc2c(c1)CCN(c1nc(NC/C=C/c3ccccc3)nc(N3CCc4ccccc4C3)n1)C2

>  <score_type>  (28) 
oracle

>  <origin>  (28) 
autodockgpu

>  <m_score__min__energy>  (28) 
-10.630000000000001

>  <m_primary>  (28) 
energy

>  <rmsd>  (28) 
10.617380372355088

>  <m_score__min__rmsd>  (28) 
10.617380372355088

>  <meeko>  (28) 
{"free_energy": -9.88, "intermolecular_energy": -12.56, "internal_energy": -1.84, "cluster_size": 42, "cluster_id": 2, "rank_in_cluster": 37}

>  <energy>  (28) 
-10.2

>  <cluster_rmsd>  (28) 
0.53

>  <cluster>  (28) 
2

$$$$

     RDKit          3D

 71 76  0  0  0  0  0  0  0  0999 V2000
  139.3510   82.4710  221.3730 N   0  0  0  0  0  0  0  0  0  0  0  0
  140.9910   81.8880  221.3000 S   0  0  0  0  0  0  0  0  0  0  0  0
  141.5610   82.1990  219.9620 O   0  0  0  0  0  0  0  0  0  0  0  0
  141.7600   82.6440  222.3490 O   0  0  0  0  0  0  0  0  0  0  0  0
  141.0100   80.1770  221.5890 C   0  0  0  0  0  0  0  0  0  0  0  0
  140.5020   79.6540  222.7720 C   0  0  0  0  0  0  0  0  0  0  0  0
  140.5190   78.2760  223.0020 C   0  0  0  0  0  0  0  0  0  0  0  0
  141.0320   77.3860  222.0820 C   0  0  0  0  0  0  0  0  0  0  0  0
  141.5360   77.9370  220.9050 C   0  0  0  0  0  0  0  0  0  0  0  0
  141.5250   79.2950  220.6630 C   0  0  0  0  0  0  0  0  0  0  0  0
  142.0920   76.9560  219.9090 C   0  0  0  0  0  0  0  0  0  0  0  0
  141.0110   75.8810  219.8010 C   0  0  0  0  0  0  0  0  0  0  0  0
  140.9180   75.1820  221.0630 N   0  0  0  0  0  0  0  0  0  0  0  0
  140.6870   73.7810  221.1470 C   0  0  0  0  0  0  0  0  0  0  0  0
  140.6360   73.0040  220.0500 N   0  0  0  0  0  0  0  0  0  0  0  0
  140.4240   71.6890  220.0760 C   0  0  0  0  0  0  0  0  0  0  0  0
  140.3770   70.9000  218.8890 N   0  0  0  0  0  0  0  0  0  0  0  0
  141.5840   70.2940  218.3950 C   0  0  0  0  0  0  0  0  0  0  0  0
  142.5960   70.3470  219.5000 C   0  0  0  0  0  0  0  0  0  0  0  0
  143.8490   70.7090  219.2890 C   0  0  0  0  0  0  0  0  0  0  0  0
  144.4470   71.9240  219.8080 C   0  0  0  0  0  0  0  0  0  0  0  0
  143.6430   72.9500  220.3090 C   0  0  0  0  0  0  0  0  0  0  0  0
  144.1720   74.1210  220.8100 C   0  0  0  0  0  0  0  0  0  0  0  0
  145.5500   74.3290  220.8390 C   0  0  0  0  0  0  0  0  0  0  0  0
  146.3510   73.3190  220.3460 C   0  0  0  0  0  0  0  0  0  0  0  0
  145.8040   72.1560  219.8480 C   0  0  0  0  0  0  0  0  0  0  0  0
  140.2500   71.1170  221.2880 N   0  0  0  0  0  0  0  0  0  0  0  0
  140.2890   71.8380  222.4240 C   0  0  0  0  0  0  0  0  0  0  0  0
  140.1010   71.1860  223.6740 N   0  0  0  0  0  0  0  0  0  0  0  0
  139.5570   69.8450  223.6800 C   0  0  0  0  0  0  0  0  0  0  0  0
  138.6920   69.6550  224.9300 C   0  0  0  0  0  0  0  0  0  0  0  0
  139.5270   69.9690  226.0980 C   0  0  0  0  0  0  0  0  0  0  0  0
  139.4360   69.1540  227.2230 C   0  0  0  0  0  0  0  0  0  0  0  0
  140.2140   69.4380  228.3230 C   0  0  0  0  0  0  0  0  0  0  0  0
  141.0610   70.5220  228.2780 C   0  0  0  0  0  0  0  0  0  0  0  0
  141.1640   71.3320  227.1860 C   0  0  0  0  0  0  0  0  0  0  0  0
  140.3800   71.0430  226.0800 C   0  0  0  0  0  0  0  0  0  0  0  0
  140.4640   71.8990  224.8730 C   0  0  0  0  0  0  0  0  0  0  0  0
  140.5080   73.1630  222.3320 N   0  0  0  0  0  0  0  0  0  0  0  0
  141.0630   75.9290  222.2990 C   0  0  0  0  0  0  0  0  0  0  0  0
  139.2650   83.2640  220.6760 H   0  0  0  0  0  0  0  0  0  0  0  0
  138.7560   81.7010  220.9470 H   0  0  0  0  0  0  0  0  0  0  0  0
  140.0836   80.3296  223.5326 H   0  0  0  0  0  0  0  0  0  0  0  0
  140.1102   77.8887  223.9469 H   0  0  0  0  0  0  0  0  0  0  0  0
  141.9333   79.6800  219.7169 H   0  0  0  0  0  0  0  0  0  0  0  0
  142.2596   77.4404  218.9357 H   0  0  0  0  0  0  0  0  0  0  0  0
  143.0651   76.5466  220.2179 H   0  0  0  0  0  0  0  0  0  0  0  0
  140.0445   76.3514  219.5673 H   0  0  0  0  0  0  0  0  0  0  0  0
  141.2690   75.1721  219.0004 H   0  0  0  0  0  0  0  0  0  0  0  0
  139.4490   70.7930  218.4150 H   0  0  0  0  0  0  0  0  0  0  0  0
  141.3913   69.2488  218.1113 H   0  0  0  0  0  0  0  0  0  0  0  0
  141.9511   70.8274  217.5058 H   0  0  0  0  0  0  0  0  0  0  0  0
  142.2851   70.0756  220.5197 H   0  0  0  0  0  0  0  0  0  0  0  0
  144.4800   70.0453  218.6797 H   0  0  0  0  0  0  0  0  0  0  0  0
  142.5508   72.8198  220.3039 H   0  0  0  0  0  0  0  0  0  0  0  0
  143.4973   74.9014  221.1919 H   0  0  0  0  0  0  0  0  0  0  0  0
  145.9809   75.2591  221.2381 H   0  0  0  0  0  0  0  0  0  0  0  0
  147.4438   73.4442  220.3506 H   0  0  0  0  0  0  0  0  0  0  0  0
  146.4815   71.3784  219.4655 H   0  0  0  0  0  0  0  0  0  0  0  0
  138.9415   69.6941  222.7809 H   0  0  0  0  0  0  0  0  0  0  0  0
  140.3789   69.1140  223.6861 H   0  0  0  0  0  0  0  0  0  0  0  0
  137.8264   70.3329  224.8941 H   0  0  0  0  0  0  0  0  0  0  0  0
  138.3175   68.6223  224.9883 H   0  0  0  0  0  0  0  0  0  0  0  0
  138.7508   68.2935  227.2330 H   0  0  0  0  0  0  0  0  0  0  0  0
  140.1595   68.8086  229.2235 H   0  0  0  0  0  0  0  0  0  0  0  0
  141.6805   70.7440  229.1595 H   0  0  0  0  0  0  0  0  0  0  0  0
  141.8506   72.1914  227.1828 H   0  0  0  0  0  0  0  0  0  0  0  0
  139.7829   72.7539  224.9968 H   0  0  0  0  0  0  0  0  0  0  0  0
  141.5073   72.2308  224.7660 H   0  0  0  0  0  0  0  0  0  0  0  0
  140.2403   75.6551  222.9758 H   0  0  0  0  0  0  0  0  0  0  0  0
  142.0422   75.6752  222.7312 H   0  0  0  0  0  0  0  0  0  0  0  0
  1  2  1  0
  2  3  2  0
  2  4  2  0
  2  5  1  0
  5  6  2  0
  6  7  1  0
  7  8  2  0
  8  9  1  0
  9 10  2  0
  9 11  1  0
 11 12  1  0
 12 13  1  0
 13 14  1  0
 14 15  2  0
 15 16  1  0
 16 17  1  0
 17 18  1  0
 18 19  1  0
 19 20  2  0
 20 21  1  0
 21 22  2  0
 22 23  1  0
 23 24  2  0
 24 25  1  0
 25 26  2  0
 16 27  2  0
 27 28  1  0
 28 29  1  0
 29 30  1  0
 30 31  1  0
 31 32  1  0
 32 33  2  0
 33 34  1  0
 34 35  2  0
 35 36  1  0
 36 37  2  0
 37 38  1  0
 28 39  2  0
 13 40  1  0
 10  5  1  0
 39 14  1  0
 40  8  1  0
 26 21  1  0
 38 29  1  0
 37 32  1  0
  1 41  1  0
  1 42  1  0
  6 43  1  0
  7 44  1  0
 10 45  1  0
 11 46  1  0
 11 47  1  0
 12 48  1  0
 12 49  1  0
 17 50  1  0
 18 51  1  0
 18 52  1  0
 19 53  1  0
 20 54  1  0
 22 55  1  0
 23 56  1  0
 24 57  1  0
 25 58  1  0
 26 59  1  0
 30 60  1  0
 30 61  1  0
 31 62  1  0
 31 63  1  0
 33 64  1  0
 34 65  1  0
 35 66  1  0
 36 67  1  0
 38 68  1  0
 38 69  1  0
 40 70  1  0
 40 71  1  0
M  END
>  <smiles>  (29) 
NS(=O)(=O)c1ccc2c(c1)CCN(c1nc(NC/C=C/c3ccccc3)nc(N3CCc4ccccc4C3)n1)C2

>  <score_type>  (29) 
oracle

>  <origin>  (29) 
autodockgpu

>  <m_score__min__energy>  (29) 
-10.630000000000001

>  <m_primary>  (29) 
energy

>  <rmsd>  (29) 
10.928800712340765

>  <m_score__min__rmsd>  (29) 
10.928800712340765

>  <meeko>  (29) 
{"free_energy": -9.43, "intermolecular_energy": -12.12, "internal_energy": -2.08, "cluster_size": 7, "cluster_id": 1, "rank_in_cluster": 5}

>  <energy>  (29) 
-10.17

>  <cluster_rmsd>  (29) 
0.94

>  <cluster>  (29) 
2

$$$$

     RDKit          3D

 71 76  0  0  0  0  0  0  0  0999 V2000
  145.8940   71.5100  220.0920 N   0  0  0  0  0  0  0  0  0  0  0  0
  145.6610   73.2090  219.7880 S   0  0  0  0  0  0  0  0  0  0  0  0
  146.6200   73.9890  220.6160 O   0  0  0  0  0  0  0  0  0  0  0  0
  145.9760   73.4300  218.3340 O   0  0  0  0  0  0  0  0  0  0  0  0
  144.0270   73.6470  220.1720 C   0  0  0  0  0  0  0  0  0  0  0  0
  143.1630   72.7240  220.7500 C   0  0  0  0  0  0  0  0  0  0  0  0
  141.8480   73.0800  221.0580 C   0  0  0  0  0  0  0  0  0  0  0  0
  141.3540   74.3420  220.8080 C   0  0  0  0  0  0  0  0  0  0  0  0
  142.2400   75.2480  220.2280 C   0  0  0  0  0  0  0  0  0  0  0  0
  143.5410   74.9130  219.9190 C   0  0  0  0  0  0  0  0  0  0  0  0
  141.6880   76.6230  219.9610 C   0  0  0  0  0  0  0  0  0  0  0  0
  141.0080   77.0120  221.2730 C   0  0  0  0  0  0  0  0  0  0  0  0
  139.8720   76.1450  221.4870 N   0  0  0  0  0  0  0  0  0  0  0  0
  138.6490   76.6090  222.0470 C   0  0  0  0  0  0  0  0  0  0  0  0
  138.2880   77.9040  221.9870 N   0  0  0  0  0  0  0  0  0  0  0  0
  137.1550   78.3870  222.4950 C   0  0  0  0  0  0  0  0  0  0  0  0
  136.8100   79.7680  222.4110 N   0  0  0  0  0  0  0  0  0  0  0  0
  136.6940   80.5430  223.6170 C   0  0  0  0  0  0  0  0  0  0  0  0
  138.0790   80.9520  224.0200 C   0  0  0  0  0  0  0  0  0  0  0  0
  139.0130   81.2420  223.1330 C   0  0  0  0  0  0  0  0  0  0  0  0
  140.3280   80.6340  223.1010 C   0  0  0  0  0  0  0  0  0  0  0  0
  140.5830   79.4620  223.8180 C   0  0  0  0  0  0  0  0  0  0  0  0
  141.8200   78.8520  223.8140 C   0  0  0  0  0  0  0  0  0  0  0  0
  142.8810   79.3880  223.0840 C   0  0  0  0  0  0  0  0  0  0  0  0
  142.6360   80.5450  222.3740 C   0  0  0  0  0  0  0  0  0  0  0  0
  141.3940   81.1410  222.3900 C   0  0  0  0  0  0  0  0  0  0  0  0
  136.3280   77.5080  223.1030 N   0  0  0  0  0  0  0  0  0  0  0  0
  136.6300   76.2000  223.1970 C   0  0  0  0  0  0  0  0  0  0  0  0
  135.7240   75.3170  223.8480 N   0  0  0  0  0  0  0  0  0  0  0  0
  135.8520   73.8950  223.6090 C   0  0  0  0  0  0  0  0  0  0  0  0
  134.4620   73.2500  223.6420 C   0  0  0  0  0  0  0  0  0  0  0  0
  133.8480   73.5900  224.9330 C   0  0  0  0  0  0  0  0  0  0  0  0
  133.1420   72.6030  225.6160 C   0  0  0  0  0  0  0  0  0  0  0  0
  132.5610   72.9090  226.8280 C   0  0  0  0  0  0  0  0  0  0  0  0
  132.6970   74.1840  227.3280 C   0  0  0  0  0  0  0  0  0  0  0  0
  133.3850   75.1630  226.6740 C   0  0  0  0  0  0  0  0  0  0  0  0
  133.9670   74.8520  225.4560 C   0  0  0  0  0  0  0  0  0  0  0  0
  134.7230   75.8890  224.7140 C   0  0  0  0  0  0  0  0  0  0  0  0
  137.7900   75.7730  222.6640 N   0  0  0  0  0  0  0  0  0  0  0  0
  139.9710   74.7440  221.1220 C   0  0  0  0  0  0  0  0  0  0  0  0
  146.7270   71.4140  220.7390 H   0  0  0  0  0  0  0  0  0  0  0  0
  145.0730   71.2130  220.6980 H   0  0  0  0  0  0  0  0  0  0  0  0
  143.5177   71.7055  220.9664 H   0  0  0  0  0  0  0  0  0  0  0  0
  141.1859   72.3295  221.5144 H   0  0  0  0  0  0  0  0  0  0  0  0
  144.2012   75.6661  219.4641 H   0  0  0  0  0  0  0  0  0  0  0  0
  142.4964   77.3277  219.7161 H   0  0  0  0  0  0  0  0  0  0  0  0
  140.9972   76.6421  219.1052 H   0  0  0  0  0  0  0  0  0  0  0  0
  141.7193   76.9006  222.1047 H   0  0  0  0  0  0  0  0  0  0  0  0
  140.6735   78.0587  221.2231 H   0  0  0  0  0  0  0  0  0  0  0  0
  136.6520   80.1700  221.4570 H   0  0  0  0  0  0  0  0  0  0  0  0
  136.0768   81.4348  223.4333 H   0  0  0  0  0  0  0  0  0  0  0  0
  136.2149   79.9544  224.4132 H   0  0  0  0  0  0  0  0  0  0  0  0
  138.3252   81.0125  225.0904 H   0  0  0  0  0  0  0  0  0  0  0  0
  138.7772   81.9955  222.3671 H   0  0  0  0  0  0  0  0  0  0  0  0
  139.7698   79.0107  224.4054 H   0  0  0  0  0  0  0  0  0  0  0  0
  141.9720   77.9301  224.3945 H   0  0  0  0  0  0  0  0  0  0  0  0
  143.8709   78.9084  223.0749 H   0  0  0  0  0  0  0  0  0  0  0  0
  143.4462   80.9996  221.7849 H   0  0  0  0  0  0  0  0  0  0  0  0
  141.2466   82.0633  221.8089 H   0  0  0  0  0  0  0  0  0  0  0  0
  136.3117   73.7277  222.6238 H   0  0  0  0  0  0  0  0  0  0  0  0
  136.4860   73.4455  224.3875 H   0  0  0  0  0  0  0  0  0  0  0  0
  133.8466   73.6416  222.8187 H   0  0  0  0  0  0  0  0  0  0  0  0
  134.5382   72.1589  223.5245 H   0  0  0  0  0  0  0  0  0  0  0  0
  133.0491   71.5916  225.1936 H   0  0  0  0  0  0  0  0  0  0  0  0
  131.9979   72.1467  227.3864 H   0  0  0  0  0  0  0  0  0  0  0  0
  132.2314   74.4233  228.2954 H   0  0  0  0  0  0  0  0  0  0  0  0
  133.4754   76.1723  227.1020 H   0  0  0  0  0  0  0  0  0  0  0  0
  134.0182   76.4728  224.1038 H   0  0  0  0  0  0  0  0  0  0  0  0
  135.2364   76.5249  225.4503 H   0  0  0  0  0  0  0  0  0  0  0  0
  139.6076   74.1335  221.9618 H   0  0  0  0  0  0  0  0  0  0  0  0
  139.3630   74.5888  220.2185 H   0  0  0  0  0  0  0  0  0  0  0  0
  1  2  1  0
  2  3  2  0
  2  4  2  0
  2  5  1  0
  5  6  2  0
  6  7  1  0
  7  8  2  0
  8  9  1  0
  9 10  2  0
  9 11  1  0
 11 12  1  0
 12 13  1  0
 13 14  1  0
 14 15  2  0
 15 16  1  0
 16 17  1  0
 17 18  1  0
 18 19  1  0
 19 20  2  0
 20 21  1  0
 21 22  2  0
 22 23  1  0
 23 24  2  0
 24 25  1  0
 25 26  2  0
 16 27  2  0
 27 28  1  0
 28 29  1  0
 29 30  1  0
 30 31  1  0
 31 32  1  0
 32 33  2  0
 33 34  1  0
 34 35  2  0
 35 36  1  0
 36 37  2  0
 37 38  1  0
 28 39  2  0
 13 40  1  0
 10  5  1  0
 39 14  1  0
 40  8  1  0
 26 21  1  0
 38 29  1  0
 37 32  1  0
  1 41  1  0
  1 42  1  0
  6 43  1  0
  7 44  1  0
 10 45  1  0
 11 46  1  0
 11 47  1  0
 12 48  1  0
 12 49  1  0
 17 50  1  0
 18 51  1  0
 18 52  1  0
 19 53  1  0
 20 54  1  0
 22 55  1  0
 23 56  1  0
 24 57  1  0
 25 58  1  0
 26 59  1  0
 30 60  1  0
 30 61  1  0
 31 62  1  0
 31 63  1  0
 33 64  1  0
 34 65  1  0
 35 66  1  0
 36 67  1  0
 38 68  1  0
 38 69  1  0
 40 70  1  0
 40 71  1  0
M  END
>  <smiles>  (30) 
NS(=O)(=O)c1ccc2c(c1)CCN(c1nc(NC/C=C/c3ccccc3)nc(N3CCc4ccccc4C3)n1)C2

>  <score_type>  (30) 
oracle

>  <origin>  (30) 
autodockgpu

>  <m_score__min__energy>  (30) 
-10.630000000000001

>  <m_primary>  (30) 
energy

>  <rmsd>  (30) 
10.390295769510082

>  <m_score__min__rmsd>  (30) 
10.390295769510082

>  <meeko>  (30) 
{"free_energy": -10.21, "intermolecular_energy": -12.89, "internal_energy": -2.0, "cluster_size": 42, "cluster_id": 2, "rank_in_cluster": 20}

>  <energy>  (30) 
-10.08

>  <cluster_rmsd>  (30) 
0.41

>  <cluster>  (30) 
2

$$$$

     RDKit          3D

 71 76  0  0  0  0  0  0  0  0999 V2000
  145.9840   73.4140  218.4690 N   0  0  0  0  0  0  0  0  0  0  0  0
  145.4780   72.7880  220.0130 S   0  0  0  0  0  0  0  0  0  0  0  0
  145.5630   71.3030  219.9900 O   0  0  0  0  0  0  0  0  0  0  0  0
  146.4520   73.3190  221.0290 O   0  0  0  0  0  0  0  0  0  0  0  0
  143.8530   73.3010  220.3430 C   0  0  0  0  0  0  0  0  0  0  0  0
  142.9160   72.4040  220.8410 C   0  0  0  0  0  0  0  0  0  0  0  0
  141.6090   72.8200  221.1060 C   0  0  0  0  0  0  0  0  0  0  0  0
  141.1950   74.1160  220.8890 C   0  0  0  0  0  0  0  0  0  0  0  0
  142.1540   74.9950  220.3880 C   0  0  0  0  0  0  0  0  0  0  0  0
  143.4490   74.6010  220.1230 C   0  0  0  0  0  0  0  0  0  0  0  0
  141.6900   76.4080  220.1560 C   0  0  0  0  0  0  0  0  0  0  0  0
  140.9720   76.7810  221.4530 C   0  0  0  0  0  0  0  0  0  0  0  0
  139.7820   75.9700  221.5790 N   0  0  0  0  0  0  0  0  0  0  0  0
  138.5610   76.4790  222.1030 C   0  0  0  0  0  0  0  0  0  0  0  0
  138.1980   77.7640  221.9360 N   0  0  0  0  0  0  0  0  0  0  0  0
  137.0660   78.2860  222.4060 C   0  0  0  0  0  0  0  0  0  0  0  0
  136.7180   79.6550  222.2070 N   0  0  0  0  0  0  0  0  0  0  0  0
  136.5710   80.5200  223.3470 C   0  0  0  0  0  0  0  0  0  0  0  0
  137.8790   80.5240  224.0780 C   0  0  0  0  0  0  0  0  0  0  0  0
  138.9440   81.1490  223.6100 C   0  0  0  0  0  0  0  0  0  0  0  0
  140.2470   80.5350  223.4450 C   0  0  0  0  0  0  0  0  0  0  0  0
  141.2610   81.2020  222.7530 C   0  0  0  0  0  0  0  0  0  0  0  0
  142.5140   80.6520  222.5750 C   0  0  0  0  0  0  0  0  0  0  0  0
  142.8220   79.3920  223.0840 C   0  0  0  0  0  0  0  0  0  0  0  0
  141.8250   78.7270  223.7680 C   0  0  0  0  0  0  0  0  0  0  0  0
  140.5790   79.2920  223.9370 C   0  0  0  0  0  0  0  0  0  0  0  0
  136.2440   77.4610  223.0910 N   0  0  0  0  0  0  0  0  0  0  0  0
  136.5490   76.1660  223.2940 C   0  0  0  0  0  0  0  0  0  0  0  0
  135.6480   75.3400  224.0210 N   0  0  0  0  0  0  0  0  0  0  0  0
  135.7990   73.9040  223.9320 C   0  0  0  0  0  0  0  0  0  0  0  0
  134.4190   73.2430  224.0160 C   0  0  0  0  0  0  0  0  0  0  0  0
  133.7830   73.7040  225.2580 C   0  0  0  0  0  0  0  0  0  0  0  0
  133.0820   72.7820  226.0300 C   0  0  0  0  0  0  0  0  0  0  0  0
  132.4820   73.2000  227.1970 C   0  0  0  0  0  0  0  0  0  0  0  0
  132.5920   74.5220  227.5650 C   0  0  0  0  0  0  0  0  0  0  0  0
  133.2730   75.4400  226.8210 C   0  0  0  0  0  0  0  0  0  0  0  0
  133.8760   75.0150  225.6480 C   0  0  0  0  0  0  0  0  0  0  0  0
  134.6270   75.9820  224.8130 C   0  0  0  0  0  0  0  0  0  0  0  0
  137.7060   75.6960  222.7930 N   0  0  0  0  0  0  0  0  0  0  0  0
  139.8230   74.5820  221.1590 C   0  0  0  0  0  0  0  0  0  0  0  0
  145.2710   74.1400  218.1720 H   0  0  0  0  0  0  0  0  0  0  0  0
  146.8550   73.9890  218.6650 H   0  0  0  0  0  0  0  0  0  0  0  0
  143.2053   71.3593  221.0278 H   0  0  0  0  0  0  0  0  0  0  0  0
  140.8874   72.0895  221.5005 H   0  0  0  0  0  0  0  0  0  0  0  0
  144.1694   75.3339  219.7308 H   0  0  0  0  0  0  0  0  0  0  0  0
  142.5456   77.0758  219.9771 H   0  0  0  0  0  0  0  0  0  0  0  0
  141.0415   76.5002  219.2723 H   0  0  0  0  0  0  0  0  0  0  0  0
  141.6371   76.5965  222.3095 H   0  0  0  0  0  0  0  0  0  0  0  0
  140.6971   77.8459  221.4340 H   0  0  0  0  0  0  0  0  0  0  0  0
  136.5820   79.9810  221.2210 H   0  0  0  0  0  0  0  0  0  0  0  0
  136.3221   81.5391  223.0161 H   0  0  0  0  0  0  0  0  0  0  0  0
  135.7612   80.1655  224.0017 H   0  0  0  0  0  0  0  0  0  0  0  0
  137.9546   79.9887  225.0360 H   0  0  0  0  0  0  0  0  0  0  0  0
  138.8353   82.2062  223.3264 H   0  0  0  0  0  0  0  0  0  0  0  0
  141.0537   82.1987  222.3362 H   0  0  0  0  0  0  0  0  0  0  0  0
  143.2805   81.2162  222.0235 H   0  0  0  0  0  0  0  0  0  0  0  0
  143.8181   78.9461  222.9463 H   0  0  0  0  0  0  0  0  0  0  0  0
  142.0278   77.7296  224.1853 H   0  0  0  0  0  0  0  0  0  0  0  0
  139.8156   78.7247  224.4896 H   0  0  0  0  0  0  0  0  0  0  0  0
  136.2736   73.6431  222.9746 H   0  0  0  0  0  0  0  0  0  0  0  0
  136.4290   73.5479  224.7604 H   0  0  0  0  0  0  0  0  0  0  0  0
  133.8083   73.5373  223.1497 H   0  0  0  0  0  0  0  0  0  0  0  0
  134.5136   72.1471  224.0130 H   0  0  0  0  0  0  0  0  0  0  0  0
  133.0081   71.7317  225.7116 H   0  0  0  0  0  0  0  0  0  0  0  0
  131.9242   72.4894  227.8246 H   0  0  0  0  0  0  0  0  0  0  0  0
  132.1107   74.8515  228.4976 H   0  0  0  0  0  0  0  0  0  0  0  0
  133.3417   76.4895  227.1434 H   0  0  0  0  0  0  0  0  0  0  0  0
  133.9221   76.4898  224.1382 H   0  0  0  0  0  0  0  0  0  0  0  0
  135.1218   76.6972  225.4866 H   0  0  0  0  0  0  0  0  0  0  0  0
  139.3888   73.9593  221.9550 H   0  0  0  0  0  0  0  0  0  0  0  0
  139.2505   74.4981  220.2235 H   0  0  0  0  0  0  0  0  0  0  0  0
  1  2  1  0
  2  3  2  0
  2  4  2  0
  2  5  1  0
  5  6  2  0
  6  7  1  0
  7  8  2  0
  8  9  1  0
  9 10  2  0
  9 11  1  0
 11 12  1  0
 12 13  1  0
 13 14  1  0
 14 15  2  0
 15 16  1  0
 16 17  1  0
 17 18  1  0
 18 19  1  0
 19 20  2  0
 20 21  1  0
 21 22  2  0
 22 23  1  0
 23 24  2  0
 24 25  1  0
 25 26  2  0
 16 27  2  0
 27 28  1  0
 28 29  1  0
 29 30  1  0
 30 31  1  0
 31 32  1  0
 32 33  2  0
 33 34  1  0
 34 35  2  0
 35 36  1  0
 36 37  2  0
 37 38  1  0
 28 39  2  0
 13 40  1  0
 10  5  1  0
 39 14  1  0
 40  8  1  0
 26 21  1  0
 38 29  1  0
 37 32  1  0
  1 41  1  0
  1 42  1  0
  6 43  1  0
  7 44  1  0
 10 45  1  0
 11 46  1  0
 11 47  1  0
 12 48  1  0
 12 49  1  0
 17 50  1  0
 18 51  1  0
 18 52  1  0
 19 53  1  0
 20 54  1  0
 22 55  1  0
 23 56  1  0
 24 57  1  0
 25 58  1  0
 26 59  1  0
 30 60  1  0
 30 61  1  0
 31 62  1  0
 31 63  1  0
 33 64  1  0
 34 65  1  0
 35 66  1  0
 36 67  1  0
 38 68  1  0
 38 69  1  0
 40 70  1  0
 40 71  1  0
M  END
>  <smiles>  (31) 
NS(=O)(=O)c1ccc2c(c1)CCN(c1nc(NC/C=C/c3ccccc3)nc(N3CCc4ccccc4C3)n1)C2

>  <score_type>  (31) 
oracle

>  <origin>  (31) 
autodockgpu

>  <m_score__min__energy>  (31) 
-10.630000000000001

>  <m_primary>  (31) 
energy

>  <rmsd>  (31) 
10.527870832752784

>  <m_score__min__rmsd>  (31) 
10.527870832752784

>  <meeko>  (31) 
{"free_energy": -10.48, "intermolecular_energy": -13.16, "internal_energy": -1.94, "cluster_size": 42, "cluster_id": 2, "rank_in_cluster": 6}

>  <energy>  (31) 
-10.08

>  <cluster_rmsd>  (31) 
0.98

>  <cluster>  (31) 
2

$$$$

     RDKit          3D

 71 76  0  0  0  0  0  0  0  0999 V2000
  145.9590   73.3330  218.0680 N   0  0  0  0  0  0  0  0  0  0  0  0
  145.6380   73.0820  219.7610 S   0  0  0  0  0  0  0  0  0  0  0  0
  145.8570   71.6480  220.0930 O   0  0  0  0  0  0  0  0  0  0  0  0
  146.6360   73.9170  220.5140 O   0  0  0  0  0  0  0  0  0  0  0  0
  144.0040   73.5460  220.1160 C   0  0  0  0  0  0  0  0  0  0  0  0
  143.0750   72.6010  220.5340 C   0  0  0  0  0  0  0  0  0  0  0  0
  141.7600   72.9780  220.8190 C   0  0  0  0  0  0  0  0  0  0  0  0
  141.3310   74.2830  220.7020 C   0  0  0  0  0  0  0  0  0  0  0  0
  142.2820   75.2100  220.2810 C   0  0  0  0  0  0  0  0  0  0  0  0
  143.5840   74.8540  219.9960 C   0  0  0  0  0  0  0  0  0  0  0  0
  141.8010   76.6310  220.1570 C   0  0  0  0  0  0  0  0  0  0  0  0
  141.0680   76.8910  221.4730 C   0  0  0  0  0  0  0  0  0  0  0  0
  139.8880   76.0580  221.5240 N   0  0  0  0  0  0  0  0  0  0  0  0
  138.6560   76.5080  222.0760 C   0  0  0  0  0  0  0  0  0  0  0  0
  138.2880   77.8010  222.0260 N   0  0  0  0  0  0  0  0  0  0  0  0
  137.1460   78.2710  222.5280 C   0  0  0  0  0  0  0  0  0  0  0  0
  136.7920   79.6500  222.4540 N   0  0  0  0  0  0  0  0  0  0  0  0
  136.6290   80.4040  223.6680 C   0  0  0  0  0  0  0  0  0  0  0  0
  137.9980   80.7790  224.1490 C   0  0  0  0  0  0  0  0  0  0  0  0
  138.9490   81.1780  223.3240 C   0  0  0  0  0  0  0  0  0  0  0  0
  140.2700   80.5860  223.2500 C   0  0  0  0  0  0  0  0  0  0  0  0
  141.2770   81.1930  222.4950 C   0  0  0  0  0  0  0  0  0  0  0  0
  142.5460   80.6610  222.3980 C   0  0  0  0  0  0  0  0  0  0  0  0
  142.8800   79.4810  223.0600 C   0  0  0  0  0  0  0  0  0  0  0  0
  141.8910   78.8760  223.8080 C   0  0  0  0  0  0  0  0  0  0  0  0
  140.6280   79.4210  223.8930 C   0  0  0  0  0  0  0  0  0  0  0  0
  136.3200   77.3800  223.1190 N   0  0  0  0  0  0  0  0  0  0  0  0
  136.6300   76.0730  223.2030 C   0  0  0  0  0  0  0  0  0  0  0  0
  135.7240   75.1780  223.8360 N   0  0  0  0  0  0  0  0  0  0  0  0
  135.8640   73.7590  223.5840 C   0  0  0  0  0  0  0  0  0  0  0  0
  134.4780   73.1050  223.5970 C   0  0  0  0  0  0  0  0  0  0  0  0
  133.8500   73.4270  224.8860 C   0  0  0  0  0  0  0  0  0  0  0  0
  133.1440   72.4280  225.5520 C   0  0  0  0  0  0  0  0  0  0  0  0
  132.5510   72.7170  226.7610 C   0  0  0  0  0  0  0  0  0  0  0  0
  132.6730   73.9880  227.2760 C   0  0  0  0  0  0  0  0  0  0  0  0
  133.3590   74.9790  226.6380 C   0  0  0  0  0  0  0  0  0  0  0  0
  133.9560   74.6840  225.4220 C   0  0  0  0  0  0  0  0  0  0  0  0
  134.7110   75.7340  224.6990 C   0  0  0  0  0  0  0  0  0  0  0  0
  137.7980   75.6590  222.6770 N   0  0  0  0  0  0  0  0  0  0  0  0
  139.9510   74.7080  220.9960 C   0  0  0  0  0  0  0  0  0  0  0  0
  145.1410   72.9320  217.5270 H   0  0  0  0  0  0  0  0  0  0  0  0
  145.8690   74.3800  217.9130 H   0  0  0  0  0  0  0  0  0  0  0  0
  143.3769   71.5487  220.6413 H   0  0  0  0  0  0  0  0  0  0  0  0
  141.0446   72.2094  221.1470 H   0  0  0  0  0  0  0  0  0  0  0  0
  144.2974   75.6245  219.6683 H   0  0  0  0  0  0  0  0  0  0  0  0
  142.6490   77.3217  220.0390 H   0  0  0  0  0  0  0  0  0  0  0  0
  141.1583   76.7846  219.2776 H   0  0  0  0  0  0  0  0  0  0  0  0
  141.7287   76.6475  222.3181 H   0  0  0  0  0  0  0  0  0  0  0  0
  140.7793   77.9506  221.5358 H   0  0  0  0  0  0  0  0  0  0  0  0
  136.6620   80.0670  221.5020 H   0  0  0  0  0  0  0  0  0  0  0  0
  136.0380   81.3107  223.4712 H   0  0  0  0  0  0  0  0  0  0  0  0
  136.0997   79.8091  224.4270 H   0  0  0  0  0  0  0  0  0  0  0  0
  138.2181   80.7199  225.2251 H   0  0  0  0  0  0  0  0  0  0  0  0
  138.7235   82.0157  222.6477 H   0  0  0  0  0  0  0  0  0  0  0  0
  141.0500   82.1268  221.9598 H   0  0  0  0  0  0  0  0  0  0  0  0
  143.3047   81.1752  221.7898 H   0  0  0  0  0  0  0  0  0  0  0  0
  143.8896   79.0501  222.9892 H   0  0  0  0  0  0  0  0  0  0  0  0
  142.1144   77.9427  224.3457 H   0  0  0  0  0  0  0  0  0  0  0  0
  139.8720   78.9029  224.5013 H   0  0  0  0  0  0  0  0  0  0  0  0
  136.3343   73.6046  222.6017 H   0  0  0  0  0  0  0  0  0  0  0  0
  136.4935   73.3058  224.3639 H   0  0  0  0  0  0  0  0  0  0  0  0
  133.8677   73.5018  222.7723 H   0  0  0  0  0  0  0  0  0  0  0  0
  134.5622   72.0158  223.4683 H   0  0  0  0  0  0  0  0  0  0  0  0
  133.0611   71.4207  225.1178 H   0  0  0  0  0  0  0  0  0  0  0  0
  131.9889   71.9447  227.3064 H   0  0  0  0  0  0  0  0  0  0  0  0
  132.1975   74.2134  228.2420 H   0  0  0  0  0  0  0  0  0  0  0  0
  133.4365   75.9850  227.0762 H   0  0  0  0  0  0  0  0  0  0  0  0
  134.0078   76.3197  224.0887 H   0  0  0  0  0  0  0  0  0  0  0  0
  135.2129   76.3655  225.4468 H   0  0  0  0  0  0  0  0  0  0  0  0
  139.5194   74.0186  221.7366 H   0  0  0  0  0  0  0  0  0  0  0  0
  139.3867   74.6907  220.0519 H   0  0  0  0  0  0  0  0  0  0  0  0
  1  2  1  0
  2  3  2  0
  2  4  2  0
  2  5  1  0
  5  6  2  0
  6  7  1  0
  7  8  2  0
  8  9  1  0
  9 10  2  0
  9 11  1  0
 11 12  1  0
 12 13  1  0
 13 14  1  0
 14 15  2  0
 15 16  1  0
 16 17  1  0
 17 18  1  0
 18 19  1  0
 19 20  2  0
 20 21  1  0
 21 22  2  0
 22 23  1  0
 23 24  2  0
 24 25  1  0
 25 26  2  0
 16 27  2  0
 27 28  1  0
 28 29  1  0
 29 30  1  0
 30 31  1  0
 31 32  1  0
 32 33  2  0
 33 34  1  0
 34 35  2  0
 35 36  1  0
 36 37  2  0
 37 38  1  0
 28 39  2  0
 13 40  1  0
 10  5  1  0
 39 14  1  0
 40  8  1  0
 26 21  1  0
 38 29  1  0
 37 32  1  0
  1 41  1  0
  1 42  1  0
  6 43  1  0
  7 44  1  0
 10 45  1  0
 11 46  1  0
 11 47  1  0
 12 48  1  0
 12 49  1  0
 17 50  1  0
 18 51  1  0
 18 52  1  0
 19 53  1  0
 20 54  1  0
 22 55  1  0
 23 56  1  0
 24 57  1  0
 25 58  1  0
 26 59  1  0
 30 60  1  0
 30 61  1  0
 31 62  1  0
 31 63  1  0
 33 64  1  0
 34 65  1  0
 35 66  1  0
 36 67  1  0
 38 68  1  0
 38 69  1  0
 40 70  1  0
 40 71  1  0
M  END
>  <smiles>  (32) 
NS(=O)(=O)c1ccc2c(c1)CCN(c1nc(NC/C=C/c3ccccc3)nc(N3CCc4ccccc4C3)n1)C2

>  <score_type>  (32) 
oracle

>  <origin>  (32) 
autodockgpu

>  <m_score__min__energy>  (32) 
-10.630000000000001

>  <m_primary>  (32) 
energy

>  <rmsd>  (32) 
10.439772607610788

>  <m_score__min__rmsd>  (32) 
10.439772607610788

>  <meeko>  (32) 
{"free_energy": -10.08, "intermolecular_energy": -12.76, "internal_energy": -1.95, "cluster_size": 42, "cluster_id": 2, "rank_in_cluster": 25}

>  <energy>  (32) 
-10.08

>  <cluster_rmsd>  (32) 
0.45

>  <cluster>  (32) 
2

$$$$

     RDKit          3D

 71 76  0  0  0  0  0  0  0  0999 V2000
  146.4430   73.0120  221.3250 N   0  0  0  0  0  0  0  0  0  0  0  0
  145.4320   72.6870  219.9450 S   0  0  0  0  0  0  0  0  0  0  0  0
  145.9920   73.3810  218.7540 O   0  0  0  0  0  0  0  0  0  0  0  0
  145.4860   71.2010  219.7160 O   0  0  0  0  0  0  0  0  0  0  0  0
  143.8170   73.2350  220.2670 C   0  0  0  0  0  0  0  0  0  0  0  0
  142.8520   72.3530  220.7370 C   0  0  0  0  0  0  0  0  0  0  0  0
  141.5530   72.7970  220.9970 C   0  0  0  0  0  0  0  0  0  0  0  0
  141.1750   74.1080  220.8020 C   0  0  0  0  0  0  0  0  0  0  0  0
  142.1620   74.9710  220.3290 C   0  0  0  0  0  0  0  0  0  0  0  0
  143.4490   74.5490  220.0700 C   0  0  0  0  0  0  0  0  0  0  0  0
  141.7370   76.4000  220.1210 C   0  0  0  0  0  0  0  0  0  0  0  0
  141.0140   76.7660  221.4170 C   0  0  0  0  0  0  0  0  0  0  0  0
  139.8020   75.9830  221.5140 N   0  0  0  0  0  0  0  0  0  0  0  0
  138.5890   76.5130  222.0360 C   0  0  0  0  0  0  0  0  0  0  0  0
  138.2450   77.8020  221.8610 N   0  0  0  0  0  0  0  0  0  0  0  0
  137.1210   78.3430  222.3280 C   0  0  0  0  0  0  0  0  0  0  0  0
  136.7930   79.7160  222.1210 N   0  0  0  0  0  0  0  0  0  0  0  0
  136.5230   80.5580  223.2560 C   0  0  0  0  0  0  0  0  0  0  0  0
  137.8270   81.1590  223.6870 C   0  0  0  0  0  0  0  0  0  0  0  0
  138.8150   80.4260  224.1670 C   0  0  0  0  0  0  0  0  0  0  0  0
  140.1270   80.3210  223.5590 C   0  0  0  0  0  0  0  0  0  0  0  0
  140.9580   79.2370  223.8520 C   0  0  0  0  0  0  0  0  0  0  0  0
  142.2120   79.1010  223.2950 C   0  0  0  0  0  0  0  0  0  0  0  0
  142.7080   80.0520  222.4040 C   0  0  0  0  0  0  0  0  0  0  0  0
  141.8920   81.1260  222.1110 C   0  0  0  0  0  0  0  0  0  0  0  0
  140.6420   81.2460  222.6770 C   0  0  0  0  0  0  0  0  0  0  0  0
  136.2870   77.5340  223.0180 N   0  0  0  0  0  0  0  0  0  0  0  0
  136.5730   76.2360  223.2290 C   0  0  0  0  0  0  0  0  0  0  0  0
  135.6600   75.4280  223.9620 N   0  0  0  0  0  0  0  0  0  0  0  0
  135.7760   73.9890  223.8630 C   0  0  0  0  0  0  0  0  0  0  0  0
  134.3820   73.3610  223.9580 C   0  0  0  0  0  0  0  0  0  0  0  0
  133.7700   73.8300  225.2090 C   0  0  0  0  0  0  0  0  0  0  0  0
  133.0560   72.9200  225.9840 C   0  0  0  0  0  0  0  0  0  0  0  0
  132.4770   73.3470  227.1590 C   0  0  0  0  0  0  0  0  0  0  0  0
  132.6230   74.6640  227.5330 C   0  0  0  0  0  0  0  0  0  0  0  0
  133.3180   75.5700  226.7860 C   0  0  0  0  0  0  0  0  0  0  0  0
  133.8990   75.1360  225.6050 C   0  0  0  0  0  0  0  0  0  0  0  0
  134.6630   76.0900  224.7670 C   0  0  0  0  0  0  0  0  0  0  0  0
  137.7230   75.7470  222.7310 N   0  0  0  0  0  0  0  0  0  0  0  0
  139.8120   74.6030  221.0660 C   0  0  0  0  0  0  0  0  0  0  0  0
  145.9040   73.6580  221.9680 H   0  0  0  0  0  0  0  0  0  0  0  0
  146.4850   72.1000  221.8690 H   0  0  0  0  0  0  0  0  0  0  0  0
  143.1125   71.2977  220.9056 H   0  0  0  0  0  0  0  0  0  0  0  0
  140.8086   72.0776  221.3690 H   0  0  0  0  0  0  0  0  0  0  0  0
  144.1925   75.2709  219.7011 H   0  0  0  0  0  0  0  0  0  0  0  0
  142.6115   77.0488  219.9650 H   0  0  0  0  0  0  0  0  0  0  0  0
  141.1010   76.5264  219.2325 H   0  0  0  0  0  0  0  0  0  0  0  0
  141.6644   76.5480  222.2770 H   0  0  0  0  0  0  0  0  0  0  0  0
  140.7664   77.8378  221.4160 H   0  0  0  0  0  0  0  0  0  0  0  0
  136.7610   80.0620  221.1330 H   0  0  0  0  0  0  0  0  0  0  0  0
  135.8169   81.3532  222.9750 H   0  0  0  0  0  0  0  0  0  0  0  0
  136.0738   79.9758  224.0741 H   0  0  0  0  0  0  0  0  0  0  0  0
  137.9654   82.2468  223.6005 H   0  0  0  0  0  0  0  0  0  0  0  0
  138.6302   79.8569  225.0900 H   0  0  0  0  0  0  0  0  0  0  0  0
  140.6000   78.4662  224.5504 H   0  0  0  0  0  0  0  0  0  0  0  0
  142.8301   78.2297  223.5573 H   0  0  0  0  0  0  0  0  0  0  0  0
  143.7066   79.9507  221.9540 H   0  0  0  0  0  0  0  0  0  0  0  0
  142.2460   81.8994  221.4135 H   0  0  0  0  0  0  0  0  0  0  0  0
  140.0274   82.1193  222.4131 H   0  0  0  0  0  0  0  0  0  0  0  0
  136.2341   73.7227  222.8990 H   0  0  0  0  0  0  0  0  0  0  0  0
  136.4062   73.6129  224.6824 H   0  0  0  0  0  0  0  0  0  0  0  0
  133.7696   73.6747  223.0997 H   0  0  0  0  0  0  0  0  0  0  0  0
  134.4504   72.2632  223.9482 H   0  0  0  0  0  0  0  0  0  0  0  0
  132.9554   71.8730  225.6621 H   0  0  0  0  0  0  0  0  0  0  0  0
  131.9074   72.6471  227.7881 H   0  0  0  0  0  0  0  0  0  0  0  0
  132.1603   74.9997  228.4728 H   0  0  0  0  0  0  0  0  0  0  0  0
  133.4145   76.6161  227.1122 H   0  0  0  0  0  0  0  0  0  0  0  0
  133.9631   76.6171  224.1020 H   0  0  0  0  0  0  0  0  0  0  0  0
  135.1807   76.7909  225.4383 H   0  0  0  0  0  0  0  0  0  0  0  0
  139.3528   73.9756  221.8441 H   0  0  0  0  0  0  0  0  0  0  0  0
  139.2482   74.5524  220.1228 H   0  0  0  0  0  0  0  0  0  0  0  0
  1  2  1  0
  2  3  2  0
  2  4  2  0
  2  5  1  0
  5  6  2  0
  6  7  1  0
  7  8  2  0
  8  9  1  0
  9 10  2  0
  9 11  1  0
 11 12  1  0
 12 13  1  0
 13 14  1  0
 14 15  2  0
 15 16  1  0
 16 17  1  0
 17 18  1  0
 18 19  1  0
 19 20  2  0
 20 21  1  0
 21 22  2  0
 22 23  1  0
 23 24  2  0
 24 25  1  0
 25 26  2  0
 16 27  2  0
 27 28  1  0
 28 29  1  0
 29 30  1  0
 30 31  1  0
 31 32  1  0
 32 33  2  0
 33 34  1  0
 34 35  2  0
 35 36  1  0
 36 37  2  0
 37 38  1  0
 28 39  2  0
 13 40  1  0
 10  5  1  0
 39 14  1  0
 40  8  1  0
 26 21  1  0
 38 29  1  0
 37 32  1  0
  1 41  1  0
  1 42  1  0
  6 43  1  0
  7 44  1  0
 10 45  1  0
 11 46  1  0
 11 47  1  0
 12 48  1  0
 12 49  1  0
 17 50  1  0
 18 51  1  0
 18 52  1  0
 19 53  1  0
 20 54  1  0
 22 55  1  0
 23 56  1  0
 24 57  1  0
 25 58  1  0
 26 59  1  0
 30 60  1  0
 30 61  1  0
 31 62  1  0
 31 63  1  0
 33 64  1  0
 34 65  1  0
 35 66  1  0
 36 67  1  0
 38 68  1  0
 38 69  1  0
 40 70  1  0
 40 71  1  0
M  END
>  <smiles>  (33) 
NS(=O)(=O)c1ccc2c(c1)CCN(c1nc(NC/C=C/c3ccccc3)nc(N3CCc4ccccc4C3)n1)C2

>  <score_type>  (33) 
oracle

>  <origin>  (33) 
autodockgpu

>  <m_score__min__energy>  (33) 
-10.630000000000001

>  <m_primary>  (33) 
energy

>  <rmsd>  (33) 
10.45156267701578

>  <m_score__min__rmsd>  (33) 
10.45156267701578

>  <meeko>  (33) 
{"free_energy": -10.08, "intermolecular_energy": -12.77, "internal_energy": -1.93, "cluster_size": 42, "cluster_id": 2, "rank_in_cluster": 24}

>  <energy>  (33) 
-10.07

>  <cluster_rmsd>  (33) 
0.49

>  <cluster>  (33) 
2

$$$$

     RDKit          3D

 71 76  0  0  0  0  0  0  0  0999 V2000
  146.0060   71.5160  220.0550 N   0  0  0  0  0  0  0  0  0  0  0  0
  145.7420   73.2070  219.7330 S   0  0  0  0  0  0  0  0  0  0  0  0
  146.7010   74.0140  220.5360 O   0  0  0  0  0  0  0  0  0  0  0  0
  146.0310   73.4140  218.2720 O   0  0  0  0  0  0  0  0  0  0  0  0
  144.1070   73.6250  220.1360 C   0  0  0  0  0  0  0  0  0  0  0  0
  143.2710   72.7000  220.7510 C   0  0  0  0  0  0  0  0  0  0  0  0
  141.9560   73.0400  221.0750 C   0  0  0  0  0  0  0  0  0  0  0  0
  141.4330   74.2860  220.8050 C   0  0  0  0  0  0  0  0  0  0  0  0
  142.2920   75.1950  220.1880 C   0  0  0  0  0  0  0  0  0  0  0  0
  143.5940   74.8760  219.8630 C   0  0  0  0  0  0  0  0  0  0  0  0
  141.7100   76.5530  219.9000 C   0  0  0  0  0  0  0  0  0  0  0  0
  141.0470   76.9600  221.2150 C   0  0  0  0  0  0  0  0  0  0  0  0
  139.9310   76.0780  221.4690 N   0  0  0  0  0  0  0  0  0  0  0  0
  138.7090   76.5330  222.0400 C   0  0  0  0  0  0  0  0  0  0  0  0
  138.3590   77.8320  222.0210 N   0  0  0  0  0  0  0  0  0  0  0  0
  137.2270   78.3060  222.5400 C   0  0  0  0  0  0  0  0  0  0  0  0
  136.8920   79.6920  222.4990 N   0  0  0  0  0  0  0  0  0  0  0  0
  136.6760   80.4040  223.7300 C   0  0  0  0  0  0  0  0  0  0  0  0
  138.0210   80.8060  224.2570 C   0  0  0  0  0  0  0  0  0  0  0  0
  138.9890   81.2290  223.4640 C   0  0  0  0  0  0  0  0  0  0  0  0
  140.2890   80.5970  223.3520 C   0  0  0  0  0  0  0  0  0  0  0  0
  141.3330   81.2410  222.6850 C   0  0  0  0  0  0  0  0  0  0  0  0
  142.5840   80.6750  222.5570 C   0  0  0  0  0  0  0  0  0  0  0  0
  142.8610   79.4190  223.0950 C   0  0  0  0  0  0  0  0  0  0  0  0
  141.8330   78.7770  223.7550 C   0  0  0  0  0  0  0  0  0  0  0  0
  140.5900   79.3580  223.8740 C   0  0  0  0  0  0  0  0  0  0  0  0
  136.3930   77.4150  223.1180 N   0  0  0  0  0  0  0  0  0  0  0  0
  136.6850   76.1020  223.1710 C   0  0  0  0  0  0  0  0  0  0  0  0
  135.7710   75.2060  223.7910 N   0  0  0  0  0  0  0  0  0  0  0  0
  135.8830   73.7920  223.5010 C   0  0  0  0  0  0  0  0  0  0  0  0
  134.4870   73.1610  223.5130 C   0  0  0  0  0  0  0  0  0  0  0  0
  133.8780   73.4600  224.8170 C   0  0  0  0  0  0  0  0  0  0  0  0
  133.1630   72.4560  225.4650 C   0  0  0  0  0  0  0  0  0  0  0  0
  132.5870   72.7230  226.6870 C   0  0  0  0  0  0  0  0  0  0  0  0
  132.7370   73.9780  227.2330 C   0  0  0  0  0  0  0  0  0  0  0  0
  133.4330   74.9740  226.6130 C   0  0  0  0  0  0  0  0  0  0  0  0
  134.0110   74.7010  225.3840 C   0  0  0  0  0  0  0  0  0  0  0  0
  134.7770   75.7560  224.6790 C   0  0  0  0  0  0  0  0  0  0  0  0
  137.8430   75.6830  222.6280 N   0  0  0  0  0  0  0  0  0  0  0  0
  140.0490   74.6710  221.1340 C   0  0  0  0  0  0  0  0  0  0  0  0
  146.7580   71.4490  220.7990 H   0  0  0  0  0  0  0  0  0  0  0  0
  145.1310   71.1810  220.5560 H   0  0  0  0  0  0  0  0  0  0  0  0
  143.6481   71.6933  220.9840 H   0  0  0  0  0  0  0  0  0  0  0  0
  141.3167   72.2887  221.5616 H   0  0  0  0  0  0  0  0  0  0  0  0
  144.2323   75.6300  219.3792 H   0  0  0  0  0  0  0  0  0  0  0  0
  142.5006   77.2663  219.6240 H   0  0  0  0  0  0  0  0  0  0  0  0
  141.0035   76.5397  219.0570 H   0  0  0  0  0  0  0  0  0  0  0  0
  141.7750   76.8802  222.0358 H   0  0  0  0  0  0  0  0  0  0  0  0
  140.6929   77.9993  221.1479 H   0  0  0  0  0  0  0  0  0  0  0  0
  136.8160   80.1440  221.5580 H   0  0  0  0  0  0  0  0  0  0  0  0
  136.0622   81.2978  223.5447 H   0  0  0  0  0  0  0  0  0  0  0  0
  136.1471   79.7707  224.4575 H   0  0  0  0  0  0  0  0  0  0  0  0
  138.2077   80.7467  225.3394 H   0  0  0  0  0  0  0  0  0  0  0  0
  138.7960   82.1196  222.8479 H   0  0  0  0  0  0  0  0  0  0  0  0
  141.1514   82.2335  222.2468 H   0  0  0  0  0  0  0  0  0  0  0  0
  143.3746   81.2223  222.0228 H   0  0  0  0  0  0  0  0  0  0  0  0
  143.8557   78.9597  222.9976 H   0  0  0  0  0  0  0  0  0  0  0  0
  142.0095   77.7838  224.1937 H   0  0  0  0  0  0  0  0  0  0  0  0
  139.8022   78.8082  224.4098 H   0  0  0  0  0  0  0  0  0  0  0  0
  136.3397   73.6552  222.5097 H   0  0  0  0  0  0  0  0  0  0  0  0
  136.5128   73.3083  224.2622 H   0  0  0  0  0  0  0  0  0  0  0  0
  133.8746   73.5888  222.7056 H   0  0  0  0  0  0  0  0  0  0  0  0
  134.5518   72.0742  223.3558 H   0  0  0  0  0  0  0  0  0  0  0  0
  133.0595   71.4616  225.0063 H   0  0  0  0  0  0  0  0  0  0  0  0
  132.0166   71.9466  227.2180 H   0  0  0  0  0  0  0  0  0  0  0  0
  132.2764   74.1862  228.2100 H   0  0  0  0  0  0  0  0  0  0  0  0
  133.5325   75.9667  227.0762 H   0  0  0  0  0  0  0  0  0  0  0  0
  134.0776   76.3690  224.0916 H   0  0  0  0  0  0  0  0  0  0  0  0
  135.2981   76.3588  225.4373 H   0  0  0  0  0  0  0  0  0  0  0  0
  139.7110   74.0736  221.9936 H   0  0  0  0  0  0  0  0  0  0  0  0
  139.4287   74.4847  220.2449 H   0  0  0  0  0  0  0  0  0  0  0  0
  1  2  1  0
  2  3  2  0
  2  4  2  0
  2  5  1  0
  5  6  2  0
  6  7  1  0
  7  8  2  0
  8  9  1  0
  9 10  2  0
  9 11  1  0
 11 12  1  0
 12 13  1  0
 13 14  1  0
 14 15  2  0
 15 16  1  0
 16 17  1  0
 17 18  1  0
 18 19  1  0
 19 20  2  0
 20 21  1  0
 21 22  2  0
 22 23  1  0
 23 24  2  0
 24 25  1  0
 25 26  2  0
 16 27  2  0
 27 28  1  0
 28 29  1  0
 29 30  1  0
 30 31  1  0
 31 32  1  0
 32 33  2  0
 33 34  1  0
 34 35  2  0
 35 36  1  0
 36 37  2  0
 37 38  1  0
 28 39  2  0
 13 40  1  0
 10  5  1  0
 39 14  1  0
 40  8  1  0
 26 21  1  0
 38 29  1  0
 37 32  1  0
  1 41  1  0
  1 42  1  0
  6 43  1  0
  7 44  1  0
 10 45  1  0
 11 46  1  0
 11 47  1  0
 12 48  1  0
 12 49  1  0
 17 50  1  0
 18 51  1  0
 18 52  1  0
 19 53  1  0
 20 54  1  0
 22 55  1  0
 23 56  1  0
 24 57  1  0
 25 58  1  0
 26 59  1  0
 30 60  1  0
 30 61  1  0
 31 62  1  0
 31 63  1  0
 33 64  1  0
 34 65  1  0
 35 66  1  0
 36 67  1  0
 38 68  1  0
 38 69  1  0
 40 70  1  0
 40 71  1  0
M  END
>  <smiles>  (34) 
NS(=O)(=O)c1ccc2c(c1)CCN(c1nc(NC/C=C/c3ccccc3)nc(N3CCc4ccccc4C3)n1)C2

>  <score_type>  (34) 
oracle

>  <origin>  (34) 
autodockgpu

>  <m_score__min__energy>  (34) 
-10.630000000000001

>  <m_primary>  (34) 
energy

>  <rmsd>  (34) 
10.37312424926834

>  <m_score__min__rmsd>  (34) 
10.37312424926834

>  <meeko>  (34) 
{"free_energy": -10.25, "intermolecular_energy": -12.94, "internal_energy": -1.96, "cluster_size": 42, "cluster_id": 2, "rank_in_cluster": 18}

>  <energy>  (34) 
-10.07

>  <cluster_rmsd>  (34) 
0.54

>  <cluster>  (34) 
2

$$$$

     RDKit          3D

 71 76  0  0  0  0  0  0  0  0999 V2000
  145.9530   73.4120  218.5410 N   0  0  0  0  0  0  0  0  0  0  0  0
  145.4270   72.7960  220.0830 S   0  0  0  0  0  0  0  0  0  0  0  0
  145.5130   71.3110  220.0720 O   0  0  0  0  0  0  0  0  0  0  0  0
  146.3870   73.3360  221.1080 O   0  0  0  0  0  0  0  0  0  0  0  0
  143.7970   73.3100  220.3870 C   0  0  0  0  0  0  0  0  0  0  0  0
  142.8440   72.4070  220.8400 C   0  0  0  0  0  0  0  0  0  0  0  0
  141.5330   72.8230  221.0850 C   0  0  0  0  0  0  0  0  0  0  0  0
  141.1310   74.1270  220.8900 C   0  0  0  0  0  0  0  0  0  0  0  0
  142.1060   75.0130  220.4350 C   0  0  0  0  0  0  0  0  0  0  0  0
  143.4050   74.6180  220.1900 C   0  0  0  0  0  0  0  0  0  0  0  0
  141.6550   76.4330  220.2270 C   0  0  0  0  0  0  0  0  0  0  0  0
  140.9080   76.7780  221.5150 C   0  0  0  0  0  0  0  0  0  0  0  0
  139.7110   75.9710  221.5930 N   0  0  0  0  0  0  0  0  0  0  0  0
  138.4810   76.4740  222.1010 C   0  0  0  0  0  0  0  0  0  0  0  0
  138.1000   77.7490  221.9030 N   0  0  0  0  0  0  0  0  0  0  0  0
  136.9590   78.2650  222.3570 C   0  0  0  0  0  0  0  0  0  0  0  0
  136.5930   79.6240  222.1260 N   0  0  0  0  0  0  0  0  0  0  0  0
  136.5620   80.5460  223.2300 C   0  0  0  0  0  0  0  0  0  0  0  0
  137.8930   80.4680  223.9150 C   0  0  0  0  0  0  0  0  0  0  0  0
  138.9470   81.1350  223.4820 C   0  0  0  0  0  0  0  0  0  0  0  0
  140.2730   80.5670  223.3390 C   0  0  0  0  0  0  0  0  0  0  0  0
  140.5770   79.3280  223.9070 C   0  0  0  0  0  0  0  0  0  0  0  0
  141.8260   78.7530  223.7940 C   0  0  0  0  0  0  0  0  0  0  0  0
  142.8490   79.3950  223.0990 C   0  0  0  0  0  0  0  0  0  0  0  0
  142.5570   80.6200  222.5350 C   0  0  0  0  0  0  0  0  0  0  0  0
  141.3030   81.1790  222.6580 C   0  0  0  0  0  0  0  0  0  0  0  0
  136.1460   77.4440  223.0570 N   0  0  0  0  0  0  0  0  0  0  0  0
  136.4680   76.1580  223.2900 C   0  0  0  0  0  0  0  0  0  0  0  0
  135.5760   75.3360  224.0320 N   0  0  0  0  0  0  0  0  0  0  0  0
  135.7580   73.9010  223.9880 C   0  0  0  0  0  0  0  0  0  0  0  0
  134.3900   73.2150  224.0760 C   0  0  0  0  0  0  0  0  0  0  0  0
  133.7310   73.6990  225.2960 C   0  0  0  0  0  0  0  0  0  0  0  0
  133.0400   72.7860  226.0890 C   0  0  0  0  0  0  0  0  0  0  0  0
  132.4180   73.2260  227.2360 C   0  0  0  0  0  0  0  0  0  0  0  0
  132.4970   74.5610  227.5650 C   0  0  0  0  0  0  0  0  0  0  0  0
  133.1680   75.4700  226.8010 C   0  0  0  0  0  0  0  0  0  0  0  0
  133.7930   75.0230  225.6480 C   0  0  0  0  0  0  0  0  0  0  0  0
  134.5330   75.9800  224.7920 C   0  0  0  0  0  0  0  0  0  0  0  0
  137.6350   75.6950  222.8040 N   0  0  0  0  0  0  0  0  0  0  0  0
  139.7550   74.5940  221.1390 C   0  0  0  0  0  0  0  0  0  0  0  0
  145.2350   74.1230  218.2220 H   0  0  0  0  0  0  0  0  0  0  0  0
  146.8120   74.0020  218.7470 H   0  0  0  0  0  0  0  0  0  0  0  0
  143.1235   71.3563  221.0071 H   0  0  0  0  0  0  0  0  0  0  0  0
  140.7988   72.0871  221.4447 H   0  0  0  0  0  0  0  0  0  0  0  0
  144.1382   75.3561  219.8327 H   0  0  0  0  0  0  0  0  0  0  0  0
  142.5180   77.1002  220.0852 H   0  0  0  0  0  0  0  0  0  0  0  0
  141.0284   76.5505  219.3306 H   0  0  0  0  0  0  0  0  0  0  0  0
  141.5515   76.5688  222.3823 H   0  0  0  0  0  0  0  0  0  0  0  0
  140.6389   77.8446  221.5153 H   0  0  0  0  0  0  0  0  0  0  0  0
  136.3560   79.9020  221.1440 H   0  0  0  0  0  0  0  0  0  0  0  0
  136.3876   81.5678  222.8620 H   0  0  0  0  0  0  0  0  0  0  0  0
  135.7503   80.2908  223.9271 H   0  0  0  0  0  0  0  0  0  0  0  0
  137.9950   79.8340  224.8081 H   0  0  0  0  0  0  0  0  0  0  0  0
  138.8097   82.1924  223.2117 H   0  0  0  0  0  0  0  0  0  0  0  0
  139.7939   78.7922  224.4635 H   0  0  0  0  0  0  0  0  0  0  0  0
  142.0169   77.7745  224.2589 H   0  0  0  0  0  0  0  0  0  0  0  0
  143.8478   78.9440  223.0039 H   0  0  0  0  0  0  0  0  0  0  0  0
  143.3376   81.1592  221.9782 H   0  0  0  0  0  0  0  0  0  0  0  0
  141.1160   82.1575  222.1916 H   0  0  0  0  0  0  0  0  0  0  0  0
  136.2494   73.6215  223.0444 H   0  0  0  0  0  0  0  0  0  0  0  0
  136.3855   73.5826  224.8335 H   0  0  0  0  0  0  0  0  0  0  0  0
  133.7838   73.4716  223.1947 H   0  0  0  0  0  0  0  0  0  0  0  0
  134.5062   72.1216  224.1062 H   0  0  0  0  0  0  0  0  0  0  0  0
  132.9917   71.7252  225.8022 H   0  0  0  0  0  0  0  0  0  0  0  0
  131.8674   72.5232  227.8785 H   0  0  0  0  0  0  0  0  0  0  0  0
  131.9983   74.9085  228.4818 H   0  0  0  0  0  0  0  0  0  0  0  0
  133.2118   76.5298  227.0924 H   0  0  0  0  0  0  0  0  0  0  0  0
  133.8256   76.4516  224.0941 H   0  0  0  0  0  0  0  0  0  0  0  0
  135.0045   76.7261  225.4485 H   0  0  0  0  0  0  0  0  0  0  0  0
  139.2987   73.9538  221.9084 H   0  0  0  0  0  0  0  0  0  0  0  0
  139.2048   74.5370  220.1882 H   0  0  0  0  0  0  0  0  0  0  0  0
  1  2  1  0
  2  3  2  0
  2  4  2  0
  2  5  1  0
  5  6  2  0
  6  7  1  0
  7  8  2  0
  8  9  1  0
  9 10  2  0
  9 11  1  0
 11 12  1  0
 12 13  1  0
 13 14  1  0
 14 15  2  0
 15 16  1  0
 16 17  1  0
 17 18  1  0
 18 19  1  0
 19 20  2  0
 20 21  1  0
 21 22  2  0
 22 23  1  0
 23 24  2  0
 24 25  1  0
 25 26  2  0
 16 27  2  0
 27 28  1  0
 28 29  1  0
 29 30  1  0
 30 31  1  0
 31 32  1  0
 32 33  2  0
 33 34  1  0
 34 35  2  0
 35 36  1  0
 36 37  2  0
 37 38  1  0
 28 39  2  0
 13 40  1  0
 10  5  1  0
 39 14  1  0
 40  8  1  0
 26 21  1  0
 38 29  1  0
 37 32  1  0
  1 41  1  0
  1 42  1  0
  6 43  1  0
  7 44  1  0
 10 45  1  0
 11 46  1  0
 11 47  1  0
 12 48  1  0
 12 49  1  0
 17 50  1  0
 18 51  1  0
 18 52  1  0
 19 53  1  0
 20 54  1  0
 22 55  1  0
 23 56  1  0
 24 57  1  0
 25 58  1  0
 26 59  1  0
 30 60  1  0
 30 61  1  0
 31 62  1  0
 31 63  1  0
 33 64  1  0
 34 65  1  0
 35 66  1  0
 36 67  1  0
 38 68  1  0
 38 69  1  0
 40 70  1  0
 40 71  1  0
M  END
>  <smiles>  (35) 
NS(=O)(=O)c1ccc2c(c1)CCN(c1nc(NC/C=C/c3ccccc3)nc(N3CCc4ccccc4C3)n1)C2

>  <score_type>  (35) 
oracle

>  <origin>  (35) 
autodockgpu

>  <m_score__min__energy>  (35) 
-10.630000000000001

>  <m_primary>  (35) 
energy

>  <rmsd>  (35) 
10.584270508365265

>  <m_score__min__rmsd>  (35) 
10.584270508365265

>  <meeko>  (35) 
{"free_energy": -10.47, "intermolecular_energy": -13.16, "internal_energy": -1.93, "cluster_size": 42, "cluster_id": 2, "rank_in_cluster": 7}

>  <energy>  (35) 
-10.05

>  <cluster_rmsd>  (35) 
0.53

>  <cluster>  (35) 
2

$$$$

     RDKit          3D

 71 76  0  0  0  0  0  0  0  0999 V2000
  145.9300   73.4140  218.5110 N   0  0  0  0  0  0  0  0  0  0  0  0
  145.3760   72.6650  219.9820 S   0  0  0  0  0  0  0  0  0  0  0  0
  145.4030   71.1870  219.8190 O   0  0  0  0  0  0  0  0  0  0  0  0
  146.3540   73.0580  221.0560 O   0  0  0  0  0  0  0  0  0  0  0  0
  143.7670   73.2100  220.3390 C   0  0  0  0  0  0  0  0  0  0  0  0
  142.8030   72.3170  220.7900 C   0  0  0  0  0  0  0  0  0  0  0  0
  141.5090   72.7580  221.0770 C   0  0  0  0  0  0  0  0  0  0  0  0
  141.1340   74.0760  220.9280 C   0  0  0  0  0  0  0  0  0  0  0  0
  142.1210   74.9500  220.4740 C   0  0  0  0  0  0  0  0  0  0  0  0
  143.4030   74.5310  220.1870 C   0  0  0  0  0  0  0  0  0  0  0  0
  141.7000   76.3860  220.3160 C   0  0  0  0  0  0  0  0  0  0  0  0
  140.9920   76.7140  221.6300 C   0  0  0  0  0  0  0  0  0  0  0  0
  139.7780   75.9340  221.7140 N   0  0  0  0  0  0  0  0  0  0  0  0
  138.5720   76.4520  222.2650 C   0  0  0  0  0  0  0  0  0  0  0  0
  138.2520   77.7550  222.1700 N   0  0  0  0  0  0  0  0  0  0  0  0
  137.1360   78.2860  222.6680 C   0  0  0  0  0  0  0  0  0  0  0  0
  136.8330   79.6750  222.5460 N   0  0  0  0  0  0  0  0  0  0  0  0
  136.7830   80.4940  223.7270 C   0  0  0  0  0  0  0  0  0  0  0  0
  137.9430   81.4420  223.6640 C   0  0  0  0  0  0  0  0  0  0  0  0
  138.8580   81.3710  222.7140 C   0  0  0  0  0  0  0  0  0  0  0  0
  140.1440   80.7190  222.8640 C   0  0  0  0  0  0  0  0  0  0  0  0
  140.3000   79.6610  223.7620 C   0  0  0  0  0  0  0  0  0  0  0  0
  141.5060   79.0140  223.9340 C   0  0  0  0  0  0  0  0  0  0  0  0
  142.6340   79.3960  223.2090 C   0  0  0  0  0  0  0  0  0  0  0  0
  142.4870   80.4410  222.3200 C   0  0  0  0  0  0  0  0  0  0  0  0
  141.2740   81.0760  222.1610 C   0  0  0  0  0  0  0  0  0  0  0  0
  136.2850   77.4510  223.3040 N   0  0  0  0  0  0  0  0  0  0  0  0
  136.5470   76.1370  223.4330 C   0  0  0  0  0  0  0  0  0  0  0  0
  135.6180   75.3020  224.1120 N   0  0  0  0  0  0  0  0  0  0  0  0
  135.7460   73.8670  223.9730 C   0  0  0  0  0  0  0  0  0  0  0  0
  134.3530   73.2290  224.0040 C   0  0  0  0  0  0  0  0  0  0  0  0
  133.7000   73.6540  225.2500 C   0  0  0  0  0  0  0  0  0  0  0  0
  132.9690   72.7170  225.9740 C   0  0  0  0  0  0  0  0  0  0  0  0
  132.3520   73.1030  227.1440 C   0  0  0  0  0  0  0  0  0  0  0  0
  132.4770   74.4080  227.5620 C   0  0  0  0  0  0  0  0  0  0  0  0
  133.1890   75.3410  226.8670 C   0  0  0  0  0  0  0  0  0  0  0  0
  133.8090   74.9480  225.6910 C   0  0  0  0  0  0  0  0  0  0  0  0
  134.5920   75.9320  224.9070 C   0  0  0  0  0  0  0  0  0  0  0  0
  137.6910   75.6590  222.9090 N   0  0  0  0  0  0  0  0  0  0  0  0
  139.7770   74.5690  221.2220 C   0  0  0  0  0  0  0  0  0  0  0  0
  145.2190   74.1520  218.2430 H   0  0  0  0  0  0  0  0  0  0  0  0
  146.7860   73.9820  218.7840 H   0  0  0  0  0  0  0  0  0  0  0  0
  143.0604   71.2557  220.9219 H   0  0  0  0  0  0  0  0  0  0  0  0
  140.7653   72.0300  221.4334 H   0  0  0  0  0  0  0  0  0  0  0  0
  144.1455   75.2608  219.8319 H   0  0  0  0  0  0  0  0  0  0  0  0
  142.5756   77.0359  220.1715 H   0  0  0  0  0  0  0  0  0  0  0  0
  141.0552   76.5427  219.4387 H   0  0  0  0  0  0  0  0  0  0  0  0
  141.6498   76.4659  222.4760 H   0  0  0  0  0  0  0  0  0  0  0  0
  140.7497   77.7864  221.6657 H   0  0  0  0  0  0  0  0  0  0  0  0
  136.6560   80.0490  221.5840 H   0  0  0  0  0  0  0  0  0  0  0  0
  135.8383   81.0569  223.7546 H   0  0  0  0  0  0  0  0  0  0  0  0
  136.8375   79.8729  224.6332 H   0  0  0  0  0  0  0  0  0  0  0  0
  138.0350   82.2221  224.4341 H   0  0  0  0  0  0  0  0  0  0  0  0
  138.6289   81.8377  221.7446 H   0  0  0  0  0  0  0  0  0  0  0  0
  139.4318   79.3325  224.3521 H   0  0  0  0  0  0  0  0  0  0  0  0
  141.5788   78.1850  224.6533 H   0  0  0  0  0  0  0  0  0  0  0  0
  143.5998   78.8861  223.3401 H   0  0  0  0  0  0  0  0  0  0  0  0
  143.3527   80.7730  221.7281 H   0  0  0  0  0  0  0  0  0  0  0  0
  141.2050   81.9046  221.4408 H   0  0  0  0  0  0  0  0  0  0  0  0
  136.2363   73.6327  223.0166 H   0  0  0  0  0  0  0  0  0  0  0  0
  136.3520   73.4692  224.8004 H   0  0  0  0  0  0  0  0  0  0  0  0
  133.7656   73.5675  223.1378 H   0  0  0  0  0  0  0  0  0  0  0  0
  134.4281   72.1324  223.9605 H   0  0  0  0  0  0  0  0  0  0  0  0
  132.8847   71.6802  225.6164 H   0  0  0  0  0  0  0  0  0  0  0  0
  131.7694   72.3801  227.7339 H   0  0  0  0  0  0  0  0  0  0  0  0
  131.9818   74.7116  228.4961 H   0  0  0  0  0  0  0  0  0  0  0  0
  133.2690   76.3765  227.2296 H   0  0  0  0  0  0  0  0  0  0  0  0
  133.9091   76.4759  224.2378 H   0  0  0  0  0  0  0  0  0  0  0  0
  135.0846   76.6138  225.6159 H   0  0  0  0  0  0  0  0  0  0  0  0
  139.3227   73.9192  221.9845 H   0  0  0  0  0  0  0  0  0  0  0  0
  139.2036   74.5516  220.2834 H   0  0  0  0  0  0  0  0  0  0  0  0
  1  2  1  0
  2  3  2  0
  2  4  2  0
  2  5  1  0
  5  6  2  0
  6  7  1  0
  7  8  2  0
  8  9  1  0
  9 10  2  0
  9 11  1  0
 11 12  1  0
 12 13  1  0
 13 14  1  0
 14 15  2  0
 15 16  1  0
 16 17  1  0
 17 18  1  0
 18 19  1  0
 19 20  2  0
 20 21  1  0
 21 22  2  0
 22 23  1  0
 23 24  2  0
 24 25  1  0
 25 26  2  0
 16 27  2  0
 27 28  1  0
 28 29  1  0
 29 30  1  0
 30 31  1  0
 31 32  1  0
 32 33  2  0
 33 34  1  0
 34 35  2  0
 35 36  1  0
 36 37  2  0
 37 38  1  0
 28 39  2  0
 13 40  1  0
 10  5  1  0
 39 14  1  0
 40  8  1  0
 26 21  1  0
 38 29  1  0
 37 32  1  0
  1 41  1  0
  1 42  1  0
  6 43  1  0
  7 44  1  0
 10 45  1  0
 11 46  1  0
 11 47  1  0
 12 48  1  0
 12 49  1  0
 17 50  1  0
 18 51  1  0
 18 52  1  0
 19 53  1  0
 20 54  1  0
 22 55  1  0
 23 56  1  0
 24 57  1  0
 25 58  1  0
 26 59  1  0
 30 60  1  0
 30 61  1  0
 31 62  1  0
 31 63  1  0
 33 64  1  0
 34 65  1  0
 35 66  1  0
 36 67  1  0
 38 68  1  0
 38 69  1  0
 40 70  1  0
 40 71  1  0
M  END
>  <smiles>  (36) 
NS(=O)(=O)c1ccc2c(c1)CCN(c1nc(NC/C=C/c3ccccc3)nc(N3CCc4ccccc4C3)n1)C2

>  <score_type>  (36) 
oracle

>  <origin>  (36) 
autodockgpu

>  <m_score__min__energy>  (36) 
-10.630000000000001

>  <m_primary>  (36) 
energy

>  <rmsd>  (36) 
10.606746635161524

>  <m_score__min__rmsd>  (36) 
10.606746635161524

>  <meeko>  (36) 
{"free_energy": -10.34, "intermolecular_energy": -13.03, "internal_energy": -1.95, "cluster_size": 42, "cluster_id": 2, "rank_in_cluster": 16}

>  <energy>  (36) 
-10.05

>  <cluster_rmsd>  (36) 
0.66

>  <cluster>  (36) 
2

$$$$

     RDKit          3D

 71 76  0  0  0  0  0  0  0  0999 V2000
  146.0010   73.4030  218.5630 N   0  0  0  0  0  0  0  0  0  0  0  0
  145.3670   72.5960  219.9700 S   0  0  0  0  0  0  0  0  0  0  0  0
  145.3630   71.1280  219.7330 O   0  0  0  0  0  0  0  0  0  0  0  0
  146.3080   72.9070  221.1020 O   0  0  0  0  0  0  0  0  0  0  0  0
  143.7590   73.1660  220.2890 C   0  0  0  0  0  0  0  0  0  0  0  0
  142.8070   72.3220  220.8490 C   0  0  0  0  0  0  0  0  0  0  0  0
  141.5140   72.7830  221.1050 C   0  0  0  0  0  0  0  0  0  0  0  0
  141.1270   74.0750  220.8190 C   0  0  0  0  0  0  0  0  0  0  0  0
  142.1000   74.9000  220.2580 C   0  0  0  0  0  0  0  0  0  0  0  0
  143.3820   74.4610  220.0000 C   0  0  0  0  0  0  0  0  0  0  0  0
  141.6660   76.3080  219.9510 C   0  0  0  0  0  0  0  0  0  0  0  0
  140.9740   76.7720  221.2330 C   0  0  0  0  0  0  0  0  0  0  0  0
  139.7670   75.9980  221.4190 N   0  0  0  0  0  0  0  0  0  0  0  0
  138.5650   76.5650  221.9280 C   0  0  0  0  0  0  0  0  0  0  0  0
  138.2080   77.8330  221.6540 N   0  0  0  0  0  0  0  0  0  0  0  0
  137.0940   78.4080  222.1060 C   0  0  0  0  0  0  0  0  0  0  0  0
  136.7520   79.7560  221.7920 N   0  0  0  0  0  0  0  0  0  0  0  0
  137.7300   80.7950  221.9740 C   0  0  0  0  0  0  0  0  0  0  0  0
  137.8440   81.0490  223.4470 C   0  0  0  0  0  0  0  0  0  0  0  0
  138.8110   80.5250  224.1780 C   0  0  0  0  0  0  0  0  0  0  0  0
  140.1630   80.2980  223.7070 C   0  0  0  0  0  0  0  0  0  0  0  0
  140.7640   79.0470  223.8570 C   0  0  0  0  0  0  0  0  0  0  0  0
  142.0480   78.7910  223.4230 C   0  0  0  0  0  0  0  0  0  0  0  0
  142.8070   79.7840  222.8060 C   0  0  0  0  0  0  0  0  0  0  0  0
  142.2190   81.0230  222.6540 C   0  0  0  0  0  0  0  0  0  0  0  0
  140.9350   81.2610  223.0950 C   0  0  0  0  0  0  0  0  0  0  0  0
  136.2850   77.6570  222.8850 N   0  0  0  0  0  0  0  0  0  0  0  0
  136.5850   76.3820  223.1960 C   0  0  0  0  0  0  0  0  0  0  0  0
  135.6980   75.6360  224.0200 N   0  0  0  0  0  0  0  0  0  0  0  0
  134.7280   76.3520  224.8200 C   0  0  0  0  0  0  0  0  0  0  0  0
  134.4990   75.5970  226.1340 C   0  0  0  0  0  0  0  0  0  0  0  0
  134.0990   74.2250  225.7910 C   0  0  0  0  0  0  0  0  0  0  0  0
  133.0720   73.6290  226.5180 C   0  0  0  0  0  0  0  0  0  0  0  0
  132.6860   72.3440  226.2070 C   0  0  0  0  0  0  0  0  0  0  0  0
  133.3310   71.6860  225.1830 C   0  0  0  0  0  0  0  0  0  0  0  0
  134.3390   72.2530  224.4610 C   0  0  0  0  0  0  0  0  0  0  0  0
  134.7230   73.5460  224.7770 C   0  0  0  0  0  0  0  0  0  0  0  0
  135.8140   74.1980  224.0140 C   0  0  0  0  0  0  0  0  0  0  0  0
  137.7240   75.8570  222.7090 N   0  0  0  0  0  0  0  0  0  0  0  0
  139.7700   74.5880  221.0780 C   0  0  0  0  0  0  0  0  0  0  0  0
  145.2760   74.1080  218.2480 H   0  0  0  0  0  0  0  0  0  0  0  0
  146.7980   74.0090  218.9170 H   0  0  0  0  0  0  0  0  0  0  0  0
  143.0742   71.2831  221.0923 H   0  0  0  0  0  0  0  0  0  0  0  0
  140.7809   72.0934  221.5489 H   0  0  0  0  0  0  0  0  0  0  0  0
  144.1137   75.1531  219.5577 H   0  0  0  0  0  0  0  0  0  0  0  0
  142.5345   76.9437  219.7239 H   0  0  0  0  0  0  0  0  0  0  0  0
  141.0080   76.3650  219.0713 H   0  0  0  0  0  0  0  0  0  0  0  0
  141.6457   76.6208  222.0909 H   0  0  0  0  0  0  0  0  0  0  0  0
  140.7240   77.8405  221.1563 H   0  0  0  0  0  0  0  0  0  0  0  0
  135.7840   79.9400  221.4360 H   0  0  0  0  0  0  0  0  0  0  0  0
  138.7015   80.4718  221.5717 H   0  0  0  0  0  0  0  0  0  0  0  0
  137.4281   81.7103  221.4439 H   0  0  0  0  0  0  0  0  0  0  0  0
  137.0976   81.6930  223.9350 H   0  0  0  0  0  0  0  0  0  0  0  0
  138.5746   80.2417  225.2142 H   0  0  0  0  0  0  0  0  0  0  0  0
  140.1943   78.2380  224.3376 H   0  0  0  0  0  0  0  0  0  0  0  0
  142.4791   77.7891  223.5658 H   0  0  0  0  0  0  0  0  0  0  0  0
  143.8310   79.5883  222.4552 H   0  0  0  0  0  0  0  0  0  0  0  0
  142.7845   81.8345  222.1727 H   0  0  0  0  0  0  0  0  0  0  0  0
  140.5077   82.2645  222.9519 H   0  0  0  0  0  0  0  0  0  0  0  0
  135.1050   77.3622  225.0375 H   0  0  0  0  0  0  0  0  0  0  0  0
  133.7793   76.4279  224.2684 H   0  0  0  0  0  0  0  0  0  0  0  0
  135.4268   75.5812  226.7247 H   0  0  0  0  0  0  0  0  0  0  0  0
  133.7191   76.0897  226.7332 H   0  0  0  0  0  0  0  0  0  0  0  0
  132.5747   74.1780  227.3312 H   0  0  0  0  0  0  0  0  0  0  0  0
  131.8769   71.8518  226.7665 H   0  0  0  0  0  0  0  0  0  0  0  0
  133.0197   70.6599  224.9375 H   0  0  0  0  0  0  0  0  0  0  0  0
  134.8338   71.6989  223.6497 H   0  0  0  0  0  0  0  0  0  0  0  0
  136.7778   73.9183  224.4644 H   0  0  0  0  0  0  0  0  0  0  0  0
  135.7468   73.8577  222.9701 H   0  0  0  0  0  0  0  0  0  0  0  0
  139.3318   74.0218  221.9131 H   0  0  0  0  0  0  0  0  0  0  0  0
  139.1835   74.4650  220.1556 H   0  0  0  0  0  0  0  0  0  0  0  0
  1  2  1  0
  2  3  2  0
  2  4  2  0
  2  5  1  0
  5  6  2  0
  6  7  1  0
  7  8  2  0
  8  9  1  0
  9 10  2  0
  9 11  1  0
 11 12  1  0
 12 13  1  0
 13 14  1  0
 14 15  2  0
 15 16  1  0
 16 17  1  0
 17 18  1  0
 18 19  1  0
 19 20  2  0
 20 21  1  0
 21 22  2  0
 22 23  1  0
 23 24  2  0
 24 25  1  0
 25 26  2  0
 16 27  2  0
 27 28  1  0
 28 29  1  0
 29 30  1  0
 30 31  1  0
 31 32  1  0
 32 33  2  0
 33 34  1  0
 34 35  2  0
 35 36  1  0
 36 37  2  0
 37 38  1  0
 28 39  2  0
 13 40  1  0
 10  5  1  0
 39 14  1  0
 40  8  1  0
 26 21  1  0
 38 29  1  0
 37 32  1  0
  1 41  1  0
  1 42  1  0
  6 43  1  0
  7 44  1  0
 10 45  1  0
 11 46  1  0
 11 47  1  0
 12 48  1  0
 12 49  1  0
 17 50  1  0
 18 51  1  0
 18 52  1  0
 19 53  1  0
 20 54  1  0
 22 55  1  0
 23 56  1  0
 24 57  1  0
 25 58  1  0
 26 59  1  0
 30 60  1  0
 30 61  1  0
 31 62  1  0
 31 63  1  0
 33 64  1  0
 34 65  1  0
 35 66  1  0
 36 67  1  0
 38 68  1  0
 38 69  1  0
 40 70  1  0
 40 71  1  0
M  END
>  <smiles>  (37) 
NS(=O)(=O)c1ccc2c(c1)CCN(c1nc(NC/C=C/c3ccccc3)nc(N3CCc4ccccc4C3)n1)C2

>  <score_type>  (37) 
oracle

>  <origin>  (37) 
autodockgpu

>  <m_score__min__energy>  (37) 
-10.630000000000001

>  <m_primary>  (37) 
energy

>  <rmsd>  (37) 
10.656262690512877

>  <m_score__min__rmsd>  (37) 
10.656262690512877

>  <meeko>  (37) 
{"free_energy": -10.05, "intermolecular_energy": -12.73, "internal_energy": -1.97, "cluster_size": 42, "cluster_id": 2, "rank_in_cluster": 29}

>  <energy>  (37) 
-10.05

>  <cluster_rmsd>  (37) 
1.15

>  <cluster>  (37) 
2

$$$$

     RDKit          3D

 71 76  0  0  0  0  0  0  0  0999 V2000
  139.7520   82.8620  219.5520 N   0  0  0  0  0  0  0  0  0  0  0  0
  140.1040   82.6960  221.2490 S   0  0  0  0  0  0  0  0  0  0  0  0
  141.3030   83.5110  221.5820 O   0  0  0  0  0  0  0  0  0  0  0  0
  138.9160   83.2470  221.9880 O   0  0  0  0  0  0  0  0  0  0  0  0
  140.3810   81.0240  221.6220 C   0  0  0  0  0  0  0  0  0  0  0  0
  139.8910   80.4710  222.8000 C   0  0  0  0  0  0  0  0  0  0  0  0
  140.1150   79.1250  223.0970 C   0  0  0  0  0  0  0  0  0  0  0  0
  140.8200   78.2960  222.2520 C   0  0  0  0  0  0  0  0  0  0  0  0
  141.3010   78.8750  221.0790 C   0  0  0  0  0  0  0  0  0  0  0  0
  141.0870   80.2020  220.7690 C   0  0  0  0  0  0  0  0  0  0  0  0
  142.0680   77.9590  220.1640 C   0  0  0  0  0  0  0  0  0  0  0  0
  141.1820   76.7180  220.0500 C   0  0  0  0  0  0  0  0  0  0  0  0
  141.1250   76.0640  221.3380 N   0  0  0  0  0  0  0  0  0  0  0  0
  141.1180   74.6480  221.4770 C   0  0  0  0  0  0  0  0  0  0  0  0
  140.1280   74.0040  222.1220 N   0  0  0  0  0  0  0  0  0  0  0  0
  140.0770   72.6820  222.2780 C   0  0  0  0  0  0  0  0  0  0  0  0
  139.0090   72.0380  222.9700 N   0  0  0  0  0  0  0  0  0  0  0  0
  138.7300   70.6520  222.7060 C   0  0  0  0  0  0  0  0  0  0  0  0
  138.8170   69.9210  224.0120 C   0  0  0  0  0  0  0  0  0  0  0  0
  139.9590   69.7680  224.6570 C   0  0  0  0  0  0  0  0  0  0  0  0
  140.3110   70.4690  225.8760 C   0  0  0  0  0  0  0  0  0  0  0  0
  139.8540   70.0100  227.1140 C   0  0  0  0  0  0  0  0  0  0  0  0
  140.1670   70.6480  228.2960 C   0  0  0  0  0  0  0  0  0  0  0  0
  140.9620   71.7930  228.3030 C   0  0  0  0  0  0  0  0  0  0  0  0
  141.4170   72.2520  227.0840 C   0  0  0  0  0  0  0  0  0  0  0  0
  141.0950   71.6020  225.9130 C   0  0  0  0  0  0  0  0  0  0  0  0
  141.0890   71.9590  221.7500 N   0  0  0  0  0  0  0  0  0  0  0  0
  142.1080   72.5420  221.0930 C   0  0  0  0  0  0  0  0  0  0  0  0
  143.1480   71.7340  220.5560 N   0  0  0  0  0  0  0  0  0  0  0  0
  144.4950   72.2630  220.5350 C   0  0  0  0  0  0  0  0  0  0  0  0
  145.2250   71.7390  219.2940 C   0  0  0  0  0  0  0  0  0  0  0  0
  145.1570   70.2710  219.3280 C   0  0  0  0  0  0  0  0  0  0  0  0
  146.2920   69.5420  218.9810 C   0  0  0  0  0  0  0  0  0  0  0  0
  146.2410   68.1660  219.0090 C   0  0  0  0  0  0  0  0  0  0  0  0
  145.0660   67.5510  219.3790 C   0  0  0  0  0  0  0  0  0  0  0  0
  143.9450   68.2480  219.7210 C   0  0  0  0  0  0  0  0  0  0  0  0
  144.0000   69.6320  219.6920 C   0  0  0  0  0  0  0  0  0  0  0  0
  142.8030   70.4250  220.0580 C   0  0  0  0  0  0  0  0  0  0  0  0
  142.1040   73.8820  220.9680 N   0  0  0  0  0  0  0  0  0  0  0  0
  141.0720   76.8730  222.5410 C   0  0  0  0  0  0  0  0  0  0  0  0
  139.9310   81.9220  219.0970 H   0  0  0  0  0  0  0  0  0  0  0  0
  138.6970   82.9710  219.4880 H   0  0  0  0  0  0  0  0  0  0  0  0
  139.3230   81.0982  223.5028 H   0  0  0  0  0  0  0  0  0  0  0  0
  139.7158   78.7134  224.0357 H   0  0  0  0  0  0  0  0  0  0  0  0
  141.4851   80.6102  219.8283 H   0  0  0  0  0  0  0  0  0  0  0  0
  142.2155   78.4253  219.1787 H   0  0  0  0  0  0  0  0  0  0  0  0
  143.0732   77.7264  220.5453 H   0  0  0  0  0  0  0  0  0  0  0  0
  140.1688   77.0147  219.7413 H   0  0  0  0  0  0  0  0  0  0  0  0
  141.5992   76.0296  219.3004 H   0  0  0  0  0  0  0  0  0  0  0  0
  138.4600   72.6100  223.6540 H   0  0  0  0  0  0  0  0  0  0  0  0
  137.7205   70.5457  222.2821 H   0  0  0  0  0  0  0  0  0  0  0  0
  139.4497   70.2417  221.9823 H   0  0  0  0  0  0  0  0  0  0  0  0
  137.8995   69.4982  224.4472 H   0  0  0  0  0  0  0  0  0  0  0  0
  140.6924   69.0612  224.2414 H   0  0  0  0  0  0  0  0  0  0  0  0
  139.2233   69.1094  227.1470 H   0  0  0  0  0  0  0  0  0  0  0  0
  139.7840   70.2478  229.2463 H   0  0  0  0  0  0  0  0  0  0  0  0
  141.2159   72.3088  229.2408 H   0  0  0  0  0  0  0  0  0  0  0  0
  142.0477   73.1524  227.0466 H   0  0  0  0  0  0  0  0  0  0  0  0
  141.4808   72.0052  224.9650 H   0  0  0  0  0  0  0  0  0  0  0  0
  144.4578   73.3619  220.5029 H   0  0  0  0  0  0  0  0  0  0  0  0
  145.0310   71.9429  221.4407 H   0  0  0  0  0  0  0  0  0  0  0  0
  144.7365   72.1166  218.3836 H   0  0  0  0  0  0  0  0  0  0  0  0
  146.2714   72.0782  219.2881 H   0  0  0  0  0  0  0  0  0  0  0  0
  147.2178   70.0590  218.6882 H   0  0  0  0  0  0  0  0  0  0  0  0
  147.1244   67.5682  218.7402 H   0  0  0  0  0  0  0  0  0  0  0  0
  145.0301   66.4518  219.3996 H   0  0  0  0  0  0  0  0  0  0  0  0
  143.0219   67.7254  220.0121 H   0  0  0  0  0  0  0  0  0  0  0  0
  142.1687   70.5409  219.1668 H   0  0  0  0  0  0  0  0  0  0  0  0
  142.2739   69.8877  220.8588 H   0  0  0  0  0  0  0  0  0  0  0  0
  140.2643   76.4952  223.1852 H   0  0  0  0  0  0  0  0  0  0  0  0
  142.0513   76.8004  223.0367 H   0  0  0  0  0  0  0  0  0  0  0  0
  1  2  1  0
  2  3  2  0
  2  4  2  0
  2  5  1  0
  5  6  2  0
  6  7  1  0
  7  8  2  0
  8  9  1  0
  9 10  2  0
  9 11  1  0
 11 12  1  0
 12 13  1  0
 13 14  1  0
 14 15  2  0
 15 16  1  0
 16 17  1  0
 17 18  1  0
 18 19  1  0
 19 20  2  0
 20 21  1  0
 21 22  2  0
 22 23  1  0
 23 24  2  0
 24 25  1  0
 25 26  2  0
 16 27  2  0
 27 28  1  0
 28 29  1  0
 29 30  1  0
 30 31  1  0
 31 32  1  0
 32 33  2  0
 33 34  1  0
 34 35  2  0
 35 36  1  0
 36 37  2  0
 37 38  1  0
 28 39  2  0
 13 40  1  0
 10  5  1  0
 39 14  1  0
 40  8  1  0
 26 21  1  0
 38 29  1  0
 37 32  1  0
  1 41  1  0
  1 42  1  0
  6 43  1  0
  7 44  1  0
 10 45  1  0
 11 46  1  0
 11 47  1  0
 12 48  1  0
 12 49  1  0
 17 50  1  0
 18 51  1  0
 18 52  1  0
 19 53  1  0
 20 54  1  0
 22 55  1  0
 23 56  1  0
 24 57  1  0
 25 58  1  0
 26 59  1  0
 30 60  1  0
 30 61  1  0
 31 62  1  0
 31 63  1  0
 33 64  1  0
 34 65  1  0
 35 66  1  0
 36 67  1  0
 38 68  1  0
 38 69  1  0
 40 70  1  0
 40 71  1  0
M  END
>  <smiles>  (38) 
NS(=O)(=O)c1ccc2c(c1)CCN(c1nc(NC/C=C/c3ccccc3)nc(N3CCc4ccccc4C3)n1)C2

>  <score_type>  (38) 
oracle

>  <origin>  (38) 
autodockgpu

>  <m_score__min__energy>  (38) 
-10.630000000000001

>  <m_primary>  (38) 
energy

>  <rmsd>  (38) 
10.588520253720453

>  <m_score__min__rmsd>  (38) 
10.588520253720453

>  <meeko>  (38) 
{"free_energy": -10.61, "intermolecular_energy": -13.3, "internal_energy": -1.38, "cluster_size": 7, "cluster_id": 1, "rank_in_cluster": 2}

>  <energy>  (38) 
-10.04

>  <cluster_rmsd>  (38) 
0.67

>  <cluster>  (38) 
2

$$$$

     RDKit          3D

 71 76  0  0  0  0  0  0  0  0999 V2000
  146.0030   73.4840  218.3850 N   0  0  0  0  0  0  0  0  0  0  0  0
  145.5700   72.9790  219.9940 S   0  0  0  0  0  0  0  0  0  0  0  0
  145.7160   71.5020  220.1000 O   0  0  0  0  0  0  0  0  0  0  0  0
  146.5500   73.6370  220.9260 O   0  0  0  0  0  0  0  0  0  0  0  0
  143.9350   73.4550  220.3310 C   0  0  0  0  0  0  0  0  0  0  0  0
  143.0220   72.5380  220.8360 C   0  0  0  0  0  0  0  0  0  0  0  0
  141.7070   72.9240  221.1070 C   0  0  0  0  0  0  0  0  0  0  0  0
  141.2620   74.2100  220.8890 C   0  0  0  0  0  0  0  0  0  0  0  0
  142.1980   75.1090  220.3820 C   0  0  0  0  0  0  0  0  0  0  0  0
  143.5000   74.7450  220.1100 C   0  0  0  0  0  0  0  0  0  0  0  0
  141.7000   76.5100  220.1490 C   0  0  0  0  0  0  0  0  0  0  0  0
  140.9800   76.8700  221.4480 C   0  0  0  0  0  0  0  0  0  0  0  0
  139.8100   76.0320  221.5820 N   0  0  0  0  0  0  0  0  0  0  0  0
  138.5790   76.5140  222.1110 C   0  0  0  0  0  0  0  0  0  0  0  0
  138.2000   77.7970  221.9690 N   0  0  0  0  0  0  0  0  0  0  0  0
  137.0600   78.2940  222.4450 C   0  0  0  0  0  0  0  0  0  0  0  0
  136.6950   79.6620  222.2730 N   0  0  0  0  0  0  0  0  0  0  0  0
  136.5870   80.5160  223.4250 C   0  0  0  0  0  0  0  0  0  0  0  0
  137.9630   80.6680  223.9990 C   0  0  0  0  0  0  0  0  0  0  0  0
  138.9710   81.1500  223.2940 C   0  0  0  0  0  0  0  0  0  0  0  0
  140.2900   80.5520  223.2370 C   0  0  0  0  0  0  0  0  0  0  0  0
  141.3230   81.1820  222.5400 C   0  0  0  0  0  0  0  0  0  0  0  0
  142.5920   80.6470  222.4620 C   0  0  0  0  0  0  0  0  0  0  0  0
  142.8980   79.4380  223.0850 C   0  0  0  0  0  0  0  0  0  0  0  0
  141.8820   78.8090  223.7750 C   0  0  0  0  0  0  0  0  0  0  0  0
  140.6210   79.3590  223.8420 C   0  0  0  0  0  0  0  0  0  0  0  0
  136.2460   77.4440  223.1100 N   0  0  0  0  0  0  0  0  0  0  0  0
  136.5670   76.1500  223.2870 C   0  0  0  0  0  0  0  0  0  0  0  0
  135.6740   75.2980  223.9940 N   0  0  0  0  0  0  0  0  0  0  0  0
  135.8400   73.8650  223.8690 C   0  0  0  0  0  0  0  0  0  0  0  0
  134.4660   73.1890  223.9350 C   0  0  0  0  0  0  0  0  0  0  0  0
  133.8260   73.6130  225.1890 C   0  0  0  0  0  0  0  0  0  0  0  0
  133.1340   72.6650  225.9380 C   0  0  0  0  0  0  0  0  0  0  0  0
  132.5300   73.0480  227.1150 C   0  0  0  0  0  0  0  0  0  0  0  0
  132.6270   74.3620  227.5150 C   0  0  0  0  0  0  0  0  0  0  0  0
  133.3000   75.3050  226.7950 C   0  0  0  0  0  0  0  0  0  0  0  0
  133.9070   74.9140  225.6120 C   0  0  0  0  0  0  0  0  0  0  0  0
  134.6470   75.9100  224.8010 C   0  0  0  0  0  0  0  0  0  0  0  0
  137.7330   75.7060  222.7820 N   0  0  0  0  0  0  0  0  0  0  0  0
  139.8800   74.6440  221.1650 C   0  0  0  0  0  0  0  0  0  0  0  0
  145.3180   74.2390  218.0940 H   0  0  0  0  0  0  0  0  0  0  0  0
  146.9210   74.0080  218.4870 H   0  0  0  0  0  0  0  0  0  0  0  0
  143.3366   71.5008  221.0238 H   0  0  0  0  0  0  0  0  0  0  0  0
  141.0046   72.1779  221.5070 H   0  0  0  0  0  0  0  0  0  0  0  0
  144.2008   75.4934  219.7115 H   0  0  0  0  0  0  0  0  0  0  0  0
  142.5389   77.1970  219.9641 H   0  0  0  0  0  0  0  0  0  0  0  0
  141.0450   76.5844  219.2684 H   0  0  0  0  0  0  0  0  0  0  0  0
  141.6533   76.7035  222.3018 H   0  0  0  0  0  0  0  0  0  0  0  0
  140.6803   77.9282  221.4273 H   0  0  0  0  0  0  0  0  0  0  0  0
  136.5160   79.9960  221.2960 H   0  0  0  0  0  0  0  0  0  0  0  0
  136.1922   81.4991  223.1289 H   0  0  0  0  0  0  0  0  0  0  0  0
  135.9014   80.0823  224.1678 H   0  0  0  0  0  0  0  0  0  0  0  0
  138.1397   80.3681  225.0425 H   0  0  0  0  0  0  0  0  0  0  0  0
  138.7976   82.0667  222.7112 H   0  0  0  0  0  0  0  0  0  0  0  0
  141.1177   82.1378  222.0358 H   0  0  0  0  0  0  0  0  0  0  0  0
  143.3728   81.1813  221.9009 H   0  0  0  0  0  0  0  0  0  0  0  0
  143.9071   79.0037  223.0289 H   0  0  0  0  0  0  0  0  0  0  0  0
  142.0825   77.8525  224.2799 H   0  0  0  0  0  0  0  0  0  0  0  0
  139.8429   78.8216  224.4039 H   0  0  0  0  0  0  0  0  0  0  0  0
  136.3179   73.6330  222.9058 H   0  0  0  0  0  0  0  0  0  0  0  0
  136.4732   73.4942  224.6885 H   0  0  0  0  0  0  0  0  0  0  0  0
  133.8527   73.4997  223.0763 H   0  0  0  0  0  0  0  0  0  0  0  0
  134.5703   72.0944  223.9034 H   0  0  0  0  0  0  0  0  0  0  0  0
  133.0704   71.6222  225.5937 H   0  0  0  0  0  0  0  0  0  0  0  0
  131.9795   72.3167  227.7251 H   0  0  0  0  0  0  0  0  0  0  0  0
  132.1413   74.6639  228.4547 H   0  0  0  0  0  0  0  0  0  0  0  0
  133.3593   76.3466  227.1435 H   0  0  0  0  0  0  0  0  0  0  0  0
  133.9365   76.4265  224.1389 H   0  0  0  0  0  0  0  0  0  0  0  0
  135.1339   76.6144  225.4915 H   0  0  0  0  0  0  0  0  0  0  0  0
  139.4645   74.0133  221.9647 H   0  0  0  0  0  0  0  0  0  0  0  0
  139.3041   74.5439  220.2331 H   0  0  0  0  0  0  0  0  0  0  0  0
  1  2  1  0
  2  3  2  0
  2  4  2  0
  2  5  1  0
  5  6  2  0
  6  7  1  0
  7  8  2  0
  8  9  1  0
  9 10  2  0
  9 11  1  0
 11 12  1  0
 12 13  1  0
 13 14  1  0
 14 15  2  0
 15 16  1  0
 16 17  1  0
 17 18  1  0
 18 19  1  0
 19 20  2  0
 20 21  1  0
 21 22  2  0
 22 23  1  0
 23 24  2  0
 24 25  1  0
 25 26  2  0
 16 27  2  0
 27 28  1  0
 28 29  1  0
 29 30  1  0
 30 31  1  0
 31 32  1  0
 32 33  2  0
 33 34  1  0
 34 35  2  0
 35 36  1  0
 36 37  2  0
 37 38  1  0
 28 39  2  0
 13 40  1  0
 10  5  1  0
 39 14  1  0
 40  8  1  0
 26 21  1  0
 38 29  1  0
 37 32  1  0
  1 41  1  0
  1 42  1  0
  6 43  1  0
  7 44  1  0
 10 45  1  0
 11 46  1  0
 11 47  1  0
 12 48  1  0
 12 49  1  0
 17 50  1  0
 18 51  1  0
 18 52  1  0
 19 53  1  0
 20 54  1  0
 22 55  1  0
 23 56  1  0
 24 57  1  0
 25 58  1  0
 26 59  1  0
 30 60  1  0
 30 61  1  0
 31 62  1  0
 31 63  1  0
 33 64  1  0
 34 65  1  0
 35 66  1  0
 36 67  1  0
 38 68  1  0
 38 69  1  0
 40 70  1  0
 40 71  1  0
M  END
>  <smiles>  (39) 
NS(=O)(=O)c1ccc2c(c1)CCN(c1nc(NC/C=C/c3ccccc3)nc(N3CCc4ccccc4C3)n1)C2

>  <score_type>  (39) 
oracle

>  <origin>  (39) 
autodockgpu

>  <m_score__min__energy>  (39) 
-10.630000000000001

>  <m_primary>  (39) 
energy

>  <rmsd>  (39) 
10.51260806715904

>  <m_score__min__rmsd>  (39) 
10.51260806715904

>  <meeko>  (39) 
{"free_energy": -10.47, "intermolecular_energy": -13.16, "internal_energy": -1.96, "cluster_size": 42, "cluster_id": 2, "rank_in_cluster": 8}

>  <energy>  (39) 
-10.04

>  <cluster_rmsd>  (39) 
0.67

>  <cluster>  (39) 
2

$$$$

     RDKit          3D

 71 76  0  0  0  0  0  0  0  0999 V2000
  139.6090   82.8560  219.5730 N   0  0  0  0  0  0  0  0  0  0  0  0
  139.9710   82.7010  221.2690 S   0  0  0  0  0  0  0  0  0  0  0  0
  141.1540   83.5430  221.5960 O   0  0  0  0  0  0  0  0  0  0  0  0
  138.7740   83.2280  222.0120 O   0  0  0  0  0  0  0  0  0  0  0  0
  140.2860   81.0360  221.6450 C   0  0  0  0  0  0  0  0  0  0  0  0
  139.8510   80.4880  222.8450 C   0  0  0  0  0  0  0  0  0  0  0  0
  140.1050   79.1470  223.1440 C   0  0  0  0  0  0  0  0  0  0  0  0
  140.7880   78.3200  222.2780 C   0  0  0  0  0  0  0  0  0  0  0  0
  141.2130   78.8960  221.0820 C   0  0  0  0  0  0  0  0  0  0  0  0
  140.9690   80.2170  220.7710 C   0  0  0  0  0  0  0  0  0  0  0  0
  141.9560   77.9820  220.1450 C   0  0  0  0  0  0  0  0  0  0  0  0
  141.0840   76.7290  220.0760 C   0  0  0  0  0  0  0  0  0  0  0  0
  141.0870   76.0850  221.3700 N   0  0  0  0  0  0  0  0  0  0  0  0
  141.1050   74.6700  221.5210 C   0  0  0  0  0  0  0  0  0  0  0  0
  140.1380   74.0160  222.1890 N   0  0  0  0  0  0  0  0  0  0  0  0
  140.1100   72.6950  222.3560 C   0  0  0  0  0  0  0  0  0  0  0  0
  139.0650   72.0390  223.0720 N   0  0  0  0  0  0  0  0  0  0  0  0
  138.7590   70.6660  222.7760 C   0  0  0  0  0  0  0  0  0  0  0  0
  138.6980   69.9290  224.0800 C   0  0  0  0  0  0  0  0  0  0  0  0
  139.7820   69.6480  224.7800 C   0  0  0  0  0  0  0  0  0  0  0  0
  140.2430   70.4180  225.9190 C   0  0  0  0  0  0  0  0  0  0  0  0
  139.8940   70.0380  227.2180 C   0  0  0  0  0  0  0  0  0  0  0  0
  140.3120   70.7430  228.3270 C   0  0  0  0  0  0  0  0  0  0  0  0
  141.1100   71.8780  228.1960 C   0  0  0  0  0  0  0  0  0  0  0  0
  141.4580   72.2590  226.9160 C   0  0  0  0  0  0  0  0  0  0  0  0
  141.0310   71.5430  225.8190 C   0  0  0  0  0  0  0  0  0  0  0  0
  141.1240   71.9840  221.8160 N   0  0  0  0  0  0  0  0  0  0  0  0
  142.1220   72.5770  221.1370 C   0  0  0  0  0  0  0  0  0  0  0  0
  143.1660   71.7810  220.5880 N   0  0  0  0  0  0  0  0  0  0  0  0
  144.5090   72.3190  220.5690 C   0  0  0  0  0  0  0  0  0  0  0  0
  145.2390   71.8130  219.3200 C   0  0  0  0  0  0  0  0  0  0  0  0
  145.1800   70.3450  219.3370 C   0  0  0  0  0  0  0  0  0  0  0  0
  146.3180   69.6270  218.9800 C   0  0  0  0  0  0  0  0  0  0  0  0
  146.2750   68.2500  218.9920 C   0  0  0  0  0  0  0  0  0  0  0  0
  145.1050   67.6230  219.3590 C   0  0  0  0  0  0  0  0  0  0  0  0
  143.9810   68.3100  219.7120 C   0  0  0  0  0  0  0  0  0  0  0  0
  144.0280   69.6940  219.6980 C   0  0  0  0  0  0  0  0  0  0  0  0
  142.8260   70.4760  220.0760 C   0  0  0  0  0  0  0  0  0  0  0  0
  142.0940   73.9160  221.0010 N   0  0  0  0  0  0  0  0  0  0  0  0
  141.0710   76.9030  222.5690 C   0  0  0  0  0  0  0  0  0  0  0  0
  138.6520   82.4320  219.4130 H   0  0  0  0  0  0  0  0  0  0  0  0
  139.4510   83.8940  219.4090 H   0  0  0  0  0  0  0  0  0  0  0  0
  139.3029   81.1139  223.5646 H   0  0  0  0  0  0  0  0  0  0  0  0
  139.7486   78.7381  224.1010 H   0  0  0  0  0  0  0  0  0  0  0  0
  141.3241   80.6231  219.8124 H   0  0  0  0  0  0  0  0  0  0  0  0
  142.0584   78.4416  219.1509 H   0  0  0  0  0  0  0  0  0  0  0  0
  142.9784   77.7661  220.4886 H   0  0  0  0  0  0  0  0  0  0  0  0
  140.0553   77.0094  219.8054 H   0  0  0  0  0  0  0  0  0  0  0  0
  141.4808   76.0401  219.3158 H   0  0  0  0  0  0  0  0  0  0  0  0
  138.5530   72.5940  223.7980 H   0  0  0  0  0  0  0  0  0  0  0  0
  137.7894   70.5995  222.2609 H   0  0  0  0  0  0  0  0  0  0  0  0
  139.5261   70.2301  222.1191 H   0  0  0  0  0  0  0  0  0  0  0  0
  137.7182   69.6119  224.4665 H   0  0  0  0  0  0  0  0  0  0  0  0
  140.3746   68.7715  224.4790 H   0  0  0  0  0  0  0  0  0  0  0  0
  139.2650   69.1469  227.3604 H   0  0  0  0  0  0  0  0  0  0  0  0
  140.0112   70.4046  229.3295 H   0  0  0  0  0  0  0  0  0  0  0  0
  141.4481   72.4459  229.0753 H   0  0  0  0  0  0  0  0  0  0  0  0
  142.0869   73.1494  226.7691 H   0  0  0  0  0  0  0  0  0  0  0  0
  141.3331   71.8854  224.8183 H   0  0  0  0  0  0  0  0  0  0  0  0
  144.4645   73.4179  220.5488 H   0  0  0  0  0  0  0  0  0  0  0  0
  145.0497   71.9928  221.4697 H   0  0  0  0  0  0  0  0  0  0  0  0
  144.7459   72.1980  218.4152 H   0  0  0  0  0  0  0  0  0  0  0  0
  146.2834   72.1583  219.3157 H   0  0  0  0  0  0  0  0  0  0  0  0
  147.2403   70.1527  218.6918 H   0  0  0  0  0  0  0  0  0  0  0  0
  147.1610   67.6608  218.7129 H   0  0  0  0  0  0  0  0  0  0  0  0
  145.0759   66.5234  219.3677 H   0  0  0  0  0  0  0  0  0  0  0  0
  143.0617   67.7790  220.0001 H   0  0  0  0  0  0  0  0  0  0  0  0
  142.1889   70.5985  219.1877 H   0  0  0  0  0  0  0  0  0  0  0  0
  142.3010   69.9266  220.8713 H   0  0  0  0  0  0  0  0  0  0  0  0
  140.2949   76.5198  223.2479 H   0  0  0  0  0  0  0  0  0  0  0  0
  142.0697   76.8473  223.0267 H   0  0  0  0  0  0  0  0  0  0  0  0
  1  2  1  0
  2  3  2  0
  2  4  2  0
  2  5  1  0
  5  6  2  0
  6  7  1  0
  7  8  2  0
  8  9  1  0
  9 10  2  0
  9 11  1  0
 11 12  1  0
 12 13  1  0
 13 14  1  0
 14 15  2  0
 15 16  1  0
 16 17  1  0
 17 18  1  0
 18 19  1  0
 19 20  2  0
 20 21  1  0
 21 22  2  0
 22 23  1  0
 23 24  2  0
 24 25  1  0
 25 26  2  0
 16 27  2  0
 27 28  1  0
 28 29  1  0
 29 30  1  0
 30 31  1  0
 31 32  1  0
 32 33  2  0
 33 34  1  0
 34 35  2  0
 35 36  1  0
 36 37  2  0
 37 38  1  0
 28 39  2  0
 13 40  1  0
 10  5  1  0
 39 14  1  0
 40  8  1  0
 26 21  1  0
 38 29  1  0
 37 32  1  0
  1 41  1  0
  1 42  1  0
  6 43  1  0
  7 44  1  0
 10 45  1  0
 11 46  1  0
 11 47  1  0
 12 48  1  0
 12 49  1  0
 17 50  1  0
 18 51  1  0
 18 52  1  0
 19 53  1  0
 20 54  1  0
 22 55  1  0
 23 56  1  0
 24 57  1  0
 25 58  1  0
 26 59  1  0
 30 60  1  0
 30 61  1  0
 31 62  1  0
 31 63  1  0
 33 64  1  0
 34 65  1  0
 35 66  1  0
 36 67  1  0
 38 68  1  0
 38 69  1  0
 40 70  1  0
 40 71  1  0
M  END
>  <smiles>  (40) 
NS(=O)(=O)c1ccc2c(c1)CCN(c1nc(NC/C=C/c3ccccc3)nc(N3CCc4ccccc4C3)n1)C2

>  <score_type>  (40) 
oracle

>  <origin>  (40) 
autodockgpu

>  <m_score__min__energy>  (40) 
-10.630000000000001

>  <m_primary>  (40) 
energy

>  <rmsd>  (40) 
10.542515182783664

>  <m_score__min__rmsd>  (40) 
10.542515182783664

>  <meeko>  (40) 
{"free_energy": -10.58, "intermolecular_energy": -13.27, "internal_energy": -1.39, "cluster_size": 7, "cluster_id": 1, "rank_in_cluster": 3}

>  <energy>  (40) 
-10.03

>  <cluster_rmsd>  (40) 
1.02

>  <cluster>  (40) 
2

$$$$

     RDKit          3D

 71 76  0  0  0  0  0  0  0  0999 V2000
  146.1360   73.4370  218.6050 N   0  0  0  0  0  0  0  0  0  0  0  0
  145.5010   72.6490  220.0220 S   0  0  0  0  0  0  0  0  0  0  0  0
  145.5290   71.1750  219.8170 O   0  0  0  0  0  0  0  0  0  0  0  0
  146.4220   73.0030  221.1570 O   0  0  0  0  0  0  0  0  0  0  0  0
  143.8790   73.1930  220.3100 C   0  0  0  0  0  0  0  0  0  0  0  0
  142.9160   72.3180  220.7990 C   0  0  0  0  0  0  0  0  0  0  0  0
  141.6100   72.7590  221.0300 C   0  0  0  0  0  0  0  0  0  0  0  0
  141.2230   74.0590  220.7870 C   0  0  0  0  0  0  0  0  0  0  0  0
  142.2080   74.9150  220.2960 C   0  0  0  0  0  0  0  0  0  0  0  0
  143.5010   74.4960  220.0640 C   0  0  0  0  0  0  0  0  0  0  0  0
  141.7720   76.3320  220.0360 C   0  0  0  0  0  0  0  0  0  0  0  0
  141.0330   76.7350  221.3110 C   0  0  0  0  0  0  0  0  0  0  0  0
  139.8270   75.9450  221.4220 N   0  0  0  0  0  0  0  0  0  0  0  0
  138.6030   76.4810  221.9130 C   0  0  0  0  0  0  0  0  0  0  0  0
  138.2380   77.7530  221.6690 N   0  0  0  0  0  0  0  0  0  0  0  0
  137.1040   78.2990  222.1060 C   0  0  0  0  0  0  0  0  0  0  0  0
  136.7530   79.6530  221.8250 N   0  0  0  0  0  0  0  0  0  0  0  0
  136.7870   80.6260  222.8830 C   0  0  0  0  0  0  0  0  0  0  0  0
  137.8280   80.1820  223.8670 C   0  0  0  0  0  0  0  0  0  0  0  0
  138.9360   80.8690  224.0770 C   0  0  0  0  0  0  0  0  0  0  0  0
  140.2480   80.4700  223.6080 C   0  0  0  0  0  0  0  0  0  0  0  0
  140.7430   79.1950  223.8930 C   0  0  0  0  0  0  0  0  0  0  0  0
  141.9860   78.7760  223.4660 C   0  0  0  0  0  0  0  0  0  0  0  0
  142.8090   79.6200  222.7220 C   0  0  0  0  0  0  0  0  0  0  0  0
  142.3270   80.8810  222.4370 C   0  0  0  0  0  0  0  0  0  0  0  0
  141.0830   81.2820  222.8720 C   0  0  0  0  0  0  0  0  0  0  0  0
  136.2830   77.5140  222.8370 N   0  0  0  0  0  0  0  0  0  0  0  0
  136.5900   76.2340  223.1170 C   0  0  0  0  0  0  0  0  0  0  0  0
  135.6900   75.4510  223.8910 N   0  0  0  0  0  0  0  0  0  0  0  0
  135.8140   74.0100  223.8500 C   0  0  0  0  0  0  0  0  0  0  0  0
  134.4240   73.3780  223.9830 C   0  0  0  0  0  0  0  0  0  0  0  0
  133.8220   73.8930  225.2210 C   0  0  0  0  0  0  0  0  0  0  0  0
  133.1210   73.0110  226.0390 C   0  0  0  0  0  0  0  0  0  0  0  0
  132.5520   73.4820  227.2020 C   0  0  0  0  0  0  0  0  0  0  0  0
  132.6930   74.8130  227.5200 C   0  0  0  0  0  0  0  0  0  0  0  0
  133.3740   75.6920  226.7310 C   0  0  0  0  0  0  0  0  0  0  0  0
  133.9460   75.2150  225.5630 C   0  0  0  0  0  0  0  0  0  0  0  0
  134.6960   76.1390  224.6790 C   0  0  0  0  0  0  0  0  0  0  0  0
  137.7500   75.7390  222.6470 N   0  0  0  0  0  0  0  0  0  0  0  0
  139.8530   74.5510  221.0210 C   0  0  0  0  0  0  0  0  0  0  0  0
  145.4060   74.1280  218.2730 H   0  0  0  0  0  0  0  0  0  0  0  0
  146.9250   74.0580  218.9530 H   0  0  0  0  0  0  0  0  0  0  0  0
  143.1836   71.2712  221.0056 H   0  0  0  0  0  0  0  0  0  0  0  0
  140.8677   72.0459  221.4180 H   0  0  0  0  0  0  0  0  0  0  0  0
  144.2416   75.2115  219.6771 H   0  0  0  0  0  0  0  0  0  0  0  0
  142.6421   76.9833  219.8666 H   0  0  0  0  0  0  0  0  0  0  0  0
  141.1436   76.4220  219.1377 H   0  0  0  0  0  0  0  0  0  0  0  0
  141.6762   76.5519  222.1843 H   0  0  0  0  0  0  0  0  0  0  0  0
  140.7764   77.8039  221.2714 H   0  0  0  0  0  0  0  0  0  0  0  0
  136.4800   79.8880  220.8420 H   0  0  0  0  0  0  0  0  0  0  0  0
  137.0503   81.6139  222.4770 H   0  0  0  0  0  0  0  0  0  0  0  0
  135.8031   80.7068  223.3682 H   0  0  0  0  0  0  0  0  0  0  0  0
  137.6631   79.2531  224.4327 H   0  0  0  0  0  0  0  0  0  0  0  0
  138.8580   81.8071  224.6461 H   0  0  0  0  0  0  0  0  0  0  0  0
  140.1205   78.5018  224.4777 H   0  0  0  0  0  0  0  0  0  0  0  0
  142.3324   77.7623  223.7159 H   0  0  0  0  0  0  0  0  0  0  0  0
  143.8013   79.2943  222.3766 H   0  0  0  0  0  0  0  0  0  0  0  0
  142.9463   81.5776  221.8528 H   0  0  0  0  0  0  0  0  0  0  0  0
  140.7407   82.2966  222.6203 H   0  0  0  0  0  0  0  0  0  0  0  0
  136.2654   73.7071  222.8937 H   0  0  0  0  0  0  0  0  0  0  0  0
  136.4535   73.6715  224.6785 H   0  0  0  0  0  0  0  0  0  0  0  0
  133.8014   73.6543  223.1193 H   0  0  0  0  0  0  0  0  0  0  0  0
  134.4983   72.2810  224.0151 H   0  0  0  0  0  0  0  0  0  0  0  0
  133.0227   71.9515  225.7602 H   0  0  0  0  0  0  0  0  0  0  0  0
  131.9941   72.8048  227.8654 H   0  0  0  0  0  0  0  0  0  0  0  0
  132.2371   75.1837  228.4499 H   0  0  0  0  0  0  0  0  0  0  0  0
  133.4667   76.7509  227.0141 H   0  0  0  0  0  0  0  0  0  0  0  0
  133.9862   76.6344  224.0002 H   0  0  0  0  0  0  0  0  0  0  0  0
  135.2158   76.8695  225.3163 H   0  0  0  0  0  0  0  0  0  0  0  0
  139.3913   73.9462  221.8154 H   0  0  0  0  0  0  0  0  0  0  0  0
  139.2991   74.4638  220.0746 H   0  0  0  0  0  0  0  0  0  0  0  0
  1  2  1  0
  2  3  2  0
  2  4  2  0
  2  5  1  0
  5  6  2  0
  6  7  1  0
  7  8  2  0
  8  9  1  0
  9 10  2  0
  9 11  1  0
 11 12  1  0
 12 13  1  0
 13 14  1  0
 14 15  2  0
 15 16  1  0
 16 17  1  0
 17 18  1  0
 18 19  1  0
 19 20  2  0
 20 21  1  0
 21 22  2  0
 22 23  1  0
 23 24  2  0
 24 25  1  0
 25 26  2  0
 16 27  2  0
 27 28  1  0
 28 29  1  0
 29 30  1  0
 30 31  1  0
 31 32  1  0
 32 33  2  0
 33 34  1  0
 34 35  2  0
 35 36  1  0
 36 37  2  0
 37 38  1  0
 28 39  2  0
 13 40  1  0
 10  5  1  0
 39 14  1  0
 40  8  1  0
 26 21  1  0
 38 29  1  0
 37 32  1  0
  1 41  1  0
  1 42  1  0
  6 43  1  0
  7 44  1  0
 10 45  1  0
 11 46  1  0
 11 47  1  0
 12 48  1  0
 12 49  1  0
 17 50  1  0
 18 51  1  0
 18 52  1  0
 19 53  1  0
 20 54  1  0
 22 55  1  0
 23 56  1  0
 24 57  1  0
 25 58  1  0
 26 59  1  0
 30 60  1  0
 30 61  1  0
 31 62  1  0
 31 63  1  0
 33 64  1  0
 34 65  1  0
 35 66  1  0
 36 67  1  0
 38 68  1  0
 38 69  1  0
 40 70  1  0
 40 71  1  0
M  END
>  <smiles>  (41) 
NS(=O)(=O)c1ccc2c(c1)CCN(c1nc(NC/C=C/c3ccccc3)nc(N3CCc4ccccc4C3)n1)C2

>  <score_type>  (41) 
oracle

>  <origin>  (41) 
autodockgpu

>  <m_score__min__energy>  (41) 
-10.630000000000001

>  <m_primary>  (41) 
energy

>  <rmsd>  (41) 
10.384820953409044

>  <m_score__min__rmsd>  (41) 
10.384820953409044

>  <meeko>  (41) 
{"free_energy": -10.35, "intermolecular_energy": -13.04, "internal_energy": -1.94, "cluster_size": 42, "cluster_id": 2, "rank_in_cluster": 14}

>  <energy>  (41) 
-10.03

>  <cluster_rmsd>  (41) 
0.44

>  <cluster>  (41) 
2

$$$$

     RDKit          3D

 71 76  0  0  0  0  0  0  0  0999 V2000
  146.0030   73.4610  218.3360 N   0  0  0  0  0  0  0  0  0  0  0  0
  145.6030   72.9950  219.9650 S   0  0  0  0  0  0  0  0  0  0  0  0
  145.7610   71.5220  220.1050 O   0  0  0  0  0  0  0  0  0  0  0  0
  146.5950   73.6820  220.8630 O   0  0  0  0  0  0  0  0  0  0  0  0
  143.9710   73.4690  220.3190 C   0  0  0  0  0  0  0  0  0  0  0  0
  143.0550   72.5430  220.8040 C   0  0  0  0  0  0  0  0  0  0  0  0
  141.7430   72.9270  221.0890 C   0  0  0  0  0  0  0  0  0  0  0  0
  141.3020   74.2200  220.9060 C   0  0  0  0  0  0  0  0  0  0  0  0
  142.2410   75.1280  220.4180 C   0  0  0  0  0  0  0  0  0  0  0  0
  143.5400   74.7650  220.1330 C   0  0  0  0  0  0  0  0  0  0  0  0
  141.7470   76.5370  220.2230 C   0  0  0  0  0  0  0  0  0  0  0  0
  141.0330   76.8660  221.5330 C   0  0  0  0  0  0  0  0  0  0  0  0
  139.8600   76.0300  221.6500 N   0  0  0  0  0  0  0  0  0  0  0  0
  138.6340   76.5020  222.1950 C   0  0  0  0  0  0  0  0  0  0  0  0
  138.2870   77.8010  222.1410 N   0  0  0  0  0  0  0  0  0  0  0  0
  137.1520   78.2920  222.6350 C   0  0  0  0  0  0  0  0  0  0  0  0
  136.8220   79.6770  222.5570 N   0  0  0  0  0  0  0  0  0  0  0  0
  137.0850   80.5320  223.6830 C   0  0  0  0  0  0  0  0  0  0  0  0
  138.0310   81.6000  223.2240 C   0  0  0  0  0  0  0  0  0  0  0  0
  139.0000   81.3570  222.3600 C   0  0  0  0  0  0  0  0  0  0  0  0
  140.2410   80.6850  222.6910 C   0  0  0  0  0  0  0  0  0  0  0  0
  141.4370   81.0650  222.0760 C   0  0  0  0  0  0  0  0  0  0  0  0
  142.6380   80.4520  222.3630 C   0  0  0  0  0  0  0  0  0  0  0  0
  142.7090   79.4140  223.2910 C   0  0  0  0  0  0  0  0  0  0  0  0
  141.5320   79.0330  223.9020 C   0  0  0  0  0  0  0  0  0  0  0  0
  140.3410   79.6580  223.6030 C   0  0  0  0  0  0  0  0  0  0  0  0
  136.3080   77.4170  223.2260 N   0  0  0  0  0  0  0  0  0  0  0  0
  136.5950   76.1050  223.3140 C   0  0  0  0  0  0  0  0  0  0  0  0
  135.6710   75.2270  223.9450 N   0  0  0  0  0  0  0  0  0  0  0  0
  135.8000   73.8040  223.7130 C   0  0  0  0  0  0  0  0  0  0  0  0
  134.4080   73.1630  223.7150 C   0  0  0  0  0  0  0  0  0  0  0  0
  133.7640   73.5080  224.9900 C   0  0  0  0  0  0  0  0  0  0  0  0
  133.0390   72.5260  225.6590 C   0  0  0  0  0  0  0  0  0  0  0  0
  132.4310   72.8360  226.8550 C   0  0  0  0  0  0  0  0  0  0  0  0
  132.5580   74.1120  227.3550 C   0  0  0  0  0  0  0  0  0  0  0  0
  133.2640   75.0880  226.7150 C   0  0  0  0  0  0  0  0  0  0  0  0
  133.8750   74.7720  225.5120 C   0  0  0  0  0  0  0  0  0  0  0  0
  134.6520   75.8040  224.7860 C   0  0  0  0  0  0  0  0  0  0  0  0
  137.7580   75.6700  222.7940 N   0  0  0  0  0  0  0  0  0  0  0  0
  139.9240   74.6530  221.1970 C   0  0  0  0  0  0  0  0  0  0  0  0
  145.2820   74.1730  218.0240 H   0  0  0  0  0  0  0  0  0  0  0  0
  146.8960   74.0310  218.4140 H   0  0  0  0  0  0  0  0  0  0  0  0
  143.3658   71.5001  220.9645 H   0  0  0  0  0  0  0  0  0  0  0  0
  141.0389   72.1735  221.4718 H   0  0  0  0  0  0  0  0  0  0  0  0
  144.2427   75.5205  219.7516 H   0  0  0  0  0  0  0  0  0  0  0  0
  142.5878   77.2256  220.0529 H   0  0  0  0  0  0  0  0  0  0  0  0
  141.0891   76.6364  219.3470 H   0  0  0  0  0  0  0  0  0  0  0  0
  141.7086   76.6748  222.3798 H   0  0  0  0  0  0  0  0  0  0  0  0
  140.7376   77.9256  221.5403 H   0  0  0  0  0  0  0  0  0  0  0  0
  136.3940   80.0230  221.6660 H   0  0  0  0  0  0  0  0  0  0  0  0
  136.1479   80.9866  224.0368 H   0  0  0  0  0  0  0  0  0  0  0  0
  137.5215   79.9574  224.5132 H   0  0  0  0  0  0  0  0  0  0  0  0
  137.9145   82.6197  223.6197 H   0  0  0  0  0  0  0  0  0  0  0  0
  138.8557   81.6864  221.3204 H   0  0  0  0  0  0  0  0  0  0  0  0
  141.4195   81.8806  221.3381 H   0  0  0  0  0  0  0  0  0  0  0  0
  143.5532   80.7866  221.8526 H   0  0  0  0  0  0  0  0  0  0  0  0
  143.6631   78.9196  223.5262 H   0  0  0  0  0  0  0  0  0  0  0  0
  141.5447   78.2171  224.6397 H   0  0  0  0  0  0  0  0  0  0  0  0
  139.4283   79.3212  224.1163 H   0  0  0  0  0  0  0  0  0  0  0  0
  136.2822   73.6326  222.7393 H   0  0  0  0  0  0  0  0  0  0  0  0
  136.4139   73.3549  224.5076 H   0  0  0  0  0  0  0  0  0  0  0  0
  133.8134   73.5540  222.8762 H   0  0  0  0  0  0  0  0  0  0  0  0
  134.4843   72.0714  223.6027 H   0  0  0  0  0  0  0  0  0  0  0  0
  132.9527   71.5138  225.2371 H   0  0  0  0  0  0  0  0  0  0  0  0
  131.8533   72.0763  227.4018 H   0  0  0  0  0  0  0  0  0  0  0  0
  132.0699   74.3548  228.3104 H   0  0  0  0  0  0  0  0  0  0  0  0
  133.3461   76.0983  227.1422 H   0  0  0  0  0  0  0  0  0  0  0  0
  133.9639   76.3891  224.1581 H   0  0  0  0  0  0  0  0  0  0  0  0
  135.1504   76.4392  225.5330 H   0  0  0  0  0  0  0  0  0  0  0  0
  139.5080   74.0036  221.9814 H   0  0  0  0  0  0  0  0  0  0  0  0
  139.3458   74.5800  220.2640 H   0  0  0  0  0  0  0  0  0  0  0  0
  1  2  1  0
  2  3  2  0
  2  4  2  0
  2  5  1  0
  5  6  2  0
  6  7  1  0
  7  8  2  0
  8  9  1  0
  9 10  2  0
  9 11  1  0
 11 12  1  0
 12 13  1  0
 13 14  1  0
 14 15  2  0
 15 16  1  0
 16 17  1  0
 17 18  1  0
 18 19  1  0
 19 20  2  0
 20 21  1  0
 21 22  2  0
 22 23  1  0
 23 24  2  0
 24 25  1  0
 25 26  2  0
 16 27  2  0
 27 28  1  0
 28 29  1  0
 29 30  1  0
 30 31  1  0
 31 32  1  0
 32 33  2  0
 33 34  1  0
 34 35  2  0
 35 36  1  0
 36 37  2  0
 37 38  1  0
 28 39  2  0
 13 40  1  0
 10  5  1  0
 39 14  1  0
 40  8  1  0
 26 21  1  0
 38 29  1  0
 37 32  1  0
  1 41  1  0
  1 42  1  0
  6 43  1  0
  7 44  1  0
 10 45  1  0
 11 46  1  0
 11 47  1  0
 12 48  1  0
 12 49  1  0
 17 50  1  0
 18 51  1  0
 18 52  1  0
 19 53  1  0
 20 54  1  0
 22 55  1  0
 23 56  1  0
 24 57  1  0
 25 58  1  0
 26 59  1  0
 30 60  1  0
 30 61  1  0
 31 62  1  0
 31 63  1  0
 33 64  1  0
 34 65  1  0
 35 66  1  0
 36 67  1  0
 38 68  1  0
 38 69  1  0
 40 70  1  0
 40 71  1  0
M  END
>  <smiles>  (42) 
NS(=O)(=O)c1ccc2c(c1)CCN(c1nc(NC/C=C/c3ccccc3)nc(N3CCc4ccccc4C3)n1)C2

>  <score_type>  (42) 
oracle

>  <origin>  (42) 
autodockgpu

>  <m_score__min__energy>  (42) 
-10.630000000000001

>  <m_primary>  (42) 
energy

>  <rmsd>  (42) 
10.509599446935576

>  <m_score__min__rmsd>  (42) 
10.509599446935576

>  <meeko>  (42) 
{"free_energy": -10.21, "intermolecular_energy": -12.89, "internal_energy": -1.94, "cluster_size": 42, "cluster_id": 2, "rank_in_cluster": 19}

>  <energy>  (42) 
-10.01

>  <cluster_rmsd>  (42) 
0.59

>  <cluster>  (42) 
2

$$$$

     RDKit          3D

 71 76  0  0  0  0  0  0  0  0999 V2000
  146.4410   73.0130  221.3620 N   0  0  0  0  0  0  0  0  0  0  0  0
  145.4170   72.6880  219.9910 S   0  0  0  0  0  0  0  0  0  0  0  0
  145.9610   73.3910  218.7980 O   0  0  0  0  0  0  0  0  0  0  0  0
  145.4770   71.2040  219.7550 O   0  0  0  0  0  0  0  0  0  0  0  0
  143.8030   73.2260  220.3330 C   0  0  0  0  0  0  0  0  0  0  0  0
  142.8350   72.3270  220.7640 C   0  0  0  0  0  0  0  0  0  0  0  0
  141.5360   72.7630  221.0390 C   0  0  0  0  0  0  0  0  0  0  0  0
  141.1610   74.0820  220.8980 C   0  0  0  0  0  0  0  0  0  0  0  0
  142.1510   74.9620  220.4640 C   0  0  0  0  0  0  0  0  0  0  0  0
  143.4380   74.5480  220.1890 C   0  0  0  0  0  0  0  0  0  0  0  0
  141.7290   76.3990  220.3140 C   0  0  0  0  0  0  0  0  0  0  0  0
  141.0040   76.7120  221.6230 C   0  0  0  0  0  0  0  0  0  0  0  0
  139.7910   75.9290  221.6850 N   0  0  0  0  0  0  0  0  0  0  0  0
  138.5770   76.4390  222.2250 C   0  0  0  0  0  0  0  0  0  0  0  0
  138.2440   77.7380  222.1180 N   0  0  0  0  0  0  0  0  0  0  0  0
  137.1210   78.2620  222.6060 C   0  0  0  0  0  0  0  0  0  0  0  0
  136.8050   79.6460  222.4720 N   0  0  0  0  0  0  0  0  0  0  0  0
  137.2270   80.3570  221.2950 C   0  0  0  0  0  0  0  0  0  0  0  0
  138.3110   81.3060  221.7090 C   0  0  0  0  0  0  0  0  0  0  0  0
  138.9670   81.1710  222.8470 C   0  0  0  0  0  0  0  0  0  0  0  0
  140.2810   80.5710  222.9680 C   0  0  0  0  0  0  0  0  0  0  0  0
  141.3700   81.1070  222.2760 C   0  0  0  0  0  0  0  0  0  0  0  0
  142.6350   80.5670  222.3630 C   0  0  0  0  0  0  0  0  0  0  0  0
  142.8830   79.4480  223.1570 C   0  0  0  0  0  0  0  0  0  0  0  0
  141.8120   78.9120  223.8430 C   0  0  0  0  0  0  0  0  0  0  0  0
  140.5540   79.4660  223.7440 C   0  0  0  0  0  0  0  0  0  0  0  0
  136.2750   77.4230  223.2450 N   0  0  0  0  0  0  0  0  0  0  0  0
  136.5500   76.1140  223.3860 C   0  0  0  0  0  0  0  0  0  0  0  0
  135.6250   75.2740  224.0670 N   0  0  0  0  0  0  0  0  0  0  0  0
  135.7690   73.8400  223.9400 C   0  0  0  0  0  0  0  0  0  0  0  0
  134.3830   73.1870  223.9690 C   0  0  0  0  0  0  0  0  0  0  0  0
  133.7180   73.6170  225.2080 C   0  0  0  0  0  0  0  0  0  0  0  0
  132.9930   72.6780  225.9360 C   0  0  0  0  0  0  0  0  0  0  0  0
  132.3660   73.0670  227.0990 C   0  0  0  0  0  0  0  0  0  0  0  0
  132.4750   74.3770  227.5070 C   0  0  0  0  0  0  0  0  0  0  0  0
  133.1810   75.3110  226.8080 C   0  0  0  0  0  0  0  0  0  0  0  0
  133.8110   74.9150  225.6380 C   0  0  0  0  0  0  0  0  0  0  0  0
  134.5890   75.9010  224.8500 C   0  0  0  0  0  0  0  0  0  0  0  0
  137.7000   75.6430  222.8710 N   0  0  0  0  0  0  0  0  0  0  0  0
  139.7990   74.5690  221.1800 C   0  0  0  0  0  0  0  0  0  0  0  0
  145.9970   73.8050  221.9080 H   0  0  0  0  0  0  0  0  0  0  0  0
  146.3290   72.1750  222.0060 H   0  0  0  0  0  0  0  0  0  0  0  0
  143.0929   71.2651  220.8896 H   0  0  0  0  0  0  0  0  0  0  0  0
  140.7891   72.0304  221.3787 H   0  0  0  0  0  0  0  0  0  0  0  0
  144.1833   75.2826  219.8502 H   0  0  0  0  0  0  0  0  0  0  0  0
  142.6049   77.0522  220.1867 H   0  0  0  0  0  0  0  0  0  0  0  0
  141.0952   76.5633  219.4301 H   0  0  0  0  0  0  0  0  0  0  0  0
  141.6522   76.4567  222.4743 H   0  0  0  0  0  0  0  0  0  0  0  0
  140.7586   77.7834  221.6662 H   0  0  0  0  0  0  0  0  0  0  0  0
  136.2690   80.0990  223.2500 H   0  0  0  0  0  0  0  0  0  0  0  0
  137.6126   79.6493  220.5463 H   0  0  0  0  0  0  0  0  0  0  0  0
  136.3832   80.9026  220.8475 H   0  0  0  0  0  0  0  0  0  0  0  0
  138.5685   82.1425  221.0427 H   0  0  0  0  0  0  0  0  0  0  0  0
  138.4841   81.5384  223.7645 H   0  0  0  0  0  0  0  0  0  0  0  0
  141.2123   81.9904  221.6398 H   0  0  0  0  0  0  0  0  0  0  0  0
  143.4604   81.0251  221.7983 H   0  0  0  0  0  0  0  0  0  0  0  0
  143.8895   79.0109  223.2334 H   0  0  0  0  0  0  0  0  0  0  0  0
  141.9651   78.0279  224.4794 H   0  0  0  0  0  0  0  0  0  0  0  0
  139.7310   79.0052  224.3100 H   0  0  0  0  0  0  0  0  0  0  0  0
  136.2667   73.6036  222.9879 H   0  0  0  0  0  0  0  0  0  0  0  0
  136.3749   73.4554  224.7736 H   0  0  0  0  0  0  0  0  0  0  0  0
  133.7969   73.5108  223.0963 H   0  0  0  0  0  0  0  0  0  0  0  0
  134.4702   72.0909  223.9362 H   0  0  0  0  0  0  0  0  0  0  0  0
  132.9216   71.6374  225.5866 H   0  0  0  0  0  0  0  0  0  0  0  0
  131.7878   72.3429  227.6918 H   0  0  0  0  0  0  0  0  0  0  0  0
  131.9715   74.6833  228.4358 H   0  0  0  0  0  0  0  0  0  0  0  0
  133.2489   76.3501  227.1626 H   0  0  0  0  0  0  0  0  0  0  0  0
  133.9048   76.4325  224.1722 H   0  0  0  0  0  0  0  0  0  0  0  0
  135.0705   76.5941  225.5555 H   0  0  0  0  0  0  0  0  0  0  0  0
  139.3369   73.9108  221.9305 H   0  0  0  0  0  0  0  0  0  0  0  0
  139.2370   74.5592  220.2344 H   0  0  0  0  0  0  0  0  0  0  0  0
  1  2  1  0
  2  3  2  0
  2  4  2  0
  2  5  1  0
  5  6  2  0
  6  7  1  0
  7  8  2  0
  8  9  1  0
  9 10  2  0
  9 11  1  0
 11 12  1  0
 12 13  1  0
 13 14  1  0
 14 15  2  0
 15 16  1  0
 16 17  1  0
 17 18  1  0
 18 19  1  0
 19 20  2  0
 20 21  1  0
 21 22  2  0
 22 23  1  0
 23 24  2  0
 24 25  1  0
 25 26  2  0
 16 27  2  0
 27 28  1  0
 28 29  1  0
 29 30  1  0
 30 31  1  0
 31 32  1  0
 32 33  2  0
 33 34  1  0
 34 35  2  0
 35 36  1  0
 36 37  2  0
 37 38  1  0
 28 39  2  0
 13 40  1  0
 10  5  1  0
 39 14  1  0
 40  8  1  0
 26 21  1  0
 38 29  1  0
 37 32  1  0
  1 41  1  0
  1 42  1  0
  6 43  1  0
  7 44  1  0
 10 45  1  0
 11 46  1  0
 11 47  1  0
 12 48  1  0
 12 49  1  0
 17 50  1  0
 18 51  1  0
 18 52  1  0
 19 53  1  0
 20 54  1  0
 22 55  1  0
 23 56  1  0
 24 57  1  0
 25 58  1  0
 26 59  1  0
 30 60  1  0
 30 61  1  0
 31 62  1  0
 31 63  1  0
 33 64  1  0
 34 65  1  0
 35 66  1  0
 36 67  1  0
 38 68  1  0
 38 69  1  0
 40 70  1  0
 40 71  1  0
M  END
>  <smiles>  (43) 
NS(=O)(=O)c1ccc2c(c1)CCN(c1nc(NC/C=C/c3ccccc3)nc(N3CCc4ccccc4C3)n1)C2

>  <score_type>  (43) 
oracle

>  <origin>  (43) 
autodockgpu

>  <m_score__min__energy>  (43) 
-10.630000000000001

>  <m_primary>  (43) 
energy

>  <rmsd>  (43) 
10.58796004799649

>  <m_score__min__rmsd>  (43) 
10.58796004799649

>  <meeko>  (43) 
{"free_energy": -9.78, "intermolecular_energy": -12.46, "internal_energy": -1.93, "cluster_size": 42, "cluster_id": 2, "rank_in_cluster": 39}

>  <energy>  (43) 
-9.91

>  <cluster_rmsd>  (43) 
1.03

>  <cluster>  (43) 
2

$$$$

     RDKit          3D

 71 76  0  0  0  0  0  0  0  0999 V2000
  145.9940   73.4300  218.6000 N   0  0  0  0  0  0  0  0  0  0  0  0
  145.3670   72.6660  220.0340 S   0  0  0  0  0  0  0  0  0  0  0  0
  145.3750   71.1900  219.8450 O   0  0  0  0  0  0  0  0  0  0  0  0
  146.3050   73.0220  221.1540 O   0  0  0  0  0  0  0  0  0  0  0  0
  143.7540   73.2320  220.3330 C   0  0  0  0  0  0  0  0  0  0  0  0
  142.7820   72.3710  220.8280 C   0  0  0  0  0  0  0  0  0  0  0  0
  141.4850   72.8300  221.0690 C   0  0  0  0  0  0  0  0  0  0  0  0
  141.1140   74.1360  220.8310 C   0  0  0  0  0  0  0  0  0  0  0  0
  142.1070   74.9780  220.3340 C   0  0  0  0  0  0  0  0  0  0  0  0
  143.3930   74.5410  220.0920 C   0  0  0  0  0  0  0  0  0  0  0  0
  141.6900   76.4020  220.0790 C   0  0  0  0  0  0  0  0  0  0  0  0
  140.9660   76.8130  221.3600 C   0  0  0  0  0  0  0  0  0  0  0  0
  139.7500   76.0400  221.4780 N   0  0  0  0  0  0  0  0  0  0  0  0
  138.5370   76.5930  221.9790 C   0  0  0  0  0  0  0  0  0  0  0  0
  138.1680   77.8570  221.7040 N   0  0  0  0  0  0  0  0  0  0  0  0
  137.0440   78.4180  222.1480 C   0  0  0  0  0  0  0  0  0  0  0  0
  136.6890   79.7630  221.8340 N   0  0  0  0  0  0  0  0  0  0  0  0
  137.7250   80.7380  221.6260 C   0  0  0  0  0  0  0  0  0  0  0  0
  138.0870   81.3000  222.9680 C   0  0  0  0  0  0  0  0  0  0  0  0
  138.8800   80.6600  223.8080 C   0  0  0  0  0  0  0  0  0  0  0  0
  140.2550   80.2990  223.5220 C   0  0  0  0  0  0  0  0  0  0  0  0
  141.1110   81.2130  222.9020 C   0  0  0  0  0  0  0  0  0  0  0  0
  142.4250   80.9090  222.6130 C   0  0  0  0  0  0  0  0  0  0  0  0
  142.9600   79.6620  222.9330 C   0  0  0  0  0  0  0  0  0  0  0  0
  142.1190   78.7540  223.5450 C   0  0  0  0  0  0  0  0  0  0  0  0
  140.8090   79.0750  223.8260 C   0  0  0  0  0  0  0  0  0  0  0  0
  136.2380   77.6570  222.9200 N   0  0  0  0  0  0  0  0  0  0  0  0
  136.5490   76.3850  223.2310 C   0  0  0  0  0  0  0  0  0  0  0  0
  135.6650   75.6270  224.0470 N   0  0  0  0  0  0  0  0  0  0  0  0
  134.6570   76.3290  224.8130 C   0  0  0  0  0  0  0  0  0  0  0  0
  134.4180   75.5890  226.1340 C   0  0  0  0  0  0  0  0  0  0  0  0
  134.0640   74.2010  225.8050 C   0  0  0  0  0  0  0  0  0  0  0  0
  133.0380   73.5880  226.5180 C   0  0  0  0  0  0  0  0  0  0  0  0
  132.6960   72.2870  226.2190 C   0  0  0  0  0  0  0  0  0  0  0  0
  133.3820   71.6310  225.2220 C   0  0  0  0  0  0  0  0  0  0  0  0
  134.3900   72.2150  224.5130 C   0  0  0  0  0  0  0  0  0  0  0  0
  134.7310   73.5240  224.8160 C   0  0  0  0  0  0  0  0  0  0  0  0
  135.8210   74.1940  224.0680 C   0  0  0  0  0  0  0  0  0  0  0  0
  137.6990   75.8740  222.7520 N   0  0  0  0  0  0  0  0  0  0  0  0
  139.7530   74.6470  221.0750 C   0  0  0  0  0  0  0  0  0  0  0  0
  145.2740   74.1360  218.2760 H   0  0  0  0  0  0  0  0  0  0  0  0
  146.8030   74.0340  218.9300 H   0  0  0  0  0  0  0  0  0  0  0  0
  143.0359   71.3202  221.0315 H   0  0  0  0  0  0  0  0  0  0  0  0
  140.7357   72.1267  221.4613 H   0  0  0  0  0  0  0  0  0  0  0  0
  144.1410   75.2466  219.7013 H   0  0  0  0  0  0  0  0  0  0  0  0
  142.5683   77.0409  219.9046 H   0  0  0  0  0  0  0  0  0  0  0  0
  141.0569   76.5030  219.1851 H   0  0  0  0  0  0  0  0  0  0  0  0
  141.6128   76.6191  222.2284 H   0  0  0  0  0  0  0  0  0  0  0  0
  140.7244   77.8855  221.3244 H   0  0  0  0  0  0  0  0  0  0  0  0
  135.6690   79.9920  221.7660 H   0  0  0  0  0  0  0  0  0  0  0  0
  138.6042   80.2608  221.1685 H   0  0  0  0  0  0  0  0  0  0  0  0
  137.3789   81.5350  220.9515 H   0  0  0  0  0  0  0  0  0  0  0  0
  137.6785   82.2779  223.2627 H   0  0  0  0  0  0  0  0  0  0  0  0
  138.4701   80.3822  224.7902 H   0  0  0  0  0  0  0  0  0  0  0  0
  140.7242   82.2077  222.6356 H   0  0  0  0  0  0  0  0  0  0  0  0
  143.0601   81.6615  222.1228 H   0  0  0  0  0  0  0  0  0  0  0  0
  144.0073   79.4122  222.7076 H   0  0  0  0  0  0  0  0  0  0  0  0
  142.5012   77.7579  223.8126 H   0  0  0  0  0  0  0  0  0  0  0  0
  140.1767   78.3195  224.3154 H   0  0  0  0  0  0  0  0  0  0  0  0
  135.0012   77.3526  225.0223 H   0  0  0  0  0  0  0  0  0  0  0  0
  133.7197   76.3698  224.2387 H   0  0  0  0  0  0  0  0  0  0  0  0
  135.3318   75.6085  226.7461 H   0  0  0  0  0  0  0  0  0  0  0  0
  133.6110   76.0693  226.7067 H   0  0  0  0  0  0  0  0  0  0  0  0
  132.5066   74.1353  227.3105 H   0  0  0  0  0  0  0  0  0  0  0  0
  131.8881   71.7810  226.7680 H   0  0  0  0  0  0  0  0  0  0  0  0
  133.1056   70.5925  224.9874 H   0  0  0  0  0  0  0  0  0  0  0  0
  134.9182   71.6623  223.7221 H   0  0  0  0  0  0  0  0  0  0  0  0
  136.7812   73.9490  224.5455 H   0  0  0  0  0  0  0  0  0  0  0  0
  135.7881   73.8351  223.0287 H   0  0  0  0  0  0  0  0  0  0  0  0
  139.2881   74.0477  221.8717 H   0  0  0  0  0  0  0  0  0  0  0  0
  139.1913   74.5691  220.1324 H   0  0  0  0  0  0  0  0  0  0  0  0
  1  2  1  0
  2  3  2  0
  2  4  2  0
  2  5  1  0
  5  6  2  0
  6  7  1  0
  7  8  2  0
  8  9  1  0
  9 10  2  0
  9 11  1  0
 11 12  1  0
 12 13  1  0
 13 14  1  0
 14 15  2  0
 15 16  1  0
 16 17  1  0
 17 18  1  0
 18 19  1  0
 19 20  2  0
 20 21  1  0
 21 22  2  0
 22 23  1  0
 23 24  2  0
 24 25  1  0
 25 26  2  0
 16 27  2  0
 27 28  1  0
 28 29  1  0
 29 30  1  0
 30 31  1  0
 31 32  1  0
 32 33  2  0
 33 34  1  0
 34 35  2  0
 35 36  1  0
 36 37  2  0
 37 38  1  0
 28 39  2  0
 13 40  1  0
 10  5  1  0
 39 14  1  0
 40  8  1  0
 26 21  1  0
 38 29  1  0
 37 32  1  0
  1 41  1  0
  1 42  1  0
  6 43  1  0
  7 44  1  0
 10 45  1  0
 11 46  1  0
 11 47  1  0
 12 48  1  0
 12 49  1  0
 17 50  1  0
 18 51  1  0
 18 52  1  0
 19 53  1  0
 20 54  1  0
 22 55  1  0
 23 56  1  0
 24 57  1  0
 25 58  1  0
 26 59  1  0
 30 60  1  0
 30 61  1  0
 31 62  1  0
 31 63  1  0
 33 64  1  0
 34 65  1  0
 35 66  1  0
 36 67  1  0
 38 68  1  0
 38 69  1  0
 40 70  1  0
 40 71  1  0
M  END
>  <smiles>  (44) 
NS(=O)(=O)c1ccc2c(c1)CCN(c1nc(NC/C=C/c3ccccc3)nc(N3CCc4ccccc4C3)n1)C2

>  <score_type>  (44) 
oracle

>  <origin>  (44) 
autodockgpu

>  <m_score__min__energy>  (44) 
-10.630000000000001

>  <m_primary>  (44) 
energy

>  <rmsd>  (44) 
10.683669604144553

>  <m_score__min__rmsd>  (44) 
10.683669604144553

>  <meeko>  (44) 
{"free_energy": -10.04, "intermolecular_energy": -12.72, "internal_energy": -1.94, "cluster_size": 42, "cluster_id": 2, "rank_in_cluster": 32}

>  <energy>  (44) 
-9.88

>  <cluster_rmsd>  (44) 
0.92

>  <cluster>  (44) 
2

$$$$

     RDKit          3D

 71 76  0  0  0  0  0  0  0  0999 V2000
  146.3090   72.6580  221.4940 N   0  0  0  0  0  0  0  0  0  0  0  0
  145.3720   72.5660  220.0290 S   0  0  0  0  0  0  0  0  0  0  0  0
  146.0340   73.3770  218.9720 O   0  0  0  0  0  0  0  0  0  0  0  0
  145.3740   71.1210  219.6110 O   0  0  0  0  0  0  0  0  0  0  0  0
  143.7660   73.1520  220.3300 C   0  0  0  0  0  0  0  0  0  0  0  0
  142.7830   72.3000  220.8180 C   0  0  0  0  0  0  0  0  0  0  0  0
  141.4910   72.7740  221.0610 C   0  0  0  0  0  0  0  0  0  0  0  0
  141.1380   74.0870  220.8310 C   0  0  0  0  0  0  0  0  0  0  0  0
  142.1430   74.9190  220.3410 C   0  0  0  0  0  0  0  0  0  0  0  0
  143.4230   74.4670  220.0970 C   0  0  0  0  0  0  0  0  0  0  0  0
  141.7450   76.3500  220.0940 C   0  0  0  0  0  0  0  0  0  0  0  0
  141.0240   76.7620  221.3770 C   0  0  0  0  0  0  0  0  0  0  0  0
  139.7980   76.0050  221.4890 N   0  0  0  0  0  0  0  0  0  0  0  0
  138.5920   76.5700  221.9910 C   0  0  0  0  0  0  0  0  0  0  0  0
  138.2440   77.8430  221.7310 N   0  0  0  0  0  0  0  0  0  0  0  0
  137.1270   78.4160  222.1770 C   0  0  0  0  0  0  0  0  0  0  0  0
  136.7940   79.7700  221.8780 N   0  0  0  0  0  0  0  0  0  0  0  0
  136.6000   80.7050  222.9540 C   0  0  0  0  0  0  0  0  0  0  0  0
  137.9540   81.1950  223.3700 C   0  0  0  0  0  0  0  0  0  0  0  0
  138.8200   80.4210  223.9980 C   0  0  0  0  0  0  0  0  0  0  0  0
  140.1980   80.2330  223.5870 C   0  0  0  0  0  0  0  0  0  0  0  0
  140.8770   81.2440  222.9030 C   0  0  0  0  0  0  0  0  0  0  0  0
  142.1870   81.1050  222.4960 C   0  0  0  0  0  0  0  0  0  0  0  0
  142.8970   79.9330  222.7540 C   0  0  0  0  0  0  0  0  0  0  0  0
  142.2320   78.9290  223.4290 C   0  0  0  0  0  0  0  0  0  0  0  0
  140.9230   79.0860  223.8280 C   0  0  0  0  0  0  0  0  0  0  0  0
  136.3060   77.6580  222.9370 N   0  0  0  0  0  0  0  0  0  0  0  0
  136.5970   76.3780  223.2340 C   0  0  0  0  0  0  0  0  0  0  0  0
  135.6970   75.6240  224.0380 N   0  0  0  0  0  0  0  0  0  0  0  0
  134.7090   76.3330  224.8220 C   0  0  0  0  0  0  0  0  0  0  0  0
  134.4580   75.5720  226.1280 C   0  0  0  0  0  0  0  0  0  0  0  0
  134.0700   74.2000  225.7710 C   0  0  0  0  0  0  0  0  0  0  0  0
  133.0320   73.5960  226.4760 C   0  0  0  0  0  0  0  0  0  0  0  0
  132.6590   72.3100  226.1510 C   0  0  0  0  0  0  0  0  0  0  0  0
  133.3250   71.6590  225.1380 C   0  0  0  0  0  0  0  0  0  0  0  0
  134.3450   72.2340  224.4380 C   0  0  0  0  0  0  0  0  0  0  0  0
  134.7170   73.5270  224.7670 C   0  0  0  0  0  0  0  0  0  0  0  0
  135.8200   74.1870  224.0280 C   0  0  0  0  0  0  0  0  0  0  0  0
  137.7400   75.8550  222.7530 N   0  0  0  0  0  0  0  0  0  0  0  0
  139.7840   74.6140  221.0760 C   0  0  0  0  0  0  0  0  0  0  0  0
  145.7060   72.2840  222.2800 H   0  0  0  0  0  0  0  0  0  0  0  0
  147.0690   71.9230  221.3930 H   0  0  0  0  0  0  0  0  0  0  0  0
  143.0234   71.2447  221.0145 H   0  0  0  0  0  0  0  0  0  0  0  0
  140.7320   72.0781  221.4478 H   0  0  0  0  0  0  0  0  0  0  0  0
  144.1805   75.1651  219.7113 H   0  0  0  0  0  0  0  0  0  0  0  0
  142.6318   76.9786  219.9251 H   0  0  0  0  0  0  0  0  0  0  0  0
  141.1150   76.4651  219.1996 H   0  0  0  0  0  0  0  0  0  0  0  0
  141.6670   76.5540  222.2449 H   0  0  0  0  0  0  0  0  0  0  0  0
  140.7963   77.8378  221.3474 H   0  0  0  0  0  0  0  0  0  0  0  0
  136.7010   80.0340  220.8690 H   0  0  0  0  0  0  0  0  0  0  0  0
  135.9831   81.5492  222.6122 H   0  0  0  0  0  0  0  0  0  0  0  0
  136.0840   80.2246  223.7983 H   0  0  0  0  0  0  0  0  0  0  0  0
  138.2357   82.2342  223.1446 H   0  0  0  0  0  0  0  0  0  0  0  0
  138.4731   79.8829  224.8925 H   0  0  0  0  0  0  0  0  0  0  0  0
  140.3486   82.1830  222.6815 H   0  0  0  0  0  0  0  0  0  0  0  0
  142.6789   81.9302  221.9603 H   0  0  0  0  0  0  0  0  0  0  0  0
  143.9424   79.8135  222.4334 H   0  0  0  0  0  0  0  0  0  0  0  0
  142.7562   77.9880  223.6519 H   0  0  0  0  0  0  0  0  0  0  0  0
  140.4343   78.2585  224.3632 H   0  0  0  0  0  0  0  0  0  0  0  0
  135.0777   77.3438  225.0507 H   0  0  0  0  0  0  0  0  0  0  0  0
  133.7708   76.4074  224.2526 H   0  0  0  0  0  0  0  0  0  0  0  0
  135.3744   75.5571  226.7363 H   0  0  0  0  0  0  0  0  0  0  0  0
  133.6651   76.0591  226.7146 H   0  0  0  0  0  0  0  0  0  0  0  0
  132.5164   74.1386  227.2821 H   0  0  0  0  0  0  0  0  0  0  0  0
  131.8417   71.8116  226.6928 H   0  0  0  0  0  0  0  0  0  0  0  0
  133.0225   70.6328  224.8821 H   0  0  0  0  0  0  0  0  0  0  0  0
  134.8581   71.6857  223.6342 H   0  0  0  0  0  0  0  0  0  0  0  0
  136.7761   73.9097  224.4960 H   0  0  0  0  0  0  0  0  0  0  0  0
  135.7751   73.8507  222.9816 H   0  0  0  0  0  0  0  0  0  0  0  0
  139.3098   74.0153  221.8676 H   0  0  0  0  0  0  0  0  0  0  0  0
  139.2234   74.5502  220.1317 H   0  0  0  0  0  0  0  0  0  0  0  0
  1  2  1  0
  2  3  2  0
  2  4  2  0
  2  5  1  0
  5  6  2  0
  6  7  1  0
  7  8  2  0
  8  9  1  0
  9 10  2  0
  9 11  1  0
 11 12  1  0
 12 13  1  0
 13 14  1  0
 14 15  2  0
 15 16  1  0
 16 17  1  0
 17 18  1  0
 18 19  1  0
 19 20  2  0
 20 21  1  0
 21 22  2  0
 22 23  1  0
 23 24  2  0
 24 25  1  0
 25 26  2  0
 16 27  2  0
 27 28  1  0
 28 29  1  0
 29 30  1  0
 30 31  1  0
 31 32  1  0
 32 33  2  0
 33 34  1  0
 34 35  2  0
 35 36  1  0
 36 37  2  0
 37 38  1  0
 28 39  2  0
 13 40  1  0
 10  5  1  0
 39 14  1  0
 40  8  1  0
 26 21  1  0
 38 29  1  0
 37 32  1  0
  1 41  1  0
  1 42  1  0
  6 43  1  0
  7 44  1  0
 10 45  1  0
 11 46  1  0
 11 47  1  0
 12 48  1  0
 12 49  1  0
 17 50  1  0
 18 51  1  0
 18 52  1  0
 19 53  1  0
 20 54  1  0
 22 55  1  0
 23 56  1  0
 24 57  1  0
 25 58  1  0
 26 59  1  0
 30 60  1  0
 30 61  1  0
 31 62  1  0
 31 63  1  0
 33 64  1  0
 34 65  1  0
 35 66  1  0
 36 67  1  0
 38 68  1  0
 38 69  1  0
 40 70  1  0
 40 71  1  0
M  END
>  <smiles>  (45) 
NS(=O)(=O)c1ccc2c(c1)CCN(c1nc(NC/C=C/c3ccccc3)nc(N3CCc4ccccc4C3)n1)C2

>  <score_type>  (45) 
oracle

>  <origin>  (45) 
autodockgpu

>  <m_score__min__energy>  (45) 
-10.630000000000001

>  <m_primary>  (45) 
energy

>  <rmsd>  (45) 
10.661356692371305

>  <m_score__min__rmsd>  (45) 
10.661356692371305

>  <meeko>  (45) 
{"free_energy": -10.05, "intermolecular_energy": -12.73, "internal_energy": -1.92, "cluster_size": 42, "cluster_id": 2, "rank_in_cluster": 30}

>  <energy>  (45) 
-9.85

>  <cluster_rmsd>  (45) 
1.24

>  <cluster>  (45) 
2

$$$$

     RDKit          3D

 71 76  0  0  0  0  0  0  0  0999 V2000
  146.0160   73.4240  218.5570 N   0  0  0  0  0  0  0  0  0  0  0  0
  145.4170   72.6470  219.9960 S   0  0  0  0  0  0  0  0  0  0  0  0
  145.4430   71.1720  219.8030 O   0  0  0  0  0  0  0  0  0  0  0  0
  146.3650   73.0120  221.1060 O   0  0  0  0  0  0  0  0  0  0  0  0
  143.8010   73.1920  220.3190 C   0  0  0  0  0  0  0  0  0  0  0  0
  142.8380   72.3080  220.7910 C   0  0  0  0  0  0  0  0  0  0  0  0
  141.5380   72.7500  221.0500 C   0  0  0  0  0  0  0  0  0  0  0  0
  141.1570   74.0600  220.8530 C   0  0  0  0  0  0  0  0  0  0  0  0
  142.1420   74.9240  220.3790 C   0  0  0  0  0  0  0  0  0  0  0  0
  143.4300   74.5050  220.1190 C   0  0  0  0  0  0  0  0  0  0  0  0
  141.7130   76.3520  220.1680 C   0  0  0  0  0  0  0  0  0  0  0  0
  140.9900   76.7180  221.4640 C   0  0  0  0  0  0  0  0  0  0  0  0
  139.7800   75.9330  221.5630 N   0  0  0  0  0  0  0  0  0  0  0  0
  138.5660   76.4610  222.0840 C   0  0  0  0  0  0  0  0  0  0  0  0
  138.2170   77.7470  221.9040 N   0  0  0  0  0  0  0  0  0  0  0  0
  137.0920   78.2870  222.3710 C   0  0  0  0  0  0  0  0  0  0  0  0
  136.7590   79.6570  222.1580 N   0  0  0  0  0  0  0  0  0  0  0  0
  136.5430   80.5170  223.2910 C   0  0  0  0  0  0  0  0  0  0  0  0
  137.8730   81.0890  223.6780 C   0  0  0  0  0  0  0  0  0  0  0  0
  138.8240   80.3510  224.2210 C   0  0  0  0  0  0  0  0  0  0  0  0
  140.1780   80.2550  223.7100 C   0  0  0  0  0  0  0  0  0  0  0  0
  140.9320   79.0970  223.9170 C   0  0  0  0  0  0  0  0  0  0  0  0
  142.2220   78.9660  223.4470 C   0  0  0  0  0  0  0  0  0  0  0  0
  142.8330   79.9980  222.7360 C   0  0  0  0  0  0  0  0  0  0  0  0
  142.0950   81.1450  222.5280 C   0  0  0  0  0  0  0  0  0  0  0  0
  140.8070   81.2580  223.0050 C   0  0  0  0  0  0  0  0  0  0  0  0
  136.2620   77.4780  223.0660 N   0  0  0  0  0  0  0  0  0  0  0  0
  136.5530   76.1820  223.2810 C   0  0  0  0  0  0  0  0  0  0  0  0
  135.6440   75.3740  224.0200 N   0  0  0  0  0  0  0  0  0  0  0  0
  135.7900   73.9360  223.9580 C   0  0  0  0  0  0  0  0  0  0  0  0
  134.4060   73.2830  224.0460 C   0  0  0  0  0  0  0  0  0  0  0  0
  133.7650   73.7690  225.2760 C   0  0  0  0  0  0  0  0  0  0  0  0
  133.0570   72.8650  226.0620 C   0  0  0  0  0  0  0  0  0  0  0  0
  132.4520   73.3080  227.2180 C   0  0  0  0  0  0  0  0  0  0  0  0
  132.5660   74.6360  227.5610 C   0  0  0  0  0  0  0  0  0  0  0  0
  133.2550   75.5370  226.8040 C   0  0  0  0  0  0  0  0  0  0  0  0
  133.8630   75.0870  225.6430 C   0  0  0  0  0  0  0  0  0  0  0  0
  134.6220   76.0350  224.7930 C   0  0  0  0  0  0  0  0  0  0  0  0
  137.7040   75.6950  222.7840 N   0  0  0  0  0  0  0  0  0  0  0  0
  139.7930   74.5520  221.1170 C   0  0  0  0  0  0  0  0  0  0  0  0
  145.2940   74.1390  218.2590 H   0  0  0  0  0  0  0  0  0  0  0  0
  146.8370   74.0180  218.8750 H   0  0  0  0  0  0  0  0  0  0  0  0
  143.1009   71.2536  220.9618 H   0  0  0  0  0  0  0  0  0  0  0  0
  140.7950   72.0297  221.4230 H   0  0  0  0  0  0  0  0  0  0  0  0
  144.1712   75.2278  219.7472 H   0  0  0  0  0  0  0  0  0  0  0  0
  142.5856   77.0029  220.0102 H   0  0  0  0  0  0  0  0  0  0  0  0
  141.0763   76.4752  219.2795 H   0  0  0  0  0  0  0  0  0  0  0  0
  141.6414   76.5024  222.3238 H   0  0  0  0  0  0  0  0  0  0  0  0
  140.7401   77.7892  221.4616 H   0  0  0  0  0  0  0  0  0  0  0  0
  136.6830   79.9890  221.1670 H   0  0  0  0  0  0  0  0  0  0  0  0
  135.8492   81.3270  223.0216 H   0  0  0  0  0  0  0  0  0  0  0  0
  136.1032   79.9546  224.1278 H   0  0  0  0  0  0  0  0  0  0  0  0
  138.0633   82.1584  223.5041 H   0  0  0  0  0  0  0  0  0  0  0  0
  138.5725   79.7704  225.1208 H   0  0  0  0  0  0  0  0  0  0  0  0
  140.4816   78.2618  224.4735 H   0  0  0  0  0  0  0  0  0  0  0  0
  142.7763   78.0348  223.6357 H   0  0  0  0  0  0  0  0  0  0  0  0
  143.8610   79.9017  222.3565 H   0  0  0  0  0  0  0  0  0  0  0  0
  142.5418   81.9827  221.9725 H   0  0  0  0  0  0  0  0  0  0  0  0
  140.2563   82.1909  222.8144 H   0  0  0  0  0  0  0  0  0  0  0  0
  136.2690   73.6557  223.0082 H   0  0  0  0  0  0  0  0  0  0  0  0
  136.4141   73.5921  224.7960 H   0  0  0  0  0  0  0  0  0  0  0  0
  133.8016   73.5647  223.1711 H   0  0  0  0  0  0  0  0  0  0  0  0
  134.4955   72.1868  224.0632 H   0  0  0  0  0  0  0  0  0  0  0  0
  132.9812   71.8089  225.7639 H   0  0  0  0  0  0  0  0  0  0  0  0
  131.8875   72.6120  227.8559 H   0  0  0  0  0  0  0  0  0  0  0  0
  132.0810   74.9852  228.4845 H   0  0  0  0  0  0  0  0  0  0  0  0
  133.3262   76.5921  227.1067 H   0  0  0  0  0  0  0  0  0  0  0  0
  133.9226   76.5318  224.1045 H   0  0  0  0  0  0  0  0  0  0  0  0
  135.1157   76.7618  225.4548 H   0  0  0  0  0  0  0  0  0  0  0  0
  139.3358   73.9247  221.8964 H   0  0  0  0  0  0  0  0  0  0  0  0
  139.2287   74.4985  220.1743 H   0  0  0  0  0  0  0  0  0  0  0  0
  1  2  1  0
  2  3  2  0
  2  4  2  0
  2  5  1  0
  5  6  2  0
  6  7  1  0
  7  8  2  0
  8  9  1  0
  9 10  2  0
  9 11  1  0
 11 12  1  0
 12 13  1  0
 13 14  1  0
 14 15  2  0
 15 16  1  0
 16 17  1  0
 17 18  1  0
 18 19  1  0
 19 20  2  0
 20 21  1  0
 21 22  2  0
 22 23  1  0
 23 24  2  0
 24 25  1  0
 25 26  2  0
 16 27  2  0
 27 28  1  0
 28 29  1  0
 29 30  1  0
 30 31  1  0
 31 32  1  0
 32 33  2  0
 33 34  1  0
 34 35  2  0
 35 36  1  0
 36 37  2  0
 37 38  1  0
 28 39  2  0
 13 40  1  0
 10  5  1  0
 39 14  1  0
 40  8  1  0
 26 21  1  0
 38 29  1  0
 37 32  1  0
  1 41  1  0
  1 42  1  0
  6 43  1  0
  7 44  1  0
 10 45  1  0
 11 46  1  0
 11 47  1  0
 12 48  1  0
 12 49  1  0
 17 50  1  0
 18 51  1  0
 18 52  1  0
 19 53  1  0
 20 54  1  0
 22 55  1  0
 23 56  1  0
 24 57  1  0
 25 58  1  0
 26 59  1  0
 30 60  1  0
 30 61  1  0
 31 62  1  0
 31 63  1  0
 33 64  1  0
 34 65  1  0
 35 66  1  0
 36 67  1  0
 38 68  1  0
 38 69  1  0
 40 70  1  0
 40 71  1  0
M  END
>  <smiles>  (46) 
NS(=O)(=O)c1ccc2c(c1)CCN(c1nc(NC/C=C/c3ccccc3)nc(N3CCc4ccccc4C3)n1)C2

>  <score_type>  (46) 
oracle

>  <origin>  (46) 
autodockgpu

>  <m_score__min__energy>  (46) 
-10.630000000000001

>  <m_primary>  (46) 
energy

>  <rmsd>  (46) 
10.514819900812517

>  <m_score__min__rmsd>  (46) 
10.514819900812517

>  <meeko>  (46) 
{"free_energy": -10.52, "intermolecular_energy": -13.2, "internal_energy": -1.89, "cluster_size": 42, "cluster_id": 2, "rank_in_cluster": 2}

>  <energy>  (46) 
-9.78

>  <cluster_rmsd>  (46) 
1.08

>  <cluster>  (46) 
2

$$$$

     RDKit          3D

 71 76  0  0  0  0  0  0  0  0999 V2000
  139.4290   82.4160  221.1520 N   0  0  0  0  0  0  0  0  0  0  0  0
  141.0650   81.8230  221.2240 S   0  0  0  0  0  0  0  0  0  0  0  0
  141.7500   82.1210  219.9370 O   0  0  0  0  0  0  0  0  0  0  0  0
  141.7470   82.5820  222.3290 O   0  0  0  0  0  0  0  0  0  0  0  0
  141.0490   80.1140  221.5250 C   0  0  0  0  0  0  0  0  0  0  0  0
  140.5420   79.6100  222.7170 C   0  0  0  0  0  0  0  0  0  0  0  0
  140.5290   78.2340  222.9560 C   0  0  0  0  0  0  0  0  0  0  0  0
  141.0130   77.3270  222.0380 C   0  0  0  0  0  0  0  0  0  0  0  0
  141.5160   77.8580  220.8520 C   0  0  0  0  0  0  0  0  0  0  0  0
  141.5340   79.2140  220.5990 C   0  0  0  0  0  0  0  0  0  0  0  0
  142.0400   76.8570  219.8570 C   0  0  0  0  0  0  0  0  0  0  0  0
  140.9340   75.8070  219.7680 C   0  0  0  0  0  0  0  0  0  0  0  0
  140.8380   75.1190  221.0360 N   0  0  0  0  0  0  0  0  0  0  0  0
  140.5760   73.7240  221.1320 C   0  0  0  0  0  0  0  0  0  0  0  0
  140.4550   72.9480  220.0390 N   0  0  0  0  0  0  0  0  0  0  0  0
  140.2120   71.6390  220.0770 C   0  0  0  0  0  0  0  0  0  0  0  0
  140.0900   70.8520  218.8940 N   0  0  0  0  0  0  0  0  0  0  0  0
  141.1740   69.9900  218.5030 C   0  0  0  0  0  0  0  0  0  0  0  0
  142.4300   70.8080  218.5370 C   0  0  0  0  0  0  0  0  0  0  0  0
  143.2310   70.8220  219.5870 C   0  0  0  0  0  0  0  0  0  0  0  0
  144.0760   71.9410  219.9560 C   0  0  0  0  0  0  0  0  0  0  0  0
  145.4620   71.8640  219.7960 C   0  0  0  0  0  0  0  0  0  0  0  0
  146.3000   72.9060  220.1350 C   0  0  0  0  0  0  0  0  0  0  0  0
  145.7910   74.0940  220.6580 C   0  0  0  0  0  0  0  0  0  0  0  0
  144.4230   74.1760  220.8200 C   0  0  0  0  0  0  0  0  0  0  0  0
  143.6010   73.1250  220.4760 C   0  0  0  0  0  0  0  0  0  0  0  0
  140.0810   71.0710  221.2960 N   0  0  0  0  0  0  0  0  0  0  0  0
  140.1910   71.7910  222.4280 C   0  0  0  0  0  0  0  0  0  0  0  0
  140.0450   71.1440  223.6860 N   0  0  0  0  0  0  0  0  0  0  0  0
  139.5670   69.7780  223.7110 C   0  0  0  0  0  0  0  0  0  0  0  0
  138.7220   69.5600  224.9710 C   0  0  0  0  0  0  0  0  0  0  0  0
  139.5510   69.9270  226.1270 C   0  0  0  0  0  0  0  0  0  0  0  0
  139.5090   69.1200  227.2610 C   0  0  0  0  0  0  0  0  0  0  0  0
  140.2810   69.4530  228.3520 C   0  0  0  0  0  0  0  0  0  0  0  0
  141.0740   70.5770  228.2880 C   0  0  0  0  0  0  0  0  0  0  0  0
  141.1280   71.3790  227.1870 C   0  0  0  0  0  0  0  0  0  0  0  0
  140.3500   71.0410  226.0920 C   0  0  0  0  0  0  0  0  0  0  0  0
  140.3820   71.8870  224.8750 C   0  0  0  0  0  0  0  0  0  0  0  0
  140.4380   73.1100  222.3240 N   0  0  0  0  0  0  0  0  0  0  0  0
  141.0130   75.8700  222.2640 C   0  0  0  0  0  0  0  0  0  0  0  0
  139.3220   82.9400  220.2380 H   0  0  0  0  0  0  0  0  0  0  0  0
  138.8200   81.5560  221.0170 H   0  0  0  0  0  0  0  0  0  0  0  0
  140.1481   80.3000  223.4778 H   0  0  0  0  0  0  0  0  0  0  0  0
  140.1196   77.8624  223.9069 H   0  0  0  0  0  0  0  0  0  0  0  0
  141.9407   79.5826  219.6457 H   0  0  0  0  0  0  0  0  0  0  0  0
  142.2087   77.3305  218.8785 H   0  0  0  0  0  0  0  0  0  0  0  0
  143.0067   76.4277  220.1589 H   0  0  0  0  0  0  0  0  0  0  0  0
  139.9762   76.2980  219.5409 H   0  0  0  0  0  0  0  0  0  0  0  0
  141.1674   75.0867  218.9700 H   0  0  0  0  0  0  0  0  0  0  0  0
  139.2010   70.9340  218.3470 H   0  0  0  0  0  0  0  0  0  0  0  0
  141.2554   69.1463  219.2041 H   0  0  0  0  0  0  0  0  0  0  0  0
  141.0027   69.5819  217.4960 H   0  0  0  0  0  0  0  0  0  0  0  0
  142.6929   71.4162  217.6590 H   0  0  0  0  0  0  0  0  0  0  0  0
  143.2589   69.9254  220.2237 H   0  0  0  0  0  0  0  0  0  0  0  0
  145.8994   70.9417  219.3861 H   0  0  0  0  0  0  0  0  0  0  0  0
  147.3851   72.7981  219.9906 H   0  0  0  0  0  0  0  0  0  0  0  0
  146.4518   74.9303  220.9299 H   0  0  0  0  0  0  0  0  0  0  0  0
  143.9813   75.0959  221.2307 H   0  0  0  0  0  0  0  0  0  0  0  0
  142.5166   73.2364  220.6232 H   0  0  0  0  0  0  0  0  0  0  0  0
  138.9524   69.5874  222.8189 H   0  0  0  0  0  0  0  0  0  0  0  0
  140.4236   69.0879  223.7178 H   0  0  0  0  0  0  0  0  0  0  0  0
  137.8243   70.1948  224.9358 H   0  0  0  0  0  0  0  0  0  0  0  0
  138.3979   68.5114  225.0437 H   0  0  0  0  0  0  0  0  0  0  0  0
  138.8669   68.2272  227.2852 H   0  0  0  0  0  0  0  0  0  0  0  0
  140.2644   68.8314  229.2594 H   0  0  0  0  0  0  0  0  0  0  0  0
  141.6894   70.8385  229.1615 H   0  0  0  0  0  0  0  0  0  0  0  0
  141.7721   72.2705  227.1687 H   0  0  0  0  0  0  0  0  0  0  0  0
  139.6606   72.7086  224.9957 H   0  0  0  0  0  0  0  0  0  0  0  0
  141.4069   72.2683  224.7557 H   0  0  0  0  0  0  0  0  0  0  0  0
  140.1915   75.6193  222.9512 H   0  0  0  0  0  0  0  0  0  0  0  0
  141.9909   75.5968  222.6872 H   0  0  0  0  0  0  0  0  0  0  0  0
  1  2  1  0
  2  3  2  0
  2  4  2  0
  2  5  1  0
  5  6  2  0
  6  7  1  0
  7  8  2  0
  8  9  1  0
  9 10  2  0
  9 11  1  0
 11 12  1  0
 12 13  1  0
 13 14  1  0
 14 15  2  0
 15 16  1  0
 16 17  1  0
 17 18  1  0
 18 19  1  0
 19 20  2  0
 20 21  1  0
 21 22  2  0
 22 23  1  0
 23 24  2  0
 24 25  1  0
 25 26  2  0
 16 27  2  0
 27 28  1  0
 28 29  1  0
 29 30  1  0
 30 31  1  0
 31 32  1  0
 32 33  2  0
 33 34  1  0
 34 35  2  0
 35 36  1  0
 36 37  2  0
 37 38  1  0
 28 39  2  0
 13 40  1  0
 10  5  1  0
 39 14  1  0
 40  8  1  0
 26 21  1  0
 38 29  1  0
 37 32  1  0
  1 41  1  0
  1 42  1  0
  6 43  1  0
  7 44  1  0
 10 45  1  0
 11 46  1  0
 11 47  1  0
 12 48  1  0
 12 49  1  0
 17 50  1  0
 18 51  1  0
 18 52  1  0
 19 53  1  0
 20 54  1  0
 22 55  1  0
 23 56  1  0
 24 57  1  0
 25 58  1  0
 26 59  1  0
 30 60  1  0
 30 61  1  0
 31 62  1  0
 31 63  1  0
 33 64  1  0
 34 65  1  0
 35 66  1  0
 36 67  1  0
 38 68  1  0
 38 69  1  0
 40 70  1  0
 40 71  1  0
M  END
>  <smiles>  (47) 
NS(=O)(=O)c1ccc2c(c1)CCN(c1nc(NC/C=C/c3ccccc3)nc(N3CCc4ccccc4C3)n1)C2

>  <score_type>  (47) 
oracle

>  <origin>  (47) 
autodockgpu

>  <m_score__min__energy>  (47) 
-10.630000000000001

>  <m_primary>  (47) 
energy

>  <rmsd>  (47) 
10.946680827330491

>  <m_score__min__rmsd>  (47) 
10.946680827330491

>  <meeko>  (47) 
{"free_energy": -9.3, "intermolecular_energy": -11.99, "internal_energy": -2.08, "cluster_size": 7, "cluster_id": 1, "rank_in_cluster": 6}

>  <energy>  (47) 
-9.78

>  <cluster_rmsd>  (47) 
0.91

>  <cluster>  (47) 
2

$$$$

     RDKit          3D

 71 76  0  0  0  0  0  0  0  0999 V2000
  146.4410   72.9950  221.3950 N   0  0  0  0  0  0  0  0  0  0  0  0
  145.4370   72.6810  220.0080 S   0  0  0  0  0  0  0  0  0  0  0  0
  145.9950   73.3950  218.8280 O   0  0  0  0  0  0  0  0  0  0  0  0
  145.5030   71.1980  219.7600 O   0  0  0  0  0  0  0  0  0  0  0  0
  143.8170   73.2120  220.3320 C   0  0  0  0  0  0  0  0  0  0  0  0
  142.8600   72.3190  220.7990 C   0  0  0  0  0  0  0  0  0  0  0  0
  141.5570   72.7500  221.0600 C   0  0  0  0  0  0  0  0  0  0  0  0
  141.1660   74.0580  220.8700 C   0  0  0  0  0  0  0  0  0  0  0  0
  142.1450   74.9330  220.4010 C   0  0  0  0  0  0  0  0  0  0  0  0
  143.4360   74.5240  220.1400 C   0  0  0  0  0  0  0  0  0  0  0  0
  141.7070   76.3580  220.1980 C   0  0  0  0  0  0  0  0  0  0  0  0
  140.9800   76.7120  221.4960 C   0  0  0  0  0  0  0  0  0  0  0  0
  139.7760   75.9180  221.5900 N   0  0  0  0  0  0  0  0  0  0  0  0
  138.5580   76.4340  222.1130 C   0  0  0  0  0  0  0  0  0  0  0  0
  138.2010   77.7200  221.9430 N   0  0  0  0  0  0  0  0  0  0  0  0
  137.0720   78.2490  222.4120 C   0  0  0  0  0  0  0  0  0  0  0  0
  136.7310   79.6190  222.2090 N   0  0  0  0  0  0  0  0  0  0  0  0
  136.5940   80.4890  223.3460 C   0  0  0  0  0  0  0  0  0  0  0  0
  137.9200   80.5250  224.0450 C   0  0  0  0  0  0  0  0  0  0  0  0
  138.9710   81.1360  223.5280 C   0  0  0  0  0  0  0  0  0  0  0  0
  140.2800   80.5310  223.3830 C   0  0  0  0  0  0  0  0  0  0  0  0
  141.2940   81.1950  222.6890 C   0  0  0  0  0  0  0  0  0  0  0  0
  142.5520   80.6530  222.5290 C   0  0  0  0  0  0  0  0  0  0  0  0
  142.8670   79.4040  223.0620 C   0  0  0  0  0  0  0  0  0  0  0  0
  141.8710   78.7430  223.7490 C   0  0  0  0  0  0  0  0  0  0  0  0
  140.6190   79.2990  223.8990 C   0  0  0  0  0  0  0  0  0  0  0  0
  136.2460   77.4300  223.1000 N   0  0  0  0  0  0  0  0  0  0  0  0
  136.5450   76.1340  223.3060 C   0  0  0  0  0  0  0  0  0  0  0  0
  135.6400   75.3150  224.0360 N   0  0  0  0  0  0  0  0  0  0  0  0
  135.7980   73.8780  223.9680 C   0  0  0  0  0  0  0  0  0  0  0  0
  134.4200   73.2130  224.0470 C   0  0  0  0  0  0  0  0  0  0  0  0
  133.7700   73.6880  225.2770 C   0  0  0  0  0  0  0  0  0  0  0  0
  133.0660   72.7730  226.0560 C   0  0  0  0  0  0  0  0  0  0  0  0
  132.4520   73.2060  227.2110 C   0  0  0  0  0  0  0  0  0  0  0  0
  132.5540   74.5330  227.5610 C   0  0  0  0  0  0  0  0  0  0  0  0
  133.2380   75.4440  226.8110 C   0  0  0  0  0  0  0  0  0  0  0  0
  133.8550   75.0050  225.6500 C   0  0  0  0  0  0  0  0  0  0  0  0
  134.6090   75.9630  224.8080 C   0  0  0  0  0  0  0  0  0  0  0  0
  137.7000   75.6580  222.8060 N   0  0  0  0  0  0  0  0  0  0  0  0
  139.7990   74.5400  221.1360 C   0  0  0  0  0  0  0  0  0  0  0  0
  145.9940   73.7890  221.9370 H   0  0  0  0  0  0  0  0  0  0  0  0
  146.3150   72.1560  222.0350 H   0  0  0  0  0  0  0  0  0  0  0  0
  143.1303   71.2656  220.9642 H   0  0  0  0  0  0  0  0  0  0  0  0
  140.8194   72.0221  221.4290 H   0  0  0  0  0  0  0  0  0  0  0  0
  144.1724   75.2543  219.7735 H   0  0  0  0  0  0  0  0  0  0  0  0
  142.5754   77.0156  220.0447 H   0  0  0  0  0  0  0  0  0  0  0  0
  141.0703   76.4820  219.3096 H   0  0  0  0  0  0  0  0  0  0  0  0
  141.6323   76.4966  222.3551 H   0  0  0  0  0  0  0  0  0  0  0  0
  140.7223   77.7814  221.4990 H   0  0  0  0  0  0  0  0  0  0  0  0
  136.5910   79.9420  221.2230 H   0  0  0  0  0  0  0  0  0  0  0  0
  136.3162   81.5003  223.0143 H   0  0  0  0  0  0  0  0  0  0  0  0
  135.8078   80.1230  224.0228 H   0  0  0  0  0  0  0  0  0  0  0  0
  138.0210   80.0263  225.0203 H   0  0  0  0  0  0  0  0  0  0  0  0
  138.8441   82.1733  223.1846 H   0  0  0  0  0  0  0  0  0  0  0  0
  141.0821   82.1835  222.2555 H   0  0  0  0  0  0  0  0  0  0  0  0
  143.3176   81.2141  221.9730 H   0  0  0  0  0  0  0  0  0  0  0  0
  143.8679   78.9644  222.9396 H   0  0  0  0  0  0  0  0  0  0  0  0
  142.0793   77.7548  224.1849 H   0  0  0  0  0  0  0  0  0  0  0  0
  139.8564   78.7343  224.4553 H   0  0  0  0  0  0  0  0  0  0  0  0
  136.2834   73.6062  223.0190 H   0  0  0  0  0  0  0  0  0  0  0  0
  136.4212   73.5356  224.8073 H   0  0  0  0  0  0  0  0  0  0  0  0
  133.8168   73.4936  223.1710 H   0  0  0  0  0  0  0  0  0  0  0  0
  134.5186   72.1175  224.0591 H   0  0  0  0  0  0  0  0  0  0  0  0
  133.0009   71.7176  225.7529 H   0  0  0  0  0  0  0  0  0  0  0  0
  131.8897   72.5027  227.8428 H   0  0  0  0  0  0  0  0  0  0  0  0
  132.0631   74.8734  228.4847 H   0  0  0  0  0  0  0  0  0  0  0  0
  133.2984   76.4983  227.1191 H   0  0  0  0  0  0  0  0  0  0  0  0
  133.9081   76.4570  224.1190 H   0  0  0  0  0  0  0  0  0  0  0  0
  135.0937   76.6906  225.4755 H   0  0  0  0  0  0  0  0  0  0  0  0
  139.3454   73.9052  221.9114 H   0  0  0  0  0  0  0  0  0  0  0  0
  139.2361   74.4888  220.1923 H   0  0  0  0  0  0  0  0  0  0  0  0
  1  2  1  0
  2  3  2  0
  2  4  2  0
  2  5  1  0
  5  6  2  0
  6  7  1  0
  7  8  2  0
  8  9  1  0
  9 10  2  0
  9 11  1  0
 11 12  1  0
 12 13  1  0
 13 14  1  0
 14 15  2  0
 15 16  1  0
 16 17  1  0
 17 18  1  0
 18 19  1  0
 19 20  2  0
 20 21  1  0
 21 22  2  0
 22 23  1  0
 23 24  2  0
 24 25  1  0
 25 26  2  0
 16 27  2  0
 27 28  1  0
 28 29  1  0
 29 30  1  0
 30 31  1  0
 31 32  1  0
 32 33  2  0
 33 34  1  0
 34 35  2  0
 35 36  1  0
 36 37  2  0
 37 38  1  0
 28 39  2  0
 13 40  1  0
 10  5  1  0
 39 14  1  0
 40  8  1  0
 26 21  1  0
 38 29  1  0
 37 32  1  0
  1 41  1  0
  1 42  1  0
  6 43  1  0
  7 44  1  0
 10 45  1  0
 11 46  1  0
 11 47  1  0
 12 48  1  0
 12 49  1  0
 17 50  1  0
 18 51  1  0
 18 52  1  0
 19 53  1  0
 20 54  1  0
 22 55  1  0
 23 56  1  0
 24 57  1  0
 25 58  1  0
 26 59  1  0
 30 60  1  0
 30 61  1  0
 31 62  1  0
 31 63  1  0
 33 64  1  0
 34 65  1  0
 35 66  1  0
 36 67  1  0
 38 68  1  0
 38 69  1  0
 40 70  1  0
 40 71  1  0
M  END
>  <smiles>  (48) 
NS(=O)(=O)c1ccc2c(c1)CCN(c1nc(NC/C=C/c3ccccc3)nc(N3CCc4ccccc4C3)n1)C2

>  <score_type>  (48) 
oracle

>  <origin>  (48) 
autodockgpu

>  <m_score__min__energy>  (48) 
-10.630000000000001

>  <m_primary>  (48) 
energy

>  <rmsd>  (48) 
10.54991387176406

>  <m_score__min__rmsd>  (48) 
10.54991387176406

>  <meeko>  (48) 
{"free_energy": -10.17, "intermolecular_energy": -12.85, "internal_energy": -1.93, "cluster_size": 42, "cluster_id": 2, "rank_in_cluster": 22}

>  <energy>  (48) 
-9.65

>  <cluster_rmsd>  (48) 
0.84

>  <cluster>  (48) 
2

$$$$

     RDKit          3D

 71 76  0  0  0  0  0  0  0  0999 V2000
  145.9800   73.4170  218.5680 N   0  0  0  0  0  0  0  0  0  0  0  0
  145.3580   72.6370  219.9950 S   0  0  0  0  0  0  0  0  0  0  0  0
  145.3620   71.1640  219.7880 O   0  0  0  0  0  0  0  0  0  0  0  0
  146.3040   72.9770  221.1150 O   0  0  0  0  0  0  0  0  0  0  0  0
  143.7490   73.2040  220.3120 C   0  0  0  0  0  0  0  0  0  0  0  0
  142.7930   72.3530  220.8530 C   0  0  0  0  0  0  0  0  0  0  0  0
  141.4980   72.8130  221.1070 C   0  0  0  0  0  0  0  0  0  0  0  0
  141.1150   74.1090  220.8370 C   0  0  0  0  0  0  0  0  0  0  0  0
  142.0920   74.9410  220.2940 C   0  0  0  0  0  0  0  0  0  0  0  0
  143.3750   74.5030  220.0380 C   0  0  0  0  0  0  0  0  0  0  0  0
  141.6620   76.3530  220.0040 C   0  0  0  0  0  0  0  0  0  0  0  0
  140.9610   76.8000  221.2870 C   0  0  0  0  0  0  0  0  0  0  0  0
  139.7530   76.0250  221.4540 N   0  0  0  0  0  0  0  0  0  0  0  0
  138.5480   76.5860  221.9630 C   0  0  0  0  0  0  0  0  0  0  0  0
  138.1850   77.8530  221.6900 N   0  0  0  0  0  0  0  0  0  0  0  0
  137.0680   78.4220  222.1420 C   0  0  0  0  0  0  0  0  0  0  0  0
  136.7200   79.7690  221.8290 N   0  0  0  0  0  0  0  0  0  0  0  0
  137.7620   80.7410  221.6280 C   0  0  0  0  0  0  0  0  0  0  0  0
  138.0930   81.3250  222.9690 C   0  0  0  0  0  0  0  0  0  0  0  0
  138.8880   80.7120  223.8260 C   0  0  0  0  0  0  0  0  0  0  0  0
  140.2710   80.3690  223.5590 C   0  0  0  0  0  0  0  0  0  0  0  0
  140.7450   79.0820  223.8250 C   0  0  0  0  0  0  0  0  0  0  0  0
  142.0520   78.7160  223.5850 C   0  0  0  0  0  0  0  0  0  0  0  0
  142.9670   79.6270  223.0600 C   0  0  0  0  0  0  0  0  0  0  0  0
  142.5060   80.9010  222.7950 C   0  0  0  0  0  0  0  0  0  0  0  0
  141.1960   81.2490  223.0410 C   0  0  0  0  0  0  0  0  0  0  0  0
  136.2630   77.6670  222.9200 N   0  0  0  0  0  0  0  0  0  0  0  0
  136.5680   76.3940  223.2310 C   0  0  0  0  0  0  0  0  0  0  0  0
  135.6840   75.6430  224.0540 N   0  0  0  0  0  0  0  0  0  0  0  0
  134.6950   76.3530  224.8360 C   0  0  0  0  0  0  0  0  0  0  0  0
  134.4640   75.6090  226.1560 C   0  0  0  0  0  0  0  0  0  0  0  0
  134.0880   74.2270  225.8240 C   0  0  0  0  0  0  0  0  0  0  0  0
  133.0630   73.6230  226.5470 C   0  0  0  0  0  0  0  0  0  0  0  0
  132.7010   72.3280  226.2460 C   0  0  0  0  0  0  0  0  0  0  0  0
  133.3660   71.6690  225.2370 C   0  0  0  0  0  0  0  0  0  0  0  0
  134.3720   72.2440  224.5180 C   0  0  0  0  0  0  0  0  0  0  0  0
  134.7330   73.5470  224.8240 C   0  0  0  0  0  0  0  0  0  0  0  0
  135.8220   74.2070  224.0650 C   0  0  0  0  0  0  0  0  0  0  0  0
  137.7100   75.8740  222.7440 N   0  0  0  0  0  0  0  0  0  0  0  0
  139.7560   74.6200  221.0940 C   0  0  0  0  0  0  0  0  0  0  0  0
  145.2580   74.1280  218.2560 H   0  0  0  0  0  0  0  0  0  0  0  0
  146.7900   74.0170  218.9010 H   0  0  0  0  0  0  0  0  0  0  0  0
  143.0573   71.3103  221.0829 H   0  0  0  0  0  0  0  0  0  0  0  0
  140.7609   72.1184  221.5361 H   0  0  0  0  0  0  0  0  0  0  0  0
  144.1102   75.1998  219.6092 H   0  0  0  0  0  0  0  0  0  0  0  0
  142.5329   76.9908  219.7923 H   0  0  0  0  0  0  0  0  0  0  0  0
  141.0105   76.4230  219.1205 H   0  0  0  0  0  0  0  0  0  0  0  0
  141.6264   76.6368  222.1476 H   0  0  0  0  0  0  0  0  0  0  0  0
  140.7120   77.8695  221.2228 H   0  0  0  0  0  0  0  0  0  0  0  0
  135.7020   80.0020  221.7570 H   0  0  0  0  0  0  0  0  0  0  0  0
  138.6512   80.2561  221.1989 H   0  0  0  0  0  0  0  0  0  0  0  0
  137.4323   81.5266  220.9322 H   0  0  0  0  0  0  0  0  0  0  0  0
  137.6588   82.2965  223.2477 H   0  0  0  0  0  0  0  0  0  0  0  0
  138.4733   80.4434  224.8088 H   0  0  0  0  0  0  0  0  0  0  0  0
  140.0517   78.3356  224.2400 H   0  0  0  0  0  0  0  0  0  0  0  0
  142.3777   77.6900  223.8111 H   0  0  0  0  0  0  0  0  0  0  0  0
  144.0117   79.3430  222.8652 H   0  0  0  0  0  0  0  0  0  0  0  0
  143.1961   81.6506  222.3806 H   0  0  0  0  0  0  0  0  0  0  0  0
  140.8739   82.2759  222.8136 H   0  0  0  0  0  0  0  0  0  0  0  0
  135.0544   77.3712  225.0460 H   0  0  0  0  0  0  0  0  0  0  0  0
  133.7510   76.4084  224.2740 H   0  0  0  0  0  0  0  0  0  0  0  0
  135.3859   75.6136  226.7561 H   0  0  0  0  0  0  0  0  0  0  0  0
  133.6708   76.0964  226.7419 H   0  0  0  0  0  0  0  0  0  0  0  0
  132.5484   74.1729  227.3488 H   0  0  0  0  0  0  0  0  0  0  0  0
  131.8941   71.8292  226.8028 H   0  0  0  0  0  0  0  0  0  0  0  0
  133.0737   70.6352  225.0007 H   0  0  0  0  0  0  0  0  0  0  0  0
  134.8829   71.6892  223.7173 H   0  0  0  0  0  0  0  0  0  0  0  0
  136.7852   73.9470  224.5284 H   0  0  0  0  0  0  0  0  0  0  0  0
  135.7710   73.8542  223.0243 H   0  0  0  0  0  0  0  0  0  0  0  0
  139.3116   74.0431  221.9184 H   0  0  0  0  0  0  0  0  0  0  0  0
  139.1751   74.5100  220.1664 H   0  0  0  0  0  0  0  0  0  0  0  0
  1  2  1  0
  2  3  2  0
  2  4  2  0
  2  5  1  0
  5  6  2  0
  6  7  1  0
  7  8  2  0
  8  9  1  0
  9 10  2  0
  9 11  1  0
 11 12  1  0
 12 13  1  0
 13 14  1  0
 14 15  2  0
 15 16  1  0
 16 17  1  0
 17 18  1  0
 18 19  1  0
 19 20  2  0
 20 21  1  0
 21 22  2  0
 22 23  1  0
 23 24  2  0
 24 25  1  0
 25 26  2  0
 16 27  2  0
 27 28  1  0
 28 29  1  0
 29 30  1  0
 30 31  1  0
 31 32  1  0
 32 33  2  0
 33 34  1  0
 34 35  2  0
 35 36  1  0
 36 37  2  0
 37 38  1  0
 28 39  2  0
 13 40  1  0
 10  5  1  0
 39 14  1  0
 40  8  1  0
 26 21  1  0
 38 29  1  0
 37 32  1  0
  1 41  1  0
  1 42  1  0
  6 43  1  0
  7 44  1  0
 10 45  1  0
 11 46  1  0
 11 47  1  0
 12 48  1  0
 12 49  1  0
 17 50  1  0
 18 51  1  0
 18 52  1  0
 19 53  1  0
 20 54  1  0
 22 55  1  0
 23 56  1  0
 24 57  1  0
 25 58  1  0
 26 59  1  0
 30 60  1  0
 30 61  1  0
 31 62  1  0
 31 63  1  0
 33 64  1  0
 34 65  1  0
 35 66  1  0
 36 67  1  0
 38 68  1  0
 38 69  1  0
 40 70  1  0
 40 71  1  0
M  END
>  <smiles>  (49) 
NS(=O)(=O)c1ccc2c(c1)CCN(c1nc(NC/C=C/c3ccccc3)nc(N3CCc4ccccc4C3)n1)C2

>  <score_type>  (49) 
oracle

>  <origin>  (49) 
autodockgpu

>  <m_score__min__energy>  (49) 
-10.630000000000001

>  <m_primary>  (49) 
energy

>  <rmsd>  (49) 
10.675330700864333

>  <m_score__min__rmsd>  (49) 
10.675330700864333

>  <meeko>  (49) 
{"free_energy": -10.04, "intermolecular_energy": -12.73, "internal_energy": -1.94, "cluster_size": 42, "cluster_id": 2, "rank_in_cluster": 31}

>  <energy>  (49) 
-9.46

>  <cluster_rmsd>  (49) 
1.1

>  <cluster>  (49) 
2

$$$$

     RDKit          3D

 71 76  0  0  0  0  0  0  0  0999 V2000
  139.8660   82.9010  219.5390 N   0  0  0  0  0  0  0  0  0  0  0  0
  140.1960   82.7190  221.2390 S   0  0  0  0  0  0  0  0  0  0  0  0
  141.4010   83.5170  221.5910 O   0  0  0  0  0  0  0  0  0  0  0  0
  139.0060   83.2810  221.9680 O   0  0  0  0  0  0  0  0  0  0  0  0
  140.4470   81.0410  221.6040 C   0  0  0  0  0  0  0  0  0  0  0  0
  139.9440   80.4900  222.7770 C   0  0  0  0  0  0  0  0  0  0  0  0
  140.1470   79.1390  223.0680 C   0  0  0  0  0  0  0  0  0  0  0  0
  140.8440   78.3040  222.2220 C   0  0  0  0  0  0  0  0  0  0  0  0
  141.3380   78.8820  221.0530 C   0  0  0  0  0  0  0  0  0  0  0  0
  141.1450   80.2140  220.7500 C   0  0  0  0  0  0  0  0  0  0  0  0
  142.0960   77.9600  220.1370 C   0  0  0  0  0  0  0  0  0  0  0  0
  141.1930   76.7330  220.0130 C   0  0  0  0  0  0  0  0  0  0  0  0
  141.1210   76.0730  221.2960 N   0  0  0  0  0  0  0  0  0  0  0  0
  141.0920   74.6570  221.4280 C   0  0  0  0  0  0  0  0  0  0  0  0
  140.0810   74.0220  222.0490 N   0  0  0  0  0  0  0  0  0  0  0  0
  140.0090   72.7000  222.1970 C   0  0  0  0  0  0  0  0  0  0  0  0
  138.9190   72.0660  222.8630 N   0  0  0  0  0  0  0  0  0  0  0  0
  138.6910   70.6600  222.6650 C   0  0  0  0  0  0  0  0  0  0  0  0
  138.8350   69.9910  223.9990 C   0  0  0  0  0  0  0  0  0  0  0  0
  140.0040   69.8650  224.6000 C   0  0  0  0  0  0  0  0  0  0  0  0
  140.3550   70.5090  225.8500 C   0  0  0  0  0  0  0  0  0  0  0  0
  139.9130   69.9830  227.0660 C   0  0  0  0  0  0  0  0  0  0  0  0
  140.2260   70.5660  228.2760 C   0  0  0  0  0  0  0  0  0  0  0  0
  141.0060   71.7190  228.3360 C   0  0  0  0  0  0  0  0  0  0  0  0
  141.4460   72.2450  227.1390 C   0  0  0  0  0  0  0  0  0  0  0  0
  141.1250   71.6490  225.9380 C   0  0  0  0  0  0  0  0  0  0  0  0
  141.0230   71.9670  221.6860 N   0  0  0  0  0  0  0  0  0  0  0  0
  142.0630   72.5400  221.0540 C   0  0  0  0  0  0  0  0  0  0  0  0
  143.1040   71.7210  220.5340 N   0  0  0  0  0  0  0  0  0  0  0  0
  144.4580   72.2330  220.5450 C   0  0  0  0  0  0  0  0  0  0  0  0
  145.2070   71.7050  219.3160 C   0  0  0  0  0  0  0  0  0  0  0  0
  145.1190   70.2390  219.3410 C   0  0  0  0  0  0  0  0  0  0  0  0
  146.2510   69.4970  219.0140 C   0  0  0  0  0  0  0  0  0  0  0  0
  146.1820   68.1210  219.0340 C   0  0  0  0  0  0  0  0  0  0  0  0
  144.9930   67.5200  219.3760 C   0  0  0  0  0  0  0  0  0  0  0  0
  143.8730   68.2290  219.6980 C   0  0  0  0  0  0  0  0  0  0  0  0
  143.9470   69.6130  219.6780 C   0  0  0  0  0  0  0  0  0  0  0  0
  142.7520   70.4190  220.0230 C   0  0  0  0  0  0  0  0  0  0  0  0
  142.0790   73.8800  220.9360 N   0  0  0  0  0  0  0  0  0  0  0  0
  141.0740   76.8760  222.5040 C   0  0  0  0  0  0  0  0  0  0  0  0
  139.2530   83.7570  219.4240 H   0  0  0  0  0  0  0  0  0  0  0  0
  140.7880   83.1940  219.0990 H   0  0  0  0  0  0  0  0  0  0  0  0
  139.3824   81.1221  223.4806 H   0  0  0  0  0  0  0  0  0  0  0  0
  139.7373   78.7284  224.0026 H   0  0  0  0  0  0  0  0  0  0  0  0
  141.5538   80.6219  219.8138 H   0  0  0  0  0  0  0  0  0  0  0  0
  142.2547   78.4290  219.1547 H   0  0  0  0  0  0  0  0  0  0  0  0
  143.0961   77.7112  220.5214 H   0  0  0  0  0  0  0  0  0  0  0  0
  140.1854   77.0460  219.7018 H   0  0  0  0  0  0  0  0  0  0  0  0
  141.6036   76.0427  219.2615 H   0  0  0  0  0  0  0  0  0  0  0  0
  138.3170   72.6610  223.4800 H   0  0  0  0  0  0  0  0  0  0  0  0
  137.6780   70.4953  222.2691 H   0  0  0  0  0  0  0  0  0  0  0  0
  139.4113   70.2472  221.9434 H   0  0  0  0  0  0  0  0  0  0  0  0
  137.9371   69.5919  224.4934 H   0  0  0  0  0  0  0  0  0  0  0  0
  140.7620   69.2287  224.1199 H   0  0  0  0  0  0  0  0  0  0  0  0
  139.2946   69.0733  227.0583 H   0  0  0  0  0  0  0  0  0  0  0  0
  139.8544   70.1141  229.2075 H   0  0  0  0  0  0  0  0  0  0  0  0
  141.2602   72.1899  229.2971 H   0  0  0  0  0  0  0  0  0  0  0  0
  142.0634   73.1554  227.1429 H   0  0  0  0  0  0  0  0  0  0  0  0
  141.4999   72.1032  225.0089 H   0  0  0  0  0  0  0  0  0  0  0  0
  144.4357   73.3324  220.5179 H   0  0  0  0  0  0  0  0  0  0  0  0
  144.9706   71.9022  221.4603 H   0  0  0  0  0  0  0  0  0  0  0  0
  144.7425   72.0934  218.3976 H   0  0  0  0  0  0  0  0  0  0  0  0
  146.2577   72.0303  219.3335 H   0  0  0  0  0  0  0  0  0  0  0  0
  147.1892   70.0033  218.7430 H   0  0  0  0  0  0  0  0  0  0  0  0
  147.0632   67.5132  218.7806 H   0  0  0  0  0  0  0  0  0  0  0  0
  144.9432   66.4212  219.3905 H   0  0  0  0  0  0  0  0  0  0  0  0
  142.9372   67.7167  219.9660 H   0  0  0  0  0  0  0  0  0  0  0  0
  142.1377   70.5469  219.1195 H   0  0  0  0  0  0  0  0  0  0  0  0
  142.1991   69.8848  220.8097 H   0  0  0  0  0  0  0  0  0  0  0  0
  140.2579   76.5062  223.1422 H   0  0  0  0  0  0  0  0  0  0  0  0
  142.0497   76.7863  223.0040 H   0  0  0  0  0  0  0  0  0  0  0  0
  1  2  1  0
  2  3  2  0
  2  4  2  0
  2  5  1  0
  5  6  2  0
  6  7  1  0
  7  8  2  0
  8  9  1  0
  9 10  2  0
  9 11  1  0
 11 12  1  0
 12 13  1  0
 13 14  1  0
 14 15  2  0
 15 16  1  0
 16 17  1  0
 17 18  1  0
 18 19  1  0
 19 20  2  0
 20 21  1  0
 21 22  2  0
 22 23  1  0
 23 24  2  0
 24 25  1  0
 25 26  2  0
 16 27  2  0
 27 28  1  0
 28 29  1  0
 29 30  1  0
 30 31  1  0
 31 32  1  0
 32 33  2  0
 33 34  1  0
 34 35  2  0
 35 36  1  0
 36 37  2  0
 37 38  1  0
 28 39  2  0
 13 40  1  0
 10  5  1  0
 39 14  1  0
 40  8  1  0
 26 21  1  0
 38 29  1  0
 37 32  1  0
  1 41  1  0
  1 42  1  0
  6 43  1  0
  7 44  1  0
 10 45  1  0
 11 46  1  0
 11 47  1  0
 12 48  1  0
 12 49  1  0
 17 50  1  0
 18 51  1  0
 18 52  1  0
 19 53  1  0
 20 54  1  0
 22 55  1  0
 23 56  1  0
 24 57  1  0
 25 58  1  0
 26 59  1  0
 30 60  1  0
 30 61  1  0
 31 62  1  0
 31 63  1  0
 33 64  1  0
 34 65  1  0
 35 66  1  0
 36 67  1  0
 38 68  1  0
 38 69  1  0
 40 70  1  0
 40 71  1  0
M  END
>  <smiles>  (50) 
NS(=O)(=O)c1ccc2c(c1)CCN(c1nc(NC/C=C/c3ccccc3)nc(N3CCc4ccccc4C3)n1)C2

>  <score_type>  (50) 
oracle

>  <origin>  (50) 
autodockgpu

>  <m_score__min__energy>  (50) 
-10.630000000000001

>  <m_primary>  (50) 
energy

>  <rmsd>  (50) 
10.593676437229997

>  <m_score__min__rmsd>  (50) 
10.593676437229997

>  <meeko>  (50) 
{"free_energy": -10.63, "intermolecular_energy": -13.32, "internal_energy": -1.38, "cluster_size": 7, "cluster_id": 1, "rank_in_cluster": 1}

>  <energy>  (50) 
-8.43

>  <cluster_rmsd>  (50) 
0.0

>  <cluster>  (50) 
3

$$$$
