
     RDKit          3D

 66 71  0  0  1  0  0  0  0  0999 V2000
  140.9830   80.9750  223.7780 C   0  0  0  0  0  0  0  0  0  0  0  0
  142.2420   80.5960  223.3150 C   0  0  0  0  0  0  0  0  0  0  0  0
  142.4190   79.4990  222.4990 C   0  0  0  0  0  0  0  0  0  0  0  0
  141.3270   78.7420  222.1210 C   0  0  0  0  0  0  0  0  0  0  0  0
  140.0760   79.1200  222.5830 C   0  0  0  0  0  0  0  0  0  0  0  0
  139.8940   80.2170  223.3980 C   0  0  0  0  0  0  0  0  0  0  0  0
  138.9350   78.2530  222.1360 C   0  0  0  0  0  0  0  0  0  0  0  0
  139.3780   76.8350  222.5270 C   0  0  0  0  0  0  0  0  0  0  0  0
  140.6160   76.5010  221.8080 N   0  0  0  0  0  0  0  0  0  0  0  0
  141.0000   75.1310  221.6710 C   0  0  0  0  0  0  0  0  0  0  0  0
  140.2610   74.1700  222.2860 N   0  0  0  0  0  0  0  0  0  0  0  0
  140.6140   72.8660  222.1620 C   0  0  0  0  0  0  0  0  0  0  0  0
  139.8710   71.8170  222.7920 N   0  0  0  0  0  0  0  0  0  0  0  0
  140.4190   71.0690  223.8940 C   0  0  2  0  0  0  0  0  0  0  0  0
  139.4390   69.9730  224.2480 C   0  0  0  0  0  0  0  0  0  0  0  0
  139.1840   69.9010  225.7410 C   0  0  0  0  0  0  0  0  0  0  0  0
  140.5120   69.8100  226.4330 C   0  0  1  0  0  0  0  0  0  0  0  0
  140.4700   69.5220  227.9140 C   0  0  0  0  0  0  0  0  0  0  0  0
  140.3880   68.0790  227.4660 C   0  0  0  0  0  0  0  0  0  0  0  0
  141.0780   68.4850  226.2510 N   0  0  0  0  0  0  0  0  0  0  0  0
  141.4220   70.9440  226.0940 C   0  0  0  0  0  0  0  0  0  0  0  0
  140.6670   71.8710  225.1320 C   0  0  0  0  0  0  0  0  0  0  0  0
  141.6960   72.6110  221.4200 N   0  0  0  0  0  0  0  0  0  0  0  0
  142.4550   73.5090  220.7970 C   0  0  0  0  0  0  0  0  0  0  0  0
  143.5980   73.1430  220.0230 N   0  0  0  0  0  0  0  0  0  0  0  0
  144.7670   72.6610  220.7160 C   0  0  0  0  0  0  0  0  0  0  0  0
  145.9400   72.4570  219.8200 C   0  0  0  0  0  0  0  0  0  0  0  0
  145.9780   73.2970  218.6750 N   0  0  0  0  0  0  0  0  0  0  0  0
  144.8090   73.3660  217.8780 C   0  0  0  0  0  0  0  0  0  0  0  0
  143.5040   73.2830  218.5870 C   0  0  0  0  0  0  0  0  0  0  0  0
  142.0810   74.8150  220.9370 N   0  0  0  0  0  0  0  0  0  0  0  0
  141.4450   77.5480  221.2420 C   0  0  0  0  0  0  0  0  0  0  0  0
  140.8608   81.8538  224.4282 H   0  0  0  0  0  0  0  0  0  0  0  0
  143.1200   81.1896  223.6094 H   0  0  0  0  0  0  0  0  0  0  0  0
  143.4262   79.2274  222.1501 H   0  0  0  0  0  0  0  0  0  0  0  0
  138.8853   80.4869  223.7439 H   0  0  0  0  0  0  0  0  0  0  0  0
  138.0054   78.5303  222.6547 H   0  0  0  0  0  0  0  0  0  0  0  0
  138.7215   78.3511  221.0614 H   0  0  0  0  0  0  0  0  0  0  0  0
  139.5589   76.7917  223.6112 H   0  0  0  0  0  0  0  0  0  0  0  0
  138.5901   76.1148  222.2615 H   0  0  0  0  0  0  0  0  0  0  0  0
  138.9180   71.6230  222.4160 H   0  0  0  0  0  0  0  0  0  0  0  0
  141.3969   70.6940  223.5578 H   0  0  0  0  0  0  0  0  0  0  0  0
  138.4864   70.1684  223.7338 H   0  0  0  0  0  0  0  0  0  0  0  0
  139.8725   69.0133  223.9302 H   0  0  0  0  0  0  0  0  0  0  0  0
  138.6510   70.8042  226.0729 H   0  0  0  0  0  0  0  0  0  0  0  0
  138.5661   69.0234  225.9818 H   0  0  0  0  0  0  0  0  0  0  0  0
  141.3776   69.7921  228.4738 H   0  0  0  0  0  0  0  0  0  0  0  0
  139.7517   69.9872  228.6051 H   0  0  0  0  0  0  0  0  0  0  0  0
  140.9460   67.3705  228.0958 H   0  0  0  0  0  0  0  0  0  0  0  0
  139.4320   67.5357  227.4350 H   0  0  0  0  0  0  0  0  0  0  0  0
  140.8040   67.9690  225.4020 H   0  0  0  0  0  0  0  0  0  0  0  0
  141.6945   71.4927  227.0076 H   0  0  0  0  0  0  0  0  0  0  0  0
  142.3463   70.5723  225.6277 H   0  0  0  0  0  0  0  0  0  0  0  0
  139.7134   72.1896  225.5782 H   0  0  0  0  0  0  0  0  0  0  0  0
  141.2453   72.7807  224.9130 H   0  0  0  0  0  0  0  0  0  0  0  0
  145.0414   73.3935  221.4894 H   0  0  0  0  0  0  0  0  0  0  0  0
  144.5106   71.6815  221.1459 H   0  0  0  0  0  0  0  0  0  0  0  0
  146.8525   72.6393  220.4066 H   0  0  0  0  0  0  0  0  0  0  0  0
  145.8604   71.4272  219.4415 H   0  0  0  0  0  0  0  0  0  0  0  0
  146.5700   74.1320  218.7160 H   0  0  0  0  0  0  0  0  0  0  0  0
  144.8324   74.3231  217.3363 H   0  0  0  0  0  0  0  0  0  0  0  0
  144.8450   72.4714  217.2390 H   0  0  0  0  0  0  0  0  0  0  0  0
  142.9383   74.2010  218.3697 H   0  0  0  0  0  0  0  0  0  0  0  0
  143.0116   72.3703  218.2201 H   0  0  0  0  0  0  0  0  0  0  0  0
  142.4926   77.2152  221.2005 H   0  0  0  0  0  0  0  0  0  0  0  0
  141.1182   77.7881  220.2195 H   0  0  0  0  0  0  0  0  0  0  0  0
  1  2  2  0
  2  3  1  0
  3  4  2  0
  4  5  1  0
  5  6  2  0
  5  7  1  0
  7  8  1  0
  8  9  1  0
  9 10  1  0
 10 11  2  0
 11 12  1  0
 12 13  1  0
 13 14  1  0
 14 15  1  0
 15 16  1  0
 16 17  1  0
 17 18  1  0
 18 19  1  0
 19 20  1  0
 17 21  1  0
 21 22  1  0
 12 23  2  0
 23 24  1  0
 24 25  1  0
 25 26  1  0
 26 27  1  0
 27 28  1  0
 28 29  1  0
 29 30  1  0
 24 31  2  0
  9 32  1  0
  6  1  1  0
 31 10  1  0
 32  4  1  0
 22 14  1  0
 30 25  1  0
 17 20  1  6
  1 33  1  0
  2 34  1  0
  3 35  1  0
  6 36  1  0
  7 37  1  0
  7 38  1  0
  8 39  1  0
  8 40  1  0
 13 41  1  0
 14 42  1  6
 15 43  1  0
 15 44  1  0
 16 45  1  0
 16 46  1  0
 18 47  1  0
 18 48  1  0
 19 49  1  0
 19 50  1  0
 20 51  1  0
 21 52  1  0
 21 53  1  0
 22 54  1  0
 22 55  1  0
 26 56  1  0
 26 57  1  0
 27 58  1  0
 27 59  1  0
 28 60  1  0
 29 61  1  0
 29 62  1  0
 30 63  1  0
 30 64  1  0
 32 65  1  0
 32 66  1  0
M  END
