
 60 64  0  0  0  0  0  0  0  0999 V2000
  140.6990   70.8780  227.9600 C   0  0  0  0  0  0  0  0  0  0  0  0
  139.9420   69.7990  227.4830 C   0  0  0  0  0  0  0  0  0  0  0  0
  139.6440   69.7880  226.1350 C   0  0  0  0  0  0  0  0  0  0  0  0
  140.0700   70.7940  225.2740 C   0  0  0  0  0  0  0  0  0  0  0  0
  139.6630   70.6340  223.8460 C   0  0  0  0  0  0  0  0  0  0  0  0
  139.1350   71.8940  223.3260 N   0  0  0  0  0  0  0  0  0  0  0  0
  139.9030   72.8050  222.5720 C   0  0  0  0  0  0  0  0  0  0  0  0
  140.9010   72.3320  221.7970 N   0  0  0  0  0  0  0  0  0  0  0  0
  141.6010   73.2120  221.0620 C   0  0  0  0  0  0  0  0  0  0  0  0
  142.6560   72.6760  220.2610 N   0  0  0  0  0  0  0  0  0  0  0  0
  143.9940   72.7810  220.7440 C   0  0  0  0  0  0  0  0  0  0  0  0
  144.6600   74.1060  220.4740 C   0  0  0  0  0  0  0  0  0  0  0  0
  144.0200   74.9090  219.4290 C   0  0  0  0  0  0  0  0  0  0  0  0
  143.6290   76.2200  219.7190 C   0  0  0  0  0  0  0  0  0  0  0  0
  143.0260   77.0120  218.7730 C   0  0  0  0  0  0  0  0  0  0  0  0
  142.7920   76.5300  217.5100 C   0  0  0  0  0  0  0  0  0  0  0  0
  143.1740   75.2690  217.2480 N   0  0  0  0  0  0  0  0  0  0  0  0
  143.7640   74.4600  218.1390 C   0  0  0  0  0  0  0  0  0  0  0  0
  141.3050   74.5130  221.1120 N   0  0  0  0  0  0  0  0  0  0  0  0
  140.2980   75.0060  221.8940 C   0  0  0  0  0  0  0  0  0  0  0  0
  140.0080   76.4170  221.9070 N   0  0  0  0  0  0  0  0  0  0  0  0
  138.7420   76.8540  222.3790 C   0  0  0  0  0  0  0  0  0  0  0  0
  138.5880   78.3380  222.3940 C   0  0  0  0  0  0  0  0  0  0  0  0
  139.8950   78.9650  222.7110 C   0  0  0  0  0  0  0  0  0  0  0  0
  139.9580   80.1120  223.5060 C   0  0  0  0  0  0  0  0  0  0  0  0
  141.1850   80.7050  223.8040 C   0  0  0  0  0  0  0  0  0  0  0  0
  142.3710   80.1880  223.3290 C   0  0  0  0  0  0  0  0  0  0  0  0
  142.3190   79.0580  222.5440 C   0  0  0  0  0  0  0  0  0  0  0  0
  141.1000   78.4820  222.2580 C   0  0  0  0  0  0  0  0  0  0  0  0
  141.0690   77.2720  221.4060 C   0  0  0  0  0  0  0  0  0  0  0  0
  139.5880   74.1250  222.6350 N   0  0  0  0  0  0  0  0  0  0  0  0
  140.8120   71.8550  225.7360 C   0  0  0  0  0  0  0  0  0  0  0  0
  141.1070   71.8610  227.0900 C   0  0  0  0  0  0  0  0  0  0  0  0
  140.9654   70.9379  229.0256 H   0  0  0  0  0  0  0  0  0  0  0  0
  139.6004   68.9964  228.1532 H   0  0  0  0  0  0  0  0  0  0  0  0
  139.0500   68.9562  225.7284 H   0  0  0  0  0  0  0  0  0  0  0  0
  140.5378   70.3336  223.2506 H   0  0  0  0  0  0  0  0  0  0  0  0
  138.8807   69.8634  223.7805 H   0  0  0  0  0  0  0  0  0  0  0  0
  138.1130   72.1160  223.5350 H   0  0  0  0  0  0  0  0  0  0  0  0
  142.3570   72.2380  219.3600 H   0  0  0  0  0  0  0  0  0  0  0  0
  143.9788   72.6208  221.8322 H   0  0  0  0  0  0  0  0  0  0  0  0
  144.5796   72.0234  220.2026 H   0  0  0  0  0  0  0  0  0  0  0  0
  144.6542   74.6892  221.4066 H   0  0  0  0  0  0  0  0  0  0  0  0
  145.6740   73.8774  220.1141 H   0  0  0  0  0  0  0  0  0  0  0  0
  143.8082   76.6252  220.7258 H   0  0  0  0  0  0  0  0  0  0  0  0
  142.7287   78.0395  219.0295 H   0  0  0  0  0  0  0  0  0  0  0  0
  142.3101   77.1522  216.7414 H   0  0  0  0  0  0  0  0  0  0  0  0
  144.0465   73.4374  217.8482 H   0  0  0  0  0  0  0  0  0  0  0  0
  137.9633   76.4304  221.7277 H   0  0  0  0  0  0  0  0  0  0  0  0
  138.6505   76.5104  223.4199 H   0  0  0  0  0  0  0  0  0  0  0  0
  138.2458   78.6816  221.4067 H   0  0  0  0  0  0  0  0  0  0  0  0
  137.8485   78.6234  223.1567 H   0  0  0  0  0  0  0  0  0  0  0  0
  139.0305   80.5521  223.9011 H   0  0  0  0  0  0  0  0  0  0  0  0
  141.2065   81.6070  224.4333 H   0  0  0  0  0  0  0  0  0  0  0  0
  143.3324   80.6649  223.5703 H   0  0  0  0  0  0  0  0  0  0  0  0
  143.2455   78.6173  222.1472 H   0  0  0  0  0  0  0  0  0  0  0  0
  140.8651   77.5521  220.3620 H   0  0  0  0  0  0  0  0  0  0  0  0
  142.0366   76.7497  221.4367 H   0  0  0  0  0  0  0  0  0  0  0  0
  141.1538   72.6575  225.0658 H   0  0  0  0  0  0  0  0  0  0  0  0
  141.6993   72.6971  227.4900 H   0  0  0  0  0  0  0  0  0  0  0  0
  1  2  2  0
  2  3  1  0
  3  4  2  0
  4  5  1  0
  5  6  1  0
  6  7  1  0
  7  8  2  0
  8  9  1  0
  9 10  1  0
 10 11  1  0
 11 12  1  0
 12 13  1  0
 13 14  2  0
 14 15  1  0
 15 16  2  0
 16 17  1  0
 17 18  2  0
  9 19  2  0
 19 20  1  0
 20 21  1  0
 21 22  1  0
 22 23  1  0
 23 24  1  0
 24 25  2  0
 25 26  1  0
 26 27  2  0
 27 28  1  0
 28 29  2  0
 29 30  1  0
 20 31  2  0
  4 32  1  0
 32 33  2  0
 33  1  1  0
 31  7  1  0
 18 13  1  0
 30 21  1  0
 29 24  1  0
  1 34  1  0
  2 35  1  0
  3 36  1  0
  5 37  1  0
  5 38  1  0
  6 39  1  0
 10 40  1  0
 11 41  1  0
 11 42  1  0
 12 43  1  0
 12 44  1  0
 14 45  1  0
 15 46  1  0
 16 47  1  0
 18 48  1  0
 22 49  1  0
 22 50  1  0
 23 51  1  0
 23 52  1  0
 25 53  1  0
 26 54  1  0
 27 55  1  0
 28 56  1  0
 30 57  1  0
 30 58  1  0
 32 59  1  0
 33 60  1  0
M  END
