@<TRIPOS>MOLECULE
*****
 61 64 0 0 0
SMALL
GASTEIGER

@<TRIPOS>ATOM
      1 O         138.6790   71.0670  221.1580 O.2     1  UNL1       -0.2685
      2 C         138.9950   71.7790  222.1730 C.2     1  UNL1        0.2628
      3 N         138.9840   73.2200  222.0590 N.am    1  UNL1       -0.3015
      4 C         138.6400   73.9210  220.8930 C.3     1  UNL1        0.0887
      5 C         139.2590   73.7090  219.6100 C.2     1  UNL1        0.2330
      6 O         138.9380   72.5680  219.0600 O.2     1  UNL1       -0.2739
      7 N         140.1430   74.4900  218.8320 N.am    1  UNL1       -0.2957
      8 C         139.9330   74.6350  217.3990 C.3     1  UNL1        0.0151
      9 C         140.3580   75.9160  216.7740 C.3     1  UNL1       -0.0371
     10 C         141.4300   76.6290  217.4990 C.3     1  UNL1       -0.0499
     11 C         141.1810   76.6300  219.0110 C.3     1  UNL1       -0.0328
     12 C         141.3190   75.1370  219.3820 C.3     1  UNL1        0.0415
     13 C         141.5910   74.9830  220.8230 C.3     1  UNL1        0.0302
     14 N         141.4890   76.3260  221.4510 N.am    1  UNL1       -0.3133
     15 C         140.4750   76.6660  222.3520 C.2     1  UNL1        0.2162
     16 O         139.5580   75.8890  222.7190 O.2     1  UNL1       -0.2755
     17 C         140.4650   78.0340  222.9260 C.3     1  UNL1        0.0356
     18 C         140.4400   79.0980  221.8520 C.3     1  UNL1       -0.0419
     19 C         140.8810   80.3510  222.6140 C.3     1  UNL1       -0.0523
     20 C         141.8240   79.8570  223.6830 C.3     1  UNL1       -0.0523
     21 C         141.7500   78.3540  223.6570 C.3     1  UNL1       -0.0419
     22 C         139.3620   71.1350  223.4310 C.ar    1  UNL1        0.1260
     23 C         139.1210   69.7870  223.5880 C.ar    1  UNL1       -0.0306
     24 C         139.4310   69.0890  224.7350 C.ar    1  UNL1       -0.0503
     25 C         140.0180   69.8350  225.7630 C.ar    1  UNL1        0.0031
     26 C         140.3300   69.1320  226.9180 C.ar    1  UNL1       -0.0173
     27 C         140.9070   69.8420  227.9400 C.ar    1  UNL1        0.1241
     28 F         141.2160   69.1560  229.0780 F       1  UNL1       -0.2055
     29 C         141.1600   71.1850  227.8140 C.ar    1  UNL1       -0.0244
     30 C         140.8420   71.8850  226.6460 C.ar    1  UNL1       -0.0330
     31 C         140.2610   71.1780  225.6130 C.ar    1  UNL1        0.0720
     32 N         139.9320   71.8070  224.4560 N.ar    1  UNL1       -0.2421
     33 H         139.2630   73.7110  222.9530 H       1  UNL1        0.1496
     34 H         137.5667   73.7349  220.7398 H       1  UNL1        0.0558
     35 H         139.0109   74.9270  221.1387 H       1  UNL1        0.0558
     36 H         140.4851   73.8248  216.9004 H       1  UNL1        0.0465
     37 H         138.8411   74.6056  217.2690 H       1  UNL1        0.0465
     38 H         140.7173   75.6989  215.7572 H       1  UNL1        0.0280
     39 H         139.4788   76.5768  216.7894 H       1  UNL1        0.0280
     40 H         142.3904   76.1329  217.2953 H       1  UNL1        0.0266
     41 H         141.4467   77.6725  217.1513 H       1  UNL1        0.0266
     42 H         141.9314   77.2396  219.5357 H       1  UNL1        0.0284
     43 H         140.2083   77.0602  219.2917 H       1  UNL1        0.0284
     44 H         142.1918   74.6295  218.9455 H       1  UNL1        0.0516
     45 H         140.8526   74.3027  221.2725 H       1  UNL1        0.0480
     46 H         142.5940   74.5601  220.9815 H       1  UNL1        0.0480
     47 H         142.2120   77.0520  221.2040 H       1  UNL1        0.1488
     48 H         139.5770   78.0412  223.5752 H       1  UNL1        0.0394
     49 H         141.1424   78.8592  221.0399 H       1  UNL1        0.0272
     50 H         139.4599   79.2046  221.3640 H       1  UNL1        0.0272
     51 H         141.3962   81.0506  221.9394 H       1  UNL1        0.0265
     52 H         140.0246   80.8929  223.0418 H       1  UNL1        0.0265
     53 H         142.8500   80.1907  223.4684 H       1  UNL1        0.0265
     54 H         141.5466   80.2518  224.6715 H       1  UNL1        0.0265
     55 H         142.6139   77.9343  223.1208 H       1  UNL1        0.0272
     56 H         141.7659   77.9235  224.6691 H       1  UNL1        0.0272
     57 H         138.6570   69.2398  222.7542 H       1  UNL1        0.0641
     58 H         139.2295   68.0123  224.8361 H       1  UNL1        0.0625
     59 H         140.1242   68.0553  227.0097 H       1  UNL1        0.0653
     60 H         141.6245   71.7242  228.6527 H       1  UNL1        0.0647
     61 H         141.0478   72.9616  226.5538 H       1  UNL1        0.0640
@<TRIPOS>BOND
     1     1     2    2
     2     2     3   am
     3     3     4    1
     4     4     5    1
     5     5     6    2
     6     5     7   am
     7     7     8    1
     8     8     9    1
     9     9    10    1
    10    10    11    1
    11    11    12    1
    12    12    13    1
    13    13    14    1
    14    14    15   am
    15    15    16    2
    16    15    17    1
    17    17    18    1
    18    18    19    1
    19    19    20    1
    20    20    21    1
    21     2    22    1
    22    22    23   ar
    23    23    24   ar
    24    24    25   ar
    25    25    26   ar
    26    26    27   ar
    27    27    28    1
    28    27    29   ar
    29    29    30   ar
    30    30    31   ar
    31    31    32   ar
    32    12     7    1
    33    21    17    1
    34    32    22   ar
    35    31    25   ar
    36     3    33    1
    37     4    34    1
    38     4    35    1
    39     8    36    1
    40     8    37    1
    41     9    38    1
    42     9    39    1
    43    10    40    1
    44    10    41    1
    45    11    42    1
    46    11    43    1
    47    12    44    1
    48    13    45    1
    49    13    46    1
    50    14    47    1
    51    17    48    1
    52    18    49    1
    53    18    50    1
    54    19    51    1
    55    19    52    1
    56    20    53    1
    57    20    54    1
    58    21    55    1
    59    21    56    1
    60    23    57    1
    61    24    58    1
    62    26    59    1
    63    29    60    1
    64    30    61    1
