@<TRIPOS>MOLECULE
*****
 66 70 0 0 0
SMALL
GASTEIGER

@<TRIPOS>ATOM
      1 C         142.1930   81.0020  223.4100 C.ar    1  UNL1       -0.0617
      2 C         142.7180   79.8830  222.7920 C.ar    1  UNL1       -0.0615
      3 C         141.9380   78.7560  222.5690 C.ar    1  UNL1       -0.0586
      4 C         140.5970   78.7260  222.9660 C.ar    1  UNL1       -0.0473
      5 C         139.8030   77.5100  222.7120 C.3     1  UNL1       -0.0263
      6 C         138.6060   77.7480  221.8090 C.3     1  UNL1       -0.0334
      7 C         137.6210   76.6420  222.0520 C.3     1  UNL1        0.0121
      8 N         137.8760   75.4400  221.3290 N.pl3   1  UNL1       -0.3133
      9 C         139.0410   74.6790  221.5820 C.ar    1  UNL1        0.2210
     10 N         140.2470   75.0500  221.1130 N.ar    1  UNL1       -0.1811
     11 C         141.3750   74.3520  221.3330 C.ar    1  UNL1        0.2213
     12 N         142.6320   74.7830  220.8170 N.pl3   1  UNL1       -0.3104
     13 C         143.5260   73.8400  220.2130 C.3     1  UNL1        0.0256
     14 C         144.8340   73.7670  220.9890 C.3     1  UNL1       -0.0219
     15 C         145.9800   73.2990  220.1310 C.3     1  UNL1       -0.0024
     16 N         145.5720   72.5180  218.9890 N.3     1  UNL1       -0.3159
     17 C         144.7060   73.2530  218.1050 C.3     1  UNL1       -0.0024
     18 C         143.8780   74.2860  218.8080 C.3     1  UNL1       -0.0219
     19 N         141.2670   73.2290  222.0640 N.ar    1  UNL1       -0.1809
     20 C         140.0750   72.7950  222.5690 C.ar    1  UNL1        0.2240
     21 N         140.0030   71.6000  223.3370 N.pl3   1  UNL1       -0.2948
     22 C         138.7750   70.8310  223.2900 C.3     1  UNL1        0.0192
     23 C         138.8380   69.5930  224.1270 C.3     1  UNL1       -0.0115
     24 C         139.4130   69.9810  225.4610 C.ar    1  UNL1       -0.0412
     25 C         138.8210   69.5680  226.6380 C.ar    1  UNL1       -0.0582
     26 C         139.3890   69.9520  227.8470 C.ar    1  UNL1       -0.0615
     27 C         140.5430   70.7440  227.8450 C.ar    1  UNL1       -0.0614
     28 C         141.1340   71.1560  226.6630 C.ar    1  UNL1       -0.0568
     29 C         140.5530   70.7630  225.4920 C.ar    1  UNL1       -0.0269
     30 C         141.1040   71.1490  224.1440 C.3     1  UNL1        0.0402
     31 N         139.0110   73.5370  222.3080 N.ar    1  UNL1       -0.1809
     32 C         140.1040   79.8580  223.5800 C.ar    1  UNL1       -0.0586
     33 C         140.8710   80.9830  223.8060 C.ar    1  UNL1       -0.0615
     34 H         142.8170   81.8912  223.5831 H       1  UNL1        0.0618
     35 H         143.7703   79.8851  222.4717 H       1  UNL1        0.0618
     36 H         142.3792   77.8777  222.0750 H       1  UNL1        0.0620
     37 H         140.4543   76.7614  222.2373 H       1  UNL1        0.0314
     38 H         139.4142   77.1680  223.6825 H       1  UNL1        0.0314
     39 H         138.1453   78.7183  222.0463 H       1  UNL1        0.0283
     40 H         138.9171   77.7606  220.7540 H       1  UNL1        0.0283
     41 H         137.6332   76.4037  223.1258 H       1  UNL1        0.0462
     42 H         136.6477   77.0133  221.6987 H       1  UNL1        0.0462
     43 H         137.2140   75.0850  220.5930 H       1  UNL1        0.1489
     44 H         142.8770   75.7880  220.8890 H       1  UNL1        0.1492
     45 H         143.0210   72.8628  220.2086 H       1  UNL1        0.0499
     46 H         145.0700   74.7677  221.3801 H       1  UNL1        0.0295
     47 H         144.7030   73.0392  221.8033 H       1  UNL1        0.0295
     48 H         146.5258   74.1829  219.7694 H       1  UNL1        0.0425
     49 H         146.6041   72.6461  220.7588 H       1  UNL1        0.0425
     50 H         145.2860   71.5530  219.1910 H       1  UNL1        0.1219
     51 H         145.3258   73.7577  217.3493 H       1  UNL1        0.0425
     52 H         144.0103   72.5294  217.6552 H       1  UNL1        0.0425
     53 H         144.4463   75.2263  218.8614 H       1  UNL1        0.0295
     54 H         142.9451   74.4294  218.2431 H       1  UNL1        0.0295
     55 H         137.9507   71.4613  223.6550 H       1  UNL1        0.0468
     56 H         138.6171   70.5197  222.2468 H       1  UNL1        0.0468
     57 H         137.8284   69.1769  224.2594 H       1  UNL1        0.0328
     58 H         139.4625   68.8280  223.6425 H       1  UNL1        0.0328
     59 H         137.9145   68.9452  226.6192 H       1  UNL1        0.0620
     60 H         138.9352   69.6360  228.7979 H       1  UNL1        0.0618
     61 H         140.9901   71.0457  228.8037 H       1  UNL1        0.0618
     62 H         142.0407   71.7787  226.6672 H       1  UNL1        0.0621
     63 H         141.8414   71.9572  224.2577 H       1  UNL1        0.0514
     64 H         141.6036   70.2908  223.6708 H       1  UNL1        0.0514
     65 H         139.0528   79.8647  223.9041 H       1  UNL1        0.0620
     66 H         140.4302   81.8614  224.3000 H       1  UNL1        0.0618
@<TRIPOS>BOND
     1     1     2   ar
     2     2     3   ar
     3     3     4   ar
     4     4     5    1
     5     5     6    1
     6     6     7    1
     7     7     8    1
     8     8     9    1
     9     9    10   ar
    10    10    11   ar
    11    11    12    1
    12    12    13    1
    13    13    14    1
    14    14    15    1
    15    15    16    1
    16    16    17    1
    17    17    18    1
    18    11    19   ar
    19    19    20   ar
    20    20    21    1
    21    21    22    1
    22    22    23    1
    23    23    24    1
    24    24    25   ar
    25    25    26   ar
    26    26    27   ar
    27    27    28   ar
    28    28    29   ar
    29    29    30    1
    30    20    31   ar
    31     4    32   ar
    32    32    33   ar
    33    33     1   ar
    34    31     9   ar
    35    18    13    1
    36    30    21    1
    37    29    24   ar
    38     1    34    1
    39     2    35    1
    40     3    36    1
    41     5    37    1
    42     5    38    1
    43     6    39    1
    44     6    40    1
    45     7    41    1
    46     7    42    1
    47     8    43    1
    48    12    44    1
    49    13    45    1
    50    14    46    1
    51    14    47    1
    52    15    48    1
    53    15    49    1
    54    16    50    1
    55    17    51    1
    56    17    52    1
    57    18    53    1
    58    18    54    1
    59    22    55    1
    60    22    56    1
    61    23    57    1
    62    23    58    1
    63    25    59    1
    64    26    60    1
    65    27    61    1
    66    28    62    1
    67    30    63    1
    68    30    64    1
    69    32    65    1
    70    33    66    1
