@<TRIPOS>MOLECULE
*****
 61 64 0 0 0
SMALL
GASTEIGER

@<TRIPOS>ATOM
      1 C         146.3500   73.0530  221.8540 C.3     1  UNL1       -0.0570
      2 C         145.8800   73.9290  220.6990 C.3     1  UNL1        0.0217
      3 C         145.5310   73.0700  219.5320 C.2     1  UNL1        0.2198
      4 O         146.3030   73.0630  218.5420 O.2     1  UNL1       -0.2753
      5 N         144.3400   72.3000  219.5970 N.am    1  UNL1       -0.2683
      6 C         144.3690   70.8620  219.4720 C.ar    1  UNL1        0.0366
      7 C         145.5760   70.2090  219.2980 C.ar    1  UNL1       -0.0403
      8 C         145.5600   68.8300  219.1790 C.ar    1  UNL1       -0.0600
      9 C         144.3840   68.1170  219.2330 C.ar    1  UNL1       -0.0616
     10 C         143.1860   68.7760  219.4080 C.ar    1  UNL1       -0.0600
     11 C         143.1900   70.1400  219.5260 C.ar    1  UNL1       -0.0403
     12 C         143.0470   72.8940  219.7910 C.3     1  UNL1        0.0339
     13 C         142.5500   72.8280  221.2200 C.3     1  UNL1       -0.0180
     14 C         141.0810   73.1780  221.1660 C.3     1  UNL1        0.0164
     15 N         140.9600   74.5330  220.6010 N.am    1  UNL1       -0.3001
     16 C         139.6510   75.0410  220.5020 C.2     1  UNL1        0.2327
     17 O         138.7140   74.2640  220.8970 O.2     1  UNL1       -0.2739
     18 C         139.2540   76.3550  219.9990 C.3     1  UNL1        0.0859
     19 N         137.7790   76.3730  219.9180 N.3     1  UNL1       -0.3197
     20 C         139.7080   77.4930  220.8810 C.3     1  UNL1       -0.0093
     21 C         140.8880   78.2360  220.2950 C.3     1  UNL1       -0.0224
     22 C         141.4430   78.8970  221.5050 C.ar    1  UNL1       -0.0438
     23 C         142.1990   80.0580  221.6170 C.ar    1  UNL1       -0.0583
     24 C         142.6330   80.5310  222.8420 C.ar    1  UNL1       -0.0615
     25 C         142.2890   79.8030  223.9590 C.ar    1  UNL1       -0.0615
     26 C         141.5310   78.6400  223.8430 C.ar    1  UNL1       -0.0583
     27 C         141.0940   78.1650  222.6210 C.ar    1  UNL1       -0.0438
     28 C         140.2940   76.9870  222.1830 C.3     1  UNL1       -0.0224
     29 C         142.1570   75.2040  220.1990 C.3     1  UNL1        0.0164
     30 C         143.0900   74.3240  219.3570 C.3     1  UNL1       -0.0180
     31 H         146.0915   73.5349  222.8085 H       1  UNL1        0.0234
     32 H         145.8575   72.0713  221.7936 H       1  UNL1        0.0234
     33 H         147.4403   72.9205  221.7936 H       1  UNL1        0.0234
     34 H         144.9939   74.5016  221.0105 H       1  UNL1        0.0356
     35 H         146.6848   74.6230  220.4150 H       1  UNL1        0.0356
     36 H         146.5215   70.7696  219.2554 H       1  UNL1        0.0636
     37 H         146.5089   68.2917  219.0380 H       1  UNL1        0.0618
     38 H         144.4001   67.0214  219.1365 H       1  UNL1        0.0618
     39 H         142.2411   68.2145  219.4522 H       1  UNL1        0.0618
     40 H         142.2376   70.6721  219.6664 H       1  UNL1        0.0636
     41 H         142.3419   72.3082  219.1830 H       1  UNL1        0.0505
     42 H         142.6870   71.8149  221.6260 H       1  UNL1        0.0298
     43 H         143.1052   73.5182  221.8722 H       1  UNL1        0.0298
     44 H         140.5482   72.4578  220.5277 H       1  UNL1        0.0465
     45 H         140.6407   73.1417  222.1734 H       1  UNL1        0.0465
     46 H         139.7319   76.5040  219.0195 H       1  UNL1        0.0557
     47 H         137.3830   76.3350  220.9010 H       1  UNL1        0.1189
     48 H         137.4340   75.4700  219.4870 H       1  UNL1        0.1189
     49 H         138.8072   78.1134  220.9976 H       1  UNL1        0.0327
     50 H         141.6154   77.5453  219.8436 H       1  UNL1        0.0317
     51 H         140.6264   78.9291  219.4819 H       1  UNL1        0.0317
     52 H         142.4594   80.6163  220.7057 H       1  UNL1        0.0620
     53 H         143.2292   81.4520  222.9208 H       1  UNL1        0.0618
     54 H         142.6159   80.1431  224.9527 H       1  UNL1        0.0618
     55 H         141.2717   78.0812  224.7543 H       1  UNL1        0.0620
     56 H         140.9313   76.1050  222.0218 H       1  UNL1        0.0317
     57 H         139.5436   76.6548  222.9155 H       1  UNL1        0.0317
     58 H         141.8798   76.0876  219.6053 H       1  UNL1        0.0465
     59 H         142.7025   75.4757  221.1148 H       1  UNL1        0.0465
     60 H         142.7819   74.3854  218.3028 H       1  UNL1        0.0298
     61 H         144.1184   74.6908  219.4907 H       1  UNL1        0.0298
@<TRIPOS>BOND
     1     1     2    1
     2     2     3    1
     3     3     4    2
     4     3     5   am
     5     5     6    1
     6     6     7   ar
     7     7     8   ar
     8     8     9   ar
     9     9    10   ar
    10    10    11   ar
    11     5    12    1
    12    12    13    1
    13    13    14    1
    14    14    15    1
    15    15    16   am
    16    16    17    2
    17    16    18    1
    18    18    19    1
    19    18    20    1
    20    20    21    1
    21    21    22    1
    22    22    23   ar
    23    23    24   ar
    24    24    25   ar
    25    25    26   ar
    26    26    27   ar
    27    27    28    1
    28    15    29    1
    29    29    30    1
    30    11     6   ar
    31    30    12    1
    32    28    20    1
    33    27    22   ar
    34     1    31    1
    35     1    32    1
    36     1    33    1
    37     2    34    1
    38     2    35    1
    39     7    36    1
    40     8    37    1
    41     9    38    1
    42    10    39    1
    43    11    40    1
    44    12    41    1
    45    13    42    1
    46    13    43    1
    47    14    44    1
    48    14    45    1
    49    18    46    1
    50    19    47    1
    51    19    48    1
    52    20    49    1
    53    21    50    1
    54    21    51    1
    55    23    52    1
    56    24    53    1
    57    25    54    1
    58    26    55    1
    59    28    56    1
    60    28    57    1
    61    29    58    1
    62    29    59    1
    63    30    60    1
    64    30    61    1
