
     RDKit          3D

 79 85  0  0  0  0  0  0  0  0999 V2000
  146.2160   70.0510  216.7370 C   0  0  0  0  0  0  0  0  0  0  0  0
  146.0160   69.0880  217.7060 C   0  0  0  0  0  0  0  0  0  0  0  0
  145.2530   69.4260  218.8230 C   0  0  0  0  0  0  0  0  0  0  0  0
  144.6990   70.6790  218.9860 C   0  0  0  0  0  0  0  0  0  0  0  0
  144.9280   71.6020  217.9920 C   0  0  0  0  0  0  0  0  0  0  0  0
  145.6770   71.3240  216.8620 C   0  0  0  0  0  0  0  0  0  0  0  0
  144.3710   72.9910  218.0780 C   0  0  0  0  0  0  0  0  0  0  0  0
  144.2990   73.3760  219.5410 C   0  0  0  0  0  0  0  0  0  0  0  0
  143.5550   72.3420  220.2300 N   0  0  0  0  0  0  0  0  0  0  0  0
  142.4040   72.7350  220.9810 C   0  0  0  0  0  0  0  0  0  0  0  0
  141.9050   74.0020  220.9080 N   0  0  0  0  0  0  0  0  0  0  0  0
  140.8360   74.3740  221.6030 C   0  0  0  0  0  0  0  0  0  0  0  0
  140.3040   75.6810  221.5410 N   0  0  0  0  0  0  0  0  0  0  0  0
  138.8830   75.9710  221.5970 C   0  0  0  0  0  0  0  0  0  0  0  0
  138.7420   77.3410  220.8910 C   0  0  0  0  0  0  0  0  0  0  0  0
  139.3600   78.3730  221.6380 N   0  0  0  0  0  0  0  0  0  0  0  0
  139.7090   79.5080  220.8770 C   0  0  0  0  0  0  0  0  0  0  0  0
  140.9860   79.5080  220.1220 C   0  0  0  0  0  0  0  0  0  0  0  0
  140.7350   78.8770  218.7360 C   0  0  0  0  0  0  0  0  0  0  0  0
  142.0510   78.4640  218.1360 C   0  0  0  0  0  0  0  0  0  0  0  0
  142.9360   79.6140  218.1970 N   0  0  0  0  0  0  0  0  0  0  0  0
  142.2280   80.8320  218.4600 C   0  0  0  0  0  0  0  0  0  0  0  0
  141.6240   80.8280  219.8540 C   0  0  0  0  0  0  0  0  0  0  0  0
  140.5680   77.8990  222.3060 C   0  0  0  0  0  0  0  0  0  0  0  0
  141.1900   76.8390  221.4170 C   0  0  0  0  0  0  0  0  0  0  0  0
  140.2440   73.4680  222.3910 N   0  0  0  0  0  0  0  0  0  0  0  0
  140.6760   72.2210  222.5100 C   0  0  0  0  0  0  0  0  0  0  0  0
  139.9820   71.3280  223.3730 N   0  0  0  0  0  0  0  0  0  0  0  0
  139.3150   70.1930  222.7850 C   0  0  0  0  0  0  0  0  0  0  0  0
  138.6180   69.3380  223.8130 C   0  0  0  0  0  0  0  0  0  0  0  0
  139.4630   69.1010  225.0080 C   0  0  0  0  0  0  0  0  0  0  0  0
  139.5900   67.8550  225.5880 C   0  0  0  0  0  0  0  0  0  0  0  0
  140.3920   67.7420  226.6840 C   0  0  0  0  0  0  0  0  0  0  0  0
  141.0680   68.8320  227.2140 C   0  0  0  0  0  0  0  0  0  0  0  0
  140.9230   70.0660  226.6170 C   0  0  0  0  0  0  0  0  0  0  0  0
  140.1290   70.2200  225.5170 C   0  0  0  0  0  0  0  0  0  0  0  0
  139.9140   71.5070  224.8110 C   0  0  0  0  0  0  0  0  0  0  0  0
  141.7600   71.8600  221.7980 N   0  0  0  0  0  0  0  0  0  0  0  0
  143.9040   70.9420  220.2060 C   0  0  0  0  0  0  0  0  0  0  0  0
  146.8147   69.8044  215.8478 H   0  0  0  0  0  0  0  0  0  0  0  0
  146.4469   68.0815  217.5997 H   0  0  0  0  0  0  0  0  0  0  0  0
  145.0869   68.6670  219.6016 H   0  0  0  0  0  0  0  0  0  0  0  0
  145.8401   72.0877  216.0873 H   0  0  0  0  0  0  0  0  0  0  0  0
  145.0274   73.6905  217.5397 H   0  0  0  0  0  0  0  0  0  0  0  0
  143.3705   73.0307  217.6225 H   0  0  0  0  0  0  0  0  0  0  0  0
  145.3135   73.4503  219.9596 H   0  0  0  0  0  0  0  0  0  0  0  0
  143.8049   74.3516  219.6598 H   0  0  0  0  0  0  0  0  0  0  0  0
  138.3068   75.1986  221.0666 H   0  0  0  0  0  0  0  0  0  0  0  0
  138.4988   75.9887  222.6276 H   0  0  0  0  0  0  0  0  0  0  0  0
  139.2159   77.2834  219.9000 H   0  0  0  0  0  0  0  0  0  0  0  0
  137.6710   77.5743  220.7985 H   0  0  0  0  0  0  0  0  0  0  0  0
  138.9029   79.6646  220.1451 H   0  0  0  0  0  0  0  0  0  0  0  0
  139.8511   80.2956  221.6317 H   0  0  0  0  0  0  0  0  0  0  0  0
  141.6742   78.9568  220.7796 H   0  0  0  0  0  0  0  0  0  0  0  0
  140.0872   77.9947  218.8451 H   0  0  0  0  0  0  0  0  0  0  0  0
  140.2428   79.6097  218.0796 H   0  0  0  0  0  0  0  0  0  0  0  0
  142.4799   77.6287  218.7090 H   0  0  0  0  0  0  0  0  0  0  0  0
  141.9166   78.1320  217.0959 H   0  0  0  0  0  0  0  0  0  0  0  0
  143.5620   79.6790  217.3870 H   0  0  0  0  0  0  0  0  0  0  0  0
  142.9257   81.6780  218.3740 H   0  0  0  0  0  0  0  0  0  0  0  0
  141.4123   80.9251  217.7279 H   0  0  0  0  0  0  0  0  0  0  0  0
  142.4158   81.0086  220.5959 H   0  0  0  0  0  0  0  0  0  0  0  0
  140.8642   81.6204  219.9237 H   0  0  0  0  0  0  0  0  0  0  0  0
  141.2719   78.7325  222.4466 H   0  0  0  0  0  0  0  0  0  0  0  0
  140.3277   77.4843  223.2961 H   0  0  0  0  0  0  0  0  0  0  0  0
  141.2326   77.1845  220.3735 H   0  0  0  0  0  0  0  0  0  0  0  0
  142.2237   76.6045  221.7110 H   0  0  0  0  0  0  0  0  0  0  0  0
  138.5684   70.5570  222.0638 H   0  0  0  0  0  0  0  0  0  0  0  0
  140.0797   69.5718  222.2958 H   0  0  0  0  0  0  0  0  0  0  0  0
  137.6934   69.8444  224.1273 H   0  0  0  0  0  0  0  0  0  0  0  0
  138.4025   68.3627  223.3521 H   0  0  0  0  0  0  0  0  0  0  0  0
  139.0611   66.9816  225.1789 H   0  0  0  0  0  0  0  0  0  0  0  0
  140.5069   66.7582  227.1625 H   0  0  0  0  0  0  0  0  0  0  0  0
  141.7109   68.7129  228.0986 H   0  0  0  0  0  0  0  0  0  0  0  0
  141.4529   70.9363  227.0314 H   0  0  0  0  0  0  0  0  0  0  0  0
  138.9229   71.9027  225.0779 H   0  0  0  0  0  0  0  0  0  0  0  0
  140.7038   72.2099  225.1147 H   0  0  0  0  0  0  0  0  0  0  0  0
  144.4980   70.6920  221.0974 H   0  0  0  0  0  0  0  0  0  0  0  0
  142.9929   70.3256  220.2032 H   0  0  0  0  0  0  0  0  0  0  0  0
  1  2  2  0
  2  3  1  0
  3  4  2  0
  4  5  1  0
  5  6  2  0
  5  7  1  0
  7  8  1  0
  8  9  1  0
  9 10  1  0
 10 11  2  0
 11 12  1  0
 12 13  1  0
 13 14  1  0
 14 15  1  0
 15 16  1  0
 16 17  1  0
 17 18  1  0
 18 19  1  0
 19 20  1  0
 20 21  1  0
 21 22  1  0
 22 23  1  0
 16 24  1  0
 24 25  1  0
 12 26  2  0
 26 27  1  0
 27 28  1  0
 28 29  1  0
 29 30  1  0
 30 31  1  0
 31 32  2  0
 32 33  1  0
 33 34  2  0
 34 35  1  0
 35 36  2  0
 36 37  1  0
 27 38  2  0
  9 39  1  0
  6  1  1  0
 38 10  1  0
 39  4  1  0
 25 13  1  0
 37 28  1  0
 23 18  1  0
 36 31  1  0
  1 40  1  0
  2 41  1  0
  3 42  1  0
  6 43  1  0
  7 44  1  0
  7 45  1  0
  8 46  1  0
  8 47  1  0
 14 48  1  0
 14 49  1  0
 15 50  1  0
 15 51  1  0
 17 52  1  0
 17 53  1  0
 18 54  1  0
 19 55  1  0
 19 56  1  0
 20 57  1  0
 20 58  1  0
 21 59  1  0
 22 60  1  0
 22 61  1  0
 23 62  1  0
 23 63  1  0
 24 64  1  0
 24 65  1  0
 25 66  1  0
 25 67  1  0
 29 68  1  0
 29 69  1  0
 30 70  1  0
 30 71  1  0
 32 72  1  0
 33 73  1  0
 34 74  1  0
 35 75  1  0
 37 76  1  0
 37 77  1  0
 39 78  1  0
 39 79  1  0
M  END
>  <smiles>  (1) 
c1ccc2c(c1)CCN(c1nc(N3CCN(CC4CCNCC4)CC3)nc(N3CCc4ccccc4C3)n1)C2

>  <score_type>  (1) 
oracle

>  <origin>  (1) 
autodockgpu

>  <m_score__min__energy>  (1) 
-10.470000000000001

>  <m_primary>  (1) 
energy

>  <rmsd>  (1) 
4.000784704458717

>  <m_score__min__rmsd>  (1) 
4.000784704458717

>  <meeko>  (1) 
{"free_energy": -9.51, "intermolecular_energy": -11.0, "internal_energy": -1.25, "cluster_size": 32, "cluster_id": 3, "rank_in_cluster": 27}

>  <energy>  (1) 
-10.47

>  <cluster_rmsd>  (1) 
0.0

>  <cluster>  (1) 
1

$$$$

     RDKit          3D

 79 85  0  0  0  0  0  0  0  0999 V2000
  139.7780   80.7770  222.6730 C   0  0  0  0  0  0  0  0  0  0  0  0
  138.7710   80.1320  223.3640 C   0  0  0  0  0  0  0  0  0  0  0  0
  138.6730   78.7460  223.2430 C   0  0  0  0  0  0  0  0  0  0  0  0
  139.5410   78.0100  222.4640 C   0  0  0  0  0  0  0  0  0  0  0  0
  140.5250   78.7000  221.7960 C   0  0  0  0  0  0  0  0  0  0  0  0
  140.6730   80.0740  221.8770 C   0  0  0  0  0  0  0  0  0  0  0  0
  141.5160   77.9900  220.9220 C   0  0  0  0  0  0  0  0  0  0  0  0
  140.8300   76.7780  220.3280 C   0  0  0  0  0  0  0  0  0  0  0  0
  140.2720   76.0100  221.4220 N   0  0  0  0  0  0  0  0  0  0  0  0
  140.6540   74.6370  221.5380 C   0  0  0  0  0  0  0  0  0  0  0  0
  141.6910   74.1230  220.8140 N   0  0  0  0  0  0  0  0  0  0  0  0
  142.0520   72.8490  220.9160 C   0  0  0  0  0  0  0  0  0  0  0  0
  143.1210   72.2980  220.1760 N   0  0  0  0  0  0  0  0  0  0  0  0
  143.0870   72.1110  218.7380 C   0  0  0  0  0  0  0  0  0  0  0  0
  144.1030   70.9740  218.4730 C   0  0  0  0  0  0  0  0  0  0  0  0
  145.4260   71.3870  218.7620 N   0  0  0  0  0  0  0  0  0  0  0  0
  146.3180   70.3260  219.0250 C   0  0  0  0  0  0  0  0  0  0  0  0
  146.2350   69.0920  218.2060 C   0  0  0  0  0  0  0  0  0  0  0  0
  145.2610   68.1120  218.8960 C   0  0  0  0  0  0  0  0  0  0  0  0
  145.4890   66.7280  218.3540 C   0  0  0  0  0  0  0  0  0  0  0  0
  145.4370   66.8140  216.9050 N   0  0  0  0  0  0  0  0  0  0  0  0
  144.8590   68.0450  216.4540 C   0  0  0  0  0  0  0  0  0  0  0  0
  145.7430   69.2300  216.8060 C   0  0  0  0  0  0  0  0  0  0  0  0
  145.4650   72.2920  219.9060 C   0  0  0  0  0  0  0  0  0  0  0  0
  144.3510   71.8800  220.8480 C   0  0  0  0  0  0  0  0  0  0  0  0
  141.3690   72.0620  221.7580 N   0  0  0  0  0  0  0  0  0  0  0  0
  140.3530   72.4950  222.4900 C   0  0  0  0  0  0  0  0  0  0  0  0
  139.6880   71.5840  223.3560 N   0  0  0  0  0  0  0  0  0  0  0  0
  138.7790   70.6290  222.7700 C   0  0  0  0  0  0  0  0  0  0  0  0
  138.1430   69.7310  223.8020 C   0  0  0  0  0  0  0  0  0  0  0  0
  139.1260   69.2330  224.7920 C   0  0  0  0  0  0  0  0  0  0  0  0
  139.1660   67.9140  225.1940 C   0  0  0  0  0  0  0  0  0  0  0  0
  140.1100   67.5560  226.1100 C   0  0  0  0  0  0  0  0  0  0  0  0
  141.0110   68.4740  226.6330 C   0  0  0  0  0  0  0  0  0  0  0  0
  140.9490   69.7860  226.2150 C   0  0  0  0  0  0  0  0  0  0  0  0
  140.0180   70.1840  225.2990 C   0  0  0  0  0  0  0  0  0  0  0  0
  139.8780   71.5710  224.7940 C   0  0  0  0  0  0  0  0  0  0  0  0
  140.0010   73.7890  222.3740 N   0  0  0  0  0  0  0  0  0  0  0  0
  139.3550   76.5430  222.4000 C   0  0  0  0  0  0  0  0  0  0  0  0
  139.8731   81.8698  222.7548 H   0  0  0  0  0  0  0  0  0  0  0  0
  138.0658   80.6958  223.9924 H   0  0  0  0  0  0  0  0  0  0  0  0
  137.8748   78.2212  223.7884 H   0  0  0  0  0  0  0  0  0  0  0  0
  141.4735   80.5922  221.3287 H   0  0  0  0  0  0  0  0  0  0  0  0
  141.8523   78.6606  220.1175 H   0  0  0  0  0  0  0  0  0  0  0  0
  142.3938   77.6832  221.5097 H   0  0  0  0  0  0  0  0  0  0  0  0
  140.0277   77.0976  219.6466 H   0  0  0  0  0  0  0  0  0  0  0  0
  141.5466   76.1705  219.7558 H   0  0  0  0  0  0  0  0  0  0  0  0
  142.0797   71.8176  218.4074 H   0  0  0  0  0  0  0  0  0  0  0  0
  143.3358   73.0316  218.1897 H   0  0  0  0  0  0  0  0  0  0  0  0
  143.8500   70.1124  219.1084 H   0  0  0  0  0  0  0  0  0  0  0  0
  144.0494   70.7024  217.4084 H   0  0  0  0  0  0  0  0  0  0  0  0
  147.3361   70.7244  218.9040 H   0  0  0  0  0  0  0  0  0  0  0  0
  146.0357   69.9904  220.0338 H   0  0  0  0  0  0  0  0  0  0  0  0
  147.2805   68.7570  218.1372 H   0  0  0  0  0  0  0  0  0  0  0  0
  145.4409   68.1168  219.9812 H   0  0  0  0  0  0  0  0  0  0  0  0
  144.2237   68.4207  218.6993 H   0  0  0  0  0  0  0  0  0  0  0  0
  146.4740   66.3569  218.6733 H   0  0  0  0  0  0  0  0  0  0  0  0
  144.7231   66.0333  218.7292 H   0  0  0  0  0  0  0  0  0  0  0  0
  145.0120   65.9870  216.4710 H   0  0  0  0  0  0  0  0  0  0  0  0
  144.7333   68.0033  215.3620 H   0  0  0  0  0  0  0  0  0  0  0  0
  143.8870   68.1760  216.9522 H   0  0  0  0  0  0  0  0  0  0  0  0
  146.6011   69.2629  216.1185 H   0  0  0  0  0  0  0  0  0  0  0  0
  145.1604   70.1586  216.7147 H   0  0  0  0  0  0  0  0  0  0  0  0
  146.4367   72.2125  220.4153 H   0  0  0  0  0  0  0  0  0  0  0  0
  145.3333   73.3346  219.5811 H   0  0  0  0  0  0  0  0  0  0  0  0
  144.3572   70.7910  221.0029 H   0  0  0  0  0  0  0  0  0  0  0  0
  144.4573   72.3376  221.8427 H   0  0  0  0  0  0  0  0  0  0  0  0
  137.9850   71.1761  222.2406 H   0  0  0  0  0  0  0  0  0  0  0  0
  139.3576   69.9933  222.0837 H   0  0  0  0  0  0  0  0  0  0  0  0
  137.3625   70.2971  224.3315 H   0  0  0  0  0  0  0  0  0  0  0  0
  137.7205   68.8608  223.2783 H   0  0  0  0  0  0  0  0  0  0  0  0
  138.4591   67.1751  224.7886 H   0  0  0  0  0  0  0  0  0  0  0  0
  140.1594   66.5093  226.4446 H   0  0  0  0  0  0  0  0  0  0  0  0
  141.7637   68.1586  227.3706 H   0  0  0  0  0  0  0  0  0  0  0  0
  141.6578   70.5209  226.6242 H   0  0  0  0  0  0  0  0  0  0  0  0
  139.0093   72.0433  225.2759 H   0  0  0  0  0  0  0  0  0  0  0  0
  140.7985   72.1248  225.0309 H   0  0  0  0  0  0  0  0  0  0  0  0
  138.3209   76.3122  222.1043 H   0  0  0  0  0  0  0  0  0  0  0  0
  139.5499   76.0940  223.3851 H   0  0  0  0  0  0  0  0  0  0  0  0
  1  2  2  0
  2  3  1  0
  3  4  2  0
  4  5  1  0
  5  6  2  0
  5  7  1  0
  7  8  1  0
  8  9  1  0
  9 10  1  0
 10 11  2  0
 11 12  1  0
 12 13  1  0
 13 14  1  0
 14 15  1  0
 15 16  1  0
 16 17  1  0
 17 18  1  0
 18 19  1  0
 19 20  1  0
 20 21  1  0
 21 22  1  0
 22 23  1  0
 16 24  1  0
 24 25  1  0
 12 26  2  0
 26 27  1  0
 27 28  1  0
 28 29  1  0
 29 30  1  0
 30 31  1  0
 31 32  2  0
 32 33  1  0
 33 34  2  0
 34 35  1  0
 35 36  2  0
 36 37  1  0
 27 38  2  0
  9 39  1  0
  6  1  1  0
 38 10  1  0
 39  4  1  0
 25 13  1  0
 37 28  1  0
 23 18  1  0
 36 31  1  0
  1 40  1  0
  2 41  1  0
  3 42  1  0
  6 43  1  0
  7 44  1  0
  7 45  1  0
  8 46  1  0
  8 47  1  0
 14 48  1  0
 14 49  1  0
 15 50  1  0
 15 51  1  0
 17 52  1  0
 17 53  1  0
 18 54  1  0
 19 55  1  0
 19 56  1  0
 20 57  1  0
 20 58  1  0
 21 59  1  0
 22 60  1  0
 22 61  1  0
 23 62  1  0
 23 63  1  0
 24 64  1  0
 24 65  1  0
 25 66  1  0
 25 67  1  0
 29 68  1  0
 29 69  1  0
 30 70  1  0
 30 71  1  0
 32 72  1  0
 33 73  1  0
 34 74  1  0
 35 75  1  0
 37 76  1  0
 37 77  1  0
 39 78  1  0
 39 79  1  0
M  END
>  <smiles>  (2) 
c1ccc2c(c1)CCN(c1nc(N3CCN(CC4CCNCC4)CC3)nc(N3CCc4ccccc4C3)n1)C2

>  <score_type>  (2) 
oracle

>  <origin>  (2) 
autodockgpu

>  <m_score__min__energy>  (2) 
-10.470000000000001

>  <m_primary>  (2) 
energy

>  <rmsd>  (2) 
11.217258357837846

>  <m_score__min__rmsd>  (2) 
11.217258357837846

>  <meeko>  (2) 
{"free_energy": -10.17, "intermolecular_energy": -11.66, "internal_energy": -1.04, "cluster_size": 7, "cluster_id": 2, "rank_in_cluster": 2}

>  <energy>  (2) 
-10.47

>  <cluster_rmsd>  (2) 
0.59

>  <cluster>  (2) 
1

$$$$

     RDKit          3D

 79 85  0  0  0  0  0  0  0  0999 V2000
  140.0860   67.7670  227.5460 C   0  0  0  0  0  0  0  0  0  0  0  0
  139.2270   67.3660  226.5410 C   0  0  0  0  0  0  0  0  0  0  0  0
  139.1030   68.1830  225.4170 C   0  0  0  0  0  0  0  0  0  0  0  0
  139.8030   69.3630  225.2820 C   0  0  0  0  0  0  0  0  0  0  0  0
  140.6440   69.7170  226.3120 C   0  0  0  0  0  0  0  0  0  0  0  0
  140.8090   68.9480  227.4500 C   0  0  0  0  0  0  0  0  0  0  0  0
  141.4470   70.9820  226.2590 C   0  0  0  0  0  0  0  0  0  0  0  0
  140.6570   72.0050  225.4710 C   0  0  0  0  0  0  0  0  0  0  0  0
  140.3160   71.4070  224.1960 N   0  0  0  0  0  0  0  0  0  0  0  0
  140.7090   72.0990  223.0080 C   0  0  0  0  0  0  0  0  0  0  0  0
  140.2400   73.3490  222.7250 N   0  0  0  0  0  0  0  0  0  0  0  0
  140.6010   73.9980  221.6240 C   0  0  0  0  0  0  0  0  0  0  0  0
  140.1280   75.2920  221.3120 N   0  0  0  0  0  0  0  0  0  0  0  0
  139.3770   75.6010  220.1090 C   0  0  0  0  0  0  0  0  0  0  0  0
  139.6230   77.1120  219.8800 C   0  0  0  0  0  0  0  0  0  0  0  0
  139.0280   77.8930  220.9000 N   0  0  0  0  0  0  0  0  0  0  0  0
  139.5940   79.1760  221.0510 C   0  0  0  0  0  0  0  0  0  0  0  0
  140.4950   79.4380  222.2000 C   0  0  0  0  0  0  0  0  0  0  0  0
  141.9170   79.6940  221.6580 C   0  0  0  0  0  0  0  0  0  0  0  0
  142.9080   79.5240  222.7770 C   0  0  0  0  0  0  0  0  0  0  0  0
  142.4570   80.3470  223.8850 N   0  0  0  0  0  0  0  0  0  0  0  0
  141.4640   81.2990  223.4870 C   0  0  0  0  0  0  0  0  0  0  0  0
  140.1770   80.6100  223.0660 C   0  0  0  0  0  0  0  0  0  0  0  0
  139.0970   77.2230  222.1950 C   0  0  0  0  0  0  0  0  0  0  0  0
  140.3790   76.4130  222.2170 C   0  0  0  0  0  0  0  0  0  0  0  0
  141.4480   73.3950  220.7800 N   0  0  0  0  0  0  0  0  0  0  0  0
  141.9410   72.1830  220.9940 C   0  0  0  0  0  0  0  0  0  0  0  0
  142.8360   71.6230  220.0400 N   0  0  0  0  0  0  0  0  0  0  0  0
  144.0160   72.3750  219.6910 C   0  0  0  0  0  0  0  0  0  0  0  0
  144.8690   71.6660  218.6680 C   0  0  0  0  0  0  0  0  0  0  0  0
  145.0310   70.2260  218.9770 C   0  0  0  0  0  0  0  0  0  0  0  0
  146.2520   69.5870  218.8980 C   0  0  0  0  0  0  0  0  0  0  0  0
  146.2960   68.2590  219.2050 C   0  0  0  0  0  0  0  0  0  0  0  0
  145.1620   67.5560  219.5850 C   0  0  0  0  0  0  0  0  0  0  0  0
  143.9540   68.2180  219.6550 C   0  0  0  0  0  0  0  0  0  0  0  0
  143.8690   69.5470  219.3560 C   0  0  0  0  0  0  0  0  0  0  0  0
  142.6150   70.3390  219.4030 C   0  0  0  0  0  0  0  0  0  0  0  0
  141.5660   71.5400  222.1150 N   0  0  0  0  0  0  0  0  0  0  0  0
  139.6040   70.1610  224.0520 C   0  0  0  0  0  0  0  0  0  0  0  0
  140.1993   67.1373  228.4408 H   0  0  0  0  0  0  0  0  0  0  0  0
  138.6569   66.4290  226.6247 H   0  0  0  0  0  0  0  0  0  0  0  0
  138.4224   67.8747  224.6097 H   0  0  0  0  0  0  0  0  0  0  0  0
  141.4915   69.2624  228.2533 H   0  0  0  0  0  0  0  0  0  0  0  0
  141.6261   71.3535  227.2788 H   0  0  0  0  0  0  0  0  0  0  0  0
  142.4193   70.7975  225.7788 H   0  0  0  0  0  0  0  0  0  0  0  0
  139.7404   72.2728  226.0169 H   0  0  0  0  0  0  0  0  0  0  0  0
  141.2491   72.9201  225.3227 H   0  0  0  0  0  0  0  0  0  0  0  0
  139.7476   75.0126  219.2567 H   0  0  0  0  0  0  0  0  0  0  0  0
  138.3083   75.3602  220.2081 H   0  0  0  0  0  0  0  0  0  0  0  0
  140.7066   77.3008  219.8709 H   0  0  0  0  0  0  0  0  0  0  0  0
  139.1693   77.3947  218.9186 H   0  0  0  0  0  0  0  0  0  0  0  0
  140.1700   79.3830  220.1370 H   0  0  0  0  0  0  0  0  0  0  0  0
  138.7265   79.8238  221.2453 H   0  0  0  0  0  0  0  0  0  0  0  0
  140.3785   78.5433  222.8293 H   0  0  0  0  0  0  0  0  0  0  0  0
  142.1404   78.9754  220.8557 H   0  0  0  0  0  0  0  0  0  0  0  0
  141.9824   80.7162  221.2570 H   0  0  0  0  0  0  0  0  0  0  0  0
  142.9499   78.4689  223.0850 H   0  0  0  0  0  0  0  0  0  0  0  0
  143.9150   79.8262  222.4534 H   0  0  0  0  0  0  0  0  0  0  0  0
  143.2310   80.7690  224.4100 H   0  0  0  0  0  0  0  0  0  0  0  0
  141.2514   81.9699  224.3324 H   0  0  0  0  0  0  0  0  0  0  0  0
  141.8513   81.8666  222.6280 H   0  0  0  0  0  0  0  0  0  0  0  0
  139.6359   80.2677  223.9604 H   0  0  0  0  0  0  0  0  0  0  0  0
  139.5508   81.3189  222.5045 H   0  0  0  0  0  0  0  0  0  0  0  0
  139.1088   77.9682  223.0040 H   0  0  0  0  0  0  0  0  0  0  0  0
  138.2228   76.5720  222.3433 H   0  0  0  0  0  0  0  0  0  0  0  0
  141.2256   77.0176  221.8595 H   0  0  0  0  0  0  0  0  0  0  0  0
  140.6408   76.0773  223.2313 H   0  0  0  0  0  0  0  0  0  0  0  0
  143.7064   73.3472  219.2799 H   0  0  0  0  0  0  0  0  0  0  0  0
  144.6182   72.4961  220.6035 H   0  0  0  0  0  0  0  0  0  0  0  0
  144.3945   71.7654  217.6806 H   0  0  0  0  0  0  0  0  0  0  0  0
  145.8668   72.1288  218.6805 H   0  0  0  0  0  0  0  0  0  0  0  0
  147.1596   70.1310  218.5973 H   0  0  0  0  0  0  0  0  0  0  0  0
  147.2588   67.7298  219.1497 H   0  0  0  0  0  0  0  0  0  0  0  0
  145.2254   66.4849  219.8273 H   0  0  0  0  0  0  0  0  0  0  0  0
  143.0493   67.6689  219.9550 H   0  0  0  0  0  0  0  0  0  0  0  0
  142.2546   70.5036  218.3768 H   0  0  0  0  0  0  0  0  0  0  0  0
  141.8692   69.7808  219.9880 H   0  0  0  0  0  0  0  0  0  0  0  0
  138.5318   70.3605  223.9083 H   0  0  0  0  0  0  0  0  0  0  0  0
  139.9820   69.6091  223.1788 H   0  0  0  0  0  0  0  0  0  0  0  0
  1  2  2  0
  2  3  1  0
  3  4  2  0
  4  5  1  0
  5  6  2  0
  5  7  1  0
  7  8  1  0
  8  9  1  0
  9 10  1  0
 10 11  2  0
 11 12  1  0
 12 13  1  0
 13 14  1  0
 14 15  1  0
 15 16  1  0
 16 17  1  0
 17 18  1  0
 18 19  1  0
 19 20  1  0
 20 21  1  0
 21 22  1  0
 22 23  1  0
 16 24  1  0
 24 25  1  0
 12 26  2  0
 26 27  1  0
 27 28  1  0
 28 29  1  0
 29 30  1  0
 30 31  1  0
 31 32  2  0
 32 33  1  0
 33 34  2  0
 34 35  1  0
 35 36  2  0
 36 37  1  0
 27 38  2  0
  9 39  1  0
  6  1  1  0
 38 10  1  0
 39  4  1  0
 25 13  1  0
 37 28  1  0
 23 18  1  0
 36 31  1  0
  1 40  1  0
  2 41  1  0
  3 42  1  0
  6 43  1  0
  7 44  1  0
  7 45  1  0
  8 46  1  0
  8 47  1  0
 14 48  1  0
 14 49  1  0
 15 50  1  0
 15 51  1  0
 17 52  1  0
 17 53  1  0
 18 54  1  0
 19 55  1  0
 19 56  1  0
 20 57  1  0
 20 58  1  0
 21 59  1  0
 22 60  1  0
 22 61  1  0
 23 62  1  0
 23 63  1  0
 24 64  1  0
 24 65  1  0
 25 66  1  0
 25 67  1  0
 29 68  1  0
 29 69  1  0
 30 70  1  0
 30 71  1  0
 32 72  1  0
 33 73  1  0
 34 74  1  0
 35 75  1  0
 37 76  1  0
 37 77  1  0
 39 78  1  0
 39 79  1  0
M  END
>  <smiles>  (3) 
c1ccc2c(c1)CCN(c1nc(N3CCN(CC4CCNCC4)CC3)nc(N3CCc4ccccc4C3)n1)C2

>  <score_type>  (3) 
oracle

>  <origin>  (3) 
autodockgpu

>  <m_score__min__energy>  (3) 
-10.470000000000001

>  <m_primary>  (3) 
energy

>  <rmsd>  (3) 
3.6317986814840397

>  <m_score__min__rmsd>  (3) 
3.6317986814840397

>  <meeko>  (3) 
{"free_energy": -10.01, "intermolecular_energy": -11.5, "internal_energy": -1.24, "cluster_size": 32, "cluster_id": 3, "rank_in_cluster": 1}

>  <energy>  (3) 
-10.42

>  <cluster_rmsd>  (3) 
0.68

>  <cluster>  (3) 
1

$$$$

     RDKit          3D

 79 85  0  0  0  0  0  0  0  0999 V2000
  145.4460   67.2630  218.0790 C   0  0  0  0  0  0  0  0  0  0  0  0
  146.3190   68.1640  218.6580 C   0  0  0  0  0  0  0  0  0  0  0  0
  145.7860   69.3060  219.2550 C   0  0  0  0  0  0  0  0  0  0  0  0
  144.4310   69.5590  219.2840 C   0  0  0  0  0  0  0  0  0  0  0  0
  143.6050   68.6320  218.6930 C   0  0  0  0  0  0  0  0  0  0  0  0
  144.0750   67.4800  218.0860 C   0  0  0  0  0  0  0  0  0  0  0  0
  142.1170   68.8180  218.6700 C   0  0  0  0  0  0  0  0  0  0  0  0
  141.8340   70.3050  218.6200 C   0  0  0  0  0  0  0  0  0  0  0  0
  142.5420   70.9230  219.7220 N   0  0  0  0  0  0  0  0  0  0  0  0
  141.7850   71.7070  220.6470 C   0  0  0  0  0  0  0  0  0  0  0  0
  141.6320   73.0530  220.4820 N   0  0  0  0  0  0  0  0  0  0  0  0
  140.9290   73.7880  221.3360 C   0  0  0  0  0  0  0  0  0  0  0  0
  140.7600   75.1820  221.1830 N   0  0  0  0  0  0  0  0  0  0  0  0
  141.5460   75.9890  220.2690 C   0  0  0  0  0  0  0  0  0  0  0  0
  141.4840   77.4160  220.8640 C   0  0  0  0  0  0  0  0  0  0  0  0
  140.1730   77.9480  220.7950 N   0  0  0  0  0  0  0  0  0  0  0  0
  139.9200   78.9820  221.7190 C   0  0  0  0  0  0  0  0  0  0  0  0
  140.9830   79.3740  222.6750 C   0  0  0  0  0  0  0  0  0  0  0  0
  142.0900   80.1180  221.8980 C   0  0  0  0  0  0  0  0  0  0  0  0
  143.3460   80.1340  222.7250 C   0  0  0  0  0  0  0  0  0  0  0  0
  142.9960   80.6420  224.0390 N   0  0  0  0  0  0  0  0  0  0  0  0
  141.7130   81.2800  224.0510 C   0  0  0  0  0  0  0  0  0  0  0  0
  140.5970   80.2810  223.7940 C   0  0  0  0  0  0  0  0  0  0  0  0
  139.1660   76.9120  221.0000 C   0  0  0  0  0  0  0  0  0  0  0  0
  139.7500   75.8970  221.9630 C   0  0  0  0  0  0  0  0  0  0  0  0
  140.3610   73.1750  222.3820 N   0  0  0  0  0  0  0  0  0  0  0  0
  140.4690   71.8720  222.6030 C   0  0  0  0  0  0  0  0  0  0  0  0
  139.8310   71.3100  223.7430 N   0  0  0  0  0  0  0  0  0  0  0  0
  138.6620   70.4900  223.5340 C   0  0  0  0  0  0  0  0  0  0  0  0
  138.0880   69.9660  224.8250 C   0  0  0  0  0  0  0  0  0  0  0  0
  139.1380   69.4530  225.7370 C   0  0  0  0  0  0  0  0  0  0  0  0
  139.0100   68.2560  226.4120 C   0  0  0  0  0  0  0  0  0  0  0  0
  140.0340   67.8730  227.2270 C   0  0  0  0  0  0  0  0  0  0  0  0
  141.1750   68.6470  227.3850 C   0  0  0  0  0  0  0  0  0  0  0  0
  141.2770   69.8390  226.7000 C   0  0  0  0  0  0  0  0  0  0  0  0
  140.2730   70.2570  225.8740 C   0  0  0  0  0  0  0  0  0  0  0  0
  140.2970   71.5230  225.1000 C   0  0  0  0  0  0  0  0  0  0  0  0
  141.1840   71.1430  221.7270 N   0  0  0  0  0  0  0  0  0  0  0  0
  143.9630   70.8000  219.9410 C   0  0  0  0  0  0  0  0  0  0  0  0
  145.8455   66.3554  217.6029 H   0  0  0  0  0  0  0  0  0  0  0  0
  147.4044   67.9854  218.6483 H   0  0  0  0  0  0  0  0  0  0  0  0
  146.4710   70.0307  219.7193 H   0  0  0  0  0  0  0  0  0  0  0  0
  143.3840   66.7596  217.6240 H   0  0  0  0  0  0  0  0  0  0  0  0
  141.6927   68.3268  217.7819 H   0  0  0  0  0  0  0  0  0  0  0  0
  141.6613   68.3713  219.5660 H   0  0  0  0  0  0  0  0  0  0  0  0
  142.1879   70.7223  217.6657 H   0  0  0  0  0  0  0  0  0  0  0  0
  140.7535   70.4954  218.6997 H   0  0  0  0  0  0  0  0  0  0  0  0
  142.5848   75.6296  220.2273 H   0  0  0  0  0  0  0  0  0  0  0  0
  141.1636   75.9477  219.2384 H   0  0  0  0  0  0  0  0  0  0  0  0
  141.8002   77.3788  221.9169 H   0  0  0  0  0  0  0  0  0  0  0  0
  142.1522   78.0646  220.2785 H   0  0  0  0  0  0  0  0  0  0  0  0
  139.6657   79.8792  221.1356 H   0  0  0  0  0  0  0  0  0  0  0  0
  139.1287   78.5699  222.3624 H   0  0  0  0  0  0  0  0  0  0  0  0
  141.2819   78.4203  223.1345 H   0  0  0  0  0  0  0  0  0  0  0  0
  142.2824   79.6016  220.9460 H   0  0  0  0  0  0  0  0  0  0  0  0
  141.7688   81.1497  221.6920 H   0  0  0  0  0  0  0  0  0  0  0  0
  143.7516   79.1152  222.8119 H   0  0  0  0  0  0  0  0  0  0  0  0
  144.1115   80.7690  222.2551 H   0  0  0  0  0  0  0  0  0  0  0  0
  143.7360   81.2180  224.4550 H   0  0  0  0  0  0  0  0  0  0  0  0
  141.5551   81.7487  225.0335 H   0  0  0  0  0  0  0  0  0  0  0  0
  141.6935   82.0355  223.2517 H   0  0  0  0  0  0  0  0  0  0  0  0
  140.4218   79.6866  224.7028 H   0  0  0  0  0  0  0  0  0  0  0  0
  139.6782   80.8223  223.5242 H   0  0  0  0  0  0  0  0  0  0  0  0
  138.2535   77.3537  221.4269 H   0  0  0  0  0  0  0  0  0  0  0  0
  138.9003   76.4340  220.0456 H   0  0  0  0  0  0  0  0  0  0  0  0
  140.2111   76.4011  222.8251 H   0  0  0  0  0  0  0  0  0  0  0  0
  138.9835   75.2210  222.3699 H   0  0  0  0  0  0  0  0  0  0  0  0
  137.8948   71.0921  223.0252 H   0  0  0  0  0  0  0  0  0  0  0  0
  138.9645   69.6244  222.9264 H   0  0  0  0  0  0  0  0  0  0  0  0
  137.5480   70.7810  225.3292 H   0  0  0  0  0  0  0  0  0  0  0  0
  137.4150   69.1308  224.5810 H   0  0  0  0  0  0  0  0  0  0  0  0
  138.1118   67.6316  226.2964 H   0  0  0  0  0  0  0  0  0  0  0  0
  139.9533   66.9228  227.7752 H   0  0  0  0  0  0  0  0  0  0  0  0
  141.9871   68.3138  228.0479 H   0  0  0  0  0  0  0  0  0  0  0  0
  142.1768   70.4602  226.8200 H   0  0  0  0  0  0  0  0  0  0  0  0
  139.6449   72.2589  225.5932 H   0  0  0  0  0  0  0  0  0  0  0  0
  141.3327   71.8915  225.0617 H   0  0  0  0  0  0  0  0  0  0  0  0
  144.4821   71.6680  219.5083 H   0  0  0  0  0  0  0  0  0  0  0  0
  144.1774   70.7609  221.0192 H   0  0  0  0  0  0  0  0  0  0  0  0
  1  2  2  0
  2  3  1  0
  3  4  2  0
  4  5  1  0
  5  6  2  0
  5  7  1  0
  7  8  1  0
  8  9  1  0
  9 10  1  0
 10 11  2  0
 11 12  1  0
 12 13  1  0
 13 14  1  0
 14 15  1  0
 15 16  1  0
 16 17  1  0
 17 18  1  0
 18 19  1  0
 19 20  1  0
 20 21  1  0
 21 22  1  0
 22 23  1  0
 16 24  1  0
 24 25  1  0
 12 26  2  0
 26 27  1  0
 27 28  1  0
 28 29  1  0
 29 30  1  0
 30 31  1  0
 31 32  2  0
 32 33  1  0
 33 34  2  0
 34 35  1  0
 35 36  2  0
 36 37  1  0
 27 38  2  0
  9 39  1  0
  6  1  1  0
 38 10  1  0
 39  4  1  0
 25 13  1  0
 37 28  1  0
 23 18  1  0
 36 31  1  0
  1 40  1  0
  2 41  1  0
  3 42  1  0
  6 43  1  0
  7 44  1  0
  7 45  1  0
  8 46  1  0
  8 47  1  0
 14 48  1  0
 14 49  1  0
 15 50  1  0
 15 51  1  0
 17 52  1  0
 17 53  1  0
 18 54  1  0
 19 55  1  0
 19 56  1  0
 20 57  1  0
 20 58  1  0
 21 59  1  0
 22 60  1  0
 22 61  1  0
 23 62  1  0
 23 63  1  0
 24 64  1  0
 24 65  1  0
 25 66  1  0
 25 67  1  0
 29 68  1  0
 29 69  1  0
 30 70  1  0
 30 71  1  0
 32 72  1  0
 33 73  1  0
 34 74  1  0
 35 75  1  0
 37 76  1  0
 37 77  1  0
 39 78  1  0
 39 79  1  0
M  END
>  <smiles>  (4) 
c1ccc2c(c1)CCN(c1nc(N3CCN(CC4CCNCC4)CC3)nc(N3CCc4ccccc4C3)n1)C2

>  <score_type>  (4) 
oracle

>  <origin>  (4) 
autodockgpu

>  <m_score__min__energy>  (4) 
-10.470000000000001

>  <m_primary>  (4) 
energy

>  <rmsd>  (4) 
3.2830542480302136

>  <m_score__min__rmsd>  (4) 
3.2830542480302136

>  <meeko>  (4) 
{"free_energy": -9.91, "intermolecular_energy": -11.4, "internal_energy": -1.11, "cluster_size": 32, "cluster_id": 3, "rank_in_cluster": 4}

>  <energy>  (4) 
-10.19

>  <cluster_rmsd>  (4) 
1.17

>  <cluster>  (4) 
1

$$$$

     RDKit          3D

 79 85  0  0  0  0  0  0  0  0999 V2000
  138.2290   80.1190  223.2060 C   0  0  0  0  0  0  0  0  0  0  0  0
  137.1250   79.2970  223.0850 C   0  0  0  0  0  0  0  0  0  0  0  0
  137.3310   77.9700  222.7120 C   0  0  0  0  0  0  0  0  0  0  0  0
  138.5880   77.4590  222.4650 C   0  0  0  0  0  0  0  0  0  0  0  0
  139.6540   78.3190  222.5990 C   0  0  0  0  0  0  0  0  0  0  0  0
  139.5120   79.6460  222.9660 C   0  0  0  0  0  0  0  0  0  0  0  0
  141.0590   77.8600  222.3500 C   0  0  0  0  0  0  0  0  0  0  0  0
  141.0170   76.7820  221.2880 C   0  0  0  0  0  0  0  0  0  0  0  0
  140.0790   75.7690  221.7290 N   0  0  0  0  0  0  0  0  0  0  0  0
  140.5470   74.4220  221.8230 C   0  0  0  0  0  0  0  0  0  0  0  0
  141.6180   73.9870  221.0980 N   0  0  0  0  0  0  0  0  0  0  0  0
  142.0590   72.7370  221.1810 C   0  0  0  0  0  0  0  0  0  0  0  0
  143.1650   72.2680  220.4390 N   0  0  0  0  0  0  0  0  0  0  0  0
  144.5100   72.7920  220.5890 C   0  0  0  0  0  0  0  0  0  0  0  0
  145.1970   72.4800  219.2380 C   0  0  0  0  0  0  0  0  0  0  0  0
  145.3610   71.0860  219.0510 N   0  0  0  0  0  0  0  0  0  0  0  0
  145.5070   70.6970  217.7040 C   0  0  0  0  0  0  0  0  0  0  0  0
  146.2830   69.4740  217.3840 C   0  0  0  0  0  0  0  0  0  0  0  0
  145.4220   68.2420  217.7360 C   0  0  0  0  0  0  0  0  0  0  0  0
  146.3110   67.0340  217.8440 C   0  0  0  0  0  0  0  0  0  0  0  0
  147.1060   66.9690  216.6300 N   0  0  0  0  0  0  0  0  0  0  0  0
  146.5850   67.8120  215.5940 C   0  0  0  0  0  0  0  0  0  0  0  0
  146.7030   69.2800  215.9660 C   0  0  0  0  0  0  0  0  0  0  0  0
  144.2400   70.3380  219.6100 C   0  0  0  0  0  0  0  0  0  0  0  0
  143.0010   71.1970  219.4570 C   0  0  0  0  0  0  0  0  0  0  0  0
  141.4220   71.8930  222.0030 N   0  0  0  0  0  0  0  0  0  0  0  0
  140.3760   72.2480  222.7350 C   0  0  0  0  0  0  0  0  0  0  0  0
  139.7640   71.2810  223.5800 N   0  0  0  0  0  0  0  0  0  0  0  0
  139.2250   70.0900  222.9720 C   0  0  0  0  0  0  0  0  0  0  0  0
  138.6040   69.1570  223.9810 C   0  0  0  0  0  0  0  0  0  0  0  0
  139.4500   68.9960  225.1880 C   0  0  0  0  0  0  0  0  0  0  0  0
  139.6950   67.7630  225.7580 C   0  0  0  0  0  0  0  0  0  0  0  0
  140.4880   67.7220  226.8660 C   0  0  0  0  0  0  0  0  0  0  0  0
  141.0410   68.8700  227.4170 C   0  0  0  0  0  0  0  0  0  0  0  0
  140.7800   70.0890  226.8270 C   0  0  0  0  0  0  0  0  0  0  0  0
  139.9900   70.1720  225.7170 C   0  0  0  0  0  0  0  0  0  0  0  0
  139.6560   71.4370  225.0180 C   0  0  0  0  0  0  0  0  0  0  0  0
  139.9430   73.5190  222.6400 N   0  0  0  0  0  0  0  0  0  0  0  0
  138.7050   76.0360  222.0750 C   0  0  0  0  0  0  0  0  0  0  0  0
  138.0884   81.1700  223.4985 H   0  0  0  0  0  0  0  0  0  0  0  0
  136.1117   79.6793  223.2777 H   0  0  0  0  0  0  0  0  0  0  0  0
  136.4596   77.3063  222.6110 H   0  0  0  0  0  0  0  0  0  0  0  0
  140.3875   80.3046  223.0644 H   0  0  0  0  0  0  0  0  0  0  0  0
  141.6714   78.7045  222.0009 H   0  0  0  0  0  0  0  0  0  0  0  0
  141.5027   77.4669  223.2766 H   0  0  0  0  0  0  0  0  0  0  0  0
  140.6839   77.2107  220.3313 H   0  0  0  0  0  0  0  0  0  0  0  0
  142.0159   76.3457  221.1406 H   0  0  0  0  0  0  0  0  0  0  0  0
  144.4871   73.8763  220.7729 H   0  0  0  0  0  0  0  0  0  0  0  0
  145.0412   72.3458  221.4426 H   0  0  0  0  0  0  0  0  0  0  0  0
  144.5784   72.8803  218.4212 H   0  0  0  0  0  0  0  0  0  0  0  0
  146.1923   72.9483  219.2397 H   0  0  0  0  0  0  0  0  0  0  0  0
  144.4944   70.5499  217.3004 H   0  0  0  0  0  0  0  0  0  0  0  0
  146.1028   71.5084  217.2605 H   0  0  0  0  0  0  0  0  0  0  0  0
  147.2064   69.5937  217.9696 H   0  0  0  0  0  0  0  0  0  0  0  0
  144.9123   68.4111  218.6960 H   0  0  0  0  0  0  0  0  0  0  0  0
  144.6699   68.0791  216.9500 H   0  0  0  0  0  0  0  0  0  0  0  0
  146.9696   67.1291  218.7199 H   0  0  0  0  0  0  0  0  0  0  0  0
  145.7109   66.1200  217.9643 H   0  0  0  0  0  0  0  0  0  0  0  0
  147.2790   66.0080  216.3170 H   0  0  0  0  0  0  0  0  0  0  0  0
  147.1488   67.6307  214.6670 H   0  0  0  0  0  0  0  0  0  0  0  0
  145.5203   67.5735  215.4546 H   0  0  0  0  0  0  0  0  0  0  0  0
  147.7470   69.6049  215.8461 H   0  0  0  0  0  0  0  0  0  0  0  0
  146.0531   69.8761  215.3085 H   0  0  0  0  0  0  0  0  0  0  0  0
  144.1107   69.3912  219.0652 H   0  0  0  0  0  0  0  0  0  0  0  0
  144.4204   70.1014  220.6690 H   0  0  0  0  0  0  0  0  0  0  0  0
  142.9394   71.6104  218.4395 H   0  0  0  0  0  0  0  0  0  0  0  0
  142.0761   70.6239  219.6184 H   0  0  0  0  0  0  0  0  0  0  0  0
  138.4557   70.3835  222.2426 H   0  0  0  0  0  0  0  0  0  0  0  0
  140.0565   69.5552  222.4897 H   0  0  0  0  0  0  0  0  0  0  0  0
  137.6272   69.5620  224.2842 H   0  0  0  0  0  0  0  0  0  0  0  0
  138.4979   68.1695  223.5081 H   0  0  0  0  0  0  0  0  0  0  0  0
  139.2648   66.8444  225.3325 H   0  0  0  0  0  0  0  0  0  0  0  0
  140.6960   66.7502  227.3376 H   0  0  0  0  0  0  0  0  0  0  0  0
  141.6783   68.8083  228.3115 H   0  0  0  0  0  0  0  0  0  0  0  0
  141.2133   71.0046  227.2558 H   0  0  0  0  0  0  0  0  0  0  0  0
  138.6257   71.7270  225.2719 H   0  0  0  0  0  0  0  0  0  0  0  0
  140.3656   72.2132  225.3404 H   0  0  0  0  0  0  0  0  0  0  0  0
  138.0580   75.8341  221.2086 H   0  0  0  0  0  0  0  0  0  0  0  0
  138.3933   75.3894  222.9085 H   0  0  0  0  0  0  0  0  0  0  0  0
  1  2  2  0
  2  3  1  0
  3  4  2  0
  4  5  1  0
  5  6  2  0
  5  7  1  0
  7  8  1  0
  8  9  1  0
  9 10  1  0
 10 11  2  0
 11 12  1  0
 12 13  1  0
 13 14  1  0
 14 15  1  0
 15 16  1  0
 16 17  1  0
 17 18  1  0
 18 19  1  0
 19 20  1  0
 20 21  1  0
 21 22  1  0
 22 23  1  0
 16 24  1  0
 24 25  1  0
 12 26  2  0
 26 27  1  0
 27 28  1  0
 28 29  1  0
 29 30  1  0
 30 31  1  0
 31 32  2  0
 32 33  1  0
 33 34  2  0
 34 35  1  0
 35 36  2  0
 36 37  1  0
 27 38  2  0
  9 39  1  0
  6  1  1  0
 38 10  1  0
 39  4  1  0
 25 13  1  0
 37 28  1  0
 23 18  1  0
 36 31  1  0
  1 40  1  0
  2 41  1  0
  3 42  1  0
  6 43  1  0
  7 44  1  0
  7 45  1  0
  8 46  1  0
  8 47  1  0
 14 48  1  0
 14 49  1  0
 15 50  1  0
 15 51  1  0
 17 52  1  0
 17 53  1  0
 18 54  1  0
 19 55  1  0
 19 56  1  0
 20 57  1  0
 20 58  1  0
 21 59  1  0
 22 60  1  0
 22 61  1  0
 23 62  1  0
 23 63  1  0
 24 64  1  0
 24 65  1  0
 25 66  1  0
 25 67  1  0
 29 68  1  0
 29 69  1  0
 30 70  1  0
 30 71  1  0
 32 72  1  0
 33 73  1  0
 34 74  1  0
 35 75  1  0
 37 76  1  0
 37 77  1  0
 39 78  1  0
 39 79  1  0
M  END
>  <smiles>  (5) 
c1ccc2c(c1)CCN(c1nc(N3CCN(CC4CCNCC4)CC3)nc(N3CCc4ccccc4C3)n1)C2

>  <score_type>  (5) 
oracle

>  <origin>  (5) 
autodockgpu

>  <m_score__min__energy>  (5) 
-10.470000000000001

>  <m_primary>  (5) 
energy

>  <rmsd>  (5) 
11.253673838383564

>  <m_score__min__rmsd>  (5) 
11.253673838383564

>  <meeko>  (5) 
{"free_energy": -10.17, "intermolecular_energy": -11.66, "internal_energy": -1.1, "cluster_size": 7, "cluster_id": 2, "rank_in_cluster": 3}

>  <energy>  (5) 
-10.11

>  <cluster_rmsd>  (5) 
1.09

>  <cluster>  (5) 
1

$$$$

     RDKit          3D

 79 85  0  0  0  0  0  0  0  0999 V2000
  146.3160   70.3630  216.8150 C   0  0  0  0  0  0  0  0  0  0  0  0
  146.2290   69.5500  217.9290 C   0  0  0  0  0  0  0  0  0  0  0  0
  145.4670   69.9930  219.0090 C   0  0  0  0  0  0  0  0  0  0  0  0
  144.8060   71.2040  218.9980 C   0  0  0  0  0  0  0  0  0  0  0  0
  144.9250   71.9750  217.8660 C   0  0  0  0  0  0  0  0  0  0  0  0
  145.6660   71.5890  216.7630 C   0  0  0  0  0  0  0  0  0  0  0  0
  144.2450   73.3080  217.7580 C   0  0  0  0  0  0  0  0  0  0  0  0
  144.1760   73.9100  219.1450 C   0  0  0  0  0  0  0  0  0  0  0  0
  143.5470   72.9370  220.0140 N   0  0  0  0  0  0  0  0  0  0  0  0
  142.3850   73.3430  220.7410 C   0  0  0  0  0  0  0  0  0  0  0  0
  141.5810   72.4340  221.3650 N   0  0  0  0  0  0  0  0  0  0  0  0
  140.5010   72.8040  222.0430 C   0  0  0  0  0  0  0  0  0  0  0  0
  139.6570   71.8780  222.6950 N   0  0  0  0  0  0  0  0  0  0  0  0
  138.2210   71.8230  222.4930 C   0  0  0  0  0  0  0  0  0  0  0  0
  137.6750   71.1700  223.7850 C   0  0  0  0  0  0  0  0  0  0  0  0
  138.0860   69.8190  223.8950 N   0  0  0  0  0  0  0  0  0  0  0  0
  138.0650   69.3140  225.2110 C   0  0  0  0  0  0  0  0  0  0  0  0
  139.3490   69.0660  225.9110 C   0  0  0  0  0  0  0  0  0  0  0  0
  139.6340   70.2590  226.8480 C   0  0  0  0  0  0  0  0  0  0  0  0
  141.0900   70.2550  227.2220 C   0  0  0  0  0  0  0  0  0  0  0  0
  141.4100   68.9270  227.7140 N   0  0  0  0  0  0  0  0  0  0  0  0
  140.2360   68.1640  228.0220 C   0  0  0  0  0  0  0  0  0  0  0  0
  139.4380   67.8490  226.7680 C   0  0  0  0  0  0  0  0  0  0  0  0
  139.4330   69.6270  223.3670 C   0  0  0  0  0  0  0  0  0  0  0  0
  140.2090   70.9010  223.6330 C   0  0  0  0  0  0  0  0  0  0  0  0
  140.2070   74.1090  222.1050 N   0  0  0  0  0  0  0  0  0  0  0  0
  140.9430   75.0450  221.5230 C   0  0  0  0  0  0  0  0  0  0  0  0
  140.5500   76.4070  221.6440 N   0  0  0  0  0  0  0  0  0  0  0  0
  139.3390   76.7040  222.3680 C   0  0  0  0  0  0  0  0  0  0  0  0
  139.0430   78.1820  222.4130 C   0  0  0  0  0  0  0  0  0  0  0  0
  140.2500   78.9850  222.7230 C   0  0  0  0  0  0  0  0  0  0  0  0
  140.2350   80.0190  223.6370 C   0  0  0  0  0  0  0  0  0  0  0  0
  141.3990   80.6950  223.8520 C   0  0  0  0  0  0  0  0  0  0  0  0
  142.5710   80.3700  223.1830 C   0  0  0  0  0  0  0  0  0  0  0  0
  142.5590   79.3330  222.2750 C   0  0  0  0  0  0  0  0  0  0  0  0
  141.4130   78.6320  222.0320 C   0  0  0  0  0  0  0  0  0  0  0  0
  141.3070   77.5050  221.0730 C   0  0  0  0  0  0  0  0  0  0  0  0
  142.0350   74.6520  220.8410 N   0  0  0  0  0  0  0  0  0  0  0  0
  144.0220   71.5860  220.1940 C   0  0  0  0  0  0  0  0  0  0  0  0
  146.9123   70.0323  215.9518 H   0  0  0  0  0  0  0  0  0  0  0  0
  146.7468   68.5801  217.9626 H   0  0  0  0  0  0  0  0  0  0  0  0
  145.3900   69.3545  219.9014 H   0  0  0  0  0  0  0  0  0  0  0  0
  145.7378   72.2325  215.8738 H   0  0  0  0  0  0  0  0  0  0  0  0
  144.8206   73.9681  217.0925 H   0  0  0  0  0  0  0  0  0  0  0  0
  143.2338   73.1892  217.3416 H   0  0  0  0  0  0  0  0  0  0  0  0
  145.1900   74.1359  219.5067 H   0  0  0  0  0  0  0  0  0  0  0  0
  143.5986   74.8462  219.1315 H   0  0  0  0  0  0  0  0  0  0  0  0
  137.8073   72.8339  222.3630 H   0  0  0  0  0  0  0  0  0  0  0  0
  137.9461   71.2587  221.5897 H   0  0  0  0  0  0  0  0  0  0  0  0
  138.0494   71.7299  224.6547 H   0  0  0  0  0  0  0  0  0  0  0  0
  136.5759   71.1955  223.7479 H   0  0  0  0  0  0  0  0  0  0  0  0
  137.4993   70.0327  225.8221 H   0  0  0  0  0  0  0  0  0  0  0  0
  137.6295   68.3101  225.0993 H   0  0  0  0  0  0  0  0  0  0  0  0
  140.0673   68.9227  225.0903 H   0  0  0  0  0  0  0  0  0  0  0  0
  139.3890   71.1991  226.3321 H   0  0  0  0  0  0  0  0  0  0  0  0
  139.0184   70.1723  227.7555 H   0  0  0  0  0  0  0  0  0  0  0  0
  141.7050   70.4872  226.3401 H   0  0  0  0  0  0  0  0  0  0  0  0
  141.2945   71.0134  227.9921 H   0  0  0  0  0  0  0  0  0  0  0  0
  142.0940   68.9380  228.4790 H   0  0  0  0  0  0  0  0  0  0  0  0
  140.5371   67.2209  228.5015 H   0  0  0  0  0  0  0  0  0  0  0  0
  139.6025   68.7585  228.6967 H   0  0  0  0  0  0  0  0  0  0  0  0
  139.9375   67.0438  226.2092 H   0  0  0  0  0  0  0  0  0  0  0  0
  138.4249   67.5278  227.0516 H   0  0  0  0  0  0  0  0  0  0  0  0
  139.9178   68.7788  223.8726 H   0  0  0  0  0  0  0  0  0  0  0  0
  139.4007   69.4094  222.2892 H   0  0  0  0  0  0  0  0  0  0  0  0
  140.0621   71.2345  224.6709 H   0  0  0  0  0  0  0  0  0  0  0  0
  141.2920   70.7629  223.4989 H   0  0  0  0  0  0  0  0  0  0  0  0
  138.4992   76.1905  221.8771 H   0  0  0  0  0  0  0  0  0  0  0  0
  139.4741   76.3577  223.4033 H   0  0  0  0  0  0  0  0  0  0  0  0
  138.6511   78.4949  221.4340 H   0  0  0  0  0  0  0  0  0  0  0  0
  138.3074   78.3552  223.2123 H   0  0  0  0  0  0  0  0  0  0  0  0
  139.3139   80.2888  224.1744 H   0  0  0  0  0  0  0  0  0  0  0  0
  141.4099   81.5223  224.5769 H   0  0  0  0  0  0  0  0  0  0  0  0
  143.4967   80.9324  223.3748 H   0  0  0  0  0  0  0  0  0  0  0  0
  143.4829   79.0674  221.7403 H   0  0  0  0  0  0  0  0  0  0  0  0
  140.8013   77.8549  220.1610 H   0  0  0  0  0  0  0  0  0  0  0  0
  142.3205   77.1477  220.8382 H   0  0  0  0  0  0  0  0  0  0  0  0
  144.6594   71.5323  221.0889 H   0  0  0  0  0  0  0  0  0  0  0  0
  143.1718   70.9002  220.3239 H   0  0  0  0  0  0  0  0  0  0  0  0
  1  2  2  0
  2  3  1  0
  3  4  2  0
  4  5  1  0
  5  6  2  0
  5  7  1  0
  7  8  1  0
  8  9  1  0
  9 10  1  0
 10 11  2  0
 11 12  1  0
 12 13  1  0
 13 14  1  0
 14 15  1  0
 15 16  1  0
 16 17  1  0
 17 18  1  0
 18 19  1  0
 19 20  1  0
 20 21  1  0
 21 22  1  0
 22 23  1  0
 16 24  1  0
 24 25  1  0
 12 26  2  0
 26 27  1  0
 27 28  1  0
 28 29  1  0
 29 30  1  0
 30 31  1  0
 31 32  2  0
 32 33  1  0
 33 34  2  0
 34 35  1  0
 35 36  2  0
 36 37  1  0
 27 38  2  0
  9 39  1  0
  6  1  1  0
 38 10  1  0
 39  4  1  0
 25 13  1  0
 37 28  1  0
 23 18  1  0
 36 31  1  0
  1 40  1  0
  2 41  1  0
  3 42  1  0
  6 43  1  0
  7 44  1  0
  7 45  1  0
  8 46  1  0
  8 47  1  0
 14 48  1  0
 14 49  1  0
 15 50  1  0
 15 51  1  0
 17 52  1  0
 17 53  1  0
 18 54  1  0
 19 55  1  0
 19 56  1  0
 20 57  1  0
 20 58  1  0
 21 59  1  0
 22 60  1  0
 22 61  1  0
 23 62  1  0
 23 63  1  0
 24 64  1  0
 24 65  1  0
 25 66  1  0
 25 67  1  0
 29 68  1  0
 29 69  1  0
 30 70  1  0
 30 71  1  0
 32 72  1  0
 33 73  1  0
 34 74  1  0
 35 75  1  0
 37 76  1  0
 37 77  1  0
 39 78  1  0
 39 79  1  0
M  END
>  <smiles>  (6) 
c1ccc2c(c1)CCN(c1nc(N3CCN(CC4CCNCC4)CC3)nc(N3CCc4ccccc4C3)n1)C2

>  <score_type>  (6) 
oracle

>  <origin>  (6) 
autodockgpu

>  <m_score__min__energy>  (6) 
-10.470000000000001

>  <m_primary>  (6) 
energy

>  <rmsd>  (6) 
10.595738009850074

>  <m_score__min__rmsd>  (6) 
10.595738009850074

>  <meeko>  (6) 
{"free_energy": -10.11, "intermolecular_energy": -11.6, "internal_energy": -1.26, "cluster_size": 9, "cluster_id": 1, "rank_in_cluster": 5}

>  <energy>  (6) 
-10.1

>  <cluster_rmsd>  (6) 
1.14

>  <cluster>  (6) 
1

$$$$

     RDKit          3D

 79 85  0  0  0  0  0  0  0  0999 V2000
  146.0800   68.3540  218.3030 C   0  0  0  0  0  0  0  0  0  0  0  0
  146.6840   69.5470  218.6520 C   0  0  0  0  0  0  0  0  0  0  0  0
  145.8900   70.5470  219.2100 C   0  0  0  0  0  0  0  0  0  0  0  0
  144.5370   70.3840  219.4210 C   0  0  0  0  0  0  0  0  0  0  0  0
  143.9850   69.1780  219.0560 C   0  0  0  0  0  0  0  0  0  0  0  0
  144.7210   68.1480  218.4990 C   0  0  0  0  0  0  0  0  0  0  0  0
  142.5220   68.9040  219.2440 C   0  0  0  0  0  0  0  0  0  0  0  0
  141.7780   70.2140  219.0950 C   0  0  0  0  0  0  0  0  0  0  0  0
  142.3770   71.1640  220.0100 N   0  0  0  0  0  0  0  0  0  0  0  0
  141.5220   71.8060  220.9600 C   0  0  0  0  0  0  0  0  0  0  0  0
  141.1860   73.1220  220.8400 N   0  0  0  0  0  0  0  0  0  0  0  0
  140.3920   73.7250  221.7170 C   0  0  0  0  0  0  0  0  0  0  0  0
  140.0320   75.0860  221.6110 N   0  0  0  0  0  0  0  0  0  0  0  0
  138.7380   75.5380  221.1360 C   0  0  0  0  0  0  0  0  0  0  0  0
  139.0000   76.9680  220.6050 C   0  0  0  0  0  0  0  0  0  0  0  0
  139.3390   77.8550  221.6550 N   0  0  0  0  0  0  0  0  0  0  0  0
  140.0530   78.9980  221.2390 C   0  0  0  0  0  0  0  0  0  0  0  0
  140.6240   79.9060  222.2620 C   0  0  0  0  0  0  0  0  0  0  0  0
  142.1440   79.6520  222.3480 C   0  0  0  0  0  0  0  0  0  0  0  0
  142.6660   80.2140  223.6420 C   0  0  0  0  0  0  0  0  0  0  0  0
  142.2120   81.5910  223.7320 N   0  0  0  0  0  0  0  0  0  0  0  0
  141.7380   82.0910  222.4750 C   0  0  0  0  0  0  0  0  0  0  0  0
  140.4730   81.3730  222.0370 C   0  0  0  0  0  0  0  0  0  0  0  0
  140.1320   77.1870  222.6820 C   0  0  0  0  0  0  0  0  0  0  0  0
  140.9780   76.1360  221.9890 C   0  0  0  0  0  0  0  0  0  0  0  0
  139.9170   73.0050  222.7420 N   0  0  0  0  0  0  0  0  0  0  0  0
  140.2030   71.7230  222.9190 C   0  0  0  0  0  0  0  0  0  0  0  0
  139.6530   71.0400  224.0390 N   0  0  0  0  0  0  0  0  0  0  0  0
  138.9240   69.8190  223.8010 C   0  0  0  0  0  0  0  0  0  0  0  0
  138.3940   69.2070  225.0730 C   0  0  0  0  0  0  0  0  0  0  0  0
  139.4030   69.2090  226.1580 C   0  0  0  0  0  0  0  0  0  0  0  0
  139.6290   68.1090  226.9590 C   0  0  0  0  0  0  0  0  0  0  0  0
  140.5810   68.2130  227.9290 C   0  0  0  0  0  0  0  0  0  0  0  0
  141.3100   69.3790  228.1200 C   0  0  0  0  0  0  0  0  0  0  0  0
  141.0640   70.4640  227.3060 C   0  0  0  0  0  0  0  0  0  0  0  0
  140.1190   70.3990  226.3230 C   0  0  0  0  0  0  0  0  0  0  0  0
  139.7870   71.5150  225.4030 C   0  0  0  0  0  0  0  0  0  0  0  0
  141.0090   71.1280  222.0200 N   0  0  0  0  0  0  0  0  0  0  0  0
  143.7780   71.5050  220.0200 C   0  0  0  0  0  0  0  0  0  0  0  0
  146.6884   67.5512  217.8609 H   0  0  0  0  0  0  0  0  0  0  0  0
  147.7613   69.7028  218.4937 H   0  0  0  0  0  0  0  0  0  0  0  0
  146.3594   71.5009  219.4924 H   0  0  0  0  0  0  0  0  0  0  0  0
  144.2450   67.1963  218.2203 H   0  0  0  0  0  0  0  0  0  0  0  0
  142.1753   68.1891  218.4833 H   0  0  0  0  0  0  0  0  0  0  0  0
  142.3389   68.4714  220.2387 H   0  0  0  0  0  0  0  0  0  0  0  0
  141.8673   70.5807  218.0618 H   0  0  0  0  0  0  0  0  0  0  0  0
  140.7100   70.0798  219.3216 H   0  0  0  0  0  0  0  0  0  0  0  0
  138.3694   74.8854  220.3309 H   0  0  0  0  0  0  0  0  0  0  0  0
  137.9717   75.5179  221.9249 H   0  0  0  0  0  0  0  0  0  0  0  0
  139.8289   76.9352  219.8826 H   0  0  0  0  0  0  0  0  0  0  0  0
  138.0794   77.3337  220.1266 H   0  0  0  0  0  0  0  0  0  0  0  0
  140.8903   78.6457  220.6187 H   0  0  0  0  0  0  0  0  0  0  0  0
  139.2917   79.6141  220.7381 H   0  0  0  0  0  0  0  0  0  0  0  0
  140.0485   79.6679  223.1687 H   0  0  0  0  0  0  0  0  0  0  0  0
  142.3390   78.5701  222.3113 H   0  0  0  0  0  0  0  0  0  0  0  0
  142.6492   80.1407  221.5019 H   0  0  0  0  0  0  0  0  0  0  0  0
  142.2741   79.6327  224.4896 H   0  0  0  0  0  0  0  0  0  0  0  0
  143.7645   80.1644  223.6719 H   0  0  0  0  0  0  0  0  0  0  0  0
  142.8980   82.2090  224.1780 H   0  0  0  0  0  0  0  0  0  0  0  0
  141.5240   83.1654  222.5744 H   0  0  0  0  0  0  0  0  0  0  0  0
  142.5159   81.9176  221.7168 H   0  0  0  0  0  0  0  0  0  0  0  0
  139.6194   81.7466  222.6216 H   0  0  0  0  0  0  0  0  0  0  0  0
  140.2989   81.5615  220.9673 H   0  0  0  0  0  0  0  0  0  0  0  0
  140.7800   77.9162  223.1903 H   0  0  0  0  0  0  0  0  0  0  0  0
  139.4795   76.7246  223.4373 H   0  0  0  0  0  0  0  0  0  0  0  0
  141.4662   76.5572  221.0978 H   0  0  0  0  0  0  0  0  0  0  0  0
  141.7827   75.7571  222.6362 H   0  0  0  0  0  0  0  0  0  0  0  0
  138.0765   70.0380  223.1348 H   0  0  0  0  0  0  0  0  0  0  0  0
  139.6189   69.0974  223.3466 H   0  0  0  0  0  0  0  0  0  0  0  0
  137.5167   69.7821  225.4041 H   0  0  0  0  0  0  0  0  0  0  0  0
  138.1297   68.1608  224.8597 H   0  0  0  0  0  0  0  0  0  0  0  0
  139.0596   67.1783  226.8195 H   0  0  0  0  0  0  0  0  0  0  0  0
  140.7774   67.3479  228.5794 H   0  0  0  0  0  0  0  0  0  0  0  0
  142.0734   69.4363  228.9099 H   0  0  0  0  0  0  0  0  0  0  0  0
  141.6356   71.3927  227.4502 H   0  0  0  0  0  0  0  0  0  0  0  0
  138.8381   71.9725  225.7197 H   0  0  0  0  0  0  0  0  0  0  0  0
  140.6012   72.2538  225.4391 H   0  0  0  0  0  0  0  0  0  0  0  0
  143.9416   72.4203  219.4322 H   0  0  0  0  0  0  0  0  0  0  0  0
  144.1163   71.6813  221.0517 H   0  0  0  0  0  0  0  0  0  0  0  0
  1  2  2  0
  2  3  1  0
  3  4  2  0
  4  5  1  0
  5  6  2  0
  5  7  1  0
  7  8  1  0
  8  9  1  0
  9 10  1  0
 10 11  2  0
 11 12  1  0
 12 13  1  0
 13 14  1  0
 14 15  1  0
 15 16  1  0
 16 17  1  0
 17 18  1  0
 18 19  1  0
 19 20  1  0
 20 21  1  0
 21 22  1  0
 22 23  1  0
 16 24  1  0
 24 25  1  0
 12 26  2  0
 26 27  1  0
 27 28  1  0
 28 29  1  0
 29 30  1  0
 30 31  1  0
 31 32  2  0
 32 33  1  0
 33 34  2  0
 34 35  1  0
 35 36  2  0
 36 37  1  0
 27 38  2  0
  9 39  1  0
  6  1  1  0
 38 10  1  0
 39  4  1  0
 25 13  1  0
 37 28  1  0
 23 18  1  0
 36 31  1  0
  1 40  1  0
  2 41  1  0
  3 42  1  0
  6 43  1  0
  7 44  1  0
  7 45  1  0
  8 46  1  0
  8 47  1  0
 14 48  1  0
 14 49  1  0
 15 50  1  0
 15 51  1  0
 17 52  1  0
 17 53  1  0
 18 54  1  0
 19 55  1  0
 19 56  1  0
 20 57  1  0
 20 58  1  0
 21 59  1  0
 22 60  1  0
 22 61  1  0
 23 62  1  0
 23 63  1  0
 24 64  1  0
 24 65  1  0
 25 66  1  0
 25 67  1  0
 29 68  1  0
 29 69  1  0
 30 70  1  0
 30 71  1  0
 32 72  1  0
 33 73  1  0
 34 74  1  0
 35 75  1  0
 37 76  1  0
 37 77  1  0
 39 78  1  0
 39 79  1  0
M  END
>  <smiles>  (7) 
c1ccc2c(c1)CCN(c1nc(N3CCN(CC4CCNCC4)CC3)nc(N3CCc4ccccc4C3)n1)C2

>  <score_type>  (7) 
oracle

>  <origin>  (7) 
autodockgpu

>  <m_score__min__energy>  (7) 
-10.470000000000001

>  <m_primary>  (7) 
energy

>  <rmsd>  (7) 
3.720626155624274

>  <m_score__min__rmsd>  (7) 
3.720626155624274

>  <meeko>  (7) 
{"free_energy": -9.69, "intermolecular_energy": -11.18, "internal_energy": -1.18, "cluster_size": 32, "cluster_id": 3, "rank_in_cluster": 12}

>  <energy>  (7) 
-10.09

>  <cluster_rmsd>  (7) 
1.24

>  <cluster>  (7) 
1

$$$$

     RDKit          3D

 79 85  0  0  0  0  0  0  0  0999 V2000
  145.4120   67.2120  218.0320 C   0  0  0  0  0  0  0  0  0  0  0  0
  146.2640   68.1970  218.4940 C   0  0  0  0  0  0  0  0  0  0  0  0
  145.7020   69.3350  219.0710 C   0  0  0  0  0  0  0  0  0  0  0  0
  144.3380   69.5040  219.1920 C   0  0  0  0  0  0  0  0  0  0  0  0
  143.5340   68.4950  218.7160 C   0  0  0  0  0  0  0  0  0  0  0  0
  144.0340   67.3420  218.1340 C   0  0  0  0  0  0  0  0  0  0  0  0
  142.0400   68.5860  218.8000 C   0  0  0  0  0  0  0  0  0  0  0  0
  141.6540   70.0460  218.6950 C   0  0  0  0  0  0  0  0  0  0  0  0
  142.4000   70.7690  219.7050 N   0  0  0  0  0  0  0  0  0  0  0  0
  141.6620   71.5550  220.6440 C   0  0  0  0  0  0  0  0  0  0  0  0
  141.5320   72.9050  220.4960 N   0  0  0  0  0  0  0  0  0  0  0  0
  140.8480   73.6420  221.3640 C   0  0  0  0  0  0  0  0  0  0  0  0
  140.7010   75.0400  221.2280 N   0  0  0  0  0  0  0  0  0  0  0  0
  141.5470   75.8550  220.3770 C   0  0  0  0  0  0  0  0  0  0  0  0
  141.4640   77.2720  220.9950 C   0  0  0  0  0  0  0  0  0  0  0  0
  140.1650   77.8190  220.8600 N   0  0  0  0  0  0  0  0  0  0  0  0
  139.8680   78.8390  221.7880 C   0  0  0  0  0  0  0  0  0  0  0  0
  140.9260   79.2980  222.7210 C   0  0  0  0  0  0  0  0  0  0  0  0
  142.0090   80.0360  221.9070 C   0  0  0  0  0  0  0  0  0  0  0  0
  143.2690   80.1180  222.7240 C   0  0  0  0  0  0  0  0  0  0  0  0
  142.9120   80.6720  224.0180 N   0  0  0  0  0  0  0  0  0  0  0  0
  141.6130   81.2780  224.0110 C   0  0  0  0  0  0  0  0  0  0  0  0
  140.5220   80.2410  223.8030 C   0  0  0  0  0  0  0  0  0  0  0  0
  139.1370   76.7910  220.9870 C   0  0  0  0  0  0  0  0  0  0  0  0
  139.6550   75.7520  221.9620 C   0  0  0  0  0  0  0  0  0  0  0  0
  140.2770   73.0260  222.4070 N   0  0  0  0  0  0  0  0  0  0  0  0
  140.3640   71.7200  222.6120 C   0  0  0  0  0  0  0  0  0  0  0  0
  139.7240   71.1550  223.7510 N   0  0  0  0  0  0  0  0  0  0  0  0
  138.7290   70.1340  223.5350 C   0  0  0  0  0  0  0  0  0  0  0  0
  138.1320   69.6300  224.8250 C   0  0  0  0  0  0  0  0  0  0  0  0
  139.1640   69.3820  225.8590 C   0  0  0  0  0  0  0  0  0  0  0  0
  139.1710   68.2420  226.6370 C   0  0  0  0  0  0  0  0  0  0  0  0
  140.1650   68.1090  227.5600 C   0  0  0  0  0  0  0  0  0  0  0  0
  141.1460   69.0760  227.7280 C   0  0  0  0  0  0  0  0  0  0  0  0
  141.1150   70.2060  226.9380 C   0  0  0  0  0  0  0  0  0  0  0  0
  140.1360   70.3770  226.0020 C   0  0  0  0  0  0  0  0  0  0  0  0
  140.0240   71.5580  225.1120 C   0  0  0  0  0  0  0  0  0  0  0  0
  141.0610   70.9880  221.7220 N   0  0  0  0  0  0  0  0  0  0  0  0
  143.8380   70.7480  219.8190 C   0  0  0  0  0  0  0  0  0  0  0  0
  145.8349   66.3058  217.5737 H   0  0  0  0  0  0  0  0  0  0  0  0
  147.3551   68.0863  218.4089 H   0  0  0  0  0  0  0  0  0  0  0  0
  146.3697   70.1261  219.4429 H   0  0  0  0  0  0  0  0  0  0  0  0
  143.3606   66.5546  217.7645 H   0  0  0  0  0  0  0  0  0  0  0  0
  141.5844   68.0191  217.9747 H   0  0  0  0  0  0  0  0  0  0  0  0
  141.6842   68.1640  219.7515 H   0  0  0  0  0  0  0  0  0  0  0  0
  141.9062   70.4299  217.6955 H   0  0  0  0  0  0  0  0  0  0  0  0
  140.5722   70.1721  218.8490 H   0  0  0  0  0  0  0  0  0  0  0  0
  142.5829   75.4851  220.3891 H   0  0  0  0  0  0  0  0  0  0  0  0
  141.2253   75.8368  219.3252 H   0  0  0  0  0  0  0  0  0  0  0  0
  141.7178   77.2119  222.0636 H   0  0  0  0  0  0  0  0  0  0  0  0
  142.1715   77.9242  220.4620 H   0  0  0  0  0  0  0  0  0  0  0  0
  139.5470   79.7173  221.2087 H   0  0  0  0  0  0  0  0  0  0  0  0
  139.1167   78.3816  222.4485 H   0  0  0  0  0  0  0  0  0  0  0  0
  141.2518   78.3726  223.2185 H   0  0  0  0  0  0  0  0  0  0  0  0
  142.2090   79.4854  220.9760 H   0  0  0  0  0  0  0  0  0  0  0  0
  141.6606   81.0499  221.6608 H   0  0  0  0  0  0  0  0  0  0  0  0
  143.7009   79.1143  222.8509 H   0  0  0  0  0  0  0  0  0  0  0  0
  144.0162   80.7511  222.2232 H   0  0  0  0  0  0  0  0  0  0  0  0
  143.6390   81.2840  224.4050 H   0  0  0  0  0  0  0  0  0  0  0  0
  141.4481   81.7836  224.9739 H   0  0  0  0  0  0  0  0  0  0  0  0
  141.5702   81.9987  223.1811 H   0  0  0  0  0  0  0  0  0  0  0  0
  140.3666   79.6811  224.7370 H   0  0  0  0  0  0  0  0  0  0  0  0
  139.5882   80.7466  223.5162 H   0  0  0  0  0  0  0  0  0  0  0  0
  138.2062   77.2350  221.3696 H   0  0  0  0  0  0  0  0  0  0  0  0
  138.9210   76.3341  220.0100 H   0  0  0  0  0  0  0  0  0  0  0  0
  140.0709   76.2351  222.8585 H   0  0  0  0  0  0  0  0  0  0  0  0
  138.8597   75.0770  222.3112 H   0  0  0  0  0  0  0  0  0  0  0  0
  137.9238   70.5516  222.9127 H   0  0  0  0  0  0  0  0  0  0  0  0
  139.2224   69.2847  223.0398 H   0  0  0  0  0  0  0  0  0  0  0  0
  137.4232   70.3806  225.2046 H   0  0  0  0  0  0  0  0  0  0  0  0
  137.6284   68.6751  224.6141 H   0  0  0  0  0  0  0  0  0  0  0  0
  138.4001   67.4667  226.5162 H   0  0  0  0  0  0  0  0  0  0  0  0
  140.1903   67.2081  228.1907 H   0  0  0  0  0  0  0  0  0  0  0  0
  141.9371   68.9431  228.4806 H   0  0  0  0  0  0  0  0  0  0  0  0
  141.8880   70.9784  227.0635 H   0  0  0  0  0  0  0  0  0  0  0  0
  139.2188   72.2109  225.4799 H   0  0  0  0  0  0  0  0  0  0  0  0
  140.9851   72.0930  225.1160 H   0  0  0  0  0  0  0  0  0  0  0  0
  144.2644   71.6212  219.3035 H   0  0  0  0  0  0  0  0  0  0  0  0
  144.1338   70.7830  220.8779 H   0  0  0  0  0  0  0  0  0  0  0  0
  1  2  2  0
  2  3  1  0
  3  4  2  0
  4  5  1  0
  5  6  2  0
  5  7  1  0
  7  8  1  0
  8  9  1  0
  9 10  1  0
 10 11  2  0
 11 12  1  0
 12 13  1  0
 13 14  1  0
 14 15  1  0
 15 16  1  0
 16 17  1  0
 17 18  1  0
 18 19  1  0
 19 20  1  0
 20 21  1  0
 21 22  1  0
 22 23  1  0
 16 24  1  0
 24 25  1  0
 12 26  2  0
 26 27  1  0
 27 28  1  0
 28 29  1  0
 29 30  1  0
 30 31  1  0
 31 32  2  0
 32 33  1  0
 33 34  2  0
 34 35  1  0
 35 36  2  0
 36 37  1  0
 27 38  2  0
  9 39  1  0
  6  1  1  0
 38 10  1  0
 39  4  1  0
 25 13  1  0
 37 28  1  0
 23 18  1  0
 36 31  1  0
  1 40  1  0
  2 41  1  0
  3 42  1  0
  6 43  1  0
  7 44  1  0
  7 45  1  0
  8 46  1  0
  8 47  1  0
 14 48  1  0
 14 49  1  0
 15 50  1  0
 15 51  1  0
 17 52  1  0
 17 53  1  0
 18 54  1  0
 19 55  1  0
 19 56  1  0
 20 57  1  0
 20 58  1  0
 21 59  1  0
 22 60  1  0
 22 61  1  0
 23 62  1  0
 23 63  1  0
 24 64  1  0
 24 65  1  0
 25 66  1  0
 25 67  1  0
 29 68  1  0
 29 69  1  0
 30 70  1  0
 30 71  1  0
 32 72  1  0
 33 73  1  0
 34 74  1  0
 35 75  1  0
 37 76  1  0
 37 77  1  0
 39 78  1  0
 39 79  1  0
M  END
>  <smiles>  (8) 
c1ccc2c(c1)CCN(c1nc(N3CCN(CC4CCNCC4)CC3)nc(N3CCc4ccccc4C3)n1)C2

>  <score_type>  (8) 
oracle

>  <origin>  (8) 
autodockgpu

>  <m_score__min__energy>  (8) 
-10.470000000000001

>  <m_primary>  (8) 
energy

>  <rmsd>  (8) 
3.2552764184845002

>  <m_score__min__rmsd>  (8) 
3.2552764184845002

>  <meeko>  (8) 
{"free_energy": -9.87, "intermolecular_energy": -11.37, "internal_energy": -1.1, "cluster_size": 32, "cluster_id": 3, "rank_in_cluster": 9}

>  <energy>  (8) 
-10.06

>  <cluster_rmsd>  (8) 
1.05

>  <cluster>  (8) 
1

$$$$

     RDKit          3D

 79 85  0  0  0  0  0  0  0  0999 V2000
  142.1180   80.9420  222.3560 C   0  0  0  0  0  0  0  0  0  0  0  0
  141.7240   80.4450  223.5830 C   0  0  0  0  0  0  0  0  0  0  0  0
  141.3670   79.1000  223.6640 C   0  0  0  0  0  0  0  0  0  0  0  0
  141.3940   78.2620  222.5690 C   0  0  0  0  0  0  0  0  0  0  0  0
  141.7920   78.8060  221.3710 C   0  0  0  0  0  0  0  0  0  0  0  0
  142.1590   80.1330  221.2280 C   0  0  0  0  0  0  0  0  0  0  0  0
  141.8530   77.9770  220.1230 C   0  0  0  0  0  0  0  0  0  0  0  0
  140.7760   76.9170  220.2130 C   0  0  0  0  0  0  0  0  0  0  0  0
  140.9620   76.2100  221.4630 N   0  0  0  0  0  0  0  0  0  0  0  0
  141.1170   74.7900  221.4110 C   0  0  0  0  0  0  0  0  0  0  0  0
  140.3320   73.9600  222.1560 N   0  0  0  0  0  0  0  0  0  0  0  0
  140.4690   72.6400  222.1120 C   0  0  0  0  0  0  0  0  0  0  0  0
  139.6670   71.7630  222.8760 N   0  0  0  0  0  0  0  0  0  0  0  0
  138.2460   71.5760  222.6500 C   0  0  0  0  0  0  0  0  0  0  0  0
  137.7010   71.0840  224.0120 C   0  0  0  0  0  0  0  0  0  0  0  0
  138.1980   69.7980  224.3330 N   0  0  0  0  0  0  0  0  0  0  0  0
  138.1670   69.4930  225.7100 C   0  0  0  0  0  0  0  0  0  0  0  0
  139.4430   69.2590  226.4280 C   0  0  0  0  0  0  0  0  0  0  0  0
  139.5900   70.3330  227.5270 C   0  0  0  0  0  0  0  0  0  0  0  0
  141.0280   70.3990  227.9620 C   0  0  0  0  0  0  0  0  0  0  0  0
  141.4460   69.0460  228.2890 N   0  0  0  0  0  0  0  0  0  0  0  0
  140.3330   68.1550  228.4400 C   0  0  0  0  0  0  0  0  0  0  0  0
  139.6090   67.9490  227.1210 C   0  0  0  0  0  0  0  0  0  0  0  0
  139.5720   69.6260  223.8720 C   0  0  0  0  0  0  0  0  0  0  0  0
  140.2520   70.9780  223.9630 C   0  0  0  0  0  0  0  0  0  0  0  0
  141.4090   72.1260  221.3080 N   0  0  0  0  0  0  0  0  0  0  0  0
  142.2060   72.8740  220.5580 C   0  0  0  0  0  0  0  0  0  0  0  0
  143.1760   72.2380  219.7350 N   0  0  0  0  0  0  0  0  0  0  0  0
  144.4930   72.8230  219.6590 C   0  0  0  0  0  0  0  0  0  0  0  0
  145.4150   72.0500  218.7500 C   0  0  0  0  0  0  0  0  0  0  0  0
  145.3190   70.5880  218.9690 C   0  0  0  0  0  0  0  0  0  0  0  0
  146.4350   69.7800  219.0560 C   0  0  0  0  0  0  0  0  0  0  0  0
  146.2400   68.4460  219.2600 C   0  0  0  0  0  0  0  0  0  0  0  0
  144.9690   67.9000  219.3780 C   0  0  0  0  0  0  0  0  0  0  0  0
  143.8720   68.7290  219.2860 C   0  0  0  0  0  0  0  0  0  0  0  0
  144.0260   70.0700  219.0830 C   0  0  0  0  0  0  0  0  0  0  0  0
  142.9050   71.0350  218.9700 C   0  0  0  0  0  0  0  0  0  0  0  0
  142.0520   74.2100  220.6140 N   0  0  0  0  0  0  0  0  0  0  0  0
  140.9960   76.8490  222.7570 C   0  0  0  0  0  0  0  0  0  0  0  0
  142.4052   82.0004  222.2706 H   0  0  0  0  0  0  0  0  0  0  0  0
  141.6928   81.0926  224.4716 H   0  0  0  0  0  0  0  0  0  0  0  0
  141.0525   78.6924  224.6361 H   0  0  0  0  0  0  0  0  0  0  0  0
  142.4728   80.5336  220.2528 H   0  0  0  0  0  0  0  0  0  0  0  0
  141.6779   78.6134  219.2431 H   0  0  0  0  0  0  0  0  0  0  0  0
  142.8432   77.5084  220.0233 H   0  0  0  0  0  0  0  0  0  0  0  0
  139.7825   77.3888  220.1930 H   0  0  0  0  0  0  0  0  0  0  0  0
  140.8445   76.2230  219.3623 H   0  0  0  0  0  0  0  0  0  0  0  0
  137.7699   72.5243  222.3599 H   0  0  0  0  0  0  0  0  0  0  0  0
  138.0410   70.8660  221.8352 H   0  0  0  0  0  0  0  0  0  0  0  0
  138.0065   71.7919  224.7966 H   0  0  0  0  0  0  0  0  0  0  0  0
  136.6046   71.0247  223.9452 H   0  0  0  0  0  0  0  0  0  0  0  0
  137.6640   70.3316  226.2137 H   0  0  0  0  0  0  0  0  0  0  0  0
  137.6613   68.5170  225.7504 H   0  0  0  0  0  0  0  0  0  0  0  0
  140.1981   69.2877  225.6286 H   0  0  0  0  0  0  0  0  0  0  0  0
  139.2801   71.3109  227.1300 H   0  0  0  0  0  0  0  0  0  0  0  0
  138.9546   70.0729  228.3864 H   0  0  0  0  0  0  0  0  0  0  0  0
  141.6495   70.7978  227.1467 H   0  0  0  0  0  0  0  0  0  0  0  0
  141.1401   71.0612  228.8331 H   0  0  0  0  0  0  0  0  0  0  0  0
  142.1000   69.0100  229.0780 H   0  0  0  0  0  0  0  0  0  0  0  0
  140.6985   67.1834  228.8038 H   0  0  0  0  0  0  0  0  0  0  0  0
  139.6276   68.5988  229.1580 H   0  0  0  0  0  0  0  0  0  0  0  0
  140.1955   67.2704  226.4842 H   0  0  0  0  0  0  0  0  0  0  0  0
  138.6185   67.5112  227.3140 H   0  0  0  0  0  0  0  0  0  0  0  0
  140.0946   68.8983  224.5102 H   0  0  0  0  0  0  0  0  0  0  0  0
  139.5913   69.2498  222.8385 H   0  0  0  0  0  0  0  0  0  0  0  0
  140.0480   71.4499  224.9354 H   0  0  0  0  0  0  0  0  0  0  0  0
  141.3459   70.8998  223.8773 H   0  0  0  0  0  0  0  0  0  0  0  0
  144.4013   73.8507  219.2777 H   0  0  0  0  0  0  0  0  0  0  0  0
  144.9264   72.8046  220.6698 H   0  0  0  0  0  0  0  0  0  0  0  0
  145.1494   72.2701  217.7055 H   0  0  0  0  0  0  0  0  0  0  0  0
  146.4469   72.3583  218.9737 H   0  0  0  0  0  0  0  0  0  0  0  0
  147.4481   70.1986  218.9638 H   0  0  0  0  0  0  0  0  0  0  0  0
  147.1149   67.7833  219.3332 H   0  0  0  0  0  0  0  0  0  0  0  0
  144.8393   66.8202  219.5427 H   0  0  0  0  0  0  0  0  0  0  0  0
  142.8610   68.3053  219.3772 H   0  0  0  0  0  0  0  0  0  0  0  0
  142.7674   71.3045  217.9124 H   0  0  0  0  0  0  0  0  0  0  0  0
  141.9948   70.5634  219.3688 H   0  0  0  0  0  0  0  0  0  0  0  0
  139.9997   76.8021  223.2210 H   0  0  0  0  0  0  0  0  0  0  0  0
  141.7158   76.3373  223.4128 H   0  0  0  0  0  0  0  0  0  0  0  0
  1  2  2  0
  2  3  1  0
  3  4  2  0
  4  5  1  0
  5  6  2  0
  5  7  1  0
  7  8  1  0
  8  9  1  0
  9 10  1  0
 10 11  2  0
 11 12  1  0
 12 13  1  0
 13 14  1  0
 14 15  1  0
 15 16  1  0
 16 17  1  0
 17 18  1  0
 18 19  1  0
 19 20  1  0
 20 21  1  0
 21 22  1  0
 22 23  1  0
 16 24  1  0
 24 25  1  0
 12 26  2  0
 26 27  1  0
 27 28  1  0
 28 29  1  0
 29 30  1  0
 30 31  1  0
 31 32  2  0
 32 33  1  0
 33 34  2  0
 34 35  1  0
 35 36  2  0
 36 37  1  0
 27 38  2  0
  9 39  1  0
  6  1  1  0
 38 10  1  0
 39  4  1  0
 25 13  1  0
 37 28  1  0
 23 18  1  0
 36 31  1  0
  1 40  1  0
  2 41  1  0
  3 42  1  0
  6 43  1  0
  7 44  1  0
  7 45  1  0
  8 46  1  0
  8 47  1  0
 14 48  1  0
 14 49  1  0
 15 50  1  0
 15 51  1  0
 17 52  1  0
 17 53  1  0
 18 54  1  0
 19 55  1  0
 19 56  1  0
 20 57  1  0
 20 58  1  0
 21 59  1  0
 22 60  1  0
 22 61  1  0
 23 62  1  0
 23 63  1  0
 24 64  1  0
 24 65  1  0
 25 66  1  0
 25 67  1  0
 29 68  1  0
 29 69  1  0
 30 70  1  0
 30 71  1  0
 32 72  1  0
 33 73  1  0
 34 74  1  0
 35 75  1  0
 37 76  1  0
 37 77  1  0
 39 78  1  0
 39 79  1  0
M  END
>  <smiles>  (9) 
c1ccc2c(c1)CCN(c1nc(N3CCN(CC4CCNCC4)CC3)nc(N3CCc4ccccc4C3)n1)C2

>  <score_type>  (9) 
oracle

>  <origin>  (9) 
autodockgpu

>  <m_score__min__energy>  (9) 
-10.470000000000001

>  <m_primary>  (9) 
energy

>  <rmsd>  (9) 
10.754292720313199

>  <m_score__min__rmsd>  (9) 
10.754292720313199

>  <meeko>  (9) 
{"free_energy": -10.47, "intermolecular_energy": -11.96, "internal_energy": -1.27, "cluster_size": 9, "cluster_id": 1, "rank_in_cluster": 2}

>  <energy>  (9) 
-9.76

>  <cluster_rmsd>  (9) 
1.26

>  <cluster>  (9) 
1

$$$$

     RDKit          3D

 79 85  0  0  0  0  0  0  0  0999 V2000
  142.2020   81.2270  222.5820 C   0  0  0  0  0  0  0  0  0  0  0  0
  141.8600   80.6890  223.8070 C   0  0  0  0  0  0  0  0  0  0  0  0
  141.4920   79.3450  223.8560 C   0  0  0  0  0  0  0  0  0  0  0  0
  141.4610   78.5470  222.7310 C   0  0  0  0  0  0  0  0  0  0  0  0
  141.8090   79.1320  221.5360 C   0  0  0  0  0  0  0  0  0  0  0  0
  142.1830   80.4600  221.4250 C   0  0  0  0  0  0  0  0  0  0  0  0
  141.8040   78.3490  220.2570 C   0  0  0  0  0  0  0  0  0  0  0  0
  140.7210   77.2950  220.3580 C   0  0  0  0  0  0  0  0  0  0  0  0
  140.9560   76.5410  221.5720 N   0  0  0  0  0  0  0  0  0  0  0  0
  141.0940   75.1220  221.4610 C   0  0  0  0  0  0  0  0  0  0  0  0
  140.2310   74.2720  222.0890 N   0  0  0  0  0  0  0  0  0  0  0  0
  140.3520   72.9530  221.9890 C   0  0  0  0  0  0  0  0  0  0  0  0
  139.4700   72.0560  222.6310 N   0  0  0  0  0  0  0  0  0  0  0  0
  138.0250   72.1740  222.5720 C   0  0  0  0  0  0  0  0  0  0  0  0
  137.5270   71.4450  223.8430 C   0  0  0  0  0  0  0  0  0  0  0  0
  137.7890   70.0550  223.7780 N   0  0  0  0  0  0  0  0  0  0  0  0
  137.8300   69.4150  225.0350 C   0  0  0  0  0  0  0  0  0  0  0  0
  139.1440   69.0530  225.6190 C   0  0  0  0  0  0  0  0  0  0  0  0
  139.5870   70.1860  226.5680 C   0  0  0  0  0  0  0  0  0  0  0  0
  141.0650   70.0680  226.8210 C   0  0  0  0  0  0  0  0  0  0  0  0
  141.3260   68.7030  227.2430 N   0  0  0  0  0  0  0  0  0  0  0  0
  140.1280   68.0120  227.6210 C   0  0  0  0  0  0  0  0  0  0  0  0
  139.2130   67.8010  226.4260 C   0  0  0  0  0  0  0  0  0  0  0  0
  139.0520   69.7810  223.1000 C   0  0  0  0  0  0  0  0  0  0  0  0
  139.9900   70.9310  223.4090 C   0  0  0  0  0  0  0  0  0  0  0  0
  141.3530   72.4620  221.2490 N   0  0  0  0  0  0  0  0  0  0  0  0
  142.2270   73.2300  220.6130 C   0  0  0  0  0  0  0  0  0  0  0  0
  143.2590   72.6160  219.8500 N   0  0  0  0  0  0  0  0  0  0  0  0
  144.6070   73.1030  220.0130 C   0  0  0  0  0  0  0  0  0  0  0  0
  145.5940   72.3680  219.1430 C   0  0  0  0  0  0  0  0  0  0  0  0
  145.3800   70.9010  219.1700 C   0  0  0  0  0  0  0  0  0  0  0  0
  146.4210   70.0050  219.3000 C   0  0  0  0  0  0  0  0  0  0  0  0
  146.1180   68.6760  219.3150 C   0  0  0  0  0  0  0  0  0  0  0  0
  144.8120   68.2200  219.2040 C   0  0  0  0  0  0  0  0  0  0  0  0
  143.7900   69.1360  219.0740 C   0  0  0  0  0  0  0  0  0  0  0  0
  144.0530   70.4760  219.0550 C   0  0  0  0  0  0  0  0  0  0  0  0
  143.0190   71.5310  218.9170 C   0  0  0  0  0  0  0  0  0  0  0  0
  142.0890   74.5640  220.7240 N   0  0  0  0  0  0  0  0  0  0  0  0
  141.0570   77.1320  222.8850 C   0  0  0  0  0  0  0  0  0  0  0  0
  142.4956   82.2854  222.5217 H   0  0  0  0  0  0  0  0  0  0  0  0
  141.8774   81.3038  224.7190 H   0  0  0  0  0  0  0  0  0  0  0  0
  141.2167   78.9054  224.8260 H   0  0  0  0  0  0  0  0  0  0  0  0
  142.4563   80.8936  220.4517 H   0  0  0  0  0  0  0  0  0  0  0  0
  141.5951   79.0189  219.4099 H   0  0  0  0  0  0  0  0  0  0  0  0
  142.7837   77.8760  220.0946 H   0  0  0  0  0  0  0  0  0  0  0  0
  139.7325   77.7757  220.4004 H   0  0  0  0  0  0  0  0  0  0  0  0
  140.7441   76.6319  219.4807 H   0  0  0  0  0  0  0  0  0  0  0  0
  137.7199   73.2308  222.5847 H   0  0  0  0  0  0  0  0  0  0  0  0
  137.6064   71.7432  221.6505 H   0  0  0  0  0  0  0  0  0  0  0  0
  138.0400   71.8651  224.7207 H   0  0  0  0  0  0  0  0  0  0  0  0
  136.4392   71.5888  223.9205 H   0  0  0  0  0  0  0  0  0  0  0  0
  137.3324   70.0838  225.7527 H   0  0  0  0  0  0  0  0  0  0  0  0
  137.3488   68.4433  224.8501 H   0  0  0  0  0  0  0  0  0  0  0  0
  139.7828   68.8926  224.7380 H   0  0  0  0  0  0  0  0  0  0  0  0
  139.3693   71.1599  226.1053 H   0  0  0  0  0  0  0  0  0  0  0  0
  139.0411   70.1063  227.5196 H   0  0  0  0  0  0  0  0  0  0  0  0
  141.6231   70.2898  225.8994 H   0  0  0  0  0  0  0  0  0  0  0  0
  141.3847   70.7815  227.5948 H   0  0  0  0  0  0  0  0  0  0  0  0
  142.0670   68.6370  227.9490 H   0  0  0  0  0  0  0  0  0  0  0  0
  140.3971   67.0328  228.0438 H   0  0  0  0  0  0  0  0  0  0  0  0
  139.5942   68.6227  228.3640 H   0  0  0  0  0  0  0  0  0  0  0  0
  139.6079   66.9853  225.8025 H   0  0  0  0  0  0  0  0  0  0  0  0
  138.2049   67.5399  226.7805 H   0  0  0  0  0  0  0  0  0  0  0  0
  139.4799   68.8371  223.4688 H   0  0  0  0  0  0  0  0  0  0  0  0
  138.8981   69.6855  222.0150 H   0  0  0  0  0  0  0  0  0  0  0  0
  139.9766   71.1640  224.4839 H   0  0  0  0  0  0  0  0  0  0  0  0
  141.0337   70.6961  223.1532 H   0  0  0  0  0  0  0  0  0  0  0  0
  144.6309   74.1707  219.7495 H   0  0  0  0  0  0  0  0  0  0  0  0
  144.8977   72.9392  221.0612 H   0  0  0  0  0  0  0  0  0  0  0  0
  145.4863   72.7228  218.1074 H   0  0  0  0  0  0  0  0  0  0  0  0
  146.6029   72.5695  219.5322 H   0  0  0  0  0  0  0  0  0  0  0  0
  147.4612   70.3516  219.3886 H   0  0  0  0  0  0  0  0  0  0  0  0
  146.9324   67.9437  219.4181 H   0  0  0  0  0  0  0  0  0  0  0  0
  144.5951   67.1417  219.2195 H   0  0  0  0  0  0  0  0  0  0  0  0
  142.7517   68.7839  218.9847 H   0  0  0  0  0  0  0  0  0  0  0  0
  143.0426   71.9265  217.8908 H   0  0  0  0  0  0  0  0  0  0  0  0
  142.0354   71.0900  219.1361 H   0  0  0  0  0  0  0  0  0  0  0  0
  140.0829   77.0771  223.3930 H   0  0  0  0  0  0  0  0  0  0  0  0
  141.8013   76.5901  223.4869 H   0  0  0  0  0  0  0  0  0  0  0  0
  1  2  2  0
  2  3  1  0
  3  4  2  0
  4  5  1  0
  5  6  2  0
  5  7  1  0
  7  8  1  0
  8  9  1  0
  9 10  1  0
 10 11  2  0
 11 12  1  0
 12 13  1  0
 13 14  1  0
 14 15  1  0
 15 16  1  0
 16 17  1  0
 17 18  1  0
 18 19  1  0
 19 20  1  0
 20 21  1  0
 21 22  1  0
 22 23  1  0
 16 24  1  0
 24 25  1  0
 12 26  2  0
 26 27  1  0
 27 28  1  0
 28 29  1  0
 29 30  1  0
 30 31  1  0
 31 32  2  0
 32 33  1  0
 33 34  2  0
 34 35  1  0
 35 36  2  0
 36 37  1  0
 27 38  2  0
  9 39  1  0
  6  1  1  0
 38 10  1  0
 39  4  1  0
 25 13  1  0
 37 28  1  0
 23 18  1  0
 36 31  1  0
  1 40  1  0
  2 41  1  0
  3 42  1  0
  6 43  1  0
  7 44  1  0
  7 45  1  0
  8 46  1  0
  8 47  1  0
 14 48  1  0
 14 49  1  0
 15 50  1  0
 15 51  1  0
 17 52  1  0
 17 53  1  0
 18 54  1  0
 19 55  1  0
 19 56  1  0
 20 57  1  0
 20 58  1  0
 21 59  1  0
 22 60  1  0
 22 61  1  0
 23 62  1  0
 23 63  1  0
 24 64  1  0
 24 65  1  0
 25 66  1  0
 25 67  1  0
 29 68  1  0
 29 69  1  0
 30 70  1  0
 30 71  1  0
 32 72  1  0
 33 73  1  0
 34 74  1  0
 35 75  1  0
 37 76  1  0
 37 77  1  0
 39 78  1  0
 39 79  1  0
M  END
>  <smiles>  (10) 
c1ccc2c(c1)CCN(c1nc(N3CCN(CC4CCNCC4)CC3)nc(N3CCc4ccccc4C3)n1)C2

>  <score_type>  (10) 
oracle

>  <origin>  (10) 
autodockgpu

>  <m_score__min__energy>  (10) 
-10.470000000000001

>  <m_primary>  (10) 
energy

>  <rmsd>  (10) 
10.501126172276987

>  <m_score__min__rmsd>  (10) 
10.501126172276987

>  <meeko>  (10) 
{"free_energy": -10.47, "intermolecular_energy": -11.97, "internal_energy": -1.25, "cluster_size": 9, "cluster_id": 1, "rank_in_cluster": 1}

>  <energy>  (10) 
-10.2

>  <cluster_rmsd>  (10) 
0.0

>  <cluster>  (10) 
2

$$$$

     RDKit          3D

 79 85  0  0  0  0  0  0  0  0999 V2000
  141.5550   80.8990  221.8430 C   0  0  0  0  0  0  0  0  0  0  0  0
  140.9980   80.4990  223.0420 C   0  0  0  0  0  0  0  0  0  0  0  0
  140.7300   79.1430  223.2230 C   0  0  0  0  0  0  0  0  0  0  0  0
  141.0020   78.2010  222.2530 C   0  0  0  0  0  0  0  0  0  0  0  0
  141.5560   78.6520  221.0770 C   0  0  0  0  0  0  0  0  0  0  0  0
  141.8450   79.9840  220.8400 C   0  0  0  0  0  0  0  0  0  0  0  0
  141.8860   77.7060  219.9610 C   0  0  0  0  0  0  0  0  0  0  0  0
  140.8890   76.5680  220.0030 C   0  0  0  0  0  0  0  0  0  0  0  0
  140.9120   76.0140  221.3420 N   0  0  0  0  0  0  0  0  0  0  0  0
  141.1760   74.6160  221.4820 C   0  0  0  0  0  0  0  0  0  0  0  0
  142.1560   74.0010  220.7590 N   0  0  0  0  0  0  0  0  0  0  0  0
  142.4080   72.7030  220.8840 C   0  0  0  0  0  0  0  0  0  0  0  0
  143.4170   72.0470  220.1450 N   0  0  0  0  0  0  0  0  0  0  0  0
  144.8270   72.1160  220.4790 C   0  0  0  0  0  0  0  0  0  0  0  0
  145.5530   71.8280  219.1430 C   0  0  0  0  0  0  0  0  0  0  0  0
  145.3380   70.4960  218.7140 N   0  0  0  0  0  0  0  0  0  0  0  0
  145.5270   70.2970  217.3310 C   0  0  0  0  0  0  0  0  0  0  0  0
  146.4420   69.2240  216.8730 C   0  0  0  0  0  0  0  0  0  0  0  0
  145.6550   67.8970  216.8210 C   0  0  0  0  0  0  0  0  0  0  0  0
  146.6250   66.7490  216.7960 C   0  0  0  0  0  0  0  0  0  0  0  0
  147.5740   67.0050  215.7270 N   0  0  0  0  0  0  0  0  0  0  0  0
  147.1220   68.0280  214.8310 C   0  0  0  0  0  0  0  0  0  0  0  0
  147.0600   69.3790  215.5250 C   0  0  0  0  0  0  0  0  0  0  0  0
  143.9940   70.0380  219.0490 C   0  0  0  0  0  0  0  0  0  0  0  0
  143.0740   71.2410  218.9730 C   0  0  0  0  0  0  0  0  0  0  0  0
  141.6710   71.9940  221.7490 N   0  0  0  0  0  0  0  0  0  0  0  0
  140.7040   72.5280  222.4830 C   0  0  0  0  0  0  0  0  0  0  0  0
  139.9740   71.6950  223.3750 N   0  0  0  0  0  0  0  0  0  0  0  0
  138.9380   70.8540  222.8260 C   0  0  0  0  0  0  0  0  0  0  0  0
  138.2450   70.0310  223.8820 C   0  0  0  0  0  0  0  0  0  0  0  0
  139.2040   69.4170  224.8310 C   0  0  0  0  0  0  0  0  0  0  0  0
  139.1060   68.1000  225.2310 C   0  0  0  0  0  0  0  0  0  0  0  0
  140.0400   67.6310  226.1070 C   0  0  0  0  0  0  0  0  0  0  0  0
  141.0610   68.4360  226.5930 C   0  0  0  0  0  0  0  0  0  0  0  0
  141.1340   69.7490  226.1790 C   0  0  0  0  0  0  0  0  0  0  0  0
  140.2180   70.2560  225.3020 C   0  0  0  0  0  0  0  0  0  0  0  0
  140.2190   71.6530  224.8040 C   0  0  0  0  0  0  0  0  0  0  0  0
  140.4630   73.8450  222.3430 N   0  0  0  0  0  0  0  0  0  0  0  0
  140.6820   76.7850  222.5390 C   0  0  0  0  0  0  0  0  0  0  0  0
  141.7733   81.9646  221.6795 H   0  0  0  0  0  0  0  0  0  0  0  0
  140.7722   81.2302  223.8322 H   0  0  0  0  0  0  0  0  0  0  0  0
  140.2857   78.8125  224.1735 H   0  0  0  0  0  0  0  0  0  0  0  0
  142.2902   80.3076  219.8876 H   0  0  0  0  0  0  0  0  0  0  0  0
  141.8158   78.2285  218.9956 H   0  0  0  0  0  0  0  0  0  0  0  0
  142.9102   77.3215  220.0760 H   0  0  0  0  0  0  0  0  0  0  0  0
  139.8816   76.9432  219.7696 H   0  0  0  0  0  0  0  0  0  0  0  0
  141.1503   75.7981  219.2620 H   0  0  0  0  0  0  0  0  0  0  0  0
  145.0891   73.1152  220.8570 H   0  0  0  0  0  0  0  0  0  0  0  0
  145.1061   71.4043  221.2700 H   0  0  0  0  0  0  0  0  0  0  0  0
  145.1738   72.5171  218.3740 H   0  0  0  0  0  0  0  0  0  0  0  0
  146.6325   71.9714  219.2981 H   0  0  0  0  0  0  0  0  0  0  0  0
  144.5383   70.0823  216.8991 H   0  0  0  0  0  0  0  0  0  0  0  0
  146.0213   71.2218  216.9988 H   0  0  0  0  0  0  0  0  0  0  0  0
  147.2662   69.2610  217.6005 H   0  0  0  0  0  0  0  0  0  0  0  0
  145.0113   67.8157  217.7093 H   0  0  0  0  0  0  0  0  0  0  0  0
  145.0297   67.8729  215.9163 H   0  0  0  0  0  0  0  0  0  0  0  0
  147.1526   66.6816  217.7589 H   0  0  0  0  0  0  0  0  0  0  0  0
  146.0974   65.7986  216.6275 H   0  0  0  0  0  0  0  0  0  0  0  0
  147.8720   66.1500  215.2430 H   0  0  0  0  0  0  0  0  0  0  0  0
  147.8170   68.0930  213.9808 H   0  0  0  0  0  0  0  0  0  0  0  0
  146.1106   67.7669  214.4863 H   0  0  0  0  0  0  0  0  0  0  0  0
  148.0780   69.7813  215.6336 H   0  0  0  0  0  0  0  0  0  0  0  0
  146.4518   70.0701  214.9229 H   0  0  0  0  0  0  0  0  0  0  0  0
  143.6688   69.2698  218.3320 H   0  0  0  0  0  0  0  0  0  0  0  0
  143.9736   69.5959  220.0560 H   0  0  0  0  0  0  0  0  0  0  0  0
  143.2523   71.8076  218.0472 H   0  0  0  0  0  0  0  0  0  0  0  0
  142.0125   70.9526  218.9630 H   0  0  0  0  0  0  0  0  0  0  0  0
  138.1919   71.4916  222.3292 H   0  0  0  0  0  0  0  0  0  0  0  0
  139.4113   70.1591  222.1167 H   0  0  0  0  0  0  0  0  0  0  0  0
  137.5577   70.6809  224.4435 H   0  0  0  0  0  0  0  0  0  0  0  0
  137.7031   69.2185  223.3758 H   0  0  0  0  0  0  0  0  0  0  0  0
  138.3015   67.4503  224.8559 H   0  0  0  0  0  0  0  0  0  0  0  0
  139.9825   66.5836  226.4383 H   0  0  0  0  0  0  0  0  0  0  0  0
  141.8017   68.0319  227.2988 H   0  0  0  0  0  0  0  0  0  0  0  0
  141.9388   70.3953  226.5592 H   0  0  0  0  0  0  0  0  0  0  0  0
  139.4308   72.2199  225.3210 H   0  0  0  0  0  0  0  0  0  0  0  0
  141.2059   72.0958  225.0038 H   0  0  0  0  0  0  0  0  0  0  0  0
  139.6280   76.6963  222.8409 H   0  0  0  0  0  0  0  0  0  0  0  0
  141.3174   76.4122  223.3558 H   0  0  0  0  0  0  0  0  0  0  0  0
  1  2  2  0
  2  3  1  0
  3  4  2  0
  4  5  1  0
  5  6  2  0
  5  7  1  0
  7  8  1  0
  8  9  1  0
  9 10  1  0
 10 11  2  0
 11 12  1  0
 12 13  1  0
 13 14  1  0
 14 15  1  0
 15 16  1  0
 16 17  1  0
 17 18  1  0
 18 19  1  0
 19 20  1  0
 20 21  1  0
 21 22  1  0
 22 23  1  0
 16 24  1  0
 24 25  1  0
 12 26  2  0
 26 27  1  0
 27 28  1  0
 28 29  1  0
 29 30  1  0
 30 31  1  0
 31 32  2  0
 32 33  1  0
 33 34  2  0
 34 35  1  0
 35 36  2  0
 36 37  1  0
 27 38  2  0
  9 39  1  0
  6  1  1  0
 38 10  1  0
 39  4  1  0
 25 13  1  0
 37 28  1  0
 23 18  1  0
 36 31  1  0
  1 40  1  0
  2 41  1  0
  3 42  1  0
  6 43  1  0
  7 44  1  0
  7 45  1  0
  8 46  1  0
  8 47  1  0
 14 48  1  0
 14 49  1  0
 15 50  1  0
 15 51  1  0
 17 52  1  0
 17 53  1  0
 18 54  1  0
 19 55  1  0
 19 56  1  0
 20 57  1  0
 20 58  1  0
 21 59  1  0
 22 60  1  0
 22 61  1  0
 23 62  1  0
 23 63  1  0
 24 64  1  0
 24 65  1  0
 25 66  1  0
 25 67  1  0
 29 68  1  0
 29 69  1  0
 30 70  1  0
 30 71  1  0
 32 72  1  0
 33 73  1  0
 34 74  1  0
 35 75  1  0
 37 76  1  0
 37 77  1  0
 39 78  1  0
 39 79  1  0
M  END
>  <smiles>  (11) 
c1ccc2c(c1)CCN(c1nc(N3CCN(CC4CCNCC4)CC3)nc(N3CCc4ccccc4C3)n1)C2

>  <score_type>  (11) 
oracle

>  <origin>  (11) 
autodockgpu

>  <m_score__min__energy>  (11) 
-10.470000000000001

>  <m_primary>  (11) 
energy

>  <rmsd>  (11) 
11.617530979472608

>  <m_score__min__rmsd>  (11) 
11.617530979472608

>  <meeko>  (11) 
{"free_energy": -9.75, "intermolecular_energy": -11.24, "internal_energy": -1.17, "cluster_size": 7, "cluster_id": 2, "rank_in_cluster": 4}

>  <energy>  (11) 
-10.17

>  <cluster_rmsd>  (11) 
1.55

>  <cluster>  (11) 
2

$$$$

     RDKit          3D

 79 85  0  0  0  0  0  0  0  0999 V2000
  140.0760   67.7450  227.5130 C   0  0  0  0  0  0  0  0  0  0  0  0
  139.2190   67.3510  226.5030 C   0  0  0  0  0  0  0  0  0  0  0  0
  139.1010   68.1720  225.3820 C   0  0  0  0  0  0  0  0  0  0  0  0
  139.8050   69.3520  225.2540 C   0  0  0  0  0  0  0  0  0  0  0  0
  140.6430   69.6990  226.2880 C   0  0  0  0  0  0  0  0  0  0  0  0
  140.8020   68.9250  227.4240 C   0  0  0  0  0  0  0  0  0  0  0  0
  141.4490   70.9630  226.2440 C   0  0  0  0  0  0  0  0  0  0  0  0
  140.6640   71.9910  225.4580 C   0  0  0  0  0  0  0  0  0  0  0  0
  140.3260   71.3990  224.1790 N   0  0  0  0  0  0  0  0  0  0  0  0
  140.7240   72.0960  222.9960 C   0  0  0  0  0  0  0  0  0  0  0  0
  140.2410   73.3380  222.7040 N   0  0  0  0  0  0  0  0  0  0  0  0
  140.6070   73.9910  221.6070 C   0  0  0  0  0  0  0  0  0  0  0  0
  140.1190   75.2770  221.2870 N   0  0  0  0  0  0  0  0  0  0  0  0
  139.2530   75.5460  220.1550 C   0  0  0  0  0  0  0  0  0  0  0  0
  139.4920   77.0410  219.8340 C   0  0  0  0  0  0  0  0  0  0  0  0
  139.0130   77.8750  220.8730 N   0  0  0  0  0  0  0  0  0  0  0  0
  139.6060   79.1540  220.9080 C   0  0  0  0  0  0  0  0  0  0  0  0
  140.3830   79.5590  222.1050 C   0  0  0  0  0  0  0  0  0  0  0  0
  141.8860   79.4920  221.7580 C   0  0  0  0  0  0  0  0  0  0  0  0
  142.6840   79.4610  223.0330 C   0  0  0  0  0  0  0  0  0  0  0  0
  142.2360   80.5720  223.8530 N   0  0  0  0  0  0  0  0  0  0  0  0
  141.4710   81.5270  223.1060 C   0  0  0  0  0  0  0  0  0  0  0  0
  140.1530   80.9320  222.6390 C   0  0  0  0  0  0  0  0  0  0  0  0
  139.2060   77.2610  222.1830 C   0  0  0  0  0  0  0  0  0  0  0  0
  140.4740   76.4330  222.1110 C   0  0  0  0  0  0  0  0  0  0  0  0
  141.4740   73.3990  220.7760 N   0  0  0  0  0  0  0  0  0  0  0  0
  141.9820   72.1950  220.9980 C   0  0  0  0  0  0  0  0  0  0  0  0
  142.8970   71.6470  220.0560 N   0  0  0  0  0  0  0  0  0  0  0  0
  144.1150   72.3720  219.7900 C   0  0  0  0  0  0  0  0  0  0  0  0
  144.9860   71.6800  218.7720 C   0  0  0  0  0  0  0  0  0  0  0  0
  145.0890   70.2230  219.0220 C   0  0  0  0  0  0  0  0  0  0  0  0
  146.2910   69.5470  218.9630 C   0  0  0  0  0  0  0  0  0  0  0  0
  146.2780   68.2060  219.2110 C   0  0  0  0  0  0  0  0  0  0  0  0
  145.1070   67.5260  219.5130 C   0  0  0  0  0  0  0  0  0  0  0  0
  143.9200   68.2250  219.5630 C   0  0  0  0  0  0  0  0  0  0  0  0
  143.8900   69.5690  219.3220 C   0  0  0  0  0  0  0  0  0  0  0  0
  142.6620   70.4000  219.3540 C   0  0  0  0  0  0  0  0  0  0  0  0
  141.6010   71.5480  222.1150 N   0  0  0  0  0  0  0  0  0  0  0  0
  139.6120   70.1550  224.0270 C   0  0  0  0  0  0  0  0  0  0  0  0
  140.1851   67.1110  228.4053 H   0  0  0  0  0  0  0  0  0  0  0  0
  138.6457   66.4155  226.5812 H   0  0  0  0  0  0  0  0  0  0  0  0
  138.4227   67.8683  224.5710 H   0  0  0  0  0  0  0  0  0  0  0  0
  141.4822   69.2349  228.2310 H   0  0  0  0  0  0  0  0  0  0  0  0
  141.6250   71.3293  227.2662 H   0  0  0  0  0  0  0  0  0  0  0  0
  142.4228   70.7789  225.7666 H   0  0  0  0  0  0  0  0  0  0  0  0
  139.7461   72.2585  226.0020 H   0  0  0  0  0  0  0  0  0  0  0  0
  141.2585   72.9055  225.3157 H   0  0  0  0  0  0  0  0  0  0  0  0
  139.5271   74.9150  219.2967 H   0  0  0  0  0  0  0  0  0  0  0  0
  138.1973   75.3277  220.3736 H   0  0  0  0  0  0  0  0  0  0  0  0
  140.5712   77.2117  219.7067 H   0  0  0  0  0  0  0  0  0  0  0  0
  138.9464   77.2888  218.9116 H   0  0  0  0  0  0  0  0  0  0  0  0
  140.2872   79.2161  220.0466 H   0  0  0  0  0  0  0  0  0  0  0  0
  138.7467   79.8408  220.9092 H   0  0  0  0  0  0  0  0  0  0  0  0
  140.0416   78.8606  222.8832 H   0  0  0  0  0  0  0  0  0  0  0  0
  142.0891   78.5822  221.1740 H   0  0  0  0  0  0  0  0  0  0  0  0
  142.1693   80.3738  221.1645 H   0  0  0  0  0  0  0  0  0  0  0  0
  142.5127   78.5112  223.5607 H   0  0  0  0  0  0  0  0  0  0  0  0
  143.7599   79.5449  222.8198 H   0  0  0  0  0  0  0  0  0  0  0  0
  142.9950   81.0010  224.3940 H   0  0  0  0  0  0  0  0  0  0  0  0
  141.2648   82.3992  223.7438 H   0  0  0  0  0  0  0  0  0  0  0  0
  142.0526   81.8226  222.2204 H   0  0  0  0  0  0  0  0  0  0  0  0
  139.4535   80.8824  223.4865 H   0  0  0  0  0  0  0  0  0  0  0  0
  139.7280   81.5650  221.8461 H   0  0  0  0  0  0  0  0  0  0  0  0
  139.3086   78.0404  222.9525 H   0  0  0  0  0  0  0  0  0  0  0  0
  138.3442   76.6309  222.4483 H   0  0  0  0  0  0  0  0  0  0  0  0
  141.2863   77.0081  221.6425 H   0  0  0  0  0  0  0  0  0  0  0  0
  140.8344   76.1378  223.1075 H   0  0  0  0  0  0  0  0  0  0  0  0
  143.8554   73.3717  219.4114 H   0  0  0  0  0  0  0  0  0  0  0  0
  144.6818   72.4316  220.7308 H   0  0  0  0  0  0  0  0  0  0  0  0
  144.5563   71.8384  217.7719 H   0  0  0  0  0  0  0  0  0  0  0  0
  145.9968   72.1077  218.8456 H   0  0  0  0  0  0  0  0  0  0  0  0
  147.2276   70.0721  218.7241 H   0  0  0  0  0  0  0  0  0  0  0  0
  147.2244   67.6467  219.1704 H   0  0  0  0  0  0  0  0  0  0  0  0
  145.1255   66.4439  219.7098 H   0  0  0  0  0  0  0  0  0  0  0  0
  142.9861   67.6942  219.7998 H   0  0  0  0  0  0  0  0  0  0  0  0
  142.3501   70.6210  218.3225 H   0  0  0  0  0  0  0  0  0  0  0  0
  141.8751   69.8426  219.8832 H   0  0  0  0  0  0  0  0  0  0  0  0
  138.5408   70.3572  223.8802 H   0  0  0  0  0  0  0  0  0  0  0  0
  139.9919   69.6060  223.1528 H   0  0  0  0  0  0  0  0  0  0  0  0
  1  2  2  0
  2  3  1  0
  3  4  2  0
  4  5  1  0
  5  6  2  0
  5  7  1  0
  7  8  1  0
  8  9  1  0
  9 10  1  0
 10 11  2  0
 11 12  1  0
 12 13  1  0
 13 14  1  0
 14 15  1  0
 15 16  1  0
 16 17  1  0
 17 18  1  0
 18 19  1  0
 19 20  1  0
 20 21  1  0
 21 22  1  0
 22 23  1  0
 16 24  1  0
 24 25  1  0
 12 26  2  0
 26 27  1  0
 27 28  1  0
 28 29  1  0
 29 30  1  0
 30 31  1  0
 31 32  2  0
 32 33  1  0
 33 34  2  0
 34 35  1  0
 35 36  2  0
 36 37  1  0
 27 38  2  0
  9 39  1  0
  6  1  1  0
 38 10  1  0
 39  4  1  0
 25 13  1  0
 37 28  1  0
 23 18  1  0
 36 31  1  0
  1 40  1  0
  2 41  1  0
  3 42  1  0
  6 43  1  0
  7 44  1  0
  7 45  1  0
  8 46  1  0
  8 47  1  0
 14 48  1  0
 14 49  1  0
 15 50  1  0
 15 51  1  0
 17 52  1  0
 17 53  1  0
 18 54  1  0
 19 55  1  0
 19 56  1  0
 20 57  1  0
 20 58  1  0
 21 59  1  0
 22 60  1  0
 22 61  1  0
 23 62  1  0
 23 63  1  0
 24 64  1  0
 24 65  1  0
 25 66  1  0
 25 67  1  0
 29 68  1  0
 29 69  1  0
 30 70  1  0
 30 71  1  0
 32 72  1  0
 33 73  1  0
 34 74  1  0
 35 75  1  0
 37 76  1  0
 37 77  1  0
 39 78  1  0
 39 79  1  0
M  END
>  <smiles>  (12) 
c1ccc2c(c1)CCN(c1nc(N3CCN(CC4CCNCC4)CC3)nc(N3CCc4ccccc4C3)n1)C2

>  <score_type>  (12) 
oracle

>  <origin>  (12) 
autodockgpu

>  <m_score__min__energy>  (12) 
-10.470000000000001

>  <m_primary>  (12) 
energy

>  <rmsd>  (12) 
3.634812694261759

>  <m_score__min__rmsd>  (12) 
3.634812694261759

>  <meeko>  (12) 
{"free_energy": -9.96, "intermolecular_energy": -11.46, "internal_energy": -1.27, "cluster_size": 32, "cluster_id": 3, "rank_in_cluster": 2}

>  <energy>  (12) 
-10.17

>  <cluster_rmsd>  (12) 
1.89

>  <cluster>  (12) 
2

$$$$

     RDKit          3D

 79 85  0  0  0  0  0  0  0  0999 V2000
  145.9360   68.5960  218.1140 C   0  0  0  0  0  0  0  0  0  0  0  0
  146.6350   69.6420  218.6840 C   0  0  0  0  0  0  0  0  0  0  0  0
  145.9100   70.6460  219.3250 C   0  0  0  0  0  0  0  0  0  0  0  0
  144.5330   70.6260  219.4050 C   0  0  0  0  0  0  0  0  0  0  0  0
  143.8850   69.5630  218.8200 C   0  0  0  0  0  0  0  0  0  0  0  0
  144.5500   68.5370  218.1710 C   0  0  0  0  0  0  0  0  0  0  0  0
  142.3900   69.4510  218.8520 C   0  0  0  0  0  0  0  0  0  0  0  0
  141.8170   70.8520  218.8450 C   0  0  0  0  0  0  0  0  0  0  0  0
  142.4290   71.5810  219.9370 N   0  0  0  0  0  0  0  0  0  0  0  0
  141.5670   72.1850  220.9050 C   0  0  0  0  0  0  0  0  0  0  0  0
  141.2750   73.5170  220.8660 N   0  0  0  0  0  0  0  0  0  0  0  0
  140.4750   74.0840  221.7600 C   0  0  0  0  0  0  0  0  0  0  0  0
  140.1600   75.4610  221.7380 N   0  0  0  0  0  0  0  0  0  0  0  0
  138.9930   76.0270  222.3870 C   0  0  0  0  0  0  0  0  0  0  0  0
  138.7190   77.3380  221.6120 C   0  0  0  0  0  0  0  0  0  0  0  0
  139.7520   78.2850  221.8170 N   0  0  0  0  0  0  0  0  0  0  0  0
  139.8460   79.2650  220.8080 C   0  0  0  0  0  0  0  0  0  0  0  0
  141.0840   79.3530  219.9960 C   0  0  0  0  0  0  0  0  0  0  0  0
  140.7900   78.7830  218.5920 C   0  0  0  0  0  0  0  0  0  0  0  0
  142.0900   78.4520  217.9130 C   0  0  0  0  0  0  0  0  0  0  0  0
  142.9350   79.6310  217.9920 N   0  0  0  0  0  0  0  0  0  0  0  0
  142.1960   80.8060  218.3500 C   0  0  0  0  0  0  0  0  0  0  0  0
  141.6590   80.7090  219.7680 C   0  0  0  0  0  0  0  0  0  0  0  0
  141.0550   77.6370  221.9270 C   0  0  0  0  0  0  0  0  0  0  0  0
  141.0270   76.4090  221.0380 C   0  0  0  0  0  0  0  0  0  0  0  0
  139.9480   73.3130  222.7200 N   0  0  0  0  0  0  0  0  0  0  0  0
  140.1890   72.0130  222.8170 C   0  0  0  0  0  0  0  0  0  0  0  0
  139.5840   71.2750  223.8720 N   0  0  0  0  0  0  0  0  0  0  0  0
  138.6280   70.2520  223.5250 C   0  0  0  0  0  0  0  0  0  0  0  0
  138.0650   69.5550  224.7380 C   0  0  0  0  0  0  0  0  0  0  0  0
  139.1170   69.2140  225.7250 C   0  0  0  0  0  0  0  0  0  0  0  0
  139.1770   67.9810  226.3430 C   0  0  0  0  0  0  0  0  0  0  0  0
  140.1850   67.7660  227.2350 C   0  0  0  0  0  0  0  0  0  0  0  0
  141.1290   68.7420  227.5260 C   0  0  0  0  0  0  0  0  0  0  0  0
  141.0440   69.9650  226.8960 C   0  0  0  0  0  0  0  0  0  0  0  0
  140.0500   70.2190  225.9960 C   0  0  0  0  0  0  0  0  0  0  0  0
  139.8810   71.5030  225.2730 C   0  0  0  0  0  0  0  0  0  0  0  0
  141.0020   71.4540  221.9010 N   0  0  0  0  0  0  0  0  0  0  0  0
  143.8540   71.7380  220.1060 C   0  0  0  0  0  0  0  0  0  0  0  0
  146.4888   67.7931  217.6043 H   0  0  0  0  0  0  0  0  0  0  0  0
  147.7331   69.6820  218.6337 H   0  0  0  0  0  0  0  0  0  0  0  0
  146.4557   71.4840  219.7833 H   0  0  0  0  0  0  0  0  0  0  0  0
  143.9981   67.7018  217.7151 H   0  0  0  0  0  0  0  0  0  0  0  0
  142.0378   68.8990  217.9681 H   0  0  0  0  0  0  0  0  0  0  0  0
  142.0660   68.9096  219.7531 H   0  0  0  0  0  0  0  0  0  0  0  0
  142.0459   71.3461  217.8893 H   0  0  0  0  0  0  0  0  0  0  0  0
  140.7239   70.8229  218.9646 H   0  0  0  0  0  0  0  0  0  0  0  0
  138.1349   75.3430  222.3103 H   0  0  0  0  0  0  0  0  0  0  0  0
  139.1539   76.2009  223.4612 H   0  0  0  0  0  0  0  0  0  0  0  0
  138.6496   77.1110  220.5379 H   0  0  0  0  0  0  0  0  0  0  0  0
  137.7765   77.7682  221.9817 H   0  0  0  0  0  0  0  0  0  0  0  0
  139.0155   79.0869  220.1090 H   0  0  0  0  0  0  0  0  0  0  0  0
  139.8305   80.2141  221.3638 H   0  0  0  0  0  0  0  0  0  0  0  0
  141.8230   78.7968  220.5914 H   0  0  0  0  0  0  0  0  0  0  0  0
  140.1804   77.8720  218.6846 H   0  0  0  0  0  0  0  0  0  0  0  0
  140.2406   79.5277  217.9974 H   0  0  0  0  0  0  0  0  0  0  0  0
  142.5756   77.6068  218.4226 H   0  0  0  0  0  0  0  0  0  0  0  0
  141.9185   78.1671  216.8644 H   0  0  0  0  0  0  0  0  0  0  0  0
  143.5180   79.7610  217.1590 H   0  0  0  0  0  0  0  0  0  0  0  0
  142.8575   81.6818  218.2764 H   0  0  0  0  0  0  0  0  0  0  0  0
  141.3436   80.9035  217.6616 H   0  0  0  0  0  0  0  0  0  0  0  0
  142.4776   80.8837  220.4817 H   0  0  0  0  0  0  0  0  0  0  0  0
  140.8745   81.4663  219.9129 H   0  0  0  0  0  0  0  0  0  0  0  0
  141.8462   78.3246  221.5936 H   0  0  0  0  0  0  0  0  0  0  0  0
  141.2626   77.3567  222.9702 H   0  0  0  0  0  0  0  0  0  0  0  0
  140.6129   76.6557  220.0492 H   0  0  0  0  0  0  0  0  0  0  0  0
  142.0330   76.0003  220.8624 H   0  0  0  0  0  0  0  0  0  0  0  0
  137.8004   70.7162  222.9686 H   0  0  0  0  0  0  0  0  0  0  0  0
  139.1498   69.4980  222.9174 H   0  0  0  0  0  0  0  0  0  0  0  0
  137.3298   70.2175  225.2182 H   0  0  0  0  0  0  0  0  0  0  0  0
  137.5987   68.6168  224.4029 H   0  0  0  0  0  0  0  0  0  0  0  0
  138.4361   67.1982  226.1229 H   0  0  0  0  0  0  0  0  0  0  0  0
  140.2527   66.7907  227.7392 H   0  0  0  0  0  0  0  0  0  0  0  0
  141.9333   68.5419  228.2492 H   0  0  0  0  0  0  0  0  0  0  0  0
  141.7859   70.7453  227.1212 H   0  0  0  0  0  0  0  0  0  0  0  0
  139.0537   72.0665  225.7291 H   0  0  0  0  0  0  0  0  0  0  0  0
  140.8199   72.0717  225.3443 H   0  0  0  0  0  0  0  0  0  0  0  0
  144.1753   72.6987  219.6772 H   0  0  0  0  0  0  0  0  0  0  0  0
  144.1115   71.7238  221.1753 H   0  0  0  0  0  0  0  0  0  0  0  0
  1  2  2  0
  2  3  1  0
  3  4  2  0
  4  5  1  0
  5  6  2  0
  5  7  1  0
  7  8  1  0
  8  9  1  0
  9 10  1  0
 10 11  2  0
 11 12  1  0
 12 13  1  0
 13 14  1  0
 14 15  1  0
 15 16  1  0
 16 17  1  0
 17 18  1  0
 18 19  1  0
 19 20  1  0
 20 21  1  0
 21 22  1  0
 22 23  1  0
 16 24  1  0
 24 25  1  0
 12 26  2  0
 26 27  1  0
 27 28  1  0
 28 29  1  0
 29 30  1  0
 30 31  1  0
 31 32  2  0
 32 33  1  0
 33 34  2  0
 34 35  1  0
 35 36  2  0
 36 37  1  0
 27 38  2  0
  9 39  1  0
  6  1  1  0
 38 10  1  0
 39  4  1  0
 25 13  1  0
 37 28  1  0
 23 18  1  0
 36 31  1  0
  1 40  1  0
  2 41  1  0
  3 42  1  0
  6 43  1  0
  7 44  1  0
  7 45  1  0
  8 46  1  0
  8 47  1  0
 14 48  1  0
 14 49  1  0
 15 50  1  0
 15 51  1  0
 17 52  1  0
 17 53  1  0
 18 54  1  0
 19 55  1  0
 19 56  1  0
 20 57  1  0
 20 58  1  0
 21 59  1  0
 22 60  1  0
 22 61  1  0
 23 62  1  0
 23 63  1  0
 24 64  1  0
 24 65  1  0
 25 66  1  0
 25 67  1  0
 29 68  1  0
 29 69  1  0
 30 70  1  0
 30 71  1  0
 32 72  1  0
 33 73  1  0
 34 74  1  0
 35 75  1  0
 37 76  1  0
 37 77  1  0
 39 78  1  0
 39 79  1  0
M  END
>  <smiles>  (13) 
c1ccc2c(c1)CCN(c1nc(N3CCN(CC4CCNCC4)CC3)nc(N3CCc4ccccc4C3)n1)C2

>  <score_type>  (13) 
oracle

>  <origin>  (13) 
autodockgpu

>  <m_score__min__energy>  (13) 
-10.470000000000001

>  <m_primary>  (13) 
energy

>  <rmsd>  (13) 
3.8959201154302896

>  <m_score__min__rmsd>  (13) 
3.8959201154302896

>  <meeko>  (13) 
{"free_energy": -9.63, "intermolecular_energy": -11.13, "internal_energy": -1.26, "cluster_size": 32, "cluster_id": 3, "rank_in_cluster": 17}

>  <energy>  (13) 
-9.75

>  <cluster_rmsd>  (13) 
1.6

>  <cluster>  (13) 
2

$$$$

     RDKit          3D

 79 85  0  0  0  0  0  0  0  0999 V2000
  140.0960   67.7610  227.5440 C   0  0  0  0  0  0  0  0  0  0  0  0
  139.2490   67.3510  226.5320 C   0  0  0  0  0  0  0  0  0  0  0  0
  139.1320   68.1620  225.4030 C   0  0  0  0  0  0  0  0  0  0  0  0
  139.8280   69.3450  225.2700 C   0  0  0  0  0  0  0  0  0  0  0  0
  140.6570   69.7080  226.3060 C   0  0  0  0  0  0  0  0  0  0  0  0
  140.8140   68.9450  227.4500 C   0  0  0  0  0  0  0  0  0  0  0  0
  141.4530   70.9770  226.2560 C   0  0  0  0  0  0  0  0  0  0  0  0
  140.6660   71.9920  225.4550 C   0  0  0  0  0  0  0  0  0  0  0  0
  140.3410   71.3870  224.1800 N   0  0  0  0  0  0  0  0  0  0  0  0
  140.7420   72.0760  222.9920 C   0  0  0  0  0  0  0  0  0  0  0  0
  140.2750   73.3240  222.7010 N   0  0  0  0  0  0  0  0  0  0  0  0
  140.6430   73.9700  221.6010 C   0  0  0  0  0  0  0  0  0  0  0  0
  140.1710   75.2620  221.2820 N   0  0  0  0  0  0  0  0  0  0  0  0
  139.1630   75.5190  220.2700 C   0  0  0  0  0  0  0  0  0  0  0  0
  139.4180   76.9820  219.8350 C   0  0  0  0  0  0  0  0  0  0  0  0
  139.1320   77.8900  220.8830 N   0  0  0  0  0  0  0  0  0  0  0  0
  139.7800   79.1370  220.7600 C   0  0  0  0  0  0  0  0  0  0  0  0
  140.4770   79.7090  221.9380 C   0  0  0  0  0  0  0  0  0  0  0  0
  141.9980   79.5450  221.7330 C   0  0  0  0  0  0  0  0  0  0  0  0
  142.6930   79.6990  223.0580 C   0  0  0  0  0  0  0  0  0  0  0  0
  142.2280   80.9400  223.6510 N   0  0  0  0  0  0  0  0  0  0  0  0
  141.5630   81.7820  222.7010 C   0  0  0  0  0  0  0  0  0  0  0  0
  140.2620   81.1560  222.2250 C   0  0  0  0  0  0  0  0  0  0  0  0
  139.4850   77.3330  222.1840 C   0  0  0  0  0  0  0  0  0  0  0  0
  140.6920   76.4380  221.9800 C   0  0  0  0  0  0  0  0  0  0  0  0
  141.4970   73.3650  220.7660 N   0  0  0  0  0  0  0  0  0  0  0  0
  141.9890   72.1540  220.9870 C   0  0  0  0  0  0  0  0  0  0  0  0
  142.8910   71.5920  220.0410 N   0  0  0  0  0  0  0  0  0  0  0  0
  144.1010   72.3180  219.7390 C   0  0  0  0  0  0  0  0  0  0  0  0
  144.9580   71.6100  218.7210 C   0  0  0  0  0  0  0  0  0  0  0  0
  145.0730   70.1580  218.9980 C   0  0  0  0  0  0  0  0  0  0  0  0
  146.2770   69.4870  218.9330 C   0  0  0  0  0  0  0  0  0  0  0  0
  146.2760   68.1520  219.2080 C   0  0  0  0  0  0  0  0  0  0  0  0
  145.1130   67.4720  219.5430 C   0  0  0  0  0  0  0  0  0  0  0  0
  143.9240   68.1660  219.6000 C   0  0  0  0  0  0  0  0  0  0  0  0
  143.8830   69.5050  219.3320 C   0  0  0  0  0  0  0  0  0  0  0  0
  142.6510   70.3300  219.3680 C   0  0  0  0  0  0  0  0  0  0  0  0
  141.6060   71.5140  222.1070 N   0  0  0  0  0  0  0  0  0  0  0  0
  139.6370   70.1370  224.0340 C   0  0  0  0  0  0  0  0  0  0  0  0
  140.2034   67.1360  228.4428 H   0  0  0  0  0  0  0  0  0  0  0  0
  138.6829   66.4115  226.6144 H   0  0  0  0  0  0  0  0  0  0  0  0
  138.4610   67.8468  224.5903 H   0  0  0  0  0  0  0  0  0  0  0  0
  141.4864   69.2667  228.2589 H   0  0  0  0  0  0  0  0  0  0  0  0
  141.6189   71.3540  227.2760 H   0  0  0  0  0  0  0  0  0  0  0  0
  142.4314   70.7959  225.7871 H   0  0  0  0  0  0  0  0  0  0  0  0
  139.7425   72.2577  225.9903 H   0  0  0  0  0  0  0  0  0  0  0  0
  141.2553   72.9092  225.3083 H   0  0  0  0  0  0  0  0  0  0  0  0
  139.2829   74.8332  219.4183 H   0  0  0  0  0  0  0  0  0  0  0  0
  138.1413   75.3661  220.6478 H   0  0  0  0  0  0  0  0  0  0  0  0
  140.4737   77.0905  219.5457 H   0  0  0  0  0  0  0  0  0  0  0  0
  138.7553   77.2116  218.9876 H   0  0  0  0  0  0  0  0  0  0  0  0
  140.5300   79.0323  219.9622 H   0  0  0  0  0  0  0  0  0  0  0  0
  138.9569   79.8427  220.5745 H   0  0  0  0  0  0  0  0  0  0  0  0
  140.0480   79.1558  222.7865 H   0  0  0  0  0  0  0  0  0  0  0  0
  142.2085   78.5473  221.3205 H   0  0  0  0  0  0  0  0  0  0  0  0
  142.3621   80.3110  221.0325 H   0  0  0  0  0  0  0  0  0  0  0  0
  142.4433   78.8521  223.7141 H   0  0  0  0  0  0  0  0  0  0  0  0
  143.7846   79.7179  222.9239 H   0  0  0  0  0  0  0  0  0  0  0  0
  142.9590   81.4300  224.1790 H   0  0  0  0  0  0  0  0  0  0  0  0
  141.3430   82.7509  223.1730 H   0  0  0  0  0  0  0  0  0  0  0  0
  142.2236   81.9143  221.8315 H   0  0  0  0  0  0  0  0  0  0  0  0
  139.4964   81.2639  223.0074 H   0  0  0  0  0  0  0  0  0  0  0  0
  139.9270   81.6637  221.3084 H   0  0  0  0  0  0  0  0  0  0  0  0
  139.7318   78.1433  222.8858 H   0  0  0  0  0  0  0  0  0  0  0  0
  138.6438   76.7620  222.6039 H   0  0  0  0  0  0  0  0  0  0  0  0
  141.4524   76.9462  221.3689 H   0  0  0  0  0  0  0  0  0  0  0  0
  141.1795   76.1749  222.9303 H   0  0  0  0  0  0  0  0  0  0  0  0
  143.8295   73.3083  219.3445 H   0  0  0  0  0  0  0  0  0  0  0  0
  144.6835   72.3998  220.6685 H   0  0  0  0  0  0  0  0  0  0  0  0
  144.5108   71.7463  217.7253 H   0  0  0  0  0  0  0  0  0  0  0  0
  145.9676   72.0439  218.7693 H   0  0  0  0  0  0  0  0  0  0  0  0
  147.2066   70.0120  218.6681 H   0  0  0  0  0  0  0  0  0  0  0  0
  147.2247   67.5971  219.1631 H   0  0  0  0  0  0  0  0  0  0  0  0
  145.1403   66.3940  219.7600 H   0  0  0  0  0  0  0  0  0  0  0  0
  142.9972   67.6358  219.8643 H   0  0  0  0  0  0  0  0  0  0  0  0
  142.3207   70.5287  218.3377 H   0  0  0  0  0  0  0  0  0  0  0  0
  141.8760   69.7792  219.9212 H   0  0  0  0  0  0  0  0  0  0  0  0
  138.5653   70.3303  223.8787 H   0  0  0  0  0  0  0  0  0  0  0  0
  140.0264   69.5834  223.1669 H   0  0  0  0  0  0  0  0  0  0  0  0
  1  2  2  0
  2  3  1  0
  3  4  2  0
  4  5  1  0
  5  6  2  0
  5  7  1  0
  7  8  1  0
  8  9  1  0
  9 10  1  0
 10 11  2  0
 11 12  1  0
 12 13  1  0
 13 14  1  0
 14 15  1  0
 15 16  1  0
 16 17  1  0
 17 18  1  0
 18 19  1  0
 19 20  1  0
 20 21  1  0
 21 22  1  0
 22 23  1  0
 16 24  1  0
 24 25  1  0
 12 26  2  0
 26 27  1  0
 27 28  1  0
 28 29  1  0
 29 30  1  0
 30 31  1  0
 31 32  2  0
 32 33  1  0
 33 34  2  0
 34 35  1  0
 35 36  2  0
 36 37  1  0
 27 38  2  0
  9 39  1  0
  6  1  1  0
 38 10  1  0
 39  4  1  0
 25 13  1  0
 37 28  1  0
 23 18  1  0
 36 31  1  0
  1 40  1  0
  2 41  1  0
  3 42  1  0
  6 43  1  0
  7 44  1  0
  7 45  1  0
  8 46  1  0
  8 47  1  0
 14 48  1  0
 14 49  1  0
 15 50  1  0
 15 51  1  0
 17 52  1  0
 17 53  1  0
 18 54  1  0
 19 55  1  0
 19 56  1  0
 20 57  1  0
 20 58  1  0
 21 59  1  0
 22 60  1  0
 22 61  1  0
 23 62  1  0
 23 63  1  0
 24 64  1  0
 24 65  1  0
 25 66  1  0
 25 67  1  0
 29 68  1  0
 29 69  1  0
 30 70  1  0
 30 71  1  0
 32 72  1  0
 33 73  1  0
 34 74  1  0
 35 75  1  0
 37 76  1  0
 37 77  1  0
 39 78  1  0
 39 79  1  0
M  END
>  <smiles>  (14) 
c1ccc2c(c1)CCN(c1nc(N3CCN(CC4CCNCC4)CC3)nc(N3CCc4ccccc4C3)n1)C2

>  <score_type>  (14) 
oracle

>  <origin>  (14) 
autodockgpu

>  <m_score__min__energy>  (14) 
-10.470000000000001

>  <m_primary>  (14) 
energy

>  <rmsd>  (14) 
3.6033142793515713

>  <m_score__min__rmsd>  (14) 
3.6033142793515713

>  <meeko>  (14) 
{"free_energy": -9.94, "intermolecular_energy": -11.43, "internal_energy": -1.27, "cluster_size": 32, "cluster_id": 3, "rank_in_cluster": 3}

>  <energy>  (14) 
-9.69

>  <cluster_rmsd>  (14) 
1.23

>  <cluster>  (14) 
2

$$$$

     RDKit          3D

 79 85  0  0  0  0  0  0  0  0999 V2000
  142.1180   80.8100  222.4920 C   0  0  0  0  0  0  0  0  0  0  0  0
  141.5740   80.3350  223.6700 C   0  0  0  0  0  0  0  0  0  0  0  0
  141.1040   79.0230  223.6960 C   0  0  0  0  0  0  0  0  0  0  0  0
  141.1640   78.1960  222.5940 C   0  0  0  0  0  0  0  0  0  0  0  0
  141.7140   78.7170  221.4460 C   0  0  0  0  0  0  0  0  0  0  0  0
  142.1980   80.0110  221.3600 C   0  0  0  0  0  0  0  0  0  0  0  0
  141.8230   77.8970  220.1950 C   0  0  0  0  0  0  0  0  0  0  0  0
  140.6600   76.9280  220.1690 C   0  0  0  0  0  0  0  0  0  0  0  0
  140.6720   76.1960  221.4190 N   0  0  0  0  0  0  0  0  0  0  0  0
  140.7170   74.7690  221.3580 C   0  0  0  0  0  0  0  0  0  0  0  0
  141.2790   74.1190  220.2980 N   0  0  0  0  0  0  0  0  0  0  0  0
  141.3250   72.7940  220.2330 C   0  0  0  0  0  0  0  0  0  0  0  0
  141.9020   72.1030  219.1450 N   0  0  0  0  0  0  0  0  0  0  0  0
  141.3540   72.1230  217.8020 C   0  0  0  0  0  0  0  0  0  0  0  0
  141.8770   70.8190  217.1530 C   0  0  0  0  0  0  0  0  0  0  0  0
  143.2820   70.8540  216.9810 N   0  0  0  0  0  0  0  0  0  0  0  0
  143.8830   69.5830  216.8720 C   0  0  0  0  0  0  0  0  0  0  0  0
  144.8230   69.1340  217.9280 C   0  0  0  0  0  0  0  0  0  0  0  0
  144.0600   68.2140  218.9030 C   0  0  0  0  0  0  0  0  0  0  0  0
  144.8350   68.1070  220.1880 C   0  0  0  0  0  0  0  0  0  0  0  0
  146.1960   67.7350  219.8440 N   0  0  0  0  0  0  0  0  0  0  0  0
  146.3050   67.2550  218.4990 C   0  0  0  0  0  0  0  0  0  0  0  0
  146.0200   68.3590  217.4940 C   0  0  0  0  0  0  0  0  0  0  0  0
  143.9360   71.5620  218.0770 C   0  0  0  0  0  0  0  0  0  0  0  0
  143.1190   71.3110  219.3290 C   0  0  0  0  0  0  0  0  0  0  0  0
  140.8010   72.0910  221.2450 N   0  0  0  0  0  0  0  0  0  0  0  0
  140.2390   72.6560  222.3040 C   0  0  0  0  0  0  0  0  0  0  0  0
  139.7080   71.8270  223.3310 N   0  0  0  0  0  0  0  0  0  0  0  0
  138.5890   70.9760  223.0060 C   0  0  0  0  0  0  0  0  0  0  0  0
  138.1270   70.1580  224.1860 C   0  0  0  0  0  0  0  0  0  0  0  0
  139.2610   69.5580  224.9290 C   0  0  0  0  0  0  0  0  0  0  0  0
  139.2550   68.2430  225.3490 C   0  0  0  0  0  0  0  0  0  0  0  0
  140.3480   67.7870  226.0240 C   0  0  0  0  0  0  0  0  0  0  0  0
  141.4400   68.6010  226.2900 C   0  0  0  0  0  0  0  0  0  0  0  0
  141.4190   69.9110  225.8600 C   0  0  0  0  0  0  0  0  0  0  0  0
  140.3430   70.4060  225.1800 C   0  0  0  0  0  0  0  0  0  0  0  0
  140.2340   71.7990  224.6820 C   0  0  0  0  0  0  0  0  0  0  0  0
  140.2020   74.0010  222.3540 N   0  0  0  0  0  0  0  0  0  0  0  0
  140.6390   76.8180  222.7210 C   0  0  0  0  0  0  0  0  0  0  0  0
  142.4953   81.8424  222.4506 H   0  0  0  0  0  0  0  0  0  0  0  0
  141.5135   80.9747  224.5628 H   0  0  0  0  0  0  0  0  0  0  0  0
  140.6698   78.6334  224.6286 H   0  0  0  0  0  0  0  0  0  0  0  0
  142.6321   80.3937  220.4245 H   0  0  0  0  0  0  0  0  0  0  0  0
  141.7819   78.5535  219.3134 H   0  0  0  0  0  0  0  0  0  0  0  0
  142.7771   77.3499  220.1782 H   0  0  0  0  0  0  0  0  0  0  0  0
  139.7140   77.4800  220.0666 H   0  0  0  0  0  0  0  0  0  0  0  0
  140.7505   76.2386  219.3166 H   0  0  0  0  0  0  0  0  0  0  0  0
  140.2544   72.1297  217.8304 H   0  0  0  0  0  0  0  0  0  0  0  0
  141.6536   73.0201  217.2404 H   0  0  0  0  0  0  0  0  0  0  0  0
  141.6169   69.9682  217.7999 H   0  0  0  0  0  0  0  0  0  0  0  0
  141.4099   70.7141  216.1626 H   0  0  0  0  0  0  0  0  0  0  0  0
  143.0685   68.8448  216.8317 H   0  0  0  0  0  0  0  0  0  0  0  0
  144.5168   69.6692  215.9771 H   0  0  0  0  0  0  0  0  0  0  0  0
  145.1990   70.0746  218.3568 H   0  0  0  0  0  0  0  0  0  0  0  0
  143.0655   68.6375  219.1069 H   0  0  0  0  0  0  0  0  0  0  0  0
  143.9441   67.2156  218.4561 H   0  0  0  0  0  0  0  0  0  0  0  0
  144.8305   69.0744  220.7116 H   0  0  0  0  0  0  0  0  0  0  0  0
  144.3832   67.3562  220.8530 H   0  0  0  0  0  0  0  0  0  0  0  0
  146.6230   67.1050  220.5320 H   0  0  0  0  0  0  0  0  0  0  0  0
  147.3245   66.8759  218.3353 H   0  0  0  0  0  0  0  0  0  0  0  0
  145.5644   66.4545  218.3549 H   0  0  0  0  0  0  0  0  0  0  0  0
  146.8886   69.0311  217.4325 H   0  0  0  0  0  0  0  0  0  0  0  0
  145.8283   67.9134  216.5067 H   0  0  0  0  0  0  0  0  0  0  0  0
  144.9592   71.1817  218.2130 H   0  0  0  0  0  0  0  0  0  0  0  0
  143.9975   72.6391  217.8623 H   0  0  0  0  0  0  0  0  0  0  0  0
  142.8754   70.2426  219.4253 H   0  0  0  0  0  0  0  0  0  0  0  0
  143.6628   71.5909  220.2433 H   0  0  0  0  0  0  0  0  0  0  0  0
  137.7542   71.6054  222.6639 H   0  0  0  0  0  0  0  0  0  0  0  0
  138.9154   70.2778  222.2211 H   0  0  0  0  0  0  0  0  0  0  0  0
  137.5609   70.8089  224.8685 H   0  0  0  0  0  0  0  0  0  0  0  0
  137.5011   69.3378  223.8044 H   0  0  0  0  0  0  0  0  0  0  0  0
  138.3971   67.5852  225.1458 H   0  0  0  0  0  0  0  0  0  0  0  0
  140.3649   66.7424  226.3682 H   0  0  0  0  0  0  0  0  0  0  0  0
  142.3098   68.2069  226.8360 H   0  0  0  0  0  0  0  0  0  0  0  0
  142.2789   70.5650  226.0671 H   0  0  0  0  0  0  0  0  0  0  0  0
  139.5608   72.3656  225.3422 H   0  0  0  0  0  0  0  0  0  0  0  0
  141.2375   72.2496  224.6774 H   0  0  0  0  0  0  0  0  0  0  0  0
  139.6040   76.8475  223.0925 H   0  0  0  0  0  0  0  0  0  0  0  0
  141.2532   76.2434  223.4300 H   0  0  0  0  0  0  0  0  0  0  0  0
  1  2  2  0
  2  3  1  0
  3  4  2  0
  4  5  1  0
  5  6  2  0
  5  7  1  0
  7  8  1  0
  8  9  1  0
  9 10  1  0
 10 11  2  0
 11 12  1  0
 12 13  1  0
 13 14  1  0
 14 15  1  0
 15 16  1  0
 16 17  1  0
 17 18  1  0
 18 19  1  0
 19 20  1  0
 20 21  1  0
 21 22  1  0
 22 23  1  0
 16 24  1  0
 24 25  1  0
 12 26  2  0
 26 27  1  0
 27 28  1  0
 28 29  1  0
 29 30  1  0
 30 31  1  0
 31 32  2  0
 32 33  1  0
 33 34  2  0
 34 35  1  0
 35 36  2  0
 36 37  1  0
 27 38  2  0
  9 39  1  0
  6  1  1  0
 38 10  1  0
 39  4  1  0
 25 13  1  0
 37 28  1  0
 23 18  1  0
 36 31  1  0
  1 40  1  0
  2 41  1  0
  3 42  1  0
  6 43  1  0
  7 44  1  0
  7 45  1  0
  8 46  1  0
  8 47  1  0
 14 48  1  0
 14 49  1  0
 15 50  1  0
 15 51  1  0
 17 52  1  0
 17 53  1  0
 18 54  1  0
 19 55  1  0
 19 56  1  0
 20 57  1  0
 20 58  1  0
 21 59  1  0
 22 60  1  0
 22 61  1  0
 23 62  1  0
 23 63  1  0
 24 64  1  0
 24 65  1  0
 25 66  1  0
 25 67  1  0
 29 68  1  0
 29 69  1  0
 30 70  1  0
 30 71  1  0
 32 72  1  0
 33 73  1  0
 34 74  1  0
 35 75  1  0
 37 76  1  0
 37 77  1  0
 39 78  1  0
 39 79  1  0
M  END
>  <smiles>  (15) 
c1ccc2c(c1)CCN(c1nc(N3CCN(CC4CCNCC4)CC3)nc(N3CCc4ccccc4C3)n1)C2

>  <score_type>  (15) 
oracle

>  <origin>  (15) 
autodockgpu

>  <m_score__min__energy>  (15) 
-10.470000000000001

>  <m_primary>  (15) 
energy

>  <rmsd>  (15) 
10.905282202525376

>  <m_score__min__rmsd>  (15) 
10.905282202525376

>  <meeko>  (15) 
{"free_energy": -10.2, "intermolecular_energy": -11.69, "internal_energy": -1.27, "cluster_size": 7, "cluster_id": 2, "rank_in_cluster": 1}

>  <energy>  (15) 
-9.51

>  <cluster_rmsd>  (15) 
1.51

>  <cluster>  (15) 
2

$$$$

     RDKit          3D

 79 85  0  0  0  0  0  0  0  0999 V2000
  141.8380   81.0080  222.3380 C   0  0  0  0  0  0  0  0  0  0  0  0
  141.3810   80.5150  223.5450 C   0  0  0  0  0  0  0  0  0  0  0  0
  141.0660   79.1590  223.6250 C   0  0  0  0  0  0  0  0  0  0  0  0
  141.1960   78.3060  222.5490 C   0  0  0  0  0  0  0  0  0  0  0  0
  141.6540   78.8470  221.3700 C   0  0  0  0  0  0  0  0  0  0  0  0
  141.9820   80.1840  221.2300 C   0  0  0  0  0  0  0  0  0  0  0  0
  141.8270   78.0030  220.1430 C   0  0  0  0  0  0  0  0  0  0  0  0
  140.7840   76.9060  220.1800 C   0  0  0  0  0  0  0  0  0  0  0  0
  140.9110   76.2240  221.4520 N   0  0  0  0  0  0  0  0  0  0  0  0
  141.1190   74.8100  221.4330 C   0  0  0  0  0  0  0  0  0  0  0  0
  140.3570   73.9680  222.1910 N   0  0  0  0  0  0  0  0  0  0  0  0
  140.5440   72.6540  222.1780 C   0  0  0  0  0  0  0  0  0  0  0  0
  139.7670   71.7660  222.9550 N   0  0  0  0  0  0  0  0  0  0  0  0
  138.3710   71.4760  222.6840 C   0  0  0  0  0  0  0  0  0  0  0  0
  137.8020   71.0170  224.0480 C   0  0  0  0  0  0  0  0  0  0  0  0
  138.3650   69.7830  224.4540 N   0  0  0  0  0  0  0  0  0  0  0  0
  138.2950   69.5440  225.8420 C   0  0  0  0  0  0  0  0  0  0  0  0
  139.5500   69.3420  226.6050 C   0  0  0  0  0  0  0  0  0  0  0  0
  139.5870   70.3610  227.7640 C   0  0  0  0  0  0  0  0  0  0  0  0
  140.9990   70.4820  228.2680 C   0  0  0  0  0  0  0  0  0  0  0  0
  141.4800   69.1400  228.5430 N   0  0  0  0  0  0  0  0  0  0  0  0
  140.4150   68.1810  228.5950 C   0  0  0  0  0  0  0  0  0  0  0  0
  139.7620   68.0070  227.2350 C   0  0  0  0  0  0  0  0  0  0  0  0
  139.7640   69.6780  224.0560 C   0  0  0  0  0  0  0  0  0  0  0  0
  140.3540   71.0740  224.1030 C   0  0  0  0  0  0  0  0  0  0  0  0
  141.5110   72.1570  221.3960 N   0  0  0  0  0  0  0  0  0  0  0  0
  142.2870   72.9160  220.6350 C   0  0  0  0  0  0  0  0  0  0  0  0
  143.2890   72.2980  219.8360 N   0  0  0  0  0  0  0  0  0  0  0  0
  144.6170   72.8600  219.8560 C   0  0  0  0  0  0  0  0  0  0  0  0
  145.5730   72.1110  218.9630 C   0  0  0  0  0  0  0  0  0  0  0  0
  145.4400   70.6420  219.1100 C   0  0  0  0  0  0  0  0  0  0  0  0
  146.5360   69.8090  219.2190 C   0  0  0  0  0  0  0  0  0  0  0  0
  146.3060   68.4710  219.3520 C   0  0  0  0  0  0  0  0  0  0  0  0
  145.0220   67.9460  219.3790 C   0  0  0  0  0  0  0  0  0  0  0  0
  143.9460   68.8000  219.2670 C   0  0  0  0  0  0  0  0  0  0  0  0
  144.1340   70.1450  219.1330 C   0  0  0  0  0  0  0  0  0  0  0  0
  143.0370   71.1370  219.0050 C   0  0  0  0  0  0  0  0  0  0  0  0
  142.0830   74.2470  220.6590 N   0  0  0  0  0  0  0  0  0  0  0  0
  140.8370   76.8820  222.7330 C   0  0  0  0  0  0  0  0  0  0  0  0
  142.0929   82.0747  222.2532 H   0  0  0  0  0  0  0  0  0  0  0  0
  141.2687   81.1739  224.4186 H   0  0  0  0  0  0  0  0  0  0  0  0
  140.7007   78.7550  224.5807 H   0  0  0  0  0  0  0  0  0  0  0  0
  142.3454   80.5815  220.2709 H   0  0  0  0  0  0  0  0  0  0  0  0
  141.6885   78.6198  219.2428 H   0  0  0  0  0  0  0  0  0  0  0  0
  142.8375   77.5693  220.1164 H   0  0  0  0  0  0  0  0  0  0  0  0
  139.7782   77.3414  220.0865 H   0  0  0  0  0  0  0  0  0  0  0  0
  140.9334   76.2025  219.3477 H   0  0  0  0  0  0  0  0  0  0  0  0
  137.8486   72.3758  222.3271 H   0  0  0  0  0  0  0  0  0  0  0  0
  138.2452   70.7152  221.8996 H   0  0  0  0  0  0  0  0  0  0  0  0
  138.0297   71.7809  224.8061 H   0  0  0  0  0  0  0  0  0  0  0  0
  136.7153   70.8835  223.9424 H   0  0  0  0  0  0  0  0  0  0  0  0
  137.7810   70.4066  226.2912 H   0  0  0  0  0  0  0  0  0  0  0  0
  137.7850   68.5721  225.9149 H   0  0  0  0  0  0  0  0  0  0  0  0
  140.3361   69.4562  225.8441 H   0  0  0  0  0  0  0  0  0  0  0  0
  139.2390   71.3406  227.4045 H   0  0  0  0  0  0  0  0  0  0  0  0
  138.9308   70.0201  228.5783 H   0  0  0  0  0  0  0  0  0  0  0  0
  141.6310   70.9585  227.5041 H   0  0  0  0  0  0  0  0  0  0  0  0
  141.0346   71.1005  229.1770 H   0  0  0  0  0  0  0  0  0  0  0  0
  142.1000   69.0960  229.3580 H   0  0  0  0  0  0  0  0  0  0  0  0
  140.8204   67.2129  228.9243 H   0  0  0  0  0  0  0  0  0  0  0  0
  139.6543   68.5450  229.3013 H   0  0  0  0  0  0  0  0  0  0  0  0
  140.4141   67.3983  226.5914 H   0  0  0  0  0  0  0  0  0  0  0  0
  138.7915   67.5041  227.3584 H   0  0  0  0  0  0  0  0  0  0  0  0
  140.3041   69.0178  224.7506 H   0  0  0  0  0  0  0  0  0  0  0  0
  139.8497   69.2536  223.0448 H   0  0  0  0  0  0  0  0  0  0  0  0
  140.0807   71.5790  225.0412 H   0  0  0  0  0  0  0  0  0  0  0  0
  141.4532   71.0621  224.0634 H   0  0  0  0  0  0  0  0  0  0  0  0
  144.5631   73.9052  219.5175 H   0  0  0  0  0  0  0  0  0  0  0  0
  144.9954   72.7883  220.8864 H   0  0  0  0  0  0  0  0  0  0  0  0
  145.3678   72.3826  217.9170 H   0  0  0  0  0  0  0  0  0  0  0  0
  146.5966   72.3889  219.2546 H   0  0  0  0  0  0  0  0  0  0  0  0
  147.5598   70.2108  219.1992 H   0  0  0  0  0  0  0  0  0  0  0  0
  147.1638   67.7881  219.4405 H   0  0  0  0  0  0  0  0  0  0  0  0
  144.8649   66.8628  219.4883 H   0  0  0  0  0  0  0  0  0  0  0  0
  142.9243   68.3929  219.2858 H   0  0  0  0  0  0  0  0  0  0  0  0
  142.9604   71.4556  217.9549 H   0  0  0  0  0  0  0  0  0  0  0  0
  142.0984   70.6670  219.3337 H   0  0  0  0  0  0  0  0  0  0  0  0
  139.8146   76.8053  223.1314 H   0  0  0  0  0  0  0  0  0  0  0  0
  141.5302   76.4064  223.4424 H   0  0  0  0  0  0  0  0  0  0  0  0
  1  2  2  0
  2  3  1  0
  3  4  2  0
  4  5  1  0
  5  6  2  0
  5  7  1  0
  7  8  1  0
  8  9  1  0
  9 10  1  0
 10 11  2  0
 11 12  1  0
 12 13  1  0
 13 14  1  0
 14 15  1  0
 15 16  1  0
 16 17  1  0
 17 18  1  0
 18 19  1  0
 19 20  1  0
 20 21  1  0
 21 22  1  0
 22 23  1  0
 16 24  1  0
 24 25  1  0
 12 26  2  0
 26 27  1  0
 27 28  1  0
 28 29  1  0
 29 30  1  0
 30 31  1  0
 31 32  2  0
 32 33  1  0
 33 34  2  0
 34 35  1  0
 35 36  2  0
 36 37  1  0
 27 38  2  0
  9 39  1  0
  6  1  1  0
 38 10  1  0
 39  4  1  0
 25 13  1  0
 37 28  1  0
 23 18  1  0
 36 31  1  0
  1 40  1  0
  2 41  1  0
  3 42  1  0
  6 43  1  0
  7 44  1  0
  7 45  1  0
  8 46  1  0
  8 47  1  0
 14 48  1  0
 14 49  1  0
 15 50  1  0
 15 51  1  0
 17 52  1  0
 17 53  1  0
 18 54  1  0
 19 55  1  0
 19 56  1  0
 20 57  1  0
 20 58  1  0
 21 59  1  0
 22 60  1  0
 22 61  1  0
 23 62  1  0
 23 63  1  0
 24 64  1  0
 24 65  1  0
 25 66  1  0
 25 67  1  0
 29 68  1  0
 29 69  1  0
 30 70  1  0
 30 71  1  0
 32 72  1  0
 33 73  1  0
 34 74  1  0
 35 75  1  0
 37 76  1  0
 37 77  1  0
 39 78  1  0
 39 79  1  0
M  END
>  <smiles>  (16) 
c1ccc2c(c1)CCN(c1nc(N3CCN(CC4CCNCC4)CC3)nc(N3CCc4ccccc4C3)n1)C2

>  <score_type>  (16) 
oracle

>  <origin>  (16) 
autodockgpu

>  <m_score__min__energy>  (16) 
-10.470000000000001

>  <m_primary>  (16) 
energy

>  <rmsd>  (16) 
10.799359242599413

>  <m_score__min__rmsd>  (16) 
10.799359242599413

>  <meeko>  (16) 
{"free_energy": -10.42, "intermolecular_energy": -11.91, "internal_energy": -1.27, "cluster_size": 9, "cluster_id": 1, "rank_in_cluster": 3}

>  <energy>  (16) 
-9.45

>  <cluster_rmsd>  (16) 
1.15

>  <cluster>  (16) 
2

$$$$

     RDKit          3D

 79 85  0  0  0  0  0  0  0  0999 V2000
  145.8860   68.6580  218.0100 C   0  0  0  0  0  0  0  0  0  0  0  0
  146.6090   69.6310  218.6730 C   0  0  0  0  0  0  0  0  0  0  0  0
  145.9060   70.6230  219.3540 C   0  0  0  0  0  0  0  0  0  0  0  0
  144.5280   70.6620  219.3860 C   0  0  0  0  0  0  0  0  0  0  0  0
  143.8550   69.6710  218.7100 C   0  0  0  0  0  0  0  0  0  0  0  0
  144.4970   68.6600  218.0170 C   0  0  0  0  0  0  0  0  0  0  0  0
  142.3570   69.6270  218.6840 C   0  0  0  0  0  0  0  0  0  0  0  0
  141.8460   71.0510  218.7520 C   0  0  0  0  0  0  0  0  0  0  0  0
  142.4500   71.6780  219.9100 N   0  0  0  0  0  0  0  0  0  0  0  0
  141.5810   72.2560  220.8860 C   0  0  0  0  0  0  0  0  0  0  0  0
  141.2820   73.5870  220.8750 N   0  0  0  0  0  0  0  0  0  0  0  0
  140.4750   74.1310  221.7770 C   0  0  0  0  0  0  0  0  0  0  0  0
  140.1540   75.5070  221.7820 N   0  0  0  0  0  0  0  0  0  0  0  0
  138.9310   76.0420  222.3510 C   0  0  0  0  0  0  0  0  0  0  0  0
  138.7150   77.3820  221.6080 C   0  0  0  0  0  0  0  0  0  0  0  0
  139.7200   78.3230  221.9390 N   0  0  0  0  0  0  0  0  0  0  0  0
  139.8920   79.3440  220.9810 C   0  0  0  0  0  0  0  0  0  0  0  0
  141.1130   79.3480  220.1390 C   0  0  0  0  0  0  0  0  0  0  0  0
  140.7710   78.7010  218.7790 C   0  0  0  0  0  0  0  0  0  0  0  0
  142.0460   78.2940  218.0930 C   0  0  0  0  0  0  0  0  0  0  0  0
  142.9230   79.4510  218.0820 N   0  0  0  0  0  0  0  0  0  0  0  0
  142.2240   80.6660  218.3820 C   0  0  0  0  0  0  0  0  0  0  0  0
  141.7180   80.6710  219.8150 C   0  0  0  0  0  0  0  0  0  0  0  0
  141.0130   77.6770  222.1350 C   0  0  0  0  0  0  0  0  0  0  0  0
  141.0700   76.4860  221.1980 C   0  0  0  0  0  0  0  0  0  0  0  0
  139.9470   73.3370  222.7180 N   0  0  0  0  0  0  0  0  0  0  0  0
  140.1950   72.0370  222.7880 C   0  0  0  0  0  0  0  0  0  0  0  0
  139.5890   71.2730  223.8240 N   0  0  0  0  0  0  0  0  0  0  0  0
  138.5070   70.3860  223.4720 C   0  0  0  0  0  0  0  0  0  0  0  0
  137.9580   69.6460  224.6650 C   0  0  0  0  0  0  0  0  0  0  0  0
  139.0330   69.1150  225.5370 C   0  0  0  0  0  0  0  0  0  0  0  0
  139.0040   67.8330  226.0470 C   0  0  0  0  0  0  0  0  0  0  0  0
  140.0420   67.4400  226.8380 C   0  0  0  0  0  0  0  0  0  0  0  0
  141.1020   68.2860  227.1320 C   0  0  0  0  0  0  0  0  0  0  0  0
  141.1060   69.5620  226.6110 C   0  0  0  0  0  0  0  0  0  0  0  0
  140.0840   69.9930  225.8140 C   0  0  0  0  0  0  0  0  0  0  0  0
  140.0050   71.3470  225.2120 C   0  0  0  0  0  0  0  0  0  0  0  0
  141.0150   71.5020  221.8640 N   0  0  0  0  0  0  0  0  0  0  0  0
  143.8730   71.7560  220.1370 C   0  0  0  0  0  0  0  0  0  0  0  0
  146.4211   67.8659  217.4657 H   0  0  0  0  0  0  0  0  0  0  0  0
  147.7089   69.6228  218.6636 H   0  0  0  0  0  0  0  0  0  0  0  0
  146.4708   71.4032  219.8853 H   0  0  0  0  0  0  0  0  0  0  0  0
  143.9256   67.8827  217.4885 H   0  0  0  0  0  0  0  0  0  0  0  0
  142.0136   69.1511  217.7536 H   0  0  0  0  0  0  0  0  0  0  0  0
  141.9769   69.0434  219.5355 H   0  0  0  0  0  0  0  0  0  0  0  0
  142.1303   71.5956  217.8395 H   0  0  0  0  0  0  0  0  0  0  0  0
  140.7491   71.0645  218.8334 H   0  0  0  0  0  0  0  0  0  0  0  0
  138.0877   75.3583  222.1739 H   0  0  0  0  0  0  0  0  0  0  0  0
  138.9980   76.1730  223.4411 H   0  0  0  0  0  0  0  0  0  0  0  0
  138.7396   77.1983  220.5237 H   0  0  0  0  0  0  0  0  0  0  0  0
  137.7412   77.7937  221.9116 H   0  0  0  0  0  0  0  0  0  0  0  0
  139.0310   79.2925  220.2983 H   0  0  0  0  0  0  0  0  0  0  0  0
  139.9888   80.2572  221.5865 H   0  0  0  0  0  0  0  0  0  0  0  0
  141.8510   78.8095  220.7517 H   0  0  0  0  0  0  0  0  0  0  0  0
  140.1407   77.8142  218.9411 H   0  0  0  0  0  0  0  0  0  0  0  0
  140.2268   79.4225  218.1519 H   0  0  0  0  0  0  0  0  0  0  0  0
  142.5210   77.4677  218.6422 H   0  0  0  0  0  0  0  0  0  0  0  0
  141.8425   77.9518  217.0676 H   0  0  0  0  0  0  0  0  0  0  0  0
  143.4900   79.5140  217.2290 H   0  0  0  0  0  0  0  0  0  0  0  0
  142.9065   81.5168  218.2398 H   0  0  0  0  0  0  0  0  0  0  0  0
  141.3587   80.7451  217.7074 H   0  0  0  0  0  0  0  0  0  0  0  0
  142.5575   80.8664  220.4985 H   0  0  0  0  0  0  0  0  0  0  0  0
  140.9573   81.4572  219.9299 H   0  0  0  0  0  0  0  0  0  0  0  0
  141.8248   78.3807  221.8988 H   0  0  0  0  0  0  0  0  0  0  0  0
  141.1328   77.3557  223.1802 H   0  0  0  0  0  0  0  0  0  0  0  0
  140.7399   76.7713  220.1882 H   0  0  0  0  0  0  0  0  0  0  0  0
  142.0904   76.0888  221.0930 H   0  0  0  0  0  0  0  0  0  0  0  0
  137.6974   70.9784  223.0208 H   0  0  0  0  0  0  0  0  0  0  0  0
  138.9018   69.6393  222.7673 H   0  0  0  0  0  0  0  0  0  0  0  0
  137.3330   70.3347  225.2524 H   0  0  0  0  0  0  0  0  0  0  0  0
  137.3720   68.7926  224.2931 H   0  0  0  0  0  0  0  0  0  0  0  0
  138.1707   67.1509  225.8225 H   0  0  0  0  0  0  0  0  0  0  0  0
  140.0395   66.4224  227.2556 H   0  0  0  0  0  0  0  0  0  0  0  0
  141.9280   67.9428  227.7723 H   0  0  0  0  0  0  0  0  0  0  0  0
  141.9412   70.2405  226.8395 H   0  0  0  0  0  0  0  0  0  0  0  0
  139.2766   71.9494  225.7747 H   0  0  0  0  0  0  0  0  0  0  0  0
  141.0019   71.8099  225.2559 H   0  0  0  0  0  0  0  0  0  0  0  0
  144.2524   72.7267  219.7852 H   0  0  0  0  0  0  0  0  0  0  0  0
  144.0896   71.6587  221.2111 H   0  0  0  0  0  0  0  0  0  0  0  0
  1  2  2  0
  2  3  1  0
  3  4  2  0
  4  5  1  0
  5  6  2  0
  5  7  1  0
  7  8  1  0
  8  9  1  0
  9 10  1  0
 10 11  2  0
 11 12  1  0
 12 13  1  0
 13 14  1  0
 14 15  1  0
 15 16  1  0
 16 17  1  0
 17 18  1  0
 18 19  1  0
 19 20  1  0
 20 21  1  0
 21 22  1  0
 22 23  1  0
 16 24  1  0
 24 25  1  0
 12 26  2  0
 26 27  1  0
 27 28  1  0
 28 29  1  0
 29 30  1  0
 30 31  1  0
 31 32  2  0
 32 33  1  0
 33 34  2  0
 34 35  1  0
 35 36  2  0
 36 37  1  0
 27 38  2  0
  9 39  1  0
  6  1  1  0
 38 10  1  0
 39  4  1  0
 25 13  1  0
 37 28  1  0
 23 18  1  0
 36 31  1  0
  1 40  1  0
  2 41  1  0
  3 42  1  0
  6 43  1  0
  7 44  1  0
  7 45  1  0
  8 46  1  0
  8 47  1  0
 14 48  1  0
 14 49  1  0
 15 50  1  0
 15 51  1  0
 17 52  1  0
 17 53  1  0
 18 54  1  0
 19 55  1  0
 19 56  1  0
 20 57  1  0
 20 58  1  0
 21 59  1  0
 22 60  1  0
 22 61  1  0
 23 62  1  0
 23 63  1  0
 24 64  1  0
 24 65  1  0
 25 66  1  0
 25 67  1  0
 29 68  1  0
 29 69  1  0
 30 70  1  0
 30 71  1  0
 32 72  1  0
 33 73  1  0
 34 74  1  0
 35 75  1  0
 37 76  1  0
 37 77  1  0
 39 78  1  0
 39 79  1  0
M  END
>  <smiles>  (17) 
c1ccc2c(c1)CCN(c1nc(N3CCN(CC4CCNCC4)CC3)nc(N3CCc4ccccc4C3)n1)C2

>  <score_type>  (17) 
oracle

>  <origin>  (17) 
autodockgpu

>  <m_score__min__energy>  (17) 
-10.470000000000001

>  <m_primary>  (17) 
energy

>  <rmsd>  (17) 
3.9563066215670695

>  <m_score__min__rmsd>  (17) 
3.9563066215670695

>  <meeko>  (17) 
{"free_energy": -9.63, "intermolecular_energy": -11.12, "internal_energy": -1.23, "cluster_size": 32, "cluster_id": 3, "rank_in_cluster": 18}

>  <energy>  (17) 
-10.01

>  <cluster_rmsd>  (17) 
0.0

>  <cluster>  (17) 
3

$$$$

     RDKit          3D

 79 85  0  0  0  0  0  0  0  0999 V2000
  145.4790   67.4310  218.0730 C   0  0  0  0  0  0  0  0  0  0  0  0
  146.2930   68.3510  218.7040 C   0  0  0  0  0  0  0  0  0  0  0  0
  145.6910   69.4430  219.3280 C   0  0  0  0  0  0  0  0  0  0  0  0
  144.3250   69.6290  219.3340 C   0  0  0  0  0  0  0  0  0  0  0  0
  143.5590   68.6840  218.6910 C   0  0  0  0  0  0  0  0  0  0  0  0
  144.0990   67.5800  218.0550 C   0  0  0  0  0  0  0  0  0  0  0  0
  142.0650   68.7980  218.6400 C   0  0  0  0  0  0  0  0  0  0  0  0
  141.7080   70.2690  218.6360 C   0  0  0  0  0  0  0  0  0  0  0  0
  142.3610   70.8810  219.7750 N   0  0  0  0  0  0  0  0  0  0  0  0
  141.5450   71.5930  220.7090 C   0  0  0  0  0  0  0  0  0  0  0  0
  141.2820   72.9230  220.5560 N   0  0  0  0  0  0  0  0  0  0  0  0
  140.5250   73.5900  221.4180 C   0  0  0  0  0  0  0  0  0  0  0  0
  140.2410   74.9670  221.2780 N   0  0  0  0  0  0  0  0  0  0  0  0
  140.6140   75.7470  220.1130 C   0  0  0  0  0  0  0  0  0  0  0  0
  140.6910   77.2020  220.6330 C   0  0  0  0  0  0  0  0  0  0  0  0
  139.4130   77.6850  221.0080 N   0  0  0  0  0  0  0  0  0  0  0  0
  139.4470   78.7610  221.9190 C   0  0  0  0  0  0  0  0  0  0  0  0
  140.7500   79.3840  222.2550 C   0  0  0  0  0  0  0  0  0  0  0  0
  140.4970   80.8410  222.6960 C   0  0  0  0  0  0  0  0  0  0  0  0
  141.7850   81.6120  222.6150 C   0  0  0  0  0  0  0  0  0  0  0  0
  142.7900   80.8580  223.3430 N   0  0  0  0  0  0  0  0  0  0  0  0
  142.2110   79.8490  224.1800 C   0  0  0  0  0  0  0  0  0  0  0  0
  141.5440   78.7630  223.3530 C   0  0  0  0  0  0  0  0  0  0  0  0
  138.5970   76.6300  221.5990 C   0  0  0  0  0  0  0  0  0  0  0  0
  139.5330   75.6910  222.3340 C   0  0  0  0  0  0  0  0  0  0  0  0
  140.0130   72.9240  222.4620 N   0  0  0  0  0  0  0  0  0  0  0  0
  140.2280   71.6330  222.6710 C   0  0  0  0  0  0  0  0  0  0  0  0
  139.6430   71.0110  223.8090 N   0  0  0  0  0  0  0  0  0  0  0  0
  138.8420   69.8290  223.6010 C   0  0  0  0  0  0  0  0  0  0  0  0
  138.2820   69.2800  224.8890 C   0  0  0  0  0  0  0  0  0  0  0  0
  139.2950   69.2480  225.9700 C   0  0  0  0  0  0  0  0  0  0  0  0
  139.4580   68.1550  226.7970 C   0  0  0  0  0  0  0  0  0  0  0  0
  140.4190   68.2260  227.7620 C   0  0  0  0  0  0  0  0  0  0  0  0
  141.2160   69.3500  227.9230 C   0  0  0  0  0  0  0  0  0  0  0  0
  141.0320   70.4290  227.0840 C   0  0  0  0  0  0  0  0  0  0  0  0
  140.0800   70.3970  226.1060 C   0  0  0  0  0  0  0  0  0  0  0  0
  139.8110   71.5080  225.1610 C   0  0  0  0  0  0  0  0  0  0  0  0
  140.9980   70.9720  221.7860 N   0  0  0  0  0  0  0  0  0  0  0  0
  143.7800   70.8200  220.0230 C   0  0  0  0  0  0  0  0  0  0  0  0
  145.9336   66.5622  217.5744 H   0  0  0  0  0  0  0  0  0  0  0  0
  147.3858   68.2258  218.7140 H   0  0  0  0  0  0  0  0  0  0  0  0
  146.3290   70.1827  219.8337 H   0  0  0  0  0  0  0  0  0  0  0  0
  143.4552   66.8440  217.5512 H   0  0  0  0  0  0  0  0  0  0  0  0
  141.6851   68.3192  217.7255 H   0  0  0  0  0  0  0  0  0  0  0  0
  141.6137   68.2976  219.5094 H   0  0  0  0  0  0  0  0  0  0  0  0
  142.0599   70.7379  217.7052 H   0  0  0  0  0  0  0  0  0  0  0  0
  140.6179   70.4022  218.6980 H   0  0  0  0  0  0  0  0  0  0  0  0
  141.5893   75.4211  219.7223 H   0  0  0  0  0  0  0  0  0  0  0  0
  139.8974   75.6345  219.2860 H   0  0  0  0  0  0  0  0  0  0  0  0
  141.3569   77.2347  221.5080 H   0  0  0  0  0  0  0  0  0  0  0  0
  141.0782   77.8388  219.8240 H   0  0  0  0  0  0  0  0  0  0  0  0
  138.8092   79.5547  221.5027 H   0  0  0  0  0  0  0  0  0  0  0  0
  139.1202   78.3106  222.8679 H   0  0  0  0  0  0  0  0  0  0  0  0
  141.3397   79.2598  221.3348 H   0  0  0  0  0  0  0  0  0  0  0  0
  139.7499   81.3018  222.0330 H   0  0  0  0  0  0  0  0  0  0  0  0
  140.1222   80.8547  223.7301 H   0  0  0  0  0  0  0  0  0  0  0  0
  142.0891   81.7264  221.5641 H   0  0  0  0  0  0  0  0  0  0  0  0
  141.6641   82.6160  223.0479 H   0  0  0  0  0  0  0  0  0  0  0  0
  143.4570   81.4580  223.8400 H   0  0  0  0  0  0  0  0  0  0  0  0
  143.0024   79.3960  224.7952 H   0  0  0  0  0  0  0  0  0  0  0  0
  141.4469   80.3208  224.8153 H   0  0  0  0  0  0  0  0  0  0  0  0
  142.3143   78.1071  222.9213 H   0  0  0  0  0  0  0  0  0  0  0  0
  140.8755   78.1732  223.9974 H   0  0  0  0  0  0  0  0  0  0  0  0
  137.8720   77.0650  222.3026 H   0  0  0  0  0  0  0  0  0  0  0  0
  138.0372   76.0901  220.8211 H   0  0  0  0  0  0  0  0  0  0  0  0
  140.2407   76.2581  222.9565 H   0  0  0  0  0  0  0  0  0  0  0  0
  138.9934   75.0135  223.0121 H   0  0  0  0  0  0  0  0  0  0  0  0
  138.0063   70.0818  222.9319 H   0  0  0  0  0  0  0  0  0  0  0  0
  139.4910   69.0572  223.1615 H   0  0  0  0  0  0  0  0  0  0  0  0
  137.4421   69.9141  225.2090 H   0  0  0  0  0  0  0  0  0  0  0  0
  137.9543   68.2467  224.7020 H   0  0  0  0  0  0  0  0  0  0  0  0
  138.8336   67.2567  226.6816 H   0  0  0  0  0  0  0  0  0  0  0  0
  140.5666   67.3666  228.4325 H   0  0  0  0  0  0  0  0  0  0  0  0
  141.9845   69.3802  228.7094 H   0  0  0  0  0  0  0  0  0  0  0  0
  141.6589   71.3249  227.2041 H   0  0  0  0  0  0  0  0  0  0  0  0
  138.8924   72.0284  225.4697 H   0  0  0  0  0  0  0  0  0  0  0  0
  140.6682   72.1971  225.1771 H   0  0  0  0  0  0  0  0  0  0  0  0
  144.2642   71.7279  219.6341 H   0  0  0  0  0  0  0  0  0  0  0  0
  143.9716   70.7514  221.1040 H   0  0  0  0  0  0  0  0  0  0  0  0
  1  2  2  0
  2  3  1  0
  3  4  2  0
  4  5  1  0
  5  6  2  0
  5  7  1  0
  7  8  1  0
  8  9  1  0
  9 10  1  0
 10 11  2  0
 11 12  1  0
 12 13  1  0
 13 14  1  0
 14 15  1  0
 15 16  1  0
 16 17  1  0
 17 18  1  0
 18 19  1  0
 19 20  1  0
 20 21  1  0
 21 22  1  0
 22 23  1  0
 16 24  1  0
 24 25  1  0
 12 26  2  0
 26 27  1  0
 27 28  1  0
 28 29  1  0
 29 30  1  0
 30 31  1  0
 31 32  2  0
 32 33  1  0
 33 34  2  0
 34 35  1  0
 35 36  2  0
 36 37  1  0
 27 38  2  0
  9 39  1  0
  6  1  1  0
 38 10  1  0
 39  4  1  0
 25 13  1  0
 37 28  1  0
 23 18  1  0
 36 31  1  0
  1 40  1  0
  2 41  1  0
  3 42  1  0
  6 43  1  0
  7 44  1  0
  7 45  1  0
  8 46  1  0
  8 47  1  0
 14 48  1  0
 14 49  1  0
 15 50  1  0
 15 51  1  0
 17 52  1  0
 17 53  1  0
 18 54  1  0
 19 55  1  0
 19 56  1  0
 20 57  1  0
 20 58  1  0
 21 59  1  0
 22 60  1  0
 22 61  1  0
 23 62  1  0
 23 63  1  0
 24 64  1  0
 24 65  1  0
 25 66  1  0
 25 67  1  0
 29 68  1  0
 29 69  1  0
 30 70  1  0
 30 71  1  0
 32 72  1  0
 33 73  1  0
 34 74  1  0
 35 75  1  0
 37 76  1  0
 37 77  1  0
 39 78  1  0
 39 79  1  0
M  END
>  <smiles>  (18) 
c1ccc2c(c1)CCN(c1nc(N3CCN(CC4CCNCC4)CC3)nc(N3CCc4ccccc4C3)n1)C2

>  <score_type>  (18) 
oracle

>  <origin>  (18) 
autodockgpu

>  <m_score__min__energy>  (18) 
-10.470000000000001

>  <m_primary>  (18) 
energy

>  <rmsd>  (18) 
3.4847541515563445

>  <m_score__min__rmsd>  (18) 
3.4847541515563445

>  <meeko>  (18) 
{"free_energy": -9.59, "intermolecular_energy": -11.08, "internal_energy": -1.26, "cluster_size": 32, "cluster_id": 3, "rank_in_cluster": 23}

>  <energy>  (18) 
-9.96

>  <cluster_rmsd>  (18) 
0.17

>  <cluster>  (18) 
3

$$$$

     RDKit          3D

 79 85  0  0  0  0  0  0  0  0999 V2000
  132.1030   74.5250  227.3370 C   0  0  0  0  0  0  0  0  0  0  0  0
  132.6290   73.2880  227.0170 C   0  0  0  0  0  0  0  0  0  0  0  0
  133.6300   73.2300  226.0490 C   0  0  0  0  0  0  0  0  0  0  0  0
  134.1050   74.3550  225.4090 C   0  0  0  0  0  0  0  0  0  0  0  0
  133.5470   75.5620  225.7630 C   0  0  0  0  0  0  0  0  0  0  0  0
  132.5520   75.6830  226.7160 C   0  0  0  0  0  0  0  0  0  0  0  0
  133.9940   76.8420  225.1220 C   0  0  0  0  0  0  0  0  0  0  0  0
  134.4180   76.5310  223.7030 C   0  0  0  0  0  0  0  0  0  0  0  0
  135.3990   75.4670  223.7630 N   0  0  0  0  0  0  0  0  0  0  0  0
  136.6720   75.6970  223.1540 C   0  0  0  0  0  0  0  0  0  0  0  0
  137.3880   74.6790  222.5940 N   0  0  0  0  0  0  0  0  0  0  0  0
  138.5700   74.8840  222.0260 C   0  0  0  0  0  0  0  0  0  0  0  0
  139.3270   73.8440  221.4410 N   0  0  0  0  0  0  0  0  0  0  0  0
  138.7870   72.5310  221.1440 C   0  0  0  0  0  0  0  0  0  0  0  0
  140.0230   71.6000  221.1340 C   0  0  0  0  0  0  0  0  0  0  0  0
  140.8870   71.8990  220.0530 N   0  0  0  0  0  0  0  0  0  0  0  0
  142.2170   71.4700  220.2390 C   0  0  0  0  0  0  0  0  0  0  0  0
  143.3240   72.2810  219.6770 C   0  0  0  0  0  0  0  0  0  0  0  0
  144.3460   72.5590  220.8010 C   0  0  0  0  0  0  0  0  0  0  0  0
  145.2210   73.7130  220.3960 C   0  0  0  0  0  0  0  0  0  0  0  0
  145.7450   73.4180  219.0740 N   0  0  0  0  0  0  0  0  0  0  0  0
  145.5780   72.0400  218.7180 C   0  0  0  0  0  0  0  0  0  0  0  0
  144.1090   71.6860  218.5580 C   0  0  0  0  0  0  0  0  0  0  0  0
  140.9180   73.3320  219.7750 C   0  0  0  0  0  0  0  0  0  0  0  0
  140.7330   74.0530  221.0960 C   0  0  0  0  0  0  0  0  0  0  0  0
  139.0580   76.1310  222.0100 N   0  0  0  0  0  0  0  0  0  0  0  0
  138.4170   77.1660  222.5350 C   0  0  0  0  0  0  0  0  0  0  0  0
  139.0160   78.4540  222.4720 N   0  0  0  0  0  0  0  0  0  0  0  0
  138.4410   79.5110  223.2680 C   0  0  0  0  0  0  0  0  0  0  0  0
  139.1710   80.8200  223.1000 C   0  0  0  0  0  0  0  0  0  0  0  0
  140.6430   80.6480  223.1370 C   0  0  0  0  0  0  0  0  0  0  0  0
  141.4660   81.4850  223.8630 C   0  0  0  0  0  0  0  0  0  0  0  0
  142.8070   81.2400  223.8320 C   0  0  0  0  0  0  0  0  0  0  0  0
  143.3460   80.1910  223.1000 C   0  0  0  0  0  0  0  0  0  0  0  0
  142.5010   79.3720  222.3820 C   0  0  0  0  0  0  0  0  0  0  0  0
  141.1520   79.5830  222.3880 C   0  0  0  0  0  0  0  0  0  0  0  0
  140.1700   78.7540  221.6470 C   0  0  0  0  0  0  0  0  0  0  0  0
  137.2190   76.9390  223.1060 N   0  0  0  0  0  0  0  0  0  0  0  0
  135.1700   74.1900  224.3950 C   0  0  0  0  0  0  0  0  0  0  0  0
  131.3127   74.5938  228.0990 H   0  0  0  0  0  0  0  0  0  0  0  0
  132.2678   72.3747  227.5123 H   0  0  0  0  0  0  0  0  0  0  0  0
  134.0567   72.2508  225.7860 H   0  0  0  0  0  0  0  0  0  0  0  0
  132.1297   76.6654  226.9739 H   0  0  0  0  0  0  0  0  0  0  0  0
  133.1649   77.5649  225.1140 H   0  0  0  0  0  0  0  0  0  0  0  0
  134.8325   77.2787  225.6844 H   0  0  0  0  0  0  0  0  0  0  0  0
  133.5476   76.2061  223.1140 H   0  0  0  0  0  0  0  0  0  0  0  0
  134.8448   77.4237  223.2226 H   0  0  0  0  0  0  0  0  0  0  0  0
  138.0715   72.2198  221.9194 H   0  0  0  0  0  0  0  0  0  0  0  0
  138.2378   72.5091  220.1912 H   0  0  0  0  0  0  0  0  0  0  0  0
  140.5738   71.7264  222.0778 H   0  0  0  0  0  0  0  0  0  0  0  0
  139.6740   70.5629  221.0212 H   0  0  0  0  0  0  0  0  0  0  0  0
  142.3850   71.4051  221.3242 H   0  0  0  0  0  0  0  0  0  0  0  0
  142.2695   70.5280  219.6734 H   0  0  0  0  0  0  0  0  0  0  0  0
  142.8142   73.1649  219.2660 H   0  0  0  0  0  0  0  0  0  0  0  0
  143.8128   72.8093  221.7300 H   0  0  0  0  0  0  0  0  0  0  0  0
  144.9651   71.6653  220.9683 H   0  0  0  0  0  0  0  0  0  0  0  0
  144.6306   74.6407  220.3680 H   0  0  0  0  0  0  0  0  0  0  0  0
  146.0405   73.8505  221.1167 H   0  0  0  0  0  0  0  0  0  0  0  0
  146.7050   73.7540  218.9410 H   0  0  0  0  0  0  0  0  0  0  0  0
  146.0982   71.8497  217.7676 H   0  0  0  0  0  0  0  0  0  0  0  0
  145.9993   71.4196  219.5228 H   0  0  0  0  0  0  0  0  0  0  0  0
  143.7395   72.0825  217.6008 H   0  0  0  0  0  0  0  0  0  0  0  0
  143.9941   70.5921  218.5737 H   0  0  0  0  0  0  0  0  0  0  0  0
  141.8846   73.6077  219.3281 H   0  0  0  0  0  0  0  0  0  0  0  0
  140.1230   73.6080  219.0666 H   0  0  0  0  0  0  0  0  0  0  0  0
  141.3894   73.6236  221.8672 H   0  0  0  0  0  0  0  0  0  0  0  0
  140.9896   75.1204  221.0264 H   0  0  0  0  0  0  0  0  0  0  0  0
  137.3924   79.6501  222.9660 H   0  0  0  0  0  0  0  0  0  0  0  0
  138.5206   79.2160  224.3247 H   0  0  0  0  0  0  0  0  0  0  0  0
  138.8899   81.2609  222.1322 H   0  0  0  0  0  0  0  0  0  0  0  0
  138.8861   81.4757  223.9360 H   0  0  0  0  0  0  0  0  0  0  0  0
  141.0541   82.3213  224.4468 H   0  0  0  0  0  0  0  0  0  0  0  0
  143.4820   81.8933  224.4043 H   0  0  0  0  0  0  0  0  0  0  0  0
  144.4319   80.0157  223.0930 H   0  0  0  0  0  0  0  0  0  0  0  0
  142.9183   78.5388  221.7975 H   0  0  0  0  0  0  0  0  0  0  0  0
  139.8398   79.3015  220.7519 H   0  0  0  0  0  0  0  0  0  0  0  0
  140.6536   77.8076  221.3632 H   0  0  0  0  0  0  0  0  0  0  0  0
  134.8544   73.4537  223.6412 H   0  0  0  0  0  0  0  0  0  0  0  0
  136.0946   73.8334  224.8726 H   0  0  0  0  0  0  0  0  0  0  0  0
  1  2  2  0
  2  3  1  0
  3  4  2  0
  4  5  1  0
  5  6  2  0
  5  7  1  0
  7  8  1  0
  8  9  1  0
  9 10  1  0
 10 11  2  0
 11 12  1  0
 12 13  1  0
 13 14  1  0
 14 15  1  0
 15 16  1  0
 16 17  1  0
 17 18  1  0
 18 19  1  0
 19 20  1  0
 20 21  1  0
 21 22  1  0
 22 23  1  0
 16 24  1  0
 24 25  1  0
 12 26  2  0
 26 27  1  0
 27 28  1  0
 28 29  1  0
 29 30  1  0
 30 31  1  0
 31 32  2  0
 32 33  1  0
 33 34  2  0
 34 35  1  0
 35 36  2  0
 36 37  1  0
 27 38  2  0
  9 39  1  0
  6  1  1  0
 38 10  1  0
 39  4  1  0
 25 13  1  0
 37 28  1  0
 23 18  1  0
 36 31  1  0
  1 40  1  0
  2 41  1  0
  3 42  1  0
  6 43  1  0
  7 44  1  0
  7 45  1  0
  8 46  1  0
  8 47  1  0
 14 48  1  0
 14 49  1  0
 15 50  1  0
 15 51  1  0
 17 52  1  0
 17 53  1  0
 18 54  1  0
 19 55  1  0
 19 56  1  0
 20 57  1  0
 20 58  1  0
 21 59  1  0
 22 60  1  0
 22 61  1  0
 23 62  1  0
 23 63  1  0
 24 64  1  0
 24 65  1  0
 25 66  1  0
 25 67  1  0
 29 68  1  0
 29 69  1  0
 30 70  1  0
 30 71  1  0
 32 72  1  0
 33 73  1  0
 34 74  1  0
 35 75  1  0
 37 76  1  0
 37 77  1  0
 39 78  1  0
 39 79  1  0
M  END
>  <smiles>  (19) 
c1ccc2c(c1)CCN(c1nc(N3CCN(CC4CCNCC4)CC3)nc(N3CCc4ccccc4C3)n1)C2

>  <score_type>  (19) 
oracle

>  <origin>  (19) 
autodockgpu

>  <m_score__min__energy>  (19) 
-10.470000000000001

>  <m_primary>  (19) 
energy

>  <rmsd>  (19) 
7.764918908969797

>  <m_score__min__rmsd>  (19) 
7.764918908969797

>  <meeko>  (19) 
{"free_energy": -9.19, "intermolecular_energy": -10.69, "internal_energy": -1.32, "cluster_size": 1, "cluster_id": 5, "rank_in_cluster": 1}

>  <energy>  (19) 
-9.94

>  <cluster_rmsd>  (19) 
0.31

>  <cluster>  (19) 
3

$$$$

     RDKit          3D

 79 85  0  0  0  0  0  0  0  0999 V2000
  146.1990   70.0040  216.9090 C   0  0  0  0  0  0  0  0  0  0  0  0
  145.9710   69.0220  217.8540 C   0  0  0  0  0  0  0  0  0  0  0  0
  145.1700   69.3380  218.9510 C   0  0  0  0  0  0  0  0  0  0  0  0
  144.6060   70.5860  219.1180 C   0  0  0  0  0  0  0  0  0  0  0  0
  144.8650   71.5280  218.1490 C   0  0  0  0  0  0  0  0  0  0  0  0
  145.6510   71.2730  217.0390 C   0  0  0  0  0  0  0  0  0  0  0  0
  144.3000   72.9130  218.2420 C   0  0  0  0  0  0  0  0  0  0  0  0
  144.1790   73.2710  219.7070 C   0  0  0  0  0  0  0  0  0  0  0  0
  143.4160   72.2220  220.3530 N   0  0  0  0  0  0  0  0  0  0  0  0
  142.2400   72.5980  221.0730 C   0  0  0  0  0  0  0  0  0  0  0  0
  141.6780   73.8330  220.9240 N   0  0  0  0  0  0  0  0  0  0  0  0
  140.5850   74.1890  221.5890 C   0  0  0  0  0  0  0  0  0  0  0  0
  139.9880   75.4610  221.4500 N   0  0  0  0  0  0  0  0  0  0  0  0
  139.3710   75.9260  220.2210 C   0  0  0  0  0  0  0  0  0  0  0  0
  139.4400   77.4690  220.3160 C   0  0  0  0  0  0  0  0  0  0  0  0
  138.6130   77.9600  221.3550 N   0  0  0  0  0  0  0  0  0  0  0  0
  138.9760   79.2390  221.8270 C   0  0  0  0  0  0  0  0  0  0  0  0
  140.4060   79.5340  222.0900 C   0  0  0  0  0  0  0  0  0  0  0  0
  140.6560   81.0310  221.8100 C   0  0  0  0  0  0  0  0  0  0  0  0
  142.1320   81.2600  221.6370 C   0  0  0  0  0  0  0  0  0  0  0  0
  142.8010   80.6740  222.7860 N   0  0  0  0  0  0  0  0  0  0  0  0
  141.8920   80.3880  223.8560 C   0  0  0  0  0  0  0  0  0  0  0  0
  140.9130   79.2910  223.4710 C   0  0  0  0  0  0  0  0  0  0  0  0
  138.5970   77.0540  222.4980 C   0  0  0  0  0  0  0  0  0  0  0  0
  139.9620   76.3970  222.5740 C   0  0  0  0  0  0  0  0  0  0  0  0
  140.0320   73.3000  222.4250 N   0  0  0  0  0  0  0  0  0  0  0  0
  140.5260   72.0850  222.6170 C   0  0  0  0  0  0  0  0  0  0  0  0
  139.8700   71.2080  223.5260 N   0  0  0  0  0  0  0  0  0  0  0  0
  139.2310   70.0300  222.9940 C   0  0  0  0  0  0  0  0  0  0  0  0
  138.5730   69.1980  224.0660 C   0  0  0  0  0  0  0  0  0  0  0  0
  139.4390   69.0370  225.2580 C   0  0  0  0  0  0  0  0  0  0  0  0
  139.6100   67.8210  225.8880 C   0  0  0  0  0  0  0  0  0  0  0  0
  140.4290   67.7780  226.9770 C   0  0  0  0  0  0  0  0  0  0  0  0
  141.0770   68.9100  227.4530 C   0  0  0  0  0  0  0  0  0  0  0  0
  140.8870   70.1130  226.8070 C   0  0  0  0  0  0  0  0  0  0  0  0
  140.0750   70.1960  225.7120 C   0  0  0  0  0  0  0  0  0  0  0  0
  139.8120   71.4450  224.9560 C   0  0  0  0  0  0  0  0  0  0  0  0
  141.6340   71.7400  221.9340 N   0  0  0  0  0  0  0  0  0  0  0  0
  143.7710   70.8250  220.3160 C   0  0  0  0  0  0  0  0  0  0  0  0
  146.8277   69.7756  216.0357 H   0  0  0  0  0  0  0  0  0  0  0  0
  146.4091   68.0190  217.7441 H   0  0  0  0  0  0  0  0  0  0  0  0
  144.9811   68.5647  219.7102 H   0  0  0  0  0  0  0  0  0  0  0  0
  145.8357   72.0510  216.2836 H   0  0  0  0  0  0  0  0  0  0  0  0
  144.9707   73.6244  217.7380 H   0  0  0  0  0  0  0  0  0  0  0  0
  143.3146   72.9573  217.7551 H   0  0  0  0  0  0  0  0  0  0  0  0
  145.1790   73.3407  220.1599 H   0  0  0  0  0  0  0  0  0  0  0  0
  143.6780   74.2429  219.8270 H   0  0  0  0  0  0  0  0  0  0  0  0
  139.9287   75.5646  219.3444 H   0  0  0  0  0  0  0  0  0  0  0  0
  138.3408   75.5586  220.1038 H   0  0  0  0  0  0  0  0  0  0  0  0
  140.4796   77.7693  220.5138 H   0  0  0  0  0  0  0  0  0  0  0  0
  139.0865   77.8907  219.3635 H   0  0  0  0  0  0  0  0  0  0  0  0
  138.6296   79.9678  221.0794 H   0  0  0  0  0  0  0  0  0  0  0  0
  138.5103   79.2927  222.8221 H   0  0  0  0  0  0  0  0  0  0  0  0
  140.9400   78.8309  221.4339 H   0  0  0  0  0  0  0  0  0  0  0  0
  140.1273   81.3272  220.8920 H   0  0  0  0  0  0  0  0  0  0  0  0
  140.2842   81.6325  222.6526 H   0  0  0  0  0  0  0  0  0  0  0  0
  142.4814   80.7775  220.7122 H   0  0  0  0  0  0  0  0  0  0  0  0
  142.3522   82.3354  221.5665 H   0  0  0  0  0  0  0  0  0  0  0  0
  143.6210   81.2100  223.0870 H   0  0  0  0  0  0  0  0  0  0  0  0
  142.4659   80.0632  224.7365 H   0  0  0  0  0  0  0  0  0  0  0  0
  141.3202   81.3009  224.0790 H   0  0  0  0  0  0  0  0  0  0  0  0
  141.4222   78.3167  223.5077 H   0  0  0  0  0  0  0  0  0  0  0  0
  140.0681   79.2921  224.1754 H   0  0  0  0  0  0  0  0  0  0  0  0
  138.3987   77.6173  223.4218 H   0  0  0  0  0  0  0  0  0  0  0  0
  137.8071   76.2971  222.3831 H   0  0  0  0  0  0  0  0  0  0  0  0
  140.7597   77.1475  222.4721 H   0  0  0  0  0  0  0  0  0  0  0  0
  140.1281   75.8938  223.5380 H   0  0  0  0  0  0  0  0  0  0  0  0
  138.4649   70.3410  222.2685 H   0  0  0  0  0  0  0  0  0  0  0  0
  140.0082   69.4123  222.5204 H   0  0  0  0  0  0  0  0  0  0  0  0
  137.6372   69.6889  224.3713 H   0  0  0  0  0  0  0  0  0  0  0  0
  138.3821   68.1982  223.6489 H   0  0  0  0  0  0  0  0  0  0  0  0
  139.1020   66.9160  225.5233 H   0  0  0  0  0  0  0  0  0  0  0  0
  140.5809   66.8188  227.4935 H   0  0  0  0  0  0  0  0  0  0  0  0
  141.7331   68.8478  228.3337 H   0  0  0  0  0  0  0  0  0  0  0  0
  141.3948   71.0157  227.1775 H   0  0  0  0  0  0  0  0  0  0  0  0
  138.8119   71.8206  225.2183 H   0  0  0  0  0  0  0  0  0  0  0  0
  140.5824   72.1842  225.2207 H   0  0  0  0  0  0  0  0  0  0  0  0
  144.3369   70.5615  221.2217 H   0  0  0  0  0  0  0  0  0  0  0  0
  142.8629   70.2057  220.2730 H   0  0  0  0  0  0  0  0  0  0  0  0
  1  2  2  0
  2  3  1  0
  3  4  2  0
  4  5  1  0
  5  6  2  0
  5  7  1  0
  7  8  1  0
  8  9  1  0
  9 10  1  0
 10 11  2  0
 11 12  1  0
 12 13  1  0
 13 14  1  0
 14 15  1  0
 15 16  1  0
 16 17  1  0
 17 18  1  0
 18 19  1  0
 19 20  1  0
 20 21  1  0
 21 22  1  0
 22 23  1  0
 16 24  1  0
 24 25  1  0
 12 26  2  0
 26 27  1  0
 27 28  1  0
 28 29  1  0
 29 30  1  0
 30 31  1  0
 31 32  2  0
 32 33  1  0
 33 34  2  0
 34 35  1  0
 35 36  2  0
 36 37  1  0
 27 38  2  0
  9 39  1  0
  6  1  1  0
 38 10  1  0
 39  4  1  0
 25 13  1  0
 37 28  1  0
 23 18  1  0
 36 31  1  0
  1 40  1  0
  2 41  1  0
  3 42  1  0
  6 43  1  0
  7 44  1  0
  7 45  1  0
  8 46  1  0
  8 47  1  0
 14 48  1  0
 14 49  1  0
 15 50  1  0
 15 51  1  0
 17 52  1  0
 17 53  1  0
 18 54  1  0
 19 55  1  0
 19 56  1  0
 20 57  1  0
 20 58  1  0
 21 59  1  0
 22 60  1  0
 22 61  1  0
 23 62  1  0
 23 63  1  0
 24 64  1  0
 24 65  1  0
 25 66  1  0
 25 67  1  0
 29 68  1  0
 29 69  1  0
 30 70  1  0
 30 71  1  0
 32 72  1  0
 33 73  1  0
 34 74  1  0
 35 75  1  0
 37 76  1  0
 37 77  1  0
 39 78  1  0
 39 79  1  0
M  END
>  <smiles>  (20) 
c1ccc2c(c1)CCN(c1nc(N3CCN(CC4CCNCC4)CC3)nc(N3CCc4ccccc4C3)n1)C2

>  <score_type>  (20) 
oracle

>  <origin>  (20) 
autodockgpu

>  <m_score__min__energy>  (20) 
-10.470000000000001

>  <m_primary>  (20) 
energy

>  <rmsd>  (20) 
3.614728278280997

>  <m_score__min__rmsd>  (20) 
3.614728278280997

>  <meeko>  (20) 
{"free_energy": -9.45, "intermolecular_energy": -10.94, "internal_energy": -1.23, "cluster_size": 32, "cluster_id": 3, "rank_in_cluster": 29}

>  <energy>  (20) 
-9.91

>  <cluster_rmsd>  (20) 
1.02

>  <cluster>  (20) 
3

$$$$

     RDKit          3D

 79 85  0  0  0  0  0  0  0  0999 V2000
  140.0290   67.7480  227.4930 C   0  0  0  0  0  0  0  0  0  0  0  0
  139.2050   67.3300  226.4660 C   0  0  0  0  0  0  0  0  0  0  0  0
  139.1210   68.1260  225.3240 C   0  0  0  0  0  0  0  0  0  0  0  0
  139.8280   69.3030  225.1910 C   0  0  0  0  0  0  0  0  0  0  0  0
  140.6330   69.6750  226.2420 C   0  0  0  0  0  0  0  0  0  0  0  0
  140.7580   68.9270  227.4000 C   0  0  0  0  0  0  0  0  0  0  0  0
  141.4390   70.9380  226.1950 C   0  0  0  0  0  0  0  0  0  0  0  0
  140.6780   71.9470  225.3610 C   0  0  0  0  0  0  0  0  0  0  0  0
  140.3810   71.3260  224.0860 N   0  0  0  0  0  0  0  0  0  0  0  0
  140.8150   71.9960  222.9000 C   0  0  0  0  0  0  0  0  0  0  0  0
  140.4220   73.2720  222.6190 N   0  0  0  0  0  0  0  0  0  0  0  0
  140.8220   73.9010  221.5200 C   0  0  0  0  0  0  0  0  0  0  0  0
  140.4270   75.2210  221.2100 N   0  0  0  0  0  0  0  0  0  0  0  0
  140.8750   75.9350  220.0290 C   0  0  0  0  0  0  0  0  0  0  0  0
  140.7390   77.4290  220.4080 C   0  0  0  0  0  0  0  0  0  0  0  0
  139.3820   77.7990  220.5720 N   0  0  0  0  0  0  0  0  0  0  0  0
  139.1890   78.9460  221.3700 C   0  0  0  0  0  0  0  0  0  0  0  0
  140.3690   79.7270  221.8130 C   0  0  0  0  0  0  0  0  0  0  0  0
  139.9060   81.1570  222.1650 C   0  0  0  0  0  0  0  0  0  0  0  0
  141.1000   82.0710  222.1860 C   0  0  0  0  0  0  0  0  0  0  0  0
  142.0990   81.4610  223.0450 N   0  0  0  0  0  0  0  0  0  0  0  0
  141.5520   80.4150  223.8580 C   0  0  0  0  0  0  0  0  0  0  0  0
  141.1050   79.2350  223.0120 C   0  0  0  0  0  0  0  0  0  0  0  0
  138.6010   76.7150  221.1580 C   0  0  0  0  0  0  0  0  0  0  0  0
  139.5170   75.9510  222.0930 C   0  0  0  0  0  0  0  0  0  0  0  0
  141.6320   73.2500  220.6760 N   0  0  0  0  0  0  0  0  0  0  0  0
  142.0520   72.0110  220.8870 C   0  0  0  0  0  0  0  0  0  0  0  0
  142.9120   71.4000  219.9320 N   0  0  0  0  0  0  0  0  0  0  0  0
  144.1200   72.0950  219.5620 C   0  0  0  0  0  0  0  0  0  0  0  0
  144.9310   71.3380  218.5410 C   0  0  0  0  0  0  0  0  0  0  0  0
  145.0350   69.8960  218.8690 C   0  0  0  0  0  0  0  0  0  0  0  0
  146.2270   69.2050  218.7870 C   0  0  0  0  0  0  0  0  0  0  0  0
  146.2170   67.8800  219.1110 C   0  0  0  0  0  0  0  0  0  0  0  0
  145.0580   67.2310  219.5120 C   0  0  0  0  0  0  0  0  0  0  0  0
  143.8810   67.9450  219.5840 C   0  0  0  0  0  0  0  0  0  0  0  0
  143.8490   69.2730  219.2680 C   0  0  0  0  0  0  0  0  0  0  0  0
  142.6310   70.1180  219.3150 C   0  0  0  0  0  0  0  0  0  0  0  0
  141.6380   71.3880  222.0060 N   0  0  0  0  0  0  0  0  0  0  0  0
  139.6720   70.0780  223.9400 C   0  0  0  0  0  0  0  0  0  0  0  0
  140.1096   67.1350  228.4028 H   0  0  0  0  0  0  0  0  0  0  0  0
  138.6310   66.3951  226.5468 H   0  0  0  0  0  0  0  0  0  0  0  0
  138.4676   67.8038  224.4998 H   0  0  0  0  0  0  0  0  0  0  0  0
  141.4134   69.2555  228.2201 H   0  0  0  0  0  0  0  0  0  0  0  0
  141.5823   71.3277  227.2136 H   0  0  0  0  0  0  0  0  0  0  0  0
  142.4277   70.7446  225.7533 H   0  0  0  0  0  0  0  0  0  0  0  0
  139.7432   72.2253  225.8696 H   0  0  0  0  0  0  0  0  0  0  0  0
  141.2761   72.8589  225.2168 H   0  0  0  0  0  0  0  0  0  0  0  0
  141.9210   75.6859  219.7970 H   0  0  0  0  0  0  0  0  0  0  0  0
  140.2903   75.6744  219.1345 H   0  0  0  0  0  0  0  0  0  0  0  0
  141.2756   77.6092  221.3512 H   0  0  0  0  0  0  0  0  0  0  0  0
  141.1665   78.0329  219.5941 H   0  0  0  0  0  0  0  0  0  0  0  0
  138.5468   79.6313  220.7974 H   0  0  0  0  0  0  0  0  0  0  0  0
  138.7741   78.5456  222.3068 H   0  0  0  0  0  0  0  0  0  0  0  0
  141.0648   79.6467  220.9648 H   0  0  0  0  0  0  0  0  0  0  0  0
  139.1873   81.5076  221.4097 H   0  0  0  0  0  0  0  0  0  0  0  0
  139.4227   81.1568  223.1531 H   0  0  0  0  0  0  0  0  0  0  0  0
  141.5008   82.1893  221.1685 H   0  0  0  0  0  0  0  0  0  0  0  0
  140.8205   83.0664  222.5617 H   0  0  0  0  0  0  0  0  0  0  0  0
  142.6370   82.1490  223.5830 H   0  0  0  0  0  0  0  0  0  0  0  0
  142.3193   80.0756  224.5694 H   0  0  0  0  0  0  0  0  0  0  0  0
  140.6755   80.8119  224.3911 H   0  0  0  0  0  0  0  0  0  0  0  0
  141.9865   78.6611  222.6900 H   0  0  0  0  0  0  0  0  0  0  0  0
  140.4419   78.5902  223.6074 H   0  0  0  0  0  0  0  0  0  0  0  0
  137.7489   77.1262  221.7192 H   0  0  0  0  0  0  0  0  0  0  0  0
  138.2062   76.0525  220.3736 H   0  0  0  0  0  0  0  0  0  0  0  0
  140.0764   76.6435  222.7391 H   0  0  0  0  0  0  0  0  0  0  0  0
  138.9603   75.2793  222.7629 H   0  0  0  0  0  0  0  0  0  0  0  0
  143.8488   73.0746  219.1415 H   0  0  0  0  0  0  0  0  0  0  0  0
  144.7360   72.2004  220.4672 H   0  0  0  0  0  0  0  0  0  0  0  0
  144.4508   71.4442  217.5571 H   0  0  0  0  0  0  0  0  0  0  0  0
  145.9475   71.7585  218.5365 H   0  0  0  0  0  0  0  0  0  0  0  0
  147.1539   69.7060  218.4710 H   0  0  0  0  0  0  0  0  0  0  0  0
  147.1555   67.3091  219.0526 H   0  0  0  0  0  0  0  0  0  0  0  0
  145.0781   66.1616  219.7689 H   0  0  0  0  0  0  0  0  0  0  0  0
  142.9567   67.4390  219.8997 H   0  0  0  0  0  0  0  0  0  0  0  0
  142.2683   70.2838  218.2898 H   0  0  0  0  0  0  0  0  0  0  0  0
  141.8678   69.6001  219.9144 H   0  0  0  0  0  0  0  0  0  0  0  0
  138.6057   70.2758  223.7561 H   0  0  0  0  0  0  0  0  0  0  0  0
  140.0782   69.5097  223.0902 H   0  0  0  0  0  0  0  0  0  0  0  0
  1  2  2  0
  2  3  1  0
  3  4  2  0
  4  5  1  0
  5  6  2  0
  5  7  1  0
  7  8  1  0
  8  9  1  0
  9 10  1  0
 10 11  2  0
 11 12  1  0
 12 13  1  0
 13 14  1  0
 14 15  1  0
 15 16  1  0
 16 17  1  0
 17 18  1  0
 18 19  1  0
 19 20  1  0
 20 21  1  0
 21 22  1  0
 22 23  1  0
 16 24  1  0
 24 25  1  0
 12 26  2  0
 26 27  1  0
 27 28  1  0
 28 29  1  0
 29 30  1  0
 30 31  1  0
 31 32  2  0
 32 33  1  0
 33 34  2  0
 34 35  1  0
 35 36  2  0
 36 37  1  0
 27 38  2  0
  9 39  1  0
  6  1  1  0
 38 10  1  0
 39  4  1  0
 25 13  1  0
 37 28  1  0
 23 18  1  0
 36 31  1  0
  1 40  1  0
  2 41  1  0
  3 42  1  0
  6 43  1  0
  7 44  1  0
  7 45  1  0
  8 46  1  0
  8 47  1  0
 14 48  1  0
 14 49  1  0
 15 50  1  0
 15 51  1  0
 17 52  1  0
 17 53  1  0
 18 54  1  0
 19 55  1  0
 19 56  1  0
 20 57  1  0
 20 58  1  0
 21 59  1  0
 22 60  1  0
 22 61  1  0
 23 62  1  0
 23 63  1  0
 24 64  1  0
 24 65  1  0
 25 66  1  0
 25 67  1  0
 29 68  1  0
 29 69  1  0
 30 70  1  0
 30 71  1  0
 32 72  1  0
 33 73  1  0
 34 74  1  0
 35 75  1  0
 37 76  1  0
 37 77  1  0
 39 78  1  0
 39 79  1  0
M  END
>  <smiles>  (21) 
c1ccc2c(c1)CCN(c1nc(N3CCN(CC4CCNCC4)CC3)nc(N3CCc4ccccc4C3)n1)C2

>  <score_type>  (21) 
oracle

>  <origin>  (21) 
autodockgpu

>  <m_score__min__energy>  (21) 
-10.470000000000001

>  <m_primary>  (21) 
energy

>  <rmsd>  (21) 
3.184140419550201

>  <m_score__min__rmsd>  (21) 
3.184140419550201

>  <meeko>  (21) 
{"free_energy": -9.42, "intermolecular_energy": -10.92, "internal_energy": -1.27, "cluster_size": 32, "cluster_id": 3, "rank_in_cluster": 30}

>  <energy>  (21) 
-9.9

>  <cluster_rmsd>  (21) 
0.24

>  <cluster>  (21) 
3

$$$$

     RDKit          3D

 79 85  0  0  0  0  0  0  0  0999 V2000
  146.0150   68.4010  218.0920 C   0  0  0  0  0  0  0  0  0  0  0  0
  146.6730   69.5220  218.5610 C   0  0  0  0  0  0  0  0  0  0  0  0
  145.9180   70.5160  219.1810 C   0  0  0  0  0  0  0  0  0  0  0  0
  144.5510   70.4170  219.3370 C   0  0  0  0  0  0  0  0  0  0  0  0
  143.9440   69.2820  218.8510 C   0  0  0  0  0  0  0  0  0  0  0  0
  144.6400   68.2610  218.2280 C   0  0  0  0  0  0  0  0  0  0  0  0
  142.4630   69.0810  218.9710 C   0  0  0  0  0  0  0  0  0  0  0  0
  141.8010   70.4410  218.9140 C   0  0  0  0  0  0  0  0  0  0  0  0
  142.4200   71.2720  219.9260 N   0  0  0  0  0  0  0  0  0  0  0  0
  141.5710   71.8800  220.9030 C   0  0  0  0  0  0  0  0  0  0  0  0
  141.2750   73.2110  220.8590 N   0  0  0  0  0  0  0  0  0  0  0  0
  140.4860   73.7820  221.7620 C   0  0  0  0  0  0  0  0  0  0  0  0
  140.1680   75.1580  221.7350 N   0  0  0  0  0  0  0  0  0  0  0  0
  139.0220   75.7290  222.4180 C   0  0  0  0  0  0  0  0  0  0  0  0
  138.7190   77.0310  221.6380 C   0  0  0  0  0  0  0  0  0  0  0  0
  139.7560   77.9820  221.7960 N   0  0  0  0  0  0  0  0  0  0  0  0
  139.8120   78.9510  220.7740 C   0  0  0  0  0  0  0  0  0  0  0  0
  141.0720   79.1270  220.0120 C   0  0  0  0  0  0  0  0  0  0  0  0
  140.8590   78.5880  218.5820 C   0  0  0  0  0  0  0  0  0  0  0  0
  142.1980   78.3450  217.9420 C   0  0  0  0  0  0  0  0  0  0  0  0
  142.9760   79.5630  218.0880 N   0  0  0  0  0  0  0  0  0  0  0  0
  142.1650   80.6860  218.4520 C   0  0  0  0  0  0  0  0  0  0  0  0
  141.5840   80.5180  219.8460 C   0  0  0  0  0  0  0  0  0  0  0  0
  141.0640   77.3380  221.8690 C   0  0  0  0  0  0  0  0  0  0  0  0
  141.0080   76.1000  220.9950 C   0  0  0  0  0  0  0  0  0  0  0  0
  139.9750   73.0160  222.7340 N   0  0  0  0  0  0  0  0  0  0  0  0
  140.2210   71.7180  222.8360 C   0  0  0  0  0  0  0  0  0  0  0  0
  139.6340   70.9850  223.9050 N   0  0  0  0  0  0  0  0  0  0  0  0
  139.0020   69.7250  223.6000 C   0  0  0  0  0  0  0  0  0  0  0  0
  138.4200   69.0610  224.8220 C   0  0  0  0  0  0  0  0  0  0  0  0
  139.3460   69.1090  225.9780 C   0  0  0  0  0  0  0  0  0  0  0  0
  139.5810   68.0110  226.7820 C   0  0  0  0  0  0  0  0  0  0  0  0
  140.4520   68.1590  227.8200 C   0  0  0  0  0  0  0  0  0  0  0  0
  141.0910   69.3640  228.0770 C   0  0  0  0  0  0  0  0  0  0  0  0
  140.8380   70.4440  227.2600 C   0  0  0  0  0  0  0  0  0  0  0  0
  139.9720   70.3370  226.2090 C   0  0  0  0  0  0  0  0  0  0  0  0
  139.6400   71.4450  225.2800 C   0  0  0  0  0  0  0  0  0  0  0  0
  141.0220   71.1540  221.9120 N   0  0  0  0  0  0  0  0  0  0  0  0
  143.8380   71.5260  220.0080 C   0  0  0  0  0  0  0  0  0  0  0  0
  146.5919   67.6035  217.6010 H   0  0  0  0  0  0  0  0  0  0  0  0
  147.7622   69.6269  218.4482 H   0  0  0  0  0  0  0  0  0  0  0  0
  146.4310   71.4123  219.5598 H   0  0  0  0  0  0  0  0  0  0  0  0
  144.1207   67.3670  217.8524 H   0  0  0  0  0  0  0  0  0  0  0  0
  142.1026   68.4552  218.1412 H   0  0  0  0  0  0  0  0  0  0  0  0
  142.2210   68.5773  219.9184 H   0  0  0  0  0  0  0  0  0  0  0  0
  141.9480   70.8884  217.9199 H   0  0  0  0  0  0  0  0  0  0  0  0
  140.7197   70.3523  219.0953 H   0  0  0  0  0  0  0  0  0  0  0  0
  138.1634   75.0426  222.3783 H   0  0  0  0  0  0  0  0  0  0  0  0
  139.2189   75.9149  223.4841 H   0  0  0  0  0  0  0  0  0  0  0  0
  138.6129   76.7915  220.5696 H   0  0  0  0  0  0  0  0  0  0  0  0
  137.7892   77.4639  222.0356 H   0  0  0  0  0  0  0  0  0  0  0  0
  139.0288   78.6951  220.0452 H   0  0  0  0  0  0  0  0  0  0  0  0
  139.6956   79.9041  221.3106 H   0  0  0  0  0  0  0  0  0  0  0  0
  141.8167   78.5901  220.6178 H   0  0  0  0  0  0  0  0  0  0  0  0
  140.2946   77.6448  218.6244 H   0  0  0  0  0  0  0  0  0  0  0  0
  140.2936   79.3227  217.9899 H   0  0  0  0  0  0  0  0  0  0  0  0
  142.7088   77.5100  218.4439 H   0  0  0  0  0  0  0  0  0  0  0  0
  142.0796   78.0844  216.8799 H   0  0  0  0  0  0  0  0  0  0  0  0
  143.5820   79.7490  217.2810 H   0  0  0  0  0  0  0  0  0  0  0  0
  142.7819   81.5964  218.4281 H   0  0  0  0  0  0  0  0  0  0  0  0
  141.3335   80.7608  217.7357 H   0  0  0  0  0  0  0  0  0  0  0  0
  142.3667   80.7114  220.5943 H   0  0  0  0  0  0  0  0  0  0  0  0
  140.7570   81.2299  219.9846 H   0  0  0  0  0  0  0  0  0  0  0  0
  141.8418   78.0233  221.5011 H   0  0  0  0  0  0  0  0  0  0  0  0
  141.3081   77.0701  222.9076 H   0  0  0  0  0  0  0  0  0  0  0  0
  140.5593   76.3350  220.0185 H   0  0  0  0  0  0  0  0  0  0  0  0
  142.0083   75.6913  220.7892 H   0  0  0  0  0  0  0  0  0  0  0  0
  138.1933   69.9021  222.8757 H   0  0  0  0  0  0  0  0  0  0  0  0
  139.7721   69.0550  223.1901 H   0  0  0  0  0  0  0  0  0  0  0  0
  137.4864   69.5751  225.0941 H   0  0  0  0  0  0  0  0  0  0  0  0
  138.2377   68.0040  224.5782 H   0  0  0  0  0  0  0  0  0  0  0  0
  139.0821   67.0494  226.5912 H   0  0  0  0  0  0  0  0  0  0  0  0
  140.6545   67.2977  228.4735 H   0  0  0  0  0  0  0  0  0  0  0  0
  141.7899   69.4554  228.9215 H   0  0  0  0  0  0  0  0  0  0  0  0
  141.3390   71.4034  227.4562 H   0  0  0  0  0  0  0  0  0  0  0  0
  138.6446   71.8397  225.5318 H   0  0  0  0  0  0  0  0  0  0  0  0
  140.4031   72.2304  225.3838 H   0  0  0  0  0  0  0  0  0  0  0  0
  144.0746   72.4765  219.5074 H   0  0  0  0  0  0  0  0  0  0  0  0
  144.1495   71.5932  221.0608 H   0  0  0  0  0  0  0  0  0  0  0  0
  1  2  2  0
  2  3  1  0
  3  4  2  0
  4  5  1  0
  5  6  2  0
  5  7  1  0
  7  8  1  0
  8  9  1  0
  9 10  1  0
 10 11  2  0
 11 12  1  0
 12 13  1  0
 13 14  1  0
 14 15  1  0
 15 16  1  0
 16 17  1  0
 17 18  1  0
 18 19  1  0
 19 20  1  0
 20 21  1  0
 21 22  1  0
 22 23  1  0
 16 24  1  0
 24 25  1  0
 12 26  2  0
 26 27  1  0
 27 28  1  0
 28 29  1  0
 29 30  1  0
 30 31  1  0
 31 32  2  0
 32 33  1  0
 33 34  2  0
 34 35  1  0
 35 36  2  0
 36 37  1  0
 27 38  2  0
  9 39  1  0
  6  1  1  0
 38 10  1  0
 39  4  1  0
 25 13  1  0
 37 28  1  0
 23 18  1  0
 36 31  1  0
  1 40  1  0
  2 41  1  0
  3 42  1  0
  6 43  1  0
  7 44  1  0
  7 45  1  0
  8 46  1  0
  8 47  1  0
 14 48  1  0
 14 49  1  0
 15 50  1  0
 15 51  1  0
 17 52  1  0
 17 53  1  0
 18 54  1  0
 19 55  1  0
 19 56  1  0
 20 57  1  0
 20 58  1  0
 21 59  1  0
 22 60  1  0
 22 61  1  0
 23 62  1  0
 23 63  1  0
 24 64  1  0
 24 65  1  0
 25 66  1  0
 25 67  1  0
 29 68  1  0
 29 69  1  0
 30 70  1  0
 30 71  1  0
 32 72  1  0
 33 73  1  0
 34 74  1  0
 35 75  1  0
 37 76  1  0
 37 77  1  0
 39 78  1  0
 39 79  1  0
M  END
>  <smiles>  (22) 
c1ccc2c(c1)CCN(c1nc(N3CCN(CC4CCNCC4)CC3)nc(N3CCc4ccccc4C3)n1)C2

>  <score_type>  (22) 
oracle

>  <origin>  (22) 
autodockgpu

>  <m_score__min__energy>  (22) 
-10.470000000000001

>  <m_primary>  (22) 
energy

>  <rmsd>  (22) 
3.8838672102273097

>  <m_score__min__rmsd>  (22) 
3.8838672102273097

>  <meeko>  (22) 
{"free_energy": -9.58, "intermolecular_energy": -11.07, "internal_energy": -1.27, "cluster_size": 32, "cluster_id": 3, "rank_in_cluster": 24}

>  <energy>  (22) 
-9.89

>  <cluster_rmsd>  (22) 
0.89

>  <cluster>  (22) 
3

$$$$

     RDKit          3D

 79 85  0  0  0  0  0  0  0  0999 V2000
  146.1780   69.3510  216.8260 C   0  0  0  0  0  0  0  0  0  0  0  0
  145.6350   68.3420  217.5980 C   0  0  0  0  0  0  0  0  0  0  0  0
  144.8230   68.7010  218.6740 C   0  0  0  0  0  0  0  0  0  0  0  0
  144.5490   70.0160  218.9850 C   0  0  0  0  0  0  0  0  0  0  0  0
  145.1150   70.9820  218.1860 C   0  0  0  0  0  0  0  0  0  0  0  0
  145.9280   70.6880  217.1050 C   0  0  0  0  0  0  0  0  0  0  0  0
  144.8790   72.4400  218.4440 C   0  0  0  0  0  0  0  0  0  0  0  0
  144.6970   72.6270  219.9350 C   0  0  0  0  0  0  0  0  0  0  0  0
  143.6520   71.7220  220.3660 N   0  0  0  0  0  0  0  0  0  0  0  0
  142.5280   72.2770  221.0530 C   0  0  0  0  0  0  0  0  0  0  0  0
  142.1100   73.5550  220.8190 N   0  0  0  0  0  0  0  0  0  0  0  0
  141.0670   74.0770  221.4520 C   0  0  0  0  0  0  0  0  0  0  0  0
  140.6190   75.3970  221.2240 N   0  0  0  0  0  0  0  0  0  0  0  0
  140.7670   76.0850  219.9560 C   0  0  0  0  0  0  0  0  0  0  0  0
  140.7420   77.5870  220.3270 C   0  0  0  0  0  0  0  0  0  0  0  0
  139.4720   77.9780  220.8150 N   0  0  0  0  0  0  0  0  0  0  0  0
  139.4920   79.1410  221.6130 C   0  0  0  0  0  0  0  0  0  0  0  0
  140.7880   79.6360  222.1370 C   0  0  0  0  0  0  0  0  0  0  0  0
  140.5380   80.9630  222.8850 C   0  0  0  0  0  0  0  0  0  0  0  0
  141.8430   81.6960  223.0360 C   0  0  0  0  0  0  0  0  0  0  0  0
  142.7970   80.7700  223.6200 N   0  0  0  0  0  0  0  0  0  0  0  0
  142.1600   79.6150  224.1810 C   0  0  0  0  0  0  0  0  0  0  0  0
  141.5160   78.7610  223.1010 C   0  0  0  0  0  0  0  0  0  0  0  0
  138.8500   76.9140  221.5970 C   0  0  0  0  0  0  0  0  0  0  0  0
  139.9630   76.1530  222.2910 C   0  0  0  0  0  0  0  0  0  0  0  0
  140.4190   73.3150  222.3430 N   0  0  0  0  0  0  0  0  0  0  0  0
  140.7700   72.0680  222.6190 C   0  0  0  0  0  0  0  0  0  0  0  0
  140.0210   71.3350  223.5810 N   0  0  0  0  0  0  0  0  0  0  0  0
  139.0590   70.3720  223.1050 C   0  0  0  0  0  0  0  0  0  0  0  0
  138.3360   69.6750  224.2300 C   0  0  0  0  0  0  0  0  0  0  0  0
  139.2580   69.2560  225.3120 C   0  0  0  0  0  0  0  0  0  0  0  0
  139.1930   68.0060  225.8950 C   0  0  0  0  0  0  0  0  0  0  0  0
  140.0880   67.7180  226.8820 C   0  0  0  0  0  0  0  0  0  0  0  0
  141.0400   68.6360  227.3010 C   0  0  0  0  0  0  0  0  0  0  0  0
  141.0830   69.8780  226.7030 C   0  0  0  0  0  0  0  0  0  0  0  0
  140.2040   70.2050  225.7100 C   0  0  0  0  0  0  0  0  0  0  0  0
  140.1770   71.5130  225.0120 C   0  0  0  0  0  0  0  0  0  0  0  0
  141.8300   71.5530  221.9670 N   0  0  0  0  0  0  0  0  0  0  0  0
  143.6760   70.2960  220.1460 C   0  0  0  0  0  0  0  0  0  0  0  0
  146.8215   69.0898  215.9730 H   0  0  0  0  0  0  0  0  0  0  0  0
  145.8373   67.2850  217.3705 H   0  0  0  0  0  0  0  0  0  0  0  0
  144.3857   67.9066  219.2966 H   0  0  0  0  0  0  0  0  0  0  0  0
  146.3620   71.4878  216.4869 H   0  0  0  0  0  0  0  0  0  0  0  0
  145.7433   73.0253  218.0970 H   0  0  0  0  0  0  0  0  0  0  0  0
  143.9849   72.7842  217.9035 H   0  0  0  0  0  0  0  0  0  0  0  0
  145.6353   72.3934  220.4595 H   0  0  0  0  0  0  0  0  0  0  0  0
  144.4245   73.6680  220.1631 H   0  0  0  0  0  0  0  0  0  0  0  0
  141.7209   75.8182  219.4775 H   0  0  0  0  0  0  0  0  0  0  0  0
  139.9767   75.8172  219.2393 H   0  0  0  0  0  0  0  0  0  0  0  0
  141.4975   77.7763  221.1037 H   0  0  0  0  0  0  0  0  0  0  0  0
  140.9590   78.1709  219.4204 H   0  0  0  0  0  0  0  0  0  0  0  0
  139.0581   79.9522  221.0099 H   0  0  0  0  0  0  0  0  0  0  0  0
  138.9388   78.8476  222.5174 H   0  0  0  0  0  0  0  0  0  0  0  0
  141.4203   79.7061  221.2396 H   0  0  0  0  0  0  0  0  0  0  0  0
  139.8321   81.5818  222.3116 H   0  0  0  0  0  0  0  0  0  0  0  0
  140.1129   80.7545  223.8779 H   0  0  0  0  0  0  0  0  0  0  0  0
  142.2007   82.0333  222.0520 H   0  0  0  0  0  0  0  0  0  0  0  0
  141.7190   82.5812  223.6772 H   0  0  0  0  0  0  0  0  0  0  0  0
  143.4490   81.2240  224.2680 H   0  0  0  0  0  0  0  0  0  0  0  0
  142.9121   79.0136  224.7126 H   0  0  0  0  0  0  0  0  0  0  0  0
  141.3735   79.9531  224.8717 H   0  0  0  0  0  0  0  0  0  0  0  0
  142.2953   78.1975  222.5670 H   0  0  0  0  0  0  0  0  0  0  0  0
  140.8064   78.0602  223.5650 H   0  0  0  0  0  0  0  0  0  0  0  0
  138.1672   77.3458  222.3435 H   0  0  0  0  0  0  0  0  0  0  0  0
  138.2670   76.2442  220.9478 H   0  0  0  0  0  0  0  0  0  0  0  0
  140.6711   76.8485  222.7652 H   0  0  0  0  0  0  0  0  0  0  0  0
  139.5840   75.4998  223.0908 H   0  0  0  0  0  0  0  0  0  0  0  0
  138.3193   70.8921  222.4786 H   0  0  0  0  0  0  0  0  0  0  0  0
  139.6056   69.6072  222.5338 H   0  0  0  0  0  0  0  0  0  0  0  0
  137.5865   70.3624  224.6493 H   0  0  0  0  0  0  0  0  0  0  0  0
  137.8635   68.7706  223.8192 H   0  0  0  0  0  0  0  0  0  0  0  0
  138.4440   67.2673  225.5737 H   0  0  0  0  0  0  0  0  0  0  0  0
  140.0544   66.7281  227.3606 H   0  0  0  0  0  0  0  0  0  0  0  0
  141.7509   68.3768  228.0994 H   0  0  0  0  0  0  0  0  0  0  0  0
  141.8333   70.6132  227.0293 H   0  0  0  0  0  0  0  0  0  0  0  0
  139.3344   72.1076  225.3946 H   0  0  0  0  0  0  0  0  0  0  0  0
  141.1297   72.0300  225.1992 H   0  0  0  0  0  0  0  0  0  0  0  0
  144.0714   69.7892  221.0386 H   0  0  0  0  0  0  0  0  0  0  0  0
  142.6583   69.9271  219.9506 H   0  0  0  0  0  0  0  0  0  0  0  0
  1  2  2  0
  2  3  1  0
  3  4  2  0
  4  5  1  0
  5  6  2  0
  5  7  1  0
  7  8  1  0
  8  9  1  0
  9 10  1  0
 10 11  2  0
 11 12  1  0
 12 13  1  0
 13 14  1  0
 14 15  1  0
 15 16  1  0
 16 17  1  0
 17 18  1  0
 18 19  1  0
 19 20  1  0
 20 21  1  0
 21 22  1  0
 22 23  1  0
 16 24  1  0
 24 25  1  0
 12 26  2  0
 26 27  1  0
 27 28  1  0
 28 29  1  0
 29 30  1  0
 30 31  1  0
 31 32  2  0
 32 33  1  0
 33 34  2  0
 34 35  1  0
 35 36  2  0
 36 37  1  0
 27 38  2  0
  9 39  1  0
  6  1  1  0
 38 10  1  0
 39  4  1  0
 25 13  1  0
 37 28  1  0
 23 18  1  0
 36 31  1  0
  1 40  1  0
  2 41  1  0
  3 42  1  0
  6 43  1  0
  7 44  1  0
  7 45  1  0
  8 46  1  0
  8 47  1  0
 14 48  1  0
 14 49  1  0
 15 50  1  0
 15 51  1  0
 17 52  1  0
 17 53  1  0
 18 54  1  0
 19 55  1  0
 19 56  1  0
 20 57  1  0
 20 58  1  0
 21 59  1  0
 22 60  1  0
 22 61  1  0
 23 62  1  0
 23 63  1  0
 24 64  1  0
 24 65  1  0
 25 66  1  0
 25 67  1  0
 29 68  1  0
 29 69  1  0
 30 70  1  0
 30 71  1  0
 32 72  1  0
 33 73  1  0
 34 74  1  0
 35 75  1  0
 37 76  1  0
 37 77  1  0
 39 78  1  0
 39 79  1  0
M  END
>  <smiles>  (23) 
c1ccc2c(c1)CCN(c1nc(N3CCN(CC4CCNCC4)CC3)nc(N3CCc4ccccc4C3)n1)C2

>  <score_type>  (23) 
oracle

>  <origin>  (23) 
autodockgpu

>  <m_score__min__energy>  (23) 
-10.470000000000001

>  <m_primary>  (23) 
energy

>  <rmsd>  (23) 
3.5738864499164444

>  <m_score__min__rmsd>  (23) 
3.5738864499164444

>  <meeko>  (23) 
{"free_energy": -9.73, "intermolecular_energy": -11.23, "internal_energy": -1.22, "cluster_size": 32, "cluster_id": 3, "rank_in_cluster": 10}

>  <energy>  (23) 
-9.88

>  <cluster_rmsd>  (23) 
0.45

>  <cluster>  (23) 
3

$$$$

     RDKit          3D

 79 85  0  0  0  0  0  0  0  0999 V2000
  146.0100   68.4060  218.1270 C   0  0  0  0  0  0  0  0  0  0  0  0
  146.6400   69.5740  218.5090 C   0  0  0  0  0  0  0  0  0  0  0  0
  145.8710   70.5710  219.1090 C   0  0  0  0  0  0  0  0  0  0  0  0
  144.5170   70.4260  219.3280 C   0  0  0  0  0  0  0  0  0  0  0  0
  143.9380   69.2440  218.9280 C   0  0  0  0  0  0  0  0  0  0  0  0
  144.6490   68.2200  218.3290 C   0  0  0  0  0  0  0  0  0  0  0  0
  142.4730   68.9930  219.1210 C   0  0  0  0  0  0  0  0  0  0  0  0
  141.7540   70.3210  219.0230 C   0  0  0  0  0  0  0  0  0  0  0  0
  142.3790   71.2280  219.9640 N   0  0  0  0  0  0  0  0  0  0  0  0
  141.5460   71.8530  220.9430 C   0  0  0  0  0  0  0  0  0  0  0  0
  141.2580   73.1860  220.8870 N   0  0  0  0  0  0  0  0  0  0  0  0
  140.4850   73.7730  221.7930 C   0  0  0  0  0  0  0  0  0  0  0  0
  140.1750   75.1510  221.7530 N   0  0  0  0  0  0  0  0  0  0  0  0
  138.9840   75.7220  222.3520 C   0  0  0  0  0  0  0  0  0  0  0  0
  138.7450   77.0310  221.5620 C   0  0  0  0  0  0  0  0  0  0  0  0
  139.7710   77.9760  221.8060 N   0  0  0  0  0  0  0  0  0  0  0  0
  139.9080   78.9530  220.7980 C   0  0  0  0  0  0  0  0  0  0  0  0
  141.1540   78.9940  219.9950 C   0  0  0  0  0  0  0  0  0  0  0  0
  140.8420   78.4630  218.5790 C   0  0  0  0  0  0  0  0  0  0  0  0
  142.1290   78.0820  217.9020 C   0  0  0  0  0  0  0  0  0  0  0  0
  143.0290   79.2170  218.0060 N   0  0  0  0  0  0  0  0  0  0  0  0
  142.3450   80.4200  218.3800 C   0  0  0  0  0  0  0  0  0  0  0  0
  141.7950   80.3250  219.7940 C   0  0  0  0  0  0  0  0  0  0  0  0
  141.0670   77.3250  221.9710 C   0  0  0  0  0  0  0  0  0  0  0  0
  141.0720   76.0950  221.0850 C   0  0  0  0  0  0  0  0  0  0  0  0
  139.9820   73.0230  222.7810 N   0  0  0  0  0  0  0  0  0  0  0  0
  140.2200   71.7240  222.8960 C   0  0  0  0  0  0  0  0  0  0  0  0
  139.6420   71.0080  223.9810 N   0  0  0  0  0  0  0  0  0  0  0  0
  138.9640   69.7680  223.6940 C   0  0  0  0  0  0  0  0  0  0  0  0
  138.3970   69.1210  224.9320 C   0  0  0  0  0  0  0  0  0  0  0  0
  139.3570   69.1400  226.0610 C   0  0  0  0  0  0  0  0  0  0  0  0
  139.5810   68.0350  226.8580 C   0  0  0  0  0  0  0  0  0  0  0  0
  140.4860   68.1550  227.8710 C   0  0  0  0  0  0  0  0  0  0  0  0
  141.1680   69.3390  228.1090 C   0  0  0  0  0  0  0  0  0  0  0  0
  140.9250   70.4280  227.3000 C   0  0  0  0  0  0  0  0  0  0  0  0
  140.0270   70.3480  226.2740 C   0  0  0  0  0  0  0  0  0  0  0  0
  139.7010   71.4670  225.3560 C   0  0  0  0  0  0  0  0  0  0  0  0
  141.0060   71.1440  221.9690 N   0  0  0  0  0  0  0  0  0  0  0  0
  143.7870   71.5410  219.9720 C   0  0  0  0  0  0  0  0  0  0  0  0
  146.5985   67.6066  217.6530 H   0  0  0  0  0  0  0  0  0  0  0  0
  147.7186   69.7142  218.3446 H   0  0  0  0  0  0  0  0  0  0  0  0
  146.3616   71.5057  219.4184 H   0  0  0  0  0  0  0  0  0  0  0  0
  144.1520   67.2878  218.0224 H   0  0  0  0  0  0  0  0  0  0  0  0
  142.1051   68.3109  218.3404 H   0  0  0  0  0  0  0  0  0  0  0  0
  142.2905   68.5312  220.1026 H   0  0  0  0  0  0  0  0  0  0  0  0
  141.8419   70.7207  218.0019 H   0  0  0  0  0  0  0  0  0  0  0  0
  140.6855   70.1998  219.2547 H   0  0  0  0  0  0  0  0  0  0  0  0
  138.1281   75.0397  222.2428 H   0  0  0  0  0  0  0  0  0  0  0  0
  139.1015   75.8993  223.4312 H   0  0  0  0  0  0  0  0  0  0  0  0
  138.7190   76.8005  220.4867 H   0  0  0  0  0  0  0  0  0  0  0  0
  137.7892   77.4647  221.8913 H   0  0  0  0  0  0  0  0  0  0  0  0
  139.0762   78.8066  220.0933 H   0  0  0  0  0  0  0  0  0  0  0  0
  139.9236   79.9021  221.3539 H   0  0  0  0  0  0  0  0  0  0  0  0
  141.8613   78.3920  220.5844 H   0  0  0  0  0  0  0  0  0  0  0  0
  140.1890   77.5808  218.6520 H   0  0  0  0  0  0  0  0  0  0  0  0
  140.3326   79.2433  217.9945 H   0  0  0  0  0  0  0  0  0  0  0  0
  142.5702   77.2059  218.3997 H   0  0  0  0  0  0  0  0  0  0  0  0
  141.9508   77.8239  216.8476 H   0  0  0  0  0  0  0  0  0  0  0  0
  143.6230   79.3340  217.1780 H   0  0  0  0  0  0  0  0  0  0  0  0
  143.0482   81.2641  218.3249 H   0  0  0  0  0  0  0  0  0  0  0  0
  141.5025   80.5700  217.6888 H   0  0  0  0  0  0  0  0  0  0  0  0
  142.6166   80.4479  220.5150 H   0  0  0  0  0  0  0  0  0  0  0  0
  141.0471   81.1167  219.9481 H   0  0  0  0  0  0  0  0  0  0  0  0
  141.8730   78.0097  221.6684 H   0  0  0  0  0  0  0  0  0  0  0  0
  141.2312   77.0471  223.0226 H   0  0  0  0  0  0  0  0  0  0  0  0
  140.6984   76.3397  220.0798 H   0  0  0  0  0  0  0  0  0  0  0  0
  142.0833   75.6835  220.9506 H   0  0  0  0  0  0  0  0  0  0  0  0
  138.1409   69.9699  222.9928 H   0  0  0  0  0  0  0  0  0  0  0  0
  139.7017   69.0754  223.2625 H   0  0  0  0  0  0  0  0  0  0  0  0
  137.4876   69.6631  225.2306 H   0  0  0  0  0  0  0  0  0  0  0  0
  138.1754   68.0702  224.6937 H   0  0  0  0  0  0  0  0  0  0  0  0
  139.0473   67.0895  226.6817 H   0  0  0  0  0  0  0  0  0  0  0  0
  140.6808   67.2873  228.5184 H   0  0  0  0  0  0  0  0  0  0  0  0
  141.8936   69.4080  228.9329 H   0  0  0  0  0  0  0  0  0  0  0  0
  141.4600   71.3716  227.4826 H   0  0  0  0  0  0  0  0  0  0  0  0
  138.7253   71.8904  225.6365 H   0  0  0  0  0  0  0  0  0  0  0  0
  140.4889   72.2301  225.4383 H   0  0  0  0  0  0  0  0  0  0  0  0
  143.9637   72.4723  219.4139 H   0  0  0  0  0  0  0  0  0  0  0  0
  144.1384   71.6759  221.0056 H   0  0  0  0  0  0  0  0  0  0  0  0
  1  2  2  0
  2  3  1  0
  3  4  2  0
  4  5  1  0
  5  6  2  0
  5  7  1  0
  7  8  1  0
  8  9  1  0
  9 10  1  0
 10 11  2  0
 11 12  1  0
 12 13  1  0
 13 14  1  0
 14 15  1  0
 15 16  1  0
 16 17  1  0
 17 18  1  0
 18 19  1  0
 19 20  1  0
 20 21  1  0
 21 22  1  0
 22 23  1  0
 16 24  1  0
 24 25  1  0
 12 26  2  0
 26 27  1  0
 27 28  1  0
 28 29  1  0
 29 30  1  0
 30 31  1  0
 31 32  2  0
 32 33  1  0
 33 34  2  0
 34 35  1  0
 35 36  2  0
 36 37  1  0
 27 38  2  0
  9 39  1  0
  6  1  1  0
 38 10  1  0
 39  4  1  0
 25 13  1  0
 37 28  1  0
 23 18  1  0
 36 31  1  0
  1 40  1  0
  2 41  1  0
  3 42  1  0
  6 43  1  0
  7 44  1  0
  7 45  1  0
  8 46  1  0
  8 47  1  0
 14 48  1  0
 14 49  1  0
 15 50  1  0
 15 51  1  0
 17 52  1  0
 17 53  1  0
 18 54  1  0
 19 55  1  0
 19 56  1  0
 20 57  1  0
 20 58  1  0
 21 59  1  0
 22 60  1  0
 22 61  1  0
 23 62  1  0
 23 63  1  0
 24 64  1  0
 24 65  1  0
 25 66  1  0
 25 67  1  0
 29 68  1  0
 29 69  1  0
 30 70  1  0
 30 71  1  0
 32 72  1  0
 33 73  1  0
 34 74  1  0
 35 75  1  0
 37 76  1  0
 37 77  1  0
 39 78  1  0
 39 79  1  0
M  END
>  <smiles>  (24) 
c1ccc2c(c1)CCN(c1nc(N3CCN(CC4CCNCC4)CC3)nc(N3CCc4ccccc4C3)n1)C2

>  <score_type>  (24) 
oracle

>  <origin>  (24) 
autodockgpu

>  <m_score__min__energy>  (24) 
-10.470000000000001

>  <m_primary>  (24) 
energy

>  <rmsd>  (24) 
3.9990141263675456

>  <m_score__min__rmsd>  (24) 
3.9990141263675456

>  <meeko>  (24) 
{"free_energy": -9.6, "intermolecular_energy": -11.09, "internal_energy": -1.26, "cluster_size": 32, "cluster_id": 3, "rank_in_cluster": 21}

>  <energy>  (24) 
-9.88

>  <cluster_rmsd>  (24) 
0.9

>  <cluster>  (24) 
3

$$$$

     RDKit          3D

 79 85  0  0  0  0  0  0  0  0999 V2000
  146.0460   68.3990  218.2870 C   0  0  0  0  0  0  0  0  0  0  0  0
  146.6510   69.5830  218.6620 C   0  0  0  0  0  0  0  0  0  0  0  0
  145.8540   70.5790  219.2260 C   0  0  0  0  0  0  0  0  0  0  0  0
  144.4980   70.4180  219.4190 C   0  0  0  0  0  0  0  0  0  0  0  0
  143.9450   69.2200  219.0280 C   0  0  0  0  0  0  0  0  0  0  0  0
  144.6840   68.1960  218.4630 C   0  0  0  0  0  0  0  0  0  0  0  0
  142.4800   68.9500  219.1940 C   0  0  0  0  0  0  0  0  0  0  0  0
  141.7430   70.2660  219.0570 C   0  0  0  0  0  0  0  0  0  0  0  0
  142.3350   71.1980  219.9940 N   0  0  0  0  0  0  0  0  0  0  0  0
  141.4720   71.8280  220.9440 C   0  0  0  0  0  0  0  0  0  0  0  0
  141.1270   73.1440  220.8310 N   0  0  0  0  0  0  0  0  0  0  0  0
  140.3260   73.7350  221.7080 C   0  0  0  0  0  0  0  0  0  0  0  0
  139.9580   75.0950  221.6090 N   0  0  0  0  0  0  0  0  0  0  0  0
  138.6740   75.5430  221.1010 C   0  0  0  0  0  0  0  0  0  0  0  0
  138.9400   76.9820  220.5970 C   0  0  0  0  0  0  0  0  0  0  0  0
  139.2410   77.8570  221.6680 N   0  0  0  0  0  0  0  0  0  0  0  0
  139.9570   79.0110  221.2880 C   0  0  0  0  0  0  0  0  0  0  0  0
  140.6690   79.7960  222.3250 C   0  0  0  0  0  0  0  0  0  0  0  0
  142.1870   79.6710  222.0780 C   0  0  0  0  0  0  0  0  0  0  0  0
  142.9250   80.0680  223.3270 C   0  0  0  0  0  0  0  0  0  0  0  0
  142.4190   81.3660  223.7370 N   0  0  0  0  0  0  0  0  0  0  0  0
  141.6740   82.0120  222.6960 C   0  0  0  0  0  0  0  0  0  0  0  0
  140.3900   81.2590  222.3890 C   0  0  0  0  0  0  0  0  0  0  0  0
  140.0090   77.1830  222.7100 C   0  0  0  0  0  0  0  0  0  0  0  0
  140.8830   76.1480  222.0280 C   0  0  0  0  0  0  0  0  0  0  0  0
  139.8510   73.0060  222.7260 N   0  0  0  0  0  0  0  0  0  0  0  0
  140.1440   71.7250  222.8970 C   0  0  0  0  0  0  0  0  0  0  0  0
  139.5920   71.0320  224.0100 N   0  0  0  0  0  0  0  0  0  0  0  0
  138.8800   69.8030  223.7610 C   0  0  0  0  0  0  0  0  0  0  0  0
  138.3460   69.1800  225.0260 C   0  0  0  0  0  0  0  0  0  0  0  0
  139.3470   69.1900  226.1190 C   0  0  0  0  0  0  0  0  0  0  0  0
  139.5790   68.0890  226.9180 C   0  0  0  0  0  0  0  0  0  0  0  0
  140.5220   68.2010  227.8970 C   0  0  0  0  0  0  0  0  0  0  0  0
  141.2360   69.3740  228.0970 C   0  0  0  0  0  0  0  0  0  0  0  0
  140.9840   70.4590  227.2860 C   0  0  0  0  0  0  0  0  0  0  0  0
  140.0470   70.3870  226.2950 C   0  0  0  0  0  0  0  0  0  0  0  0
  139.7100   71.5030  225.3770 C   0  0  0  0  0  0  0  0  0  0  0  0
  140.9580   71.1410  221.9970 N   0  0  0  0  0  0  0  0  0  0  0  0
  143.7380   71.5330  220.0260 C   0  0  0  0  0  0  0  0  0  0  0  0
  146.6562   67.6005  217.8397 H   0  0  0  0  0  0  0  0  0  0  0  0
  147.7310   69.7359  218.5198 H   0  0  0  0  0  0  0  0  0  0  0  0
  146.3238   71.5268  219.5276 H   0  0  0  0  0  0  0  0  0  0  0  0
  144.2076   67.2511  218.1628 H   0  0  0  0  0  0  0  0  0  0  0  0
  142.1394   68.2488  218.4179 H   0  0  0  0  0  0  0  0  0  0  0  0
  142.2832   68.5026  220.1795 H   0  0  0  0  0  0  0  0  0  0  0  0
  141.8463   70.6489  218.0310 H   0  0  0  0  0  0  0  0  0  0  0  0
  140.6717   70.1331  219.2684 H   0  0  0  0  0  0  0  0  0  0  0  0
  138.3352   74.8983  220.2766 H   0  0  0  0  0  0  0  0  0  0  0  0
  137.8845   75.5060  221.8660 H   0  0  0  0  0  0  0  0  0  0  0  0
  139.7899   76.9653  219.8989 H   0  0  0  0  0  0  0  0  0  0  0  0
  138.0309   77.3471  220.0967 H   0  0  0  0  0  0  0  0  0  0  0  0
  140.7102   78.6937  220.5518 H   0  0  0  0  0  0  0  0  0  0  0  0
  139.1752   79.6978  220.9316 H   0  0  0  0  0  0  0  0  0  0  0  0
  140.3030   79.3669  223.2694 H   0  0  0  0  0  0  0  0  0  0  0  0
  142.4334   78.6305  221.8200 H   0  0  0  0  0  0  0  0  0  0  0  0
  142.4823   80.3304  221.2486 H   0  0  0  0  0  0  0  0  0  0  0  0
  142.7467   79.3273  224.1205 H   0  0  0  0  0  0  0  0  0  0  0  0
  144.0079   80.1151  223.1396 H   0  0  0  0  0  0  0  0  0  0  0  0
  143.1440   81.9670  224.1440 H   0  0  0  0  0  0  0  0  0  0  0  0
  141.4226   83.0339  223.0161 H   0  0  0  0  0  0  0  0  0  0  0  0
  142.2921   82.0309  221.7863 H   0  0  0  0  0  0  0  0  0  0  0  0
  139.6521   81.4563  223.1806 H   0  0  0  0  0  0  0  0  0  0  0  0
  139.9920   81.5968  221.4208 H   0  0  0  0  0  0  0  0  0  0  0  0
  140.6359   77.9108  223.2460 H   0  0  0  0  0  0  0  0  0  0  0  0
  139.3392   76.7064  223.4409 H   0  0  0  0  0  0  0  0  0  0  0  0
  141.3930   76.5850  221.1568 H   0  0  0  0  0  0  0  0  0  0  0  0
  141.6716   75.7671  222.6936 H   0  0  0  0  0  0  0  0  0  0  0  0
  138.0360   70.0142  223.0879 H   0  0  0  0  0  0  0  0  0  0  0  0
  139.5877   69.0916  223.3103 H   0  0  0  0  0  0  0  0  0  0  0  0
  137.4595   69.7437  225.3520 H   0  0  0  0  0  0  0  0  0  0  0  0
  138.0946   68.1317  224.8070 H   0  0  0  0  0  0  0  0  0  0  0  0
  139.0218   67.1521  226.7702 H   0  0  0  0  0  0  0  0  0  0  0  0
  140.7224   67.3364  228.5469 H   0  0  0  0  0  0  0  0  0  0  0  0
  141.9931   69.4368  228.8925 H   0  0  0  0  0  0  0  0  0  0  0  0
  141.5437   71.3936  227.4384 H   0  0  0  0  0  0  0  0  0  0  0  0
  138.7537   71.9488  225.6880 H   0  0  0  0  0  0  0  0  0  0  0  0
  140.5156   72.2506  225.4225 H   0  0  0  0  0  0  0  0  0  0  0  0
  143.9127   72.4564  219.4543 H   0  0  0  0  0  0  0  0  0  0  0  0
  144.0651   71.6925  221.0641 H   0  0  0  0  0  0  0  0  0  0  0  0
  1  2  2  0
  2  3  1  0
  3  4  2  0
  4  5  1  0
  5  6  2  0
  5  7  1  0
  7  8  1  0
  8  9  1  0
  9 10  1  0
 10 11  2  0
 11 12  1  0
 12 13  1  0
 13 14  1  0
 14 15  1  0
 15 16  1  0
 16 17  1  0
 17 18  1  0
 18 19  1  0
 19 20  1  0
 20 21  1  0
 21 22  1  0
 22 23  1  0
 16 24  1  0
 24 25  1  0
 12 26  2  0
 26 27  1  0
 27 28  1  0
 28 29  1  0
 29 30  1  0
 30 31  1  0
 31 32  2  0
 32 33  1  0
 33 34  2  0
 34 35  1  0
 35 36  2  0
 36 37  1  0
 27 38  2  0
  9 39  1  0
  6  1  1  0
 38 10  1  0
 39  4  1  0
 25 13  1  0
 37 28  1  0
 23 18  1  0
 36 31  1  0
  1 40  1  0
  2 41  1  0
  3 42  1  0
  6 43  1  0
  7 44  1  0
  7 45  1  0
  8 46  1  0
  8 47  1  0
 14 48  1  0
 14 49  1  0
 15 50  1  0
 15 51  1  0
 17 52  1  0
 17 53  1  0
 18 54  1  0
 19 55  1  0
 19 56  1  0
 20 57  1  0
 20 58  1  0
 21 59  1  0
 22 60  1  0
 22 61  1  0
 23 62  1  0
 23 63  1  0
 24 64  1  0
 24 65  1  0
 25 66  1  0
 25 67  1  0
 29 68  1  0
 29 69  1  0
 30 70  1  0
 30 71  1  0
 32 72  1  0
 33 73  1  0
 34 74  1  0
 35 75  1  0
 37 76  1  0
 37 77  1  0
 39 78  1  0
 39 79  1  0
M  END
>  <smiles>  (25) 
c1ccc2c(c1)CCN(c1nc(N3CCN(CC4CCNCC4)CC3)nc(N3CCc4ccccc4C3)n1)C2

>  <score_type>  (25) 
oracle

>  <origin>  (25) 
autodockgpu

>  <m_score__min__energy>  (25) 
-10.470000000000001

>  <m_primary>  (25) 
energy

>  <rmsd>  (25) 
3.7088655419874175

>  <m_score__min__rmsd>  (25) 
3.7088655419874175

>  <meeko>  (25) 
{"free_energy": -9.66, "intermolecular_energy": -11.15, "internal_energy": -1.22, "cluster_size": 32, "cluster_id": 3, "rank_in_cluster": 15}

>  <energy>  (25) 
-9.87

>  <cluster_rmsd>  (25) 
1.05

>  <cluster>  (25) 
3

$$$$

     RDKit          3D

 79 85  0  0  0  0  0  0  0  0999 V2000
  140.1340   67.7680  227.4600 C   0  0  0  0  0  0  0  0  0  0  0  0
  139.3020   67.3380  226.4450 C   0  0  0  0  0  0  0  0  0  0  0  0
  139.1770   68.1410  225.3120 C   0  0  0  0  0  0  0  0  0  0  0  0
  139.8520   69.3360  225.1760 C   0  0  0  0  0  0  0  0  0  0  0  0
  140.6670   69.7190  226.2160 C   0  0  0  0  0  0  0  0  0  0  0  0
  140.8310   68.9650  227.3650 C   0  0  0  0  0  0  0  0  0  0  0  0
  141.4410   71.0020  226.1650 C   0  0  0  0  0  0  0  0  0  0  0  0
  140.6400   71.9990  225.3550 C   0  0  0  0  0  0  0  0  0  0  0  0
  140.3350   71.3820  224.0800 N   0  0  0  0  0  0  0  0  0  0  0  0
  140.7300   72.0720  222.8920 C   0  0  0  0  0  0  0  0  0  0  0  0
  140.3230   73.3500  222.6420 N   0  0  0  0  0  0  0  0  0  0  0  0
  140.6870   73.9980  221.5410 C   0  0  0  0  0  0  0  0  0  0  0  0
  140.2760   75.3200  221.2640 N   0  0  0  0  0  0  0  0  0  0  0  0
  139.4560   75.6810  220.1220 C   0  0  0  0  0  0  0  0  0  0  0  0
  139.7810   77.1730  219.8710 C   0  0  0  0  0  0  0  0  0  0  0  0
  139.3190   77.9890  220.9320 N   0  0  0  0  0  0  0  0  0  0  0  0
  139.9780   79.2310  221.0350 C   0  0  0  0  0  0  0  0  0  0  0  0
  140.8310   79.5020  222.2180 C   0  0  0  0  0  0  0  0  0  0  0  0
  142.1860   80.0550  221.7280 C   0  0  0  0  0  0  0  0  0  0  0  0
  143.2010   79.9210  222.8300 C   0  0  0  0  0  0  0  0  0  0  0  0
  142.6280   80.5180  224.0230 N   0  0  0  0  0  0  0  0  0  0  0  0
  141.4850   81.3310  223.7290 C   0  0  0  0  0  0  0  0  0  0  0  0
  140.3280   80.4920  223.2130 C   0  0  0  0  0  0  0  0  0  0  0  0
  139.4450   77.3120  222.2190 C   0  0  0  0  0  0  0  0  0  0  0  0
  140.6690   76.4210  222.1440 C   0  0  0  0  0  0  0  0  0  0  0  0
  141.4760   73.3650  220.6640 N   0  0  0  0  0  0  0  0  0  0  0  0
  141.9080   72.1250  220.8440 C   0  0  0  0  0  0  0  0  0  0  0  0
  142.7430   71.5340  219.8550 N   0  0  0  0  0  0  0  0  0  0  0  0
  143.8560   72.3030  219.3560 C   0  0  0  0  0  0  0  0  0  0  0  0
  144.6500   71.5580  218.3130 C   0  0  0  0  0  0  0  0  0  0  0  0
  144.9010   70.1500  218.7020 C   0  0  0  0  0  0  0  0  0  0  0  0
  146.1380   69.5540  218.5600 C   0  0  0  0  0  0  0  0  0  0  0  0
  146.2650   68.2540  218.9490 C   0  0  0  0  0  0  0  0  0  0  0  0
  145.1990   67.5360  219.4720 C   0  0  0  0  0  0  0  0  0  0  0  0
  143.9740   68.1550  219.6020 C   0  0  0  0  0  0  0  0  0  0  0  0
  143.8060   69.4560  219.2240 C   0  0  0  0  0  0  0  0  0  0  0  0
  142.5270   70.2000  219.3270 C   0  0  0  0  0  0  0  0  0  0  0  0
  141.5300   71.4830  221.9650 N   0  0  0  0  0  0  0  0  0  0  0  0
  139.6540   70.1180  223.9360 C   0  0  0  0  0  0  0  0  0  0  0  0
  140.2468   67.1493  228.3625 H   0  0  0  0  0  0  0  0  0  0  0  0
  138.7532   66.3883  226.5281 H   0  0  0  0  0  0  0  0  0  0  0  0
  138.5163   67.8095  224.4974 H   0  0  0  0  0  0  0  0  0  0  0  0
  141.4921   69.3031  228.1766 H   0  0  0  0  0  0  0  0  0  0  0  0
  141.5944   71.3863  227.1842 H   0  0  0  0  0  0  0  0  0  0  0  0
  142.4253   70.8366  225.7027 H   0  0  0  0  0  0  0  0  0  0  0  0
  139.7082   72.2493  225.8832 H   0  0  0  0  0  0  0  0  0  0  0  0
  141.2123   72.9269  225.2085 H   0  0  0  0  0  0  0  0  0  0  0  0
  139.7205   75.0721  219.2449 H   0  0  0  0  0  0  0  0  0  0  0  0
  138.3847   75.5102  220.3043 H   0  0  0  0  0  0  0  0  0  0  0  0
  140.8707   77.2909  219.7774 H   0  0  0  0  0  0  0  0  0  0  0  0
  139.2731   77.4868  218.9471 H   0  0  0  0  0  0  0  0  0  0  0  0
  140.6197   79.3289  220.1470 H   0  0  0  0  0  0  0  0  0  0  0  0
  139.1563   79.9556  221.1336 H   0  0  0  0  0  0  0  0  0  0  0  0
  140.8707   78.5320  222.7352 H   0  0  0  0  0  0  0  0  0  0  0  0
  142.5200   79.4849  220.8485 H   0  0  0  0  0  0  0  0  0  0  0  0
  142.0758   81.1144  221.4531 H   0  0  0  0  0  0  0  0  0  0  0  0
  143.4222   78.8587  223.0103 H   0  0  0  0  0  0  0  0  0  0  0  0
  144.1400   80.4244  222.5565 H   0  0  0  0  0  0  0  0  0  0  0  0
  143.3240   80.9980  224.6030 H   0  0  0  0  0  0  0  0  0  0  0  0
  141.1697   81.8507  224.6458 H   0  0  0  0  0  0  0  0  0  0  0  0
  141.7648   82.0536  222.9483 H   0  0  0  0  0  0  0  0  0  0  0  0
  139.8587   79.9598  224.0535 H   0  0  0  0  0  0  0  0  0  0  0  0
  139.5876   81.1482  222.7323 H   0  0  0  0  0  0  0  0  0  0  0  0
  139.5676   78.0526  223.0231 H   0  0  0  0  0  0  0  0  0  0  0  0
  138.5447   76.7181  222.4355 H   0  0  0  0  0  0  0  0  0  0  0  0
  141.5227   76.9701  221.7201 H   0  0  0  0  0  0  0  0  0  0  0  0
  140.9865   76.0669  223.1359 H   0  0  0  0  0  0  0  0  0  0  0  0
  143.4714   73.2320  218.9098 H   0  0  0  0  0  0  0  0  0  0  0  0
  144.5268   72.5092  220.2031 H   0  0  0  0  0  0  0  0  0  0  0  0
  144.0903   71.5697  217.3661 H   0  0  0  0  0  0  0  0  0  0  0  0
  145.6239   72.0586  218.2080 H   0  0  0  0  0  0  0  0  0  0  0  0
  146.9926   70.1097  218.1467 H   0  0  0  0  0  0  0  0  0  0  0  0
  147.2419   67.7591  218.8453 H   0  0  0  0  0  0  0  0  0  0  0  0
  145.3295   66.4877  219.7786 H   0  0  0  0  0  0  0  0  0  0  0  0
  143.1224   67.5943  220.0149 H   0  0  0  0  0  0  0  0  0  0  0  0
  142.0744   70.2776  218.3274 H   0  0  0  0  0  0  0  0  0  0  0  0
  141.8590   69.6560  220.0111 H   0  0  0  0  0  0  0  0  0  0  0  0
  138.5799   70.2912  223.7738 H   0  0  0  0  0  0  0  0  0  0  0  0
  140.0583   69.5674  223.0738 H   0  0  0  0  0  0  0  0  0  0  0  0
  1  2  2  0
  2  3  1  0
  3  4  2  0
  4  5  1  0
  5  6  2  0
  5  7  1  0
  7  8  1  0
  8  9  1  0
  9 10  1  0
 10 11  2  0
 11 12  1  0
 12 13  1  0
 13 14  1  0
 14 15  1  0
 15 16  1  0
 16 17  1  0
 17 18  1  0
 18 19  1  0
 19 20  1  0
 20 21  1  0
 21 22  1  0
 22 23  1  0
 16 24  1  0
 24 25  1  0
 12 26  2  0
 26 27  1  0
 27 28  1  0
 28 29  1  0
 29 30  1  0
 30 31  1  0
 31 32  2  0
 32 33  1  0
 33 34  2  0
 34 35  1  0
 35 36  2  0
 36 37  1  0
 27 38  2  0
  9 39  1  0
  6  1  1  0
 38 10  1  0
 39  4  1  0
 25 13  1  0
 37 28  1  0
 23 18  1  0
 36 31  1  0
  1 40  1  0
  2 41  1  0
  3 42  1  0
  6 43  1  0
  7 44  1  0
  7 45  1  0
  8 46  1  0
  8 47  1  0
 14 48  1  0
 14 49  1  0
 15 50  1  0
 15 51  1  0
 17 52  1  0
 17 53  1  0
 18 54  1  0
 19 55  1  0
 19 56  1  0
 20 57  1  0
 20 58  1  0
 21 59  1  0
 22 60  1  0
 22 61  1  0
 23 62  1  0
 23 63  1  0
 24 64  1  0
 24 65  1  0
 25 66  1  0
 25 67  1  0
 29 68  1  0
 29 69  1  0
 30 70  1  0
 30 71  1  0
 32 72  1  0
 33 73  1  0
 34 74  1  0
 35 75  1  0
 37 76  1  0
 37 77  1  0
 39 78  1  0
 39 79  1  0
M  END
>  <smiles>  (26) 
c1ccc2c(c1)CCN(c1nc(N3CCN(CC4CCNCC4)CC3)nc(N3CCc4ccccc4C3)n1)C2

>  <score_type>  (26) 
oracle

>  <origin>  (26) 
autodockgpu

>  <m_score__min__energy>  (26) 
-10.470000000000001

>  <m_primary>  (26) 
energy

>  <rmsd>  (26) 
3.6147723660164988

>  <m_score__min__rmsd>  (26) 
3.6147723660164988

>  <meeko>  (26) 
{"free_energy": -9.9, "intermolecular_energy": -11.39, "internal_energy": -1.24, "cluster_size": 32, "cluster_id": 3, "rank_in_cluster": 5}

>  <energy>  (26) 
-9.73

>  <cluster_rmsd>  (26) 
0.99

>  <cluster>  (26) 
3

$$$$

     RDKit          3D

 79 85  0  0  0  0  0  0  0  0999 V2000
  141.7990   81.2630  222.2860 C   0  0  0  0  0  0  0  0  0  0  0  0
  141.3810   80.7750  223.5090 C   0  0  0  0  0  0  0  0  0  0  0  0
  141.1070   79.4120  223.6150 C   0  0  0  0  0  0  0  0  0  0  0  0
  141.2390   78.5480  222.5480 C   0  0  0  0  0  0  0  0  0  0  0  0
  141.6570   79.0840  221.3530 C   0  0  0  0  0  0  0  0  0  0  0  0
  141.9450   80.4280  221.1870 C   0  0  0  0  0  0  0  0  0  0  0  0
  141.8290   78.2270  220.1340 C   0  0  0  0  0  0  0  0  0  0  0  0
  140.8190   77.1020  220.2080 C   0  0  0  0  0  0  0  0  0  0  0  0
  140.9900   76.4430  221.4860 N   0  0  0  0  0  0  0  0  0  0  0  0
  141.2380   75.0350  221.4840 C   0  0  0  0  0  0  0  0  0  0  0  0
  140.3970   74.1630  222.1120 N   0  0  0  0  0  0  0  0  0  0  0  0
  140.6200   72.8540  222.1130 C   0  0  0  0  0  0  0  0  0  0  0  0
  139.7630   71.9350  222.7580 N   0  0  0  0  0  0  0  0  0  0  0  0
  138.3170   71.9710  222.6420 C   0  0  0  0  0  0  0  0  0  0  0  0
  137.8100   71.2650  223.9220 C   0  0  0  0  0  0  0  0  0  0  0  0
  138.1480   69.8890  223.9210 N   0  0  0  0  0  0  0  0  0  0  0  0
  138.1750   69.3000  225.2020 C   0  0  0  0  0  0  0  0  0  0  0  0
  139.4570   69.2430  225.9450 C   0  0  0  0  0  0  0  0  0  0  0  0
  139.2040   69.7070  227.3950 C   0  0  0  0  0  0  0  0  0  0  0  0
  140.5160   70.0780  228.0290 C   0  0  0  0  0  0  0  0  0  0  0  0
  141.4240   68.9610  227.8340 N   0  0  0  0  0  0  0  0  0  0  0  0
  140.7390   67.7660  227.4400 C   0  0  0  0  0  0  0  0  0  0  0  0
  140.1230   67.9140  226.0580 C   0  0  0  0  0  0  0  0  0  0  0  0
  139.4480   69.6590  223.3000 C   0  0  0  0  0  0  0  0  0  0  0  0
  140.3120   70.8690  223.5970 C   0  0  0  0  0  0  0  0  0  0  0  0
  141.7040   72.3940  221.4750 N   0  0  0  0  0  0  0  0  0  0  0  0
  142.5620   73.1840  220.8450 C   0  0  0  0  0  0  0  0  0  0  0  0
  143.6870   72.6040  220.1960 N   0  0  0  0  0  0  0  0  0  0  0  0
  143.7200   71.1700  220.0440 C   0  0  0  0  0  0  0  0  0  0  0  0
  144.9680   70.6930  219.3440 C   0  0  0  0  0  0  0  0  0  0  0  0
  145.2950   71.5220  218.1600 C   0  0  0  0  0  0  0  0  0  0  0  0
  145.6680   70.9690  216.9520 C   0  0  0  0  0  0  0  0  0  0  0  0
  145.9470   71.8180  215.9230 C   0  0  0  0  0  0  0  0  0  0  0  0
  145.8660   73.1960  216.0650 C   0  0  0  0  0  0  0  0  0  0  0  0
  145.4930   73.7230  217.2830 C   0  0  0  0  0  0  0  0  0  0  0  0
  145.2050   72.9060  218.3380 C   0  0  0  0  0  0  0  0  0  0  0  0
  144.7970   73.3830  219.6820 C   0  0  0  0  0  0  0  0  0  0  0  0
  142.3200   74.5080  220.8530 N   0  0  0  0  0  0  0  0  0  0  0  0
  140.9240   77.1170  222.7600 C   0  0  0  0  0  0  0  0  0  0  0  0
  142.0206   82.3353  222.1811 H   0  0  0  0  0  0  0  0  0  0  0  0
  141.2675   81.4433  224.3753 H   0  0  0  0  0  0  0  0  0  0  0  0
  140.7738   79.0116  224.5838 H   0  0  0  0  0  0  0  0  0  0  0  0
  142.2788   80.8213  220.2155 H   0  0  0  0  0  0  0  0  0  0  0  0
  141.6546   78.8265  219.2284 H   0  0  0  0  0  0  0  0  0  0  0  0
  142.8507   77.8216  220.0925 H   0  0  0  0  0  0  0  0  0  0  0  0
  139.7995   77.5074  220.1285 H   0  0  0  0  0  0  0  0  0  0  0  0
  140.9722   76.3906  219.3831 H   0  0  0  0  0  0  0  0  0  0  0  0
  137.9556   73.0091  222.6011 H   0  0  0  0  0  0  0  0  0  0  0  0
  137.9580   71.4828  221.7240 H   0  0  0  0  0  0  0  0  0  0  0  0
  138.2662   71.7451  224.8003 H   0  0  0  0  0  0  0  0  0  0  0  0
  136.7140   71.3526  223.9550 H   0  0  0  0  0  0  0  0  0  0  0  0
  137.4651   69.8602  225.8283 H   0  0  0  0  0  0  0  0  0  0  0  0
  137.9371   68.2435  225.0093 H   0  0  0  0  0  0  0  0  0  0  0  0
  140.1286   69.8806  225.3514 H   0  0  0  0  0  0  0  0  0  0  0  0
  138.5366   70.5814  227.3908 H   0  0  0  0  0  0  0  0  0  0  0  0
  138.7326   68.8943  227.9672 H   0  0  0  0  0  0  0  0  0  0  0  0
  140.9227   70.9811  227.5505 H   0  0  0  0  0  0  0  0  0  0  0  0
  140.3838   70.2885  229.1005 H   0  0  0  0  0  0  0  0  0  0  0  0
  142.0580   68.8180  228.6280 H   0  0  0  0  0  0  0  0  0  0  0  0
  141.4545   66.9306  227.4261 H   0  0  0  0  0  0  0  0  0  0  0  0
  139.9315   67.5740  228.1619 H   0  0  0  0  0  0  0  0  0  0  0  0
  140.9118   67.8342  225.2955 H   0  0  0  0  0  0  0  0  0  0  0  0
  139.3786   67.1190  225.9037 H   0  0  0  0  0  0  0  0  0  0  0  0
  139.9108   68.7540  223.7205 H   0  0  0  0  0  0  0  0  0  0  0  0
  139.3404   69.5152  222.2148 H   0  0  0  0  0  0  0  0  0  0  0  0
  140.2462   71.1405  224.6609 H   0  0  0  0  0  0  0  0  0  0  0  0
  141.3754   70.6815  223.3874 H   0  0  0  0  0  0  0  0  0  0  0  0
  143.6764   70.7082  221.0414 H   0  0  0  0  0  0  0  0  0  0  0  0
  142.8577   70.8790  219.4262 H   0  0  0  0  0  0  0  0  0  0  0  0
  145.8097   70.7366  220.0508 H   0  0  0  0  0  0  0  0  0  0  0  0
  144.7899   69.6641  218.9981 H   0  0  0  0  0  0  0  0  0  0  0  0
  145.7379   69.8787  216.8238 H   0  0  0  0  0  0  0  0  0  0  0  0
  146.2453   71.3984  214.9509 H   0  0  0  0  0  0  0  0  0  0  0  0
  146.0962   73.8585  215.2176 H   0  0  0  0  0  0  0  0  0  0  0  0
  145.4267   74.8141  217.4061 H   0  0  0  0  0  0  0  0  0  0  0  0
  145.6500   73.2911  220.3704 H   0  0  0  0  0  0  0  0  0  0  0  0
  144.4793   74.4329  219.5993 H   0  0  0  0  0  0  0  0  0  0  0  0
  139.9126   77.0176  223.1810 H   0  0  0  0  0  0  0  0  0  0  0  0
  141.6445   76.6711  223.4615 H   0  0  0  0  0  0  0  0  0  0  0  0
  1  2  2  0
  2  3  1  0
  3  4  2  0
  4  5  1  0
  5  6  2  0
  5  7  1  0
  7  8  1  0
  8  9  1  0
  9 10  1  0
 10 11  2  0
 11 12  1  0
 12 13  1  0
 13 14  1  0
 14 15  1  0
 15 16  1  0
 16 17  1  0
 17 18  1  0
 18 19  1  0
 19 20  1  0
 20 21  1  0
 21 22  1  0
 22 23  1  0
 16 24  1  0
 24 25  1  0
 12 26  2  0
 26 27  1  0
 27 28  1  0
 28 29  1  0
 29 30  1  0
 30 31  1  0
 31 32  2  0
 32 33  1  0
 33 34  2  0
 34 35  1  0
 35 36  2  0
 36 37  1  0
 27 38  2  0
  9 39  1  0
  6  1  1  0
 38 10  1  0
 39  4  1  0
 25 13  1  0
 37 28  1  0
 23 18  1  0
 36 31  1  0
  1 40  1  0
  2 41  1  0
  3 42  1  0
  6 43  1  0
  7 44  1  0
  7 45  1  0
  8 46  1  0
  8 47  1  0
 14 48  1  0
 14 49  1  0
 15 50  1  0
 15 51  1  0
 17 52  1  0
 17 53  1  0
 18 54  1  0
 19 55  1  0
 19 56  1  0
 20 57  1  0
 20 58  1  0
 21 59  1  0
 22 60  1  0
 22 61  1  0
 23 62  1  0
 23 63  1  0
 24 64  1  0
 24 65  1  0
 25 66  1  0
 25 67  1  0
 29 68  1  0
 29 69  1  0
 30 70  1  0
 30 71  1  0
 32 72  1  0
 33 73  1  0
 34 74  1  0
 35 75  1  0
 37 76  1  0
 37 77  1  0
 39 78  1  0
 39 79  1  0
M  END
>  <smiles>  (27) 
c1ccc2c(c1)CCN(c1nc(N3CCN(CC4CCNCC4)CC3)nc(N3CCc4ccccc4C3)n1)C2

>  <score_type>  (27) 
oracle

>  <origin>  (27) 
autodockgpu

>  <m_score__min__energy>  (27) 
-10.470000000000001

>  <m_primary>  (27) 
energy

>  <rmsd>  (27) 
10.749032226630456

>  <m_score__min__rmsd>  (27) 
10.749032226630456

>  <meeko>  (27) 
{"free_energy": -9.76, "intermolecular_energy": -11.25, "internal_energy": -1.18, "cluster_size": 9, "cluster_id": 1, "rank_in_cluster": 9}

>  <energy>  (27) 
-9.72

>  <cluster_rmsd>  (27) 
0.47

>  <cluster>  (27) 
3

$$$$

     RDKit          3D

 79 85  0  0  0  0  0  0  0  0999 V2000
  146.0030   68.5510  218.1600 C   0  0  0  0  0  0  0  0  0  0  0  0
  146.6820   69.6400  218.6710 C   0  0  0  0  0  0  0  0  0  0  0  0
  145.9410   70.6490  219.2860 C   0  0  0  0  0  0  0  0  0  0  0  0
  144.5680   70.5920  219.3970 C   0  0  0  0  0  0  0  0  0  0  0  0
  143.9400   69.4870  218.8710 C   0  0  0  0  0  0  0  0  0  0  0  0
  144.6210   68.4550  218.2500 C   0  0  0  0  0  0  0  0  0  0  0  0
  142.4490   69.3340  218.9400 C   0  0  0  0  0  0  0  0  0  0  0  0
  141.8350   70.7170  218.8890 C   0  0  0  0  0  0  0  0  0  0  0  0
  142.4480   71.5080  219.9360 N   0  0  0  0  0  0  0  0  0  0  0  0
  141.5890   72.1260  220.8970 C   0  0  0  0  0  0  0  0  0  0  0  0
  141.2970   73.4570  220.8390 N   0  0  0  0  0  0  0  0  0  0  0  0
  140.4990   74.0380  221.7270 C   0  0  0  0  0  0  0  0  0  0  0  0
  140.1850   75.4150  221.6840 N   0  0  0  0  0  0  0  0  0  0  0  0
  139.0540   76.0000  222.3790 C   0  0  0  0  0  0  0  0  0  0  0  0
  138.7400   77.2900  221.5850 C   0  0  0  0  0  0  0  0  0  0  0  0
  139.7830   78.2400  221.7090 N   0  0  0  0  0  0  0  0  0  0  0  0
  139.8230   79.1930  220.6710 C   0  0  0  0  0  0  0  0  0  0  0  0
  141.0760   79.3690  219.8980 C   0  0  0  0  0  0  0  0  0  0  0  0
  140.8450   78.8440  218.4650 C   0  0  0  0  0  0  0  0  0  0  0  0
  142.1770   78.5990  217.8100 C   0  0  0  0  0  0  0  0  0  0  0  0
  142.9630   79.8110  217.9580 N   0  0  0  0  0  0  0  0  0  0  0  0
  142.1620   80.9360  218.3410 C   0  0  0  0  0  0  0  0  0  0  0  0
  141.5940   80.7580  219.7390 C   0  0  0  0  0  0  0  0  0  0  0  0
  141.0890   77.5930  221.7680 C   0  0  0  0  0  0  0  0  0  0  0  0
  141.0130   76.3420  220.9140 C   0  0  0  0  0  0  0  0  0  0  0  0
  139.9750   73.2820  222.7000 N   0  0  0  0  0  0  0  0  0  0  0  0
  140.2160   71.9840  222.8160 C   0  0  0  0  0  0  0  0  0  0  0  0
  139.6150   71.2620  223.8840 N   0  0  0  0  0  0  0  0  0  0  0  0
  138.6470   70.2430  223.5560 C   0  0  0  0  0  0  0  0  0  0  0  0
  138.0890   69.5640  224.7810 C   0  0  0  0  0  0  0  0  0  0  0  0
  139.1460   69.2240  225.7630 C   0  0  0  0  0  0  0  0  0  0  0  0
  139.2020   67.9970  226.3920 C   0  0  0  0  0  0  0  0  0  0  0  0
  140.2160   67.7830  227.2780 C   0  0  0  0  0  0  0  0  0  0  0  0
  141.1700   68.7530  227.5510 C   0  0  0  0  0  0  0  0  0  0  0  0
  141.0910   69.9700  226.9090 C   0  0  0  0  0  0  0  0  0  0  0  0
  140.0900   70.2240  226.0140 C   0  0  0  0  0  0  0  0  0  0  0  0
  139.9260   71.5020  225.2800 C   0  0  0  0  0  0  0  0  0  0  0  0
  141.0270   71.4110  221.9060 N   0  0  0  0  0  0  0  0  0  0  0  0
  143.8710   71.7120  220.0670 C   0  0  0  0  0  0  0  0  0  0  0  0
  146.5687   67.7437  217.6720 H   0  0  0  0  0  0  0  0  0  0  0  0
  147.7772   69.7095  218.5950 H   0  0  0  0  0  0  0  0  0  0  0  0
  146.4708   71.5210  219.6970 H   0  0  0  0  0  0  0  0  0  0  0  0
  144.0845   67.5863  217.8407 H   0  0  0  0  0  0  0  0  0  0  0  0
  142.0950   68.7365  218.0870 H   0  0  0  0  0  0  0  0  0  0  0  0
  142.1596   68.8210  219.8690 H   0  0  0  0  0  0  0  0  0  0  0  0
  142.0289   71.1774  217.9090 H   0  0  0  0  0  0  0  0  0  0  0  0
  140.7461   70.6615  219.0346 H   0  0  0  0  0  0  0  0  0  0  0  0
  138.1929   75.3157  222.3662 H   0  0  0  0  0  0  0  0  0  0  0  0
  139.2715   76.2020  223.4382 H   0  0  0  0  0  0  0  0  0  0  0  0
  138.6132   77.0344  220.5227 H   0  0  0  0  0  0  0  0  0  0  0  0
  137.8190   77.7320  221.9929 H   0  0  0  0  0  0  0  0  0  0  0  0
  139.0377   78.9177  219.9517 H   0  0  0  0  0  0  0  0  0  0  0  0
  139.7008   80.1535  221.1931 H   0  0  0  0  0  0  0  0  0  0  0  0
  141.8239   78.8227  220.4915 H   0  0  0  0  0  0  0  0  0  0  0  0
  140.2754   77.9038  218.5045 H   0  0  0  0  0  0  0  0  0  0  0  0
  140.2778   79.5869  217.8850 H   0  0  0  0  0  0  0  0  0  0  0  0
  142.6880   77.7573  218.3003 H   0  0  0  0  0  0  0  0  0  0  0  0
  142.0468   78.3478  216.7470 H   0  0  0  0  0  0  0  0  0  0  0  0
  143.5620   80.0010  217.1470 H   0  0  0  0  0  0  0  0  0  0  0  0
  142.7842   81.8429  218.3197 H   0  0  0  0  0  0  0  0  0  0  0  0
  141.3239   81.0227  217.6338 H   0  0  0  0  0  0  0  0  0  0  0  0
  142.3852   80.9403  220.4811 H   0  0  0  0  0  0  0  0  0  0  0  0
  140.7721   81.4730  219.8920 H   0  0  0  0  0  0  0  0  0  0  0  0
  141.8622   78.2699  221.3757 H   0  0  0  0  0  0  0  0  0  0  0  0
  141.3511   77.3400  222.8059 H   0  0  0  0  0  0  0  0  0  0  0  0
  140.5465   76.5634  219.9428 H   0  0  0  0  0  0  0  0  0  0  0  0
  142.0080   75.9271  220.6952 H   0  0  0  0  0  0  0  0  0  0  0  0
  137.8185   70.7082  223.0018 H   0  0  0  0  0  0  0  0  0  0  0  0
  139.1571   69.4782  222.9519 H   0  0  0  0  0  0  0  0  0  0  0  0
  137.3638   70.2380  225.2603 H   0  0  0  0  0  0  0  0  0  0  0  0
  137.6122   68.6262  224.4597 H   0  0  0  0  0  0  0  0  0  0  0  0
  138.4536   67.2177  226.1855 H   0  0  0  0  0  0  0  0  0  0  0  0
  140.2797   66.8124  227.7917 H   0  0  0  0  0  0  0  0  0  0  0  0
  141.9782   68.5533  228.2700 H   0  0  0  0  0  0  0  0  0  0  0  0
  141.8421   70.7456  227.1194 H   0  0  0  0  0  0  0  0  0  0  0  0
  139.1075   72.0773  225.7373 H   0  0  0  0  0  0  0  0  0  0  0  0
  140.8701   72.0636  225.3377 H   0  0  0  0  0  0  0  0  0  0  0  0
  144.1550   72.6630  219.5927 H   0  0  0  0  0  0  0  0  0  0  0  0
  144.1508   71.7488  221.1302 H   0  0  0  0  0  0  0  0  0  0  0  0
  1  2  2  0
  2  3  1  0
  3  4  2  0
  4  5  1  0
  5  6  2  0
  5  7  1  0
  7  8  1  0
  8  9  1  0
  9 10  1  0
 10 11  2  0
 11 12  1  0
 12 13  1  0
 13 14  1  0
 14 15  1  0
 15 16  1  0
 16 17  1  0
 17 18  1  0
 18 19  1  0
 19 20  1  0
 20 21  1  0
 21 22  1  0
 22 23  1  0
 16 24  1  0
 24 25  1  0
 12 26  2  0
 26 27  1  0
 27 28  1  0
 28 29  1  0
 29 30  1  0
 30 31  1  0
 31 32  2  0
 32 33  1  0
 33 34  2  0
 34 35  1  0
 35 36  2  0
 36 37  1  0
 27 38  2  0
  9 39  1  0
  6  1  1  0
 38 10  1  0
 39  4  1  0
 25 13  1  0
 37 28  1  0
 23 18  1  0
 36 31  1  0
  1 40  1  0
  2 41  1  0
  3 42  1  0
  6 43  1  0
  7 44  1  0
  7 45  1  0
  8 46  1  0
  8 47  1  0
 14 48  1  0
 14 49  1  0
 15 50  1  0
 15 51  1  0
 17 52  1  0
 17 53  1  0
 18 54  1  0
 19 55  1  0
 19 56  1  0
 20 57  1  0
 20 58  1  0
 21 59  1  0
 22 60  1  0
 22 61  1  0
 23 62  1  0
 23 63  1  0
 24 64  1  0
 24 65  1  0
 25 66  1  0
 25 67  1  0
 29 68  1  0
 29 69  1  0
 30 70  1  0
 30 71  1  0
 32 72  1  0
 33 73  1  0
 34 74  1  0
 35 75  1  0
 37 76  1  0
 37 77  1  0
 39 78  1  0
 39 79  1  0
M  END
>  <smiles>  (28) 
c1ccc2c(c1)CCN(c1nc(N3CCN(CC4CCNCC4)CC3)nc(N3CCc4ccccc4C3)n1)C2

>  <score_type>  (28) 
oracle

>  <origin>  (28) 
autodockgpu

>  <m_score__min__energy>  (28) 
-10.470000000000001

>  <m_primary>  (28) 
energy

>  <rmsd>  (28) 
3.8427065944981256

>  <m_score__min__rmsd>  (28) 
3.8427065944981256

>  <meeko>  (28) 
{"free_energy": -9.59, "intermolecular_energy": -11.09, "internal_energy": -1.27, "cluster_size": 32, "cluster_id": 3, "rank_in_cluster": 22}

>  <energy>  (28) 
-9.69

>  <cluster_rmsd>  (28) 
0.95

>  <cluster>  (28) 
3

$$$$

     RDKit          3D

 79 85  0  0  0  0  0  0  0  0999 V2000
  145.9500   68.2070  218.2230 C   0  0  0  0  0  0  0  0  0  0  0  0
  146.5660   69.4070  218.5230 C   0  0  0  0  0  0  0  0  0  0  0  0
  145.7900   70.4220  219.0810 C   0  0  0  0  0  0  0  0  0  0  0  0
  144.4450   70.2660  219.3400 C   0  0  0  0  0  0  0  0  0  0  0  0
  143.8800   69.0520  219.0220 C   0  0  0  0  0  0  0  0  0  0  0  0
  144.5980   68.0070  218.4670 C   0  0  0  0  0  0  0  0  0  0  0  0
  142.4240   68.7850  219.2630 C   0  0  0  0  0  0  0  0  0  0  0  0
  141.6770   70.0920  219.1040 C   0  0  0  0  0  0  0  0  0  0  0  0
  142.3050   71.0640  219.9760 N   0  0  0  0  0  0  0  0  0  0  0  0
  141.4810   71.7300  220.9370 C   0  0  0  0  0  0  0  0  0  0  0  0
  141.1740   73.0540  220.8150 N   0  0  0  0  0  0  0  0  0  0  0  0
  140.4090   73.6790  221.7020 C   0  0  0  0  0  0  0  0  0  0  0  0
  140.0790   75.0480  221.5950 N   0  0  0  0  0  0  0  0  0  0  0  0
  138.7980   75.5280  221.1110 C   0  0  0  0  0  0  0  0  0  0  0  0
  139.0950   76.9520  220.5840 C   0  0  0  0  0  0  0  0  0  0  0  0
  139.4460   77.8310  221.6370 N   0  0  0  0  0  0  0  0  0  0  0  0
  140.1870   78.9580  221.2260 C   0  0  0  0  0  0  0  0  0  0  0  0
  140.6920   79.9050  222.2500 C   0  0  0  0  0  0  0  0  0  0  0  0
  142.2040   79.6600  222.4400 C   0  0  0  0  0  0  0  0  0  0  0  0
  142.6420   80.2690  223.7430 C   0  0  0  0  0  0  0  0  0  0  0  0
  142.1810   81.6460  223.7560 N   0  0  0  0  0  0  0  0  0  0  0  0
  141.7870   82.1000  222.4550 C   0  0  0  0  0  0  0  0  0  0  0  0
  140.5520   81.3610  221.9650 C   0  0  0  0  0  0  0  0  0  0  0  0
  140.2180   77.1450  222.6690 C   0  0  0  0  0  0  0  0  0  0  0  0
  141.0450   76.0770  221.9800 C   0  0  0  0  0  0  0  0  0  0  0  0
  139.9340   72.9750  222.7390 N   0  0  0  0  0  0  0  0  0  0  0  0
  140.1940   71.6880  222.9180 C   0  0  0  0  0  0  0  0  0  0  0  0
  139.6450   71.0240  224.0510 N   0  0  0  0  0  0  0  0  0  0  0  0
  138.9050   69.8050  223.8330 C   0  0  0  0  0  0  0  0  0  0  0  0
  138.3790   69.2140  225.1160 C   0  0  0  0  0  0  0  0  0  0  0  0
  139.3970   69.2220  226.1940 C   0  0  0  0  0  0  0  0  0  0  0  0
  139.6190   68.1290  227.0070 C   0  0  0  0  0  0  0  0  0  0  0  0
  140.5790   68.2380  227.9690 C   0  0  0  0  0  0  0  0  0  0  0  0
  141.3190   69.4000  228.1400 C   0  0  0  0  0  0  0  0  0  0  0  0
  141.0760   70.4760  227.3140 C   0  0  0  0  0  0  0  0  0  0  0  0
  140.1230   70.4070  226.3390 C   0  0  0  0  0  0  0  0  0  0  0  0
  139.7940   71.5140  225.4080 C   0  0  0  0  0  0  0  0  0  0  0  0
  140.9700   71.0700  222.0090 N   0  0  0  0  0  0  0  0  0  0  0  0
  143.7070   71.4030  219.9340 C   0  0  0  0  0  0  0  0  0  0  0  0
  146.5435   67.3929  217.7815 H   0  0  0  0  0  0  0  0  0  0  0  0
  147.6380   69.5571  218.3271 H   0  0  0  0  0  0  0  0  0  0  0  0
  146.2684   71.3824  219.3234 H   0  0  0  0  0  0  0  0  0  0  0  0
  144.1132   67.0492  218.2270 H   0  0  0  0  0  0  0  0  0  0  0  0
  142.0529   68.0515  218.5321 H   0  0  0  0  0  0  0  0  0  0  0  0
  142.2719   68.3780  220.2736 H   0  0  0  0  0  0  0  0  0  0  0  0
  141.7347   70.4324  218.0596 H   0  0  0  0  0  0  0  0  0  0  0  0
  140.6164   69.9654  219.3668 H   0  0  0  0  0  0  0  0  0  0  0  0
  138.4214   74.8844  220.3024 H   0  0  0  0  0  0  0  0  0  0  0  0
  138.0254   75.5233  221.8940 H   0  0  0  0  0  0  0  0  0  0  0  0
  139.9281   76.9017  219.8674 H   0  0  0  0  0  0  0  0  0  0  0  0
  138.1858   77.3381  220.1000 H   0  0  0  0  0  0  0  0  0  0  0  0
  141.0624   78.5836  220.6751 H   0  0  0  0  0  0  0  0  0  0  0  0
  139.4607   79.5541  220.6540 H   0  0  0  0  0  0  0  0  0  0  0  0
  140.0615   79.6970  223.1271 H   0  0  0  0  0  0  0  0  0  0  0  0
  142.4028   78.5782  222.4539 H   0  0  0  0  0  0  0  0  0  0  0  0
  142.7608   80.1204  221.6105 H   0  0  0  0  0  0  0  0  0  0  0  0
  142.1985   79.7162  224.5842 H   0  0  0  0  0  0  0  0  0  0  0  0
  143.7365   80.2251  223.8435 H   0  0  0  0  0  0  0  0  0  0  0  0
  142.8370   82.2830  224.2220 H   0  0  0  0  0  0  0  0  0  0  0  0
  141.5656   83.1764  222.5025 H   0  0  0  0  0  0  0  0  0  0  0  0
  142.6113   81.9039  221.7535 H   0  0  0  0  0  0  0  0  0  0  0  0
  139.6631   81.7511  222.4824 H   0  0  0  0  0  0  0  0  0  0  0  0
  140.4438   81.5113  220.8807 H   0  0  0  0  0  0  0  0  0  0  0  0
  140.8784   77.8595  223.1822 H   0  0  0  0  0  0  0  0  0  0  0  0
  139.5511   76.6963  223.4199 H   0  0  0  0  0  0  0  0  0  0  0  0
  141.5475   76.4885  221.0922 H   0  0  0  0  0  0  0  0  0  0  0  0
  141.8374   75.6802  222.6316 H   0  0  0  0  0  0  0  0  0  0  0  0
  138.0549   70.0219  223.1695 H   0  0  0  0  0  0  0  0  0  0  0  0
  139.5912   69.0723  223.3832 H   0  0  0  0  0  0  0  0  0  0  0  0
  137.5089   69.8006  225.4459 H   0  0  0  0  0  0  0  0  0  0  0  0
  138.1040   68.1674  224.9184 H   0  0  0  0  0  0  0  0  0  0  0  0
  139.0410   67.2014  226.8830 H   0  0  0  0  0  0  0  0  0  0  0  0
  140.7729   67.3798  228.6292 H   0  0  0  0  0  0  0  0  0  0  0  0
  142.0884   69.4610  228.9237 H   0  0  0  0  0  0  0  0  0  0  0  0
  141.6568   71.4014  227.4418 H   0  0  0  0  0  0  0  0  0  0  0  0
  138.8518   71.9840  225.7264 H   0  0  0  0  0  0  0  0  0  0  0  0
  140.6153   72.2455  225.4286 H   0  0  0  0  0  0  0  0  0  0  0  0
  143.8533   72.3030  219.3187 H   0  0  0  0  0  0  0  0  0  0  0  0
  144.0776   71.6047  220.9499 H   0  0  0  0  0  0  0  0  0  0  0  0
  1  2  2  0
  2  3  1  0
  3  4  2  0
  4  5  1  0
  5  6  2  0
  5  7  1  0
  7  8  1  0
  8  9  1  0
  9 10  1  0
 10 11  2  0
 11 12  1  0
 12 13  1  0
 13 14  1  0
 14 15  1  0
 15 16  1  0
 16 17  1  0
 17 18  1  0
 18 19  1  0
 19 20  1  0
 20 21  1  0
 21 22  1  0
 22 23  1  0
 16 24  1  0
 24 25  1  0
 12 26  2  0
 26 27  1  0
 27 28  1  0
 28 29  1  0
 29 30  1  0
 30 31  1  0
 31 32  2  0
 32 33  1  0
 33 34  2  0
 34 35  1  0
 35 36  2  0
 36 37  1  0
 27 38  2  0
  9 39  1  0
  6  1  1  0
 38 10  1  0
 39  4  1  0
 25 13  1  0
 37 28  1  0
 23 18  1  0
 36 31  1  0
  1 40  1  0
  2 41  1  0
  3 42  1  0
  6 43  1  0
  7 44  1  0
  7 45  1  0
  8 46  1  0
  8 47  1  0
 14 48  1  0
 14 49  1  0
 15 50  1  0
 15 51  1  0
 17 52  1  0
 17 53  1  0
 18 54  1  0
 19 55  1  0
 19 56  1  0
 20 57  1  0
 20 58  1  0
 21 59  1  0
 22 60  1  0
 22 61  1  0
 23 62  1  0
 23 63  1  0
 24 64  1  0
 24 65  1  0
 25 66  1  0
 25 67  1  0
 29 68  1  0
 29 69  1  0
 30 70  1  0
 30 71  1  0
 32 72  1  0
 33 73  1  0
 34 74  1  0
 35 75  1  0
 37 76  1  0
 37 77  1  0
 39 78  1  0
 39 79  1  0
M  END
>  <smiles>  (29) 
c1ccc2c(c1)CCN(c1nc(N3CCN(CC4CCNCC4)CC3)nc(N3CCc4ccccc4C3)n1)C2

>  <score_type>  (29) 
oracle

>  <origin>  (29) 
autodockgpu

>  <m_score__min__energy>  (29) 
-10.470000000000001

>  <m_primary>  (29) 
energy

>  <rmsd>  (29) 
3.727267178893608

>  <m_score__min__rmsd>  (29) 
3.727267178893608

>  <meeko>  (29) 
{"free_energy": -9.69, "intermolecular_energy": -11.18, "internal_energy": -1.17, "cluster_size": 32, "cluster_id": 3, "rank_in_cluster": 13}

>  <energy>  (29) 
-9.69

>  <cluster_rmsd>  (29) 
0.98

>  <cluster>  (29) 
3

$$$$

     RDKit          3D

 79 85  0  0  0  0  0  0  0  0999 V2000
  145.5020   67.8940  217.8640 C   0  0  0  0  0  0  0  0  0  0  0  0
  146.3140   68.8310  218.4740 C   0  0  0  0  0  0  0  0  0  0  0  0
  145.7060   69.8780  219.1650 C   0  0  0  0  0  0  0  0  0  0  0  0
  144.3350   70.0040  219.2570 C   0  0  0  0  0  0  0  0  0  0  0  0
  143.5720   69.0450  218.6310 C   0  0  0  0  0  0  0  0  0  0  0  0
  144.1180   67.9840  217.9310 C   0  0  0  0  0  0  0  0  0  0  0  0
  142.0740   69.0960  218.6720 C   0  0  0  0  0  0  0  0  0  0  0  0
  141.6580   70.5500  218.7330 C   0  0  0  0  0  0  0  0  0  0  0  0
  142.3510   71.1580  219.8500 N   0  0  0  0  0  0  0  0  0  0  0  0
  141.5640   71.8080  220.8510 C   0  0  0  0  0  0  0  0  0  0  0  0
  141.3370   73.1530  220.8170 N   0  0  0  0  0  0  0  0  0  0  0  0
  140.6070   73.7630  221.7430 C   0  0  0  0  0  0  0  0  0  0  0  0
  140.3610   75.1530  221.7260 N   0  0  0  0  0  0  0  0  0  0  0  0
  141.1320   76.0940  220.9350 C   0  0  0  0  0  0  0  0  0  0  0  0
  140.9620   77.4450  221.6690 C   0  0  0  0  0  0  0  0  0  0  0  0
  139.6260   77.9080  221.5960 N   0  0  0  0  0  0  0  0  0  0  0  0
  139.2760   78.8250  222.6090 C   0  0  0  0  0  0  0  0  0  0  0  0
  139.8460   80.1940  222.5750 C   0  0  0  0  0  0  0  0  0  0  0  0
  141.3070   80.1270  223.0670 C   0  0  0  0  0  0  0  0  0  0  0  0
  141.7580   81.5070  223.4590 C   0  0  0  0  0  0  0  0  0  0  0  0
  141.4690   82.3920  222.3450 N   0  0  0  0  0  0  0  0  0  0  0  0
  141.1900   81.6720  221.1370 C   0  0  0  0  0  0  0  0  0  0  0  0
  139.8980   80.8810  221.2530 C   0  0  0  0  0  0  0  0  0  0  0  0
  138.6740   76.8030  221.6500 C   0  0  0  0  0  0  0  0  0  0  0  0
  139.2810   75.7270  222.5290 C   0  0  0  0  0  0  0  0  0  0  0  0
  140.0860   73.0230  222.7300 N   0  0  0  0  0  0  0  0  0  0  0  0
  140.2660   71.7130  222.8240 C   0  0  0  0  0  0  0  0  0  0  0  0
  139.6730   71.0100  223.9090 N   0  0  0  0  0  0  0  0  0  0  0  0
  139.0140   69.7570  223.6300 C   0  0  0  0  0  0  0  0  0  0  0  0
  138.4290   69.1260  224.8680 C   0  0  0  0  0  0  0  0  0  0  0  0
  139.3650   69.1750  226.0170 C   0  0  0  0  0  0  0  0  0  0  0  0
  139.5840   68.0870  226.8370 C   0  0  0  0  0  0  0  0  0  0  0  0
  140.4660   68.2350  227.8660 C   0  0  0  0  0  0  0  0  0  0  0  0
  141.1300   69.4310  228.0980 C   0  0  0  0  0  0  0  0  0  0  0  0
  140.8920   70.5030  227.2640 C   0  0  0  0  0  0  0  0  0  0  0  0
  140.0160   70.3950  226.2220 C   0  0  0  0  0  0  0  0  0  0  0  0
  139.6980   71.4930  225.2770 C   0  0  0  0  0  0  0  0  0  0  0  0
  141.0090   71.1100  221.8760 N   0  0  0  0  0  0  0  0  0  0  0  0
  143.7850   71.1510  220.0130 C   0  0  0  0  0  0  0  0  0  0  0  0
  145.9615   67.0595  217.3140 H   0  0  0  0  0  0  0  0  0  0  0  0
  147.4097   68.7529  218.4160 H   0  0  0  0  0  0  0  0  0  0  0  0
  146.3418   70.6305  219.6543 H   0  0  0  0  0  0  0  0  0  0  0  0
  143.4763   67.2356  217.4431 H   0  0  0  0  0  0  0  0  0  0  0  0
  141.6594   68.6266  217.7677 H   0  0  0  0  0  0  0  0  0  0  0  0
  141.6967   68.5529  219.5510 H   0  0  0  0  0  0  0  0  0  0  0  0
  141.9351   71.0588  217.7980 H   0  0  0  0  0  0  0  0  0  0  0  0
  140.5689   70.6348  218.8620 H   0  0  0  0  0  0  0  0  0  0  0  0
  142.1913   75.7992  220.9030 H   0  0  0  0  0  0  0  0  0  0  0  0
  140.7925   76.1395  219.8897 H   0  0  0  0  0  0  0  0  0  0  0  0
  141.2387   77.3155  222.7257 H   0  0  0  0  0  0  0  0  0  0  0  0
  141.6126   78.1872  221.1833 H   0  0  0  0  0  0  0  0  0  0  0  0
  138.1816   78.9319  222.5814 H   0  0  0  0  0  0  0  0  0  0  0  0
  139.7072   78.3849  223.5203 H   0  0  0  0  0  0  0  0  0  0  0  0
  139.1569   80.7771  223.2036 H   0  0  0  0  0  0  0  0  0  0  0  0
  141.3723   79.4571  223.9371 H   0  0  0  0  0  0  0  0  0  0  0  0
  141.9513   79.7409  222.2634 H   0  0  0  0  0  0  0  0  0  0  0  0
  141.2133   81.8401  224.3547 H   0  0  0  0  0  0  0  0  0  0  0  0
  142.8334   81.5127  223.6902 H   0  0  0  0  0  0  0  0  0  0  0  0
  142.1760   83.1250  222.2220 H   0  0  0  0  0  0  0  0  0  0  0  0
  141.0992   82.3872  220.3062 H   0  0  0  0  0  0  0  0  0  0  0  0
  142.0142   80.9668  220.9543 H   0  0  0  0  0  0  0  0  0  0  0  0
  139.0412   81.5649  221.1625 H   0  0  0  0  0  0  0  0  0  0  0  0
  139.8576   80.1298  220.4505 H   0  0  0  0  0  0  0  0  0  0  0  0
  137.7218   77.1473  222.0798 H   0  0  0  0  0  0  0  0  0  0  0  0
  138.4720   76.4136  220.6413 H   0  0  0  0  0  0  0  0  0  0  0  0
  139.6783   76.1635  223.4572 H   0  0  0  0  0  0  0  0  0  0  0  0
  138.5410   74.9710  222.8304 H   0  0  0  0  0  0  0  0  0  0  0  0
  138.2032   69.9374  222.9089 H   0  0  0  0  0  0  0  0  0  0  0  0
  139.7674   69.0651  223.2255 H   0  0  0  0  0  0  0  0  0  0  0  0
  137.5080   69.6633  225.1381 H   0  0  0  0  0  0  0  0  0  0  0  0
  138.2243   68.0687  224.6438 H   0  0  0  0  0  0  0  0  0  0  0  0
  139.0645   67.1326  226.6662 H   0  0  0  0  0  0  0  0  0  0  0  0
  140.6569   67.3807  228.5322 H   0  0  0  0  0  0  0  0  0  0  0  0
  141.8367   69.5228  228.9359 H   0  0  0  0  0  0  0  0  0  0  0  0
  141.4134   71.4555  227.4400 H   0  0  0  0  0  0  0  0  0  0  0  0
  138.7121   71.9106  225.5292 H   0  0  0  0  0  0  0  0  0  0  0  0
  140.4766   72.2654  225.3620 H   0  0  0  0  0  0  0  0  0  0  0  0
  144.2077   72.0892  219.6244 H   0  0  0  0  0  0  0  0  0  0  0  0
  144.0440   71.0609  221.0783 H   0  0  0  0  0  0  0  0  0  0  0  0
  1  2  2  0
  2  3  1  0
  3  4  2  0
  4  5  1  0
  5  6  2  0
  5  7  1  0
  7  8  1  0
  8  9  1  0
  9 10  1  0
 10 11  2  0
 11 12  1  0
 12 13  1  0
 13 14  1  0
 14 15  1  0
 15 16  1  0
 16 17  1  0
 17 18  1  0
 18 19  1  0
 19 20  1  0
 20 21  1  0
 21 22  1  0
 22 23  1  0
 16 24  1  0
 24 25  1  0
 12 26  2  0
 26 27  1  0
 27 28  1  0
 28 29  1  0
 29 30  1  0
 30 31  1  0
 31 32  2  0
 32 33  1  0
 33 34  2  0
 34 35  1  0
 35 36  2  0
 36 37  1  0
 27 38  2  0
  9 39  1  0
  6  1  1  0
 38 10  1  0
 39  4  1  0
 25 13  1  0
 37 28  1  0
 23 18  1  0
 36 31  1  0
  1 40  1  0
  2 41  1  0
  3 42  1  0
  6 43  1  0
  7 44  1  0
  7 45  1  0
  8 46  1  0
  8 47  1  0
 14 48  1  0
 14 49  1  0
 15 50  1  0
 15 51  1  0
 17 52  1  0
 17 53  1  0
 18 54  1  0
 19 55  1  0
 19 56  1  0
 20 57  1  0
 20 58  1  0
 21 59  1  0
 22 60  1  0
 22 61  1  0
 23 62  1  0
 23 63  1  0
 24 64  1  0
 24 65  1  0
 25 66  1  0
 25 67  1  0
 29 68  1  0
 29 69  1  0
 30 70  1  0
 30 71  1  0
 32 72  1  0
 33 73  1  0
 34 74  1  0
 35 75  1  0
 37 76  1  0
 37 77  1  0
 39 78  1  0
 39 79  1  0
M  END
>  <smiles>  (30) 
c1ccc2c(c1)CCN(c1nc(N3CCN(CC4CCNCC4)CC3)nc(N3CCc4ccccc4C3)n1)C2

>  <score_type>  (30) 
oracle

>  <origin>  (30) 
autodockgpu

>  <m_score__min__energy>  (30) 
-10.470000000000001

>  <m_primary>  (30) 
energy

>  <rmsd>  (30) 
3.357166841747254

>  <m_score__min__rmsd>  (30) 
3.357166841747254

>  <meeko>  (30) 
{"free_energy": -9.55, "intermolecular_energy": -11.04, "internal_energy": -1.15, "cluster_size": 32, "cluster_id": 3, "rank_in_cluster": 26}

>  <energy>  (30) 
-9.67

>  <cluster_rmsd>  (30) 
0.93

>  <cluster>  (30) 
3

$$$$

     RDKit          3D

 79 85  0  0  0  0  0  0  0  0999 V2000
  146.3230   70.3950  216.8100 C   0  0  0  0  0  0  0  0  0  0  0  0
  146.2080   69.5420  217.8910 C   0  0  0  0  0  0  0  0  0  0  0  0
  145.4420   69.9590  218.9780 C   0  0  0  0  0  0  0  0  0  0  0  0
  144.8040   71.1810  219.0070 C   0  0  0  0  0  0  0  0  0  0  0  0
  144.9510   71.9930  217.9070 C   0  0  0  0  0  0  0  0  0  0  0  0
  145.6980   71.6350  216.7980 C   0  0  0  0  0  0  0  0  0  0  0  0
  144.2990   73.3410  217.8430 C   0  0  0  0  0  0  0  0  0  0  0  0
  144.2240   73.8920  219.2510 C   0  0  0  0  0  0  0  0  0  0  0  0
  143.5670   72.8980  220.0760 N   0  0  0  0  0  0  0  0  0  0  0  0
  142.4040   73.2990  220.8050 C   0  0  0  0  0  0  0  0  0  0  0  0
  141.6080   72.3860  221.4330 N   0  0  0  0  0  0  0  0  0  0  0  0
  140.5270   72.7500  222.1130 C   0  0  0  0  0  0  0  0  0  0  0  0
  139.6900   71.8210  222.7690 N   0  0  0  0  0  0  0  0  0  0  0  0
  138.2410   71.8920  222.7460 C   0  0  0  0  0  0  0  0  0  0  0  0
  137.7980   71.1400  224.0230 C   0  0  0  0  0  0  0  0  0  0  0  0
  138.1030   69.7590  223.9420 N   0  0  0  0  0  0  0  0  0  0  0  0
  138.1950   69.1130  225.1920 C   0  0  0  0  0  0  0  0  0  0  0  0
  139.4770   69.1600  225.9370 C   0  0  0  0  0  0  0  0  0  0  0  0
  139.1860   69.6200  227.3810 C   0  0  0  0  0  0  0  0  0  0  0  0
  140.4640   70.0950  228.0140 C   0  0  0  0  0  0  0  0  0  0  0  0
  141.4540   69.0480  227.8330 N   0  0  0  0  0  0  0  0  0  0  0  0
  140.8620   67.8000  227.4510 C   0  0  0  0  0  0  0  0  0  0  0  0
  140.2410   67.8860  226.0670 C   0  0  0  0  0  0  0  0  0  0  0  0
  139.3570   69.5310  223.2310 C   0  0  0  0  0  0  0  0  0  0  0  0
  140.2650   70.7080  223.5250 C   0  0  0  0  0  0  0  0  0  0  0  0
  140.2250   74.0530  222.1730 N   0  0  0  0  0  0  0  0  0  0  0  0
  140.9540   74.9930  221.5870 C   0  0  0  0  0  0  0  0  0  0  0  0
  140.5540   76.3530  221.7060 N   0  0  0  0  0  0  0  0  0  0  0  0
  139.3430   76.6440  222.4340 C   0  0  0  0  0  0  0  0  0  0  0  0
  139.0380   78.1200  222.4770 C   0  0  0  0  0  0  0  0  0  0  0  0
  140.2400   78.9310  222.7820 C   0  0  0  0  0  0  0  0  0  0  0  0
  140.2210   79.9660  223.6940 C   0  0  0  0  0  0  0  0  0  0  0  0
  141.3810   80.6500  223.9050 C   0  0  0  0  0  0  0  0  0  0  0  0
  142.5540   80.3310  223.2340 C   0  0  0  0  0  0  0  0  0  0  0  0
  142.5460   79.2930  222.3280 C   0  0  0  0  0  0  0  0  0  0  0  0
  141.4040   78.5830  222.0890 C   0  0  0  0  0  0  0  0  0  0  0  0
  141.3020   77.4540  221.1320 C   0  0  0  0  0  0  0  0  0  0  0  0
  142.0470   74.6060  220.9030 N   0  0  0  0  0  0  0  0  0  0  0  0
  144.0140   71.5330  220.2080 C   0  0  0  0  0  0  0  0  0  0  0  0
  146.9220   70.0854  215.9409 H   0  0  0  0  0  0  0  0  0  0  0  0
  146.7069   68.5616  217.8935 H   0  0  0  0  0  0  0  0  0  0  0  0
  145.3427   69.2887  219.8445 H   0  0  0  0  0  0  0  0  0  0  0  0
  145.7934   72.3108  215.9353 H   0  0  0  0  0  0  0  0  0  0  0  0
  144.8954   74.0144  217.2099 H   0  0  0  0  0  0  0  0  0  0  0  0
  143.2907   73.2576  217.4112 H   0  0  0  0  0  0  0  0  0  0  0  0
  145.2374   74.0857  219.6325 H   0  0  0  0  0  0  0  0  0  0  0  0
  143.6635   74.8384  219.2662 H   0  0  0  0  0  0  0  0  0  0  0  0
  137.9022   72.9382  222.7732 H   0  0  0  0  0  0  0  0  0  0  0  0
  137.8144   71.4531  221.8320 H   0  0  0  0  0  0  0  0  0  0  0  0
  138.3185   71.5711  224.8909 H   0  0  0  0  0  0  0  0  0  0  0  0
  136.7084   71.2482  224.1278 H   0  0  0  0  0  0  0  0  0  0  0  0
  137.4286   69.5600  225.8422 H   0  0  0  0  0  0  0  0  0  0  0  0
  138.0736   68.0477  224.9461 H   0  0  0  0  0  0  0  0  0  0  0  0
  140.1005   69.8384  225.3362 H   0  0  0  0  0  0  0  0  0  0  0  0
  138.4552   70.4420  227.3653 H   0  0  0  0  0  0  0  0  0  0  0  0
  138.7753   68.7806  227.9612 H   0  0  0  0  0  0  0  0  0  0  0  0
  140.8031   71.0212  227.5271 H   0  0  0  0  0  0  0  0  0  0  0  0
  140.3128   70.3058  229.0830 H   0  0  0  0  0  0  0  0  0  0  0  0
  142.0950   68.9620  228.6300 H   0  0  0  0  0  0  0  0  0  0  0  0
  141.6385   67.0208  227.4479 H   0  0  0  0  0  0  0  0  0  0  0  0
  140.0693   67.5555  228.1734 H   0  0  0  0  0  0  0  0  0  0  0  0
  141.0359   67.8572  225.3072 H   0  0  0  0  0  0  0  0  0  0  0  0
  139.5588   67.0356  225.9205 H   0  0  0  0  0  0  0  0  0  0  0  0
  139.8241   68.5990  223.5819 H   0  0  0  0  0  0  0  0  0  0  0  0
  139.1790   69.4384  222.1495 H   0  0  0  0  0  0  0  0  0  0  0  0
  140.2714   70.9331  224.6017 H   0  0  0  0  0  0  0  0  0  0  0  0
  141.3089   70.5084  223.2412 H   0  0  0  0  0  0  0  0  0  0  0  0
  138.5047   76.1242  221.9471 H   0  0  0  0  0  0  0  0  0  0  0  0
  139.4838   76.3006  223.4695 H   0  0  0  0  0  0  0  0  0  0  0  0
  138.6414   78.4285  221.4985 H   0  0  0  0  0  0  0  0  0  0  0  0
  138.3036   78.2900  223.2781 H   0  0  0  0  0  0  0  0  0  0  0  0
  139.2996   80.2307  224.2334 H   0  0  0  0  0  0  0  0  0  0  0  0
  141.3880   81.4790  224.6280 H   0  0  0  0  0  0  0  0  0  0  0  0
  143.4768   80.8991  223.4231 H   0  0  0  0  0  0  0  0  0  0  0  0
  143.4701   79.0331  221.7909 H   0  0  0  0  0  0  0  0  0  0  0  0
  140.7915   77.7996  220.2210 H   0  0  0  0  0  0  0  0  0  0  0  0
  142.3170   77.1025  220.8949 H   0  0  0  0  0  0  0  0  0  0  0  0
  144.6401   71.4325  221.1069 H   0  0  0  0  0  0  0  0  0  0  0  0
  143.1491   70.8598  220.3016 H   0  0  0  0  0  0  0  0  0  0  0  0
  1  2  2  0
  2  3  1  0
  3  4  2  0
  4  5  1  0
  5  6  2  0
  5  7  1  0
  7  8  1  0
  8  9  1  0
  9 10  1  0
 10 11  2  0
 11 12  1  0
 12 13  1  0
 13 14  1  0
 14 15  1  0
 15 16  1  0
 16 17  1  0
 17 18  1  0
 18 19  1  0
 19 20  1  0
 20 21  1  0
 21 22  1  0
 22 23  1  0
 16 24  1  0
 24 25  1  0
 12 26  2  0
 26 27  1  0
 27 28  1  0
 28 29  1  0
 29 30  1  0
 30 31  1  0
 31 32  2  0
 32 33  1  0
 33 34  2  0
 34 35  1  0
 35 36  2  0
 36 37  1  0
 27 38  2  0
  9 39  1  0
  6  1  1  0
 38 10  1  0
 39  4  1  0
 25 13  1  0
 37 28  1  0
 23 18  1  0
 36 31  1  0
  1 40  1  0
  2 41  1  0
  3 42  1  0
  6 43  1  0
  7 44  1  0
  7 45  1  0
  8 46  1  0
  8 47  1  0
 14 48  1  0
 14 49  1  0
 15 50  1  0
 15 51  1  0
 17 52  1  0
 17 53  1  0
 18 54  1  0
 19 55  1  0
 19 56  1  0
 20 57  1  0
 20 58  1  0
 21 59  1  0
 22 60  1  0
 22 61  1  0
 23 62  1  0
 23 63  1  0
 24 64  1  0
 24 65  1  0
 25 66  1  0
 25 67  1  0
 29 68  1  0
 29 69  1  0
 30 70  1  0
 30 71  1  0
 32 72  1  0
 33 73  1  0
 34 74  1  0
 35 75  1  0
 37 76  1  0
 37 77  1  0
 39 78  1  0
 39 79  1  0
M  END
>  <smiles>  (31) 
c1ccc2c(c1)CCN(c1nc(N3CCN(CC4CCNCC4)CC3)nc(N3CCc4ccccc4C3)n1)C2

>  <score_type>  (31) 
oracle

>  <origin>  (31) 
autodockgpu

>  <m_score__min__energy>  (31) 
-10.470000000000001

>  <m_primary>  (31) 
energy

>  <rmsd>  (31) 
10.805247775278055

>  <m_score__min__rmsd>  (31) 
10.805247775278055

>  <meeko>  (31) 
{"free_energy": -10.1, "intermolecular_energy": -11.59, "internal_energy": -1.19, "cluster_size": 9, "cluster_id": 1, "rank_in_cluster": 6}

>  <energy>  (31) 
-9.66

>  <cluster_rmsd>  (31) 
0.91

>  <cluster>  (31) 
3

$$$$

     RDKit          3D

 79 85  0  0  0  0  0  0  0  0999 V2000
  140.0280   67.8290  227.4920 C   0  0  0  0  0  0  0  0  0  0  0  0
  139.2000   67.4080  226.4700 C   0  0  0  0  0  0  0  0  0  0  0  0
  139.1080   68.2030  225.3280 C   0  0  0  0  0  0  0  0  0  0  0  0
  139.8100   69.3820  225.1920 C   0  0  0  0  0  0  0  0  0  0  0  0
  140.6190   69.7570  226.2390 C   0  0  0  0  0  0  0  0  0  0  0  0
  140.7520   69.0100  227.3960 C   0  0  0  0  0  0  0  0  0  0  0  0
  141.4210   71.0230  226.1870 C   0  0  0  0  0  0  0  0  0  0  0  0
  140.6520   72.0290  225.3570 C   0  0  0  0  0  0  0  0  0  0  0  0
  140.3510   71.4070  224.0840 N   0  0  0  0  0  0  0  0  0  0  0  0
  140.7770   72.0780  222.8950 C   0  0  0  0  0  0  0  0  0  0  0  0
  140.4170   73.3690  222.6380 N   0  0  0  0  0  0  0  0  0  0  0  0
  140.8090   73.9980  221.5370 C   0  0  0  0  0  0  0  0  0  0  0  0
  140.4470   75.3340  221.2520 N   0  0  0  0  0  0  0  0  0  0  0  0
  140.7920   76.0110  220.0160 C   0  0  0  0  0  0  0  0  0  0  0  0
  140.7750   77.5140  220.3820 C   0  0  0  0  0  0  0  0  0  0  0  0
  139.4660   77.9550  220.6940 N   0  0  0  0  0  0  0  0  0  0  0  0
  139.4220   79.1190  221.4880 C   0  0  0  0  0  0  0  0  0  0  0  0
  140.5450   79.4060  222.4140 C   0  0  0  0  0  0  0  0  0  0  0  0
  141.6590   80.1240  221.6230 C   0  0  0  0  0  0  0  0  0  0  0  0
  142.9480   80.0300  222.3930 C   0  0  0  0  0  0  0  0  0  0  0  0
  142.6820   80.4940  223.7440 N   0  0  0  0  0  0  0  0  0  0  0  0
  141.4390   81.2010  223.8410 C   0  0  0  0  0  0  0  0  0  0  0  0
  140.2580   80.2780  223.5890 C   0  0  0  0  0  0  0  0  0  0  0  0
  138.7040   76.9190  221.3830 C   0  0  0  0  0  0  0  0  0  0  0  0
  139.6820   76.1180  222.2200 C   0  0  0  0  0  0  0  0  0  0  0  0
  141.5800   73.3340  220.6660 N   0  0  0  0  0  0  0  0  0  0  0  0
  141.9660   72.0800  220.8530 C   0  0  0  0  0  0  0  0  0  0  0  0
  142.7840   71.4550  219.8710 N   0  0  0  0  0  0  0  0  0  0  0  0
  143.9030   72.1980  219.3450 C   0  0  0  0  0  0  0  0  0  0  0  0
  144.6780   71.4190  218.3120 C   0  0  0  0  0  0  0  0  0  0  0  0
  144.9140   70.0160  218.7310 C   0  0  0  0  0  0  0  0  0  0  0  0
  146.1410   69.4010  218.5920 C   0  0  0  0  0  0  0  0  0  0  0  0
  146.2540   68.1080  219.0100 C   0  0  0  0  0  0  0  0  0  0  0  0
  145.1830   67.4170  219.5580 C   0  0  0  0  0  0  0  0  0  0  0  0
  143.9680   68.0550  219.6840 C   0  0  0  0  0  0  0  0  0  0  0  0
  143.8140   69.3490  219.2780 C   0  0  0  0  0  0  0  0  0  0  0  0
  142.5460   70.1130  219.3740 C   0  0  0  0  0  0  0  0  0  0  0  0
  141.5600   71.4570  221.9750 N   0  0  0  0  0  0  0  0  0  0  0  0
  139.6460   70.1570  223.9410 C   0  0  0  0  0  0  0  0  0  0  0  0
  140.1158   67.2159  228.4011 H   0  0  0  0  0  0  0  0  0  0  0  0
  138.6290   66.4716  226.5545 H   0  0  0  0  0  0  0  0  0  0  0  0
  138.4523   67.8781  224.5067 H   0  0  0  0  0  0  0  0  0  0  0  0
  141.4098   69.3409  228.2132 H   0  0  0  0  0  0  0  0  0  0  0  0
  141.5688   71.4135  227.2047 H   0  0  0  0  0  0  0  0  0  0  0  0
  142.4078   70.8326  225.7398 H   0  0  0  0  0  0  0  0  0  0  0  0
  139.7187   72.3037  225.8703 H   0  0  0  0  0  0  0  0  0  0  0  0
  141.2458   72.9432  225.2097 H   0  0  0  0  0  0  0  0  0  0  0  0
  141.7909   75.7058  219.6709 H   0  0  0  0  0  0  0  0  0  0  0  0
  140.0963   75.7709  219.1985 H   0  0  0  0  0  0  0  0  0  0  0  0
  141.4251   77.6773  221.2542 H   0  0  0  0  0  0  0  0  0  0  0  0
  141.1353   78.0858  219.5141 H   0  0  0  0  0  0  0  0  0  0  0  0
  139.3456   79.9743  220.8006 H   0  0  0  0  0  0  0  0  0  0  0  0
  138.5674   78.9462  222.1587 H   0  0  0  0  0  0  0  0  0  0  0  0
  140.8080   78.4167  222.8167 H   0  0  0  0  0  0  0  0  0  0  0  0
  141.7809   79.6444  220.6406 H   0  0  0  0  0  0  0  0  0  0  0  0
  141.3894   81.1807  221.4791 H   0  0  0  0  0  0  0  0  0  0  0  0
  143.2973   78.9872  222.4156 H   0  0  0  0  0  0  0  0  0  0  0  0
  143.7292   80.6423  221.9188 H   0  0  0  0  0  0  0  0  0  0  0  0
  143.4700   81.0080  224.1520 H   0  0  0  0  0  0  0  0  0  0  0  0
  141.3490   81.6310  224.8495 H   0  0  0  0  0  0  0  0  0  0  0  0
  141.4296   81.9933  223.0780 H   0  0  0  0  0  0  0  0  0  0  0  0
  140.0875   79.6513  224.4768 H   0  0  0  0  0  0  0  0  0  0  0  0
  139.3608   80.8809  223.3854 H   0  0  0  0  0  0  0  0  0  0  0  0
  137.9438   77.3796  222.0310 H   0  0  0  0  0  0  0  0  0  0  0  0
  138.1890   76.2697  220.6597 H   0  0  0  0  0  0  0  0  0  0  0  0
  140.3454   76.7873  222.7874 H   0  0  0  0  0  0  0  0  0  0  0  0
  139.1726   75.4824  222.9593 H   0  0  0  0  0  0  0  0  0  0  0  0
  143.5266   73.1218  218.8813 H   0  0  0  0  0  0  0  0  0  0  0  0
  144.5840   72.4142  220.1814 H   0  0  0  0  0  0  0  0  0  0  0  0
  144.1100   71.4169  217.3700 H   0  0  0  0  0  0  0  0  0  0  0  0
  145.6574   71.9040  218.1871 H   0  0  0  0  0  0  0  0  0  0  0  0
  146.9992   69.9356  218.1586 H   0  0  0  0  0  0  0  0  0  0  0  0
  147.2232   67.5976  218.9097 H   0  0  0  0  0  0  0  0  0  0  0  0
  145.3020   66.3742  219.8874 H   0  0  0  0  0  0  0  0  0  0  0  0
  143.1127   67.5153  220.1167 H   0  0  0  0  0  0  0  0  0  0  0  0
  142.0870   70.1750  218.3763 H   0  0  0  0  0  0  0  0  0  0  0  0
  141.8760   69.5934  220.0748 H   0  0  0  0  0  0  0  0  0  0  0  0
  138.5782   70.3511  223.7616 H   0  0  0  0  0  0  0  0  0  0  0  0
  140.0506   69.5902  223.0895 H   0  0  0  0  0  0  0  0  0  0  0  0
  1  2  2  0
  2  3  1  0
  3  4  2  0
  4  5  1  0
  5  6  2  0
  5  7  1  0
  7  8  1  0
  8  9  1  0
  9 10  1  0
 10 11  2  0
 11 12  1  0
 12 13  1  0
 13 14  1  0
 14 15  1  0
 15 16  1  0
 16 17  1  0
 17 18  1  0
 18 19  1  0
 19 20  1  0
 20 21  1  0
 21 22  1  0
 22 23  1  0
 16 24  1  0
 24 25  1  0
 12 26  2  0
 26 27  1  0
 27 28  1  0
 28 29  1  0
 29 30  1  0
 30 31  1  0
 31 32  2  0
 32 33  1  0
 33 34  2  0
 34 35  1  0
 35 36  2  0
 36 37  1  0
 27 38  2  0
  9 39  1  0
  6  1  1  0
 38 10  1  0
 39  4  1  0
 25 13  1  0
 37 28  1  0
 23 18  1  0
 36 31  1  0
  1 40  1  0
  2 41  1  0
  3 42  1  0
  6 43  1  0
  7 44  1  0
  7 45  1  0
  8 46  1  0
  8 47  1  0
 14 48  1  0
 14 49  1  0
 15 50  1  0
 15 51  1  0
 17 52  1  0
 17 53  1  0
 18 54  1  0
 19 55  1  0
 19 56  1  0
 20 57  1  0
 20 58  1  0
 21 59  1  0
 22 60  1  0
 22 61  1  0
 23 62  1  0
 23 63  1  0
 24 64  1  0
 24 65  1  0
 25 66  1  0
 25 67  1  0
 29 68  1  0
 29 69  1  0
 30 70  1  0
 30 71  1  0
 32 72  1  0
 33 73  1  0
 34 74  1  0
 35 75  1  0
 37 76  1  0
 37 77  1  0
 39 78  1  0
 39 79  1  0
M  END
>  <smiles>  (32) 
c1ccc2c(c1)CCN(c1nc(N3CCN(CC4CCNCC4)CC3)nc(N3CCc4ccccc4C3)n1)C2

>  <score_type>  (32) 
oracle

>  <origin>  (32) 
autodockgpu

>  <m_score__min__energy>  (32) 
-10.470000000000001

>  <m_primary>  (32) 
energy

>  <rmsd>  (32) 
3.3297360239407596

>  <m_score__min__rmsd>  (32) 
3.3297360239407596

>  <meeko>  (32) 
{"free_energy": -9.72, "intermolecular_energy": -11.22, "internal_energy": -1.22, "cluster_size": 32, "cluster_id": 3, "rank_in_cluster": 11}

>  <energy>  (32) 
-9.64

>  <cluster_rmsd>  (32) 
1.04

>  <cluster>  (32) 
3

$$$$

     RDKit          3D

 79 85  0  0  0  0  0  0  0  0999 V2000
  146.2890   70.4070  216.6610 C   0  0  0  0  0  0  0  0  0  0  0  0
  146.3160   69.6540  217.8180 C   0  0  0  0  0  0  0  0  0  0  0  0
  145.6090   70.1220  218.9250 C   0  0  0  0  0  0  0  0  0  0  0  0
  144.8920   71.3000  218.8980 C   0  0  0  0  0  0  0  0  0  0  0  0
  144.8990   72.0140  217.7220 C   0  0  0  0  0  0  0  0  0  0  0  0
  145.5810   71.6000  216.5910 C   0  0  0  0  0  0  0  0  0  0  0  0
  144.1530   73.3080  217.5930 C   0  0  0  0  0  0  0  0  0  0  0  0
  144.1490   73.9810  218.9490 C   0  0  0  0  0  0  0  0  0  0  0  0
  143.6260   73.0310  219.9090 N   0  0  0  0  0  0  0  0  0  0  0  0
  142.4980   73.4260  220.6930 C   0  0  0  0  0  0  0  0  0  0  0  0
  141.7570   72.5130  221.3860 N   0  0  0  0  0  0  0  0  0  0  0  0
  140.7090   72.8720  222.1170 C   0  0  0  0  0  0  0  0  0  0  0  0
  139.9300   71.9420  222.8410 N   0  0  0  0  0  0  0  0  0  0  0  0
  138.5630   71.5990  222.4930 C   0  0  0  0  0  0  0  0  0  0  0  0
  137.9430   71.0990  223.8190 C   0  0  0  0  0  0  0  0  0  0  0  0
  138.5340   69.8830  224.2400 N   0  0  0  0  0  0  0  0  0  0  0  0
  138.4010   69.6230  225.6200 C   0  0  0  0  0  0  0  0  0  0  0  0
  139.6160   69.3470  226.4250 C   0  0  0  0  0  0  0  0  0  0  0  0
  139.6920   70.3820  227.5670 C   0  0  0  0  0  0  0  0  0  0  0  0
  141.0930   70.4130  228.1120 C   0  0  0  0  0  0  0  0  0  0  0  0
  141.4680   69.0450  228.4240 N   0  0  0  0  0  0  0  0  0  0  0  0
  140.3370   68.1660  228.4600 C   0  0  0  0  0  0  0  0  0  0  0  0
  139.7130   68.0130  227.0830 C   0  0  0  0  0  0  0  0  0  0  0  0
  139.9560   69.8410  223.9170 C   0  0  0  0  0  0  0  0  0  0  0  0
  140.4840   71.2600  224.0110 C   0  0  0  0  0  0  0  0  0  0  0  0
  140.3830   74.1700  222.1650 N   0  0  0  0  0  0  0  0  0  0  0  0
  141.0580   75.1090  221.5180 C   0  0  0  0  0  0  0  0  0  0  0  0
  140.6370   76.4630  221.6280 N   0  0  0  0  0  0  0  0  0  0  0  0
  139.4200   76.7400  222.3520 C   0  0  0  0  0  0  0  0  0  0  0  0
  139.0920   78.2120  222.3860 C   0  0  0  0  0  0  0  0  0  0  0  0
  140.2820   79.0420  222.6880 C   0  0  0  0  0  0  0  0  0  0  0  0
  140.2440   80.0830  223.5950 C   0  0  0  0  0  0  0  0  0  0  0  0
  141.3940   80.7860  223.8030 C   0  0  0  0  0  0  0  0  0  0  0  0
  142.5720   80.4810  223.1360 C   0  0  0  0  0  0  0  0  0  0  0  0
  142.5820   79.4370  222.2350 C   0  0  0  0  0  0  0  0  0  0  0  0
  141.4510   78.7090  221.9990 C   0  0  0  0  0  0  0  0  0  0  0  0
  141.3690   77.5730  221.0490 C   0  0  0  0  0  0  0  0  0  0  0  0
  142.1190   74.7270  220.7820 N   0  0  0  0  0  0  0  0  0  0  0  0
  144.1740   71.7140  220.1240 C   0  0  0  0  0  0  0  0  0  0  0  0
  146.8396   70.0548  215.7763 H   0  0  0  0  0  0  0  0  0  0  0  0
  146.8798   68.7107  217.8652 H   0  0  0  0  0  0  0  0  0  0  0  0
  145.6236   69.5309  219.8526 H   0  0  0  0  0  0  0  0  0  0  0  0
  145.5629   72.1963  215.6668 H   0  0  0  0  0  0  0  0  0  0  0  0
  144.6518   73.9549  216.8563 H   0  0  0  0  0  0  0  0  0  0  0  0
  143.1229   73.1238  217.2540 H   0  0  0  0  0  0  0  0  0  0  0  0
  145.1733   74.2698  219.2272 H   0  0  0  0  0  0  0  0  0  0  0  0
  143.5284   74.8890  218.9273 H   0  0  0  0  0  0  0  0  0  0  0  0
  138.0232   72.4816  222.1192 H   0  0  0  0  0  0  0  0  0  0  0  0
  138.5101   70.8444  221.6944 H   0  0  0  0  0  0  0  0  0  0  0  0
  138.0993   71.8610  224.5968 H   0  0  0  0  0  0  0  0  0  0  0  0
  136.8696   70.9233  223.6545 H   0  0  0  0  0  0  0  0  0  0  0  0
  137.9122   70.5013  226.0668 H   0  0  0  0  0  0  0  0  0  0  0  0
  137.8433   68.6755  225.6550 H   0  0  0  0  0  0  0  0  0  0  0  0
  140.4304   69.3911  225.6868 H   0  0  0  0  0  0  0  0  0  0  0  0
  139.4252   71.3768  227.1806 H   0  0  0  0  0  0  0  0  0  0  0  0
  138.9899   70.1031  228.3666 H   0  0  0  0  0  0  0  0  0  0  0  0
  141.7798   70.8290  227.3601 H   0  0  0  0  0  0  0  0  0  0  0  0
  141.1462   71.0449  229.0108 H   0  0  0  0  0  0  0  0  0  0  0  0
  142.0600   68.9730  229.2580 H   0  0  0  0  0  0  0  0  0  0  0  0
  140.6622   67.1780  228.8179 H   0  0  0  0  0  0  0  0  0  0  0  0
  139.5841   68.5964  229.1367 H   0  0  0  0  0  0  0  0  0  0  0  0
  140.3384   67.3474  226.4699 H   0  0  0  0  0  0  0  0  0  0  0  0
  138.7058   67.5827  227.1850 H   0  0  0  0  0  0  0  0  0  0  0  0
  140.4853   69.1946  224.6326 H   0  0  0  0  0  0  0  0  0  0  0  0
  140.1133   69.4339  222.9073 H   0  0  0  0  0  0  0  0  0  0  0  0
  140.1405   71.7408  224.9388 H   0  0  0  0  0  0  0  0  0  0  0  0
  141.5833   71.2941  224.0302 H   0  0  0  0  0  0  0  0  0  0  0  0
  138.5907   76.2047  221.8665 H   0  0  0  0  0  0  0  0  0  0  0  0
  139.5641   76.4050  223.3898 H   0  0  0  0  0  0  0  0  0  0  0  0
  138.6922   78.5089  221.4052 H   0  0  0  0  0  0  0  0  0  0  0  0
  138.3535   78.3759  223.1846 H   0  0  0  0  0  0  0  0  0  0  0  0
  139.3177   80.3364  224.1314 H   0  0  0  0  0  0  0  0  0  0  0  0
  141.3875   81.6195  224.5208 H   0  0  0  0  0  0  0  0  0  0  0  0
  143.4857   81.0642  223.3234 H   0  0  0  0  0  0  0  0  0  0  0  0
  143.5108   79.1880  221.7008 H   0  0  0  0  0  0  0  0  0  0  0  0
  140.8551   77.9050  220.1348 H   0  0  0  0  0  0  0  0  0  0  0  0
  142.3900   77.2362  220.8165 H   0  0  0  0  0  0  0  0  0  0  0  0
  144.8723   71.7365  220.9736 H   0  0  0  0  0  0  0  0  0  0  0  0
  143.3667   71.0011  220.3477 H   0  0  0  0  0  0  0  0  0  0  0  0
  1  2  2  0
  2  3  1  0
  3  4  2  0
  4  5  1  0
  5  6  2  0
  5  7  1  0
  7  8  1  0
  8  9  1  0
  9 10  1  0
 10 11  2  0
 11 12  1  0
 12 13  1  0
 13 14  1  0
 14 15  1  0
 15 16  1  0
 16 17  1  0
 17 18  1  0
 18 19  1  0
 19 20  1  0
 20 21  1  0
 21 22  1  0
 22 23  1  0
 16 24  1  0
 24 25  1  0
 12 26  2  0
 26 27  1  0
 27 28  1  0
 28 29  1  0
 29 30  1  0
 30 31  1  0
 31 32  2  0
 32 33  1  0
 33 34  2  0
 34 35  1  0
 35 36  2  0
 36 37  1  0
 27 38  2  0
  9 39  1  0
  6  1  1  0
 38 10  1  0
 39  4  1  0
 25 13  1  0
 37 28  1  0
 23 18  1  0
 36 31  1  0
  1 40  1  0
  2 41  1  0
  3 42  1  0
  6 43  1  0
  7 44  1  0
  7 45  1  0
  8 46  1  0
  8 47  1  0
 14 48  1  0
 14 49  1  0
 15 50  1  0
 15 51  1  0
 17 52  1  0
 17 53  1  0
 18 54  1  0
 19 55  1  0
 19 56  1  0
 20 57  1  0
 20 58  1  0
 21 59  1  0
 22 60  1  0
 22 61  1  0
 23 62  1  0
 23 63  1  0
 24 64  1  0
 24 65  1  0
 25 66  1  0
 25 67  1  0
 29 68  1  0
 29 69  1  0
 30 70  1  0
 30 71  1  0
 32 72  1  0
 33 73  1  0
 34 74  1  0
 35 75  1  0
 37 76  1  0
 37 77  1  0
 39 78  1  0
 39 79  1  0
M  END
>  <smiles>  (33) 
c1ccc2c(c1)CCN(c1nc(N3CCN(CC4CCNCC4)CC3)nc(N3CCc4ccccc4C3)n1)C2

>  <score_type>  (33) 
oracle

>  <origin>  (33) 
autodockgpu

>  <m_score__min__energy>  (33) 
-10.470000000000001

>  <m_primary>  (33) 
energy

>  <rmsd>  (33) 
10.684734851643938

>  <m_score__min__rmsd>  (33) 
10.684734851643938

>  <meeko>  (33) 
{"free_energy": -10.09, "intermolecular_energy": -11.58, "internal_energy": -1.28, "cluster_size": 9, "cluster_id": 1, "rank_in_cluster": 7}

>  <energy>  (33) 
-9.63

>  <cluster_rmsd>  (33) 
1.9

>  <cluster>  (33) 
3

$$$$

     RDKit          3D

 79 85  0  0  0  0  0  0  0  0999 V2000
  146.0340   68.4300  218.1020 C   0  0  0  0  0  0  0  0  0  0  0  0
  146.6850   69.5570  218.5650 C   0  0  0  0  0  0  0  0  0  0  0  0
  145.9240   70.5490  219.1820 C   0  0  0  0  0  0  0  0  0  0  0  0
  144.5590   70.4400  219.3410 C   0  0  0  0  0  0  0  0  0  0  0  0
  143.9590   69.2990  218.8610 C   0  0  0  0  0  0  0  0  0  0  0  0
  144.6600   68.2800  218.2410 C   0  0  0  0  0  0  0  0  0  0  0  0
  142.4790   69.0880  218.9850 C   0  0  0  0  0  0  0  0  0  0  0  0
  141.8080   70.4440  218.9240 C   0  0  0  0  0  0  0  0  0  0  0  0
  142.4230   71.2830  219.9310 N   0  0  0  0  0  0  0  0  0  0  0  0
  141.5710   71.8890  220.9070 C   0  0  0  0  0  0  0  0  0  0  0  0
  141.2750   73.2210  220.8650 N   0  0  0  0  0  0  0  0  0  0  0  0
  140.4850   73.7900  221.7670 C   0  0  0  0  0  0  0  0  0  0  0  0
  140.1670   75.1660  221.7410 N   0  0  0  0  0  0  0  0  0  0  0  0
  138.9770   75.7250  222.3560 C   0  0  0  0  0  0  0  0  0  0  0  0
  138.7240   77.0390  221.5790 C   0  0  0  0  0  0  0  0  0  0  0  0
  139.7460   77.9880  221.8220 N   0  0  0  0  0  0  0  0  0  0  0  0
  139.8680   78.9740  220.8210 C   0  0  0  0  0  0  0  0  0  0  0  0
  141.1060   79.0280  220.0060 C   0  0  0  0  0  0  0  0  0  0  0  0
  140.7820   78.5020  218.5910 C   0  0  0  0  0  0  0  0  0  0  0  0
  142.0650   78.1330  217.8980 C   0  0  0  0  0  0  0  0  0  0  0  0
  142.9580   79.2730  217.9990 N   0  0  0  0  0  0  0  0  0  0  0  0
  142.2710   80.4700  218.3860 C   0  0  0  0  0  0  0  0  0  0  0  0
  141.7360   80.3640  219.8050 C   0  0  0  0  0  0  0  0  0  0  0  0
  141.0470   77.3440  221.9710 C   0  0  0  0  0  0  0  0  0  0  0  0
  141.0520   76.1210  221.0740 C   0  0  0  0  0  0  0  0  0  0  0  0
  139.9720   73.0220  222.7370 N   0  0  0  0  0  0  0  0  0  0  0  0
  140.2180   71.7240  222.8370 C   0  0  0  0  0  0  0  0  0  0  0  0
  139.6290   70.9890  223.9030 N   0  0  0  0  0  0  0  0  0  0  0  0
  138.9950   69.7310  223.5940 C   0  0  0  0  0  0  0  0  0  0  0  0
  138.4100   69.0650  224.8140 C   0  0  0  0  0  0  0  0  0  0  0  0
  139.3350   69.1080  225.9710 C   0  0  0  0  0  0  0  0  0  0  0  0
  139.5670   68.0080  226.7720 C   0  0  0  0  0  0  0  0  0  0  0  0
  140.4380   68.1510  227.8120 C   0  0  0  0  0  0  0  0  0  0  0  0
  141.0790   69.3540  228.0720 C   0  0  0  0  0  0  0  0  0  0  0  0
  140.8290   70.4380  227.2580 C   0  0  0  0  0  0  0  0  0  0  0  0
  139.9640   70.3350  226.2060 C   0  0  0  0  0  0  0  0  0  0  0  0
  139.6340   71.4460  225.2800 C   0  0  0  0  0  0  0  0  0  0  0  0
  141.0210   71.1620  221.9140 N   0  0  0  0  0  0  0  0  0  0  0  0
  143.8390   71.5480  220.0090 C   0  0  0  0  0  0  0  0  0  0  0  0
  146.6158   67.6347  217.6130 H   0  0  0  0  0  0  0  0  0  0  0  0
  147.7733   69.6686  218.4501 H   0  0  0  0  0  0  0  0  0  0  0  0
  146.4310   71.4510  219.5553 H   0  0  0  0  0  0  0  0  0  0  0  0
  144.1463   67.3807  217.8704 H   0  0  0  0  0  0  0  0  0  0  0  0
  142.1211   68.4565  218.1585 H   0  0  0  0  0  0  0  0  0  0  0  0
  142.2421   68.5860  219.9347 H   0  0  0  0  0  0  0  0  0  0  0  0
  141.9502   70.8883  217.9278 H   0  0  0  0  0  0  0  0  0  0  0  0
  140.7277   70.3488  219.1080 H   0  0  0  0  0  0  0  0  0  0  0  0
  138.1241   75.0387  222.2484 H   0  0  0  0  0  0  0  0  0  0  0  0
  139.1025   75.8936  223.4357 H   0  0  0  0  0  0  0  0  0  0  0  0
  138.6904   76.8171  220.5021 H   0  0  0  0  0  0  0  0  0  0  0  0
  137.7686   77.4643  221.9201 H   0  0  0  0  0  0  0  0  0  0  0  0
  139.0299   78.8292  220.1234 H   0  0  0  0  0  0  0  0  0  0  0  0
  139.8842   79.9185  221.3846 H   0  0  0  0  0  0  0  0  0  0  0  0
  141.8239   78.4288  220.5852 H   0  0  0  0  0  0  0  0  0  0  0  0
  140.1358   77.6150  218.6666 H   0  0  0  0  0  0  0  0  0  0  0  0
  140.2608   79.2815  218.0159 H   0  0  0  0  0  0  0  0  0  0  0  0
  142.5172   77.2571  218.3861 H   0  0  0  0  0  0  0  0  0  0  0  0
  141.8775   77.8795  216.8442 H   0  0  0  0  0  0  0  0  0  0  0  0
  143.5430   79.3980  217.1660 H   0  0  0  0  0  0  0  0  0  0  0  0
  142.9687   81.3185  218.3283 H   0  0  0  0  0  0  0  0  0  0  0  0
  141.4209   80.6190  217.7040 H   0  0  0  0  0  0  0  0  0  0  0  0
  142.5641   80.4888  220.5182 H   0  0  0  0  0  0  0  0  0  0  0  0
  140.9843   81.1498  219.9705 H   0  0  0  0  0  0  0  0  0  0  0  0
  141.8463   78.0362  221.6677 H   0  0  0  0  0  0  0  0  0  0  0  0
  141.2217   77.0584  223.0188 H   0  0  0  0  0  0  0  0  0  0  0  0
  140.6684   76.3720  220.0741 H   0  0  0  0  0  0  0  0  0  0  0  0
  142.0646   75.7171  220.9276 H   0  0  0  0  0  0  0  0  0  0  0  0
  138.1876   69.9114  222.8691 H   0  0  0  0  0  0  0  0  0  0  0  0
  139.7643   69.0606  223.1833 H   0  0  0  0  0  0  0  0  0  0  0  0
  137.4773   69.5805  225.0864 H   0  0  0  0  0  0  0  0  0  0  0  0
  138.2255   68.0090  224.5673 H   0  0  0  0  0  0  0  0  0  0  0  0
  139.0661   67.0480  226.5781 H   0  0  0  0  0  0  0  0  0  0  0  0
  140.6381   67.2876  228.4635 H   0  0  0  0  0  0  0  0  0  0  0  0
  141.7778   69.4415  228.9170 H   0  0  0  0  0  0  0  0  0  0  0  0
  141.3314   71.3960  227.4578 H   0  0  0  0  0  0  0  0  0  0  0  0
  138.6387   71.8410  225.5318 H   0  0  0  0  0  0  0  0  0  0  0  0
  140.3975   72.2307  225.3868 H   0  0  0  0  0  0  0  0  0  0  0  0
  144.0677   72.4978  219.5035 H   0  0  0  0  0  0  0  0  0  0  0  0
  144.1523   71.6227  221.0608 H   0  0  0  0  0  0  0  0  0  0  0  0
  1  2  2  0
  2  3  1  0
  3  4  2  0
  4  5  1  0
  5  6  2  0
  5  7  1  0
  7  8  1  0
  8  9  1  0
  9 10  1  0
 10 11  2  0
 11 12  1  0
 12 13  1  0
 13 14  1  0
 14 15  1  0
 15 16  1  0
 16 17  1  0
 17 18  1  0
 18 19  1  0
 19 20  1  0
 20 21  1  0
 21 22  1  0
 22 23  1  0
 16 24  1  0
 24 25  1  0
 12 26  2  0
 26 27  1  0
 27 28  1  0
 28 29  1  0
 29 30  1  0
 30 31  1  0
 31 32  2  0
 32 33  1  0
 33 34  2  0
 34 35  1  0
 35 36  2  0
 36 37  1  0
 27 38  2  0
  9 39  1  0
  6  1  1  0
 38 10  1  0
 39  4  1  0
 25 13  1  0
 37 28  1  0
 23 18  1  0
 36 31  1  0
  1 40  1  0
  2 41  1  0
  3 42  1  0
  6 43  1  0
  7 44  1  0
  7 45  1  0
  8 46  1  0
  8 47  1  0
 14 48  1  0
 14 49  1  0
 15 50  1  0
 15 51  1  0
 17 52  1  0
 17 53  1  0
 18 54  1  0
 19 55  1  0
 19 56  1  0
 20 57  1  0
 20 58  1  0
 21 59  1  0
 22 60  1  0
 22 61  1  0
 23 62  1  0
 23 63  1  0
 24 64  1  0
 24 65  1  0
 25 66  1  0
 25 67  1  0
 29 68  1  0
 29 69  1  0
 30 70  1  0
 30 71  1  0
 32 72  1  0
 33 73  1  0
 34 74  1  0
 35 75  1  0
 37 76  1  0
 37 77  1  0
 39 78  1  0
 39 79  1  0
M  END
>  <smiles>  (34) 
c1ccc2c(c1)CCN(c1nc(N3CCN(CC4CCNCC4)CC3)nc(N3CCc4ccccc4C3)n1)C2

>  <score_type>  (34) 
oracle

>  <origin>  (34) 
autodockgpu

>  <m_score__min__energy>  (34) 
-10.470000000000001

>  <m_primary>  (34) 
energy

>  <rmsd>  (34) 
3.973250099263406

>  <m_score__min__rmsd>  (34) 
3.973250099263406

>  <meeko>  (34) 
{"free_energy": -9.62, "intermolecular_energy": -11.11, "internal_energy": -1.26, "cluster_size": 32, "cluster_id": 3, "rank_in_cluster": 19}

>  <energy>  (34) 
-9.63

>  <cluster_rmsd>  (34) 
1.89

>  <cluster>  (34) 
3

$$$$

     RDKit          3D

 79 85  0  0  0  0  0  0  0  0999 V2000
  146.0290   68.4940  218.1540 C   0  0  0  0  0  0  0  0  0  0  0  0
  146.6920   69.5870  218.6790 C   0  0  0  0  0  0  0  0  0  0  0  0
  145.9370   70.5700  219.3170 C   0  0  0  0  0  0  0  0  0  0  0  0
  144.5660   70.4850  219.4390 C   0  0  0  0  0  0  0  0  0  0  0  0
  143.9540   69.3780  218.8980 C   0  0  0  0  0  0  0  0  0  0  0  0
  144.6500   68.3700  218.2540 C   0  0  0  0  0  0  0  0  0  0  0  0
  142.4680   69.1950  218.9760 C   0  0  0  0  0  0  0  0  0  0  0  0
  141.8270   70.5670  218.9540 C   0  0  0  0  0  0  0  0  0  0  0  0
  142.4340   71.3510  220.0100 N   0  0  0  0  0  0  0  0  0  0  0  0
  141.5710   71.9360  220.9880 C   0  0  0  0  0  0  0  0  0  0  0  0
  141.2500   73.2610  220.9530 N   0  0  0  0  0  0  0  0  0  0  0  0
  140.4480   73.8110  221.8580 C   0  0  0  0  0  0  0  0  0  0  0  0
  140.1040   75.1810  221.8390 N   0  0  0  0  0  0  0  0  0  0  0  0
  138.8150   75.6890  222.2680 C   0  0  0  0  0  0  0  0  0  0  0  0
  138.6620   77.0340  221.5190 C   0  0  0  0  0  0  0  0  0  0  0  0
  139.6050   77.9880  221.9710 N   0  0  0  0  0  0  0  0  0  0  0  0
  139.8680   79.0230  221.0490 C   0  0  0  0  0  0  0  0  0  0  0  0
  141.1010   78.9640  220.2280 C   0  0  0  0  0  0  0  0  0  0  0  0
  140.7400   78.3870  218.8430 C   0  0  0  0  0  0  0  0  0  0  0  0
  141.9950   77.9100  218.1650 C   0  0  0  0  0  0  0  0  0  0  0  0
  142.9530   79.0010  218.2060 N   0  0  0  0  0  0  0  0  0  0  0  0
  142.3370   80.2530  218.5340 C   0  0  0  0  0  0  0  0  0  0  0  0
  141.8070   80.2500  219.9580 C   0  0  0  0  0  0  0  0  0  0  0  0
  140.8790   77.3610  222.3080 C   0  0  0  0  0  0  0  0  0  0  0  0
  141.0640   76.1820  221.3730 C   0  0  0  0  0  0  0  0  0  0  0  0
  139.9500   73.0290  222.8240 N   0  0  0  0  0  0  0  0  0  0  0  0
  140.2210   71.7350  222.9170 C   0  0  0  0  0  0  0  0  0  0  0  0
  139.6450   70.9840  223.9800 N   0  0  0  0  0  0  0  0  0  0  0  0
  139.0350   69.7160  223.6640 C   0  0  0  0  0  0  0  0  0  0  0  0
  138.4630   69.0330  224.8810 C   0  0  0  0  0  0  0  0  0  0  0  0
  139.3870   69.0870  226.0380 C   0  0  0  0  0  0  0  0  0  0  0  0
  139.6400   67.9870  226.8330 C   0  0  0  0  0  0  0  0  0  0  0  0
  140.5070   68.1410  227.8740 C   0  0  0  0  0  0  0  0  0  0  0  0
  141.1250   69.3550  228.1410 C   0  0  0  0  0  0  0  0  0  0  0  0
  140.8550   70.4380  227.3320 C   0  0  0  0  0  0  0  0  0  0  0  0
  139.9920   70.3240  226.2790 C   0  0  0  0  0  0  0  0  0  0  0  0
  139.6410   71.4330  225.3590 C   0  0  0  0  0  0  0  0  0  0  0  0
  141.0340   71.1930  221.9920 N   0  0  0  0  0  0  0  0  0  0  0  0
  143.8530   71.5800  220.1330 C   0  0  0  0  0  0  0  0  0  0  0  0
  146.6056   67.7065  217.6467 H   0  0  0  0  0  0  0  0  0  0  0  0
  147.7850   69.6788  218.5958 H   0  0  0  0  0  0  0  0  0  0  0  0
  146.4535   71.4451  219.7383 H   0  0  0  0  0  0  0  0  0  0  0  0
  144.1269   67.4980  217.8345 H   0  0  0  0  0  0  0  0  0  0  0  0
  142.1186   68.6056  218.1155 H   0  0  0  0  0  0  0  0  0  0  0  0
  142.1962   68.6604  219.8981 H   0  0  0  0  0  0  0  0  0  0  0  0
  142.0038   71.0481  217.9807 H   0  0  0  0  0  0  0  0  0  0  0  0
  140.7405   70.4883  219.1070 H   0  0  0  0  0  0  0  0  0  0  0  0
  138.0099   74.9938  221.9878 H   0  0  0  0  0  0  0  0  0  0  0  0
  138.7539   75.8081  223.3598 H   0  0  0  0  0  0  0  0  0  0  0  0
  138.8134   76.8634  220.4429 H   0  0  0  0  0  0  0  0  0  0  0  0
  137.6529   77.4258  221.7144 H   0  0  0  0  0  0  0  0  0  0  0  0
  139.0184   79.0553  220.3511 H   0  0  0  0  0  0  0  0  0  0  0  0
  140.0191   79.9078  221.6849 H   0  0  0  0  0  0  0  0  0  0  0  0
  141.7859   78.3534  220.8347 H   0  0  0  0  0  0  0  0  0  0  0  0
  140.0444   77.5437  218.9654 H   0  0  0  0  0  0  0  0  0  0  0  0
  140.2617   79.1658  218.2308 H   0  0  0  0  0  0  0  0  0  0  0  0
  142.3991   77.0348  218.6949 H   0  0  0  0  0  0  0  0  0  0  0  0
  141.7868   77.6151  217.1259 H   0  0  0  0  0  0  0  0  0  0  0  0
  143.5390   79.0490  217.3650 H   0  0  0  0  0  0  0  0  0  0  0  0
  143.0808   81.0567  218.4300 H   0  0  0  0  0  0  0  0  0  0  0  0
  141.4918   80.4147  217.8488 H   0  0  0  0  0  0  0  0  0  0  0  0
  142.6459   80.3613  220.6608 H   0  0  0  0  0  0  0  0  0  0  0  0
  141.1040   81.0861  220.0872 H   0  0  0  0  0  0  0  0  0  0  0  0
  141.6999   78.0807  222.1729 H   0  0  0  0  0  0  0  0  0  0  0  0
  140.8841   77.0300  223.3570 H   0  0  0  0  0  0  0  0  0  0  0  0
  140.8469   76.4731  220.3347 H   0  0  0  0  0  0  0  0  0  0  0  0
  142.0965   75.8029  221.3822 H   0  0  0  0  0  0  0  0  0  0  0  0
  138.2242   69.8849  222.9401 H   0  0  0  0  0  0  0  0  0  0  0  0
  139.8165   69.0624  223.2493 H   0  0  0  0  0  0  0  0  0  0  0  0
  137.5209   69.5297  225.1563 H   0  0  0  0  0  0  0  0  0  0  0  0
  138.2983   67.9750  224.6289 H   0  0  0  0  0  0  0  0  0  0  0  0
  139.1582   67.0185  226.6332 H   0  0  0  0  0  0  0  0  0  0  0  0
  140.7231   67.2781  228.5211 H   0  0  0  0  0  0  0  0  0  0  0  0
  141.8212   69.4515  228.9872 H   0  0  0  0  0  0  0  0  0  0  0  0
  141.3395   71.4042  227.5364 H   0  0  0  0  0  0  0  0  0  0  0  0
  138.6383   71.8074  225.6127 H   0  0  0  0  0  0  0  0  0  0  0  0
  140.3895   72.2314  225.4702 H   0  0  0  0  0  0  0  0  0  0  0  0
  144.1148   72.5440  219.6724 H   0  0  0  0  0  0  0  0  0  0  0  0
  144.1407   71.6045  221.1944 H   0  0  0  0  0  0  0  0  0  0  0  0
  1  2  2  0
  2  3  1  0
  3  4  2  0
  4  5  1  0
  5  6  2  0
  5  7  1  0
  7  8  1  0
  8  9  1  0
  9 10  1  0
 10 11  2  0
 11 12  1  0
 12 13  1  0
 13 14  1  0
 14 15  1  0
 15 16  1  0
 16 17  1  0
 17 18  1  0
 18 19  1  0
 19 20  1  0
 20 21  1  0
 21 22  1  0
 22 23  1  0
 16 24  1  0
 24 25  1  0
 12 26  2  0
 26 27  1  0
 27 28  1  0
 28 29  1  0
 29 30  1  0
 30 31  1  0
 31 32  2  0
 32 33  1  0
 33 34  2  0
 34 35  1  0
 35 36  2  0
 36 37  1  0
 27 38  2  0
  9 39  1  0
  6  1  1  0
 38 10  1  0
 39  4  1  0
 25 13  1  0
 37 28  1  0
 23 18  1  0
 36 31  1  0
  1 40  1  0
  2 41  1  0
  3 42  1  0
  6 43  1  0
  7 44  1  0
  7 45  1  0
  8 46  1  0
  8 47  1  0
 14 48  1  0
 14 49  1  0
 15 50  1  0
 15 51  1  0
 17 52  1  0
 17 53  1  0
 18 54  1  0
 19 55  1  0
 19 56  1  0
 20 57  1  0
 20 58  1  0
 21 59  1  0
 22 60  1  0
 22 61  1  0
 23 62  1  0
 23 63  1  0
 24 64  1  0
 24 65  1  0
 25 66  1  0
 25 67  1  0
 29 68  1  0
 29 69  1  0
 30 70  1  0
 30 71  1  0
 32 72  1  0
 33 73  1  0
 34 74  1  0
 35 75  1  0
 37 76  1  0
 37 77  1  0
 39 78  1  0
 39 79  1  0
M  END
>  <smiles>  (35) 
c1ccc2c(c1)CCN(c1nc(N3CCN(CC4CCNCC4)CC3)nc(N3CCc4ccccc4C3)n1)C2

>  <score_type>  (35) 
oracle

>  <origin>  (35) 
autodockgpu

>  <m_score__min__energy>  (35) 
-10.470000000000001

>  <m_primary>  (35) 
energy

>  <rmsd>  (35) 
4.069589331930162

>  <m_score__min__rmsd>  (35) 
4.069589331930162

>  <meeko>  (35) 
{"free_energy": -9.57, "intermolecular_energy": -11.06, "internal_energy": -1.24, "cluster_size": 32, "cluster_id": 3, "rank_in_cluster": 25}

>  <energy>  (35) 
-9.62

>  <cluster_rmsd>  (35) 
1.9

>  <cluster>  (35) 
3

$$$$

     RDKit          3D

 79 85  0  0  0  0  0  0  0  0999 V2000
  141.9060   80.8270  222.3410 C   0  0  0  0  0  0  0  0  0  0  0  0
  141.2600   80.3700  223.4740 C   0  0  0  0  0  0  0  0  0  0  0  0
  140.8900   79.0270  223.5220 C   0  0  0  0  0  0  0  0  0  0  0  0
  141.1450   78.1530  222.4860 C   0  0  0  0  0  0  0  0  0  0  0  0
  141.7900   78.6590  221.3810 C   0  0  0  0  0  0  0  0  0  0  0  0
  142.1820   79.9820  221.2750 C   0  0  0  0  0  0  0  0  0  0  0  0
  142.1100   77.7890  220.2020 C   0  0  0  0  0  0  0  0  0  0  0  0
  141.0350   76.7280  220.0980 C   0  0  0  0  0  0  0  0  0  0  0  0
  140.9490   76.0640  221.3820 N   0  0  0  0  0  0  0  0  0  0  0  0
  141.1070   74.6430  221.4110 C   0  0  0  0  0  0  0  0  0  0  0  0
  141.8970   73.9960  220.5060 N   0  0  0  0  0  0  0  0  0  0  0  0
  142.0500   72.6770  220.5260 C   0  0  0  0  0  0  0  0  0  0  0  0
  142.8620   71.9890  219.5980 N   0  0  0  0  0  0  0  0  0  0  0  0
  143.4090   72.6030  218.4030 C   0  0  0  0  0  0  0  0  0  0  0  0
  143.6530   71.4180  217.4390 C   0  0  0  0  0  0  0  0  0  0  0  0
  144.6750   70.5630  217.9180 N   0  0  0  0  0  0  0  0  0  0  0  0
  144.6250   69.2530  217.3970 C   0  0  0  0  0  0  0  0  0  0  0  0
  145.8820   68.6010  216.9570 C   0  0  0  0  0  0  0  0  0  0  0  0
  145.5210   67.4110  216.0430 C   0  0  0  0  0  0  0  0  0  0  0  0
  146.7050   66.4880  215.9460 C   0  0  0  0  0  0  0  0  0  0  0  0
  147.8540   67.2930  215.5720 N   0  0  0  0  0  0  0  0  0  0  0  0
  147.4760   68.5860  215.0820 C   0  0  0  0  0  0  0  0  0  0  0  0
  146.8470   69.4290  216.1780 C   0  0  0  0  0  0  0  0  0  0  0  0
  144.6480   70.4630  219.3730 C   0  0  0  0  0  0  0  0  0  0  0  0
  143.2010   70.5810  219.8080 C   0  0  0  0  0  0  0  0  0  0  0  0
  141.4040   71.9790  221.4680 N   0  0  0  0  0  0  0  0  0  0  0  0
  140.6210   72.5420  222.3780 C   0  0  0  0  0  0  0  0  0  0  0  0
  139.9750   71.7170  223.3400 N   0  0  0  0  0  0  0  0  0  0  0  0
  138.9060   70.8590  222.8920 C   0  0  0  0  0  0  0  0  0  0  0  0
  138.3100   70.0470  224.0140 C   0  0  0  0  0  0  0  0  0  0  0  0
  139.3500   69.4570  224.8900 C   0  0  0  0  0  0  0  0  0  0  0  0
  139.2990   68.1450  225.3170 C   0  0  0  0  0  0  0  0  0  0  0  0
  140.3060   67.6990  226.1200 C   0  0  0  0  0  0  0  0  0  0  0  0
  141.3550   68.5200  226.5080 C   0  0  0  0  0  0  0  0  0  0  0  0
  141.3810   69.8270  226.0680 C   0  0  0  0  0  0  0  0  0  0  0  0
  140.3920   70.3120  225.2620 C   0  0  0  0  0  0  0  0  0  0  0  0
  140.3370   71.7010  224.7440 C   0  0  0  0  0  0  0  0  0  0  0  0
  140.4780   73.8800  222.3430 N   0  0  0  0  0  0  0  0  0  0  0  0
  140.7120   76.7450  222.6320 C   0  0  0  0  0  0  0  0  0  0  0  0
  142.2080   81.8831  222.2827 H   0  0  0  0  0  0  0  0  0  0  0  0
  141.0440   81.0467  224.3139 H   0  0  0  0  0  0  0  0  0  0  0  0
  140.3760   78.6505  224.4187 H   0  0  0  0  0  0  0  0  0  0  0  0
  142.6956   80.3518  220.3753 H   0  0  0  0  0  0  0  0  0  0  0  0
  142.1262   78.3952  219.2842 H   0  0  0  0  0  0  0  0  0  0  0  0
  143.0975   77.3213  220.3290 H   0  0  0  0  0  0  0  0  0  0  0  0
  140.0699   77.1948  219.8518 H   0  0  0  0  0  0  0  0  0  0  0  0
  141.2806   76.0058  219.3055 H   0  0  0  0  0  0  0  0  0  0  0  0
  142.6929   73.3165  217.9693 H   0  0  0  0  0  0  0  0  0  0  0  0
  144.3271   73.1733  218.6073 H   0  0  0  0  0  0  0  0  0  0  0  0
  142.7219   70.8411  217.3385 H   0  0  0  0  0  0  0  0  0  0  0  0
  143.9688   71.8230  216.4663 H   0  0  0  0  0  0  0  0  0  0  0  0
  144.1872   68.6132  218.1774 H   0  0  0  0  0  0  0  0  0  0  0  0
  144.0480   69.3632  216.4670 H   0  0  0  0  0  0  0  0  0  0  0  0
  146.3836   68.3425  217.9012 H   0  0  0  0  0  0  0  0  0  0  0  0
  144.6640   66.8674  216.4673 H   0  0  0  0  0  0  0  0  0  0  0  0
  145.2558   67.7802  215.0413 H   0  0  0  0  0  0  0  0  0  0  0  0
  146.8851   66.0042  216.9174 H   0  0  0  0  0  0  0  0  0  0  0  0
  146.5233   65.7005  215.1998 H   0  0  0  0  0  0  0  0  0  0  0  0
  148.5010   66.8000  214.9480 H   0  0  0  0  0  0  0  0  0  0  0  0
  148.3708   69.1011  214.7026 H   0  0  0  0  0  0  0  0  0  0  0  0
  146.7356   68.4506  214.2798 H   0  0  0  0  0  0  0  0  0  0  0  0
  147.6342   69.8022  216.8496 H   0  0  0  0  0  0  0  0  0  0  0  0
  146.3153   70.2785  215.7246 H   0  0  0  0  0  0  0  0  0  0  0  0
  145.0584   69.4932  219.6910 H   0  0  0  0  0  0  0  0  0  0  0  0
  145.2568   71.2578  219.8286 H   0  0  0  0  0  0  0  0  0  0  0  0
  142.5579   69.9319  219.1955 H   0  0  0  0  0  0  0  0  0  0  0  0
  143.0545   70.2697  220.8528 H   0  0  0  0  0  0  0  0  0  0  0  0
  138.1154   71.4823  222.4488 H   0  0  0  0  0  0  0  0  0  0  0  0
  139.3262   70.1566  222.1571 H   0  0  0  0  0  0  0  0  0  0  0  0
  137.6646   70.6998  224.6201 H   0  0  0  0  0  0  0  0  0  0  0  0
  137.7364   69.2218  223.5668 H   0  0  0  0  0  0  0  0  0  0  0  0
  138.4734   67.4819  225.0192 H   0  0  0  0  0  0  0  0  0  0  0  0
  140.2864   66.6567  226.4710 H   0  0  0  0  0  0  0  0  0  0  0  0
  142.1546   68.1340  227.1573 H   0  0  0  0  0  0  0  0  0  0  0  0
  142.2083   70.4860  226.3701 H   0  0  0  0  0  0  0  0  0  0  0  0
  139.5879   72.2688  225.3153 H   0  0  0  0  0  0  0  0  0  0  0  0
  141.3321   72.1566  224.8550 H   0  0  0  0  0  0  0  0  0  0  0  0
  139.6403   76.7094  222.8772 H   0  0  0  0  0  0  0  0  0  0  0  0
  141.2763   76.2578  223.4409 H   0  0  0  0  0  0  0  0  0  0  0  0
  1  2  2  0
  2  3  1  0
  3  4  2  0
  4  5  1  0
  5  6  2  0
  5  7  1  0
  7  8  1  0
  8  9  1  0
  9 10  1  0
 10 11  2  0
 11 12  1  0
 12 13  1  0
 13 14  1  0
 14 15  1  0
 15 16  1  0
 16 17  1  0
 17 18  1  0
 18 19  1  0
 19 20  1  0
 20 21  1  0
 21 22  1  0
 22 23  1  0
 16 24  1  0
 24 25  1  0
 12 26  2  0
 26 27  1  0
 27 28  1  0
 28 29  1  0
 29 30  1  0
 30 31  1  0
 31 32  2  0
 32 33  1  0
 33 34  2  0
 34 35  1  0
 35 36  2  0
 36 37  1  0
 27 38  2  0
  9 39  1  0
  6  1  1  0
 38 10  1  0
 39  4  1  0
 25 13  1  0
 37 28  1  0
 23 18  1  0
 36 31  1  0
  1 40  1  0
  2 41  1  0
  3 42  1  0
  6 43  1  0
  7 44  1  0
  7 45  1  0
  8 46  1  0
  8 47  1  0
 14 48  1  0
 14 49  1  0
 15 50  1  0
 15 51  1  0
 17 52  1  0
 17 53  1  0
 18 54  1  0
 19 55  1  0
 19 56  1  0
 20 57  1  0
 20 58  1  0
 21 59  1  0
 22 60  1  0
 22 61  1  0
 23 62  1  0
 23 63  1  0
 24 64  1  0
 24 65  1  0
 25 66  1  0
 25 67  1  0
 29 68  1  0
 29 69  1  0
 30 70  1  0
 30 71  1  0
 32 72  1  0
 33 73  1  0
 34 74  1  0
 35 75  1  0
 37 76  1  0
 37 77  1  0
 39 78  1  0
 39 79  1  0
M  END
>  <smiles>  (36) 
c1ccc2c(c1)CCN(c1nc(N3CCN(CC4CCNCC4)CC3)nc(N3CCc4ccccc4C3)n1)C2

>  <score_type>  (36) 
oracle

>  <origin>  (36) 
autodockgpu

>  <m_score__min__energy>  (36) 
-10.470000000000001

>  <m_primary>  (36) 
energy

>  <rmsd>  (36) 
11.801243276276034

>  <m_score__min__rmsd>  (36) 
11.801243276276034

>  <meeko>  (36) 
{"free_energy": -9.51, "intermolecular_energy": -11.01, "internal_energy": -1.19, "cluster_size": 7, "cluster_id": 2, "rank_in_cluster": 6}

>  <energy>  (36) 
-9.6

>  <cluster_rmsd>  (36) 
1.84

>  <cluster>  (36) 
3

$$$$

     RDKit          3D

 79 85  0  0  0  0  0  0  0  0999 V2000
  146.3120   70.3880  216.8740 C   0  0  0  0  0  0  0  0  0  0  0  0
  146.1410   69.5170  217.9330 C   0  0  0  0  0  0  0  0  0  0  0  0
  145.3540   69.9330  219.0060 C   0  0  0  0  0  0  0  0  0  0  0  0
  144.7490   71.1710  219.0410 C   0  0  0  0  0  0  0  0  0  0  0  0
  144.9510   72.0010  217.9620 C   0  0  0  0  0  0  0  0  0  0  0  0
  145.7210   71.6450  216.8690 C   0  0  0  0  0  0  0  0  0  0  0  0
  144.3370   73.3680  217.9080 C   0  0  0  0  0  0  0  0  0  0  0  0
  144.2350   73.8910  219.3240 C   0  0  0  0  0  0  0  0  0  0  0  0
  143.5260   72.9000  220.1080 N   0  0  0  0  0  0  0  0  0  0  0  0
  142.3530   73.3180  220.8100 C   0  0  0  0  0  0  0  0  0  0  0  0
  141.5220   72.4160  221.4080 N   0  0  0  0  0  0  0  0  0  0  0  0
  140.4320   72.7960  222.0630 C   0  0  0  0  0  0  0  0  0  0  0  0
  139.5590   71.8790  222.6890 N   0  0  0  0  0  0  0  0  0  0  0  0
  138.1150   72.0160  222.6830 C   0  0  0  0  0  0  0  0  0  0  0  0
  137.6490   71.2300  223.9320 C   0  0  0  0  0  0  0  0  0  0  0  0
  137.8900   69.8420  223.7900 N   0  0  0  0  0  0  0  0  0  0  0  0
  137.9640   69.1410  225.0110 C   0  0  0  0  0  0  0  0  0  0  0  0
  139.2860   68.9420  225.6530 C   0  0  0  0  0  0  0  0  0  0  0  0
  139.5850   70.1660  226.5450 C   0  0  0  0  0  0  0  0  0  0  0  0
  141.0580   70.2070  226.8470 C   0  0  0  0  0  0  0  0  0  0  0  0
  141.4340   68.9000  227.3560 N   0  0  0  0  0  0  0  0  0  0  0  0
  140.2960   68.1180  227.7410 C   0  0  0  0  0  0  0  0  0  0  0  0
  139.4470   67.7510  226.5350 C   0  0  0  0  0  0  0  0  0  0  0  0
  139.1260   69.5880  223.0580 C   0  0  0  0  0  0  0  0  0  0  0  0
  140.0890   70.7100  223.3920 C   0  0  0  0  0  0  0  0  0  0  0  0
  140.1550   74.1050  222.1290 N   0  0  0  0  0  0  0  0  0  0  0  0
  140.9170   75.0340  221.5710 C   0  0  0  0  0  0  0  0  0  0  0  0
  140.5420   76.4010  221.6920 N   0  0  0  0  0  0  0  0  0  0  0  0
  139.3320   76.7130  222.4130 C   0  0  0  0  0  0  0  0  0  0  0  0
  139.0540   78.1940  222.4600 C   0  0  0  0  0  0  0  0  0  0  0  0
  140.2700   78.9810  222.7750 C   0  0  0  0  0  0  0  0  0  0  0  0
  140.2640   80.0140  223.6910 C   0  0  0  0  0  0  0  0  0  0  0  0
  141.4360   80.6750  223.9100 C   0  0  0  0  0  0  0  0  0  0  0  0
  142.6060   80.3370  223.2450 C   0  0  0  0  0  0  0  0  0  0  0  0
  142.5840   79.3020  222.3340 C   0  0  0  0  0  0  0  0  0  0  0  0
  141.4310   78.6140  222.0870 C   0  0  0  0  0  0  0  0  0  0  0  0
  141.3140   77.4910  221.1260 C   0  0  0  0  0  0  0  0  0  0  0  0
  142.0200   74.6310  220.9110 N   0  0  0  0  0  0  0  0  0  0  0  0
  143.9320   71.5210  220.2250 C   0  0  0  0  0  0  0  0  0  0  0  0
  146.9289   70.0795  216.0171 H   0  0  0  0  0  0  0  0  0  0  0  0
  146.6126   68.5232  217.9295 H   0  0  0  0  0  0  0  0  0  0  0  0
  145.2107   69.2486  219.8552 H   0  0  0  0  0  0  0  0  0  0  0  0
  145.8606   72.3349  216.0237 H   0  0  0  0  0  0  0  0  0  0  0  0
  144.9697   74.0379  217.3073 H   0  0  0  0  0  0  0  0  0  0  0  0
  143.3402   73.3212  217.4452 H   0  0  0  0  0  0  0  0  0  0  0  0
  145.2415   74.0476  219.7393 H   0  0  0  0  0  0  0  0  0  0  0  0
  143.7007   74.8524  219.3428 H   0  0  0  0  0  0  0  0  0  0  0  0
  137.8240   73.0742  222.7580 H   0  0  0  0  0  0  0  0  0  0  0  0
  137.6615   71.6366  221.7554 H   0  0  0  0  0  0  0  0  0  0  0  0
  138.1959   71.5998  224.8119 H   0  0  0  0  0  0  0  0  0  0  0  0
  136.5662   71.3823  224.0522 H   0  0  0  0  0  0  0  0  0  0  0  0
  137.3354   69.6843  225.7319 H   0  0  0  0  0  0  0  0  0  0  0  0
  137.6459   68.1217  224.7467 H   0  0  0  0  0  0  0  0  0  0  0  0
  139.9672   68.7940  224.8021 H   0  0  0  0  0  0  0  0  0  0  0  0
  139.2912   71.0860  226.0185 H   0  0  0  0  0  0  0  0  0  0  0  0
  139.0164   70.0884  227.4834 H   0  0  0  0  0  0  0  0  0  0  0  0
  141.6236   70.4303  225.9303 H   0  0  0  0  0  0  0  0  0  0  0  0
  141.2810   70.9904  227.5863 H   0  0  0  0  0  0  0  0  0  0  0  0
  142.1540   68.9480  228.0860 H   0  0  0  0  0  0  0  0  0  0  0  0
  140.6433   67.1955  228.2292 H   0  0  0  0  0  0  0  0  0  0  0  0
  139.6811   68.7146  228.4309 H   0  0  0  0  0  0  0  0  0  0  0  0
  139.9395   66.9437  225.9731 H   0  0  0  0  0  0  0  0  0  0  0  0
  138.4571   67.4132  226.8755 H   0  0  0  0  0  0  0  0  0  0  0  0
  139.5531   68.6219  223.3651 H   0  0  0  0  0  0  0  0  0  0  0  0
  138.9354   69.5490  221.9753 H   0  0  0  0  0  0  0  0  0  0  0  0
  140.1143   70.8889  224.4771 H   0  0  0  0  0  0  0  0  0  0  0  0
  141.1204   70.4759  223.0896 H   0  0  0  0  0  0  0  0  0  0  0  0
  138.4873   76.2110  221.9186 H   0  0  0  0  0  0  0  0  0  0  0  0
  139.4601   76.3638  223.4482 H   0  0  0  0  0  0  0  0  0  0  0  0
  138.6688   78.5136  221.4805 H   0  0  0  0  0  0  0  0  0  0  0  0
  138.3181   78.3749  223.2573 H   0  0  0  0  0  0  0  0  0  0  0  0
  139.3446   80.2942  224.2260 H   0  0  0  0  0  0  0  0  0  0  0  0
  141.4547   81.5013  224.6359 H   0  0  0  0  0  0  0  0  0  0  0  0
  143.5381   80.8870  223.4418 H   0  0  0  0  0  0  0  0  0  0  0  0
  143.5059   79.0277  221.8003 H   0  0  0  0  0  0  0  0  0  0  0  0
  140.8153   77.8490  220.2133 H   0  0  0  0  0  0  0  0  0  0  0  0
  142.3238   77.1217  220.8937 H   0  0  0  0  0  0  0  0  0  0  0  0
  144.5273   71.3856  221.1400 H   0  0  0  0  0  0  0  0  0  0  0  0
  143.0468   70.8702  220.2785 H   0  0  0  0  0  0  0  0  0  0  0  0
  1  2  2  0
  2  3  1  0
  3  4  2  0
  4  5  1  0
  5  6  2  0
  5  7  1  0
  7  8  1  0
  8  9  1  0
  9 10  1  0
 10 11  2  0
 11 12  1  0
 12 13  1  0
 13 14  1  0
 14 15  1  0
 15 16  1  0
 16 17  1  0
 17 18  1  0
 18 19  1  0
 19 20  1  0
 20 21  1  0
 21 22  1  0
 22 23  1  0
 16 24  1  0
 24 25  1  0
 12 26  2  0
 26 27  1  0
 27 28  1  0
 28 29  1  0
 29 30  1  0
 30 31  1  0
 31 32  2  0
 32 33  1  0
 33 34  2  0
 34 35  1  0
 35 36  2  0
 36 37  1  0
 27 38  2  0
  9 39  1  0
  6  1  1  0
 38 10  1  0
 39  4  1  0
 25 13  1  0
 37 28  1  0
 23 18  1  0
 36 31  1  0
  1 40  1  0
  2 41  1  0
  3 42  1  0
  6 43  1  0
  7 44  1  0
  7 45  1  0
  8 46  1  0
  8 47  1  0
 14 48  1  0
 14 49  1  0
 15 50  1  0
 15 51  1  0
 17 52  1  0
 17 53  1  0
 18 54  1  0
 19 55  1  0
 19 56  1  0
 20 57  1  0
 20 58  1  0
 21 59  1  0
 22 60  1  0
 22 61  1  0
 23 62  1  0
 23 63  1  0
 24 64  1  0
 24 65  1  0
 25 66  1  0
 25 67  1  0
 29 68  1  0
 29 69  1  0
 30 70  1  0
 30 71  1  0
 32 72  1  0
 33 73  1  0
 34 74  1  0
 35 75  1  0
 37 76  1  0
 37 77  1  0
 39 78  1  0
 39 79  1  0
M  END
>  <smiles>  (37) 
c1ccc2c(c1)CCN(c1nc(N3CCN(CC4CCNCC4)CC3)nc(N3CCc4ccccc4C3)n1)C2

>  <score_type>  (37) 
oracle

>  <origin>  (37) 
autodockgpu

>  <m_score__min__energy>  (37) 
-10.470000000000001

>  <m_primary>  (37) 
energy

>  <rmsd>  (37) 
10.564769147553198

>  <m_score__min__rmsd>  (37) 
10.564769147553198

>  <meeko>  (37) 
{"free_energy": -10.06, "intermolecular_energy": -11.55, "internal_energy": -1.24, "cluster_size": 9, "cluster_id": 1, "rank_in_cluster": 8}

>  <energy>  (37) 
-9.6

>  <cluster_rmsd>  (37) 
1.91

>  <cluster>  (37) 
3

$$$$

     RDKit          3D

 79 85  0  0  0  0  0  0  0  0999 V2000
  146.0360   68.5330  218.1280 C   0  0  0  0  0  0  0  0  0  0  0  0
  146.6930   69.6370  218.6380 C   0  0  0  0  0  0  0  0  0  0  0  0
  145.9330   70.6190  219.2720 C   0  0  0  0  0  0  0  0  0  0  0  0
  144.5640   70.5220  219.4040 C   0  0  0  0  0  0  0  0  0  0  0  0
  143.9590   69.4040  218.8780 C   0  0  0  0  0  0  0  0  0  0  0  0
  144.6590   68.3970  218.2390 C   0  0  0  0  0  0  0  0  0  0  0  0
  142.4750   69.2090  218.9690 C   0  0  0  0  0  0  0  0  0  0  0  0
  141.8210   70.5740  218.9390 C   0  0  0  0  0  0  0  0  0  0  0  0
  142.4280   71.3730  219.9830 N   0  0  0  0  0  0  0  0  0  0  0  0
  141.5660   71.9590  220.9620 C   0  0  0  0  0  0  0  0  0  0  0  0
  141.2470   73.2850  220.9270 N   0  0  0  0  0  0  0  0  0  0  0  0
  140.4470   73.8360  221.8320 C   0  0  0  0  0  0  0  0  0  0  0  0
  140.1050   75.2070  221.8140 N   0  0  0  0  0  0  0  0  0  0  0  0
  138.8490   75.7250  222.3220 C   0  0  0  0  0  0  0  0  0  0  0  0
  138.6470   77.0580  221.5620 C   0  0  0  0  0  0  0  0  0  0  0  0
  139.6210   78.0170  221.9330 N   0  0  0  0  0  0  0  0  0  0  0  0
  139.8220   79.0350  220.9780 C   0  0  0  0  0  0  0  0  0  0  0  0
  141.0720   79.0420  220.1800 C   0  0  0  0  0  0  0  0  0  0  0  0
  140.7530   78.5160  218.7650 C   0  0  0  0  0  0  0  0  0  0  0  0
  142.0320   78.0990  218.0940 C   0  0  0  0  0  0  0  0  0  0  0  0
  142.9600   79.2120  218.2000 N   0  0  0  0  0  0  0  0  0  0  0  0
  142.3060   80.4330  218.5670 C   0  0  0  0  0  0  0  0  0  0  0  0
  141.7480   80.3560  219.9780 C   0  0  0  0  0  0  0  0  0  0  0  0
  140.9130   77.3920  222.1930 C   0  0  0  0  0  0  0  0  0  0  0  0
  141.0320   76.1970  221.2670 C   0  0  0  0  0  0  0  0  0  0  0  0
  139.9480   73.0550  222.7990 N   0  0  0  0  0  0  0  0  0  0  0  0
  140.2170   71.7600  222.8920 C   0  0  0  0  0  0  0  0  0  0  0  0
  139.6410   71.0100  223.9550 N   0  0  0  0  0  0  0  0  0  0  0  0
  139.0160   69.7490  223.6370 C   0  0  0  0  0  0  0  0  0  0  0  0
  138.4450   69.0660  224.8540 C   0  0  0  0  0  0  0  0  0  0  0  0
  139.3780   69.1050  226.0060 C   0  0  0  0  0  0  0  0  0  0  0  0
  139.6250   67.9990  226.7940 C   0  0  0  0  0  0  0  0  0  0  0  0
  140.5010   68.1390  227.8290 C   0  0  0  0  0  0  0  0  0  0  0  0
  141.1340   69.3450  228.0970 C   0  0  0  0  0  0  0  0  0  0  0  0
  140.8680   70.4350  227.2950 C   0  0  0  0  0  0  0  0  0  0  0  0
  139.9970   70.3350  226.2490 C   0  0  0  0  0  0  0  0  0  0  0  0
  139.6520   71.4520  225.3360 C   0  0  0  0  0  0  0  0  0  0  0  0
  141.0290   71.2180  221.9660 N   0  0  0  0  0  0  0  0  0  0  0  0
  143.8450   71.6170  220.0940 C   0  0  0  0  0  0  0  0  0  0  0  0
  146.6162   67.7461  217.6239 H   0  0  0  0  0  0  0  0  0  0  0  0
  147.7845   69.7380  218.5463 H   0  0  0  0  0  0  0  0  0  0  0  0
  146.4439   71.5029  219.6816 H   0  0  0  0  0  0  0  0  0  0  0  0
  144.1411   67.5162  217.8316 H   0  0  0  0  0  0  0  0  0  0  0  0
  142.1245   68.6083  218.1167 H   0  0  0  0  0  0  0  0  0  0  0  0
  142.2153   68.6812  219.8985 H   0  0  0  0  0  0  0  0  0  0  0  0
  141.9862   71.0477  217.9601 H   0  0  0  0  0  0  0  0  0  0  0  0
  140.7364   70.4865  219.1005 H   0  0  0  0  0  0  0  0  0  0  0  0
  138.0257   75.0271  222.1095 H   0  0  0  0  0  0  0  0  0  0  0  0
  138.8628   75.8624  223.4133 H   0  0  0  0  0  0  0  0  0  0  0  0
  138.7243   76.8690  220.4811 H   0  0  0  0  0  0  0  0  0  0  0  0
  137.6541   77.4558  221.8186 H   0  0  0  0  0  0  0  0  0  0  0  0
  138.9861   78.9767  220.2653 H   0  0  0  0  0  0  0  0  0  0  0  0
  139.8928   79.9509  221.5830 H   0  0  0  0  0  0  0  0  0  0  0  0
  141.7608   78.4236  220.7742 H   0  0  0  0  0  0  0  0  0  0  0  0
  140.0765   77.6517  218.8374 H   0  0  0  0  0  0  0  0  0  0  0  0
  140.2675   79.3084  218.1764 H   0  0  0  0  0  0  0  0  0  0  0  0
  142.4484   77.2130  218.5955 H   0  0  0  0  0  0  0  0  0  0  0  0
  141.8521   77.8418  217.0397 H   0  0  0  0  0  0  0  0  0  0  0  0
  143.5610   79.3100  217.3740 H   0  0  0  0  0  0  0  0  0  0  0  0
  143.0310   81.2585  218.5126 H   0  0  0  0  0  0  0  0  0  0  0  0
  141.4709   80.6030  217.8715 H   0  0  0  0  0  0  0  0  0  0  0  0
  142.5694   80.4598  220.7022 H   0  0  0  0  0  0  0  0  0  0  0  0
  141.0199   81.1670  220.1266 H   0  0  0  0  0  0  0  0  0  0  0  0
  141.7242   78.1069  221.9907 H   0  0  0  0  0  0  0  0  0  0  0  0
  140.9885   77.0781  223.2445 H   0  0  0  0  0  0  0  0  0  0  0  0
  140.7449   76.4715  220.2412 H   0  0  0  0  0  0  0  0  0  0  0  0
  142.0622   75.8153  221.2118 H   0  0  0  0  0  0  0  0  0  0  0  0
  138.2023   69.9294  222.9191 H   0  0  0  0  0  0  0  0  0  0  0  0
  139.7884   69.0896  223.2144 H   0  0  0  0  0  0  0  0  0  0  0  0
  137.5099   69.5710  225.1379 H   0  0  0  0  0  0  0  0  0  0  0  0
  138.2676   68.0110  224.5979 H   0  0  0  0  0  0  0  0  0  0  0  0
  139.1314   67.0366  226.5935 H   0  0  0  0  0  0  0  0  0  0  0  0
  140.7125   67.2709  228.4706 H   0  0  0  0  0  0  0  0  0  0  0  0
  141.8383   69.4301  228.9377 H   0  0  0  0  0  0  0  0  0  0  0  0
  141.3632   71.3954  227.5006 H   0  0  0  0  0  0  0  0  0  0  0  0
  138.6554   71.8365  225.5986 H   0  0  0  0  0  0  0  0  0  0  0  0
  140.4106   72.2410  225.4454 H   0  0  0  0  0  0  0  0  0  0  0  0
  144.0941   72.5794  219.6231 H   0  0  0  0  0  0  0  0  0  0  0  0
  144.1400   71.6539  221.1531 H   0  0  0  0  0  0  0  0  0  0  0  0
  1  2  2  0
  2  3  1  0
  3  4  2  0
  4  5  1  0
  5  6  2  0
  5  7  1  0
  7  8  1  0
  8  9  1  0
  9 10  1  0
 10 11  2  0
 11 12  1  0
 12 13  1  0
 13 14  1  0
 14 15  1  0
 15 16  1  0
 16 17  1  0
 17 18  1  0
 18 19  1  0
 19 20  1  0
 20 21  1  0
 21 22  1  0
 22 23  1  0
 16 24  1  0
 24 25  1  0
 12 26  2  0
 26 27  1  0
 27 28  1  0
 28 29  1  0
 29 30  1  0
 30 31  1  0
 31 32  2  0
 32 33  1  0
 33 34  2  0
 34 35  1  0
 35 36  2  0
 36 37  1  0
 27 38  2  0
  9 39  1  0
  6  1  1  0
 38 10  1  0
 39  4  1  0
 25 13  1  0
 37 28  1  0
 23 18  1  0
 36 31  1  0
  1 40  1  0
  2 41  1  0
  3 42  1  0
  6 43  1  0
  7 44  1  0
  7 45  1  0
  8 46  1  0
  8 47  1  0
 14 48  1  0
 14 49  1  0
 15 50  1  0
 15 51  1  0
 17 52  1  0
 17 53  1  0
 18 54  1  0
 19 55  1  0
 19 56  1  0
 20 57  1  0
 20 58  1  0
 21 59  1  0
 22 60  1  0
 22 61  1  0
 23 62  1  0
 23 63  1  0
 24 64  1  0
 24 65  1  0
 25 66  1  0
 25 67  1  0
 29 68  1  0
 29 69  1  0
 30 70  1  0
 30 71  1  0
 32 72  1  0
 33 73  1  0
 34 74  1  0
 35 75  1  0
 37 76  1  0
 37 77  1  0
 39 78  1  0
 39 79  1  0
M  END
>  <smiles>  (38) 
c1ccc2c(c1)CCN(c1nc(N3CCN(CC4CCNCC4)CC3)nc(N3CCc4ccccc4C3)n1)C2

>  <score_type>  (38) 
oracle

>  <origin>  (38) 
autodockgpu

>  <m_score__min__energy>  (38) 
-10.470000000000001

>  <m_primary>  (38) 
energy

>  <rmsd>  (38) 
4.000865495570748

>  <m_score__min__rmsd>  (38) 
4.000865495570748

>  <meeko>  (38) 
{"free_energy": -9.6, "intermolecular_energy": -11.09, "internal_energy": -1.25, "cluster_size": 32, "cluster_id": 3, "rank_in_cluster": 20}

>  <energy>  (38) 
-9.59

>  <cluster_rmsd>  (38) 
1.92

>  <cluster>  (38) 
3

$$$$

     RDKit          3D

 79 85  0  0  0  0  0  0  0  0999 V2000
  141.9330   80.6200  222.1430 C   0  0  0  0  0  0  0  0  0  0  0  0
  141.3410   80.2010  223.3190 C   0  0  0  0  0  0  0  0  0  0  0  0
  140.9260   78.8730  223.4100 C   0  0  0  0  0  0  0  0  0  0  0  0
  141.0870   77.9770  222.3740 C   0  0  0  0  0  0  0  0  0  0  0  0
  141.6820   78.4450  221.2250 C   0  0  0  0  0  0  0  0  0  0  0  0
  142.1140   79.7510  221.0750 C   0  0  0  0  0  0  0  0  0  0  0  0
  141.8990   77.5480  220.0420 C   0  0  0  0  0  0  0  0  0  0  0  0
  140.7830   76.5260  220.0190 C   0  0  0  0  0  0  0  0  0  0  0  0
  140.7510   75.8820  221.3160 N   0  0  0  0  0  0  0  0  0  0  0  0
  140.8600   74.4570  221.3570 C   0  0  0  0  0  0  0  0  0  0  0  0
  141.5270   73.7660  220.3880 N   0  0  0  0  0  0  0  0  0  0  0  0
  141.6330   72.4430  220.4190 C   0  0  0  0  0  0  0  0  0  0  0  0
  142.3180   71.7090  219.4260 N   0  0  0  0  0  0  0  0  0  0  0  0
  142.9600   72.3210  218.2780 C   0  0  0  0  0  0  0  0  0  0  0  0
  143.0010   71.1970  217.2150 C   0  0  0  0  0  0  0  0  0  0  0  0
  143.8660   70.1460  217.6070 N   0  0  0  0  0  0  0  0  0  0  0  0
  143.5970   68.9120  216.9810 C   0  0  0  0  0  0  0  0  0  0  0  0
  144.7030   67.9440  216.7850 C   0  0  0  0  0  0  0  0  0  0  0  0
  145.9660   68.7240  216.3610 C   0  0  0  0  0  0  0  0  0  0  0  0
  146.9490   67.7700  215.7390 C   0  0  0  0  0  0  0  0  0  0  0  0
  147.1250   66.6630  216.6630 N   0  0  0  0  0  0  0  0  0  0  0  0
  146.6230   66.9630  217.9720 C   0  0  0  0  0  0  0  0  0  0  0  0
  145.1120   67.1220  217.9600 C   0  0  0  0  0  0  0  0  0  0  0  0
  143.8230   69.9300  219.0500 C   0  0  0  0  0  0  0  0  0  0  0  0
  142.4160   70.2520  219.5140 C   0  0  0  0  0  0  0  0  0  0  0  0
  141.0640   71.7850  221.4380 N   0  0  0  0  0  0  0  0  0  0  0  0
  140.4020   72.3930  222.4120 C   0  0  0  0  0  0  0  0  0  0  0  0
  139.8310   71.6090  223.4530 N   0  0  0  0  0  0  0  0  0  0  0  0
  138.6990   70.7740  223.1330 C   0  0  0  0  0  0  0  0  0  0  0  0
  138.1940   70.0050  224.3280 C   0  0  0  0  0  0  0  0  0  0  0  0
  139.2980   69.4030  225.1120 C   0  0  0  0  0  0  0  0  0  0  0  0
  139.2530   68.1030  225.5730 C   0  0  0  0  0  0  0  0  0  0  0  0
  140.3210   67.6430  226.2850 C   0  0  0  0  0  0  0  0  0  0  0  0
  141.4260   68.4400  226.5470 C   0  0  0  0  0  0  0  0  0  0  0  0
  141.4460   69.7350  226.0750 C   0  0  0  0  0  0  0  0  0  0  0  0
  140.3960   70.2330  225.3590 C   0  0  0  0  0  0  0  0  0  0  0  0
  140.3300   71.6120  224.8150 C   0  0  0  0  0  0  0  0  0  0  0  0
  140.3050   73.7340  222.3650 N   0  0  0  0  0  0  0  0  0  0  0  0
  140.6140   76.5880  222.5670 C   0  0  0  0  0  0  0  0  0  0  0  0
  142.2679   81.6637  222.0508 H   0  0  0  0  0  0  0  0  0  0  0  0
  141.2010   80.8959  224.1602 H   0  0  0  0  0  0  0  0  0  0  0  0
  140.4533   78.5277  224.3413 H   0  0  0  0  0  0  0  0  0  0  0  0
  142.5853   80.0897  220.1406 H   0  0  0  0  0  0  0  0  0  0  0  0
  141.8813   78.1410  219.1157 H   0  0  0  0  0  0  0  0  0  0  0  0
  142.8751   77.0463  220.1168 H   0  0  0  0  0  0  0  0  0  0  0  0
  139.8220   77.0245  219.8241 H   0  0  0  0  0  0  0  0  0  0  0  0
  140.9545   75.7850  219.2243 H   0  0  0  0  0  0  0  0  0  0  0  0
  142.3739   73.1784  217.9155 H   0  0  0  0  0  0  0  0  0  0  0  0
  143.9611   72.7100  218.5155 H   0  0  0  0  0  0  0  0  0  0  0  0
  141.9863   70.7941  217.0809 H   0  0  0  0  0  0  0  0  0  0  0  0
  143.3791   71.6238  216.2743 H   0  0  0  0  0  0  0  0  0  0  0  0
  142.8300   68.4056  217.5853 H   0  0  0  0  0  0  0  0  0  0  0  0
  143.3123   69.1948  215.9568 H   0  0  0  0  0  0  0  0  0  0  0  0
  144.3023   67.2423  216.0386 H   0  0  0  0  0  0  0  0  0  0  0  0
  145.6921   69.4990  215.6300 H   0  0  0  0  0  0  0  0  0  0  0  0
  146.4198   69.2010  217.2422 H   0  0  0  0  0  0  0  0  0  0  0  0
  146.5583   67.4002  214.7795 H   0  0  0  0  0  0  0  0  0  0  0  0
  147.9089   68.2719  215.5473 H   0  0  0  0  0  0  0  0  0  0  0  0
  148.0850   66.3010  216.6740 H   0  0  0  0  0  0  0  0  0  0  0  0
  146.8918   66.1440  218.6554 H   0  0  0  0  0  0  0  0  0  0  0  0
  147.0695   67.9110  218.3066 H   0  0  0  0  0  0  0  0  0  0  0  0
  144.6404   66.1304  217.8946 H   0  0  0  0  0  0  0  0  0  0  0  0
  144.7909   67.6232  218.8850 H   0  0  0  0  0  0  0  0  0  0  0  0
  144.0646   68.8820  219.2808 H   0  0  0  0  0  0  0  0  0  0  0  0
  144.5570   70.5704  219.5610 H   0  0  0  0  0  0  0  0  0  0  0  0
  141.6729   69.7733  218.8592 H   0  0  0  0  0  0  0  0  0  0  0  0
  142.2197   69.8832  220.5316 H   0  0  0  0  0  0  0  0  0  0  0  0
  137.8863   71.4111  222.7541 H   0  0  0  0  0  0  0  0  0  0  0  0
  139.0248   70.0434  222.3780 H   0  0  0  0  0  0  0  0  0  0  0  0
  137.6302   70.6902  224.9781 H   0  0  0  0  0  0  0  0  0  0  0  0
  137.5561   69.1881  223.9596 H   0  0  0  0  0  0  0  0  0  0  0  0
  138.3840   67.4590  225.3726 H   0  0  0  0  0  0  0  0  0  0  0  0
  140.3061   66.6100  226.6627 H   0  0  0  0  0  0  0  0  0  0  0  0
  142.2748   68.0438  227.1237 H   0  0  0  0  0  0  0  0  0  0  0  0
  142.3179   70.3743  226.2776 H   0  0  0  0  0  0  0  0  0  0  0  0
  139.6579   72.2150  225.4432 H   0  0  0  0  0  0  0  0  0  0  0  0
  141.3439   72.0387  224.8164 H   0  0  0  0  0  0  0  0  0  0  0  0
  139.5583   76.5946  222.8761 H   0  0  0  0  0  0  0  0  0  0  0  0
  141.2084   76.0915  223.3481 H   0  0  0  0  0  0  0  0  0  0  0  0
  1  2  2  0
  2  3  1  0
  3  4  2  0
  4  5  1  0
  5  6  2  0
  5  7  1  0
  7  8  1  0
  8  9  1  0
  9 10  1  0
 10 11  2  0
 11 12  1  0
 12 13  1  0
 13 14  1  0
 14 15  1  0
 15 16  1  0
 16 17  1  0
 17 18  1  0
 18 19  1  0
 19 20  1  0
 20 21  1  0
 21 22  1  0
 22 23  1  0
 16 24  1  0
 24 25  1  0
 12 26  2  0
 26 27  1  0
 27 28  1  0
 28 29  1  0
 29 30  1  0
 30 31  1  0
 31 32  2  0
 32 33  1  0
 33 34  2  0
 34 35  1  0
 35 36  2  0
 36 37  1  0
 27 38  2  0
  9 39  1  0
  6  1  1  0
 38 10  1  0
 39  4  1  0
 25 13  1  0
 37 28  1  0
 23 18  1  0
 36 31  1  0
  1 40  1  0
  2 41  1  0
  3 42  1  0
  6 43  1  0
  7 44  1  0
  7 45  1  0
  8 46  1  0
  8 47  1  0
 14 48  1  0
 14 49  1  0
 15 50  1  0
 15 51  1  0
 17 52  1  0
 17 53  1  0
 18 54  1  0
 19 55  1  0
 19 56  1  0
 20 57  1  0
 20 58  1  0
 21 59  1  0
 22 60  1  0
 22 61  1  0
 23 62  1  0
 23 63  1  0
 24 64  1  0
 24 65  1  0
 25 66  1  0
 25 67  1  0
 29 68  1  0
 29 69  1  0
 30 70  1  0
 30 71  1  0
 32 72  1  0
 33 73  1  0
 34 74  1  0
 35 75  1  0
 37 76  1  0
 37 77  1  0
 39 78  1  0
 39 79  1  0
M  END
>  <smiles>  (39) 
c1ccc2c(c1)CCN(c1nc(N3CCN(CC4CCNCC4)CC3)nc(N3CCc4ccccc4C3)n1)C2

>  <score_type>  (39) 
oracle

>  <origin>  (39) 
autodockgpu

>  <m_score__min__energy>  (39) 
-10.470000000000001

>  <m_primary>  (39) 
energy

>  <rmsd>  (39) 
11.562116866560237

>  <m_score__min__rmsd>  (39) 
11.562116866560237

>  <meeko>  (39) 
{"free_energy": -9.45, "intermolecular_energy": -10.94, "internal_energy": -1.25, "cluster_size": 7, "cluster_id": 2, "rank_in_cluster": 7}

>  <energy>  (39) 
-9.59

>  <cluster_rmsd>  (39) 
1.04

>  <cluster>  (39) 
3

$$$$

     RDKit          3D

 79 85  0  0  0  0  0  0  0  0999 V2000
  146.2280   70.0200  216.6060 C   0  0  0  0  0  0  0  0  0  0  0  0
  146.0440   69.0560  217.5780 C   0  0  0  0  0  0  0  0  0  0  0  0
  145.2950   69.3930  218.7050 C   0  0  0  0  0  0  0  0  0  0  0  0
  144.7410   70.6440  218.8750 C   0  0  0  0  0  0  0  0  0  0  0  0
  144.9550   71.5680  217.8790 C   0  0  0  0  0  0  0  0  0  0  0  0
  145.6880   71.2920  216.7380 C   0  0  0  0  0  0  0  0  0  0  0  0
  144.3950   72.9560  217.9720 C   0  0  0  0  0  0  0  0  0  0  0  0
  144.3430   73.3410  219.4350 C   0  0  0  0  0  0  0  0  0  0  0  0
  143.6100   72.3050  220.1340 N   0  0  0  0  0  0  0  0  0  0  0  0
  142.4690   72.6950  220.9020 C   0  0  0  0  0  0  0  0  0  0  0  0
  142.0150   73.9820  220.8980 N   0  0  0  0  0  0  0  0  0  0  0  0
  140.9550   74.3520  221.6070 C   0  0  0  0  0  0  0  0  0  0  0  0
  140.4690   75.6780  221.6170 N   0  0  0  0  0  0  0  0  0  0  0  0
  139.1500   76.0450  222.0960 C   0  0  0  0  0  0  0  0  0  0  0  0
  138.8310   77.3720  221.3680 C   0  0  0  0  0  0  0  0  0  0  0  0
  139.6840   78.4160  221.7990 N   0  0  0  0  0  0  0  0  0  0  0  0
  139.8050   79.4800  220.8810 C   0  0  0  0  0  0  0  0  0  0  0  0
  141.0600   79.6270  220.1050 C   0  0  0  0  0  0  0  0  0  0  0  0
  140.8660   78.9520  218.7300 C   0  0  0  0  0  0  0  0  0  0  0  0
  142.2130   78.6960  218.1130 C   0  0  0  0  0  0  0  0  0  0  0  0
  142.9510   79.9460  218.1450 N   0  0  0  0  0  0  0  0  0  0  0  0
  142.1030   81.0720  218.4070 C   0  0  0  0  0  0  0  0  0  0  0  0
  141.5260   81.0120  219.8110 C   0  0  0  0  0  0  0  0  0  0  0  0
  141.0270   77.9230  222.0850 C   0  0  0  0  0  0  0  0  0  0  0  0
  141.3020   76.7780  221.1300 C   0  0  0  0  0  0  0  0  0  0  0  0
  140.3270   73.4250  222.3410 N   0  0  0  0  0  0  0  0  0  0  0  0
  140.7150   72.1580  222.3910 C   0  0  0  0  0  0  0  0  0  0  0  0
  139.9840   71.2440  223.2000 N   0  0  0  0  0  0  0  0  0  0  0  0
  139.5020   70.0290  222.5890 C   0  0  0  0  0  0  0  0  0  0  0  0
  138.7440   69.1590  223.5590 C   0  0  0  0  0  0  0  0  0  0  0  0
  139.4310   69.0490  224.8680 C   0  0  0  0  0  0  0  0  0  0  0  0
  139.5790   67.8440  225.5250 C   0  0  0  0  0  0  0  0  0  0  0  0
  140.2290   67.8500  226.7240 C   0  0  0  0  0  0  0  0  0  0  0  0
  140.7310   69.0180  227.2810 C   0  0  0  0  0  0  0  0  0  0  0  0
  140.5680   70.2080  226.6040 C   0  0  0  0  0  0  0  0  0  0  0  0
  139.9240   70.2440  225.4010 C   0  0  0  0  0  0  0  0  0  0  0  0
  139.7020   71.4750  224.6040 C   0  0  0  0  0  0  0  0  0  0  0  0
  141.7900   71.8000  221.6650 N   0  0  0  0  0  0  0  0  0  0  0  0
  143.9620   70.9060  220.1060 C   0  0  0  0  0  0  0  0  0  0  0  0
  146.8147   69.7746  215.7085 H   0  0  0  0  0  0  0  0  0  0  0  0
  146.4762   68.0507  217.4662 H   0  0  0  0  0  0  0  0  0  0  0  0
  145.1407   68.6339  219.4860 H   0  0  0  0  0  0  0  0  0  0  0  0
  145.8379   72.0559  215.9608 H   0  0  0  0  0  0  0  0  0  0  0  0
  145.0416   73.6571  217.4240 H   0  0  0  0  0  0  0  0  0  0  0  0
  143.3881   72.9928  217.5306 H   0  0  0  0  0  0  0  0  0  0  0  0
  145.3631   73.4170  219.8395 H   0  0  0  0  0  0  0  0  0  0  0  0
  143.8494   74.3160  219.5609 H   0  0  0  0  0  0  0  0  0  0  0  0
  138.4124   75.2715  221.8360 H   0  0  0  0  0  0  0  0  0  0  0  0
  139.1156   76.1488  223.1905 H   0  0  0  0  0  0  0  0  0  0  0  0
  138.9620   77.2267  220.2855 H   0  0  0  0  0  0  0  0  0  0  0  0
  137.7937   77.6541  221.6015 H   0  0  0  0  0  0  0  0  0  0  0  0
  138.9879   79.3706  220.1528 H   0  0  0  0  0  0  0  0  0  0  0  0
  139.7839   80.3775  221.5167 H   0  0  0  0  0  0  0  0  0  0  0  0
  141.8213   79.1734  220.7567 H   0  0  0  0  0  0  0  0  0  0  0  0
  140.3331   77.9985  218.8597 H   0  0  0  0  0  0  0  0  0  0  0  0
  140.2770   79.6099  218.0741 H   0  0  0  0  0  0  0  0  0  0  0  0
  142.7501   77.9277  218.6885 H   0  0  0  0  0  0  0  0  0  0  0  0
  142.1041   78.3361  217.0793 H   0  0  0  0  0  0  0  0  0  0  0  0
  143.5510   80.0770  217.3240 H   0  0  0  0  0  0  0  0  0  0  0  0
  142.6904   81.9958  218.2999 H   0  0  0  0  0  0  0  0  0  0  0  0
  141.2707   81.0552  217.6880 H   0  0  0  0  0  0  0  0  0  0  0  0
  142.3009   81.2987  220.5371 H   0  0  0  0  0  0  0  0  0  0  0  0
  140.6753   81.7055  219.8847 H   0  0  0  0  0  0  0  0  0  0  0  0
  141.7630   78.7259  221.9313 H   0  0  0  0  0  0  0  0  0  0  0  0
  141.1027   77.5850  223.1290 H   0  0  0  0  0  0  0  0  0  0  0  0
  141.0193   77.0532  220.1032 H   0  0  0  0  0  0  0  0  0  0  0  0
  142.3683   76.5096  221.0990 H   0  0  0  0  0  0  0  0  0  0  0  0
  138.8344   70.2935  221.7557 H   0  0  0  0  0  0  0  0  0  0  0  0
  140.3761   69.4595  222.2404 H   0  0  0  0  0  0  0  0  0  0  0  0
  137.7457   69.5927  223.7183 H   0  0  0  0  0  0  0  0  0  0  0  0
  138.6779   68.1497  223.1266 H   0  0  0  0  0  0  0  0  0  0  0  0
  139.1859   66.9105  225.0960 H   0  0  0  0  0  0  0  0  0  0  0  0
  140.3592   66.9014  227.2654 H   0  0  0  0  0  0  0  0  0  0  0  0
  141.2519   68.9946  228.2496 H   0  0  0  0  0  0  0  0  0  0  0  0
  140.9614   71.1390  227.0383 H   0  0  0  0  0  0  0  0  0  0  0  0
  138.6537   71.7899  224.7132 H   0  0  0  0  0  0  0  0  0  0  0  0
  140.3804   72.2582  224.9732 H   0  0  0  0  0  0  0  0  0  0  0  0
  144.5688   70.6580  220.9893 H   0  0  0  0  0  0  0  0  0  0  0  0
  143.0524   70.2875  220.1161 H   0  0  0  0  0  0  0  0  0  0  0  0
  1  2  2  0
  2  3  1  0
  3  4  2  0
  4  5  1  0
  5  6  2  0
  5  7  1  0
  7  8  1  0
  8  9  1  0
  9 10  1  0
 10 11  2  0
 11 12  1  0
 12 13  1  0
 13 14  1  0
 14 15  1  0
 15 16  1  0
 16 17  1  0
 17 18  1  0
 18 19  1  0
 19 20  1  0
 20 21  1  0
 21 22  1  0
 22 23  1  0
 16 24  1  0
 24 25  1  0
 12 26  2  0
 26 27  1  0
 27 28  1  0
 28 29  1  0
 29 30  1  0
 30 31  1  0
 31 32  2  0
 32 33  1  0
 33 34  2  0
 34 35  1  0
 35 36  2  0
 36 37  1  0
 27 38  2  0
  9 39  1  0
  6  1  1  0
 38 10  1  0
 39  4  1  0
 25 13  1  0
 37 28  1  0
 23 18  1  0
 36 31  1  0
  1 40  1  0
  2 41  1  0
  3 42  1  0
  6 43  1  0
  7 44  1  0
  7 45  1  0
  8 46  1  0
  8 47  1  0
 14 48  1  0
 14 49  1  0
 15 50  1  0
 15 51  1  0
 17 52  1  0
 17 53  1  0
 18 54  1  0
 19 55  1  0
 19 56  1  0
 20 57  1  0
 20 58  1  0
 21 59  1  0
 22 60  1  0
 22 61  1  0
 23 62  1  0
 23 63  1  0
 24 64  1  0
 24 65  1  0
 25 66  1  0
 25 67  1  0
 29 68  1  0
 29 69  1  0
 30 70  1  0
 30 71  1  0
 32 72  1  0
 33 73  1  0
 34 74  1  0
 35 75  1  0
 37 76  1  0
 37 77  1  0
 39 78  1  0
 39 79  1  0
M  END
>  <smiles>  (40) 
c1ccc2c(c1)CCN(c1nc(N3CCN(CC4CCNCC4)CC3)nc(N3CCc4ccccc4C3)n1)C2

>  <score_type>  (40) 
oracle

>  <origin>  (40) 
autodockgpu

>  <m_score__min__energy>  (40) 
-10.470000000000001

>  <m_primary>  (40) 
energy

>  <rmsd>  (40) 
3.885876346700909

>  <m_score__min__rmsd>  (40) 
3.885876346700909

>  <meeko>  (40) 
{"free_energy": -9.56, "intermolecular_energy": -11.05, "internal_energy": -1.27, "cluster_size": 1, "cluster_id": 4, "rank_in_cluster": 1}

>  <energy>  (40) 
-9.58

>  <cluster_rmsd>  (40) 
1.9

>  <cluster>  (40) 
3

$$$$

     RDKit          3D

 79 85  0  0  0  0  0  0  0  0999 V2000
  140.0610   67.7430  227.5060 C   0  0  0  0  0  0  0  0  0  0  0  0
  139.2190   67.3400  226.4880 C   0  0  0  0  0  0  0  0  0  0  0  0
  139.1040   68.1600  225.3660 C   0  0  0  0  0  0  0  0  0  0  0  0
  139.7980   69.3450  225.2440 C   0  0  0  0  0  0  0  0  0  0  0  0
  140.6230   69.7010  226.2860 C   0  0  0  0  0  0  0  0  0  0  0  0
  140.7780   68.9290  227.4240 C   0  0  0  0  0  0  0  0  0  0  0  0
  141.4180   70.9720  226.2490 C   0  0  0  0  0  0  0  0  0  0  0  0
  140.6320   71.9920  225.4540 C   0  0  0  0  0  0  0  0  0  0  0  0
  140.3120   71.3970  224.1730 N   0  0  0  0  0  0  0  0  0  0  0  0
  140.7150   72.0960  222.9930 C   0  0  0  0  0  0  0  0  0  0  0  0
  140.2610   73.3530  222.7200 N   0  0  0  0  0  0  0  0  0  0  0  0
  140.6320   74.0090  221.6260 C   0  0  0  0  0  0  0  0  0  0  0  0
  140.1740   75.3110  221.3250 N   0  0  0  0  0  0  0  0  0  0  0  0
  138.7890   75.6230  221.0250 C   0  0  0  0  0  0  0  0  0  0  0  0
  138.8600   76.9200  220.1850 C   0  0  0  0  0  0  0  0  0  0  0  0
  139.3270   78.0110  220.9570 N   0  0  0  0  0  0  0  0  0  0  0  0
  139.8800   79.0620  220.1960 C   0  0  0  0  0  0  0  0  0  0  0  0
  140.1680   80.3590  220.8560 C   0  0  0  0  0  0  0  0  0  0  0  0
  141.6370   80.3520  221.3280 C   0  0  0  0  0  0  0  0  0  0  0  0
  141.8280   81.4290  222.3600 C   0  0  0  0  0  0  0  0  0  0  0  0
  141.3120   82.6650  221.7990 N   0  0  0  0  0  0  0  0  0  0  0  0
  141.1170   82.5800  220.3820 C   0  0  0  0  0  0  0  0  0  0  0  0
  140.0130   81.5940  220.0360 C   0  0  0  0  0  0  0  0  0  0  0  0
  140.3330   77.5880  221.9250 C   0  0  0  0  0  0  0  0  0  0  0  0
  141.1040   76.4390  221.3040 C   0  0  0  0  0  0  0  0  0  0  0  0
  141.4750   73.4050  220.7790 N   0  0  0  0  0  0  0  0  0  0  0  0
  141.9540   72.1860  220.9820 C   0  0  0  0  0  0  0  0  0  0  0  0
  142.8450   71.6250  220.0250 N   0  0  0  0  0  0  0  0  0  0  0  0
  144.0250   72.3750  219.6730 C   0  0  0  0  0  0  0  0  0  0  0  0
  144.8740   71.6660  218.6480 C   0  0  0  0  0  0  0  0  0  0  0  0
  145.0360   70.2250  218.9560 C   0  0  0  0  0  0  0  0  0  0  0  0
  146.2560   69.5850  218.8730 C   0  0  0  0  0  0  0  0  0  0  0  0
  146.2990   68.2570  219.1790 C   0  0  0  0  0  0  0  0  0  0  0  0
  145.1650   67.5550  219.5620 C   0  0  0  0  0  0  0  0  0  0  0  0
  143.9590   68.2180  219.6360 C   0  0  0  0  0  0  0  0  0  0  0  0
  143.8740   69.5480  219.3380 C   0  0  0  0  0  0  0  0  0  0  0  0
  142.6210   70.3410  219.3890 C   0  0  0  0  0  0  0  0  0  0  0  0
  141.5690   71.5360  222.0960 N   0  0  0  0  0  0  0  0  0  0  0  0
  139.6100   70.1460  224.0140 C   0  0  0  0  0  0  0  0  0  0  0  0
  140.1657   67.1111  228.4003 H   0  0  0  0  0  0  0  0  0  0  0  0
  138.6548   66.3985  226.5603 H   0  0  0  0  0  0  0  0  0  0  0  0
  138.4357   67.8503  224.5490 H   0  0  0  0  0  0  0  0  0  0  0  0
  141.4477   69.2449  228.2374 H   0  0  0  0  0  0  0  0  0  0  0  0
  141.5802   71.3408  227.2725 H   0  0  0  0  0  0  0  0  0  0  0  0
  142.3983   70.7962  225.7819 H   0  0  0  0  0  0  0  0  0  0  0  0
  139.7064   72.2518  225.9885 H   0  0  0  0  0  0  0  0  0  0  0  0
  141.2203   72.9113  225.3167 H   0  0  0  0  0  0  0  0  0  0  0  0
  138.3232   74.8106  220.4480 H   0  0  0  0  0  0  0  0  0  0  0  0
  138.1804   75.7445  221.9332 H   0  0  0  0  0  0  0  0  0  0  0  0
  139.5448   76.7613  219.3389 H   0  0  0  0  0  0  0  0  0  0  0  0
  137.8468   77.1571  219.8283 H   0  0  0  0  0  0  0  0  0  0  0  0
  140.8304   78.6938  219.7823 H   0  0  0  0  0  0  0  0  0  0  0  0
  139.0881   79.3064  219.4727 H   0  0  0  0  0  0  0  0  0  0  0  0
  139.4119   80.4171  221.6528 H   0  0  0  0  0  0  0  0  0  0  0  0
  141.8776   79.3731  221.7684 H   0  0  0  0  0  0  0  0  0  0  0  0
  142.3020   80.5375  220.4717 H   0  0  0  0  0  0  0  0  0  0  0  0
  141.2765   81.1732  223.2768 H   0  0  0  0  0  0  0  0  0  0  0  0
  142.8919   81.5345  222.6187 H   0  0  0  0  0  0  0  0  0  0  0  0
  141.8540   83.4890  222.0810 H   0  0  0  0  0  0  0  0  0  0  0  0
  140.8438   83.5737  219.9974 H   0  0  0  0  0  0  0  0  0  0  0  0
  142.0530   82.2295  219.9225 H   0  0  0  0  0  0  0  0  0  0  0  0
  139.0349   82.0517  220.2455 H   0  0  0  0  0  0  0  0  0  0  0  0
  140.0779   81.3337  218.9692 H   0  0  0  0  0  0  0  0  0  0  0  0
  141.0150   78.4219  222.1474 H   0  0  0  0  0  0  0  0  0  0  0  0
  139.8587   77.2739  222.8665 H   0  0  0  0  0  0  0  0  0  0  0  0
  141.3960   76.6814  220.2715 H   0  0  0  0  0  0  0  0  0  0  0  0
  142.0343   76.2205  221.8488 H   0  0  0  0  0  0  0  0  0  0  0  0
  143.7157   73.3479  219.2632 H   0  0  0  0  0  0  0  0  0  0  0  0
  144.6299   72.4944  220.5840 H   0  0  0  0  0  0  0  0  0  0  0  0
  144.3967   71.7662  217.6620 H   0  0  0  0  0  0  0  0  0  0  0  0
  145.8722   72.1280  218.6580 H   0  0  0  0  0  0  0  0  0  0  0  0
  147.1633   70.1281  218.5701 H   0  0  0  0  0  0  0  0  0  0  0  0
  147.2609   67.7266  219.1205 H   0  0  0  0  0  0  0  0  0  0  0  0
  145.2277   66.4836  219.8033 H   0  0  0  0  0  0  0  0  0  0  0  0
  143.0547   67.6697  219.9385 H   0  0  0  0  0  0  0  0  0  0  0  0
  142.2574   70.5057  218.3640 H   0  0  0  0  0  0  0  0  0  0  0  0
  141.8767   69.7836  219.9766 H   0  0  0  0  0  0  0  0  0  0  0  0
  138.5385   70.3387  223.8564 H   0  0  0  0  0  0  0  0  0  0  0  0
  140.0032   69.6000  223.1438 H   0  0  0  0  0  0  0  0  0  0  0  0
  1  2  2  0
  2  3  1  0
  3  4  2  0
  4  5  1  0
  5  6  2  0
  5  7  1  0
  7  8  1  0
  8  9  1  0
  9 10  1  0
 10 11  2  0
 11 12  1  0
 12 13  1  0
 13 14  1  0
 14 15  1  0
 15 16  1  0
 16 17  1  0
 17 18  1  0
 18 19  1  0
 19 20  1  0
 20 21  1  0
 21 22  1  0
 22 23  1  0
 16 24  1  0
 24 25  1  0
 12 26  2  0
 26 27  1  0
 27 28  1  0
 28 29  1  0
 29 30  1  0
 30 31  1  0
 31 32  2  0
 32 33  1  0
 33 34  2  0
 34 35  1  0
 35 36  2  0
 36 37  1  0
 27 38  2  0
  9 39  1  0
  6  1  1  0
 38 10  1  0
 39  4  1  0
 25 13  1  0
 37 28  1  0
 23 18  1  0
 36 31  1  0
  1 40  1  0
  2 41  1  0
  3 42  1  0
  6 43  1  0
  7 44  1  0
  7 45  1  0
  8 46  1  0
  8 47  1  0
 14 48  1  0
 14 49  1  0
 15 50  1  0
 15 51  1  0
 17 52  1  0
 17 53  1  0
 18 54  1  0
 19 55  1  0
 19 56  1  0
 20 57  1  0
 20 58  1  0
 21 59  1  0
 22 60  1  0
 22 61  1  0
 23 62  1  0
 23 63  1  0
 24 64  1  0
 24 65  1  0
 25 66  1  0
 25 67  1  0
 29 68  1  0
 29 69  1  0
 30 70  1  0
 30 71  1  0
 32 72  1  0
 33 73  1  0
 34 74  1  0
 35 75  1  0
 37 76  1  0
 37 77  1  0
 39 78  1  0
 39 79  1  0
M  END
>  <smiles>  (41) 
c1ccc2c(c1)CCN(c1nc(N3CCN(CC4CCNCC4)CC3)nc(N3CCc4ccccc4C3)n1)C2

>  <score_type>  (41) 
oracle

>  <origin>  (41) 
autodockgpu

>  <m_score__min__energy>  (41) 
-10.470000000000001

>  <m_primary>  (41) 
energy

>  <rmsd>  (41) 
3.3018866237665025

>  <m_score__min__rmsd>  (41) 
3.3018866237665025

>  <meeko>  (41) 
{"free_energy": -9.17, "intermolecular_energy": -10.66, "internal_energy": -1.14, "cluster_size": 32, "cluster_id": 3, "rank_in_cluster": 32}

>  <energy>  (41) 
-9.57

>  <cluster_rmsd>  (41) 
1.84

>  <cluster>  (41) 
3

$$$$

     RDKit          3D

 79 85  0  0  0  0  0  0  0  0999 V2000
  146.3280   70.3430  216.8350 C   0  0  0  0  0  0  0  0  0  0  0  0
  146.2330   69.5100  217.9330 C   0  0  0  0  0  0  0  0  0  0  0  0
  145.4860   69.9470  219.0270 C   0  0  0  0  0  0  0  0  0  0  0  0
  144.8490   71.1700  219.0440 C   0  0  0  0  0  0  0  0  0  0  0  0
  144.9760   71.9610  217.9260 C   0  0  0  0  0  0  0  0  0  0  0  0
  145.7030   71.5820  216.8110 C   0  0  0  0  0  0  0  0  0  0  0  0
  144.3220   73.3080  217.8500 C   0  0  0  0  0  0  0  0  0  0  0  0
  144.2730   73.8850  219.2490 C   0  0  0  0  0  0  0  0  0  0  0  0
  143.6310   72.9070  220.1030 N   0  0  0  0  0  0  0  0  0  0  0  0
  142.4820   73.3210  220.8450 C   0  0  0  0  0  0  0  0  0  0  0  0
  141.7080   72.4220  221.5200 N   0  0  0  0  0  0  0  0  0  0  0  0
  140.6400   72.8000  222.2120 C   0  0  0  0  0  0  0  0  0  0  0  0
  139.8260   71.8850  222.9170 N   0  0  0  0  0  0  0  0  0  0  0  0
  138.4160   71.6880  222.6380 C   0  0  0  0  0  0  0  0  0  0  0  0
  137.8340   71.1390  223.9620 C   0  0  0  0  0  0  0  0  0  0  0  0
  138.3390   69.8480  224.2530 N   0  0  0  0  0  0  0  0  0  0  0  0
  138.2670   69.4930  225.6160 C   0  0  0  0  0  0  0  0  0  0  0  0
  139.5230   69.2630  226.3710 C   0  0  0  0  0  0  0  0  0  0  0  0
  139.6290   70.3310  227.4790 C   0  0  0  0  0  0  0  0  0  0  0  0
  141.0530   70.4040  227.9580 C   0  0  0  0  0  0  0  0  0  0  0  0
  141.4700   69.0530  228.2890 N   0  0  0  0  0  0  0  0  0  0  0  0
  140.3600   68.1540  228.4020 C   0  0  0  0  0  0  0  0  0  0  0  0
  139.6770   67.9500  227.0600 C   0  0  0  0  0  0  0  0  0  0  0  0
  139.7290   69.7120  223.8320 C   0  0  0  0  0  0  0  0  0  0  0  0
  140.3860   71.0690  223.9940 C   0  0  0  0  0  0  0  0  0  0  0  0
  140.3280   74.1020  222.2390 N   0  0  0  0  0  0  0  0  0  0  0  0
  141.0350   75.0280  221.6060 C   0  0  0  0  0  0  0  0  0  0  0  0
  140.6250   76.3870  221.6910 N   0  0  0  0  0  0  0  0  0  0  0  0
  139.3800   76.6830  222.3560 C   0  0  0  0  0  0  0  0  0  0  0  0
  139.0690   78.1580  222.3680 C   0  0  0  0  0  0  0  0  0  0  0  0
  140.2530   78.9760  222.7230 C   0  0  0  0  0  0  0  0  0  0  0  0
  140.1860   80.0210  223.6220 C   0  0  0  0  0  0  0  0  0  0  0  0
  141.3330   80.7110  223.8810 C   0  0  0  0  0  0  0  0  0  0  0  0
  142.5380   80.3880  223.2710 C   0  0  0  0  0  0  0  0  0  0  0  0
  142.5760   79.3400  222.3760 C   0  0  0  0  0  0  0  0  0  0  0  0
  141.4490   78.6250  222.0900 C   0  0  0  0  0  0  0  0  0  0  0  0
  141.3970   77.4850  221.1420 C   0  0  0  0  0  0  0  0  0  0  0  0
  142.1150   74.6280  220.9100 N   0  0  0  0  0  0  0  0  0  0  0  0
  144.0800   71.5440  220.2520 C   0  0  0  0  0  0  0  0  0  0  0  0
  146.9114   70.0174  215.9612 H   0  0  0  0  0  0  0  0  0  0  0  0
  146.7323   68.5299  217.9443 H   0  0  0  0  0  0  0  0  0  0  0  0
  145.4020   69.2929  219.9074 H   0  0  0  0  0  0  0  0  0  0  0  0
  145.7829   72.2414  215.9342 H   0  0  0  0  0  0  0  0  0  0  0  0
  144.9061   73.9699  217.1937 H   0  0  0  0  0  0  0  0  0  0  0  0
  143.3058   73.2163  217.4391 H   0  0  0  0  0  0  0  0  0  0  0  0
  145.2932   74.0849  219.6084 H   0  0  0  0  0  0  0  0  0  0  0  0
  143.7136   74.8321  219.2572 H   0  0  0  0  0  0  0  0  0  0  0  0
  137.9362   72.6401  222.3672 H   0  0  0  0  0  0  0  0  0  0  0  0
  138.2477   71.0058  221.7916 H   0  0  0  0  0  0  0  0  0  0  0  0
  138.1032   71.8216  224.7815 H   0  0  0  0  0  0  0  0  0  0  0  0
  136.7414   71.0674  223.8563 H   0  0  0  0  0  0  0  0  0  0  0  0
  137.7261   70.3009  226.1304 H   0  0  0  0  0  0  0  0  0  0  0  0
  137.7842   68.5047  225.6039 H   0  0  0  0  0  0  0  0  0  0  0  0
  140.3022   69.3015  225.5955 H   0  0  0  0  0  0  0  0  0  0  0  0
  139.3247   71.3091  227.0781 H   0  0  0  0  0  0  0  0  0  0  0  0
  138.9695   70.0619  228.3172 H   0  0  0  0  0  0  0  0  0  0  0  0
  141.6961   70.8121  227.1644 H   0  0  0  0  0  0  0  0  0  0  0  0
  141.1340   71.0614  228.8362 H   0  0  0  0  0  0  0  0  0  0  0  0
  142.1010   69.0170  229.0980 H   0  0  0  0  0  0  0  0  0  0  0  0
  140.7213   67.1830  228.7716 H   0  0  0  0  0  0  0  0  0  0  0  0
  139.6303   68.5889  229.1008 H   0  0  0  0  0  0  0  0  0  0  0  0
  140.2872   67.2794  226.4372 H   0  0  0  0  0  0  0  0  0  0  0  0
  138.6845   67.5034  227.2200 H   0  0  0  0  0  0  0  0  0  0  0  0
  140.2413   68.9687  224.4605 H   0  0  0  0  0  0  0  0  0  0  0  0
  139.7873   69.3743  222.7868 H   0  0  0  0  0  0  0  0  0  0  0  0
  140.1432   71.5026  224.9753 H   0  0  0  0  0  0  0  0  0  0  0  0
  141.4831   71.0085  223.9422 H   0  0  0  0  0  0  0  0  0  0  0  0
  138.5675   76.1553  221.8350 H   0  0  0  0  0  0  0  0  0  0  0  0
  139.4721   76.3521  223.4010 H   0  0  0  0  0  0  0  0  0  0  0  0
  138.7201   78.4548  221.3679 H   0  0  0  0  0  0  0  0  0  0  0  0
  138.2955   78.3343  223.1299 H   0  0  0  0  0  0  0  0  0  0  0  0
  139.2387   80.2883  224.1132 H   0  0  0  0  0  0  0  0  0  0  0  0
  141.3030   81.5481  224.5940 H   0  0  0  0  0  0  0  0  0  0  0  0
  143.4494   80.9603  223.4987 H   0  0  0  0  0  0  0  0  0  0  0  0
  143.5255   79.0770  221.8868 H   0  0  0  0  0  0  0  0  0  0  0  0
  140.9305   77.8187  220.2034 H   0  0  0  0  0  0  0  0  0  0  0  0
  142.4235   77.1345  220.9590 H   0  0  0  0  0  0  0  0  0  0  0  0
  144.7215   71.4595  221.1416 H   0  0  0  0  0  0  0  0  0  0  0  0
  143.2167   70.8731  220.3728 H   0  0  0  0  0  0  0  0  0  0  0  0
  1  2  2  0
  2  3  1  0
  3  4  2  0
  4  5  1  0
  5  6  2  0
  5  7  1  0
  7  8  1  0
  8  9  1  0
  9 10  1  0
 10 11  2  0
 11 12  1  0
 12 13  1  0
 13 14  1  0
 14 15  1  0
 15 16  1  0
 16 17  1  0
 17 18  1  0
 18 19  1  0
 19 20  1  0
 20 21  1  0
 21 22  1  0
 22 23  1  0
 16 24  1  0
 24 25  1  0
 12 26  2  0
 26 27  1  0
 27 28  1  0
 28 29  1  0
 29 30  1  0
 30 31  1  0
 31 32  2  0
 32 33  1  0
 33 34  2  0
 34 35  1  0
 35 36  2  0
 36 37  1  0
 27 38  2  0
  9 39  1  0
  6  1  1  0
 38 10  1  0
 39  4  1  0
 25 13  1  0
 37 28  1  0
 23 18  1  0
 36 31  1  0
  1 40  1  0
  2 41  1  0
  3 42  1  0
  6 43  1  0
  7 44  1  0
  7 45  1  0
  8 46  1  0
  8 47  1  0
 14 48  1  0
 14 49  1  0
 15 50  1  0
 15 51  1  0
 17 52  1  0
 17 53  1  0
 18 54  1  0
 19 55  1  0
 19 56  1  0
 20 57  1  0
 20 58  1  0
 21 59  1  0
 22 60  1  0
 22 61  1  0
 23 62  1  0
 23 63  1  0
 24 64  1  0
 24 65  1  0
 25 66  1  0
 25 67  1  0
 29 68  1  0
 29 69  1  0
 30 70  1  0
 30 71  1  0
 32 72  1  0
 33 73  1  0
 34 74  1  0
 35 75  1  0
 37 76  1  0
 37 77  1  0
 39 78  1  0
 39 79  1  0
M  END
>  <smiles>  (42) 
c1ccc2c(c1)CCN(c1nc(N3CCN(CC4CCNCC4)CC3)nc(N3CCc4ccccc4C3)n1)C2

>  <score_type>  (42) 
oracle

>  <origin>  (42) 
autodockgpu

>  <m_score__min__energy>  (42) 
-10.470000000000001

>  <m_primary>  (42) 
energy

>  <rmsd>  (42) 
10.717407628788042

>  <m_score__min__rmsd>  (42) 
10.717407628788042

>  <meeko>  (42) 
{"free_energy": -10.19, "intermolecular_energy": -11.68, "internal_energy": -1.27, "cluster_size": 9, "cluster_id": 1, "rank_in_cluster": 4}

>  <energy>  (42) 
-9.55

>  <cluster_rmsd>  (42) 
1.27

>  <cluster>  (42) 
3

$$$$

     RDKit          3D

 79 85  0  0  0  0  0  0  0  0999 V2000
  146.3240   69.8710  216.8450 C   0  0  0  0  0  0  0  0  0  0  0  0
  145.9780   68.8540  217.7150 C   0  0  0  0  0  0  0  0  0  0  0  0
  145.1620   69.1670  218.8010 C   0  0  0  0  0  0  0  0  0  0  0  0
  144.6970   70.4450  219.0300 C   0  0  0  0  0  0  0  0  0  0  0  0
  145.0710   71.4210  218.1360 C   0  0  0  0  0  0  0  0  0  0  0  0
  145.8780   71.1710  217.0390 C   0  0  0  0  0  0  0  0  0  0  0  0
  144.6190   72.8410  218.3000 C   0  0  0  0  0  0  0  0  0  0  0  0
  144.4670   73.1150  219.7810 C   0  0  0  0  0  0  0  0  0  0  0  0
  143.5960   72.0960  220.3280 N   0  0  0  0  0  0  0  0  0  0  0  0
  142.4260   72.5240  221.0300 C   0  0  0  0  0  0  0  0  0  0  0  0
  141.9080   73.7740  220.8550 N   0  0  0  0  0  0  0  0  0  0  0  0
  140.8210   74.1780  221.5020 C   0  0  0  0  0  0  0  0  0  0  0  0
  140.2700   75.4670  221.3350 N   0  0  0  0  0  0  0  0  0  0  0  0
  140.1270   76.1160  220.0450 C   0  0  0  0  0  0  0  0  0  0  0  0
  140.0990   77.6280  220.3750 C   0  0  0  0  0  0  0  0  0  0  0  0
  138.9320   77.9780  221.0970 N   0  0  0  0  0  0  0  0  0  0  0  0
  139.0510   79.1680  221.8450 C   0  0  0  0  0  0  0  0  0  0  0  0
  140.3450   79.4890  222.4930 C   0  0  0  0  0  0  0  0  0  0  0  0
  141.1340   80.4380  221.5670 C   0  0  0  0  0  0  0  0  0  0  0  0
  142.5830   80.4260  221.9680 C   0  0  0  0  0  0  0  0  0  0  0  0
  142.6420   80.6850  223.3950 N   0  0  0  0  0  0  0  0  0  0  0  0
  141.4060   81.2040  223.9050 C   0  0  0  0  0  0  0  0  0  0  0  0
  140.2970   80.1680  223.8200 C   0  0  0  0  0  0  0  0  0  0  0  0
  138.5340   76.9150  222.0150 C   0  0  0  0  0  0  0  0  0  0  0  0
  139.8000   76.2300  222.4910 C   0  0  0  0  0  0  0  0  0  0  0  0
  140.2310   73.3230  222.3460 N   0  0  0  0  0  0  0  0  0  0  0  0
  140.6800   72.0950  222.5640 C   0  0  0  0  0  0  0  0  0  0  0  0
  139.9860   71.2580  223.4810 N   0  0  0  0  0  0  0  0  0  0  0  0
  139.2910   70.1070  222.9590 C   0  0  0  0  0  0  0  0  0  0  0  0
  138.5970   69.3140  224.0380 C   0  0  0  0  0  0  0  0  0  0  0  0
  139.4570   69.1210  225.2300 C   0  0  0  0  0  0  0  0  0  0  0  0
  139.5720   67.9030  225.8670 C   0  0  0  0  0  0  0  0  0  0  0  0
  140.3900   67.8290  226.9550 C   0  0  0  0  0  0  0  0  0  0  0  0
  141.0920   68.9320  227.4220 C   0  0  0  0  0  0  0  0  0  0  0  0
  140.9580   70.1380  226.7670 C   0  0  0  0  0  0  0  0  0  0  0  0
  140.1490   70.2520  225.6730 C   0  0  0  0  0  0  0  0  0  0  0  0
  139.9430   71.5070  224.9090 C   0  0  0  0  0  0  0  0  0  0  0  0
  141.7820   71.7010  221.8990 N   0  0  0  0  0  0  0  0  0  0  0  0
  143.8360   70.6780  220.2110 C   0  0  0  0  0  0  0  0  0  0  0  0
  146.9662   69.6453  215.9809 H   0  0  0  0  0  0  0  0  0  0  0  0
  146.3365   67.8265  217.5548 H   0  0  0  0  0  0  0  0  0  0  0  0
  144.8790   68.3663  219.5001 H   0  0  0  0  0  0  0  0  0  0  0  0
  146.1567   71.9766  216.3437 H   0  0  0  0  0  0  0  0  0  0  0  0
  145.3667   73.5230  217.8689 H   0  0  0  0  0  0  0  0  0  0  0  0
  143.6619   72.9999  217.7816 H   0  0  0  0  0  0  0  0  0  0  0  0
  145.4498   73.0719  220.2732 H   0  0  0  0  0  0  0  0  0  0  0  0
  144.0420   74.1159  219.9469 H   0  0  0  0  0  0  0  0  0  0  0  0
  140.9791   75.8759  219.3920 H   0  0  0  0  0  0  0  0  0  0  0  0
  139.2247   75.7874  219.5084 H   0  0  0  0  0  0  0  0  0  0  0  0
  140.9828   77.8786  220.9801 H   0  0  0  0  0  0  0  0  0  0  0  0
  140.1018   78.1889  219.4287 H   0  0  0  0  0  0  0  0  0  0  0  0
  138.8174   80.0000  221.1644 H   0  0  0  0  0  0  0  0  0  0  0  0
  138.3657   79.0142  222.6916 H   0  0  0  0  0  0  0  0  0  0  0  0
  140.8001   78.5022  222.6635 H   0  0  0  0  0  0  0  0  0  0  0  0
  141.0376   80.0997  220.5247 H   0  0  0  0  0  0  0  0  0  0  0  0
  140.7339   81.4588  221.6555 H   0  0  0  0  0  0  0  0  0  0  0  0
  143.0263   79.4441  221.7457 H   0  0  0  0  0  0  0  0  0  0  0  0
  143.1457   81.1900  221.4116 H   0  0  0  0  0  0  0  0  0  0  0  0
  143.4560   81.2470  223.6670 H   0  0  0  0  0  0  0  0  0  0  0  0
  141.5457   81.4943  224.9568 H   0  0  0  0  0  0  0  0  0  0  0  0
  141.1168   82.0740  223.2971 H   0  0  0  0  0  0  0  0  0  0  0  0
  140.4311   79.4223  224.6175 H   0  0  0  0  0  0  0  0  0  0  0  0
  139.3233   80.6655  223.9400 H   0  0  0  0  0  0  0  0  0  0  0  0
  137.9922   77.3416  222.8720 H   0  0  0  0  0  0  0  0  0  0  0  0
  137.8689   76.1969  221.5130 H   0  0  0  0  0  0  0  0  0  0  0  0
  140.5514   76.9732  222.7961 H   0  0  0  0  0  0  0  0  0  0  0  0
  139.6207   75.5886  223.3665 H   0  0  0  0  0  0  0  0  0  0  0  0
  138.5387   70.4484  222.2327 H   0  0  0  0  0  0  0  0  0  0  0  0
  140.0376   69.4502  222.4888 H   0  0  0  0  0  0  0  0  0  0  0  0
  137.6857   69.8501  224.3414 H   0  0  0  0  0  0  0  0  0  0  0  0
  138.3589   68.3213  223.6282 H   0  0  0  0  0  0  0  0  0  0  0  0
  139.0218   67.0204  225.5089 H   0  0  0  0  0  0  0  0  0  0  0  0
  140.4970   66.8673  227.4782 H   0  0  0  0  0  0  0  0  0  0  0  0
  141.7460   68.8451  228.3022 H   0  0  0  0  0  0  0  0  0  0  0  0
  141.5090   71.0181  227.1299 H   0  0  0  0  0  0  0  0  0  0  0  0
  138.9624   71.9310  225.1710 H   0  0  0  0  0  0  0  0  0  0  0  0
  140.7480   72.2109  225.1668 H   0  0  0  0  0  0  0  0  0  0  0  0
  144.3407   70.3108  221.1168 H   0  0  0  0  0  0  0  0  0  0  0  0
  142.8825   70.1420  220.0948 H   0  0  0  0  0  0  0  0  0  0  0  0
  1  2  2  0
  2  3  1  0
  3  4  2  0
  4  5  1  0
  5  6  2  0
  5  7  1  0
  7  8  1  0
  8  9  1  0
  9 10  1  0
 10 11  2  0
 11 12  1  0
 12 13  1  0
 13 14  1  0
 14 15  1  0
 15 16  1  0
 16 17  1  0
 17 18  1  0
 18 19  1  0
 19 20  1  0
 20 21  1  0
 21 22  1  0
 22 23  1  0
 16 24  1  0
 24 25  1  0
 12 26  2  0
 26 27  1  0
 27 28  1  0
 28 29  1  0
 29 30  1  0
 30 31  1  0
 31 32  2  0
 32 33  1  0
 33 34  2  0
 34 35  1  0
 35 36  2  0
 36 37  1  0
 27 38  2  0
  9 39  1  0
  6  1  1  0
 38 10  1  0
 39  4  1  0
 25 13  1  0
 37 28  1  0
 23 18  1  0
 36 31  1  0
  1 40  1  0
  2 41  1  0
  3 42  1  0
  6 43  1  0
  7 44  1  0
  7 45  1  0
  8 46  1  0
  8 47  1  0
 14 48  1  0
 14 49  1  0
 15 50  1  0
 15 51  1  0
 17 52  1  0
 17 53  1  0
 18 54  1  0
 19 55  1  0
 19 56  1  0
 20 57  1  0
 20 58  1  0
 21 59  1  0
 22 60  1  0
 22 61  1  0
 23 62  1  0
 23 63  1  0
 24 64  1  0
 24 65  1  0
 25 66  1  0
 25 67  1  0
 29 68  1  0
 29 69  1  0
 30 70  1  0
 30 71  1  0
 32 72  1  0
 33 73  1  0
 34 74  1  0
 35 75  1  0
 37 76  1  0
 37 77  1  0
 39 78  1  0
 39 79  1  0
M  END
>  <smiles>  (43) 
c1ccc2c(c1)CCN(c1nc(N3CCN(CC4CCNCC4)CC3)nc(N3CCc4ccccc4C3)n1)C2

>  <score_type>  (43) 
oracle

>  <origin>  (43) 
autodockgpu

>  <m_score__min__energy>  (43) 
-10.470000000000001

>  <m_primary>  (43) 
energy

>  <rmsd>  (43) 
3.4369768498414155

>  <m_score__min__rmsd>  (43) 
3.4369768498414155

>  <meeko>  (43) 
{"free_energy": -9.48, "intermolecular_energy": -10.97, "internal_energy": -1.28, "cluster_size": 32, "cluster_id": 3, "rank_in_cluster": 28}

>  <energy>  (43) 
-9.51

>  <cluster_rmsd>  (43) 
1.96

>  <cluster>  (43) 
3

$$$$

     RDKit          3D

 79 85  0  0  0  0  0  0  0  0999 V2000
  140.0590   67.7510  227.5080 C   0  0  0  0  0  0  0  0  0  0  0  0
  139.2040   67.3520  226.4980 C   0  0  0  0  0  0  0  0  0  0  0  0
  139.0920   68.1650  225.3720 C   0  0  0  0  0  0  0  0  0  0  0  0
  139.8000   69.3410  225.2370 C   0  0  0  0  0  0  0  0  0  0  0  0
  140.6360   69.6930  226.2710 C   0  0  0  0  0  0  0  0  0  0  0  0
  140.7900   68.9270  227.4130 C   0  0  0  0  0  0  0  0  0  0  0  0
  141.4470   70.9540  226.2200 C   0  0  0  0  0  0  0  0  0  0  0  0
  140.6670   71.9790  225.4230 C   0  0  0  0  0  0  0  0  0  0  0  0
  140.3310   71.3790  224.1480 N   0  0  0  0  0  0  0  0  0  0  0  0
  140.7340   72.0650  222.9610 C   0  0  0  0  0  0  0  0  0  0  0  0
  140.3170   73.3370  222.6960 N   0  0  0  0  0  0  0  0  0  0  0  0
  140.6880   73.9810  221.5960 C   0  0  0  0  0  0  0  0  0  0  0  0
  140.2660   75.2970  221.3040 N   0  0  0  0  0  0  0  0  0  0  0  0
  139.2050   75.6080  220.3650 C   0  0  0  0  0  0  0  0  0  0  0  0
  139.5090   77.0540  219.9050 C   0  0  0  0  0  0  0  0  0  0  0  0
  139.3490   77.9780  220.9650 N   0  0  0  0  0  0  0  0  0  0  0  0
  140.0550   79.1870  220.7910 C   0  0  0  0  0  0  0  0  0  0  0  0
  140.5860   79.8930  221.9810 C   0  0  0  0  0  0  0  0  0  0  0  0
  142.1000   79.6100  222.0830 C   0  0  0  0  0  0  0  0  0  0  0  0
  142.5680   79.9280  223.4770 C   0  0  0  0  0  0  0  0  0  0  0  0
  142.1160   81.2720  223.7910 N   0  0  0  0  0  0  0  0  0  0  0  0
  141.6980   81.9920  222.6240 C   0  0  0  0  0  0  0  0  0  0  0  0
  140.4500   81.3770  222.0150 C   0  0  0  0  0  0  0  0  0  0  0  0
  139.7630   77.4030  222.2410 C   0  0  0  0  0  0  0  0  0  0  0  0
  140.9000   76.4420  221.9570 C   0  0  0  0  0  0  0  0  0  0  0  0
  141.4950   73.3500  220.7330 N   0  0  0  0  0  0  0  0  0  0  0  0
  141.9380   72.1160  220.9270 C   0  0  0  0  0  0  0  0  0  0  0  0
  142.7910   71.5270  219.9540 N   0  0  0  0  0  0  0  0  0  0  0  0
  143.9320   72.2850  219.5020 C   0  0  0  0  0  0  0  0  0  0  0  0
  144.7440   71.5430  218.4690 C   0  0  0  0  0  0  0  0  0  0  0  0
  144.9590   70.1250  218.8410 C   0  0  0  0  0  0  0  0  0  0  0  0
  146.1890   69.5090  218.7250 C   0  0  0  0  0  0  0  0  0  0  0  0
  146.2820   68.2000  219.0950 C   0  0  0  0  0  0  0  0  0  0  0  0
  145.1880   67.4930  219.5730 C   0  0  0  0  0  0  0  0  0  0  0  0
  143.9700   68.1310  219.6780 C   0  0  0  0  0  0  0  0  0  0  0  0
  143.8360   69.4420  219.3180 C   0  0  0  0  0  0  0  0  0  0  0  0
  142.5680   70.2070  219.3950 C   0  0  0  0  0  0  0  0  0  0  0  0
  141.5520   71.4780  222.0480 N   0  0  0  0  0  0  0  0  0  0  0  0
  139.6120   70.1360  224.0030 C   0  0  0  0  0  0  0  0  0  0  0  0
  140.1623   67.1236  228.4056 H   0  0  0  0  0  0  0  0  0  0  0  0
  138.6280   66.4186  226.5808 H   0  0  0  0  0  0  0  0  0  0  0  0
  138.4146   67.8579  224.5616 H   0  0  0  0  0  0  0  0  0  0  0  0
  141.4696   69.2399  228.2193 H   0  0  0  0  0  0  0  0  0  0  0  0
  141.6211   71.3276  227.2399 H   0  0  0  0  0  0  0  0  0  0  0  0
  142.4218   70.7631  225.7475 H   0  0  0  0  0  0  0  0  0  0  0  0
  139.7483   72.2534  225.9622 H   0  0  0  0  0  0  0  0  0  0  0  0
  141.2651   72.8903  225.2755 H   0  0  0  0  0  0  0  0  0  0  0  0
  139.2260   74.9153  219.5107 H   0  0  0  0  0  0  0  0  0  0  0  0
  138.2058   75.5127  220.8151 H   0  0  0  0  0  0  0  0  0  0  0  0
  140.5459   77.1031  219.5410 H   0  0  0  0  0  0  0  0  0  0  0  0
  138.8014   77.3187  219.1055 H   0  0  0  0  0  0  0  0  0  0  0  0
  140.9130   78.9669  220.1387 H   0  0  0  0  0  0  0  0  0  0  0  0
  139.2963   79.8777  220.3945 H   0  0  0  0  0  0  0  0  0  0  0  0
  139.9716   79.5046  222.8067 H   0  0  0  0  0  0  0  0  0  0  0  0
  142.2920   78.5495  221.8630 H   0  0  0  0  0  0  0  0  0  0  0  0
  142.6431   80.2346  221.3585 H   0  0  0  0  0  0  0  0  0  0  0  0
  142.1377   79.2102  224.1909 H   0  0  0  0  0  0  0  0  0  0  0  0
  143.6640   79.8614  223.5434 H   0  0  0  0  0  0  0  0  0  0  0  0
  142.7850   81.7940  224.3670 H   0  0  0  0  0  0  0  0  0  0  0  0
  141.4844   83.0343  222.9032 H   0  0  0  0  0  0  0  0  0  0  0  0
  142.5065   81.9469  221.8795 H   0  0  0  0  0  0  0  0  0  0  0  0
  139.5743   81.6500  222.6221 H   0  0  0  0  0  0  0  0  0  0  0  0
  140.3212   81.7544  220.9898 H   0  0  0  0  0  0  0  0  0  0  0  0
  140.1040   78.1991  222.9192 H   0  0  0  0  0  0  0  0  0  0  0  0
  138.9233   76.8801  222.7222 H   0  0  0  0  0  0  0  0  0  0  0  0
  141.6425   76.9059  221.2910 H   0  0  0  0  0  0  0  0  0  0  0  0
  141.4383   76.1531  222.8718 H   0  0  0  0  0  0  0  0  0  0  0  0
  143.5771   73.2283  219.0613 H   0  0  0  0  0  0  0  0  0  0  0  0
  144.5806   72.4650  220.3720 H   0  0  0  0  0  0  0  0  0  0  0  0
  144.2126   71.5804  217.5066 H   0  0  0  0  0  0  0  0  0  0  0  0
  145.7290   72.0279  218.4007 H   0  0  0  0  0  0  0  0  0  0  0  0
  147.0650   70.0561  218.3466 H   0  0  0  0  0  0  0  0  0  0  0  0
  147.2528   67.6895  219.0121 H   0  0  0  0  0  0  0  0  0  0  0  0
  145.2909   66.4373  219.8644 H   0  0  0  0  0  0  0  0  0  0  0  0
  143.0970   67.5784  220.0556 H   0  0  0  0  0  0  0  0  0  0  0  0
  142.1484   70.3108  218.3835 H   0  0  0  0  0  0  0  0  0  0  0  0
  141.8694   69.6631  220.0478 H   0  0  0  0  0  0  0  0  0  0  0  0
  138.5418   70.3412  223.8527 H   0  0  0  0  0  0  0  0  0  0  0  0
  139.9911   69.5793  223.1333 H   0  0  0  0  0  0  0  0  0  0  0  0
  1  2  2  0
  2  3  1  0
  3  4  2  0
  4  5  1  0
  5  6  2  0
  5  7  1  0
  7  8  1  0
  8  9  1  0
  9 10  1  0
 10 11  2  0
 11 12  1  0
 12 13  1  0
 13 14  1  0
 14 15  1  0
 15 16  1  0
 16 17  1  0
 17 18  1  0
 18 19  1  0
 19 20  1  0
 20 21  1  0
 21 22  1  0
 22 23  1  0
 16 24  1  0
 24 25  1  0
 12 26  2  0
 26 27  1  0
 27 28  1  0
 28 29  1  0
 29 30  1  0
 30 31  1  0
 31 32  2  0
 32 33  1  0
 33 34  2  0
 34 35  1  0
 35 36  2  0
 36 37  1  0
 27 38  2  0
  9 39  1  0
  6  1  1  0
 38 10  1  0
 39  4  1  0
 25 13  1  0
 37 28  1  0
 23 18  1  0
 36 31  1  0
  1 40  1  0
  2 41  1  0
  3 42  1  0
  6 43  1  0
  7 44  1  0
  7 45  1  0
  8 46  1  0
  8 47  1  0
 14 48  1  0
 14 49  1  0
 15 50  1  0
 15 51  1  0
 17 52  1  0
 17 53  1  0
 18 54  1  0
 19 55  1  0
 19 56  1  0
 20 57  1  0
 20 58  1  0
 21 59  1  0
 22 60  1  0
 22 61  1  0
 23 62  1  0
 23 63  1  0
 24 64  1  0
 24 65  1  0
 25 66  1  0
 25 67  1  0
 29 68  1  0
 29 69  1  0
 30 70  1  0
 30 71  1  0
 32 72  1  0
 33 73  1  0
 34 74  1  0
 35 75  1  0
 37 76  1  0
 37 77  1  0
 39 78  1  0
 39 79  1  0
M  END
>  <smiles>  (44) 
c1ccc2c(c1)CCN(c1nc(N3CCN(CC4CCNCC4)CC3)nc(N3CCc4ccccc4C3)n1)C2

>  <score_type>  (44) 
oracle

>  <origin>  (44) 
autodockgpu

>  <m_score__min__energy>  (44) 
-10.470000000000001

>  <m_primary>  (44) 
energy

>  <rmsd>  (44) 
3.6400120136462335

>  <m_score__min__rmsd>  (44) 
3.6400120136462335

>  <meeko>  (44) 
{"free_energy": -9.88, "intermolecular_energy": -11.37, "internal_energy": -1.24, "cluster_size": 32, "cluster_id": 3, "rank_in_cluster": 7}

>  <energy>  (44) 
-9.48

>  <cluster_rmsd>  (44) 
0.97

>  <cluster>  (44) 
3

$$$$

     RDKit          3D

 79 85  0  0  0  0  0  0  0  0999 V2000
  146.1490   69.8940  217.0270 C   0  0  0  0  0  0  0  0  0  0  0  0
  145.8780   68.9380  217.9870 C   0  0  0  0  0  0  0  0  0  0  0  0
  145.0820   69.3020  219.0710 C   0  0  0  0  0  0  0  0  0  0  0  0
  144.5630   70.5720  219.2130 C   0  0  0  0  0  0  0  0  0  0  0  0
  144.8630   71.4870  218.2300 C   0  0  0  0  0  0  0  0  0  0  0  0
  145.6480   71.1840  217.1300 C   0  0  0  0  0  0  0  0  0  0  0  0
  144.3480   72.8930  218.2940 C   0  0  0  0  0  0  0  0  0  0  0  0
  144.2290   73.2810  219.7520 C   0  0  0  0  0  0  0  0  0  0  0  0
  143.4240   72.2720  220.4100 N   0  0  0  0  0  0  0  0  0  0  0  0
  142.2570   72.7040  221.1140 C   0  0  0  0  0  0  0  0  0  0  0  0
  141.7430   73.9550  220.9410 N   0  0  0  0  0  0  0  0  0  0  0  0
  140.6590   74.3620  221.5900 C   0  0  0  0  0  0  0  0  0  0  0  0
  140.1110   75.6540  221.4250 N   0  0  0  0  0  0  0  0  0  0  0  0
  139.1860   76.0010  220.3620 C   0  0  0  0  0  0  0  0  0  0  0  0
  139.3560   77.5290  220.1890 C   0  0  0  0  0  0  0  0  0  0  0  0
  138.8940   78.2330  221.3270 N   0  0  0  0  0  0  0  0  0  0  0  0
  139.4420   79.5250  221.4700 C   0  0  0  0  0  0  0  0  0  0  0  0
  140.5020   79.7540  222.4810 C   0  0  0  0  0  0  0  0  0  0  0  0
  141.8640   79.8130  221.7580 C   0  0  0  0  0  0  0  0  0  0  0  0
  142.9640   79.6000  222.7620 C   0  0  0  0  0  0  0  0  0  0  0  0
  142.7450   80.5350  223.8520 N   0  0  0  0  0  0  0  0  0  0  0  0
  141.8140   81.5680  223.5030 C   0  0  0  0  0  0  0  0  0  0  0  0
  140.4190   81.0040  223.2890 C   0  0  0  0  0  0  0  0  0  0  0  0
  139.1680   77.4980  222.5570 C   0  0  0  0  0  0  0  0  0  0  0  0
  140.4600   76.7330  222.3490 C   0  0  0  0  0  0  0  0  0  0  0  0
  140.0670   73.5080  222.4350 N   0  0  0  0  0  0  0  0  0  0  0  0
  140.5130   72.2790  222.6520 C   0  0  0  0  0  0  0  0  0  0  0  0
  139.8180   71.4430  223.5690 N   0  0  0  0  0  0  0  0  0  0  0  0
  138.8880   70.4770  223.0390 C   0  0  0  0  0  0  0  0  0  0  0  0
  138.2220   69.6650  224.1210 C   0  0  0  0  0  0  0  0  0  0  0  0
  139.1850   69.2060  225.1490 C   0  0  0  0  0  0  0  0  0  0  0  0
  139.1870   67.9140  225.6350 C   0  0  0  0  0  0  0  0  0  0  0  0
  140.1160   67.5920  226.5800 C   0  0  0  0  0  0  0  0  0  0  0  0
  141.0370   68.5170  227.0490 C   0  0  0  0  0  0  0  0  0  0  0  0
  141.0130   69.8010  226.5480 C   0  0  0  0  0  0  0  0  0  0  0  0
  140.0990   70.1630  225.6010 C   0  0  0  0  0  0  0  0  0  0  0  0
  139.9990   71.5190  225.0060 C   0  0  0  0  0  0  0  0  0  0  0  0
  141.6130   71.8830  221.9840 N   0  0  0  0  0  0  0  0  0  0  0  0
  143.7280   70.8620  220.4000 C   0  0  0  0  0  0  0  0  0  0  0  0
  146.7751   69.6269  216.1629 H   0  0  0  0  0  0  0  0  0  0  0  0
  146.2796   67.9178  217.8979 H   0  0  0  0  0  0  0  0  0  0  0  0
  144.8594   68.5492  219.8416 H   0  0  0  0  0  0  0  0  0  0  0  0
  145.8672   71.9413  216.3629 H   0  0  0  0  0  0  0  0  0  0  0  0
  145.0479   73.5706  217.7832 H   0  0  0  0  0  0  0  0  0  0  0  0
  143.3687   72.9644  217.7982 H   0  0  0  0  0  0  0  0  0  0  0  0
  145.2275   73.3226  220.2117 H   0  0  0  0  0  0  0  0  0  0  0  0
  143.7624   74.2722  219.8509 H   0  0  0  0  0  0  0  0  0  0  0  0
  139.4449   75.4727  219.4326 H   0  0  0  0  0  0  0  0  0  0  0  0
  138.1496   75.7181  220.5985 H   0  0  0  0  0  0  0  0  0  0  0  0
  140.4216   77.7554  220.0365 H   0  0  0  0  0  0  0  0  0  0  0  0
  138.7608   77.8470  219.3204 H   0  0  0  0  0  0  0  0  0  0  0  0
  139.8637   79.8050  220.4934 H   0  0  0  0  0  0  0  0  0  0  0  0
  138.5977   80.1279  221.8355 H   0  0  0  0  0  0  0  0  0  0  0  0
  140.3725   78.9185  223.1847 H   0  0  0  0  0  0  0  0  0  0  0  0
  141.9081   79.0260  220.9907 H   0  0  0  0  0  0  0  0  0  0  0  0
  141.9861   80.7948  221.2772 H   0  0  0  0  0  0  0  0  0  0  0  0
  142.9328   78.5676  223.1404 H   0  0  0  0  0  0  0  0  0  0  0  0
  143.9485   79.7658  222.3002 H   0  0  0  0  0  0  0  0  0  0  0  0
  143.6180   80.8980  224.2480 H   0  0  0  0  0  0  0  0  0  0  0  0
  141.7802   82.3094  224.3149 H   0  0  0  0  0  0  0  0  0  0  0  0
  142.1481   82.0342  222.5644 H   0  0  0  0  0  0  0  0  0  0  0  0
  139.9616   80.7797  224.2639 H   0  0  0  0  0  0  0  0  0  0  0  0
  139.8046   81.7436  222.7546 H   0  0  0  0  0  0  0  0  0  0  0  0
  139.2772   78.1990  223.3976 H   0  0  0  0  0  0  0  0  0  0  0  0
  138.3422   76.8099  222.7907 H   0  0  0  0  0  0  0  0  0  0  0  0
  141.2299   77.3848  221.9104 H   0  0  0  0  0  0  0  0  0  0  0  0
  140.8739   76.3523  223.2944 H   0  0  0  0  0  0  0  0  0  0  0  0
  138.1123   71.0095  222.4691 H   0  0  0  0  0  0  0  0  0  0  0  0
  139.4537   69.7832  222.3998 H   0  0  0  0  0  0  0  0  0  0  0  0
  137.4537   70.2845  224.6068 H   0  0  0  0  0  0  0  0  0  0  0  0
  137.7796   68.7743  223.6509 H   0  0  0  0  0  0  0  0  0  0  0  0
  138.4635   67.1691  225.2722 H   0  0  0  0  0  0  0  0  0  0  0  0
  140.1355   66.5684  226.9822 H   0  0  0  0  0  0  0  0  0  0  0  0
  141.7768   68.2298  227.8107 H   0  0  0  0  0  0  0  0  0  0  0  0
  141.7383   70.5419  226.9154 H   0  0  0  0  0  0  0  0  0  0  0  0
  139.1403   72.0442  225.4496 H   0  0  0  0  0  0  0  0  0  0  0  0
  140.9322   72.0630  225.2138 H   0  0  0  0  0  0  0  0  0  0  0  0
  144.2770   70.5939  221.3147 H   0  0  0  0  0  0  0  0  0  0  0  0
  142.7983   70.2754  220.3602 H   0  0  0  0  0  0  0  0  0  0  0  0
  1  2  2  0
  2  3  1  0
  3  4  2  0
  4  5  1  0
  5  6  2  0
  5  7  1  0
  7  8  1  0
  8  9  1  0
  9 10  1  0
 10 11  2  0
 11 12  1  0
 12 13  1  0
 13 14  1  0
 14 15  1  0
 15 16  1  0
 16 17  1  0
 17 18  1  0
 18 19  1  0
 19 20  1  0
 20 21  1  0
 21 22  1  0
 22 23  1  0
 16 24  1  0
 24 25  1  0
 12 26  2  0
 26 27  1  0
 27 28  1  0
 28 29  1  0
 29 30  1  0
 30 31  1  0
 31 32  2  0
 32 33  1  0
 33 34  2  0
 34 35  1  0
 35 36  2  0
 36 37  1  0
 27 38  2  0
  9 39  1  0
  6  1  1  0
 38 10  1  0
 39  4  1  0
 25 13  1  0
 37 28  1  0
 23 18  1  0
 36 31  1  0
  1 40  1  0
  2 41  1  0
  3 42  1  0
  6 43  1  0
  7 44  1  0
  7 45  1  0
  8 46  1  0
  8 47  1  0
 14 48  1  0
 14 49  1  0
 15 50  1  0
 15 51  1  0
 17 52  1  0
 17 53  1  0
 18 54  1  0
 19 55  1  0
 19 56  1  0
 20 57  1  0
 20 58  1  0
 21 59  1  0
 22 60  1  0
 22 61  1  0
 23 62  1  0
 23 63  1  0
 24 64  1  0
 24 65  1  0
 25 66  1  0
 25 67  1  0
 29 68  1  0
 29 69  1  0
 30 70  1  0
 30 71  1  0
 32 72  1  0
 33 73  1  0
 34 74  1  0
 35 75  1  0
 37 76  1  0
 37 77  1  0
 39 78  1  0
 39 79  1  0
M  END
>  <smiles>  (45) 
c1ccc2c(c1)CCN(c1nc(N3CCN(CC4CCNCC4)CC3)nc(N3CCc4ccccc4C3)n1)C2

>  <score_type>  (45) 
oracle

>  <origin>  (45) 
autodockgpu

>  <m_score__min__energy>  (45) 
-10.470000000000001

>  <m_primary>  (45) 
energy

>  <rmsd>  (45) 
3.7666012623103127

>  <m_score__min__rmsd>  (45) 
3.7666012623103127

>  <meeko>  (45) 
{"free_energy": -9.89, "intermolecular_energy": -11.39, "internal_energy": -1.23, "cluster_size": 32, "cluster_id": 3, "rank_in_cluster": 6}

>  <energy>  (45) 
-9.45

>  <cluster_rmsd>  (45) 
1.04

>  <cluster>  (45) 
3

$$$$

     RDKit          3D

 79 85  0  0  0  0  0  0  0  0999 V2000
  146.2280   69.9820  216.9210 C   0  0  0  0  0  0  0  0  0  0  0  0
  145.9820   69.0080  217.8690 C   0  0  0  0  0  0  0  0  0  0  0  0
  145.1900   69.3430  218.9660 C   0  0  0  0  0  0  0  0  0  0  0  0
  144.6530   70.6020  219.1310 C   0  0  0  0  0  0  0  0  0  0  0  0
  144.9290   71.5360  218.1600 C   0  0  0  0  0  0  0  0  0  0  0  0
  145.7070   71.2630  217.0490 C   0  0  0  0  0  0  0  0  0  0  0  0
  144.3930   72.9340  218.2500 C   0  0  0  0  0  0  0  0  0  0  0  0
  144.2810   73.2980  219.7150 C   0  0  0  0  0  0  0  0  0  0  0  0
  143.4990   72.2660  220.3650 N   0  0  0  0  0  0  0  0  0  0  0  0
  142.3320   72.6680  221.0860 C   0  0  0  0  0  0  0  0  0  0  0  0
  141.8020   73.9180  220.9450 N   0  0  0  0  0  0  0  0  0  0  0  0
  140.7180   74.2980  221.6110 C   0  0  0  0  0  0  0  0  0  0  0  0
  140.1550   75.5860  221.4780 N   0  0  0  0  0  0  0  0  0  0  0  0
  139.1310   75.9170  220.5040 C   0  0  0  0  0  0  0  0  0  0  0  0
  139.2820   77.4420  220.2910 C   0  0  0  0  0  0  0  0  0  0  0  0
  138.9300   78.1640  221.4570 N   0  0  0  0  0  0  0  0  0  0  0  0
  139.4870   79.4580  221.5250 C   0  0  0  0  0  0  0  0  0  0  0  0
  140.5570   79.7330  222.5150 C   0  0  0  0  0  0  0  0  0  0  0  0
  141.9020   79.8390  221.7650 C   0  0  0  0  0  0  0  0  0  0  0  0
  143.0280   79.6760  222.7480 C   0  0  0  0  0  0  0  0  0  0  0  0
  142.7950   80.6090  223.8360 N   0  0  0  0  0  0  0  0  0  0  0  0
  141.8190   81.6030  223.5000 C   0  0  0  0  0  0  0  0  0  0  0  0
  140.4430   80.9850  223.3170 C   0  0  0  0  0  0  0  0  0  0  0  0
  139.3220   77.4480  222.6660 C   0  0  0  0  0  0  0  0  0  0  0  0
  140.5900   76.6800  222.3470 C   0  0  0  0  0  0  0  0  0  0  0  0
  140.1420   73.4180  222.4400 N   0  0  0  0  0  0  0  0  0  0  0  0
  140.6030   72.1900  222.6250 C   0  0  0  0  0  0  0  0  0  0  0  0
  139.9240   71.3250  223.5280 N   0  0  0  0  0  0  0  0  0  0  0  0
  139.1920   70.2090  222.9810 C   0  0  0  0  0  0  0  0  0  0  0  0
  138.5190   69.3830  224.0480 C   0  0  0  0  0  0  0  0  0  0  0  0
  139.4130   69.1260  225.2020 C   0  0  0  0  0  0  0  0  0  0  0  0
  139.5270   67.8790  225.7840 C   0  0  0  0  0  0  0  0  0  0  0  0
  140.3780   67.7470  226.8410 C   0  0  0  0  0  0  0  0  0  0  0  0
  141.1130   68.8170  227.3300 C   0  0  0  0  0  0  0  0  0  0  0  0
  140.9800   70.0520  226.7310 C   0  0  0  0  0  0  0  0  0  0  0  0
  140.1380   70.2250  225.6700 C   0  0  0  0  0  0  0  0  0  0  0  0
  139.9310   71.5150  224.9660 C   0  0  0  0  0  0  0  0  0  0  0  0
  141.7020   71.8210  221.9420 N   0  0  0  0  0  0  0  0  0  0  0  0
  143.8250   70.8610  220.3310 C   0  0  0  0  0  0  0  0  0  0  0  0
  146.8493   69.7380  216.0467 H   0  0  0  0  0  0  0  0  0  0  0  0
  146.3995   67.9960  217.7612 H   0  0  0  0  0  0  0  0  0  0  0  0
  144.9862   68.5755  219.7272 H   0  0  0  0  0  0  0  0  0  0  0  0
  145.9064   72.0354  216.2917 H   0  0  0  0  0  0  0  0  0  0  0  0
  145.0781   73.6299  217.7437 H   0  0  0  0  0  0  0  0  0  0  0  0
  143.4084   72.9980  217.7637 H   0  0  0  0  0  0  0  0  0  0  0  0
  145.2829   73.3494  220.1662 H   0  0  0  0  0  0  0  0  0  0  0  0
  143.7988   74.2796  219.8331 H   0  0  0  0  0  0  0  0  0  0  0  0
  139.2992   75.3738  219.5624 H   0  0  0  0  0  0  0  0  0  0  0  0
  138.1227   75.6387  220.8443 H   0  0  0  0  0  0  0  0  0  0  0  0
  140.3279   77.6656  220.0337 H   0  0  0  0  0  0  0  0  0  0  0  0
  138.6063   77.7465  219.4782 H   0  0  0  0  0  0  0  0  0  0  0  0
  139.9028   79.6818  220.5315 H   0  0  0  0  0  0  0  0  0  0  0  0
  138.6497   80.0864  221.8626 H   0  0  0  0  0  0  0  0  0  0  0  0
  140.4720   78.8979  223.2259 H   0  0  0  0  0  0  0  0  0  0  0  0
  141.9616   79.0486  221.0023 H   0  0  0  0  0  0  0  0  0  0  0  0
  141.9768   80.8213  221.2755 H   0  0  0  0  0  0  0  0  0  0  0  0
  143.0441   78.6459  223.1334 H   0  0  0  0  0  0  0  0  0  0  0  0
  143.9960   79.8768  222.2656 H   0  0  0  0  0  0  0  0  0  0  0  0
  143.6610   81.0070  224.2140 H   0  0  0  0  0  0  0  0  0  0  0  0
  141.7729   82.3477  224.3083 H   0  0  0  0  0  0  0  0  0  0  0  0
  142.1165   82.0757  222.5523 H   0  0  0  0  0  0  0  0  0  0  0  0
  140.0136   80.7503  224.3022 H   0  0  0  0  0  0  0  0  0  0  0  0
  139.7910   81.6971  222.7900 H   0  0  0  0  0  0  0  0  0  0  0  0
  139.5099   78.1619  223.4815 H   0  0  0  0  0  0  0  0  0  0  0  0
  138.5237   76.7632  222.9880 H   0  0  0  0  0  0  0  0  0  0  0  0
  141.3130   77.3248  221.8260 H   0  0  0  0  0  0  0  0  0  0  0  0
  141.0939   76.3149  223.2541 H   0  0  0  0  0  0  0  0  0  0  0  0
  138.4231   70.5934  222.2947 H   0  0  0  0  0  0  0  0  0  0  0  0
  139.9110   69.5604  222.4592 H   0  0  0  0  0  0  0  0  0  0  0  0
  137.6275   69.9208  224.4030 H   0  0  0  0  0  0  0  0  0  0  0  0
  138.2503   68.4125  223.6054 H   0  0  0  0  0  0  0  0  0  0  0  0
  138.9506   67.0210  225.4075 H   0  0  0  0  0  0  0  0  0  0  0  0
  140.4849   66.7627  227.3203 H   0  0  0  0  0  0  0  0  0  0  0  0
  141.7929   68.6822  228.1842 H   0  0  0  0  0  0  0  0  0  0  0  0
  141.5582   70.9067  227.1119 H   0  0  0  0  0  0  0  0  0  0  0  0
  138.9673   71.9444  225.2772 H   0  0  0  0  0  0  0  0  0  0  0  0
  140.7564   72.1938  225.2266 H   0  0  0  0  0  0  0  0  0  0  0  0
  144.3872   70.5881  221.2362 H   0  0  0  0  0  0  0  0  0  0  0  0
  142.9043   70.2603  220.2916 H   0  0  0  0  0  0  0  0  0  0  0  0
  1  2  2  0
  2  3  1  0
  3  4  2  0
  4  5  1  0
  5  6  2  0
  5  7  1  0
  7  8  1  0
  8  9  1  0
  9 10  1  0
 10 11  2  0
 11 12  1  0
 12 13  1  0
 13 14  1  0
 14 15  1  0
 15 16  1  0
 16 17  1  0
 17 18  1  0
 18 19  1  0
 19 20  1  0
 20 21  1  0
 21 22  1  0
 22 23  1  0
 16 24  1  0
 24 25  1  0
 12 26  2  0
 26 27  1  0
 27 28  1  0
 28 29  1  0
 29 30  1  0
 30 31  1  0
 31 32  2  0
 32 33  1  0
 33 34  2  0
 34 35  1  0
 35 36  2  0
 36 37  1  0
 27 38  2  0
  9 39  1  0
  6  1  1  0
 38 10  1  0
 39  4  1  0
 25 13  1  0
 37 28  1  0
 23 18  1  0
 36 31  1  0
  1 40  1  0
  2 41  1  0
  3 42  1  0
  6 43  1  0
  7 44  1  0
  7 45  1  0
  8 46  1  0
  8 47  1  0
 14 48  1  0
 14 49  1  0
 15 50  1  0
 15 51  1  0
 17 52  1  0
 17 53  1  0
 18 54  1  0
 19 55  1  0
 19 56  1  0
 20 57  1  0
 20 58  1  0
 21 59  1  0
 22 60  1  0
 22 61  1  0
 23 62  1  0
 23 63  1  0
 24 64  1  0
 24 65  1  0
 25 66  1  0
 25 67  1  0
 29 68  1  0
 29 69  1  0
 30 70  1  0
 30 71  1  0
 32 72  1  0
 33 73  1  0
 34 74  1  0
 35 75  1  0
 37 76  1  0
 37 77  1  0
 39 78  1  0
 39 79  1  0
M  END
>  <smiles>  (46) 
c1ccc2c(c1)CCN(c1nc(N3CCN(CC4CCNCC4)CC3)nc(N3CCc4ccccc4C3)n1)C2

>  <score_type>  (46) 
oracle

>  <origin>  (46) 
autodockgpu

>  <m_score__min__energy>  (46) 
-10.470000000000001

>  <m_primary>  (46) 
energy

>  <rmsd>  (46) 
3.779060403734354

>  <m_score__min__rmsd>  (46) 
3.779060403734354

>  <meeko>  (46) 
{"free_energy": -9.88, "intermolecular_energy": -11.37, "internal_energy": -1.25, "cluster_size": 32, "cluster_id": 3, "rank_in_cluster": 8}

>  <energy>  (46) 
-9.42

>  <cluster_rmsd>  (46) 
0.7

>  <cluster>  (46) 
3

$$$$

     RDKit          3D

 79 85  0  0  0  0  0  0  0  0999 V2000
  145.5050   67.4670  217.9210 C   0  0  0  0  0  0  0  0  0  0  0  0
  146.3140   68.2940  218.6750 C   0  0  0  0  0  0  0  0  0  0  0  0
  145.7200   69.3630  219.3450 C   0  0  0  0  0  0  0  0  0  0  0  0
  144.3650   69.6150  219.2780 C   0  0  0  0  0  0  0  0  0  0  0  0
  143.6050   68.7610  218.5130 C   0  0  0  0  0  0  0  0  0  0  0  0
  144.1370   67.6850  217.8260 C   0  0  0  0  0  0  0  0  0  0  0  0
  142.1240   68.9520  218.3750 C   0  0  0  0  0  0  0  0  0  0  0  0
  141.8340   70.4360  218.4660 C   0  0  0  0  0  0  0  0  0  0  0  0
  142.4330   70.9250  219.6910 N   0  0  0  0  0  0  0  0  0  0  0  0
  141.5880   71.6010  220.6250 C   0  0  0  0  0  0  0  0  0  0  0  0
  141.2910   72.9250  220.4870 N   0  0  0  0  0  0  0  0  0  0  0  0
  140.5060   73.5600  221.3490 C   0  0  0  0  0  0  0  0  0  0  0  0
  140.1860   74.9300  221.2240 N   0  0  0  0  0  0  0  0  0  0  0  0
  140.3730   75.6880  220.0000 C   0  0  0  0  0  0  0  0  0  0  0  0
  140.5060   77.1550  220.4730 C   0  0  0  0  0  0  0  0  0  0  0  0
  139.2920   77.6330  221.0230 N   0  0  0  0  0  0  0  0  0  0  0  0
  139.4470   78.7300  221.8970 C   0  0  0  0  0  0  0  0  0  0  0  0
  140.8120   79.1990  222.2350 C   0  0  0  0  0  0  0  0  0  0  0  0
  140.7730   80.7320  222.4090 C   0  0  0  0  0  0  0  0  0  0  0  0
  142.1720   81.2750  222.3110 C   0  0  0  0  0  0  0  0  0  0  0  0
  142.9980   80.5180  223.2360 N   0  0  0  0  0  0  0  0  0  0  0  0
  142.2160   79.7680  224.1740 C   0  0  0  0  0  0  0  0  0  0  0  0
  141.4310   78.6670  223.4820 C   0  0  0  0  0  0  0  0  0  0  0  0
  138.5860   76.5840  221.7500 C   0  0  0  0  0  0  0  0  0  0  0  0
  139.6330   75.6710  222.3580 C   0  0  0  0  0  0  0  0  0  0  0  0
  140.0000   72.8660  222.3770 N   0  0  0  0  0  0  0  0  0  0  0  0
  140.2480   71.5790  222.5710 C   0  0  0  0  0  0  0  0  0  0  0  0
  139.6660   70.9250  223.6930 N   0  0  0  0  0  0  0  0  0  0  0  0
  139.0870   69.6190  223.4950 C   0  0  0  0  0  0  0  0  0  0  0  0
  138.5050   69.0480  224.7640 C   0  0  0  0  0  0  0  0  0  0  0  0
  139.4050   69.2370  225.9260 C   0  0  0  0  0  0  0  0  0  0  0  0
  139.6640   68.2280  226.8310 C   0  0  0  0  0  0  0  0  0  0  0  0
  140.5080   68.5030  227.8660 C   0  0  0  0  0  0  0  0  0  0  0  0
  141.0970   69.7490  228.0210 C   0  0  0  0  0  0  0  0  0  0  0  0
  140.8210   70.7400  227.1030 C   0  0  0  0  0  0  0  0  0  0  0  0
  139.9810   70.5040  226.0530 C   0  0  0  0  0  0  0  0  0  0  0  0
  139.6270   71.5090  225.0200 C   0  0  0  0  0  0  0  0  0  0  0  0
  141.0450   70.9510  221.6870 N   0  0  0  0  0  0  0  0  0  0  0  0
  143.8290   70.7740  220.0250 C   0  0  0  0  0  0  0  0  0  0  0  0
  145.9536   66.6179  217.3845 H   0  0  0  0  0  0  0  0  0  0  0  0
  147.3970   68.1145  218.7452 H   0  0  0  0  0  0  0  0  0  0  0  0
  146.3542   70.0291  219.9484 H   0  0  0  0  0  0  0  0  0  0  0  0
  143.4971   67.0233  217.2238 H   0  0  0  0  0  0  0  0  0  0  0  0
  141.7864   68.5644  217.4024 H   0  0  0  0  0  0  0  0  0  0  0  0
  141.5925   68.4088  219.1703 H   0  0  0  0  0  0  0  0  0  0  0  0
  142.2702   70.9572  217.6011 H   0  0  0  0  0  0  0  0  0  0  0  0
  140.7492   70.6183  218.4668 H   0  0  0  0  0  0  0  0  0  0  0  0
  141.2844   75.3636  219.4765 H   0  0  0  0  0  0  0  0  0  0  0  0
  139.5442   75.5496  219.2901 H   0  0  0  0  0  0  0  0  0  0  0  0
  141.2935   77.2140  221.2388 H   0  0  0  0  0  0  0  0  0  0  0  0
  140.7603   77.7775  219.6025 H   0  0  0  0  0  0  0  0  0  0  0  0
  138.9186   79.5806  221.4417 H   0  0  0  0  0  0  0  0  0  0  0  0
  139.0537   78.3586  222.8548 H   0  0  0  0  0  0  0  0  0  0  0  0
  141.4259   78.8289  221.4006 H   0  0  0  0  0  0  0  0  0  0  0  0
  140.1494   81.1764  221.6193 H   0  0  0  0  0  0  0  0  0  0  0  0
  140.3467   80.9823  223.3916 H   0  0  0  0  0  0  0  0  0  0  0  0
  142.5505   81.1559  221.2851 H   0  0  0  0  0  0  0  0  0  0  0  0
  142.1911   82.3461  222.5607 H   0  0  0  0  0  0  0  0  0  0  0  0
  143.7240   81.0880  223.6820 H   0  0  0  0  0  0  0  0  0  0  0  0
  142.8869   79.3157  224.9192 H   0  0  0  0  0  0  0  0  0  0  0  0
  141.5028   80.4521  224.6570 H   0  0  0  0  0  0  0  0  0  0  0  0
  142.1087   77.8383  223.2290 H   0  0  0  0  0  0  0  0  0  0  0  0
  140.6402   78.3050  224.1555 H   0  0  0  0  0  0  0  0  0  0  0  0
  137.9672   77.0277  222.5439 H   0  0  0  0  0  0  0  0  0  0  0  0
  137.9243   76.0212  221.0751 H   0  0  0  0  0  0  0  0  0  0  0  0
  140.4177   76.2591  222.8565 H   0  0  0  0  0  0  0  0  0  0  0  0
  139.2088   75.0040  223.1230 H   0  0  0  0  0  0  0  0  0  0  0  0
  138.2871   69.6977  222.7440 H   0  0  0  0  0  0  0  0  0  0  0  0
  139.8892   68.9443  223.1614 H   0  0  0  0  0  0  0  0  0  0  0  0
  137.5480   69.5489  224.9718 H   0  0  0  0  0  0  0  0  0  0  0  0
  138.3665   67.9668  224.6159 H   0  0  0  0  0  0  0  0  0  0  0  0
  139.2047   67.2345  226.7211 H   0  0  0  0  0  0  0  0  0  0  0  0
  140.7282   67.7134  228.5996 H   0  0  0  0  0  0  0  0  0  0  0  0
  141.7751   69.9440  228.8649 H   0  0  0  0  0  0  0  0  0  0  0  0
  141.2827   71.7318  227.2179 H   0  0  0  0  0  0  0  0  0  0  0  0
  138.6127   71.8862  225.2175 H   0  0  0  0  0  0  0  0  0  0  0  0
  140.3582   72.3296  225.0638 H   0  0  0  0  0  0  0  0  0  0  0  0
  144.3789   71.6841  219.7434 H   0  0  0  0  0  0  0  0  0  0  0  0
  143.9434   70.6121  221.1070 H   0  0  0  0  0  0  0  0  0  0  0  0
  1  2  2  0
  2  3  1  0
  3  4  2  0
  4  5  1  0
  5  6  2  0
  5  7  1  0
  7  8  1  0
  8  9  1  0
  9 10  1  0
 10 11  2  0
 11 12  1  0
 12 13  1  0
 13 14  1  0
 14 15  1  0
 15 16  1  0
 16 17  1  0
 17 18  1  0
 18 19  1  0
 19 20  1  0
 20 21  1  0
 21 22  1  0
 22 23  1  0
 16 24  1  0
 24 25  1  0
 12 26  2  0
 26 27  1  0
 27 28  1  0
 28 29  1  0
 29 30  1  0
 30 31  1  0
 31 32  2  0
 32 33  1  0
 33 34  2  0
 34 35  1  0
 35 36  2  0
 36 37  1  0
 27 38  2  0
  9 39  1  0
  6  1  1  0
 38 10  1  0
 39  4  1  0
 25 13  1  0
 37 28  1  0
 23 18  1  0
 36 31  1  0
  1 40  1  0
  2 41  1  0
  3 42  1  0
  6 43  1  0
  7 44  1  0
  7 45  1  0
  8 46  1  0
  8 47  1  0
 14 48  1  0
 14 49  1  0
 15 50  1  0
 15 51  1  0
 17 52  1  0
 17 53  1  0
 18 54  1  0
 19 55  1  0
 19 56  1  0
 20 57  1  0
 20 58  1  0
 21 59  1  0
 22 60  1  0
 22 61  1  0
 23 62  1  0
 23 63  1  0
 24 64  1  0
 24 65  1  0
 25 66  1  0
 25 67  1  0
 29 68  1  0
 29 69  1  0
 30 70  1  0
 30 71  1  0
 32 72  1  0
 33 73  1  0
 34 74  1  0
 35 75  1  0
 37 76  1  0
 37 77  1  0
 39 78  1  0
 39 79  1  0
M  END
>  <smiles>  (47) 
c1ccc2c(c1)CCN(c1nc(N3CCN(CC4CCNCC4)CC3)nc(N3CCc4ccccc4C3)n1)C2

>  <score_type>  (47) 
oracle

>  <origin>  (47) 
autodockgpu

>  <m_score__min__energy>  (47) 
-10.470000000000001

>  <m_primary>  (47) 
energy

>  <rmsd>  (47) 
3.517203614720146

>  <m_score__min__rmsd>  (47) 
3.517203614720146

>  <meeko>  (47) 
{"free_energy": -9.42, "intermolecular_energy": -10.91, "internal_energy": -1.3, "cluster_size": 32, "cluster_id": 3, "rank_in_cluster": 31}

>  <energy>  (47) 
-9.42

>  <cluster_rmsd>  (47) 
1.09

>  <cluster>  (47) 
3

$$$$

     RDKit          3D

 79 85  0  0  0  0  0  0  0  0999 V2000
  145.5840   67.6500  218.1860 C   0  0  0  0  0  0  0  0  0  0  0  0
  146.3130   68.7650  218.5520 C   0  0  0  0  0  0  0  0  0  0  0  0
  145.6320   69.8390  219.1210 C   0  0  0  0  0  0  0  0  0  0  0  0
  144.2680   69.8230  219.3270 C   0  0  0  0  0  0  0  0  0  0  0  0
  143.5880   68.6900  218.9450 C   0  0  0  0  0  0  0  0  0  0  0  0
  144.2100   67.5920  218.3750 C   0  0  0  0  0  0  0  0  0  0  0  0
  142.1040   68.5760  219.1250 C   0  0  0  0  0  0  0  0  0  0  0  0
  141.5090   69.9610  218.9910 C   0  0  0  0  0  0  0  0  0  0  0  0
  142.2050   70.8280  219.9200 N   0  0  0  0  0  0  0  0  0  0  0  0
  141.4220   71.5470  220.8770 C   0  0  0  0  0  0  0  0  0  0  0  0
  141.1550   72.8760  220.7240 N   0  0  0  0  0  0  0  0  0  0  0  0
  140.4280   73.5510  221.6070 C   0  0  0  0  0  0  0  0  0  0  0  0
  140.1420   74.9270  221.4670 N   0  0  0  0  0  0  0  0  0  0  0  0
  138.9330   75.4330  220.8440 C   0  0  0  0  0  0  0  0  0  0  0  0
  139.3170   76.8510  220.3570 C   0  0  0  0  0  0  0  0  0  0  0  0
  139.5660   77.7220  221.4450 N   0  0  0  0  0  0  0  0  0  0  0  0
  140.3710   78.8340  221.1230 C   0  0  0  0  0  0  0  0  0  0  0  0
  140.7680   79.7760  222.1980 C   0  0  0  0  0  0  0  0  0  0  0  0
  142.2820   79.6180  222.4520 C   0  0  0  0  0  0  0  0  0  0  0  0
  142.6210   80.2100  223.7920 C   0  0  0  0  0  0  0  0  0  0  0  0
  142.0740   81.5550  223.8240 N   0  0  0  0  0  0  0  0  0  0  0  0
  141.7110   82.0260  222.5200 C   0  0  0  0  0  0  0  0  0  0  0  0
  140.5500   81.2290  221.9490 C   0  0  0  0  0  0  0  0  0  0  0  0
  140.2020   77.0200  222.5550 C   0  0  0  0  0  0  0  0  0  0  0  0
  141.0790   75.9350  221.9610 C   0  0  0  0  0  0  0  0  0  0  0  0
  139.9520   72.8920  222.6710 N   0  0  0  0  0  0  0  0  0  0  0  0
  140.1720   71.6030  222.8820 C   0  0  0  0  0  0  0  0  0  0  0  0
  139.6250   70.9890  224.0430 N   0  0  0  0  0  0  0  0  0  0  0  0
  138.8650   69.7740  223.8760 C   0  0  0  0  0  0  0  0  0  0  0  0
  138.3420   69.2380  225.1850 C   0  0  0  0  0  0  0  0  0  0  0  0
  139.3700   69.2700  226.2520 C   0  0  0  0  0  0  0  0  0  0  0  0
  139.5840   68.2040  227.1030 C   0  0  0  0  0  0  0  0  0  0  0  0
  140.5550   68.3340  228.0520 C   0  0  0  0  0  0  0  0  0  0  0  0
  141.3130   69.4890  228.1740 C   0  0  0  0  0  0  0  0  0  0  0  0
  141.0790   70.5390  227.3110 C   0  0  0  0  0  0  0  0  0  0  0  0
  140.1150   70.4490  226.3480 C   0  0  0  0  0  0  0  0  0  0  0  0
  139.7940   71.5260  225.3800 C   0  0  0  0  0  0  0  0  0  0  0  0
  140.9110   70.9340  221.9760 N   0  0  0  0  0  0  0  0  0  0  0  0
  143.6350   71.0130  219.9390 C   0  0  0  0  0  0  0  0  0  0  0  0
  146.1028   66.7909  217.7358 H   0  0  0  0  0  0  0  0  0  0  0  0
  147.4015   68.8038  218.3983 H   0  0  0  0  0  0  0  0  0  0  0  0
  146.2024   70.7319  219.4166 H   0  0  0  0  0  0  0  0  0  0  0  0
  143.6338   66.7022  218.0813 H   0  0  0  0  0  0  0  0  0  0  0  0
  141.6843   67.9132  218.3540 H   0  0  0  0  0  0  0  0  0  0  0  0
  141.8702   68.1536  220.1134 H   0  0  0  0  0  0  0  0  0  0  0  0
  141.6422   70.3287  217.9629 H   0  0  0  0  0  0  0  0  0  0  0  0
  140.4318   69.9420  219.2129 H   0  0  0  0  0  0  0  0  0  0  0  0
  138.6361   74.7974  219.9968 H   0  0  0  0  0  0  0  0  0  0  0  0
  138.0774   75.4439  221.5353 H   0  0  0  0  0  0  0  0  0  0  0  0
  140.2239   76.7833  219.7382 H   0  0  0  0  0  0  0  0  0  0  0  0
  138.4761   77.2563  219.7750 H   0  0  0  0  0  0  0  0  0  0  0  0
  141.2987   78.4418  220.6807 H   0  0  0  0  0  0  0  0  0  0  0  0
  139.7287   79.4407  220.4678 H   0  0  0  0  0  0  0  0  0  0  0  0
  140.1129   79.5015  223.0379 H   0  0  0  0  0  0  0  0  0  0  0  0
  142.5474   78.5505  222.4432 H   0  0  0  0  0  0  0  0  0  0  0  0
  142.8461   80.1382  221.6638 H   0  0  0  0  0  0  0  0  0  0  0  0
  142.1753   79.6038  224.5944 H   0  0  0  0  0  0  0  0  0  0  0  0
  143.7104   80.2303  223.9431 H   0  0  0  0  0  0  0  0  0  0  0  0
  142.6660   82.2150  224.3390 H   0  0  0  0  0  0  0  0  0  0  0  0
  141.4194   83.0844  222.5895 H   0  0  0  0  0  0  0  0  0  0  0  0
  142.5773   81.9043  221.8531 H   0  0  0  0  0  0  0  0  0  0  0  0
  139.6149   81.5468  222.4334 H   0  0  0  0  0  0  0  0  0  0  0  0
  140.4836   81.4071  220.8656 H   0  0  0  0  0  0  0  0  0  0  0  0
  140.8151   77.7204  223.1412 H   0  0  0  0  0  0  0  0  0  0  0  0
  139.4454   76.5852  223.2247 H   0  0  0  0  0  0  0  0  0  0  0  0
  141.6870   76.3360  221.1367 H   0  0  0  0  0  0  0  0  0  0  0  0
  141.7842   75.5215  222.6970 H   0  0  0  0  0  0  0  0  0  0  0  0
  138.0121   69.9793  223.2124 H   0  0  0  0  0  0  0  0  0  0  0  0
  139.5361   69.0152  223.4472 H   0  0  0  0  0  0  0  0  0  0  0  0
  137.4839   69.8494  225.5010 H   0  0  0  0  0  0  0  0  0  0  0  0
  138.0493   68.1893  225.0285 H   0  0  0  0  0  0  0  0  0  0  0  0
  138.9914   67.2811  227.0185 H   0  0  0  0  0  0  0  0  0  0  0  0
  140.7425   67.4976  228.7414 H   0  0  0  0  0  0  0  0  0  0  0  0
  142.0903   69.5665  228.9485 H   0  0  0  0  0  0  0  0  0  0  0  0
  141.6754   71.4591  227.3994 H   0  0  0  0  0  0  0  0  0  0  0  0
  138.8620   72.0217  225.6892 H   0  0  0  0  0  0  0  0  0  0  0  0
  140.6263   72.2451  225.3666 H   0  0  0  0  0  0  0  0  0  0  0  0
  143.9010   71.9123  219.3641 H   0  0  0  0  0  0  0  0  0  0  0  0
  143.9863   71.1379  220.9739 H   0  0  0  0  0  0  0  0  0  0  0  0
  1  2  2  0
  2  3  1  0
  3  4  2  0
  4  5  1  0
  5  6  2  0
  5  7  1  0
  7  8  1  0
  8  9  1  0
  9 10  1  0
 10 11  2  0
 11 12  1  0
 12 13  1  0
 13 14  1  0
 14 15  1  0
 15 16  1  0
 16 17  1  0
 17 18  1  0
 18 19  1  0
 19 20  1  0
 20 21  1  0
 21 22  1  0
 22 23  1  0
 16 24  1  0
 24 25  1  0
 12 26  2  0
 26 27  1  0
 27 28  1  0
 28 29  1  0
 29 30  1  0
 30 31  1  0
 31 32  2  0
 32 33  1  0
 33 34  2  0
 34 35  1  0
 35 36  2  0
 36 37  1  0
 27 38  2  0
  9 39  1  0
  6  1  1  0
 38 10  1  0
 39  4  1  0
 25 13  1  0
 37 28  1  0
 23 18  1  0
 36 31  1  0
  1 40  1  0
  2 41  1  0
  3 42  1  0
  6 43  1  0
  7 44  1  0
  7 45  1  0
  8 46  1  0
  8 47  1  0
 14 48  1  0
 14 49  1  0
 15 50  1  0
 15 51  1  0
 17 52  1  0
 17 53  1  0
 18 54  1  0
 19 55  1  0
 19 56  1  0
 20 57  1  0
 20 58  1  0
 21 59  1  0
 22 60  1  0
 22 61  1  0
 23 62  1  0
 23 63  1  0
 24 64  1  0
 24 65  1  0
 25 66  1  0
 25 67  1  0
 29 68  1  0
 29 69  1  0
 30 70  1  0
 30 71  1  0
 32 72  1  0
 33 73  1  0
 34 74  1  0
 35 75  1  0
 37 76  1  0
 37 77  1  0
 39 78  1  0
 39 79  1  0
M  END
>  <smiles>  (48) 
c1ccc2c(c1)CCN(c1nc(N3CCN(CC4CCNCC4)CC3)nc(N3CCc4ccccc4C3)n1)C2

>  <score_type>  (48) 
oracle

>  <origin>  (48) 
autodockgpu

>  <m_score__min__energy>  (48) 
-10.470000000000001

>  <m_primary>  (48) 
energy

>  <rmsd>  (48) 
3.697580079037776

>  <m_score__min__rmsd>  (48) 
3.697580079037776

>  <meeko>  (48) 
{"free_energy": -9.64, "intermolecular_energy": -11.13, "internal_energy": -1.19, "cluster_size": 32, "cluster_id": 3, "rank_in_cluster": 16}

>  <energy>  (48) 
-9.17

>  <cluster_rmsd>  (48) 
1.15

>  <cluster>  (48) 
3

$$$$

     RDKit          3D

 79 85  0  0  0  0  0  0  0  0999 V2000
  141.8500   80.9070  222.3450 C   0  0  0  0  0  0  0  0  0  0  0  0
  141.2650   80.4370  223.5050 C   0  0  0  0  0  0  0  0  0  0  0  0
  140.9180   79.0880  223.5680 C   0  0  0  0  0  0  0  0  0  0  0  0
  141.1380   78.2200  222.5190 C   0  0  0  0  0  0  0  0  0  0  0  0
  141.7220   78.7380  221.3860 C   0  0  0  0  0  0  0  0  0  0  0  0
  142.0890   80.0670  221.2650 C   0  0  0  0  0  0  0  0  0  0  0  0
  142.0000   77.8760  220.1910 C   0  0  0  0  0  0  0  0  0  0  0  0
  140.9370   76.7990  220.1350 C   0  0  0  0  0  0  0  0  0  0  0  0
  140.9220   76.1310  221.4200 N   0  0  0  0  0  0  0  0  0  0  0  0
  141.1030   74.7130  221.4370 C   0  0  0  0  0  0  0  0  0  0  0  0
  141.9290   74.0890  220.5480 N   0  0  0  0  0  0  0  0  0  0  0  0
  142.1030   72.7730  220.5590 C   0  0  0  0  0  0  0  0  0  0  0  0
  142.9540   72.1090  219.6470 N   0  0  0  0  0  0  0  0  0  0  0  0
  144.2280   72.6430  219.2050 C   0  0  0  0  0  0  0  0  0  0  0  0
  144.4760   71.9650  217.8370 C   0  0  0  0  0  0  0  0  0  0  0  0
  144.6880   70.5730  217.9810 N   0  0  0  0  0  0  0  0  0  0  0  0
  144.4320   69.8250  216.8120 C   0  0  0  0  0  0  0  0  0  0  0  0
  145.2320   68.6060  216.5440 C   0  0  0  0  0  0  0  0  0  0  0  0
  146.6940   69.0280  216.2810 C   0  0  0  0  0  0  0  0  0  0  0  0
  147.4140   67.9040  215.5880 C   0  0  0  0  0  0  0  0  0  0  0  0
  147.1960   66.7000  216.3700 N   0  0  0  0  0  0  0  0  0  0  0  0
  146.6960   66.9870  217.6820 C   0  0  0  0  0  0  0  0  0  0  0  0
  145.2970   67.5780  217.6220 C   0  0  0  0  0  0  0  0  0  0  0  0
  143.8680   70.0160  219.0520 C   0  0  0  0  0  0  0  0  0  0  0  0
  142.5760   70.8090  219.0910 C   0  0  0  0  0  0  0  0  0  0  0  0
  141.4420   72.0530  221.4740 N   0  0  0  0  0  0  0  0  0  0  0  0
  140.6240   72.5930  222.3660 C   0  0  0  0  0  0  0  0  0  0  0  0
  139.9640   71.7470  223.3000 N   0  0  0  0  0  0  0  0  0  0  0  0
  138.9480   70.8500  222.8050 C   0  0  0  0  0  0  0  0  0  0  0  0
  138.3300   70.0190  223.9010 C   0  0  0  0  0  0  0  0  0  0  0  0
  139.3490   69.4670  224.8260 C   0  0  0  0  0  0  0  0  0  0  0  0
  139.3250   68.1550  225.2530 C   0  0  0  0  0  0  0  0  0  0  0  0
  140.3090   67.7460  226.1030 C   0  0  0  0  0  0  0  0  0  0  0  0
  141.3100   68.6040  226.5360 C   0  0  0  0  0  0  0  0  0  0  0  0
  141.3090   69.9100  226.0950 C   0  0  0  0  0  0  0  0  0  0  0  0
  140.3410   70.3590  225.2430 C   0  0  0  0  0  0  0  0  0  0  0  0
  140.2620   71.7450  224.7190 C   0  0  0  0  0  0  0  0  0  0  0  0
  140.4600   73.9290  222.3420 N   0  0  0  0  0  0  0  0  0  0  0  0
  140.7330   76.8060  222.6800 C   0  0  0  0  0  0  0  0  0  0  0  0
  142.1322   81.9679  222.2753 H   0  0  0  0  0  0  0  0  0  0  0  0
  141.0781   81.1088  224.3558 H   0  0  0  0  0  0  0  0  0  0  0  0
  140.4523   78.7024  224.4869 H   0  0  0  0  0  0  0  0  0  0  0  0
  142.5549   80.4457  220.3433 H   0  0  0  0  0  0  0  0  0  0  0  0
  141.9640   78.4843  219.2752 H   0  0  0  0  0  0  0  0  0  0  0  0
  142.9995   77.4234  220.2698 H   0  0  0  0  0  0  0  0  0  0  0  0
  139.9544   77.2518  219.9362 H   0  0  0  0  0  0  0  0  0  0  0  0
  141.1554   76.0823  219.3296 H   0  0  0  0  0  0  0  0  0  0  0  0
  144.1743   73.7360  219.0936 H   0  0  0  0  0  0  0  0  0  0  0  0
  145.0372   72.4455  219.9235 H   0  0  0  0  0  0  0  0  0  0  0  0
  143.5998   72.1287  217.1924 H   0  0  0  0  0  0  0  0  0  0  0  0
  145.3781   72.4080  217.3897 H   0  0  0  0  0  0  0  0  0  0  0  0
  143.3775   69.5147  216.8534 H   0  0  0  0  0  0  0  0  0  0  0  0
  144.7146   70.5079  215.9972 H   0  0  0  0  0  0  0  0  0  0  0  0
  144.7111   68.1367  215.6964 H   0  0  0  0  0  0  0  0  0  0  0  0
  146.7096   69.9241  215.6432 H   0  0  0  0  0  0  0  0  0  0  0  0
  147.1918   69.2540  217.2356 H   0  0  0  0  0  0  0  0  0  0  0  0
  147.0129   67.7703  214.5725 H   0  0  0  0  0  0  0  0  0  0  0  0
  148.4886   68.1239  215.5057 H   0  0  0  0  0  0  0  0  0  0  0  0
  148.0100   66.0760  216.3780 H   0  0  0  0  0  0  0  0  0  0  0  0
  146.6668   66.0554  218.2662 H   0  0  0  0  0  0  0  0  0  0  0  0
  147.3637   67.7220  218.1553 H   0  0  0  0  0  0  0  0  0  0  0  0
  144.5713   66.7791  217.4097 H   0  0  0  0  0  0  0  0  0  0  0  0
  145.0578   68.0470  218.5878 H   0  0  0  0  0  0  0  0  0  0  0  0
  143.6532   68.9564  218.8491 H   0  0  0  0  0  0  0  0  0  0  0  0
  144.3926   70.0794  220.0167 H   0  0  0  0  0  0  0  0  0  0  0  0
  142.1619   70.9258  218.0786 H   0  0  0  0  0  0  0  0  0  0  0  0
  141.7997   70.3103  219.6899 H   0  0  0  0  0  0  0  0  0  0  0  0
  138.1571   71.4437  222.3234 H   0  0  0  0  0  0  0  0  0  0  0  0
  139.4267   70.1621  222.0925 H   0  0  0  0  0  0  0  0  0  0  0  0
  137.6349   70.6495  224.4748 H   0  0  0  0  0  0  0  0  0  0  0  0
  137.8070   69.1734  223.4303 H   0  0  0  0  0  0  0  0  0  0  0  0
  138.5383   67.4626  224.9187 H   0  0  0  0  0  0  0  0  0  0  0  0
  140.3096   66.7043  226.4564 H   0  0  0  0  0  0  0  0  0  0  0  0
  142.0930   68.2471  227.2213 H   0  0  0  0  0  0  0  0  0  0  0  0
  142.0973   70.5986  226.4334 H   0  0  0  0  0  0  0  0  0  0  0  0
  139.4686   72.2874  225.2541 H   0  0  0  0  0  0  0  0  0  0  0  0
  141.2348   72.2346  224.8739 H   0  0  0  0  0  0  0  0  0  0  0  0
  139.6742   76.7542  222.9738 H   0  0  0  0  0  0  0  0  0  0  0  0
  141.3413   76.3257  223.4605 H   0  0  0  0  0  0  0  0  0  0  0  0
  1  2  2  0
  2  3  1  0
  3  4  2  0
  4  5  1  0
  5  6  2  0
  5  7  1  0
  7  8  1  0
  8  9  1  0
  9 10  1  0
 10 11  2  0
 11 12  1  0
 12 13  1  0
 13 14  1  0
 14 15  1  0
 15 16  1  0
 16 17  1  0
 17 18  1  0
 18 19  1  0
 19 20  1  0
 20 21  1  0
 21 22  1  0
 22 23  1  0
 16 24  1  0
 24 25  1  0
 12 26  2  0
 26 27  1  0
 27 28  1  0
 28 29  1  0
 29 30  1  0
 30 31  1  0
 31 32  2  0
 32 33  1  0
 33 34  2  0
 34 35  1  0
 35 36  2  0
 36 37  1  0
 27 38  2  0
  9 39  1  0
  6  1  1  0
 38 10  1  0
 39  4  1  0
 25 13  1  0
 37 28  1  0
 23 18  1  0
 36 31  1  0
  1 40  1  0
  2 41  1  0
  3 42  1  0
  6 43  1  0
  7 44  1  0
  7 45  1  0
  8 46  1  0
  8 47  1  0
 14 48  1  0
 14 49  1  0
 15 50  1  0
 15 51  1  0
 17 52  1  0
 17 53  1  0
 18 54  1  0
 19 55  1  0
 19 56  1  0
 20 57  1  0
 20 58  1  0
 21 59  1  0
 22 60  1  0
 22 61  1  0
 23 62  1  0
 23 63  1  0
 24 64  1  0
 24 65  1  0
 25 66  1  0
 25 67  1  0
 29 68  1  0
 29 69  1  0
 30 70  1  0
 30 71  1  0
 32 72  1  0
 33 73  1  0
 34 74  1  0
 35 75  1  0
 37 76  1  0
 37 77  1  0
 39 78  1  0
 39 79  1  0
M  END
>  <smiles>  (49) 
c1ccc2c(c1)CCN(c1nc(N3CCN(CC4CCNCC4)CC3)nc(N3CCc4ccccc4C3)n1)C2

>  <score_type>  (49) 
oracle

>  <origin>  (49) 
autodockgpu

>  <m_score__min__energy>  (49) 
-10.470000000000001

>  <m_primary>  (49) 
energy

>  <rmsd>  (49) 
11.420517329899246

>  <m_score__min__rmsd>  (49) 
11.420517329899246

>  <meeko>  (49) 
{"free_energy": -9.69, "intermolecular_energy": -11.18, "internal_energy": -1.2, "cluster_size": 7, "cluster_id": 2, "rank_in_cluster": 5}

>  <energy>  (49) 
-9.56

>  <cluster_rmsd>  (49) 
0.0

>  <cluster>  (49) 
4

$$$$

     RDKit          3D

 79 85  0  0  0  0  0  0  0  0999 V2000
  146.2470   69.7670  216.7200 C   0  0  0  0  0  0  0  0  0  0  0  0
  145.8060   68.7110  217.4940 C   0  0  0  0  0  0  0  0  0  0  0  0
  144.9870   68.9940  218.5870 C   0  0  0  0  0  0  0  0  0  0  0  0
  144.6100   70.2800  218.9130 C   0  0  0  0  0  0  0  0  0  0  0  0
  145.0760   71.2950  218.1110 C   0  0  0  0  0  0  0  0  0  0  0  0
  145.8910   71.0770  217.0130 C   0  0  0  0  0  0  0  0  0  0  0  0
  144.7230   72.7260  218.3840 C   0  0  0  0  0  0  0  0  0  0  0  0
  144.5550   72.8880  219.8800 C   0  0  0  0  0  0  0  0  0  0  0  0
  143.5980   71.8950  220.3230 N   0  0  0  0  0  0  0  0  0  0  0  0
  142.4450   72.3500  221.0350 C   0  0  0  0  0  0  0  0  0  0  0  0
  141.9480   73.6080  220.8570 N   0  0  0  0  0  0  0  0  0  0  0  0
  140.8770   74.0370  221.5140 C   0  0  0  0  0  0  0  0  0  0  0  0
  140.3470   75.3350  221.3440 N   0  0  0  0  0  0  0  0  0  0  0  0
  139.1810   75.6240  220.5310 C   0  0  0  0  0  0  0  0  0  0  0  0
  139.3470   77.1100  220.1340 C   0  0  0  0  0  0  0  0  0  0  0  0
  139.2350   77.9620  221.2600 N   0  0  0  0  0  0  0  0  0  0  0  0
  139.8430   79.2230  221.0930 C   0  0  0  0  0  0  0  0  0  0  0  0
  140.6480   79.7900  222.2020 C   0  0  0  0  0  0  0  0  0  0  0  0
  142.1430   79.6270  221.8540 C   0  0  0  0  0  0  0  0  0  0  0  0
  142.9600   79.7760  223.1080 C   0  0  0  0  0  0  0  0  0  0  0  0
  142.5540   81.0150  223.7470 N   0  0  0  0  0  0  0  0  0  0  0  0
  141.8020   81.8600  222.8660 C   0  0  0  0  0  0  0  0  0  0  0  0
  140.4620   81.2360  222.5130 C   0  0  0  0  0  0  0  0  0  0  0  0
  139.8080   77.3480  222.4530 C   0  0  0  0  0  0  0  0  0  0  0  0
  140.9690   76.4830  222.0030 C   0  0  0  0  0  0  0  0  0  0  0  0
  140.2810   73.1980  222.3720 N   0  0  0  0  0  0  0  0  0  0  0  0
  140.7100   71.9640  222.5930 C   0  0  0  0  0  0  0  0  0  0  0  0
  140.0110   71.1460  223.5240 N   0  0  0  0  0  0  0  0  0  0  0  0
  139.3290   69.9770  223.0250 C   0  0  0  0  0  0  0  0  0  0  0  0
  138.6290   69.2080  224.1160 C   0  0  0  0  0  0  0  0  0  0  0  0
  139.4770   69.0530  225.3220 C   0  0  0  0  0  0  0  0  0  0  0  0
  139.5930   67.8520  225.9930 C   0  0  0  0  0  0  0  0  0  0  0  0
  140.4000   67.8130  227.0910 C   0  0  0  0  0  0  0  0  0  0  0  0
  141.0890   68.9330  227.5360 C   0  0  0  0  0  0  0  0  0  0  0  0
  140.9540   70.1200  226.8490 C   0  0  0  0  0  0  0  0  0  0  0  0
  140.1560   70.2000  225.7440 C   0  0  0  0  0  0  0  0  0  0  0  0
  139.9510   71.4320  224.9450 C   0  0  0  0  0  0  0  0  0  0  0  0
  141.7960   71.5450  221.9180 N   0  0  0  0  0  0  0  0  0  0  0  0
  143.7380   70.4780  220.0930 C   0  0  0  0  0  0  0  0  0  0  0  0
  146.8938   69.5659  215.8533 H   0  0  0  0  0  0  0  0  0  0  0  0
  146.0927   67.6762  217.2550 H   0  0  0  0  0  0  0  0  0  0  0  0
  144.6291   68.1620  219.2112 H   0  0  0  0  0  0  0  0  0  0  0  0
  146.2449   71.9140  216.3931 H   0  0  0  0  0  0  0  0  0  0  0  0
  145.5279   73.3843  218.0251 H   0  0  0  0  0  0  0  0  0  0  0  0
  143.7928   72.9967  217.8630 H   0  0  0  0  0  0  0  0  0  0  0  0
  145.5195   72.7310  220.3850 H   0  0  0  0  0  0  0  0  0  0  0  0
  144.2007   73.9010  220.1216 H   0  0  0  0  0  0  0  0  0  0  0  0
  139.1607   74.9824  219.6377 H   0  0  0  0  0  0  0  0  0  0  0  0
  138.2391   75.4361  221.0673 H   0  0  0  0  0  0  0  0  0  0  0  0
  140.3377   77.2497  219.6768 H   0  0  0  0  0  0  0  0  0  0  0  0
  138.5486   77.3694  219.4232 H   0  0  0  0  0  0  0  0  0  0  0  0
  140.5076   79.1464  220.2198 H   0  0  0  0  0  0  0  0  0  0  0  0
  138.9920   79.9147  221.0069 H   0  0  0  0  0  0  0  0  0  0  0  0
  140.3005   79.2334  223.0848 H   0  0  0  0  0  0  0  0  0  0  0  0
  142.3135   78.6309  221.4196 H   0  0  0  0  0  0  0  0  0  0  0  0
  142.4395   80.3958  221.1253 H   0  0  0  0  0  0  0  0  0  0  0  0
  142.7728   78.9268  223.7817 H   0  0  0  0  0  0  0  0  0  0  0  0
  144.0341   79.7952  222.8714 H   0  0  0  0  0  0  0  0  0  0  0  0
  143.3320   81.5020  224.2040 H   0  0  0  0  0  0  0  0  0  0  0  0
  141.6279   82.8276  223.3595 H   0  0  0  0  0  0  0  0  0  0  0  0
  142.3777   81.9944  221.9383 H   0  0  0  0  0  0  0  0  0  0  0  0
  139.7738   81.3414  223.3646 H   0  0  0  0  0  0  0  0  0  0  0  0
  140.0423   81.7469  221.6339 H   0  0  0  0  0  0  0  0  0  0  0  0
  140.1646   78.1271  223.1428 H   0  0  0  0  0  0  0  0  0  0  0  0
  139.0544   76.7442  222.9798 H   0  0  0  0  0  0  0  0  0  0  0  0
  141.6114   77.0325  221.2992 H   0  0  0  0  0  0  0  0  0  0  0  0
  141.6116   76.1812  222.8432 H   0  0  0  0  0  0  0  0  0  0  0  0
  138.5823   70.2943  222.2822 H   0  0  0  0  0  0  0  0  0  0  0  0
  140.0850   69.3132  222.5802 H   0  0  0  0  0  0  0  0  0  0  0  0
  137.7105   69.7450  224.3950 H   0  0  0  0  0  0  0  0  0  0  0  0
  138.4026   68.2031  223.7300 H   0  0  0  0  0  0  0  0  0  0  0  0
  139.0523   66.9564  225.6530 H   0  0  0  0  0  0  0  0  0  0  0  0
  140.5084   66.8663  227.6405 H   0  0  0  0  0  0  0  0  0  0  0  0
  141.7341   68.8738  228.4250 H   0  0  0  0  0  0  0  0  0  0  0  0
  141.4952   71.0131  227.1948 H   0  0  0  0  0  0  0  0  0  0  0  0
  138.9651   71.8566  225.1852 H   0  0  0  0  0  0  0  0  0  0  0  0
  140.7493   72.1472  225.1926 H   0  0  0  0  0  0  0  0  0  0  0  0
  144.1919   70.0016  220.9745 H   0  0  0  0  0  0  0  0  0  0  0  0
  142.7517   70.0248  219.9144 H   0  0  0  0  0  0  0  0  0  0  0  0
  1  2  2  0
  2  3  1  0
  3  4  2  0
  4  5  1  0
  5  6  2  0
  5  7  1  0
  7  8  1  0
  8  9  1  0
  9 10  1  0
 10 11  2  0
 11 12  1  0
 12 13  1  0
 13 14  1  0
 14 15  1  0
 15 16  1  0
 16 17  1  0
 17 18  1  0
 18 19  1  0
 19 20  1  0
 20 21  1  0
 21 22  1  0
 22 23  1  0
 16 24  1  0
 24 25  1  0
 12 26  2  0
 26 27  1  0
 27 28  1  0
 28 29  1  0
 29 30  1  0
 30 31  1  0
 31 32  2  0
 32 33  1  0
 33 34  2  0
 34 35  1  0
 35 36  2  0
 36 37  1  0
 27 38  2  0
  9 39  1  0
  6  1  1  0
 38 10  1  0
 39  4  1  0
 25 13  1  0
 37 28  1  0
 23 18  1  0
 36 31  1  0
  1 40  1  0
  2 41  1  0
  3 42  1  0
  6 43  1  0
  7 44  1  0
  7 45  1  0
  8 46  1  0
  8 47  1  0
 14 48  1  0
 14 49  1  0
 15 50  1  0
 15 51  1  0
 17 52  1  0
 17 53  1  0
 18 54  1  0
 19 55  1  0
 19 56  1  0
 20 57  1  0
 20 58  1  0
 21 59  1  0
 22 60  1  0
 22 61  1  0
 23 62  1  0
 23 63  1  0
 24 64  1  0
 24 65  1  0
 25 66  1  0
 25 67  1  0
 29 68  1  0
 29 69  1  0
 30 70  1  0
 30 71  1  0
 32 72  1  0
 33 73  1  0
 34 74  1  0
 35 75  1  0
 37 76  1  0
 37 77  1  0
 39 78  1  0
 39 79  1  0
M  END
>  <smiles>  (50) 
c1ccc2c(c1)CCN(c1nc(N3CCN(CC4CCNCC4)CC3)nc(N3CCc4ccccc4C3)n1)C2

>  <score_type>  (50) 
oracle

>  <origin>  (50) 
autodockgpu

>  <m_score__min__energy>  (50) 
-10.470000000000001

>  <m_primary>  (50) 
energy

>  <rmsd>  (50) 
3.694910351704897

>  <m_score__min__rmsd>  (50) 
3.694910351704897

>  <meeko>  (50) 
{"free_energy": -9.67, "intermolecular_energy": -11.16, "internal_energy": -1.25, "cluster_size": 32, "cluster_id": 3, "rank_in_cluster": 14}

>  <energy>  (50) 
-9.19

>  <cluster_rmsd>  (50) 
0.0

>  <cluster>  (50) 
5

$$$$
