
     RDKit          3D

 52 56  0  0  1  0  0  0  0  0999 V2000
  140.6660   74.5140  221.9190 O   0  0  0  0  0  0  0  0  0  0  0  0
  139.6430   75.2680  221.9570 C   0  0  0  0  0  0  0  0  0  0  0  0
  138.3420   74.8110  221.6590 N   0  0  0  0  0  0  0  0  0  0  0  0
  138.1450   73.4220  221.2950 C   0  0  0  0  0  0  0  0  0  0  0  0
  137.3560   72.7280  222.3440 C   0  0  0  0  0  0  0  0  0  0  0  0
  136.3100   73.3070  222.7400 O   0  0  0  0  0  0  0  0  0  0  0  0
  137.7910   71.4700  222.8560 N   0  0  0  0  0  0  0  0  0  0  0  0
  136.9060   70.7100  223.7150 C   0  0  0  0  0  0  0  0  0  0  0  0
  137.7340   69.6960  224.4820 C   0  0  1  0  0  0  0  0  0  0  0  0
  138.4830   68.8740  223.4580 C   0  0  0  0  0  0  0  0  0  0  0  0
  139.5420   69.9570  223.4680 C   0  0  1  0  0  0  0  0  0  0  0  0
  139.1170   71.0330  222.4690 C   0  0  0  0  0  0  0  0  0  0  0  0
  139.0920   70.3440  224.8250 C   0  0  2  0  0  0  0  0  0  0  0  0
  139.7580   69.8100  226.0050 C   0  0  0  0  0  0  0  0  0  0  0  0
  140.3960   70.7190  226.8510 C   0  0  0  0  0  0  0  0  0  0  0  0
  141.0670   70.3160  227.9870 C   0  0  0  0  0  0  0  0  0  0  0  0
  141.1330   68.9750  228.3360 C   0  0  0  0  0  0  0  0  0  0  0  0
  140.5070   68.0610  227.5140 C   0  0  0  0  0  0  0  0  0  0  0  0
  139.8380   68.4910  226.3740 C   0  0  0  0  0  0  0  0  0  0  0  0
  139.8450   76.6810  222.3280 C   0  0  0  0  0  0  0  0  0  0  0  0
  138.7740   77.5430  222.4400 C   0  0  0  0  0  0  0  0  0  0  0  0
  138.8990   78.8720  222.7820 C   0  0  0  0  0  0  0  0  0  0  0  0
  140.1710   79.3520  223.0230 C   0  0  0  0  0  0  0  0  0  0  0  0
  140.2950   80.6700  223.3630 C   0  0  0  0  0  0  0  0  0  0  0  0
  141.5450   81.2020  223.6140 C   0  0  0  0  0  0  0  0  0  0  0  0
  142.6380   80.3590  223.5100 C   0  0  0  0  0  0  0  0  0  0  0  0
  142.4940   79.0230  223.1640 C   0  0  0  0  0  0  0  0  0  0  0  0
  141.2350   78.4810  222.9090 C   0  0  0  0  0  0  0  0  0  0  0  0
  141.0660   77.1890  222.5710 N   0  0  0  0  0  0  0  0  0  0  0  0
  137.5550   75.4890  221.7100 H   0  0  0  0  0  0  0  0  0  0  0  0
  137.6045   73.3694  220.3384 H   0  0  0  0  0  0  0  0  0  0  0  0
  139.1251   72.9322  221.1977 H   0  0  0  0  0  0  0  0  0  0  0  0
  136.4017   71.3870  224.4202 H   0  0  0  0  0  0  0  0  0  0  0  0
  136.1443   70.1953  223.1109 H   0  0  0  0  0  0  0  0  0  0  0  0
  137.0732   69.2624  225.2471 H   0  0  0  0  0  0  0  0  0  0  0  0
  138.8258   67.8928  223.8181 H   0  0  0  0  0  0  0  0  0  0  0  0
  138.0078   68.5358  222.5254 H   0  0  0  0  0  0  0  0  0  0  0  0
  140.6014   69.7500  223.2563 H   0  0  0  0  0  0  0  0  0  0  0  0
  139.8189   71.8793  222.5038 H   0  0  0  0  0  0  0  0  0  0  0  0
  139.1161   70.6374  221.4426 H   0  0  0  0  0  0  0  0  0  0  0  0
  139.2103   71.3876  225.1519 H   0  0  0  0  0  0  0  0  0  0  0  0
  140.3626   71.7904  226.6040 H   0  0  0  0  0  0  0  0  0  0  0  0
  141.5560   71.0676  228.6242 H   0  0  0  0  0  0  0  0  0  0  0  0
  141.6682   68.6504  229.2406 H   0  0  0  0  0  0  0  0  0  0  0  0
  140.5373   66.9896  227.7612 H   0  0  0  0  0  0  0  0  0  0  0  0
  139.3497   67.7383  225.7377 H   0  0  0  0  0  0  0  0  0  0  0  0
  137.7658   77.1482  222.2459 H   0  0  0  0  0  0  0  0  0  0  0  0
  138.0181   79.5262  222.8601 H   0  0  0  0  0  0  0  0  0  0  0  0
  139.4007   81.3063  223.4367 H   0  0  0  0  0  0  0  0  0  0  0  0
  141.6677   82.2604  223.8874 H   0  0  0  0  0  0  0  0  0  0  0  0
  143.6443   80.7576  223.7062 H   0  0  0  0  0  0  0  0  0  0  0  0
  143.3854   78.3827  223.0899 H   0  0  0  0  0  0  0  0  0  0  0  0
  1  2  2  0
  2  3  1  0
  3  4  1  0
  4  5  1  0
  5  6  2  0
  5  7  1  0
  7  8  1  0
  8  9  1  0
  9 10  1  0
 10 11  1  0
 11 12  1  0
 11 13  1  0
 13 14  1  0
 14 15  2  0
 15 16  1  0
 16 17  2  0
 17 18  1  0
 18 19  2  0
  2 20  1  0
 20 21  2  0
 21 22  1  0
 22 23  2  0
 23 24  1  0
 24 25  2  0
 25 26  1  0
 26 27  2  0
 27 28  1  0
 28 29  2  0
 12  7  1  0
 19 14  1  0
 29 20  1  0
 13  9  1  0
 28 23  1  0
  3 30  1  0
  4 31  1  0
  4 32  1  0
  8 33  1  0
  8 34  1  0
  9 35  1  1
 10 36  1  0
 10 37  1  0
 11 38  1  1
 12 39  1  0
 12 40  1  0
 13 41  1  6
 15 42  1  0
 16 43  1  0
 17 44  1  0
 18 45  1  0
 19 46  1  0
 21 47  1  0
 22 48  1  0
 24 49  1  0
 25 50  1  0
 26 51  1  0
 27 52  1  0
M  END
>  <smiles>  (1) 
O=C(NCC(=O)N1C[C@H]2C[C@@H](C1)C2c1ccccc1)c1ccc2ccccc2n1

>  <score_type>  (1) 
oracle

>  <origin>  (1) 
autodockgpu

>  <m_score__min__energy>  (1) 
-9.5

>  <m_primary>  (1) 
energy

>  <rmsd>  (1) 
8.297931939546942

>  <m_score__min__rmsd>  (1) 
8.297931939546942

>  <meeko>  (1) 
{"free_energy": -9.16, "intermolecular_energy": -10.65, "internal_energy": -1.33, "cluster_size": 10, "cluster_id": 2, "rank_in_cluster": 7}

>  <energy>  (1) 
-9.5

>  <cluster_rmsd>  (1) 
0.0

>  <cluster>  (1) 
1

$$$$

     RDKit          3D

 52 56  0  0  1  0  0  0  0  0999 V2000
  140.3120   70.9640  221.5190 O   0  0  0  0  0  0  0  0  0  0  0  0
  139.7190   71.4120  222.5500 C   0  0  0  0  0  0  0  0  0  0  0  0
  139.0190   72.6380  222.5600 N   0  0  0  0  0  0  0  0  0  0  0  0
  138.9620   73.4310  221.3490 C   0  0  0  0  0  0  0  0  0  0  0  0
  138.5720   74.8260  221.6710 C   0  0  0  0  0  0  0  0  0  0  0  0
  137.5070   74.9770  222.3280 O   0  0  0  0  0  0  0  0  0  0  0  0
  139.3830   75.9180  221.2420 N   0  0  0  0  0  0  0  0  0  0  0  0
  140.8230   75.8160  221.3500 C   0  0  0  0  0  0  0  0  0  0  0  0
  141.4100   77.2140  221.2890 C   0  0  1  0  0  0  0  0  0  0  0  0
  140.9140   77.8450  220.0080 C   0  0  0  0  0  0  0  0  0  0  0  0
  139.6700   78.2470  220.7720 C   0  0  1  0  0  0  0  0  0  0  0  0
  138.6890   77.0760  220.7150 C   0  0  0  0  0  0  0  0  0  0  0  0
  140.4510   78.1710  222.0270 C   0  0  2  0  0  0  0  0  0  0  0  0
  141.0690   79.3650  222.5870 C   0  0  0  0  0  0  0  0  0  0  0  0
  142.0020   79.1900  223.6100 C   0  0  0  0  0  0  0  0  0  0  0  0
  142.6350   80.2550  224.2160 C   0  0  0  0  0  0  0  0  0  0  0  0
  142.3640   81.5590  223.8260 C   0  0  0  0  0  0  0  0  0  0  0  0
  141.4450   81.7540  222.8160 C   0  0  0  0  0  0  0  0  0  0  0  0
  140.8210   80.6640  222.2200 C   0  0  0  0  0  0  0  0  0  0  0  0
  139.7770   70.6040  223.7820 C   0  0  0  0  0  0  0  0  0  0  0  0
  139.2230   69.3410  223.8260 C   0  0  0  0  0  0  0  0  0  0  0  0
  139.2440   68.5390  224.9460 C   0  0  0  0  0  0  0  0  0  0  0  0
  139.8570   69.0400  226.0790 C   0  0  0  0  0  0  0  0  0  0  0  0
  139.8790   68.2440  227.1890 C   0  0  0  0  0  0  0  0  0  0  0  0
  140.4790   68.6960  228.3490 C   0  0  0  0  0  0  0  0  0  0  0  0
  141.0440   69.9610  228.3330 C   0  0  0  0  0  0  0  0  0  0  0  0
  141.0120   70.7560  227.1950 C   0  0  0  0  0  0  0  0  0  0  0  0
  140.4080   70.3040  226.0230 C   0  0  0  0  0  0  0  0  0  0  0  0
  140.3630   71.0530  224.9060 N   0  0  0  0  0  0  0  0  0  0  0  0
  138.5600   72.9390  223.4430 H   0  0  0  0  0  0  0  0  0  0  0  0
  139.9511   73.4316  220.8676 H   0  0  0  0  0  0  0  0  0  0  0  0
  138.2150   72.9962  220.6687 H   0  0  0  0  0  0  0  0  0  0  0  0
  141.0909   75.3424  222.3060 H   0  0  0  0  0  0  0  0  0  0  0  0
  141.2205   75.2038  220.5271 H   0  0  0  0  0  0  0  0  0  0  0  0
  142.4743   77.1213  221.5509 H   0  0  0  0  0  0  0  0  0  0  0  0
  141.5222   78.6865  219.6447 H   0  0  0  0  0  0  0  0  0  0  0  0
  140.8592   77.2797  219.0659 H   0  0  0  0  0  0  0  0  0  0  0  0
  139.0845   79.1431  220.5187 H   0  0  0  0  0  0  0  0  0  0  0  0
  137.8018   77.2959  221.3269 H   0  0  0  0  0  0  0  0  0  0  0  0
  138.3507   76.8962  219.6839 H   0  0  0  0  0  0  0  0  0  0  0  0
  139.9345   77.9210  222.9655 H   0  0  0  0  0  0  0  0  0  0  0  0
  142.2403   78.1694  223.9439 H   0  0  0  0  0  0  0  0  0  0  0  0
  143.3638   80.0685  225.0185 H   0  0  0  0  0  0  0  0  0  0  0  0
  142.8666   82.4108  224.3075 H   0  0  0  0  0  0  0  0  0  0  0  0
  141.2054   82.7741  222.4814 H   0  0  0  0  0  0  0  0  0  0  0  0
  140.0940   80.8516  221.4161 H   0  0  0  0  0  0  0  0  0  0  0  0
  138.7384   68.9535  222.9177 H   0  0  0  0  0  0  0  0  0  0  0  0
  138.7898   67.5372  224.9388 H   0  0  0  0  0  0  0  0  0  0  0  0
  139.4199   67.2448  227.1595 H   0  0  0  0  0  0  0  0  0  0  0  0
  140.5071   68.0723  229.2547 H   0  0  0  0  0  0  0  0  0  0  0  0
  141.5291   70.3444  229.2428 H   0  0  0  0  0  0  0  0  0  0  0  0
  141.4695   71.7561  227.2188 H   0  0  0  0  0  0  0  0  0  0  0  0
  1  2  2  0
  2  3  1  0
  3  4  1  0
  4  5  1  0
  5  6  2  0
  5  7  1  0
  7  8  1  0
  8  9  1  0
  9 10  1  0
 10 11  1  0
 11 12  1  0
 11 13  1  0
 13 14  1  0
 14 15  2  0
 15 16  1  0
 16 17  2  0
 17 18  1  0
 18 19  2  0
  2 20  1  0
 20 21  2  0
 21 22  1  0
 22 23  2  0
 23 24  1  0
 24 25  2  0
 25 26  1  0
 26 27  2  0
 27 28  1  0
 28 29  2  0
 12  7  1  0
 19 14  1  0
 29 20  1  0
 13  9  1  0
 28 23  1  0
  3 30  1  0
  4 31  1  0
  4 32  1  0
  8 33  1  0
  8 34  1  0
  9 35  1  1
 10 36  1  0
 10 37  1  0
 11 38  1  6
 12 39  1  0
 12 40  1  0
 13 41  1  1
 15 42  1  0
 16 43  1  0
 17 44  1  0
 18 45  1  0
 19 46  1  0
 21 47  1  0
 22 48  1  0
 24 49  1  0
 25 50  1  0
 26 51  1  0
 27 52  1  0
M  END
>  <smiles>  (2) 
O=C(NCC(=O)N1C[C@H]2C[C@@H](C1)C2c1ccccc1)c1ccc2ccccc2n1

>  <score_type>  (2) 
oracle

>  <origin>  (2) 
autodockgpu

>  <m_score__min__energy>  (2) 
-9.5

>  <m_primary>  (2) 
energy

>  <rmsd>  (2) 
2.090790621456608

>  <m_score__min__rmsd>  (2) 
2.090790621456608

>  <meeko>  (2) 
{"free_energy": -8.96, "intermolecular_energy": -10.45, "internal_energy": -1.41, "cluster_size": 36, "cluster_id": 1, "rank_in_cluster": 29}

>  <energy>  (2) 
-9.46

>  <cluster_rmsd>  (2) 
0.08

>  <cluster>  (2) 
1

$$$$

     RDKit          3D

 52 56  0  0  1  0  0  0  0  0999 V2000
  139.4370   70.9840  221.1490 O   0  0  0  0  0  0  0  0  0  0  0  0
  140.1740   71.5430  222.0220 C   0  0  0  0  0  0  0  0  0  0  0  0
  141.0690   72.5900  221.7130 N   0  0  0  0  0  0  0  0  0  0  0  0
  141.1620   73.0620  220.3470 C   0  0  0  0  0  0  0  0  0  0  0  0
  141.8680   74.3670  220.3060 C   0  0  0  0  0  0  0  0  0  0  0  0
  143.0860   74.3410  219.9840 O   0  0  0  0  0  0  0  0  0  0  0  0
  141.1720   75.5720  220.6200 N   0  0  0  0  0  0  0  0  0  0  0  0
  141.2080   76.6760  219.6840 C   0  0  0  0  0  0  0  0  0  0  0  0
  140.8220   77.9450  220.4220 C   0  0  1  0  0  0  0  0  0  0  0  0
  139.4720   77.6940  221.0550 C   0  0  0  0  0  0  0  0  0  0  0  0
  140.2140   77.0720  222.2200 C   0  0  1  0  0  0  0  0  0  0  0  0
  140.4630   75.6020  221.8830 C   0  0  0  0  0  0  0  0  0  0  0  0
  141.4050   77.8680  221.8480 C   0  0  2  0  0  0  0  0  0  0  0  0
  141.6660   79.1510  222.4860 C   0  0  0  0  0  0  0  0  0  0  0  0
  141.2230   80.3010  221.8290 C   0  0  0  0  0  0  0  0  0  0  0  0
  141.4310   81.5640  222.3410 C   0  0  0  0  0  0  0  0  0  0  0  0
  142.0960   81.7430  223.5460 C   0  0  0  0  0  0  0  0  0  0  0  0
  142.5400   80.6200  224.2120 C   0  0  0  0  0  0  0  0  0  0  0  0
  142.3190   79.3560  223.6750 C   0  0  0  0  0  0  0  0  0  0  0  0
  140.0770   71.0620  223.4120 C   0  0  0  0  0  0  0  0  0  0  0  0
  139.3640   69.9210  223.7180 C   0  0  0  0  0  0  0  0  0  0  0  0
  139.2370   69.4240  224.9970 C   0  0  0  0  0  0  0  0  0  0  0  0
  139.8610   70.1150  226.0170 C   0  0  0  0  0  0  0  0  0  0  0  0
  139.7350   69.6210  227.2840 C   0  0  0  0  0  0  0  0  0  0  0  0
  140.3390   70.2730  228.3420 C   0  0  0  0  0  0  0  0  0  0  0  0
  141.0620   71.4220  228.0630 C   0  0  0  0  0  0  0  0  0  0  0  0
  141.1790   71.9100  226.7690 C   0  0  0  0  0  0  0  0  0  0  0  0
  140.5710   71.2540  225.6990 C   0  0  0  0  0  0  0  0  0  0  0  0
  140.6690   71.7050  224.4350 N   0  0  0  0  0  0  0  0  0  0  0  0
  141.6390   72.9960  222.4820 H   0  0  0  0  0  0  0  0  0  0  0  0
  141.7184   72.3281  219.7454 H   0  0  0  0  0  0  0  0  0  0  0  0
  140.1481   73.1879  219.9394 H   0  0  0  0  0  0  0  0  0  0  0  0
  142.2225   76.7803  219.2719 H   0  0  0  0  0  0  0  0  0  0  0  0
  140.5063   76.4924  218.8570 H   0  0  0  0  0  0  0  0  0  0  0  0
  141.0295   78.7825  219.7397 H   0  0  0  0  0  0  0  0  0  0  0  0
  138.9050   78.6031  221.3040 H   0  0  0  0  0  0  0  0  0  0  0  0
  138.6724   77.1575  220.5232 H   0  0  0  0  0  0  0  0  0  0  0  0
  139.8188   77.0830  223.2465 H   0  0  0  0  0  0  0  0  0  0  0  0
  141.0718   75.1319  222.6694 H   0  0  0  0  0  0  0  0  0  0  0  0
  139.5148   75.0486  221.8145 H   0  0  0  0  0  0  0  0  0  0  0  0
  142.4057   77.4761  222.0825 H   0  0  0  0  0  0  0  0  0  0  0  0
  140.6909   80.1956  220.8720 H   0  0  0  0  0  0  0  0  0  0  0  0
  141.0652   82.4413  221.7873 H   0  0  0  0  0  0  0  0  0  0  0  0
  142.2637   82.7494  223.9571 H   0  0  0  0  0  0  0  0  0  0  0  0
  143.0702   80.7241  225.1702 H   0  0  0  0  0  0  0  0  0  0  0  0
  142.6850   78.4795  224.2298 H   0  0  0  0  0  0  0  0  0  0  0  0
  138.8708   69.3793  222.8974 H   0  0  0  0  0  0  0  0  0  0  0  0
  138.6594   68.5098  225.1983 H   0  0  0  0  0  0  0  0  0  0  0  0
  139.1531   68.7047  227.4621 H   0  0  0  0  0  0  0  0  0  0  0  0
  140.2491   69.8931  229.3704 H   0  0  0  0  0  0  0  0  0  0  0  0
  141.5547   71.9598  228.8864 H   0  0  0  0  0  0  0  0  0  0  0  0
  141.7590   72.8264  226.5849 H   0  0  0  0  0  0  0  0  0  0  0  0
  1  2  2  0
  2  3  1  0
  3  4  1  0
  4  5  1  0
  5  6  2  0
  5  7  1  0
  7  8  1  0
  8  9  1  0
  9 10  1  0
 10 11  1  0
 11 12  1  0
 11 13  1  0
 13 14  1  0
 14 15  2  0
 15 16  1  0
 16 17  2  0
 17 18  1  0
 18 19  2  0
  2 20  1  0
 20 21  2  0
 21 22  1  0
 22 23  2  0
 23 24  1  0
 24 25  2  0
 25 26  1  0
 26 27  2  0
 27 28  1  0
 28 29  2  0
 12  7  1  0
 19 14  1  0
 29 20  1  0
 13  9  1  0
 28 23  1  0
  3 30  1  0
  4 31  1  0
  4 32  1  0
  8 33  1  0
  8 34  1  0
  9 35  1  6
 10 36  1  0
 10 37  1  0
 11 38  1  1
 12 39  1  0
 12 40  1  0
 13 41  1  6
 15 42  1  0
 16 43  1  0
 17 44  1  0
 18 45  1  0
 19 46  1  0
 21 47  1  0
 22 48  1  0
 24 49  1  0
 25 50  1  0
 26 51  1  0
 27 52  1  0
M  END
>  <smiles>  (3) 
O=C(NCC(=O)N1C[C@H]2C[C@@H](C1)C2c1ccccc1)c1ccc2ccccc2n1

>  <score_type>  (3) 
oracle

>  <origin>  (3) 
autodockgpu

>  <m_score__min__energy>  (3) 
-9.5

>  <m_primary>  (3) 
energy

>  <rmsd>  (3) 
2.692021775383373

>  <m_score__min__rmsd>  (3) 
2.692021775383373

>  <meeko>  (3) 
{"free_energy": -8.72, "intermolecular_energy": -10.21, "internal_energy": -1.47, "cluster_size": 36, "cluster_id": 1, "rank_in_cluster": 35}

>  <energy>  (3) 
-9.46

>  <cluster_rmsd>  (3) 
1.3

>  <cluster>  (3) 
1

$$$$

     RDKit          3D

 52 56  0  0  1  0  0  0  0  0999 V2000
  139.6090   73.5050  222.6320 O   0  0  0  0  0  0  0  0  0  0  0  0
  140.2570   72.4120  222.5770 C   0  0  0  0  0  0  0  0  0  0  0  0
  141.0130   72.0250  221.4490 N   0  0  0  0  0  0  0  0  0  0  0  0
  141.0650   72.9010  220.2970 C   0  0  0  0  0  0  0  0  0  0  0  0
  141.9770   74.0410  220.5640 C   0  0  0  0  0  0  0  0  0  0  0  0
  143.1620   73.7530  220.8810 O   0  0  0  0  0  0  0  0  0  0  0  0
  141.5030   75.3820  220.4590 N   0  0  0  0  0  0  0  0  0  0  0  0
  142.3210   76.3730  219.7920 C   0  0  0  0  0  0  0  0  0  0  0  0
  141.8480   77.7520  220.2140 C   0  0  1  0  0  0  0  0  0  0  0  0
  140.3730   77.8280  219.8930 C   0  0  0  0  0  0  0  0  0  0  0  0
  140.1200   77.1750  221.2360 C   0  0  1  0  0  0  0  0  0  0  0  0
  140.2060   75.6610  221.0410 C   0  0  0  0  0  0  0  0  0  0  0  0
  141.4310   77.6840  221.6970 C   0  0  2  0  0  0  0  0  0  0  0  0
  141.5210   78.9400  222.4290 C   0  0  0  0  0  0  0  0  0  0  0  0
  142.7960   79.4160  222.7400 C   0  0  0  0  0  0  0  0  0  0  0  0
  142.9900   80.5880  223.4410 C   0  0  0  0  0  0  0  0  0  0  0  0
  141.9110   81.3470  223.8690 C   0  0  0  0  0  0  0  0  0  0  0  0
  140.6430   80.8950  223.5710 C   0  0  0  0  0  0  0  0  0  0  0  0
  140.4720   79.7110  222.8640 C   0  0  0  0  0  0  0  0  0  0  0  0
  140.2040   71.5220  223.7510 C   0  0  0  0  0  0  0  0  0  0  0  0
  139.6590   70.2580  223.6570 C   0  0  0  0  0  0  0  0  0  0  0  0
  139.5810   69.3820  224.7170 C   0  0  0  0  0  0  0  0  0  0  0  0
  140.0780   69.8060  225.9340 C   0  0  0  0  0  0  0  0  0  0  0  0
  140.0010   68.9370  226.9860 C   0  0  0  0  0  0  0  0  0  0  0  0
  140.4830   69.3100  228.2250 C   0  0  0  0  0  0  0  0  0  0  0  0
  141.0370   70.5740  228.3490 C   0  0  0  0  0  0  0  0  0  0  0  0
  141.1070   71.4440  227.2690 C   0  0  0  0  0  0  0  0  0  0  0  0
  140.6210   71.0720  226.0170 C   0  0  0  0  0  0  0  0  0  0  0  0
  140.6770   71.8950  224.9540 N   0  0  0  0  0  0  0  0  0  0  0  0
  141.5150   71.1150  221.4790 H   0  0  0  0  0  0  0  0  0  0  0  0
  141.4328   72.3368  219.4272 H   0  0  0  0  0  0  0  0  0  0  0  0
  140.0556   73.2876  220.0928 H   0  0  0  0  0  0  0  0  0  0  0  0
  143.3744   76.2383  220.0787 H   0  0  0  0  0  0  0  0  0  0  0  0
  142.2326   76.2620  218.7012 H   0  0  0  0  0  0  0  0  0  0  0  0
  142.5919   78.4702  219.8389 H   0  0  0  0  0  0  0  0  0  0  0  0
  139.9758   78.8492  219.7965 H   0  0  0  0  0  0  0  0  0  0  0  0
  139.9601   77.4159  218.9604 H   0  0  0  0  0  0  0  0  0  0  0  0
  139.2030   77.3529  221.8170 H   0  0  0  0  0  0  0  0  0  0  0  0
  140.1086   75.1492  222.0098 H   0  0  0  0  0  0  0  0  0  0  0  0
  139.3971   75.3028  220.3873 H   0  0  0  0  0  0  0  0  0  0  0  0
  141.9831   77.1231  222.4655 H   0  0  0  0  0  0  0  0  0  0  0  0
  143.6739   78.8380  222.4157 H   0  0  0  0  0  0  0  0  0  0  0  0
  144.0133   80.9249  223.6633 H   0  0  0  0  0  0  0  0  0  0  0  0
  142.0623   82.2814  224.4293 H   0  0  0  0  0  0  0  0  0  0  0  0
  139.7645   81.4731  223.8937 H   0  0  0  0  0  0  0  0  0  0  0  0
  139.4480   79.3759  222.6426 H   0  0  0  0  0  0  0  0  0  0  0  0
  139.2655   69.9322  222.6828 H   0  0  0  0  0  0  0  0  0  0  0  0
  139.1392   68.3816  224.5987 H   0  0  0  0  0  0  0  0  0  0  0  0
  139.5554   67.9411  226.8458 H   0  0  0  0  0  0  0  0  0  0  0  0
  140.4290   68.6264  229.0851 H   0  0  0  0  0  0  0  0  0  0  0  0
  141.4301   70.8954  229.3248 H   0  0  0  0  0  0  0  0  0  0  0  0
  141.5523   72.4408  227.4036 H   0  0  0  0  0  0  0  0  0  0  0  0
  1  2  2  0
  2  3  1  0
  3  4  1  0
  4  5  1  0
  5  6  2  0
  5  7  1  0
  7  8  1  0
  8  9  1  0
  9 10  1  0
 10 11  1  0
 11 12  1  0
 11 13  1  0
 13 14  1  0
 14 15  2  0
 15 16  1  0
 16 17  2  0
 17 18  1  0
 18 19  2  0
  2 20  1  0
 20 21  2  0
 21 22  1  0
 22 23  2  0
 23 24  1  0
 24 25  2  0
 25 26  1  0
 26 27  2  0
 27 28  1  0
 28 29  2  0
 12  7  1  0
 19 14  1  0
 29 20  1  0
 13  9  1  0
 28 23  1  0
  3 30  1  0
  4 31  1  0
  4 32  1  0
  8 33  1  0
  8 34  1  0
  9 35  1  1
 10 36  1  0
 10 37  1  0
 11 38  1  1
 12 39  1  0
 12 40  1  0
 13 41  1  1
 15 42  1  0
 16 43  1  0
 17 44  1  0
 18 45  1  0
 19 46  1  0
 21 47  1  0
 22 48  1  0
 24 49  1  0
 25 50  1  0
 26 51  1  0
 27 52  1  0
M  END
>  <smiles>  (4) 
O=C(NCC(=O)N1C[C@H]2C[C@@H](C1)C2c1ccccc1)c1ccc2ccccc2n1

>  <score_type>  (4) 
oracle

>  <origin>  (4) 
autodockgpu

>  <m_score__min__energy>  (4) 
-9.5

>  <m_primary>  (4) 
energy

>  <rmsd>  (4) 
2.3990201261849804

>  <m_score__min__rmsd>  (4) 
2.3990201261849804

>  <meeko>  (4) 
{"free_energy": -9.5, "intermolecular_energy": -10.99, "internal_energy": -1.28, "cluster_size": 36, "cluster_id": 1, "rank_in_cluster": 1}

>  <energy>  (4) 
-9.44

>  <cluster_rmsd>  (4) 
1.32

>  <cluster>  (4) 
1

$$$$

     RDKit          3D

 52 56  0  0  1  0  0  0  0  0999 V2000
  140.3170   70.5660  221.3850 O   0  0  0  0  0  0  0  0  0  0  0  0
  139.9510   71.2600  222.3860 C   0  0  0  0  0  0  0  0  0  0  0  0
  139.5800   72.6180  222.2830 N   0  0  0  0  0  0  0  0  0  0  0  0
  139.6110   73.2640  220.9870 C   0  0  0  0  0  0  0  0  0  0  0  0
  140.6740   74.2990  220.9580 C   0  0  0  0  0  0  0  0  0  0  0  0
  141.8570   73.8900  220.8120 O   0  0  0  0  0  0  0  0  0  0  0  0
  140.3390   75.6790  221.0920 N   0  0  0  0  0  0  0  0  0  0  0  0
  140.8300   76.6260  220.1130 C   0  0  0  0  0  0  0  0  0  0  0  0
  140.7510   78.0200  220.7100 C   0  0  1  0  0  0  0  0  0  0  0  0
  139.3170   78.2350  221.1360 C   0  0  0  0  0  0  0  0  0  0  0  0
  139.6740   77.5450  222.4360 C   0  0  1  0  0  0  0  0  0  0  0  0
  139.5100   76.0400  222.2250 C   0  0  0  0  0  0  0  0  0  0  0  0
  141.0890   77.9200  222.2120 C   0  0  2  0  0  0  0  0  0  0  0  0
  141.6370   79.1290  222.8100 C   0  0  0  0  0  0  0  0  0  0  0  0
  140.7330   80.0910  223.2650 C   0  0  0  0  0  0  0  0  0  0  0  0
  141.1490   81.2760  223.8360 C   0  0  0  0  0  0  0  0  0  0  0  0
  142.4990   81.5600  223.9810 C   0  0  0  0  0  0  0  0  0  0  0  0
  143.4090   80.6220  223.5390 C   0  0  0  0  0  0  0  0  0  0  0  0
  142.9660   79.4350  222.9670 C   0  0  0  0  0  0  0  0  0  0  0  0
  139.9200   70.6010  223.7040 C   0  0  0  0  0  0  0  0  0  0  0  0
  139.2900   69.3850  223.8720 C   0  0  0  0  0  0  0  0  0  0  0  0
  139.2260   68.7210  225.0780 C   0  0  0  0  0  0  0  0  0  0  0  0
  139.8300   69.3170  226.1680 C   0  0  0  0  0  0  0  0  0  0  0  0
  139.7680   68.6580  227.3640 C   0  0  0  0  0  0  0  0  0  0  0  0
  140.3550   69.2100  228.4860 C   0  0  0  0  0  0  0  0  0  0  0  0
  140.9960   70.4300  228.3450 C   0  0  0  0  0  0  0  0  0  0  0  0
  141.0500   71.0850  227.1230 C   0  0  0  0  0  0  0  0  0  0  0  0
  140.4580   70.5320  225.9880 C   0  0  0  0  0  0  0  0  0  0  0  0
  140.4950   71.1460  224.7910 N   0  0  0  0  0  0  0  0  0  0  0  0
  139.2930   73.1190  223.1470 H   0  0  0  0  0  0  0  0  0  0  0  0
  139.8143   72.5119  220.2104 H   0  0  0  0  0  0  0  0  0  0  0  0
  138.6381   73.7420  220.7998 H   0  0  0  0  0  0  0  0  0  0  0  0
  141.8738   76.3896  219.8590 H   0  0  0  0  0  0  0  0  0  0  0  0
  140.2214   76.5725  219.1983 H   0  0  0  0  0  0  0  0  0  0  0  0
  141.2905   78.6891  220.0236 H   0  0  0  0  0  0  0  0  0  0  0  0
  139.0223   79.2895  221.2415 H   0  0  0  0  0  0  0  0  0  0  0  0
  138.4716   77.9023  220.5159 H   0  0  0  0  0  0  0  0  0  0  0  0
  139.1674   77.7731  223.3854 H   0  0  0  0  0  0  0  0  0  0  0  0
  139.8379   75.4946  223.1222 H   0  0  0  0  0  0  0  0  0  0  0  0
  138.4570   75.7817  222.0396 H   0  0  0  0  0  0  0  0  0  0  0  0
  141.8844   77.2803  222.6221 H   0  0  0  0  0  0  0  0  0  0  0  0
  139.6547   79.8979  223.1650 H   0  0  0  0  0  0  0  0  0  0  0  0
  140.4007   82.0049  224.1806 H   0  0  0  0  0  0  0  0  0  0  0  0
  142.8338   82.5045  224.4347 H   0  0  0  0  0  0  0  0  0  0  0  0
  144.4875   80.8138  223.6394 H   0  0  0  0  0  0  0  0  0  0  0  0
  143.7156   78.7067  222.6240 H   0  0  0  0  0  0  0  0  0  0  0  0
  138.8132   68.9206  222.9963 H   0  0  0  0  0  0  0  0  0  0  0  0
  138.7129   67.7523  225.1692 H   0  0  0  0  0  0  0  0  0  0  0  0
  139.2513   67.6893  227.4329 H   0  0  0  0  0  0  0  0  0  0  0  0
  140.3148   68.6980  229.4588 H   0  0  0  0  0  0  0  0  0  0  0  0
  141.4735   70.8903  229.2226 H   0  0  0  0  0  0  0  0  0  0  0  0
  141.5666   72.0533  227.0486 H   0  0  0  0  0  0  0  0  0  0  0  0
  1  2  2  0
  2  3  1  0
  3  4  1  0
  4  5  1  0
  5  6  2  0
  5  7  1  0
  7  8  1  0
  8  9  1  0
  9 10  1  0
 10 11  1  0
 11 12  1  0
 11 13  1  0
 13 14  1  0
 14 15  2  0
 15 16  1  0
 16 17  2  0
 17 18  1  0
 18 19  2  0
  2 20  1  0
 20 21  2  0
 21 22  1  0
 22 23  2  0
 23 24  1  0
 24 25  2  0
 25 26  1  0
 26 27  2  0
 27 28  1  0
 28 29  2  0
 12  7  1  0
 19 14  1  0
 29 20  1  0
 13  9  1  0
 28 23  1  0
  3 30  1  0
  4 31  1  0
  4 32  1  0
  8 33  1  0
  8 34  1  0
  9 35  1  6
 10 36  1  0
 10 37  1  0
 11 38  1  1
 12 39  1  0
 12 40  1  0
 13 41  1  6
 15 42  1  0
 16 43  1  0
 17 44  1  0
 18 45  1  0
 19 46  1  0
 21 47  1  0
 22 48  1  0
 24 49  1  0
 25 50  1  0
 26 51  1  0
 27 52  1  0
M  END
>  <smiles>  (5) 
O=C(NCC(=O)N1C[C@H]2C[C@@H](C1)C2c1ccccc1)c1ccc2ccccc2n1

>  <score_type>  (5) 
oracle

>  <origin>  (5) 
autodockgpu

>  <m_score__min__energy>  (5) 
-9.5

>  <m_primary>  (5) 
energy

>  <rmsd>  (5) 
2.4862107680541925

>  <m_score__min__rmsd>  (5) 
2.4862107680541925

>  <meeko>  (5) 
{"free_energy": -9.41, "intermolecular_energy": -10.9, "internal_energy": -1.21, "cluster_size": 36, "cluster_id": 1, "rank_in_cluster": 5}

>  <energy>  (5) 
-9.41

>  <cluster_rmsd>  (5) 
1.28

>  <cluster>  (5) 
1

$$$$

     RDKit          3D

 52 56  0  0  1  0  0  0  0  0999 V2000
  140.5090   74.7090  222.1380 O   0  0  0  0  0  0  0  0  0  0  0  0
  139.5990   75.5730  221.9360 C   0  0  0  0  0  0  0  0  0  0  0  0
  138.3770   75.2650  221.3010 N   0  0  0  0  0  0  0  0  0  0  0  0
  138.1320   73.9090  220.8550 C   0  0  0  0  0  0  0  0  0  0  0  0
  137.4160   73.1470  221.9090 C   0  0  0  0  0  0  0  0  0  0  0  0
  136.2760   73.5710  222.2350 O   0  0  0  0  0  0  0  0  0  0  0  0
  138.0190   71.9980  222.5010 N   0  0  0  0  0  0  0  0  0  0  0  0
  137.1990   71.0830  223.2660 C   0  0  0  0  0  0  0  0  0  0  0  0
  138.1060   70.2500  224.1530 C   0  0  1  0  0  0  0  0  0  0  0  0
  139.1200   69.5880  223.2480 C   0  0  0  0  0  0  0  0  0  0  0  0
  139.9400   70.8560  223.3580 C   0  0  1  0  0  0  0  0  0  0  0  0
  139.4420   71.8280  222.2880 C   0  0  0  0  0  0  0  0  0  0  0  0
  139.2600   71.1500  224.6400 C   0  0  2  0  0  0  0  0  0  0  0  0
  139.8660   70.7580  225.9050 C   0  0  0  0  0  0  0  0  0  0  0  0
  139.7490   69.4210  226.2900 C   0  0  0  0  0  0  0  0  0  0  0  0
  140.2760   68.9500  227.4750 C   0  0  0  0  0  0  0  0  0  0  0  0
  140.9510   69.7990  228.3400 C   0  0  0  0  0  0  0  0  0  0  0  0
  141.0790   71.1240  227.9780 C   0  0  0  0  0  0  0  0  0  0  0  0
  140.5390   71.5750  226.7780 C   0  0  0  0  0  0  0  0  0  0  0  0
  139.8490   76.9530  222.3920 C   0  0  0  0  0  0  0  0  0  0  0  0
  138.8020   77.7880  222.7250 C   0  0  0  0  0  0  0  0  0  0  0  0
  138.9720   79.0860  223.1550 C   0  0  0  0  0  0  0  0  0  0  0  0
  140.2650   79.5630  223.2540 C   0  0  0  0  0  0  0  0  0  0  0  0
  140.4330   80.8490  223.6820 C   0  0  0  0  0  0  0  0  0  0  0  0
  141.7050   81.3760  223.7980 C   0  0  0  0  0  0  0  0  0  0  0  0
  142.7740   80.5590  223.4710 C   0  0  0  0  0  0  0  0  0  0  0  0
  142.5850   79.2540  223.0380 C   0  0  0  0  0  0  0  0  0  0  0  0
  141.3030   78.7180  222.9190 C   0  0  0  0  0  0  0  0  0  0  0  0
  141.0910   77.4560  222.5020 N   0  0  0  0  0  0  0  0  0  0  0  0
  137.6810   76.0270  221.1710 H   0  0  0  0  0  0  0  0  0  0  0  0
  137.5188   73.9314  219.9421 H   0  0  0  0  0  0  0  0  0  0  0  0
  139.0946   73.4188  220.6472 H   0  0  0  0  0  0  0  0  0  0  0  0
  136.4911   71.6505  223.8880 H   0  0  0  0  0  0  0  0  0  0  0  0
  136.6309   70.4291  222.5880 H   0  0  0  0  0  0  0  0  0  0  0  0
  137.4522   69.6971  224.8435 H   0  0  0  0  0  0  0  0  0  0  0  0
  139.5988   68.6929  223.6717 H   0  0  0  0  0  0  0  0  0  0  0  0
  138.8377   69.1623  222.2738 H   0  0  0  0  0  0  0  0  0  0  0  0
  141.0373   70.8587  223.2808 H   0  0  0  0  0  0  0  0  0  0  0  0
  139.9571   72.7949  222.3865 H   0  0  0  0  0  0  0  0  0  0  0  0
  139.6447   71.4395  221.2791 H   0  0  0  0  0  0  0  0  0  0  0  0
  139.1333   72.1972  224.9518 H   0  0  0  0  0  0  0  0  0  0  0  0
  139.2196   68.7206  225.6272 H   0  0  0  0  0  0  0  0  0  0  0  0
  140.1595   67.8881  227.7371 H   0  0  0  0  0  0  0  0  0  0  0  0
  141.3714   69.4269  229.2859 H   0  0  0  0  0  0  0  0  0  0  0  0
  141.6090   71.8251  228.6394 H   0  0  0  0  0  0  0  0  0  0  0  0
  140.6571   72.6369  226.5166 H   0  0  0  0  0  0  0  0  0  0  0  0
  137.7773   77.3966  222.6428 H   0  0  0  0  0  0  0  0  0  0  0  0
  138.1097   79.7195  223.4102 H   0  0  0  0  0  0  0  0  0  0  0  0
  139.5568   81.4644  223.9341 H   0  0  0  0  0  0  0  0  0  0  0  0
  141.8631   82.4099  224.1387 H   0  0  0  0  0  0  0  0  0  0  0  0
  143.7972   80.9536  223.5564 H   0  0  0  0  0  0  0  0  0  0  0  0
  143.4580   78.6342  222.7853 H   0  0  0  0  0  0  0  0  0  0  0  0
  1  2  2  0
  2  3  1  0
  3  4  1  0
  4  5  1  0
  5  6  2  0
  5  7  1  0
  7  8  1  0
  8  9  1  0
  9 10  1  0
 10 11  1  0
 11 12  1  0
 11 13  1  0
 13 14  1  0
 14 15  2  0
 15 16  1  0
 16 17  2  0
 17 18  1  0
 18 19  2  0
  2 20  1  0
 20 21  2  0
 21 22  1  0
 22 23  2  0
 23 24  1  0
 24 25  2  0
 25 26  1  0
 26 27  2  0
 27 28  1  0
 28 29  2  0
 12  7  1  0
 19 14  1  0
 29 20  1  0
 13  9  1  0
 28 23  1  0
  3 30  1  0
  4 31  1  0
  4 32  1  0
  8 33  1  0
  8 34  1  0
  9 35  1  1
 10 36  1  0
 10 37  1  0
 11 38  1  1
 12 39  1  0
 12 40  1  0
 13 41  1  1
 15 42  1  0
 16 43  1  0
 17 44  1  0
 18 45  1  0
 19 46  1  0
 21 47  1  0
 22 48  1  0
 24 49  1  0
 25 50  1  0
 26 51  1  0
 27 52  1  0
M  END
>  <smiles>  (6) 
O=C(NCC(=O)N1C[C@H]2C[C@@H](C1)C2c1ccccc1)c1ccc2ccccc2n1

>  <score_type>  (6) 
oracle

>  <origin>  (6) 
autodockgpu

>  <m_score__min__energy>  (6) 
-9.5

>  <m_primary>  (6) 
energy

>  <rmsd>  (6) 
8.173324475927608

>  <m_score__min__rmsd>  (6) 
8.173324475927608

>  <meeko>  (6) 
{"free_energy": -9.27, "intermolecular_energy": -10.76, "internal_energy": -1.33, "cluster_size": 10, "cluster_id": 2, "rank_in_cluster": 6}

>  <energy>  (6) 
-9.41

>  <cluster_rmsd>  (6) 
0.13

>  <cluster>  (6) 
1

$$$$

     RDKit          3D

 52 56  0  0  1  0  0  0  0  0999 V2000
  140.5560   71.4260  221.3050 O   0  0  0  0  0  0  0  0  0  0  0  0
  140.1220   72.0520  222.3230 C   0  0  0  0  0  0  0  0  0  0  0  0
  139.6630   73.3860  222.2650 N   0  0  0  0  0  0  0  0  0  0  0  0
  139.6770   74.0850  220.9970 C   0  0  0  0  0  0  0  0  0  0  0  0
  138.4440   74.8980  220.8490 C   0  0  0  0  0  0  0  0  0  0  0  0
  137.4500   74.3260  220.3270 O   0  0  0  0  0  0  0  0  0  0  0  0
  138.4200   76.2550  221.2870 N   0  0  0  0  0  0  0  0  0  0  0  0
  138.6390   77.3140  220.3240 C   0  0  0  0  0  0  0  0  0  0  0  0
  139.0290   78.5740  221.0750 C   0  0  1  0  0  0  0  0  0  0  0  0
  137.9320   78.8460  222.0790 C   0  0  0  0  0  0  0  0  0  0  0  0
  138.6500   77.8960  223.0140 C   0  0  1  0  0  0  0  0  0  0  0  0
  138.1710   76.4790  222.6970 C   0  0  0  0  0  0  0  0  0  0  0  0
  139.9050   78.1650  222.2780 C   0  0  2  0  0  0  0  0  0  0  0  0
  140.8350   79.1830  222.7480 C   0  0  0  0  0  0  0  0  0  0  0  0
  142.1910   78.9910  222.4790 C   0  0  0  0  0  0  0  0  0  0  0  0
  143.1550   79.8880  222.8920 C   0  0  0  0  0  0  0  0  0  0  0  0
  142.8060   81.0300  223.5990 C   0  0  0  0  0  0  0  0  0  0  0  0
  141.4710   81.2390  223.8740 C   0  0  0  0  0  0  0  0  0  0  0  0
  140.5180   80.3200  223.4480 C   0  0  0  0  0  0  0  0  0  0  0  0
  140.1070   71.3380  223.6130 C   0  0  0  0  0  0  0  0  0  0  0  0
  139.5770   70.0690  223.7130 C   0  0  0  0  0  0  0  0  0  0  0  0
  139.5340   69.3520  224.8890 C   0  0  0  0  0  0  0  0  0  0  0  0
  140.0530   69.9500  226.0210 C   0  0  0  0  0  0  0  0  0  0  0  0
  140.0100   69.2400  227.1870 C   0  0  0  0  0  0  0  0  0  0  0  0
  140.5150   69.7910  228.3490 C   0  0  0  0  0  0  0  0  0  0  0  0
  141.0550   71.0650  228.2770 C   0  0  0  0  0  0  0  0  0  0  0  0
  141.0900   71.7730  227.0840 C   0  0  0  0  0  0  0  0  0  0  0  0
  140.5810   71.2200  225.9090 C   0  0  0  0  0  0  0  0  0  0  0  0
  140.6020   71.8840  224.7390 N   0  0  0  0  0  0  0  0  0  0  0  0
  139.3240   73.8300  223.1420 H   0  0  0  0  0  0  0  0  0  0  0  0
  140.5555   74.7456  220.9554 H   0  0  0  0  0  0  0  0  0  0  0  0
  139.7231   73.3491  220.1807 H   0  0  0  0  0  0  0  0  0  0  0  0
  139.4470   77.0276  219.6347 H   0  0  0  0  0  0  0  0  0  0  0  0
  137.7222   77.4902  219.7422 H   0  0  0  0  0  0  0  0  0  0  0  0
  139.3593   79.3024  220.3198 H   0  0  0  0  0  0  0  0  0  0  0  0
  137.8800   79.8865  222.4321 H   0  0  0  0  0  0  0  0  0  0  0  0
  136.8692   78.7183  221.8259 H   0  0  0  0  0  0  0  0  0  0  0  0
  138.5997   77.9932  224.1085 H   0  0  0  0  0  0  0  0  0  0  0  0
  138.7287   75.7475  223.3003 H   0  0  0  0  0  0  0  0  0  0  0  0
  137.1024   76.3635  222.9309 H   0  0  0  0  0  0  0  0  0  0  0  0
  140.6800   77.3854  222.2375 H   0  0  0  0  0  0  0  0  0  0  0  0
  142.5013   78.0960  221.9199 H   0  0  0  0  0  0  0  0  0  0  0  0
  144.2125   79.6955  222.6580 H   0  0  0  0  0  0  0  0  0  0  0  0
  143.5715   81.7471  223.9302 H   0  0  0  0  0  0  0  0  0  0  0  0
  141.1591   82.1345  224.4315 H   0  0  0  0  0  0  0  0  0  0  0  0
  139.4610   80.5135  223.6831 H   0  0  0  0  0  0  0  0  0  0  0  0
  139.1662   69.6038  222.8048 H   0  0  0  0  0  0  0  0  0  0  0  0
  139.1024   68.3409  224.9250 H   0  0  0  0  0  0  0  0  0  0  0  0
  139.5737   68.2303  227.2009 H   0  0  0  0  0  0  0  0  0  0  0  0
  140.4892   69.2371  229.2990 H   0  0  0  0  0  0  0  0  0  0  0  0
  141.4658   71.5262  229.1872 H   0  0  0  0  0  0  0  0  0  0  0  0
  141.5247   72.7833  227.0647 H   0  0  0  0  0  0  0  0  0  0  0  0
  1  2  2  0
  2  3  1  0
  3  4  1  0
  4  5  1  0
  5  6  2  0
  5  7  1  0
  7  8  1  0
  8  9  1  0
  9 10  1  0
 10 11  1  0
 11 12  1  0
 11 13  1  0
 13 14  1  0
 14 15  2  0
 15 16  1  0
 16 17  2  0
 17 18  1  0
 18 19  2  0
  2 20  1  0
 20 21  2  0
 21 22  1  0
 22 23  2  0
 23 24  1  0
 24 25  2  0
 25 26  1  0
 26 27  2  0
 27 28  1  0
 28 29  2  0
 12  7  1  0
 19 14  1  0
 29 20  1  0
 13  9  1  0
 28 23  1  0
  3 30  1  0
  4 31  1  0
  4 32  1  0
  8 33  1  0
  8 34  1  0
  9 35  1  6
 10 36  1  0
 10 37  1  0
 11 38  1  1
 12 39  1  0
 12 40  1  0
 13 41  1  6
 15 42  1  0
 16 43  1  0
 17 44  1  0
 18 45  1  0
 19 46  1  0
 21 47  1  0
 22 48  1  0
 24 49  1  0
 25 50  1  0
 26 51  1  0
 27 52  1  0
M  END
>  <smiles>  (7) 
O=C(NCC(=O)N1C[C@H]2C[C@@H](C1)C2c1ccccc1)c1ccc2ccccc2n1

>  <score_type>  (7) 
oracle

>  <origin>  (7) 
autodockgpu

>  <m_score__min__energy>  (7) 
-9.5

>  <m_primary>  (7) 
energy

>  <rmsd>  (7) 
3.1553027472168838

>  <m_score__min__rmsd>  (7) 
3.1553027472168838

>  <meeko>  (7) 
{"free_energy": -9.0, "intermolecular_energy": -10.49, "internal_energy": -1.27, "cluster_size": 36, "cluster_id": 1, "rank_in_cluster": 27}

>  <energy>  (7) 
-9.38

>  <cluster_rmsd>  (7) 
1.27

>  <cluster>  (7) 
1

$$$$

     RDKit          3D

 52 56  0  0  1  0  0  0  0  0999 V2000
  140.1700   71.9480  221.8600 O   0  0  0  0  0  0  0  0  0  0  0  0
  139.2740   71.9130  222.7620 C   0  0  0  0  0  0  0  0  0  0  0  0
  138.0870   72.6740  222.6930 N   0  0  0  0  0  0  0  0  0  0  0  0
  137.8640   73.5350  221.5500 C   0  0  0  0  0  0  0  0  0  0  0  0
  137.8560   74.9570  221.9770 C   0  0  0  0  0  0  0  0  0  0  0  0
  136.9030   75.3180  222.7190 O   0  0  0  0  0  0  0  0  0  0  0  0
  138.8900   75.8420  221.5510 N   0  0  0  0  0  0  0  0  0  0  0  0
  140.2570   75.5770  221.9470 C   0  0  0  0  0  0  0  0  0  0  0  0
  141.0600   76.8550  221.7890 C   0  0  1  0  0  0  0  0  0  0  0  0
  140.8910   77.3070  220.3560 C   0  0  0  0  0  0  0  0  0  0  0  0
  139.6170   77.9950  220.7990 C   0  0  1  0  0  0  0  0  0  0  0  0
  138.4860   76.9680  220.7340 C   0  0  0  0  0  0  0  0  0  0  0  0
  140.1560   78.0430  222.1770 C   0  0  2  0  0  0  0  0  0  0  0  0
  140.8520   79.2280  222.6580 C   0  0  0  0  0  0  0  0  0  0  0  0
  141.8300   79.0480  223.6380 C   0  0  0  0  0  0  0  0  0  0  0  0
  142.5390   80.1050  224.1700 C   0  0  0  0  0  0  0  0  0  0  0  0
  142.3030   81.4040  223.7440 C   0  0  0  0  0  0  0  0  0  0  0  0
  141.3420   81.6040  222.7750 C   0  0  0  0  0  0  0  0  0  0  0  0
  140.6410   80.5220  222.2540 C   0  0  0  0  0  0  0  0  0  0  0  0
  139.5030   71.0350  223.9240 C   0  0  0  0  0  0  0  0  0  0  0  0
  139.1150   69.7110  223.8980 C   0  0  0  0  0  0  0  0  0  0  0  0
  139.3010   68.8430  224.9510 C   0  0  0  0  0  0  0  0  0  0  0  0
  139.9100   69.3380  226.0880 C   0  0  0  0  0  0  0  0  0  0  0  0
  140.0940   68.4770  227.1320 C   0  0  0  0  0  0  0  0  0  0  0  0
  140.6970   68.9200  228.2930 C   0  0  0  0  0  0  0  0  0  0  0  0
  141.0970   70.2450  228.3470 C   0  0  0  0  0  0  0  0  0  0  0  0
  140.9020   71.1070  227.2760 C   0  0  0  0  0  0  0  0  0  0  0  0
  140.2930   70.6630  226.1030 C   0  0  0  0  0  0  0  0  0  0  0  0
  140.0920   71.4770  225.0500 N   0  0  0  0  0  0  0  0  0  0  0  0
  137.4020   72.5930  223.4710 H   0  0  0  0  0  0  0  0  0  0  0  0
  138.6679   73.3801  220.8154 H   0  0  0  0  0  0  0  0  0  0  0  0
  136.8918   73.2891  221.0979 H   0  0  0  0  0  0  0  0  0  0  0  0
  140.2825   75.2501  222.9970 H   0  0  0  0  0  0  0  0  0  0  0  0
  140.6847   74.7827  221.3176 H   0  0  0  0  0  0  0  0  0  0  0  0
  142.0372   76.6742  222.2605 H   0  0  0  0  0  0  0  0  0  0  0  0
  141.6770   77.9852  219.9923 H   0  0  0  0  0  0  0  0  0  0  0  0
  140.9049   76.5953  219.5174 H   0  0  0  0  0  0  0  0  0  0  0  0
  139.2316   78.8998  220.3061 H   0  0  0  0  0  0  0  0  0  0  0  0
  137.5558   77.4049  221.1261 H   0  0  0  0  0  0  0  0  0  0  0  0
  138.2997   76.6538  219.6964 H   0  0  0  0  0  0  0  0  0  0  0  0
  139.4577   78.0318  223.0269 H   0  0  0  0  0  0  0  0  0  0  0  0
  142.0421   78.0303  223.9976 H   0  0  0  0  0  0  0  0  0  0  0  0
  143.3004   79.9157  224.9410 H   0  0  0  0  0  0  0  0  0  0  0  0
  142.8656   82.2495  224.1665 H   0  0  0  0  0  0  0  0  0  0  0  0
  141.1298   82.6211  222.4138 H   0  0  0  0  0  0  0  0  0  0  0  0
  139.8815   80.7126  221.4815 H   0  0  0  0  0  0  0  0  0  0  0  0
  138.6312   69.3283  222.9873 H   0  0  0  0  0  0  0  0  0  0  0  0
  138.9765   67.7938  224.8890 H   0  0  0  0  0  0  0  0  0  0  0  0
  139.7622   67.4316  227.0484 H   0  0  0  0  0  0  0  0  0  0  0  0
  140.8543   68.2434  229.1459 H   0  0  0  0  0  0  0  0  0  0  0  0
  141.5805   70.6233  229.2598 H   0  0  0  0  0  0  0  0  0  0  0  0
  141.2321   72.1534  227.3540 H   0  0  0  0  0  0  0  0  0  0  0  0
  1  2  2  0
  2  3  1  0
  3  4  1  0
  4  5  1  0
  5  6  2  0
  5  7  1  0
  7  8  1  0
  8  9  1  0
  9 10  1  0
 10 11  1  0
 11 12  1  0
 11 13  1  0
 13 14  1  0
 14 15  2  0
 15 16  1  0
 16 17  2  0
 17 18  1  0
 18 19  2  0
  2 20  1  0
 20 21  2  0
 21 22  1  0
 22 23  2  0
 23 24  1  0
 24 25  2  0
 25 26  1  0
 26 27  2  0
 27 28  1  0
 28 29  2  0
 12  7  1  0
 19 14  1  0
 29 20  1  0
 13  9  1  0
 28 23  1  0
  3 30  1  0
  4 31  1  0
  4 32  1  0
  8 33  1  0
  8 34  1  0
  9 35  1  1
 10 36  1  0
 10 37  1  0
 11 38  1  6
 12 39  1  0
 12 40  1  0
 13 41  1  1
 15 42  1  0
 16 43  1  0
 17 44  1  0
 18 45  1  0
 19 46  1  0
 21 47  1  0
 22 48  1  0
 24 49  1  0
 25 50  1  0
 26 51  1  0
 27 52  1  0
M  END
>  <smiles>  (8) 
O=C(NCC(=O)N1C[C@H]2C[C@@H](C1)C2c1ccccc1)c1ccc2ccccc2n1

>  <score_type>  (8) 
oracle

>  <origin>  (8) 
autodockgpu

>  <m_score__min__energy>  (8) 
-9.5

>  <m_primary>  (8) 
energy

>  <rmsd>  (8) 
2.1978480887957312

>  <m_score__min__rmsd>  (8) 
2.1978480887957312

>  <meeko>  (8) 
{"free_energy": -9.07, "intermolecular_energy": -10.57, "internal_energy": -1.36, "cluster_size": 36, "cluster_id": 1, "rank_in_cluster": 20}

>  <energy>  (8) 
-9.29

>  <cluster_rmsd>  (8) 
1.26

>  <cluster>  (8) 
1

$$$$

     RDKit          3D

 52 56  0  0  1  0  0  0  0  0999 V2000
  140.8670   72.9690  222.6600 O   0  0  0  0  0  0  0  0  0  0  0  0
  139.8070   72.2970  222.8700 C   0  0  0  0  0  0  0  0  0  0  0  0
  138.6250   72.4770  222.1200 N   0  0  0  0  0  0  0  0  0  0  0  0
  138.6020   73.4640  221.0600 C   0  0  0  0  0  0  0  0  0  0  0  0
  138.3210   74.8090  221.6210 C   0  0  0  0  0  0  0  0  0  0  0  0
  137.3770   74.8880  222.4520 O   0  0  0  0  0  0  0  0  0  0  0  0
  139.1000   75.9330  221.2190 N   0  0  0  0  0  0  0  0  0  0  0  0
  140.5260   75.7750  221.0240 C   0  0  0  0  0  0  0  0  0  0  0  0
  141.1740   77.1470  221.0700 C   0  0  1  0  0  0  0  0  0  0  0  0
  140.4820   77.9950  220.0280 C   0  0  0  0  0  0  0  0  0  0  0  0
  139.4320   78.3000  221.0750 C   0  0  1  0  0  0  0  0  0  0  0  0
  138.3890   77.1820  221.0290 C   0  0  0  0  0  0  0  0  0  0  0  0
  140.4310   77.9940  222.1240 C   0  0  2  0  0  0  0  0  0  0  0  0
  141.2140   79.0610  222.7320 C   0  0  0  0  0  0  0  0  0  0  0  0
  140.5180   80.1520  223.2580 C   0  0  0  0  0  0  0  0  0  0  0  0
  141.1650   81.2200  223.8440 C   0  0  0  0  0  0  0  0  0  0  0  0
  142.5490   81.2510  223.9340 C   0  0  0  0  0  0  0  0  0  0  0  0
  143.2550   80.1820  223.4220 C   0  0  0  0  0  0  0  0  0  0  0  0
  142.5810   79.1170  222.8360 C   0  0  0  0  0  0  0  0  0  0  0  0
  139.8330   71.2930  223.9490 C   0  0  0  0  0  0  0  0  0  0  0  0
  139.2260   70.0640  223.7860 C   0  0  0  0  0  0  0  0  0  0  0  0
  139.2150   69.0860  224.7570 C   0  0  0  0  0  0  0  0  0  0  0  0
  139.8500   69.3650  225.9510 C   0  0  0  0  0  0  0  0  0  0  0  0
  139.8400   68.3950  226.9130 C   0  0  0  0  0  0  0  0  0  0  0  0
  140.4600   68.6210  228.1270 C   0  0  0  0  0  0  0  0  0  0  0  0
  141.0780   69.8460  228.3170 C   0  0  0  0  0  0  0  0  0  0  0  0
  141.0790   70.8200  227.3290 C   0  0  0  0  0  0  0  0  0  0  0  0
  140.4540   70.5960  226.1020 C   0  0  0  0  0  0  0  0  0  0  0  0
  140.4400   71.5230  225.1270 N   0  0  0  0  0  0  0  0  0  0  0  0
  137.7980   71.8900  222.3520 H   0  0  0  0  0  0  0  0  0  0  0  0
  139.5788   73.4776  220.5544 H   0  0  0  0  0  0  0  0  0  0  0  0
  137.8118   73.2017  220.3411 H   0  0  0  0  0  0  0  0  0  0  0  0
  140.9415   75.1416  221.8216 H   0  0  0  0  0  0  0  0  0  0  0  0
  140.7227   75.2979  220.0526 H   0  0  0  0  0  0  0  0  0  0  0  0
  142.2613   76.9828  221.0992 H   0  0  0  0  0  0  0  0  0  0  0  0
  141.0593   78.8677  219.6886 H   0  0  0  0  0  0  0  0  0  0  0  0
  140.2153   77.5950  219.0386 H   0  0  0  0  0  0  0  0  0  0  0  0
  138.8642   79.2421  221.0859 H   0  0  0  0  0  0  0  0  0  0  0  0
  137.6494   77.3218  221.8311 H   0  0  0  0  0  0  0  0  0  0  0  0
  137.8505   77.1859  220.0699 H   0  0  0  0  0  0  0  0  0  0  0  0
  140.0880   77.6053  223.0942 H   0  0  0  0  0  0  0  0  0  0  0  0
  139.4194   80.1596  223.2031 H   0  0  0  0  0  0  0  0  0  0  0  0
  140.5759   82.0579  224.2451 H   0  0  0  0  0  0  0  0  0  0  0  0
  143.0677   82.1020  224.3995 H   0  0  0  0  0  0  0  0  0  0  0  0
  144.3536   80.1725  223.4776 H   0  0  0  0  0  0  0  0  0  0  0  0
  143.1715   78.2793  222.4367 H   0  0  0  0  0  0  0  0  0  0  0  0
  138.7242   69.8540  222.8299 H   0  0  0  0  0  0  0  0  0  0  0  0
  138.7188   68.1191  224.5871 H   0  0  0  0  0  0  0  0  0  0  0  0
  139.3387   67.4348  226.7213 H   0  0  0  0  0  0  0  0  0  0  0  0
  140.4627   67.8542  228.9157 H   0  0  0  0  0  0  0  0  0  0  0  0
  141.5799   70.0515  229.2740 H   0  0  0  0  0  0  0  0  0  0  0  0
  141.5793   71.7817  227.5156 H   0  0  0  0  0  0  0  0  0  0  0  0
  1  2  2  0
  2  3  1  0
  3  4  1  0
  4  5  1  0
  5  6  2  0
  5  7  1  0
  7  8  1  0
  8  9  1  0
  9 10  1  0
 10 11  1  0
 11 12  1  0
 11 13  1  0
 13 14  1  0
 14 15  2  0
 15 16  1  0
 16 17  2  0
 17 18  1  0
 18 19  2  0
  2 20  1  0
 20 21  2  0
 21 22  1  0
 22 23  2  0
 23 24  1  0
 24 25  2  0
 25 26  1  0
 26 27  2  0
 27 28  1  0
 28 29  2  0
 12  7  1  0
 19 14  1  0
 29 20  1  0
 13  9  1  0
 28 23  1  0
  3 30  1  0
  4 31  1  0
  4 32  1  0
  8 33  1  0
  8 34  1  0
  9 35  1  1
 10 36  1  0
 10 37  1  0
 11 38  1  1
 12 39  1  0
 12 40  1  0
 13 41  1  1
 15 42  1  0
 16 43  1  0
 17 44  1  0
 18 45  1  0
 19 46  1  0
 21 47  1  0
 22 48  1  0
 24 49  1  0
 25 50  1  0
 26 51  1  0
 27 52  1  0
M  END
>  <smiles>  (9) 
O=C(NCC(=O)N1C[C@H]2C[C@@H](C1)C2c1ccccc1)c1ccc2ccccc2n1

>  <score_type>  (9) 
oracle

>  <origin>  (9) 
autodockgpu

>  <m_score__min__energy>  (9) 
-9.5

>  <m_primary>  (9) 
energy

>  <rmsd>  (9) 
2.28469116175383

>  <m_score__min__rmsd>  (9) 
2.28469116175383

>  <meeko>  (9) 
{"free_energy": -9.04, "intermolecular_energy": -10.53, "internal_energy": -1.34, "cluster_size": 36, "cluster_id": 1, "rank_in_cluster": 23}

>  <energy>  (9) 
-9.23

>  <cluster_rmsd>  (9) 
1.18

>  <cluster>  (9) 
1

$$$$

     RDKit          3D

 52 56  0  0  1  0  0  0  0  0999 V2000
  140.3670   74.6300  222.0510 O   0  0  0  0  0  0  0  0  0  0  0  0
  139.4350   75.4930  221.9970 C   0  0  0  0  0  0  0  0  0  0  0  0
  138.1280   75.1840  221.5640 N   0  0  0  0  0  0  0  0  0  0  0  0
  137.8170   73.8270  221.1620 C   0  0  0  0  0  0  0  0  0  0  0  0
  137.3110   73.0550  222.3240 C   0  0  0  0  0  0  0  0  0  0  0  0
  136.2760   73.4980  222.8890 O   0  0  0  0  0  0  0  0  0  0  0  0
  137.9880   71.8750  222.7530 N   0  0  0  0  0  0  0  0  0  0  0  0
  137.2250   70.7980  223.3490 C   0  0  0  0  0  0  0  0  0  0  0  0
  138.1770   69.9060  224.1260 C   0  0  1  0  0  0  0  0  0  0  0  0
  139.2520   69.4630  223.1600 C   0  0  0  0  0  0  0  0  0  0  0  0
  139.9740   70.7550  223.4820 C   0  0  1  0  0  0  0  0  0  0  0  0
  139.4230   71.8400  222.5560 C   0  0  0  0  0  0  0  0  0  0  0  0
  139.2530   70.8010  224.7740 C   0  0  2  0  0  0  0  0  0  0  0  0
  139.8660   70.2660  225.9820 C   0  0  0  0  0  0  0  0  0  0  0  0
  139.7680   68.8910  226.2000 C   0  0  0  0  0  0  0  0  0  0  0  0
  140.3030   68.2860  227.3190 C   0  0  0  0  0  0  0  0  0  0  0  0
  140.9670   69.0320  228.2810 C   0  0  0  0  0  0  0  0  0  0  0  0
  141.0760   70.3930  228.0840 C   0  0  0  0  0  0  0  0  0  0  0  0
  140.5290   70.9800  226.9490 C   0  0  0  0  0  0  0  0  0  0  0  0
  139.7520   76.8730  222.4080 C   0  0  0  0  0  0  0  0  0  0  0  0
  138.7480   77.7750  222.6940 C   0  0  0  0  0  0  0  0  0  0  0  0
  138.9810   79.0760  223.0810 C   0  0  0  0  0  0  0  0  0  0  0  0
  140.2960   79.4860  223.1850 C   0  0  0  0  0  0  0  0  0  0  0  0
  140.5270   80.7770  223.5690 C   0  0  0  0  0  0  0  0  0  0  0  0
  141.8240   81.2390  223.6880 C   0  0  0  0  0  0  0  0  0  0  0  0
  142.8520   80.3540  223.4080 C   0  0  0  0  0  0  0  0  0  0  0  0
  142.5990   79.0470  223.0180 C   0  0  0  0  0  0  0  0  0  0  0  0
  141.2920   78.5760  222.8970 C   0  0  0  0  0  0  0  0  0  0  0  0
  141.0180   77.3130  222.5210 N   0  0  0  0  0  0  0  0  0  0  0  0
  137.4190   75.9450  221.5470 H   0  0  0  0  0  0  0  0  0  0  0  0
  137.0479   73.8475  220.3759 H   0  0  0  0  0  0  0  0  0  0  0  0
  138.7296   73.3463  220.7798 H   0  0  0  0  0  0  0  0  0  0  0  0
  136.4665   71.2128  224.0292 H   0  0  0  0  0  0  0  0  0  0  0  0
  136.7184   70.2161  222.5649 H   0  0  0  0  0  0  0  0  0  0  0  0
  137.5547   69.2098  224.7075 H   0  0  0  0  0  0  0  0  0  0  0  0
  139.7890   68.5502  223.4572 H   0  0  0  0  0  0  0  0  0  0  0  0
  139.0180   69.1714  222.1255 H   0  0  0  0  0  0  0  0  0  0  0  0
  141.0691   70.8479  223.4368 H   0  0  0  0  0  0  0  0  0  0  0  0
  139.8635   72.8149  222.8120 H   0  0  0  0  0  0  0  0  0  0  0  0
  139.6704   71.6236  221.5063 H   0  0  0  0  0  0  0  0  0  0  0  0
  139.0433   71.7769  225.2362 H   0  0  0  0  0  0  0  0  0  0  0  0
  139.2477   68.2697  225.4562 H   0  0  0  0  0  0  0  0  0  0  0  0
  140.2014   67.1985  227.4495 H   0  0  0  0  0  0  0  0  0  0  0  0
  141.3940   68.5529  229.1744 H   0  0  0  0  0  0  0  0  0  0  0  0
  141.5969   71.0150  228.8267 H   0  0  0  0  0  0  0  0  0  0  0  0
  140.6322   72.0675  226.8196 H   0  0  0  0  0  0  0  0  0  0  0  0
  137.7048   77.4367  222.6083 H   0  0  0  0  0  0  0  0  0  0  0  0
  138.1504   79.7634  223.2993 H   0  0  0  0  0  0  0  0  0  0  0  0
  139.6817   81.4475  223.7831 H   0  0  0  0  0  0  0  0  0  0  0  0
  142.0329   82.2745  223.9947 H   0  0  0  0  0  0  0  0  0  0  0  0
  143.8938   80.6957  223.4970 H   0  0  0  0  0  0  0  0  0  0  0  0
  143.4408   78.3729  222.8012 H   0  0  0  0  0  0  0  0  0  0  0  0
  1  2  2  0
  2  3  1  0
  3  4  1  0
  4  5  1  0
  5  6  2  0
  5  7  1  0
  7  8  1  0
  8  9  1  0
  9 10  1  0
 10 11  1  0
 11 12  1  0
 11 13  1  0
 13 14  1  0
 14 15  2  0
 15 16  1  0
 16 17  2  0
 17 18  1  0
 18 19  2  0
  2 20  1  0
 20 21  2  0
 21 22  1  0
 22 23  2  0
 23 24  1  0
 24 25  2  0
 25 26  1  0
 26 27  2  0
 27 28  1  0
 28 29  2  0
 12  7  1  0
 19 14  1  0
 29 20  1  0
 13  9  1  0
 28 23  1  0
  3 30  1  0
  4 31  1  0
  4 32  1  0
  8 33  1  0
  8 34  1  0
  9 35  1  1
 10 36  1  0
 10 37  1  0
 11 38  1  1
 12 39  1  0
 12 40  1  0
 13 41  1  1
 15 42  1  0
 16 43  1  0
 17 44  1  0
 18 45  1  0
 19 46  1  0
 21 47  1  0
 22 48  1  0
 24 49  1  0
 25 50  1  0
 26 51  1  0
 27 52  1  0
M  END
>  <smiles>  (10) 
O=C(NCC(=O)N1C[C@H]2C[C@@H](C1)C2c1ccccc1)c1ccc2ccccc2n1

>  <score_type>  (10) 
oracle

>  <origin>  (10) 
autodockgpu

>  <m_score__min__energy>  (10) 
-9.5

>  <m_primary>  (10) 
energy

>  <rmsd>  (10) 
8.185026876581254

>  <m_score__min__rmsd>  (10) 
8.185026876581254

>  <meeko>  (10) 
{"free_energy": -9.31, "intermolecular_energy": -10.8, "internal_energy": -1.3, "cluster_size": 10, "cluster_id": 2, "rank_in_cluster": 2}

>  <energy>  (10) 
-9.22

>  <cluster_rmsd>  (10) 
1.72

>  <cluster>  (10) 
1

$$$$

     RDKit          3D

 52 56  0  0  1  0  0  0  0  0999 V2000
  139.3540   70.9450  221.4970 O   0  0  0  0  0  0  0  0  0  0  0  0
  139.6020   71.5110  222.6080 C   0  0  0  0  0  0  0  0  0  0  0  0
  139.7940   72.9040  222.7320 N   0  0  0  0  0  0  0  0  0  0  0  0
  139.7060   73.7390  221.5520 C   0  0  0  0  0  0  0  0  0  0  0  0
  138.4040   74.4530  221.5290 C   0  0  0  0  0  0  0  0  0  0  0  0
  137.3680   73.7360  221.4950 O   0  0  0  0  0  0  0  0  0  0  0  0
  138.3650   75.8780  221.5450 N   0  0  0  0  0  0  0  0  0  0  0  0
  138.9150   76.6150  220.4270 C   0  0  0  0  0  0  0  0  0  0  0  0
  139.1810   78.0410  220.8740 C   0  0  1  0  0  0  0  0  0  0  0  0
  137.8770   78.5850  221.4120 C   0  0  0  0  0  0  0  0  0  0  0  0
  138.2420   77.9500  222.7380 C   0  0  1  0  0  0  0  0  0  0  0  0
  137.7610   76.4990  222.7080 C   0  0  0  0  0  0  0  0  0  0  0  0
  139.6660   78.0030  222.3380 C   0  0  2  0  0  0  0  0  0  0  0  0
  140.5070   79.1190  222.7470 C   0  0  0  0  0  0  0  0  0  0  0  0
  141.7320   78.8180  223.3470 C   0  0  0  0  0  0  0  0  0  0  0  0
  142.5970   79.8010  223.7810 C   0  0  0  0  0  0  0  0  0  0  0  0
  142.2780   81.1440  223.6370 C   0  0  0  0  0  0  0  0  0  0  0  0
  141.0730   81.4620  223.0460 C   0  0  0  0  0  0  0  0  0  0  0  0
  140.2180   80.4540  222.6160 C   0  0  0  0  0  0  0  0  0  0  0  0
  139.6910   70.6590  223.8080 C   0  0  0  0  0  0  0  0  0  0  0  0
  139.1780   69.3790  223.8070 C   0  0  0  0  0  0  0  0  0  0  0  0
  139.2300   68.5370  224.8960 C   0  0  0  0  0  0  0  0  0  0  0  0
  139.8310   69.0140  226.0440 C   0  0  0  0  0  0  0  0  0  0  0  0
  139.8830   68.1790  227.1240 C   0  0  0  0  0  0  0  0  0  0  0  0
  140.4730   68.6060  228.2980 C   0  0  0  0  0  0  0  0  0  0  0  0
  140.9970   69.8880  228.3280 C   0  0  0  0  0  0  0  0  0  0  0  0
  140.9360   70.7230  227.2210 C   0  0  0  0  0  0  0  0  0  0  0  0
  140.3410   70.2960  226.0340 C   0  0  0  0  0  0  0  0  0  0  0  0
  140.2680   71.0850  224.9460 N   0  0  0  0  0  0  0  0  0  0  0  0
  139.9940   73.2930  223.6750 H   0  0  0  0  0  0  0  0  0  0  0  0
  140.5241   74.4742  221.5645 H   0  0  0  0  0  0  0  0  0  0  0  0
  139.7858   73.1061  220.6559 H   0  0  0  0  0  0  0  0  0  0  0  0
  139.8554   76.1469  220.1007 H   0  0  0  0  0  0  0  0  0  0  0  0
  138.2053   76.6097  219.5865 H   0  0  0  0  0  0  0  0  0  0  0  0
  139.7569   78.5221  220.0697 H   0  0  0  0  0  0  0  0  0  0  0  0
  137.8101   79.6828  221.4312 H   0  0  0  0  0  0  0  0  0  0  0  0
  136.9157   78.3831  220.9170 H   0  0  0  0  0  0  0  0  0  0  0  0
  137.9056   78.3588  223.7022 H   0  0  0  0  0  0  0  0  0  0  0  0
  138.0777   75.9767  223.6228 H   0  0  0  0  0  0  0  0  0  0  0  0
  136.6634   76.4495  222.6549 H   0  0  0  0  0  0  0  0  0  0  0  0
  140.3628   77.2499  222.7346 H   0  0  0  0  0  0  0  0  0  0  0  0
  142.0160   77.7633  223.4776 H   0  0  0  0  0  0  0  0  0  0  0  0
  143.5519   79.5168  224.2472 H   0  0  0  0  0  0  0  0  0  0  0  0
  142.9648   81.9303  223.9834 H   0  0  0  0  0  0  0  0  0  0  0  0
  140.7878   82.5162  222.9146 H   0  0  0  0  0  0  0  0  0  0  0  0
  139.2643   80.7401  222.1484 H   0  0  0  0  0  0  0  0  0  0  0  0
  138.7014   69.0103  222.8867 H   0  0  0  0  0  0  0  0  0  0  0  0
  138.8083   67.5220  224.8526 H   0  0  0  0  0  0  0  0  0  0  0  0
  139.4555   67.1676  227.0589 H   0  0  0  0  0  0  0  0  0  0  0  0
  140.5250   67.9499  229.1794 H   0  0  0  0  0  0  0  0  0  0  0  0
  141.4724   70.2527  229.2505 H   0  0  0  0  0  0  0  0  0  0  0  0
  141.3627   71.7351  227.2806 H   0  0  0  0  0  0  0  0  0  0  0  0
  1  2  2  0
  2  3  1  0
  3  4  1  0
  4  5  1  0
  5  6  2  0
  5  7  1  0
  7  8  1  0
  8  9  1  0
  9 10  1  0
 10 11  1  0
 11 12  1  0
 11 13  1  0
 13 14  1  0
 14 15  2  0
 15 16  1  0
 16 17  2  0
 17 18  1  0
 18 19  2  0
  2 20  1  0
 20 21  2  0
 21 22  1  0
 22 23  2  0
 23 24  1  0
 24 25  2  0
 25 26  1  0
 26 27  2  0
 27 28  1  0
 28 29  2  0
 12  7  1  0
 19 14  1  0
 29 20  1  0
 13  9  1  0
 28 23  1  0
  3 30  1  0
  4 31  1  0
  4 32  1  0
  8 33  1  0
  8 34  1  0
  9 35  1  6
 10 36  1  0
 10 37  1  0
 11 38  1  1
 12 39  1  0
 12 40  1  0
 13 41  1  6
 15 42  1  0
 16 43  1  0
 17 44  1  0
 18 45  1  0
 19 46  1  0
 21 47  1  0
 22 48  1  0
 24 49  1  0
 25 50  1  0
 26 51  1  0
 27 52  1  0
M  END
>  <smiles>  (11) 
O=C(NCC(=O)N1C[C@H]2C[C@@H](C1)C2c1ccccc1)c1ccc2ccccc2n1

>  <score_type>  (11) 
oracle

>  <origin>  (11) 
autodockgpu

>  <m_score__min__energy>  (11) 
-9.5

>  <m_primary>  (11) 
energy

>  <rmsd>  (11) 
3.0194112863348286

>  <m_score__min__rmsd>  (11) 
3.0194112863348286

>  <meeko>  (11) 
{"free_energy": -8.62, "intermolecular_energy": -10.11, "internal_energy": -1.38, "cluster_size": 36, "cluster_id": 1, "rank_in_cluster": 36}

>  <energy>  (11) 
-9.16

>  <cluster_rmsd>  (11) 
1.5

>  <cluster>  (11) 
1

$$$$

     RDKit          3D

 52 56  0  0  1  0  0  0  0  0999 V2000
  141.0250   75.0920  220.9160 O   0  0  0  0  0  0  0  0  0  0  0  0
  140.1340   75.5010  221.7250 C   0  0  0  0  0  0  0  0  0  0  0  0
  139.0470   74.7000  222.1370 N   0  0  0  0  0  0  0  0  0  0  0  0
  138.9290   73.3490  221.6270 C   0  0  0  0  0  0  0  0  0  0  0  0
  137.8280   72.6370  222.3220 C   0  0  0  0  0  0  0  0  0  0  0  0
  136.7160   73.2270  222.3720 O   0  0  0  0  0  0  0  0  0  0  0  0
  138.0520   71.3490  222.8930 N   0  0  0  0  0  0  0  0  0  0  0  0
  137.0880   70.8130  223.8310 C   0  0  0  0  0  0  0  0  0  0  0  0
  137.7550   69.7060  224.6270 C   0  0  1  0  0  0  0  0  0  0  0  0
  138.2920   68.7070  223.6280 C   0  0  0  0  0  0  0  0  0  0  0  0
  139.5280   69.5760  223.5300 C   0  0  1  0  0  0  0  0  0  0  0  0
  139.2570   70.6570  222.4830 C   0  0  0  0  0  0  0  0  0  0  0  0
  139.2230   70.1110  224.8760 C   0  0  2  0  0  0  0  0  0  0  0  0
  139.8390   69.5280  226.0600 C   0  0  0  0  0  0  0  0  0  0  0  0
  140.2840   68.2080  225.9730 C   0  0  0  0  0  0  0  0  0  0  0  0
  140.8700   67.5590  227.0400 C   0  0  0  0  0  0  0  0  0  0  0  0
  141.0410   68.2030  228.2570 C   0  0  0  0  0  0  0  0  0  0  0  0
  140.6090   69.5090  228.3640 C   0  0  0  0  0  0  0  0  0  0  0  0
  140.0210   70.1420  227.2740 C   0  0  0  0  0  0  0  0  0  0  0  0
  140.2560   76.8750  222.2440 C   0  0  0  0  0  0  0  0  0  0  0  0
  139.1390   77.5890  222.6280 C   0  0  0  0  0  0  0  0  0  0  0  0
  139.1890   78.8750  223.1190 C   0  0  0  0  0  0  0  0  0  0  0  0
  140.4310   79.4690  223.2280 C   0  0  0  0  0  0  0  0  0  0  0  0
  140.4810   80.7450  223.7150 C   0  0  0  0  0  0  0  0  0  0  0  0
  141.6970   81.3870  223.8440 C   0  0  0  0  0  0  0  0  0  0  0  0
  142.8360   80.6930  223.4670 C   0  0  0  0  0  0  0  0  0  0  0  0
  142.7670   79.3980  222.9740 C   0  0  0  0  0  0  0  0  0  0  0  0
  141.5410   78.7460  222.8420 C   0  0  0  0  0  0  0  0  0  0  0  0
  141.4450   77.4910  222.3660 N   0  0  0  0  0  0  0  0  0  0  0  0
  138.3570   75.1060  222.8010 H   0  0  0  0  0  0  0  0  0  0  0  0
  138.7159   73.3844  220.5484 H   0  0  0  0  0  0  0  0  0  0  0  0
  139.8732   72.8131  221.8041 H   0  0  0  0  0  0  0  0  0  0  0  0
  136.7510   71.6084  224.5120 H   0  0  0  0  0  0  0  0  0  0  0  0
  136.2164   70.4158  223.2902 H   0  0  0  0  0  0  0  0  0  0  0  0
  137.0648   69.4427  225.4420 H   0  0  0  0  0  0  0  0  0  0  0  0
  138.4692   67.7004  224.0348 H   0  0  0  0  0  0  0  0  0  0  0  0
  137.7183   68.4120  222.7371 H   0  0  0  0  0  0  0  0  0  0  0  0
  140.5206   69.1669  223.2906 H   0  0  0  0  0  0  0  0  0  0  0  0
  140.1010   71.3611  222.4394 H   0  0  0  0  0  0  0  0  0  0  0  0
  139.1355   70.2145  221.4833 H   0  0  0  0  0  0  0  0  0  0  0  0
  139.5441   71.1313  225.1328 H   0  0  0  0  0  0  0  0  0  0  0  0
  140.1635   67.6675  225.0226 H   0  0  0  0  0  0  0  0  0  0  0  0
  141.2059   66.5179  226.9245 H   0  0  0  0  0  0  0  0  0  0  0  0
  141.5067   67.6882  229.1103 H   0  0  0  0  0  0  0  0  0  0  0  0
  140.7299   70.0509  229.3136 H   0  0  0  0  0  0  0  0  0  0  0  0
  139.6862   71.1833  227.3903 H   0  0  0  0  0  0  0  0  0  0  0  0
  138.1555   77.1048  222.5370 H   0  0  0  0  0  0  0  0  0  0  0  0
  138.2735   79.4091  223.4134 H   0  0  0  0  0  0  0  0  0  0  0  0
  139.5532   81.2604  224.0041 H   0  0  0  0  0  0  0  0  0  0  0  0
  141.7594   82.4141  224.2327 H   0  0  0  0  0  0  0  0  0  0  0  0
  143.8177   81.1804  223.5609 H   0  0  0  0  0  0  0  0  0  0  0  0
  143.6918   78.8783  222.6832 H   0  0  0  0  0  0  0  0  0  0  0  0
  1  2  2  0
  2  3  1  0
  3  4  1  0
  4  5  1  0
  5  6  2  0
  5  7  1  0
  7  8  1  0
  8  9  1  0
  9 10  1  0
 10 11  1  0
 11 12  1  0
 11 13  1  0
 13 14  1  0
 14 15  2  0
 15 16  1  0
 16 17  2  0
 17 18  1  0
 18 19  2  0
  2 20  1  0
 20 21  2  0
 21 22  1  0
 22 23  2  0
 23 24  1  0
 24 25  2  0
 25 26  1  0
 26 27  2  0
 27 28  1  0
 28 29  2  0
 12  7  1  0
 19 14  1  0
 29 20  1  0
 13  9  1  0
 28 23  1  0
  3 30  1  0
  4 31  1  0
  4 32  1  0
  8 33  1  0
  8 34  1  0
  9 35  1  1
 10 36  1  0
 10 37  1  0
 11 38  1  1
 12 39  1  0
 12 40  1  0
 13 41  1  6
 15 42  1  0
 16 43  1  0
 17 44  1  0
 18 45  1  0
 19 46  1  0
 21 47  1  0
 22 48  1  0
 24 49  1  0
 25 50  1  0
 26 51  1  0
 27 52  1  0
M  END
>  <smiles>  (12) 
O=C(NCC(=O)N1C[C@H]2C[C@@H](C1)C2c1ccccc1)c1ccc2ccccc2n1

>  <score_type>  (12) 
oracle

>  <origin>  (12) 
autodockgpu

>  <m_score__min__energy>  (12) 
-9.5

>  <m_primary>  (12) 
energy

>  <rmsd>  (12) 
8.436414894788921

>  <m_score__min__rmsd>  (12) 
8.436414894788921

>  <meeko>  (12) 
{"free_energy": -9.01, "intermolecular_energy": -10.5, "internal_energy": -1.29, "cluster_size": 10, "cluster_id": 2, "rank_in_cluster": 9}

>  <energy>  (12) 
-9.15

>  <cluster_rmsd>  (12) 
1.46

>  <cluster>  (12) 
1

$$$$

     RDKit          3D

 52 56  0  0  1  0  0  0  0  0999 V2000
  140.2920   74.5940  222.2750 O   0  0  0  0  0  0  0  0  0  0  0  0
  139.4330   75.4920  222.0090 C   0  0  0  0  0  0  0  0  0  0  0  0
  138.2110   75.2160  221.3590 N   0  0  0  0  0  0  0  0  0  0  0  0
  137.9060   73.8540  220.9730 C   0  0  0  0  0  0  0  0  0  0  0  0
  137.3370   73.1130  222.1270 C   0  0  0  0  0  0  0  0  0  0  0  0
  136.2770   73.5760  222.6280 O   0  0  0  0  0  0  0  0  0  0  0  0
  137.9840   71.9420  222.6200 N   0  0  0  0  0  0  0  0  0  0  0  0
  137.1990   70.9290  223.2950 C   0  0  0  0  0  0  0  0  0  0  0  0
  138.1360   70.0580  224.1110 C   0  0  1  0  0  0  0  0  0  0  0  0
  139.1800   69.5210  223.1590 C   0  0  0  0  0  0  0  0  0  0  0  0
  139.9470   70.8070  223.3880 C   0  0  1  0  0  0  0  0  0  0  0  0
  139.4130   71.8490  222.4040 C   0  0  0  0  0  0  0  0  0  0  0  0
  139.2500   70.9570  224.6850 C   0  0  2  0  0  0  0  0  0  0  0  0
  139.8670   70.4800  225.9150 C   0  0  0  0  0  0  0  0  0  0  0  0
  140.4180   71.4340  226.7730 C   0  0  0  0  0  0  0  0  0  0  0  0
  141.0360   71.0860  227.9560 C   0  0  0  0  0  0  0  0  0  0  0  0
  141.1350   69.7570  228.3430 C   0  0  0  0  0  0  0  0  0  0  0  0
  140.5950   68.7990  227.5100 C   0  0  0  0  0  0  0  0  0  0  0  0
  139.9770   69.1740  226.3220 C   0  0  0  0  0  0  0  0  0  0  0  0
  139.7450   76.8790  222.4020 C   0  0  0  0  0  0  0  0  0  0  0  0
  138.7370   77.7770  222.6880 C   0  0  0  0  0  0  0  0  0  0  0  0
  138.9650   79.0840  223.0600 C   0  0  0  0  0  0  0  0  0  0  0  0
  140.2780   79.5030  223.1470 C   0  0  0  0  0  0  0  0  0  0  0  0
  140.5040   80.7990  223.5160 C   0  0  0  0  0  0  0  0  0  0  0  0
  141.7980   81.2710  223.6190 C   0  0  0  0  0  0  0  0  0  0  0  0
  142.8300   80.3900  223.3380 C   0  0  0  0  0  0  0  0  0  0  0  0
  142.5820   79.0770  222.9650 C   0  0  0  0  0  0  0  0  0  0  0  0
  141.2780   78.5970  222.8600 C   0  0  0  0  0  0  0  0  0  0  0  0
  141.0080   77.3280  222.5000 N   0  0  0  0  0  0  0  0  0  0  0  0
  137.5590   76.0050  221.1740 H   0  0  0  0  0  0  0  0  0  0  0  0
  137.1755   73.8636  220.1506 H   0  0  0  0  0  0  0  0  0  0  0  0
  138.8308   73.3564  220.6457 H   0  0  0  0  0  0  0  0  0  0  0  0
  136.4659   71.4094  223.9597 H   0  0  0  0  0  0  0  0  0  0  0  0
  136.6610   70.3156  222.5573 H   0  0  0  0  0  0  0  0  0  0  0  0
  137.5025   69.4196  224.7444 H   0  0  0  0  0  0  0  0  0  0  0  0
  139.6934   68.6119  223.5052 H   0  0  0  0  0  0  0  0  0  0  0  0
  138.9196   69.1727  222.1486 H   0  0  0  0  0  0  0  0  0  0  0  0
  141.0436   70.8618  223.3204 H   0  0  0  0  0  0  0  0  0  0  0  0
  139.8876   72.8235  222.5912 H   0  0  0  0  0  0  0  0  0  0  0  0
  139.6352   71.5592  221.3664 H   0  0  0  0  0  0  0  0  0  0  0  0
  139.0782   71.9660  225.0879 H   0  0  0  0  0  0  0  0  0  0  0  0
  140.3573   72.4970  226.4966 H   0  0  0  0  0  0  0  0  0  0  0  0
  141.4558   71.8720  228.6010 H   0  0  0  0  0  0  0  0  0  0  0  0
  141.6288   69.4761  229.2849 H   0  0  0  0  0  0  0  0  0  0  0  0
  140.6534   67.7359  227.7862 H   0  0  0  0  0  0  0  0  0  0  0  0
  139.5567   68.3871  225.6785 H   0  0  0  0  0  0  0  0  0  0  0  0
  137.6954   77.4308  222.6151 H   0  0  0  0  0  0  0  0  0  0  0  0
  138.1321   79.7682  223.2795 H   0  0  0  0  0  0  0  0  0  0  0  0
  139.6561   81.4660  223.7309 H   0  0  0  0  0  0  0  0  0  0  0  0
  142.0023   82.3108  223.9140 H   0  0  0  0  0  0  0  0  0  0  0  0
  143.8702   80.7399  223.4124 H   0  0  0  0  0  0  0  0  0  0  0  0
  143.4262   78.4057  222.7492 H   0  0  0  0  0  0  0  0  0  0  0  0
  1  2  2  0
  2  3  1  0
  3  4  1  0
  4  5  1  0
  5  6  2  0
  5  7  1  0
  7  8  1  0
  8  9  1  0
  9 10  1  0
 10 11  1  0
 11 12  1  0
 11 13  1  0
 13 14  1  0
 14 15  2  0
 15 16  1  0
 16 17  2  0
 17 18  1  0
 18 19  2  0
  2 20  1  0
 20 21  2  0
 21 22  1  0
 22 23  2  0
 23 24  1  0
 24 25  2  0
 25 26  1  0
 26 27  2  0
 27 28  1  0
 28 29  2  0
 12  7  1  0
 19 14  1  0
 29 20  1  0
 13  9  1  0
 28 23  1  0
  3 30  1  0
  4 31  1  0
  4 32  1  0
  8 33  1  0
  8 34  1  0
  9 35  1  1
 10 36  1  0
 10 37  1  0
 11 38  1  1
 12 39  1  0
 12 40  1  0
 13 41  1  1
 15 42  1  0
 16 43  1  0
 17 44  1  0
 18 45  1  0
 19 46  1  0
 21 47  1  0
 22 48  1  0
 24 49  1  0
 25 50  1  0
 26 51  1  0
 27 52  1  0
M  END
>  <smiles>  (13) 
O=C(NCC(=O)N1C[C@H]2C[C@@H](C1)C2c1ccccc1)c1ccc2ccccc2n1

>  <score_type>  (13) 
oracle

>  <origin>  (13) 
autodockgpu

>  <m_score__min__energy>  (13) 
-9.5

>  <m_primary>  (13) 
energy

>  <rmsd>  (13) 
8.171249091416026

>  <m_score__min__rmsd>  (13) 
8.171249091416026

>  <meeko>  (13) 
{"free_energy": -9.33, "intermolecular_energy": -10.82, "internal_energy": -1.34, "cluster_size": 10, "cluster_id": 2, "rank_in_cluster": 1}

>  <energy>  (13) 
-9.14

>  <cluster_rmsd>  (13) 
1.43

>  <cluster>  (13) 
1

$$$$

     RDKit          3D

 52 56  0  0  1  0  0  0  0  0999 V2000
  139.7880   71.2440  221.2690 O   0  0  0  0  0  0  0  0  0  0  0  0
  139.7350   71.9580  222.3200 C   0  0  0  0  0  0  0  0  0  0  0  0
  139.5780   73.3600  222.2880 N   0  0  0  0  0  0  0  0  0  0  0  0
  139.4680   74.0310  221.0090 C   0  0  0  0  0  0  0  0  0  0  0  0
  138.2300   74.8470  220.9660 C   0  0  0  0  0  0  0  0  0  0  0  0
  137.1780   74.2580  220.6000 O   0  0  0  0  0  0  0  0  0  0  0  0
  138.2640   76.2270  221.3270 N   0  0  0  0  0  0  0  0  0  0  0  0
  138.5720   77.2160  220.3170 C   0  0  0  0  0  0  0  0  0  0  0  0
  139.0040   78.4950  221.0110 C   0  0  1  0  0  0  0  0  0  0  0  0
  137.8890   78.8810  221.9570 C   0  0  0  0  0  0  0  0  0  0  0  0
  138.5230   77.9490  222.9690 C   0  0  1  0  0  0  0  0  0  0  0  0
  137.9790   76.5430  222.7120 C   0  0  0  0  0  0  0  0  0  0  0  0
  139.8150   78.1110  222.2650 C   0  0  2  0  0  0  0  0  0  0  0  0
  140.7820   79.1040  222.7130 C   0  0  0  0  0  0  0  0  0  0  0  0
  140.2890   80.2330  223.3700 C   0  0  0  0  0  0  0  0  0  0  0  0
  141.1180   81.2390  223.8220 C   0  0  0  0  0  0  0  0  0  0  0  0
  142.4910   81.1640  223.6390 C   0  0  0  0  0  0  0  0  0  0  0  0
  142.9990   80.0550  222.9940 C   0  0  0  0  0  0  0  0  0  0  0  0
  142.1430   79.0550  222.5470 C   0  0  0  0  0  0  0  0  0  0  0  0
  139.8450   71.2730  223.6220 C   0  0  0  0  0  0  0  0  0  0  0  0
  139.4590   69.9560  223.7630 C   0  0  0  0  0  0  0  0  0  0  0  0
  139.5370   69.2630  224.9520 C   0  0  0  0  0  0  0  0  0  0  0  0
  140.0300   69.9360  226.0520 C   0  0  0  0  0  0  0  0  0  0  0  0
  140.1080   69.2490  227.2310 C   0  0  0  0  0  0  0  0  0  0  0  0
  140.5940   69.8750  228.3630 C   0  0  0  0  0  0  0  0  0  0  0  0
  140.9890   71.1970  228.2490 C   0  0  0  0  0  0  0  0  0  0  0  0
  140.9030   71.8800  227.0440 C   0  0  0  0  0  0  0  0  0  0  0  0
  140.4140   71.2530  225.8990 C   0  0  0  0  0  0  0  0  0  0  0  0
  140.3190   71.8910  224.7180 N   0  0  0  0  0  0  0  0  0  0  0  0
  139.5440   73.8750  223.1910 H   0  0  0  0  0  0  0  0  0  0  0  0
  140.3403   74.6856  220.8654 H   0  0  0  0  0  0  0  0  0  0  0  0
  139.4300   73.2769  220.2090 H   0  0  0  0  0  0  0  0  0  0  0  0
  139.3862   76.8492  219.6747 H   0  0  0  0  0  0  0  0  0  0  0  0
  137.6860   77.4064  219.6935 H   0  0  0  0  0  0  0  0  0  0  0  0
  139.3988   79.1609  220.2295 H   0  0  0  0  0  0  0  0  0  0  0  0
  137.8813   79.9412  222.2502 H   0  0  0  0  0  0  0  0  0  0  0  0
  136.8300   78.7950  221.6721 H   0  0  0  0  0  0  0  0  0  0  0  0
  138.4414   78.1100  224.0541 H   0  0  0  0  0  0  0  0  0  0  0  0
  138.4750   75.8187  223.3749 H   0  0  0  0  0  0  0  0  0  0  0  0
  136.8982   76.4969  222.9116 H   0  0  0  0  0  0  0  0  0  0  0  0
  140.5483   77.2916  222.2950 H   0  0  0  0  0  0  0  0  0  0  0  0
  139.2048   80.3233  223.5325 H   0  0  0  0  0  0  0  0  0  0  0  0
  140.6849   82.1111  224.3337 H   0  0  0  0  0  0  0  0  0  0  0  0
  143.1549   81.9646  223.9973 H   0  0  0  0  0  0  0  0  0  0  0  0
  144.0832   79.9620  222.8332 H   0  0  0  0  0  0  0  0  0  0  0  0
  142.5775   78.1832  222.0360 H   0  0  0  0  0  0  0  0  0  0  0  0
  139.0680   69.4308  222.8791 H   0  0  0  0  0  0  0  0  0  0  0  0
  139.2182   68.2125  225.0218 H   0  0  0  0  0  0  0  0  0  0  0  0
  139.7842   68.1988  227.2787 H   0  0  0  0  0  0  0  0  0  0  0  0
  140.6646   69.3411  229.3221 H   0  0  0  0  0  0  0  0  0  0  0  0
  141.3804   71.7186  229.1349 H   0  0  0  0  0  0  0  0  0  0  0  0
  141.2251   72.9305  226.9917 H   0  0  0  0  0  0  0  0  0  0  0  0
  1  2  2  0
  2  3  1  0
  3  4  1  0
  4  5  1  0
  5  6  2  0
  5  7  1  0
  7  8  1  0
  8  9  1  0
  9 10  1  0
 10 11  1  0
 11 12  1  0
 11 13  1  0
 13 14  1  0
 14 15  2  0
 15 16  1  0
 16 17  2  0
 17 18  1  0
 18 19  2  0
  2 20  1  0
 20 21  2  0
 21 22  1  0
 22 23  2  0
 23 24  1  0
 24 25  2  0
 25 26  1  0
 26 27  2  0
 27 28  1  0
 28 29  2  0
 12  7  1  0
 19 14  1  0
 29 20  1  0
 13  9  1  0
 28 23  1  0
  3 30  1  0
  4 31  1  0
  4 32  1  0
  8 33  1  0
  8 34  1  0
  9 35  1  6
 10 36  1  0
 10 37  1  0
 11 38  1  1
 12 39  1  0
 12 40  1  0
 13 41  1  6
 15 42  1  0
 16 43  1  0
 17 44  1  0
 18 45  1  0
 19 46  1  0
 21 47  1  0
 22 48  1  0
 24 49  1  0
 25 50  1  0
 26 51  1  0
 27 52  1  0
M  END
>  <smiles>  (14) 
O=C(NCC(=O)N1C[C@H]2C[C@@H](C1)C2c1ccccc1)c1ccc2ccccc2n1

>  <score_type>  (14) 
oracle

>  <origin>  (14) 
autodockgpu

>  <m_score__min__energy>  (14) 
-9.5

>  <m_primary>  (14) 
energy

>  <rmsd>  (14) 
3.1375698604726026

>  <m_score__min__rmsd>  (14) 
3.1375698604726026

>  <meeko>  (14) 
{"free_energy": -8.9, "intermolecular_energy": -10.39, "internal_energy": -1.33, "cluster_size": 36, "cluster_id": 1, "rank_in_cluster": 32}

>  <energy>  (14) 
-9.14

>  <cluster_rmsd>  (14) 
1.29

>  <cluster>  (14) 
1

$$$$

     RDKit          3D

 52 56  0  0  1  0  0  0  0  0999 V2000
  140.6100   71.0250  221.4040 O   0  0  0  0  0  0  0  0  0  0  0  0
  139.9870   71.5650  222.3720 C   0  0  0  0  0  0  0  0  0  0  0  0
  139.2900   72.7860  222.2500 N   0  0  0  0  0  0  0  0  0  0  0  0
  139.2700   73.4650  220.9710 C   0  0  0  0  0  0  0  0  0  0  0  0
  140.4240   74.3930  220.8690 C   0  0  0  0  0  0  0  0  0  0  0  0
  141.5600   73.8670  220.7220 O   0  0  0  0  0  0  0  0  0  0  0  0
  140.2220   75.8030  220.9390 N   0  0  0  0  0  0  0  0  0  0  0  0
  140.9580   76.6700  220.0430 C   0  0  0  0  0  0  0  0  0  0  0  0
  140.9370   78.0780  220.6090 C   0  0  1  0  0  0  0  0  0  0  0  0
  139.4860   78.4530  220.8030 C   0  0  0  0  0  0  0  0  0  0  0  0
  139.5610   77.7600  222.1480 C   0  0  1  0  0  0  0  0  0  0  0  0
  139.2710   76.2760  221.9250 C   0  0  0  0  0  0  0  0  0  0  0  0
  141.0250   77.9790  222.1460 C   0  0  2  0  0  0  0  0  0  0  0  0
  141.6000   79.1380  222.8150 C   0  0  0  0  0  0  0  0  0  0  0  0
  140.7200   80.1150  223.2850 C   0  0  0  0  0  0  0  0  0  0  0  0
  141.1630   81.2560  223.9200 C   0  0  0  0  0  0  0  0  0  0  0  0
  142.5170   81.4790  224.1190 C   0  0  0  0  0  0  0  0  0  0  0  0
  143.4040   80.5260  223.6630 C   0  0  0  0  0  0  0  0  0  0  0  0
  142.9340   79.3840  223.0250 C   0  0  0  0  0  0  0  0  0  0  0  0
  140.0070   70.8710  223.6730 C   0  0  0  0  0  0  0  0  0  0  0  0
  139.5000   69.5950  223.8020 C   0  0  0  0  0  0  0  0  0  0  0  0
  139.4900   68.8970  224.9900 C   0  0  0  0  0  0  0  0  0  0  0  0
  140.0190   69.5210  226.1030 C   0  0  0  0  0  0  0  0  0  0  0  0
  140.0090   68.8280  227.2810 C   0  0  0  0  0  0  0  0  0  0  0  0
  140.5260   69.4060  228.4240 C   0  0  0  0  0  0  0  0  0  0  0  0
  141.0430   70.6870  228.3230 C   0  0  0  0  0  0  0  0  0  0  0  0
  141.0440   71.3760  227.1180 C   0  0  0  0  0  0  0  0  0  0  0  0
  140.5240   70.7970  225.9620 C   0  0  0  0  0  0  0  0  0  0  0  0
  140.5130   71.4420  224.7810 N   0  0  0  0  0  0  0  0  0  0  0  0
  138.8050   73.1650  223.0890 H   0  0  0  0  0  0  0  0  0  0  0  0
  139.3288   72.7209  220.1629 H   0  0  0  0  0  0  0  0  0  0  0  0
  138.3363   74.0399  220.8827 H   0  0  0  0  0  0  0  0  0  0  0  0
  141.9973   76.3197  219.9584 H   0  0  0  0  0  0  0  0  0  0  0  0
  140.4967   76.6586  219.0445 H   0  0  0  0  0  0  0  0  0  0  0  0
  141.6450   78.6701  220.0105 H   0  0  0  0  0  0  0  0  0  0  0  0
  139.2938   79.5349  220.8536 H   0  0  0  0  0  0  0  0  0  0  0  0
  138.7161   78.1967  220.0603 H   0  0  0  0  0  0  0  0  0  0  0  0
  138.9406   78.0625  223.0045 H   0  0  0  0  0  0  0  0  0  0  0  0
  139.3952   75.7210  222.8666 H   0  0  0  0  0  0  0  0  0  0  0  0
  138.2379   76.1252  221.5786 H   0  0  0  0  0  0  0  0  0  0  0  0
  141.6741   77.2694  222.6799 H   0  0  0  0  0  0  0  0  0  0  0  0
  139.6388   79.9698  223.1442 H   0  0  0  0  0  0  0  0  0  0  0  0
  140.4328   81.9989  224.2733 H   0  0  0  0  0  0  0  0  0  0  0  0
  142.8731   82.3884  224.6252 H   0  0  0  0  0  0  0  0  0  0  0  0
  144.4853   80.6701  223.8045 H   0  0  0  0  0  0  0  0  0  0  0  0
  143.6656   78.6424  222.6717 H   0  0  0  0  0  0  0  0  0  0  0  0
  139.0812   69.1084  222.9088 H   0  0  0  0  0  0  0  0  0  0  0  0
  139.0758   67.8797  225.0499 H   0  0  0  0  0  0  0  0  0  0  0  0
  139.5899   67.8117  227.3188 H   0  0  0  0  0  0  0  0  0  0  0  0
  140.5271   68.8668  229.3828 H   0  0  0  0  0  0  0  0  0  0  0  0
  141.4624   71.1694  229.2182 H   0  0  0  0  0  0  0  0  0  0  0  0
  141.4610   72.3930  227.0750 H   0  0  0  0  0  0  0  0  0  0  0  0
  1  2  2  0
  2  3  1  0
  3  4  1  0
  4  5  1  0
  5  6  2  0
  5  7  1  0
  7  8  1  0
  8  9  1  0
  9 10  1  0
 10 11  1  0
 11 12  1  0
 11 13  1  0
 13 14  1  0
 14 15  2  0
 15 16  1  0
 16 17  2  0
 17 18  1  0
 18 19  2  0
  2 20  1  0
 20 21  2  0
 21 22  1  0
 22 23  2  0
 23 24  1  0
 24 25  2  0
 25 26  1  0
 26 27  2  0
 27 28  1  0
 28 29  2  0
 12  7  1  0
 19 14  1  0
 29 20  1  0
 13  9  1  0
 28 23  1  0
  3 30  1  0
  4 31  1  0
  4 32  1  0
  8 33  1  0
  8 34  1  0
  9 35  1  6
 10 36  1  0
 10 37  1  0
 11 38  1  1
 12 39  1  0
 12 40  1  0
 13 41  1  6
 15 42  1  0
 16 43  1  0
 17 44  1  0
 18 45  1  0
 19 46  1  0
 21 47  1  0
 22 48  1  0
 24 49  1  0
 25 50  1  0
 26 51  1  0
 27 52  1  0
M  END
>  <smiles>  (15) 
O=C(NCC(=O)N1C[C@H]2C[C@@H](C1)C2c1ccccc1)c1ccc2ccccc2n1

>  <score_type>  (15) 
oracle

>  <origin>  (15) 
autodockgpu

>  <m_score__min__energy>  (15) 
-9.5

>  <m_primary>  (15) 
energy

>  <rmsd>  (15) 
2.3641179290156207

>  <m_score__min__rmsd>  (15) 
2.3641179290156207

>  <meeko>  (15) 
{"free_energy": -9.46, "intermolecular_energy": -10.95, "internal_energy": -1.21, "cluster_size": 36, "cluster_id": 1, "rank_in_cluster": 3}

>  <energy>  (15) 
-9.14

>  <cluster_rmsd>  (15) 
1.49

>  <cluster>  (15) 
1

$$$$

     RDKit          3D

 52 56  0  0  1  0  0  0  0  0999 V2000
  139.5690   71.0700  221.1460 O   0  0  0  0  0  0  0  0  0  0  0  0
  140.2660   71.6260  222.0520 C   0  0  0  0  0  0  0  0  0  0  0  0
  141.1610   72.6850  221.7900 N   0  0  0  0  0  0  0  0  0  0  0  0
  141.3020   73.1740  220.4340 C   0  0  0  0  0  0  0  0  0  0  0  0
  141.9990   74.4840  220.4350 C   0  0  0  0  0  0  0  0  0  0  0  0
  143.2280   74.4700  220.1560 O   0  0  0  0  0  0  0  0  0  0  0  0
  141.2840   75.6800  220.7400 N   0  0  0  0  0  0  0  0  0  0  0  0
  141.3900   76.8170  219.8500 C   0  0  0  0  0  0  0  0  0  0  0  0
  140.9530   78.0600  220.6020 C   0  0  1  0  0  0  0  0  0  0  0  0
  139.5600   77.7920  221.1240 C   0  0  0  0  0  0  0  0  0  0  0  0
  140.2120   77.1260  222.3180 C   0  0  1  0  0  0  0  0  0  0  0  0
  140.4830   75.6680  221.9480 C   0  0  0  0  0  0  0  0  0  0  0  0
  141.4290   77.9300  222.0640 C   0  0  2  0  0  0  0  0  0  0  0  0
  141.6440   79.1880  222.7650 C   0  0  0  0  0  0  0  0  0  0  0  0
  142.9580   79.5290  223.0900 C   0  0  0  0  0  0  0  0  0  0  0  0
  143.2680   80.6920  223.7650 C   0  0  0  0  0  0  0  0  0  0  0  0
  142.2720   81.5770  224.1510 C   0  0  0  0  0  0  0  0  0  0  0  0
  140.9670   81.2590  223.8380 C   0  0  0  0  0  0  0  0  0  0  0  0
  140.6790   80.0820  223.1580 C   0  0  0  0  0  0  0  0  0  0  0  0
  140.1200   71.1280  223.4330 C   0  0  0  0  0  0  0  0  0  0  0  0
  139.3900   69.9880  223.7000 C   0  0  0  0  0  0  0  0  0  0  0  0
  139.2170   69.4750  224.9670 C   0  0  0  0  0  0  0  0  0  0  0  0
  139.8130   70.1480  226.0160 C   0  0  0  0  0  0  0  0  0  0  0  0
  139.6420   69.6390  227.2720 C   0  0  0  0  0  0  0  0  0  0  0  0
  140.2160   70.2730  228.3570 C   0  0  0  0  0  0  0  0  0  0  0  0
  140.9560   71.4200  228.1170 C   0  0  0  0  0  0  0  0  0  0  0  0
  141.1190   71.9230  226.8340 C   0  0  0  0  0  0  0  0  0  0  0  0
  140.5410   71.2860  225.7360 C   0  0  0  0  0  0  0  0  0  0  0  0
  140.6830   71.7530  224.4820 N   0  0  0  0  0  0  0  0  0  0  0  0
  141.6970   73.0880  222.5850 H   0  0  0  0  0  0  0  0  0  0  0  0
  141.8862   72.4513  219.8454 H   0  0  0  0  0  0  0  0  0  0  0  0
  140.3033   73.2976  219.9898 H   0  0  0  0  0  0  0  0  0  0  0  0
  142.4322   76.9319  219.5174 H   0  0  0  0  0  0  0  0  0  0  0  0
  140.7502   76.6659  218.9680 H   0  0  0  0  0  0  0  0  0  0  0  0
  141.2118   78.9204  219.9674 H   0  0  0  0  0  0  0  0  0  0  0  0
  138.9773   78.6940  221.3625 H   0  0  0  0  0  0  0  0  0  0  0  0
  138.8016   77.2777  220.5155 H   0  0  0  0  0  0  0  0  0  0  0  0
  139.7415   77.1022  223.3120 H   0  0  0  0  0  0  0  0  0  0  0  0
  141.0311   75.1677  222.7599 H   0  0  0  0  0  0  0  0  0  0  0  0
  139.5417   75.1213  221.7898 H   0  0  0  0  0  0  0  0  0  0  0  0
  142.4091   77.5260  222.3577 H   0  0  0  0  0  0  0  0  0  0  0  0
  143.7722   78.8491  222.7988 H   0  0  0  0  0  0  0  0  0  0  0  0
  144.3181   80.9201  223.9999 H   0  0  0  0  0  0  0  0  0  0  0  0
  142.5156   82.5042  224.6903 H   0  0  0  0  0  0  0  0  0  0  0  0
  140.1521   81.9389  224.1274 H   0  0  0  0  0  0  0  0  0  0  0  0
  139.6283   79.8558  222.9235 H   0  0  0  0  0  0  0  0  0  0  0  0
  138.9211   69.4605  222.8563 H   0  0  0  0  0  0  0  0  0  0  0  0
  138.6260   68.5630  225.1370 H   0  0  0  0  0  0  0  0  0  0  0  0
  139.0478   68.7251  227.4194 H   0  0  0  0  0  0  0  0  0  0  0  0
  140.0900   69.8807  229.3769 H   0  0  0  0  0  0  0  0  0  0  0  0
  141.4249   71.9437  228.9631 H   0  0  0  0  0  0  0  0  0  0  0  0
  141.7122   72.8366  226.6808 H   0  0  0  0  0  0  0  0  0  0  0  0
  1  2  2  0
  2  3  1  0
  3  4  1  0
  4  5  1  0
  5  6  2  0
  5  7  1  0
  7  8  1  0
  8  9  1  0
  9 10  1  0
 10 11  1  0
 11 12  1  0
 11 13  1  0
 13 14  1  0
 14 15  2  0
 15 16  1  0
 16 17  2  0
 17 18  1  0
 18 19  2  0
  2 20  1  0
 20 21  2  0
 21 22  1  0
 22 23  2  0
 23 24  1  0
 24 25  2  0
 25 26  1  0
 26 27  2  0
 27 28  1  0
 28 29  2  0
 12  7  1  0
 19 14  1  0
 29 20  1  0
 13  9  1  0
 28 23  1  0
  3 30  1  0
  4 31  1  0
  4 32  1  0
  8 33  1  0
  8 34  1  0
  9 35  1  6
 10 36  1  0
 10 37  1  0
 11 38  1  1
 12 39  1  0
 12 40  1  0
 13 41  1  6
 15 42  1  0
 16 43  1  0
 17 44  1  0
 18 45  1  0
 19 46  1  0
 21 47  1  0
 22 48  1  0
 24 49  1  0
 25 50  1  0
 26 51  1  0
 27 52  1  0
M  END
>  <smiles>  (16) 
O=C(NCC(=O)N1C[C@H]2C[C@@H](C1)C2c1ccccc1)c1ccc2ccccc2n1

>  <score_type>  (16) 
oracle

>  <origin>  (16) 
autodockgpu

>  <m_score__min__energy>  (16) 
-9.5

>  <m_primary>  (16) 
energy

>  <rmsd>  (16) 
2.7443839194251294

>  <m_score__min__rmsd>  (16) 
2.7443839194251294

>  <meeko>  (16) 
{"free_energy": -9.04, "intermolecular_energy": -10.53, "internal_energy": -1.47, "cluster_size": 36, "cluster_id": 1, "rank_in_cluster": 25}

>  <energy>  (16) 
-9.13

>  <cluster_rmsd>  (16) 
1.52

>  <cluster>  (16) 
1

$$$$

     RDKit          3D

 52 56  0  0  1  0  0  0  0  0999 V2000
  138.8340   70.7440  221.6250 O   0  0  0  0  0  0  0  0  0  0  0  0
  139.2600   71.3260  222.6730 C   0  0  0  0  0  0  0  0  0  0  0  0
  139.5440   72.7080  222.7200 N   0  0  0  0  0  0  0  0  0  0  0  0
  139.3450   73.5130  221.5320 C   0  0  0  0  0  0  0  0  0  0  0  0
  140.6060   74.2090  221.1710 C   0  0  0  0  0  0  0  0  0  0  0  0
  141.6560   73.5130  221.1770 O   0  0  0  0  0  0  0  0  0  0  0  0
  140.5920   75.5960  220.8390 N   0  0  0  0  0  0  0  0  0  0  0  0
  141.7790   76.1990  220.2690 C   0  0  0  0  0  0  0  0  0  0  0  0
  141.6860   77.7040  220.4470 C   0  0  1  0  0  0  0  0  0  0  0  0
  140.3850   78.1430  219.8150 C   0  0  0  0  0  0  0  0  0  0  0  0
  139.7150   77.8040  221.1300 C   0  0  1  0  0  0  0  0  0  0  0  0
  139.3630   76.3160  221.1040 C   0  0  0  0  0  0  0  0  0  0  0  0
  141.0180   77.9870  221.8080 C   0  0  2  0  0  0  0  0  0  0  0  0
  141.3600   79.2640  222.4180 C   0  0  0  0  0  0  0  0  0  0  0  0
  142.2980   79.2540  223.4530 C   0  0  0  0  0  0  0  0  0  0  0  0
  142.6820   80.4070  224.1060 C   0  0  0  0  0  0  0  0  0  0  0  0
  142.1440   81.6360  223.7540 C   0  0  0  0  0  0  0  0  0  0  0  0
  141.2160   81.6680  222.7340 C   0  0  0  0  0  0  0  0  0  0  0  0
  140.8450   80.4930  222.0900 C   0  0  0  0  0  0  0  0  0  0  0  0
  139.4610   70.5060  223.8810 C   0  0  0  0  0  0  0  0  0  0  0  0
  139.0420   69.1920  223.9220 C   0  0  0  0  0  0  0  0  0  0  0  0
  139.2010   68.3760  225.0210 C   0  0  0  0  0  0  0  0  0  0  0  0
  139.8140   68.9170  226.1340 C   0  0  0  0  0  0  0  0  0  0  0  0
  139.9720   68.1080  227.2240 C   0  0  0  0  0  0  0  0  0  0  0  0
  140.5790   68.5980  228.3640 C   0  0  0  0  0  0  0  0  0  0  0  0
  141.0110   69.9140  228.3510 C   0  0  0  0  0  0  0  0  0  0  0  0
  140.8420   70.7220  227.2350 C   0  0  0  0  0  0  0  0  0  0  0  0
  140.2300   70.2310  226.0820 C   0  0  0  0  0  0  0  0  0  0  0  0
  140.0530   70.9920  224.9860 N   0  0  0  0  0  0  0  0  0  0  0  0
  139.8900   73.1120  223.6140 H   0  0  0  0  0  0  0  0  0  0  0  0
  139.0367   72.8634  220.6996 H   0  0  0  0  0  0  0  0  0  0  0  0
  138.5642   74.2619  221.7308 H   0  0  0  0  0  0  0  0  0  0  0  0
  142.6730   75.8186  220.7849 H   0  0  0  0  0  0  0  0  0  0  0  0
  141.8533   75.9491  219.2003 H   0  0  0  0  0  0  0  0  0  0  0  0
  142.6677   78.1160  220.1705 H   0  0  0  0  0  0  0  0  0  0  0  0
  140.3441   79.2071  219.5392 H   0  0  0  0  0  0  0  0  0  0  0  0
  140.0337   77.7253  218.8600 H   0  0  0  0  0  0  0  0  0  0  0  0
  138.8110   78.3215  221.4836 H   0  0  0  0  0  0  0  0  0  0  0  0
  138.9468   76.0090  222.0748 H   0  0  0  0  0  0  0  0  0  0  0  0
  138.6088   76.1039  220.3319 H   0  0  0  0  0  0  0  0  0  0  0  0
  141.2295   77.4192  222.7261 H   0  0  0  0  0  0  0  0  0  0  0  0
  142.7449   78.2960  223.7572 H   0  0  0  0  0  0  0  0  0  0  0  0
  143.4242   80.3509  224.9160 H   0  0  0  0  0  0  0  0  0  0  0  0
  142.4481   82.5572  224.2725 H   0  0  0  0  0  0  0  0  0  0  0  0
  140.7684   82.6255  222.4293 H   0  0  0  0  0  0  0  0  0  0  0  0
  140.1037   80.5512  221.2794 H   0  0  0  0  0  0  0  0  0  0  0  0
  138.5547   68.7732  223.0292 H   0  0  0  0  0  0  0  0  0  0  0  0
  138.8527   67.3326  225.0121 H   0  0  0  0  0  0  0  0  0  0  0  0
  139.6162   67.0676  227.1936 H   0  0  0  0  0  0  0  0  0  0  0  0
  140.7148   67.9641  229.2527 H   0  0  0  0  0  0  0  0  0  0  0  0
  141.4992   70.3283  229.2455 H   0  0  0  0  0  0  0  0  0  0  0  0
  141.1955   71.7634  227.2604 H   0  0  0  0  0  0  0  0  0  0  0  0
  1  2  2  0
  2  3  1  0
  3  4  1  0
  4  5  1  0
  5  6  2  0
  5  7  1  0
  7  8  1  0
  8  9  1  0
  9 10  1  0
 10 11  1  0
 11 12  1  0
 11 13  1  0
 13 14  1  0
 14 15  2  0
 15 16  1  0
 16 17  2  0
 17 18  1  0
 18 19  2  0
  2 20  1  0
 20 21  2  0
 21 22  1  0
 22 23  2  0
 23 24  1  0
 24 25  2  0
 25 26  1  0
 26 27  2  0
 27 28  1  0
 28 29  2  0
 12  7  1  0
 19 14  1  0
 29 20  1  0
 13  9  1  0
 28 23  1  0
  3 30  1  0
  4 31  1  0
  4 32  1  0
  8 33  1  0
  8 34  1  0
  9 35  1  6
 10 36  1  0
 10 37  1  0
 11 38  1  1
 12 39  1  0
 12 40  1  0
 13 41  1  1
 15 42  1  0
 16 43  1  0
 17 44  1  0
 18 45  1  0
 19 46  1  0
 21 47  1  0
 22 48  1  0
 24 49  1  0
 25 50  1  0
 26 51  1  0
 27 52  1  0
M  END
>  <smiles>  (17) 
O=C(NCC(=O)N1C[C@H]2C[C@@H](C1)C2c1ccccc1)c1ccc2ccccc2n1

>  <score_type>  (17) 
oracle

>  <origin>  (17) 
autodockgpu

>  <m_score__min__energy>  (17) 
-9.5

>  <m_primary>  (17) 
energy

>  <rmsd>  (17) 
1.9867605184065584

>  <m_score__min__rmsd>  (17) 
1.9867605184065584

>  <meeko>  (17) 
{"free_energy": -9.14, "intermolecular_energy": -10.63, "internal_energy": -1.41, "cluster_size": 36, "cluster_id": 1, "rank_in_cluster": 14}

>  <energy>  (17) 
-9.12

>  <cluster_rmsd>  (17) 
0.82

>  <cluster>  (17) 
1

$$$$

     RDKit          3D

 52 56  0  0  1  0  0  0  0  0999 V2000
  138.7610   75.5470  221.6880 O   0  0  0  0  0  0  0  0  0  0  0  0
  139.9480   75.8560  222.0220 C   0  0  0  0  0  0  0  0  0  0  0  0
  141.0230   74.9430  221.9660 N   0  0  0  0  0  0  0  0  0  0  0  0
  140.7800   73.5910  221.5080 C   0  0  0  0  0  0  0  0  0  0  0  0
  141.7800   73.2150  220.4780 C   0  0  0  0  0  0  0  0  0  0  0  0
  142.0800   71.9930  220.4020 O   0  0  0  0  0  0  0  0  0  0  0  0
  142.3540   74.2110  219.6340 N   0  0  0  0  0  0  0  0  0  0  0  0
  143.5620   74.8880  220.0570 C   0  0  0  0  0  0  0  0  0  0  0  0
  143.6960   76.1740  219.2630 C   0  0  1  0  0  0  0  0  0  0  0  0
  143.6610   75.7940  217.8000 C   0  0  0  0  0  0  0  0  0  0  0  0
  142.1510   75.8440  217.8970 C   0  0  1  0  0  0  0  0  0  0  0  0
  141.6690   74.4780  218.3860 C   0  0  0  0  0  0  0  0  0  0  0  0
  142.2840   76.7590  219.0530 C   0  0  2  0  0  0  0  0  0  0  0  0
  142.2280   78.2020  218.8640 C   0  0  0  0  0  0  0  0  0  0  0  0
  141.8180   78.9790  219.9500 C   0  0  0  0  0  0  0  0  0  0  0  0
  141.7180   80.3530  219.8720 C   0  0  0  0  0  0  0  0  0  0  0  0
  142.0250   81.0220  218.6960 C   0  0  0  0  0  0  0  0  0  0  0  0
  142.4340   80.2740  217.6130 C   0  0  0  0  0  0  0  0  0  0  0  0
  142.5270   78.8900  217.7150 C   0  0  0  0  0  0  0  0  0  0  0  0
  140.1930   77.2340  222.4870 C   0  0  0  0  0  0  0  0  0  0  0  0
  139.1440   78.0910  222.7460 C   0  0  0  0  0  0  0  0  0  0  0  0
  139.3100   79.3880  223.1820 C   0  0  0  0  0  0  0  0  0  0  0  0
  140.6020   79.8400  223.3640 C   0  0  0  0  0  0  0  0  0  0  0  0
  140.7660   81.1260  223.7960 C   0  0  0  0  0  0  0  0  0  0  0  0
  142.0380   81.6290  223.9940 C   0  0  0  0  0  0  0  0  0  0  0  0
  143.1100   80.7900  223.7420 C   0  0  0  0  0  0  0  0  0  0  0  0
  142.9250   79.4860  223.3030 C   0  0  0  0  0  0  0  0  0  0  0  0
  141.6440   78.9740  223.1020 C   0  0  0  0  0  0  0  0  0  0  0  0
  141.4350   77.7140  222.6770 N   0  0  0  0  0  0  0  0  0  0  0  0
  141.9660   75.2710  222.2580 H   0  0  0  0  0  0  0  0  0  0  0  0
  140.8567   72.8989  222.3595 H   0  0  0  0  0  0  0  0  0  0  0  0
  139.7726   73.5345  221.0699 H   0  0  0  0  0  0  0  0  0  0  0  0
  143.5012   75.1194  221.1307 H   0  0  0  0  0  0  0  0  0  0  0  0
  144.4363   74.2439  219.8818 H   0  0  0  0  0  0  0  0  0  0  0  0
  144.5134   76.7470  219.7251 H   0  0  0  0  0  0  0  0  0  0  0  0
  144.1028   76.5383  217.1212 H   0  0  0  0  0  0  0  0  0  0  0  0
  144.1890   74.9079  217.4178 H   0  0  0  0  0  0  0  0  0  0  0  0
  141.5120   76.0993  217.0388 H   0  0  0  0  0  0  0  0  0  0  0  0
  140.5812   74.4968  218.5483 H   0  0  0  0  0  0  0  0  0  0  0  0
  141.8852   73.6957  217.6435 H   0  0  0  0  0  0  0  0  0  0  0  0
  141.5000   76.7655  219.8246 H   0  0  0  0  0  0  0  0  0  0  0  0
  141.5669   78.4797  220.8974 H   0  0  0  0  0  0  0  0  0  0  0  0
  141.3909   80.9248  220.7529 H   0  0  0  0  0  0  0  0  0  0  0  0
  141.9444   82.1170  218.6299 H   0  0  0  0  0  0  0  0  0  0  0  0
  142.6875   80.7727  216.6659 H   0  0  0  0  0  0  0  0  0  0  0  0
  142.8556   78.3203  216.8333 H   0  0  0  0  0  0  0  0  0  0  0  0
  138.1195   77.7194  222.5966 H   0  0  0  0  0  0  0  0  0  0  0  0
  138.4452   80.0390  223.3778 H   0  0  0  0  0  0  0  0  0  0  0  0
  139.8872   81.7598  223.9858 H   0  0  0  0  0  0  0  0  0  0  0  0
  142.1934   82.6615  224.3402 H   0  0  0  0  0  0  0  0  0  0  0  0
  144.1328   81.1656  223.8932 H   0  0  0  0  0  0  0  0  0  0  0  0
  143.8006   78.8484  223.1112 H   0  0  0  0  0  0  0  0  0  0  0  0
  1  2  2  0
  2  3  1  0
  3  4  1  0
  4  5  1  0
  5  6  2  0
  5  7  1  0
  7  8  1  0
  8  9  1  0
  9 10  1  0
 10 11  1  0
 11 12  1  0
 11 13  1  0
 13 14  1  0
 14 15  2  0
 15 16  1  0
 16 17  2  0
 17 18  1  0
 18 19  2  0
  2 20  1  0
 20 21  2  0
 21 22  1  0
 22 23  2  0
 23 24  1  0
 24 25  2  0
 25 26  1  0
 26 27  2  0
 27 28  1  0
 28 29  2  0
 12  7  1  0
 19 14  1  0
 29 20  1  0
 13  9  1  0
 28 23  1  0
  3 30  1  0
  4 31  1  0
  4 32  1  0
  8 33  1  0
  8 34  1  0
  9 35  1  1
 10 36  1  0
 10 37  1  0
 11 38  1  6
 12 39  1  0
 12 40  1  0
 13 41  1  1
 15 42  1  0
 16 43  1  0
 17 44  1  0
 18 45  1  0
 19 46  1  0
 21 47  1  0
 22 48  1  0
 24 49  1  0
 25 50  1  0
 26 51  1  0
 27 52  1  0
M  END
>  <smiles>  (18) 
O=C(NCC(=O)N1C[C@H]2C[C@@H](C1)C2c1ccccc1)c1ccc2ccccc2n1

>  <score_type>  (18) 
oracle

>  <origin>  (18) 
autodockgpu

>  <m_score__min__energy>  (18) 
-9.5

>  <m_primary>  (18) 
energy

>  <rmsd>  (18) 
7.209399882060895

>  <m_score__min__rmsd>  (18) 
7.209399882060895

>  <meeko>  (18) 
{"free_energy": -7.18, "intermolecular_energy": -8.67, "internal_energy": -2.86, "cluster_size": 3, "cluster_id": 4, "rank_in_cluster": 1}

>  <energy>  (18) 
-9.11

>  <cluster_rmsd>  (18) 
1.62

>  <cluster>  (18) 
1

$$$$

     RDKit          3D

 52 56  0  0  1  0  0  0  0  0999 V2000
  140.3630   74.6480  222.0490 O   0  0  0  0  0  0  0  0  0  0  0  0
  139.4290   75.5080  221.9890 C   0  0  0  0  0  0  0  0  0  0  0  0
  138.1240   75.1950  221.5530 N   0  0  0  0  0  0  0  0  0  0  0  0
  137.8170   73.8360  221.1560 C   0  0  0  0  0  0  0  0  0  0  0  0
  137.3170   73.0650  222.3220 C   0  0  0  0  0  0  0  0  0  0  0  0
  136.2890   73.5130  222.8970 O   0  0  0  0  0  0  0  0  0  0  0  0
  137.9920   71.8810  222.7440 N   0  0  0  0  0  0  0  0  0  0  0  0
  137.2230   70.7890  223.3030 C   0  0  0  0  0  0  0  0  0  0  0  0
  138.1620   69.8880  224.0830 C   0  0  1  0  0  0  0  0  0  0  0  0
  139.2620   69.4700  223.1340 C   0  0  0  0  0  0  0  0  0  0  0  0
  139.9680   70.7600  223.4970 C   0  0  1  0  0  0  0  0  0  0  0  0
  139.4310   71.8590  222.5800 C   0  0  0  0  0  0  0  0  0  0  0  0
  139.2180   70.7770  224.7730 C   0  0  2  0  0  0  0  0  0  0  0  0
  139.8060   70.2230  225.9840 C   0  0  0  0  0  0  0  0  0  0  0  0
  139.6220   68.8600  226.2260 C   0  0  0  0  0  0  0  0  0  0  0  0
  140.1270   68.2400  227.3500 C   0  0  0  0  0  0  0  0  0  0  0  0
  140.8470   68.9570  228.2940 C   0  0  0  0  0  0  0  0  0  0  0  0
  141.0420   70.3050  228.0740 C   0  0  0  0  0  0  0  0  0  0  0  0
  140.5230   70.9070  226.9330 C   0  0  0  0  0  0  0  0  0  0  0  0
  139.7430   76.8910  222.3940 C   0  0  0  0  0  0  0  0  0  0  0  0
  138.7360   77.7900  222.6790 C   0  0  0  0  0  0  0  0  0  0  0  0
  138.9660   79.0940  223.0610 C   0  0  0  0  0  0  0  0  0  0  0  0
  140.2800   79.5090  223.1610 C   0  0  0  0  0  0  0  0  0  0  0  0
  140.5070   80.8010  223.5410 C   0  0  0  0  0  0  0  0  0  0  0  0
  141.8030   81.2680  223.6560 C   0  0  0  0  0  0  0  0  0  0  0  0
  142.8330   80.3860  223.3770 C   0  0  0  0  0  0  0  0  0  0  0  0
  142.5840   79.0750  222.9920 C   0  0  0  0  0  0  0  0  0  0  0  0
  141.2780   78.6000  222.8750 C   0  0  0  0  0  0  0  0  0  0  0  0
  141.0080   77.3350  222.5040 N   0  0  0  0  0  0  0  0  0  0  0  0
  137.4140   75.9540  221.5310 H   0  0  0  0  0  0  0  0  0  0  0  0
  137.0456   73.8514  220.3720 H   0  0  0  0  0  0  0  0  0  0  0  0
  138.7304   73.3576  220.7727 H   0  0  0  0  0  0  0  0  0  0  0  0
  136.4477   71.1868  223.9743 H   0  0  0  0  0  0  0  0  0  0  0  0
  136.7371   70.2193  222.4972 H   0  0  0  0  0  0  0  0  0  0  0  0
  137.5308   69.1769  224.6360 H   0  0  0  0  0  0  0  0  0  0  0  0
  139.7979   68.5549  223.4263 H   0  0  0  0  0  0  0  0  0  0  0  0
  139.0539   69.1968  222.0890 H   0  0  0  0  0  0  0  0  0  0  0  0
  141.0633   70.8603  223.4783 H   0  0  0  0  0  0  0  0  0  0  0  0
  139.8587   72.8315  222.8651 H   0  0  0  0  0  0  0  0  0  0  0  0
  139.7040   71.6646  221.5323 H   0  0  0  0  0  0  0  0  0  0  0  0
  138.9923   71.7426  225.2491 H   0  0  0  0  0  0  0  0  0  0  0  0
  139.0561   68.2615  225.4968 H   0  0  0  0  0  0  0  0  0  0  0  0
  139.9566   67.1636  227.4995 H   0  0  0  0  0  0  0  0  0  0  0  0
  141.2506   68.4655  229.1915 H   0  0  0  0  0  0  0  0  0  0  0  0
  141.6086   70.9042  228.8020 H   0  0  0  0  0  0  0  0  0  0  0  0
  140.6955   71.9831  226.7841 H   0  0  0  0  0  0  0  0  0  0  0  0
  137.6938   77.4476  222.5969 H   0  0  0  0  0  0  0  0  0  0  0  0
  138.1337   79.7795  223.2784 H   0  0  0  0  0  0  0  0  0  0  0  0
  139.6598   81.4691  223.7552 H   0  0  0  0  0  0  0  0  0  0  0  0
  142.0089   82.3052  223.9589 H   0  0  0  0  0  0  0  0  0  0  0  0
  143.8737   80.7319  223.4623 H   0  0  0  0  0  0  0  0  0  0  0  0
  143.4276   78.4028  222.7766 H   0  0  0  0  0  0  0  0  0  0  0  0
  1  2  2  0
  2  3  1  0
  3  4  1  0
  4  5  1  0
  5  6  2  0
  5  7  1  0
  7  8  1  0
  8  9  1  0
  9 10  1  0
 10 11  1  0
 11 12  1  0
 11 13  1  0
 13 14  1  0
 14 15  2  0
 15 16  1  0
 16 17  2  0
 17 18  1  0
 18 19  2  0
  2 20  1  0
 20 21  2  0
 21 22  1  0
 22 23  2  0
 23 24  1  0
 24 25  2  0
 25 26  1  0
 26 27  2  0
 27 28  1  0
 28 29  2  0
 12  7  1  0
 19 14  1  0
 29 20  1  0
 13  9  1  0
 28 23  1  0
  3 30  1  0
  4 31  1  0
  4 32  1  0
  8 33  1  0
  8 34  1  0
  9 35  1  1
 10 36  1  0
 10 37  1  0
 11 38  1  1
 12 39  1  0
 12 40  1  0
 13 41  1  1
 15 42  1  0
 16 43  1  0
 17 44  1  0
 18 45  1  0
 19 46  1  0
 21 47  1  0
 22 48  1  0
 24 49  1  0
 25 50  1  0
 26 51  1  0
 27 52  1  0
M  END
>  <smiles>  (19) 
O=C(NCC(=O)N1C[C@H]2C[C@@H](C1)C2c1ccccc1)c1ccc2ccccc2n1

>  <score_type>  (19) 
oracle

>  <origin>  (19) 
autodockgpu

>  <m_score__min__energy>  (19) 
-9.5

>  <m_primary>  (19) 
energy

>  <rmsd>  (19) 
8.198007868119692

>  <m_score__min__rmsd>  (19) 
8.198007868119692

>  <meeko>  (19) 
{"free_energy": -9.3, "intermolecular_energy": -10.79, "internal_energy": -1.31, "cluster_size": 10, "cluster_id": 2, "rank_in_cluster": 5}

>  <energy>  (19) 
-9.1

>  <cluster_rmsd>  (19) 
1.59

>  <cluster>  (19) 
1

$$$$

     RDKit          3D

 52 56  0  0  1  0  0  0  0  0999 V2000
  139.0040   75.1270  221.7120 O   0  0  0  0  0  0  0  0  0  0  0  0
  140.1670   75.6060  221.9000 C   0  0  0  0  0  0  0  0  0  0  0  0
  141.3460   74.8580  221.6940 N   0  0  0  0  0  0  0  0  0  0  0  0
  141.2450   73.4850  221.2470 C   0  0  0  0  0  0  0  0  0  0  0  0
  141.7850   73.3560  219.8700 C   0  0  0  0  0  0  0  0  0  0  0  0
  141.8950   72.1860  219.4140 O   0  0  0  0  0  0  0  0  0  0  0  0
  142.1520   74.5180  219.1300 N   0  0  0  0  0  0  0  0  0  0  0  0
  143.3790   75.2120  219.4620 C   0  0  0  0  0  0  0  0  0  0  0  0
  143.3080   76.6160  218.8910 C   0  0  1  0  0  0  0  0  0  0  0  0
  143.0400   76.4760  217.4100 C   0  0  0  0  0  0  0  0  0  0  0  0
  141.5680   76.3900  217.7570 C   0  0  1  0  0  0  0  0  0  0  0  0
  141.2490   74.9280  218.0740 C   0  0  0  0  0  0  0  0  0  0  0  0
  141.8530   77.1130  219.0170 C   0  0  2  0  0  0  0  0  0  0  0  0
  141.6910   78.5590  219.0920 C   0  0  0  0  0  0  0  0  0  0  0  0
  140.5570   79.0470  219.7450 C   0  0  0  0  0  0  0  0  0  0  0  0
  140.3030   80.3980  219.8600 C   0  0  0  0  0  0  0  0  0  0  0  0
  141.1760   81.3340  219.3250 C   0  0  0  0  0  0  0  0  0  0  0  0
  142.3020   80.8720  218.6760 C   0  0  0  0  0  0  0  0  0  0  0  0
  142.5370   79.5060  218.5730 C   0  0  0  0  0  0  0  0  0  0  0  0
  140.2680   77.0050  222.3550 C   0  0  0  0  0  0  0  0  0  0  0  0
  139.1370   77.7320  222.6660 C   0  0  0  0  0  0  0  0  0  0  0  0
  139.1680   79.0410  223.0940 C   0  0  0  0  0  0  0  0  0  0  0  0
  140.4040   79.6450  223.2140 C   0  0  0  0  0  0  0  0  0  0  0  0
  140.4350   80.9430  223.6400 C   0  0  0  0  0  0  0  0  0  0  0  0
  141.6450   81.5960  223.7760 C   0  0  0  0  0  0  0  0  0  0  0  0
  142.7970   80.8890  223.4710 C   0  0  0  0  0  0  0  0  0  0  0  0
  142.7470   79.5710  223.0400 C   0  0  0  0  0  0  0  0  0  0  0  0
  141.5280   78.9090  222.9010 C   0  0  0  0  0  0  0  0  0  0  0  0
  141.4510   77.6310  222.4850 N   0  0  0  0  0  0  0  0  0  0  0  0
  142.2610   75.3200  221.8700 H   0  0  0  0  0  0  0  0  0  0  0  0
  141.8204   72.8381  221.9256 H   0  0  0  0  0  0  0  0  0  0  0  0
  140.1874   73.1825  221.2489 H   0  0  0  0  0  0  0  0  0  0  0  0
  143.4933   75.2613  220.5549 H   0  0  0  0  0  0  0  0  0  0  0  0
  144.2413   74.6762  219.0385 H   0  0  0  0  0  0  0  0  0  0  0  0
  144.1628   77.1699  219.3064 H   0  0  0  0  0  0  0  0  0  0  0  0
  143.3196   77.3529  216.8076 H   0  0  0  0  0  0  0  0  0  0  0  0
  143.5382   75.7079  216.8003 H   0  0  0  0  0  0  0  0  0  0  0  0
  140.7777   76.7295  217.0713 H   0  0  0  0  0  0  0  0  0  0  0  0
  140.2060   74.8331  218.4105 H   0  0  0  0  0  0  0  0  0  0  0  0
  141.3743   74.2961  217.1824 H   0  0  0  0  0  0  0  0  0  0  0  0
  141.2158   76.9317  219.8952 H   0  0  0  0  0  0  0  0  0  0  0  0
  139.8442   78.3318  220.1812 H   0  0  0  0  0  0  0  0  0  0  0  0
  139.3966   80.7375  220.3826 H   0  0  0  0  0  0  0  0  0  0  0  0
  140.9763   82.4119  219.4156 H   0  0  0  0  0  0  0  0  0  0  0  0
  143.0155   81.5861  218.2390 H   0  0  0  0  0  0  0  0  0  0  0  0
  143.4442   79.1683  218.0506 H   0  0  0  0  0  0  0  0  0  0  0  0
  138.1582   77.2398  222.5668 H   0  0  0  0  0  0  0  0  0  0  0  0
  138.2420   79.5852  223.3315 H   0  0  0  0  0  0  0  0  0  0  0  0
  139.4971   81.4677  223.8745 H   0  0  0  0  0  0  0  0  0  0  0  0
  141.6922   82.6414  224.1148 H   0  0  0  0  0  0  0  0  0  0  0  0
  143.7740   81.3841  223.5729 H   0  0  0  0  0  0  0  0  0  0  0  0
  143.6819   79.0413  222.8048 H   0  0  0  0  0  0  0  0  0  0  0  0
  1  2  2  0
  2  3  1  0
  3  4  1  0
  4  5  1  0
  5  6  2  0
  5  7  1  0
  7  8  1  0
  8  9  1  0
  9 10  1  0
 10 11  1  0
 11 12  1  0
 11 13  1  0
 13 14  1  0
 14 15  2  0
 15 16  1  0
 16 17  2  0
 17 18  1  0
 18 19  2  0
  2 20  1  0
 20 21  2  0
 21 22  1  0
 22 23  2  0
 23 24  1  0
 24 25  2  0
 25 26  1  0
 26 27  2  0
 27 28  1  0
 28 29  2  0
 12  7  1  0
 19 14  1  0
 29 20  1  0
 13  9  1  0
 28 23  1  0
  3 30  1  0
  4 31  1  0
  4 32  1  0
  8 33  1  0
  8 34  1  0
  9 35  1  6
 10 36  1  0
 10 37  1  0
 11 38  1  6
 12 39  1  0
 12 40  1  0
 13 41  1  1
 15 42  1  0
 16 43  1  0
 17 44  1  0
 18 45  1  0
 19 46  1  0
 21 47  1  0
 22 48  1  0
 24 49  1  0
 25 50  1  0
 26 51  1  0
 27 52  1  0
M  END
>  <smiles>  (20) 
O=C(NCC(=O)N1C[C@H]2C[C@@H](C1)C2c1ccccc1)c1ccc2ccccc2n1

>  <score_type>  (20) 
oracle

>  <origin>  (20) 
autodockgpu

>  <m_score__min__energy>  (20) 
-9.5

>  <m_primary>  (20) 
energy

>  <rmsd>  (20) 
7.105608586089071

>  <m_score__min__rmsd>  (20) 
7.105608586089071

>  <meeko>  (20) 
{"free_energy": -6.78, "intermolecular_energy": -8.27, "internal_energy": -3.34, "cluster_size": 3, "cluster_id": 4, "rank_in_cluster": 3}

>  <energy>  (20) 
-9.07

>  <cluster_rmsd>  (20) 
1.73

>  <cluster>  (20) 
1

$$$$

     RDKit          3D

 52 56  0  0  1  0  0  0  0  0999 V2000
  140.6320   72.9400  222.6430 O   0  0  0  0  0  0  0  0  0  0  0  0
  139.5990   72.2570  222.9290 C   0  0  0  0  0  0  0  0  0  0  0  0
  138.3600   72.4300  222.2760 N   0  0  0  0  0  0  0  0  0  0  0  0
  138.2440   73.4250  221.2300 C   0  0  0  0  0  0  0  0  0  0  0  0
  138.1850   74.7840  221.8230 C   0  0  0  0  0  0  0  0  0  0  0  0
  137.3110   74.9760  222.7100 O   0  0  0  0  0  0  0  0  0  0  0  0
  139.0880   75.7990  221.3880 N   0  0  0  0  0  0  0  0  0  0  0  0
  140.5070   75.6350  221.6270 C   0  0  0  0  0  0  0  0  0  0  0  0
  141.1740   76.9940  221.5160 C   0  0  1  0  0  0  0  0  0  0  0  0
  140.8190   77.5490  220.1550 C   0  0  0  0  0  0  0  0  0  0  0  0
  139.5410   78.0690  220.7790 C   0  0  1  0  0  0  0  0  0  0  0  0
  138.5050   76.9460  220.7230 C   0  0  0  0  0  0  0  0  0  0  0  0
  140.2120   78.0500  222.0980 C   0  0  2  0  0  0  0  0  0  0  0  0
  140.8470   79.2520  222.6220 C   0  0  0  0  0  0  0  0  0  0  0  0
  142.0670   79.1010  223.2850 C   0  0  0  0  0  0  0  0  0  0  0  0
  142.7430   80.1730  223.8290 C   0  0  0  0  0  0  0  0  0  0  0  0
  142.2310   81.4580  223.7360 C   0  0  0  0  0  0  0  0  0  0  0  0
  141.0270   81.6300  223.0840 C   0  0  0  0  0  0  0  0  0  0  0  0
  140.3640   80.5340  222.5440 C   0  0  0  0  0  0  0  0  0  0  0  0
  139.7190   71.2440  223.9940 C   0  0  0  0  0  0  0  0  0  0  0  0
  139.2180   69.9700  223.8180 C   0  0  0  0  0  0  0  0  0  0  0  0
  139.2990   68.9820  224.7750 C   0  0  0  0  0  0  0  0  0  0  0  0
  139.9170   69.2980  225.9690 C   0  0  0  0  0  0  0  0  0  0  0  0
  139.9980   68.3180  226.9170 C   0  0  0  0  0  0  0  0  0  0  0  0
  140.6050   68.5800  228.1300 C   0  0  0  0  0  0  0  0  0  0  0  0
  141.1170   69.8510  228.3330 C   0  0  0  0  0  0  0  0  0  0  0  0
  141.0270   70.8350  227.3590 C   0  0  0  0  0  0  0  0  0  0  0  0
  140.4140   70.5740  226.1330 C   0  0  0  0  0  0  0  0  0  0  0  0
  140.3130   71.5090  225.1710 N   0  0  0  0  0  0  0  0  0  0  0  0
  137.5600   71.8330  222.5670 H   0  0  0  0  0  0  0  0  0  0  0  0
  139.1168   73.3562  220.5641 H   0  0  0  0  0  0  0  0  0  0  0  0
  137.3220   73.2411  220.6589 H   0  0  0  0  0  0  0  0  0  0  0  0
  140.6686   75.2235  222.6342 H   0  0  0  0  0  0  0  0  0  0  0  0
  140.9363   74.9428  220.8877 H   0  0  0  0  0  0  0  0  0  0  0  0
  142.2067   76.8696  221.8738 H   0  0  0  0  0  0  0  0  0  0  0  0
  141.5003   78.3294  219.7851 H   0  0  0  0  0  0  0  0  0  0  0  0
  140.8096   76.9166  219.2550 H   0  0  0  0  0  0  0  0  0  0  0  0
  139.0285   78.9709  220.4131 H   0  0  0  0  0  0  0  0  0  0  0  0
  137.5845   77.2550  221.2400 H   0  0  0  0  0  0  0  0  0  0  0  0
  138.2428   76.7052  219.6822 H   0  0  0  0  0  0  0  0  0  0  0  0
  139.6076   77.8972  223.0043 H   0  0  0  0  0  0  0  0  0  0  0  0
  142.5025   78.0950  223.3762 H   0  0  0  0  0  0  0  0  0  0  0  0
  143.7009   80.0063  224.3434 H   0  0  0  0  0  0  0  0  0  0  0  0
  142.7683   82.3147  224.1689 H   0  0  0  0  0  0  0  0  0  0  0  0
  140.5913   82.6358  222.9915 H   0  0  0  0  0  0  0  0  0  0  0  0
  139.4064   80.7025  222.0296 H   0  0  0  0  0  0  0  0  0  0  0  0
  138.7279   69.7306  222.8627 H   0  0  0  0  0  0  0  0  0  0  0  0
  138.8865   67.9783  224.5946 H   0  0  0  0  0  0  0  0  0  0  0  0
  139.5802   67.3208  226.7147 H   0  0  0  0  0  0  0  0  0  0  0  0
  140.6792   67.8059  228.9080 H   0  0  0  0  0  0  0  0  0  0  0  0
  141.6068   70.0859  229.2895 H   0  0  0  0  0  0  0  0  0  0  0  0
  141.4442   71.8336  227.5558 H   0  0  0  0  0  0  0  0  0  0  0  0
  1  2  2  0
  2  3  1  0
  3  4  1  0
  4  5  1  0
  5  6  2  0
  5  7  1  0
  7  8  1  0
  8  9  1  0
  9 10  1  0
 10 11  1  0
 11 12  1  0
 11 13  1  0
 13 14  1  0
 14 15  2  0
 15 16  1  0
 16 17  2  0
 17 18  1  0
 18 19  2  0
  2 20  1  0
 20 21  2  0
 21 22  1  0
 22 23  2  0
 23 24  1  0
 24 25  2  0
 25 26  1  0
 26 27  2  0
 27 28  1  0
 28 29  2  0
 12  7  1  0
 19 14  1  0
 29 20  1  0
 13  9  1  0
 28 23  1  0
  3 30  1  0
  4 31  1  0
  4 32  1  0
  8 33  1  0
  8 34  1  0
  9 35  1  1
 10 36  1  0
 10 37  1  0
 11 38  1  6
 12 39  1  0
 12 40  1  0
 13 41  1  1
 15 42  1  0
 16 43  1  0
 17 44  1  0
 18 45  1  0
 19 46  1  0
 21 47  1  0
 22 48  1  0
 24 49  1  0
 25 50  1  0
 26 51  1  0
 27 52  1  0
M  END
>  <smiles>  (21) 
O=C(NCC(=O)N1C[C@H]2C[C@@H](C1)C2c1ccccc1)c1ccc2ccccc2n1

>  <score_type>  (21) 
oracle

>  <origin>  (21) 
autodockgpu

>  <m_score__min__energy>  (21) 
-9.5

>  <m_primary>  (21) 
energy

>  <rmsd>  (21) 
2.1928656723943982

>  <m_score__min__rmsd>  (21) 
2.1928656723943982

>  <meeko>  (21) 
{"free_energy": -8.99, "intermolecular_energy": -10.48, "internal_energy": -1.31, "cluster_size": 36, "cluster_id": 1, "rank_in_cluster": 28}

>  <energy>  (21) 
-9.05

>  <cluster_rmsd>  (21) 
0.6

>  <cluster>  (21) 
1

$$$$

     RDKit          3D

 52 56  0  0  1  0  0  0  0  0999 V2000
  139.3950   71.0840  221.3990 O   0  0  0  0  0  0  0  0  0  0  0  0
  139.5370   71.8290  222.4200 C   0  0  0  0  0  0  0  0  0  0  0  0
  139.4410   73.2360  222.3620 N   0  0  0  0  0  0  0  0  0  0  0  0
  139.1650   73.8750  221.0920 C   0  0  0  0  0  0  0  0  0  0  0  0
  140.4340   74.2960  220.4470 C   0  0  0  0  0  0  0  0  0  0  0  0
  141.2070   73.3750  220.0690 O   0  0  0  0  0  0  0  0  0  0  0  0
  140.7330   75.6810  220.2810 N   0  0  0  0  0  0  0  0  0  0  0  0
  142.1150   76.1030  220.2000 C   0  0  0  0  0  0  0  0  0  0  0  0
  142.1820   77.5900  220.4980 C   0  0  1  0  0  0  0  0  0  0  0  0
  141.2520   78.2770  219.5260 C   0  0  0  0  0  0  0  0  0  0  0  0
  140.1320   77.9870  220.5030 C   0  0  1  0  0  0  0  0  0  0  0  0
  139.6030   76.5840  220.2030 C   0  0  0  0  0  0  0  0  0  0  0  0
  141.1370   77.9100  221.5870 C   0  0  2  0  0  0  0  0  0  0  0  0
  141.4280   79.0750  222.4090 C   0  0  0  0  0  0  0  0  0  0  0  0
  142.7700   79.3990  222.6180 C   0  0  0  0  0  0  0  0  0  0  0  0
  143.1530   80.4750  223.3910 C   0  0  0  0  0  0  0  0  0  0  0  0
  142.2070   81.2870  223.9990 C   0  0  0  0  0  0  0  0  0  0  0  0
  140.8750   80.9850  223.8040 C   0  0  0  0  0  0  0  0  0  0  0  0
  140.5130   79.8950  223.0210 C   0  0  0  0  0  0  0  0  0  0  0  0
  139.8160   71.1770  223.7130 C   0  0  0  0  0  0  0  0  0  0  0  0
  139.5740   69.8310  223.8930 C   0  0  0  0  0  0  0  0  0  0  0  0
  139.8130   69.1660  225.0760 C   0  0  0  0  0  0  0  0  0  0  0  0
  140.3240   69.8990  226.1290 C   0  0  0  0  0  0  0  0  0  0  0  0
  140.5620   69.2400  227.3020 C   0  0  0  0  0  0  0  0  0  0  0  0
  141.0710   69.9260  228.3870 C   0  0  0  0  0  0  0  0  0  0  0  0
  141.3250   71.2790  228.2340 C   0  0  0  0  0  0  0  0  0  0  0  0
  141.0770   71.9340  227.0350 C   0  0  0  0  0  0  0  0  0  0  0  0
  140.5630   71.2450  225.9370 C   0  0  0  0  0  0  0  0  0  0  0  0
  140.3130   71.8540  224.7630 N   0  0  0  0  0  0  0  0  0  0  0  0
  139.5700   73.7770  223.2400 H   0  0  0  0  0  0  0  0  0  0  0  0
  138.6402   73.1663  220.4345 H   0  0  0  0  0  0  0  0  0  0  0  0
  138.5367   74.7614  221.2637 H   0  0  0  0  0  0  0  0  0  0  0  0
  142.7159   75.5494  220.9365 H   0  0  0  0  0  0  0  0  0  0  0  0
  142.5126   75.9015  219.1944 H   0  0  0  0  0  0  0  0  0  0  0  0
  143.2472   77.8428  220.6047 H   0  0  0  0  0  0  0  0  0  0  0  0
  141.4594   79.3458  219.3689 H   0  0  0  0  0  0  0  0  0  0  0  0
  141.1924   77.9770  218.4694 H   0  0  0  0  0  0  0  0  0  0  0  0
  139.2446   78.6307  220.5932 H   0  0  0  0  0  0  0  0  0  0  0  0
  138.8410   76.3009  220.9441 H   0  0  0  0  0  0  0  0  0  0  0  0
  139.1362   76.5444  219.2078 H   0  0  0  0  0  0  0  0  0  0  0  0
  140.9393   77.2670  222.4573 H   0  0  0  0  0  0  0  0  0  0  0  0
  143.5469   78.7759  222.1510 H   0  0  0  0  0  0  0  0  0  0  0  0
  144.2227   80.6921  223.5272 H   0  0  0  0  0  0  0  0  0  0  0  0
  142.5094   82.1450  224.6174 H   0  0  0  0  0  0  0  0  0  0  0  0
  140.0974   81.6085  224.2694 H   0  0  0  0  0  0  0  0  0  0  0  0
  139.4429   79.6794  222.8854 H   0  0  0  0  0  0  0  0  0  0  0  0
  139.1683   69.2575  223.0465 H   0  0  0  0  0  0  0  0  0  0  0  0
  139.6044   68.0908  225.1779 H   0  0  0  0  0  0  0  0  0  0  0  0
  140.3483   68.1639  227.3820 H   0  0  0  0  0  0  0  0  0  0  0  0
  141.2682   69.4150  229.3409 H   0  0  0  0  0  0  0  0  0  0  0  0
  141.7328   71.8481  229.0824 H   0  0  0  0  0  0  0  0  0  0  0  0
  141.2887   73.0101  226.9502 H   0  0  0  0  0  0  0  0  0  0  0  0
  1  2  2  0
  2  3  1  0
  3  4  1  0
  4  5  1  0
  5  6  2  0
  5  7  1  0
  7  8  1  0
  8  9  1  0
  9 10  1  0
 10 11  1  0
 11 12  1  0
 11 13  1  0
 13 14  1  0
 14 15  2  0
 15 16  1  0
 16 17  2  0
 17 18  1  0
 18 19  2  0
  2 20  1  0
 20 21  2  0
 21 22  1  0
 22 23  2  0
 23 24  1  0
 24 25  2  0
 25 26  1  0
 26 27  2  0
 27 28  1  0
 28 29  2  0
 12  7  1  0
 19 14  1  0
 29 20  1  0
 13  9  1  0
 28 23  1  0
  3 30  1  0
  4 31  1  0
  4 32  1  0
  8 33  1  0
  8 34  1  0
  9 35  1  1
 10 36  1  0
 10 37  1  0
 11 38  1  1
 12 39  1  0
 12 40  1  0
 13 41  1  1
 15 42  1  0
 16 43  1  0
 17 44  1  0
 18 45  1  0
 19 46  1  0
 21 47  1  0
 22 48  1  0
 24 49  1  0
 25 50  1  0
 26 51  1  0
 27 52  1  0
M  END
>  <smiles>  (22) 
O=C(NCC(=O)N1C[C@H]2C[C@@H](C1)C2c1ccccc1)c1ccc2ccccc2n1

>  <score_type>  (22) 
oracle

>  <origin>  (22) 
autodockgpu

>  <m_score__min__energy>  (22) 
-9.5

>  <m_primary>  (22) 
energy

>  <rmsd>  (22) 
1.899124119271635

>  <m_score__min__rmsd>  (22) 
1.899124119271635

>  <meeko>  (22) 
{"free_energy": -9.04, "intermolecular_energy": -10.53, "internal_energy": -1.42, "cluster_size": 36, "cluster_id": 1, "rank_in_cluster": 24}

>  <energy>  (22) 
-9.05

>  <cluster_rmsd>  (22) 
1.39

>  <cluster>  (22) 
1

$$$$

     RDKit          3D

 52 56  0  0  1  0  0  0  0  0999 V2000
  137.8740   70.4600  221.9200 O   0  0  0  0  0  0  0  0  0  0  0  0
  138.4710   71.1420  222.8120 C   0  0  0  0  0  0  0  0  0  0  0  0
  138.6730   72.5350  222.7040 N   0  0  0  0  0  0  0  0  0  0  0  0
  138.1830   73.2330  221.5340 C   0  0  0  0  0  0  0  0  0  0  0  0
  137.9760   74.6690  221.8470 C   0  0  0  0  0  0  0  0  0  0  0  0
  136.9280   74.9630  222.4820 O   0  0  0  0  0  0  0  0  0  0  0  0
  138.9340   75.6420  221.4340 N   0  0  0  0  0  0  0  0  0  0  0  0
  140.3440   75.3730  221.6250 C   0  0  0  0  0  0  0  0  0  0  0  0
  141.0980   76.6880  221.5590 C   0  0  1  0  0  0  0  0  0  0  0  0
  140.7490   77.3300  220.2360 C   0  0  0  0  0  0  0  0  0  0  0  0
  139.5240   77.9030  220.9190 C   0  0  1  0  0  0  0  0  0  0  0  0
  138.4130   76.8560  220.8400 C   0  0  0  0  0  0  0  0  0  0  0  0
  140.2250   77.7760  222.2170 C   0  0  2  0  0  0  0  0  0  0  0  0
  140.9530   78.9070  222.7770 C   0  0  0  0  0  0  0  0  0  0  0  0
  140.2050   80.0010  223.2160 C   0  0  0  0  0  0  0  0  0  0  0  0
  140.7980   81.1260  223.7510 C   0  0  0  0  0  0  0  0  0  0  0  0
  142.1770   81.2130  223.8750 C   0  0  0  0  0  0  0  0  0  0  0  0
  142.9340   80.1420  223.4480 C   0  0  0  0  0  0  0  0  0  0  0  0
  142.3140   79.0190  222.9120 C   0  0  0  0  0  0  0  0  0  0  0  0
  138.9680   70.4300  224.0040 C   0  0  0  0  0  0  0  0  0  0  0  0
  138.8440   69.0600  224.1120 C   0  0  0  0  0  0  0  0  0  0  0  0
  139.2880   68.3390  225.1990 C   0  0  0  0  0  0  0  0  0  0  0  0
  139.8870   69.0390  226.2280 C   0  0  0  0  0  0  0  0  0  0  0  0
  140.3270   68.3250  227.3060 C   0  0  0  0  0  0  0  0  0  0  0  0
  140.9340   68.9750  228.3640 C   0  0  0  0  0  0  0  0  0  0  0  0
  141.0720   70.3510  228.2810 C   0  0  0  0  0  0  0  0  0  0  0  0
  140.6190   71.0610  227.1780 C   0  0  0  0  0  0  0  0  0  0  0  0
  140.0060   70.4090  226.1090 C   0  0  0  0  0  0  0  0  0  0  0  0
  139.5570   71.0720  225.0270 N   0  0  0  0  0  0  0  0  0  0  0  0
  139.1720   73.0230  223.4750 H   0  0  0  0  0  0  0  0  0  0  0  0
  138.9176   73.1400  220.7205 H   0  0  0  0  0  0  0  0  0  0  0  0
  137.2248   72.7898  221.2250 H   0  0  0  0  0  0  0  0  0  0  0  0
  140.5025   74.9032  222.6069 H   0  0  0  0  0  0  0  0  0  0  0  0
  140.7070   74.6906  220.8423 H   0  0  0  0  0  0  0  0  0  0  0  0
  142.1284   76.4782  221.8817 H   0  0  0  0  0  0  0  0  0  0  0  0
  141.4723   78.0804  219.8843 H   0  0  0  0  0  0  0  0  0  0  0  0
  140.6753   76.7440  219.3080 H   0  0  0  0  0  0  0  0  0  0  0  0
  139.0647   78.8534  220.6095 H   0  0  0  0  0  0  0  0  0  0  0  0
  137.5290   77.2001  221.3969 H   0  0  0  0  0  0  0  0  0  0  0  0
  138.1083   76.6840  219.7971 H   0  0  0  0  0  0  0  0  0  0  0  0
  139.6351   77.6200  223.1322 H   0  0  0  0  0  0  0  0  0  0  0  0
  139.1087   79.9649  223.1328 H   0  0  0  0  0  0  0  0  0  0  0  0
  140.1691   81.9650  224.0836 H   0  0  0  0  0  0  0  0  0  0  0  0
  142.6523   82.1089  224.3009 H   0  0  0  0  0  0  0  0  0  0  0  0
  144.0303   80.1765  223.5317 H   0  0  0  0  0  0  0  0  0  0  0  0
  142.9442   78.1806  222.5805 H   0  0  0  0  0  0  0  0  0  0  0  0
  138.3649   68.5141  223.2859 H   0  0  0  0  0  0  0  0  0  0  0  0
  139.1698   67.2464  225.2456 H   0  0  0  0  0  0  0  0  0  0  0  0
  140.1983   67.2329  227.3322 H   0  0  0  0  0  0  0  0  0  0  0  0
  141.2951   68.4189  229.2417 H   0  0  0  0  0  0  0  0  0  0  0  0
  141.5519   70.8935  229.1089 H   0  0  0  0  0  0  0  0  0  0  0  0
  140.7454   72.1533  227.1467 H   0  0  0  0  0  0  0  0  0  0  0  0
  1  2  2  0
  2  3  1  0
  3  4  1  0
  4  5  1  0
  5  6  2  0
  5  7  1  0
  7  8  1  0
  8  9  1  0
  9 10  1  0
 10 11  1  0
 11 12  1  0
 11 13  1  0
 13 14  1  0
 14 15  2  0
 15 16  1  0
 16 17  2  0
 17 18  1  0
 18 19  2  0
  2 20  1  0
 20 21  2  0
 21 22  1  0
 22 23  2  0
 23 24  1  0
 24 25  2  0
 25 26  1  0
 26 27  2  0
 27 28  1  0
 28 29  2  0
 12  7  1  0
 19 14  1  0
 29 20  1  0
 13  9  1  0
 28 23  1  0
  3 30  1  0
  4 31  1  0
  4 32  1  0
  8 33  1  0
  8 34  1  0
  9 35  1  1
 10 36  1  0
 10 37  1  0
 11 38  1  6
 12 39  1  0
 12 40  1  0
 13 41  1  1
 15 42  1  0
 16 43  1  0
 17 44  1  0
 18 45  1  0
 19 46  1  0
 21 47  1  0
 22 48  1  0
 24 49  1  0
 25 50  1  0
 26 51  1  0
 27 52  1  0
M  END
>  <smiles>  (23) 
O=C(NCC(=O)N1C[C@H]2C[C@@H](C1)C2c1ccccc1)c1ccc2ccccc2n1

>  <score_type>  (23) 
oracle

>  <origin>  (23) 
autodockgpu

>  <m_score__min__energy>  (23) 
-9.5

>  <m_primary>  (23) 
energy

>  <rmsd>  (23) 
2.1710492593429973

>  <m_score__min__rmsd>  (23) 
2.1710492593429973

>  <meeko>  (23) 
{"free_energy": -8.95, "intermolecular_energy": -10.44, "internal_energy": -1.45, "cluster_size": 36, "cluster_id": 1, "rank_in_cluster": 30}

>  <energy>  (23) 
-9.04

>  <cluster_rmsd>  (23) 
1.41

>  <cluster>  (23) 
1

$$$$

     RDKit          3D

 52 56  0  0  1  0  0  0  0  0999 V2000
  141.1000   74.9700  221.0770 O   0  0  0  0  0  0  0  0  0  0  0  0
  140.1520   75.3900  221.8130 C   0  0  0  0  0  0  0  0  0  0  0  0
  139.0470   74.5890  222.1720 N   0  0  0  0  0  0  0  0  0  0  0  0
  138.9750   73.2250  221.6900 C   0  0  0  0  0  0  0  0  0  0  0  0
  137.8430   72.5150  222.3360 C   0  0  0  0  0  0  0  0  0  0  0  0
  136.7270   73.0990  222.3190 O   0  0  0  0  0  0  0  0  0  0  0  0
  138.0440   71.2370  222.9380 N   0  0  0  0  0  0  0  0  0  0  0  0
  137.0820   70.7500  223.9040 C   0  0  0  0  0  0  0  0  0  0  0  0
  137.7340   69.6470  224.7180 C   0  0  1  0  0  0  0  0  0  0  0  0
  138.2290   68.6090  223.7370 C   0  0  0  0  0  0  0  0  0  0  0  0
  139.4850   69.4440  223.5980 C   0  0  1  0  0  0  0  0  0  0  0  0
  139.2240   70.5040  222.5270 C   0  0  0  0  0  0  0  0  0  0  0  0
  139.2150   70.0210  224.9340 C   0  0  2  0  0  0  0  0  0  0  0  0
  139.8360   69.4540  226.1230 C   0  0  0  0  0  0  0  0  0  0  0  0
  140.3450   68.1570  226.0290 C   0  0  0  0  0  0  0  0  0  0  0  0
  140.9400   67.5240  227.1000 C   0  0  0  0  0  0  0  0  0  0  0  0
  141.0570   68.1600  228.3270 C   0  0  0  0  0  0  0  0  0  0  0  0
  140.5610   69.4430  228.4410 C   0  0  0  0  0  0  0  0  0  0  0  0
  139.9650   70.0600  227.3470 C   0  0  0  0  0  0  0  0  0  0  0  0
  140.2270   76.7780  222.3040 C   0  0  0  0  0  0  0  0  0  0  0  0
  139.0840   77.4690  222.6490 C   0  0  0  0  0  0  0  0  0  0  0  0
  139.0900   78.7670  223.1130 C   0  0  0  0  0  0  0  0  0  0  0  0
  140.3130   79.3970  223.2330 C   0  0  0  0  0  0  0  0  0  0  0  0
  140.3190   80.6840  223.6920 C   0  0  0  0  0  0  0  0  0  0  0  0
  141.5150   81.3610  223.8310 C   0  0  0  0  0  0  0  0  0  0  0  0
  142.6790   80.6910  223.4920 C   0  0  0  0  0  0  0  0  0  0  0  0
  142.6550   79.3830  223.0260 C   0  0  0  0  0  0  0  0  0  0  0  0
  141.4500   78.6960  222.8850 C   0  0  0  0  0  0  0  0  0  0  0  0
  141.3970   77.4290  222.4360 N   0  0  0  0  0  0  0  0  0  0  0  0
  138.3100   75.0040  222.7770 H   0  0  0  0  0  0  0  0  0  0  0  0
  138.8260   73.2316  220.6002 H   0  0  0  0  0  0  0  0  0  0  0  0
  139.9131   72.7061  221.9363 H   0  0  0  0  0  0  0  0  0  0  0  0
  136.7759   71.5708  224.5692 H   0  0  0  0  0  0  0  0  0  0  0  0
  136.1920   70.3616  223.3872 H   0  0  0  0  0  0  0  0  0  0  0  0
  137.0508   69.4222  225.5503 H   0  0  0  0  0  0  0  0  0  0  0  0
  138.3872   67.6089  224.1669 H   0  0  0  0  0  0  0  0  0  0  0  0
  137.6338   68.3059  222.8630 H   0  0  0  0  0  0  0  0  0  0  0  0
  140.4634   69.0040  223.3547 H   0  0  0  0  0  0  0  0  0  0  0  0
  140.0847   71.1848  222.4511 H   0  0  0  0  0  0  0  0  0  0  0  0
  139.0748   70.0389  221.5414 H   0  0  0  0  0  0  0  0  0  0  0  0
  139.5650   71.0392  225.1595 H   0  0  0  0  0  0  0  0  0  0  0  0
  140.2689   67.6233  225.0702 H   0  0  0  0  0  0  0  0  0  0  0  0
  141.3269   66.5013  226.9796 H   0  0  0  0  0  0  0  0  0  0  0  0
  141.5306   67.6573  229.1831 H   0  0  0  0  0  0  0  0  0  0  0  0
  140.6374   69.9782  229.3990 H   0  0  0  0  0  0  0  0  0  0  0  0
  139.5785   71.0827  227.4686 H   0  0  0  0  0  0  0  0  0  0  0  0
  138.1158   76.9567  222.5484 H   0  0  0  0  0  0  0  0  0  0  0  0
  138.1549   79.2821  223.3780 H   0  0  0  0  0  0  0  0  0  0  0  0
  139.3721   81.1806  223.9506 H   0  0  0  0  0  0  0  0  0  0  0  0
  141.5421   82.3974  224.1985 H   0  0  0  0  0  0  0  0  0  0  0  0
  143.6450   81.2071  223.5943 H   0  0  0  0  0  0  0  0  0  0  0  0
  143.5990   78.8824  222.7647 H   0  0  0  0  0  0  0  0  0  0  0  0
  1  2  2  0
  2  3  1  0
  3  4  1  0
  4  5  1  0
  5  6  2  0
  5  7  1  0
  7  8  1  0
  8  9  1  0
  9 10  1  0
 10 11  1  0
 11 12  1  0
 11 13  1  0
 13 14  1  0
 14 15  2  0
 15 16  1  0
 16 17  2  0
 17 18  1  0
 18 19  2  0
  2 20  1  0
 20 21  2  0
 21 22  1  0
 22 23  2  0
 23 24  1  0
 24 25  2  0
 25 26  1  0
 26 27  2  0
 27 28  1  0
 28 29  2  0
 12  7  1  0
 19 14  1  0
 29 20  1  0
 13  9  1  0
 28 23  1  0
  3 30  1  0
  4 31  1  0
  4 32  1  0
  8 33  1  0
  8 34  1  0
  9 35  1  1
 10 36  1  0
 10 37  1  0
 11 38  1  1
 12 39  1  0
 12 40  1  0
 13 41  1  6
 15 42  1  0
 16 43  1  0
 17 44  1  0
 18 45  1  0
 19 46  1  0
 21 47  1  0
 22 48  1  0
 24 49  1  0
 25 50  1  0
 26 51  1  0
 27 52  1  0
M  END
>  <smiles>  (24) 
O=C(NCC(=O)N1C[C@H]2C[C@@H](C1)C2c1ccccc1)c1ccc2ccccc2n1

>  <score_type>  (24) 
oracle

>  <origin>  (24) 
autodockgpu

>  <m_score__min__energy>  (24) 
-9.5

>  <m_primary>  (24) 
energy

>  <rmsd>  (24) 
8.443331826338394

>  <m_score__min__rmsd>  (24) 
8.443331826338394

>  <meeko>  (24) 
{"free_energy": -8.97, "intermolecular_energy": -10.46, "internal_energy": -1.31, "cluster_size": 10, "cluster_id": 2, "rank_in_cluster": 10}

>  <energy>  (24) 
-9.04

>  <cluster_rmsd>  (24) 
1.24

>  <cluster>  (24) 
1

$$$$

     RDKit          3D

 52 56  0  0  1  0  0  0  0  0999 V2000
  140.5100   71.2460  221.7030 O   0  0  0  0  0  0  0  0  0  0  0  0
  139.6970   71.5050  222.6460 C   0  0  0  0  0  0  0  0  0  0  0  0
  138.7630   72.5610  222.5850 N   0  0  0  0  0  0  0  0  0  0  0  0
  138.7120   73.3940  221.4010 C   0  0  0  0  0  0  0  0  0  0  0  0
  138.3610   74.7880  221.7720 C   0  0  0  0  0  0  0  0  0  0  0  0
  137.3320   74.9400  222.4830 O   0  0  0  0  0  0  0  0  0  0  0  0
  139.1690   75.8760  221.3300 N   0  0  0  0  0  0  0  0  0  0  0  0
  140.5990   75.6890  221.1950 C   0  0  0  0  0  0  0  0  0  0  0  0
  141.2640   77.0530  221.1800 C   0  0  1  0  0  0  0  0  0  0  0  0
  140.6200   77.8440  220.0640 C   0  0  0  0  0  0  0  0  0  0  0  0
  139.5390   78.2250  221.0540 C   0  0  1  0  0  0  0  0  0  0  0  0
  138.4830   77.1190  221.0400 C   0  0  0  0  0  0  0  0  0  0  0  0
  140.4980   77.9720  222.1540 C   0  0  2  0  0  0  0  0  0  0  0  0
  141.2750   79.0640  222.7230 C   0  0  0  0  0  0  0  0  0  0  0  0
  140.5710   80.1280  223.2920 C   0  0  0  0  0  0  0  0  0  0  0  0
  141.2110   81.2170  223.8470 C   0  0  0  0  0  0  0  0  0  0  0  0
  142.5960   81.2970  223.8600 C   0  0  0  0  0  0  0  0  0  0  0  0
  143.3100   80.2560  223.3050 C   0  0  0  0  0  0  0  0  0  0  0  0
  142.6420   79.1690  222.7520 C   0  0  0  0  0  0  0  0  0  0  0  0
  139.7490   70.6560  223.8500 C   0  0  0  0  0  0  0  0  0  0  0  0
  139.1850   69.3970  223.8530 C   0  0  0  0  0  0  0  0  0  0  0  0
  139.2000   68.5580  224.9460 C   0  0  0  0  0  0  0  0  0  0  0  0
  139.8170   69.0160  226.0940 C   0  0  0  0  0  0  0  0  0  0  0  0
  139.8330   68.1840  227.1770 C   0  0  0  0  0  0  0  0  0  0  0  0
  140.4370   68.5920  228.3510 C   0  0  0  0  0  0  0  0  0  0  0  0
  141.0120   69.8510  228.3760 C   0  0  0  0  0  0  0  0  0  0  0  0
  140.9870   70.6840  227.2660 C   0  0  0  0  0  0  0  0  0  0  0  0
  140.3790   70.2760  226.0800 C   0  0  0  0  0  0  0  0  0  0  0  0
  140.3400   71.0620  224.9880 N   0  0  0  0  0  0  0  0  0  0  0  0
  138.1320   72.7110  223.3970 H   0  0  0  0  0  0  0  0  0  0  0  0
  139.6951   73.3855  220.9077 H   0  0  0  0  0  0  0  0  0  0  0  0
  137.9461   73.0001  220.7167 H   0  0  0  0  0  0  0  0  0  0  0  0
  140.9780   75.1008  222.0438 H   0  0  0  0  0  0  0  0  0  0  0  0
  140.8222   75.1508  220.2620 H   0  0  0  0  0  0  0  0  0  0  0  0
  142.3472   76.8778  221.2571 H   0  0  0  0  0  0  0  0  0  0  0  0
  141.2208   78.6873  219.6925 H   0  0  0  0  0  0  0  0  0  0  0  0
  140.3817   77.3875  219.0919 H   0  0  0  0  0  0  0  0  0  0  0  0
  138.9843   79.1726  220.9879 H   0  0  0  0  0  0  0  0  0  0  0  0
  137.7187   77.3165  221.8060 H   0  0  0  0  0  0  0  0  0  0  0  0
  137.9776   77.0705  220.0642 H   0  0  0  0  0  0  0  0  0  0  0  0
  140.1167   77.6481  223.1336 H   0  0  0  0  0  0  0  0  0  0  0  0
  139.4715   80.0966  223.2978 H   0  0  0  0  0  0  0  0  0  0  0  0
  140.6157   82.0320  224.2846 H   0  0  0  0  0  0  0  0  0  0  0  0
  143.1092   82.1648  224.2999 H   0  0  0  0  0  0  0  0  0  0  0  0
  144.4096   80.2855  223.2997 H   0  0  0  0  0  0  0  0  0  0  0  0
  143.2389   78.3540  222.3168 H   0  0  0  0  0  0  0  0  0  0  0  0
  138.6968   69.0437  222.9328 H   0  0  0  0  0  0  0  0  0  0  0  0
  138.7378   67.5606  224.9059 H   0  0  0  0  0  0  0  0  0  0  0  0
  139.3656   67.1902  227.1148 H   0  0  0  0  0  0  0  0  0  0  0  0
  140.4601   67.9386  229.2356 H   0  0  0  0  0  0  0  0  0  0  0  0
  141.5005   70.1997  229.2978 H   0  0  0  0  0  0  0  0  0  0  0  0
  141.4530   71.6788  227.3231 H   0  0  0  0  0  0  0  0  0  0  0  0
  1  2  2  0
  2  3  1  0
  3  4  1  0
  4  5  1  0
  5  6  2  0
  5  7  1  0
  7  8  1  0
  8  9  1  0
  9 10  1  0
 10 11  1  0
 11 12  1  0
 11 13  1  0
 13 14  1  0
 14 15  2  0
 15 16  1  0
 16 17  2  0
 17 18  1  0
 18 19  2  0
  2 20  1  0
 20 21  2  0
 21 22  1  0
 22 23  2  0
 23 24  1  0
 24 25  2  0
 25 26  1  0
 26 27  2  0
 27 28  1  0
 28 29  2  0
 12  7  1  0
 19 14  1  0
 29 20  1  0
 13  9  1  0
 28 23  1  0
  3 30  1  0
  4 31  1  0
  4 32  1  0
  8 33  1  0
  8 34  1  0
  9 35  1  1
 10 36  1  0
 10 37  1  0
 11 38  1  6
 12 39  1  0
 12 40  1  0
 13 41  1  1
 15 42  1  0
 16 43  1  0
 17 44  1  0
 18 45  1  0
 19 46  1  0
 21 47  1  0
 22 48  1  0
 24 49  1  0
 25 50  1  0
 26 51  1  0
 27 52  1  0
M  END
>  <smiles>  (25) 
O=C(NCC(=O)N1C[C@H]2C[C@@H](C1)C2c1ccccc1)c1ccc2ccccc2n1

>  <score_type>  (25) 
oracle

>  <origin>  (25) 
autodockgpu

>  <m_score__min__energy>  (25) 
-9.5

>  <m_primary>  (25) 
energy

>  <rmsd>  (25) 
2.1945839034784593

>  <m_score__min__rmsd>  (25) 
2.1945839034784593

>  <meeko>  (25) 
{"free_energy": -9.13, "intermolecular_energy": -10.62, "internal_energy": -1.42, "cluster_size": 36, "cluster_id": 1, "rank_in_cluster": 16}

>  <energy>  (25) 
-9.04

>  <cluster_rmsd>  (25) 
0.94

>  <cluster>  (25) 
1

$$$$

     RDKit          3D

 52 56  0  0  1  0  0  0  0  0999 V2000
  139.4800   71.0430  221.1390 O   0  0  0  0  0  0  0  0  0  0  0  0
  140.2140   71.5940  222.0200 C   0  0  0  0  0  0  0  0  0  0  0  0
  141.1280   72.6270  221.7190 N   0  0  0  0  0  0  0  0  0  0  0  0
  141.2460   73.0930  220.3520 C   0  0  0  0  0  0  0  0  0  0  0  0
  141.9230   74.4130  220.3210 C   0  0  0  0  0  0  0  0  0  0  0  0
  143.1350   74.4180  219.9750 O   0  0  0  0  0  0  0  0  0  0  0  0
  141.2090   75.5970  220.6710 N   0  0  0  0  0  0  0  0  0  0  0  0
  141.1610   76.6990  219.7330 C   0  0  0  0  0  0  0  0  0  0  0  0
  140.7770   77.9580  220.4880 C   0  0  1  0  0  0  0  0  0  0  0  0
  139.4720   77.6680  221.1930 C   0  0  0  0  0  0  0  0  0  0  0  0
  140.2940   77.0730  222.3170 C   0  0  1  0  0  0  0  0  0  0  0  0
  140.5690   75.6100  221.9700 C   0  0  0  0  0  0  0  0  0  0  0  0
  141.4390   77.9030  221.8810 C   0  0  2  0  0  0  0  0  0  0  0  0
  141.6950   79.1960  222.5020 C   0  0  0  0  0  0  0  0  0  0  0  0
  141.2450   80.3340  221.8310 C   0  0  0  0  0  0  0  0  0  0  0  0
  141.4470   81.6060  222.3270 C   0  0  0  0  0  0  0  0  0  0  0  0
  142.1140   81.8020  223.5270 C   0  0  0  0  0  0  0  0  0  0  0  0
  142.5660   80.6900  224.2070 C   0  0  0  0  0  0  0  0  0  0  0  0
  142.3500   79.4190  223.6870 C   0  0  0  0  0  0  0  0  0  0  0  0
  140.0920   71.1200  223.4100 C   0  0  0  0  0  0  0  0  0  0  0  0
  139.3530   69.9940  223.7120 C   0  0  0  0  0  0  0  0  0  0  0  0
  139.2020   69.5030  224.9900 C   0  0  0  0  0  0  0  0  0  0  0  0
  139.8300   70.1840  226.0150 C   0  0  0  0  0  0  0  0  0  0  0  0
  139.6800   69.6970  227.2820 C   0  0  0  0  0  0  0  0  0  0  0  0
  140.2860   70.3400  228.3440 C   0  0  0  0  0  0  0  0  0  0  0  0
  141.0340   71.4730  228.0700 C   0  0  0  0  0  0  0  0  0  0  0  0
  141.1760   71.9550  226.7760 C   0  0  0  0  0  0  0  0  0  0  0  0
  140.5660   71.3080  225.7020 C   0  0  0  0  0  0  0  0  0  0  0  0
  140.6860   71.7530  224.4370 N   0  0  0  0  0  0  0  0  0  0  0  0
  141.6940   73.0270  222.4940 H   0  0  0  0  0  0  0  0  0  0  0  0
  141.8343   72.3684  219.7699 H   0  0  0  0  0  0  0  0  0  0  0  0
  140.2405   73.1933  219.9173 H   0  0  0  0  0  0  0  0  0  0  0  0
  142.1483   76.8326  219.2668 H   0  0  0  0  0  0  0  0  0  0  0  0
  140.4214   76.4916  218.9456 H   0  0  0  0  0  0  0  0  0  0  0  0
  140.9214   78.7994  219.7944 H   0  0  0  0  0  0  0  0  0  0  0  0
  138.8916   78.5602  221.4707 H   0  0  0  0  0  0  0  0  0  0  0  0
  138.6618   77.1055  220.7059 H   0  0  0  0  0  0  0  0  0  0  0  0
  139.9540   77.0758  223.3631 H   0  0  0  0  0  0  0  0  0  0  0  0
  141.2334   75.1614  222.7232 H   0  0  0  0  0  0  0  0  0  0  0  0
  139.6358   75.0278  221.9541 H   0  0  0  0  0  0  0  0  0  0  0  0
  142.4622   77.5421  222.0621 H   0  0  0  0  0  0  0  0  0  0  0  0
  140.7122   80.2133  220.8762 H   0  0  0  0  0  0  0  0  0  0  0  0
  141.0746   82.4745  221.7639 H   0  0  0  0  0  0  0  0  0  0  0  0
  142.2778   82.8143  223.9249 H   0  0  0  0  0  0  0  0  0  0  0  0
  143.0982   80.8093  225.1623 H   0  0  0  0  0  0  0  0  0  0  0  0
  142.7216   78.5514  224.2519 H   0  0  0  0  0  0  0  0  0  0  0  0
  138.8579   69.4600  222.8876 H   0  0  0  0  0  0  0  0  0  0  0  0
  138.6033   68.6016  225.1873 H   0  0  0  0  0  0  0  0  0  0  0  0
  139.0772   68.7936  227.4568 H   0  0  0  0  0  0  0  0  0  0  0  0
  140.1781   69.9648  229.3724 H   0  0  0  0  0  0  0  0  0  0  0  0
  141.5274   72.0036  228.8977 H   0  0  0  0  0  0  0  0  0  0  0  0
  141.7771   72.8584  226.5957 H   0  0  0  0  0  0  0  0  0  0  0  0
  1  2  2  0
  2  3  1  0
  3  4  1  0
  4  5  1  0
  5  6  2  0
  5  7  1  0
  7  8  1  0
  8  9  1  0
  9 10  1  0
 10 11  1  0
 11 12  1  0
 11 13  1  0
 13 14  1  0
 14 15  2  0
 15 16  1  0
 16 17  2  0
 17 18  1  0
 18 19  2  0
  2 20  1  0
 20 21  2  0
 21 22  1  0
 22 23  2  0
 23 24  1  0
 24 25  2  0
 25 26  1  0
 26 27  2  0
 27 28  1  0
 28 29  2  0
 12  7  1  0
 19 14  1  0
 29 20  1  0
 13  9  1  0
 28 23  1  0
  3 30  1  0
  4 31  1  0
  4 32  1  0
  8 33  1  0
  8 34  1  0
  9 35  1  6
 10 36  1  0
 10 37  1  0
 11 38  1  1
 12 39  1  0
 12 40  1  0
 13 41  1  6
 15 42  1  0
 16 43  1  0
 17 44  1  0
 18 45  1  0
 19 46  1  0
 21 47  1  0
 22 48  1  0
 24 49  1  0
 25 50  1  0
 26 51  1  0
 27 52  1  0
M  END
>  <smiles>  (26) 
O=C(NCC(=O)N1C[C@H]2C[C@@H](C1)C2c1ccccc1)c1ccc2ccccc2n1

>  <score_type>  (26) 
oracle

>  <origin>  (26) 
autodockgpu

>  <m_score__min__energy>  (26) 
-9.5

>  <m_primary>  (26) 
energy

>  <rmsd>  (26) 
2.759899112162136

>  <m_score__min__rmsd>  (26) 
2.759899112162136

>  <meeko>  (26) 
{"free_energy": -8.72, "intermolecular_energy": -10.21, "internal_energy": -1.48, "cluster_size": 36, "cluster_id": 1, "rank_in_cluster": 34}

>  <energy>  (26) 
-9.03

>  <cluster_rmsd>  (26) 
0.92

>  <cluster>  (26) 
1

$$$$

     RDKit          3D

 52 56  0  0  1  0  0  0  0  0999 V2000
  140.5470   71.5730  221.9130 O   0  0  0  0  0  0  0  0  0  0  0  0
  139.6060   71.6410  222.7650 C   0  0  0  0  0  0  0  0  0  0  0  0
  138.5140   72.5260  222.6320 N   0  0  0  0  0  0  0  0  0  0  0  0
  138.4460   73.4000  221.4790 C   0  0  0  0  0  0  0  0  0  0  0  0
  138.1980   74.7970  221.9120 C   0  0  0  0  0  0  0  0  0  0  0  0
  137.2220   74.9830  222.6870 O   0  0  0  0  0  0  0  0  0  0  0  0
  139.0410   75.8530  221.4550 N   0  0  0  0  0  0  0  0  0  0  0  0
  140.4760   75.6590  221.4430 C   0  0  0  0  0  0  0  0  0  0  0  0
  141.1450   77.0200  221.3810 C   0  0  1  0  0  0  0  0  0  0  0  0
  140.5900   77.7280  220.1660 C   0  0  0  0  0  0  0  0  0  0  0  0
  139.4390   78.1760  221.0410 C   0  0  1  0  0  0  0  0  0  0  0  0
  138.3830   77.0700  221.0260 C   0  0  0  0  0  0  0  0  0  0  0  0
  140.3100   78.0050  222.2260 C   0  0  2  0  0  0  0  0  0  0  0  0
  141.0450   79.1370  222.7730 C   0  0  0  0  0  0  0  0  0  0  0  0
  142.4380   79.1110  222.6730 C   0  0  0  0  0  0  0  0  0  0  0  0
  143.2280   80.1270  223.1710 C   0  0  0  0  0  0  0  0  0  0  0  0
  142.6600   81.2270  223.7970 C   0  0  0  0  0  0  0  0  0  0  0  0
  141.2850   81.2730  223.9040 C   0  0  0  0  0  0  0  0  0  0  0  0
  140.5110   80.2370  223.3950 C   0  0  0  0  0  0  0  0  0  0  0  0
  139.6750   70.7510  223.9380 C   0  0  0  0  0  0  0  0  0  0  0  0
  139.0500   69.5210  223.9310 C   0  0  0  0  0  0  0  0  0  0  0  0
  139.0780   68.6460  224.9950 C   0  0  0  0  0  0  0  0  0  0  0  0
  139.7750   69.0350  226.1230 C   0  0  0  0  0  0  0  0  0  0  0  0
  139.8040   68.1680  227.1780 C   0  0  0  0  0  0  0  0  0  0  0  0
  140.4850   68.5070  228.3310 C   0  0  0  0  0  0  0  0  0  0  0  0
  141.1230   69.7350  228.3650 C   0  0  0  0  0  0  0  0  0  0  0  0
  141.0840   70.6050  227.2840 C   0  0  0  0  0  0  0  0  0  0  0  0
  140.3970   70.2670  226.1190 C   0  0  0  0  0  0  0  0  0  0  0  0
  140.3420   71.0900  225.0560 N   0  0  0  0  0  0  0  0  0  0  0  0
  137.7830   72.5240  223.3720 H   0  0  0  0  0  0  0  0  0  0  0  0
  139.3981   73.3529  220.9301 H   0  0  0  0  0  0  0  0  0  0  0  0
  137.6219   73.0733  220.8278 H   0  0  0  0  0  0  0  0  0  0  0  0
  140.7872   75.1338  222.3581 H   0  0  0  0  0  0  0  0  0  0  0  0
  140.7676   75.0554  220.5709 H   0  0  0  0  0  0  0  0  0  0  0  0
  142.2187   76.8529  221.5523 H   0  0  0  0  0  0  0  0  0  0  0  0
  141.2199   78.5439  219.7820 H   0  0  0  0  0  0  0  0  0  0  0  0
  140.4246   77.2029  219.2137 H   0  0  0  0  0  0  0  0  0  0  0  0
  138.8942   79.1153  220.8651 H   0  0  0  0  0  0  0  0  0  0  0  0
  137.5636   77.3202  221.7159 H   0  0  0  0  0  0  0  0  0  0  0  0
  137.9523   76.9510  220.0209 H   0  0  0  0  0  0  0  0  0  0  0  0
  139.8543   77.7515  223.1945 H   0  0  0  0  0  0  0  0  0  0  0  0
  142.9207   78.2533  222.1816 H   0  0  0  0  0  0  0  0  0  0  0  0
  144.3216   80.0639  223.0704 H   0  0  0  0  0  0  0  0  0  0  0  0
  143.2868   82.0381  224.1960 H   0  0  0  0  0  0  0  0  0  0  0  0
  140.8007   82.1311  224.3930 H   0  0  0  0  0  0  0  0  0  0  0  0
  139.4176   80.3021  223.4957 H   0  0  0  0  0  0  0  0  0  0  0  0
  138.4993   69.2226  223.0267 H   0  0  0  0  0  0  0  0  0  0  0  0
  138.5648   67.6742  224.9482 H   0  0  0  0  0  0  0  0  0  0  0  0
  139.2854   67.2004  227.1095 H   0  0  0  0  0  0  0  0  0  0  0  0
  140.5192   67.8243  229.1928 H   0  0  0  0  0  0  0  0  0  0  0  0
  141.6742   70.0285  229.2705 H   0  0  0  0  0  0  0  0  0  0  0  0
  141.6018   71.5734  227.3474 H   0  0  0  0  0  0  0  0  0  0  0  0
  1  2  2  0
  2  3  1  0
  3  4  1  0
  4  5  1  0
  5  6  2  0
  5  7  1  0
  7  8  1  0
  8  9  1  0
  9 10  1  0
 10 11  1  0
 11 12  1  0
 11 13  1  0
 13 14  1  0
 14 15  2  0
 15 16  1  0
 16 17  2  0
 17 18  1  0
 18 19  2  0
  2 20  1  0
 20 21  2  0
 21 22  1  0
 22 23  2  0
 23 24  1  0
 24 25  2  0
 25 26  1  0
 26 27  2  0
 27 28  1  0
 28 29  2  0
 12  7  1  0
 19 14  1  0
 29 20  1  0
 13  9  1  0
 28 23  1  0
  3 30  1  0
  4 31  1  0
  4 32  1  0
  8 33  1  0
  8 34  1  0
  9 35  1  1
 10 36  1  0
 10 37  1  0
 11 38  1  6
 12 39  1  0
 12 40  1  0
 13 41  1  1
 15 42  1  0
 16 43  1  0
 17 44  1  0
 18 45  1  0
 19 46  1  0
 21 47  1  0
 22 48  1  0
 24 49  1  0
 25 50  1  0
 26 51  1  0
 27 52  1  0
M  END
>  <smiles>  (27) 
O=C(NCC(=O)N1C[C@H]2C[C@@H](C1)C2c1ccccc1)c1ccc2ccccc2n1

>  <score_type>  (27) 
oracle

>  <origin>  (27) 
autodockgpu

>  <m_score__min__energy>  (27) 
-9.5

>  <m_primary>  (27) 
energy

>  <rmsd>  (27) 
2.235627376576185

>  <m_score__min__rmsd>  (27) 
2.235627376576185

>  <meeko>  (27) 
{"free_energy": -9.1, "intermolecular_energy": -10.59, "internal_energy": -1.38, "cluster_size": 36, "cluster_id": 1, "rank_in_cluster": 19}

>  <energy>  (27) 
-9.0

>  <cluster_rmsd>  (27) 
1.7

>  <cluster>  (27) 
1

$$$$

     RDKit          3D

 52 56  0  0  1  0  0  0  0  0999 V2000
  139.3920   71.1670  221.1890 O   0  0  0  0  0  0  0  0  0  0  0  0
  140.1880   71.6640  222.0460 C   0  0  0  0  0  0  0  0  0  0  0  0
  141.1260   72.6710  221.7300 N   0  0  0  0  0  0  0  0  0  0  0  0
  141.1950   73.1730  220.3730 C   0  0  0  0  0  0  0  0  0  0  0  0
  141.8830   74.4880  220.3510 C   0  0  0  0  0  0  0  0  0  0  0  0
  143.0980   74.4840  220.0150 O   0  0  0  0  0  0  0  0  0  0  0  0
  141.1760   75.6760  220.6990 N   0  0  0  0  0  0  0  0  0  0  0  0
  141.2480   76.8260  219.8220 C   0  0  0  0  0  0  0  0  0  0  0  0
  140.8330   78.0570  220.6070 C   0  0  1  0  0  0  0  0  0  0  0  0
  139.4600   77.7770  221.1740 C   0  0  0  0  0  0  0  0  0  0  0  0
  140.1560   77.0960  222.3340 C   0  0  1  0  0  0  0  0  0  0  0  0
  140.4180   75.6440  221.9330 C   0  0  0  0  0  0  0  0  0  0  0  0
  141.3610   77.9070  222.0490 C   0  0  2  0  0  0  0  0  0  0  0  0
  141.5970   79.1560  222.7610 C   0  0  0  0  0  0  0  0  0  0  0  0
  142.9160   79.4680  223.0970 C   0  0  0  0  0  0  0  0  0  0  0  0
  143.2450   80.6190  223.7820 C   0  0  0  0  0  0  0  0  0  0  0  0
  142.2650   81.5220  224.1670 C   0  0  0  0  0  0  0  0  0  0  0  0
  140.9550   81.2330  223.8440 C   0  0  0  0  0  0  0  0  0  0  0  0
  140.6480   80.0670  223.1530 C   0  0  0  0  0  0  0  0  0  0  0  0
  140.1160   71.1530  223.4280 C   0  0  0  0  0  0  0  0  0  0  0  0
  139.4690   69.9670  223.7100 C   0  0  0  0  0  0  0  0  0  0  0  0
  139.3680   69.4390  224.9790 C   0  0  0  0  0  0  0  0  0  0  0  0
  139.9500   70.1460  226.0130 C   0  0  0  0  0  0  0  0  0  0  0  0
  139.8500   69.6220  227.2710 C   0  0  0  0  0  0  0  0  0  0  0  0
  140.4140   70.2880  228.3420 C   0  0  0  0  0  0  0  0  0  0  0  0
  141.0700   71.4810  228.0870 C   0  0  0  0  0  0  0  0  0  0  0  0
  141.1620   71.9980  226.8030 C   0  0  0  0  0  0  0  0  0  0  0  0
  140.5950   71.3300  225.7190 C   0  0  0  0  0  0  0  0  0  0  0  0
  140.6690   71.8090  224.4630 N   0  0  0  0  0  0  0  0  0  0  0  0
  141.7440   73.0260  222.4870 H   0  0  0  0  0  0  0  0  0  0  0  0
  141.7533   72.4596  219.7489 H   0  0  0  0  0  0  0  0  0  0  0  0
  140.1743   73.2936  219.9810 H   0  0  0  0  0  0  0  0  0  0  0  0
  142.2778   76.9493  219.4556 H   0  0  0  0  0  0  0  0  0  0  0  0
  140.5790   76.6853  218.9602 H   0  0  0  0  0  0  0  0  0  0  0  0
  141.0660   78.9275  219.9761 H   0  0  0  0  0  0  0  0  0  0  0  0
  138.8837   78.6735  221.4462 H   0  0  0  0  0  0  0  0  0  0  0  0
  138.6817   77.2692  220.5854 H   0  0  0  0  0  0  0  0  0  0  0  0
  139.7211   77.0564  223.3436 H   0  0  0  0  0  0  0  0  0  0  0  0
  140.9953   75.1335  222.7179 H   0  0  0  0  0  0  0  0  0  0  0  0
  139.4731   75.0969  221.7994 H   0  0  0  0  0  0  0  0  0  0  0  0
  142.3520   77.5018  222.3015 H   0  0  0  0  0  0  0  0  0  0  0  0
  143.7181   78.7737  222.8061 H   0  0  0  0  0  0  0  0  0  0  0  0
  144.2979   80.8235  224.0261 H   0  0  0  0  0  0  0  0  0  0  0  0
  142.5244   82.4408  224.7134 H   0  0  0  0  0  0  0  0  0  0  0  0
  140.1522   81.9268  224.1340 H   0  0  0  0  0  0  0  0  0  0  0  0
  139.5948   79.8646  222.9086 H   0  0  0  0  0  0  0  0  0  0  0  0
  139.0095   69.4137  222.8777 H   0  0  0  0  0  0  0  0  0  0  0  0
  138.8433   68.4896  225.1616 H   0  0  0  0  0  0  0  0  0  0  0  0
  139.3210   68.6709  227.4308 H   0  0  0  0  0  0  0  0  0  0  0  0
  140.3444   69.8844  229.3629 H   0  0  0  0  0  0  0  0  0  0  0  0
  141.5286   72.0311  228.9219 H   0  0  0  0  0  0  0  0  0  0  0  0
  141.6900   72.9488  226.6380 H   0  0  0  0  0  0  0  0  0  0  0  0
  1  2  2  0
  2  3  1  0
  3  4  1  0
  4  5  1  0
  5  6  2  0
  5  7  1  0
  7  8  1  0
  8  9  1  0
  9 10  1  0
 10 11  1  0
 11 12  1  0
 11 13  1  0
 13 14  1  0
 14 15  2  0
 15 16  1  0
 16 17  2  0
 17 18  1  0
 18 19  2  0
  2 20  1  0
 20 21  2  0
 21 22  1  0
 22 23  2  0
 23 24  1  0
 24 25  2  0
 25 26  1  0
 26 27  2  0
 27 28  1  0
 28 29  2  0
 12  7  1  0
 19 14  1  0
 29 20  1  0
 13  9  1  0
 28 23  1  0
  3 30  1  0
  4 31  1  0
  4 32  1  0
  8 33  1  0
  8 34  1  0
  9 35  1  6
 10 36  1  0
 10 37  1  0
 11 38  1  1
 12 39  1  0
 12 40  1  0
 13 41  1  6
 15 42  1  0
 16 43  1  0
 17 44  1  0
 18 45  1  0
 19 46  1  0
 21 47  1  0
 22 48  1  0
 24 49  1  0
 25 50  1  0
 26 51  1  0
 27 52  1  0
M  END
>  <smiles>  (28) 
O=C(NCC(=O)N1C[C@H]2C[C@@H](C1)C2c1ccccc1)c1ccc2ccccc2n1

>  <score_type>  (28) 
oracle

>  <origin>  (28) 
autodockgpu

>  <m_score__min__energy>  (28) 
-9.5

>  <m_primary>  (28) 
energy

>  <rmsd>  (28) 
2.735244038194135

>  <m_score__min__rmsd>  (28) 
2.735244038194135

>  <meeko>  (28) 
{"free_energy": -9.03, "intermolecular_energy": -10.53, "internal_energy": -1.46, "cluster_size": 36, "cluster_id": 1, "rank_in_cluster": 26}

>  <energy>  (28) 
-8.99

>  <cluster_rmsd>  (28) 
1.51

>  <cluster>  (28) 
1

$$$$

     RDKit          3D

 52 56  0  0  1  0  0  0  0  0999 V2000
  139.9310   73.5720  222.6410 O   0  0  0  0  0  0  0  0  0  0  0  0
  140.2020   72.3360  222.5160 C   0  0  0  0  0  0  0  0  0  0  0  0
  140.5490   71.7480  221.2810 N   0  0  0  0  0  0  0  0  0  0  0  0
  140.6060   72.5760  220.0940 C   0  0  0  0  0  0  0  0  0  0  0  0
  141.7310   73.5390  220.1980 C   0  0  0  0  0  0  0  0  0  0  0  0
  142.8730   73.0510  220.4150 O   0  0  0  0  0  0  0  0  0  0  0  0
  141.4960   74.9380  220.0560 N   0  0  0  0  0  0  0  0  0  0  0  0
  142.6180   75.8260  219.8300 C   0  0  0  0  0  0  0  0  0  0  0  0
  142.1910   77.2400  220.1800 C   0  0  1  0  0  0  0  0  0  0  0  0
  140.9630   77.5460  219.3530 C   0  0  0  0  0  0  0  0  0  0  0  0
  140.1500   76.8790  220.4430 C   0  0  1  0  0  0  0  0  0  0  0  0
  140.1190   75.3790  220.1490 C   0  0  0  0  0  0  0  0  0  0  0  0
  141.2450   77.1690  221.3970 C   0  0  2  0  0  0  0  0  0  0  0  0
  141.2050   78.3640  222.2270 C   0  0  0  0  0  0  0  0  0  0  0  0
  142.3450   79.1700  222.2540 C   0  0  0  0  0  0  0  0  0  0  0  0
  142.4150   80.3160  223.0180 C   0  0  0  0  0  0  0  0  0  0  0  0
  141.3400   80.7180  223.7980 C   0  0  0  0  0  0  0  0  0  0  0  0
  140.2030   79.9370  223.7840 C   0  0  0  0  0  0  0  0  0  0  0  0
  140.1560   78.7850  223.0070 C   0  0  0  0  0  0  0  0  0  0  0  0
  140.1440   71.4940  223.7260 C   0  0  0  0  0  0  0  0  0  0  0  0
  139.5770   70.2370  223.6860 C   0  0  0  0  0  0  0  0  0  0  0  0
  139.4930   69.4050  224.7820 C   0  0  0  0  0  0  0  0  0  0  0  0
  140.0090   69.8680  225.9760 C   0  0  0  0  0  0  0  0  0  0  0  0
  139.9260   69.0430  227.0620 C   0  0  0  0  0  0  0  0  0  0  0  0
  140.4250   69.4570  228.2820 C   0  0  0  0  0  0  0  0  0  0  0  0
  141.0010   70.7150  228.3500 C   0  0  0  0  0  0  0  0  0  0  0  0
  141.0770   71.5410  227.2370 C   0  0  0  0  0  0  0  0  0  0  0  0
  140.5740   71.1270  226.0040 C   0  0  0  0  0  0  0  0  0  0  0  0
  140.6340   71.9060  224.9080 N   0  0  0  0  0  0  0  0  0  0  0  0
  140.7560   70.7290  221.2590 H   0  0  0  0  0  0  0  0  0  0  0  0
  140.7545   71.9368  219.2112 H   0  0  0  0  0  0  0  0  0  0  0  0
  139.6625   73.1332  219.9978 H   0  0  0  0  0  0  0  0  0  0  0  0
  143.4633   75.5253  220.4665 H   0  0  0  0  0  0  0  0  0  0  0  0
  142.9316   75.7767  218.7768 H   0  0  0  0  0  0  0  0  0  0  0  0
  143.1016   77.8570  220.1712 H   0  0  0  0  0  0  0  0  0  0  0  0
  140.7564   78.6178  219.2163 H   0  0  0  0  0  0  0  0  0  0  0  0
  140.8821   77.2403  218.2994 H   0  0  0  0  0  0  0  0  0  0  0  0
  139.1110   77.1643  220.6645 H   0  0  0  0  0  0  0  0  0  0  0  0
  139.6052   74.8451  220.9620 H   0  0  0  0  0  0  0  0  0  0  0  0
  139.5764   75.1728  219.2146 H   0  0  0  0  0  0  0  0  0  0  0  0
  141.3983   76.5001  222.2567 H   0  0  0  0  0  0  0  0  0  0  0  0
  143.2153   78.8815  221.6462 H   0  0  0  0  0  0  0  0  0  0  0  0
  143.3348   80.9192  223.0090 H   0  0  0  0  0  0  0  0  0  0  0  0
  141.3929   81.6314  224.4087 H   0  0  0  0  0  0  0  0  0  0  0  0
  139.3312   80.2264  224.3892 H   0  0  0  0  0  0  0  0  0  0  0  0
  139.2356   78.1827  223.0175 H   0  0  0  0  0  0  0  0  0  0  0  0
  139.1702   69.8795  222.7285 H   0  0  0  0  0  0  0  0  0  0  0  0
  139.0319   68.4091  224.7080 H   0  0  0  0  0  0  0  0  0  0  0  0
  139.4623   68.0502  226.9651 H   0  0  0  0  0  0  0  0  0  0  0  0
  140.3669   68.8095  229.1694 H   0  0  0  0  0  0  0  0  0  0  0  0
  141.4080   71.0679  229.3091 H   0  0  0  0  0  0  0  0  0  0  0  0
  141.5398   72.5347  227.3288 H   0  0  0  0  0  0  0  0  0  0  0  0
  1  2  2  0
  2  3  1  0
  3  4  1  0
  4  5  1  0
  5  6  2  0
  5  7  1  0
  7  8  1  0
  8  9  1  0
  9 10  1  0
 10 11  1  0
 11 12  1  0
 11 13  1  0
 13 14  1  0
 14 15  2  0
 15 16  1  0
 16 17  2  0
 17 18  1  0
 18 19  2  0
  2 20  1  0
 20 21  2  0
 21 22  1  0
 22 23  2  0
 23 24  1  0
 24 25  2  0
 25 26  1  0
 26 27  2  0
 27 28  1  0
 28 29  2  0
 12  7  1  0
 19 14  1  0
 29 20  1  0
 13  9  1  0
 28 23  1  0
  3 30  1  0
  4 31  1  0
  4 32  1  0
  8 33  1  0
  8 34  1  0
  9 35  1  1
 10 36  1  0
 10 37  1  0
 11 38  1  1
 12 39  1  0
 12 40  1  0
 13 41  1  1
 15 42  1  0
 16 43  1  0
 17 44  1  0
 18 45  1  0
 19 46  1  0
 21 47  1  0
 22 48  1  0
 24 49  1  0
 25 50  1  0
 26 51  1  0
 27 52  1  0
M  END
>  <smiles>  (29) 
O=C(NCC(=O)N1C[C@H]2C[C@@H](C1)C2c1ccccc1)c1ccc2ccccc2n1

>  <score_type>  (29) 
oracle

>  <origin>  (29) 
autodockgpu

>  <m_score__min__energy>  (29) 
-9.5

>  <m_primary>  (29) 
energy

>  <rmsd>  (29) 
2.1356796292164506

>  <m_score__min__rmsd>  (29) 
2.1356796292164506

>  <meeko>  (29) 
{"free_energy": -9.05, "intermolecular_energy": -10.55, "internal_energy": -1.42, "cluster_size": 36, "cluster_id": 1, "rank_in_cluster": 21}

>  <energy>  (29) 
-8.96

>  <cluster_rmsd>  (29) 
1.51

>  <cluster>  (29) 
1

$$$$

     RDKit          3D

 52 56  0  0  1  0  0  0  0  0999 V2000
  140.6790   72.8940  222.4200 O   0  0  0  0  0  0  0  0  0  0  0  0
  139.6290   72.3190  222.8480 C   0  0  0  0  0  0  0  0  0  0  0  0
  138.3420   72.5950  222.3400 N   0  0  0  0  0  0  0  0  0  0  0  0
  138.1920   73.5730  221.2820 C   0  0  0  0  0  0  0  0  0  0  0  0
  138.1390   74.9400  221.8560 C   0  0  0  0  0  0  0  0  0  0  0  0
  137.2440   75.1570  222.7160 O   0  0  0  0  0  0  0  0  0  0  0  0
  139.0690   75.9350  221.4330 N   0  0  0  0  0  0  0  0  0  0  0  0
  140.4860   75.6440  221.4740 C   0  0  0  0  0  0  0  0  0  0  0  0
  141.2490   76.9560  221.4390 C   0  0  1  0  0  0  0  0  0  0  0  0
  140.7900   77.6990  220.2060 C   0  0  0  0  0  0  0  0  0  0  0  0
  139.6400   78.2260  221.0380 C   0  0  1  0  0  0  0  0  0  0  0  0
  138.5120   77.1950  220.9810 C   0  0  0  0  0  0  0  0  0  0  0  0
  140.4530   77.9960  222.2540 C   0  0  2  0  0  0  0  0  0  0  0  0
  141.2420   79.0760  222.8300 C   0  0  0  0  0  0  0  0  0  0  0  0
  140.5530   80.1730  223.3500 C   0  0  0  0  0  0  0  0  0  0  0  0
  141.2060   81.2530  223.9060 C   0  0  0  0  0  0  0  0  0  0  0  0
  142.5920   81.2900  223.9700 C   0  0  0  0  0  0  0  0  0  0  0  0
  143.2920   80.2150  223.4630 C   0  0  0  0  0  0  0  0  0  0  0  0
  142.6110   79.1380  222.9080 C   0  0  0  0  0  0  0  0  0  0  0  0
  139.7830   71.3220  223.9240 C   0  0  0  0  0  0  0  0  0  0  0  0
  139.4070   70.0090  223.7320 C   0  0  0  0  0  0  0  0  0  0  0  0
  139.5260   69.0340  224.6980 C   0  0  0  0  0  0  0  0  0  0  0  0
  140.0500   69.4060  225.9200 C   0  0  0  0  0  0  0  0  0  0  0  0
  140.1680   68.4390  226.8780 C   0  0  0  0  0  0  0  0  0  0  0  0
  140.6860   68.7580  228.1190 C   0  0  0  0  0  0  0  0  0  0  0  0
  141.0720   70.0690  228.3400 C   0  0  0  0  0  0  0  0  0  0  0  0
  140.9450   71.0390  227.3550 C   0  0  0  0  0  0  0  0  0  0  0  0
  140.4230   70.7220  226.1010 C   0  0  0  0  0  0  0  0  0  0  0  0
  140.2890   71.6420  225.1280 N   0  0  0  0  0  0  0  0  0  0  0  0
  137.5310   72.0830  222.7430 H   0  0  0  0  0  0  0  0  0  0  0  0
  139.0477   73.4998  220.5947 H   0  0  0  0  0  0  0  0  0  0  0  0
  137.2570   73.3743  220.7376 H   0  0  0  0  0  0  0  0  0  0  0  0
  140.7263   75.0997  222.3992 H   0  0  0  0  0  0  0  0  0  0  0  0
  140.7677   75.0213  220.6121 H   0  0  0  0  0  0  0  0  0  0  0  0
  142.3016   76.7158  221.6496 H   0  0  0  0  0  0  0  0  0  0  0  0
  141.4884   78.4694  219.8473 H   0  0  0  0  0  0  0  0  0  0  0  0
  140.6248   77.1855  219.2473 H   0  0  0  0  0  0  0  0  0  0  0  0
  139.1676   79.2003  220.8440 H   0  0  0  0  0  0  0  0  0  0  0  0
  137.6860   77.5013  221.6398 H   0  0  0  0  0  0  0  0  0  0  0  0
  138.1125   77.1049  219.9601 H   0  0  0  0  0  0  0  0  0  0  0  0
  139.9460   77.7741  223.2046 H   0  0  0  0  0  0  0  0  0  0  0  0
  139.4535   80.1761  223.3152 H   0  0  0  0  0  0  0  0  0  0  0  0
  140.6212   82.0955  224.3037 H   0  0  0  0  0  0  0  0  0  0  0  0
  143.1162   82.1504  224.4116 H   0  0  0  0  0  0  0  0  0  0  0  0
  144.3914   80.2101  223.4980 H   0  0  0  0  0  0  0  0  0  0  0  0
  143.1969   78.2953  222.5125 H   0  0  0  0  0  0  0  0  0  0  0  0
  138.9895   69.7250  222.7547 H   0  0  0  0  0  0  0  0  0  0  0  0
  139.2149   67.9971  224.5029 H   0  0  0  0  0  0  0  0  0  0  0  0
  139.8512   67.4080  226.6619 H   0  0  0  0  0  0  0  0  0  0  0  0
  140.7882   67.9954  228.9051 H   0  0  0  0  0  0  0  0  0  0  0  0
  141.4890   70.3486  229.3187 H   0  0  0  0  0  0  0  0  0  0  0  0
  141.2603   72.0714  227.5663 H   0  0  0  0  0  0  0  0  0  0  0  0
  1  2  2  0
  2  3  1  0
  3  4  1  0
  4  5  1  0
  5  6  2  0
  5  7  1  0
  7  8  1  0
  8  9  1  0
  9 10  1  0
 10 11  1  0
 11 12  1  0
 11 13  1  0
 13 14  1  0
 14 15  2  0
 15 16  1  0
 16 17  2  0
 17 18  1  0
 18 19  2  0
  2 20  1  0
 20 21  2  0
 21 22  1  0
 22 23  2  0
 23 24  1  0
 24 25  2  0
 25 26  1  0
 26 27  2  0
 27 28  1  0
 28 29  2  0
 12  7  1  0
 19 14  1  0
 29 20  1  0
 13  9  1  0
 28 23  1  0
  3 30  1  0
  4 31  1  0
  4 32  1  0
  8 33  1  0
  8 34  1  0
  9 35  1  1
 10 36  1  0
 10 37  1  0
 11 38  1  6
 12 39  1  0
 12 40  1  0
 13 41  1  1
 15 42  1  0
 16 43  1  0
 17 44  1  0
 18 45  1  0
 19 46  1  0
 21 47  1  0
 22 48  1  0
 24 49  1  0
 25 50  1  0
 26 51  1  0
 27 52  1  0
M  END
>  <smiles>  (30) 
O=C(NCC(=O)N1C[C@H]2C[C@@H](C1)C2c1ccccc1)c1ccc2ccccc2n1

>  <score_type>  (30) 
oracle

>  <origin>  (30) 
autodockgpu

>  <m_score__min__energy>  (30) 
-9.5

>  <m_primary>  (30) 
energy

>  <rmsd>  (30) 
2.275060942253339

>  <m_score__min__rmsd>  (30) 
2.275060942253339

>  <meeko>  (30) 
{"free_energy": -9.16, "intermolecular_energy": -10.65, "internal_energy": -1.33, "cluster_size": 36, "cluster_id": 1, "rank_in_cluster": 11}

>  <energy>  (30) 
-8.95

>  <cluster_rmsd>  (30) 
1.67

>  <cluster>  (30) 
1

$$$$

     RDKit          3D

 52 56  0  0  1  0  0  0  0  0999 V2000
  140.0570   71.9370  221.8260 O   0  0  0  0  0  0  0  0  0  0  0  0
  139.1920   71.9070  222.7580 C   0  0  0  0  0  0  0  0  0  0  0  0
  138.0000   72.6620  222.7220 N   0  0  0  0  0  0  0  0  0  0  0  0
  137.7330   73.5110  221.5790 C   0  0  0  0  0  0  0  0  0  0  0  0
  137.7660   74.9380  221.9850 C   0  0  0  0  0  0  0  0  0  0  0  0
  136.8060   75.3460  222.6910 O   0  0  0  0  0  0  0  0  0  0  0  0
  138.8450   75.7770  221.5780 N   0  0  0  0  0  0  0  0  0  0  0  0
  140.2000   75.4100  221.9300 C   0  0  0  0  0  0  0  0  0  0  0  0
  141.0790   76.6420  221.8140 C   0  0  1  0  0  0  0  0  0  0  0  0
  140.9100   77.1720  220.4080 C   0  0  0  0  0  0  0  0  0  0  0  0
  139.6900   77.9150  220.9110 C   0  0  1  0  0  0  0  0  0  0  0  0
  138.4960   76.9640  220.8230 C   0  0  0  0  0  0  0  0  0  0  0  0
  140.2580   77.8630  222.2770 C   0  0  2  0  0  0  0  0  0  0  0  0
  141.0370   78.9780  222.7970 C   0  0  0  0  0  0  0  0  0  0  0  0
  140.3350   80.0620  223.3300 C   0  0  0  0  0  0  0  0  0  0  0  0
  140.9770   81.1730  223.8360 C   0  0  0  0  0  0  0  0  0  0  0  0
  142.3620   81.2560  223.8350 C   0  0  0  0  0  0  0  0  0  0  0  0
  143.0740   80.1960  223.3140 C   0  0  0  0  0  0  0  0  0  0  0  0
  142.4040   79.0860  222.8100 C   0  0  0  0  0  0  0  0  0  0  0  0
  139.4650   71.0420  223.9210 C   0  0  0  0  0  0  0  0  0  0  0  0
  139.1440   69.7010  223.8950 C   0  0  0  0  0  0  0  0  0  0  0  0
  139.3740   68.8430  224.9480 C   0  0  0  0  0  0  0  0  0  0  0  0
  139.9560   69.3690  226.0850 C   0  0  0  0  0  0  0  0  0  0  0  0
  140.1830   68.5180  227.1300 C   0  0  0  0  0  0  0  0  0  0  0  0
  140.7630   68.9920  228.2910 C   0  0  0  0  0  0  0  0  0  0  0  0
  141.0950   70.3360  228.3440 C   0  0  0  0  0  0  0  0  0  0  0  0
  140.8570   71.1860  227.2730 C   0  0  0  0  0  0  0  0  0  0  0  0
  140.2720   70.7120  226.1000 C   0  0  0  0  0  0  0  0  0  0  0  0
  140.0300   71.5140  225.0460 N   0  0  0  0  0  0  0  0  0  0  0  0
  137.3420   72.5860  223.5230 H   0  0  0  0  0  0  0  0  0  0  0  0
  138.4975   73.3343  220.8080 H   0  0  0  0  0  0  0  0  0  0  0  0
  136.7362   73.2734  221.1790 H   0  0  0  0  0  0  0  0  0  0  0  0
  140.2255   75.0320  222.9627 H   0  0  0  0  0  0  0  0  0  0  0  0
  140.5645   74.6224  221.2541 H   0  0  0  0  0  0  0  0  0  0  0  0
  142.0522   76.3791  222.2542 H   0  0  0  0  0  0  0  0  0  0  0  0
  141.7294   77.8174  220.0587 H   0  0  0  0  0  0  0  0  0  0  0  0
  140.8629   76.5017  219.5371 H   0  0  0  0  0  0  0  0  0  0  0  0
  139.3522   78.8644  220.4700 H   0  0  0  0  0  0  0  0  0  0  0  0
  137.6025   77.4380  221.2555 H   0  0  0  0  0  0  0  0  0  0  0  0
  138.2704   76.7120  219.7763 H   0  0  0  0  0  0  0  0  0  0  0  0
  139.5764   77.8538  223.1404 H   0  0  0  0  0  0  0  0  0  0  0  0
  139.2356   80.0284  223.3466 H   0  0  0  0  0  0  0  0  0  0  0  0
  140.3835   82.0037  224.2455 H   0  0  0  0  0  0  0  0  0  0  0  0
  142.8767   82.1408  224.2377 H   0  0  0  0  0  0  0  0  0  0  0  0
  144.1734   80.2283  223.2970 H   0  0  0  0  0  0  0  0  0  0  0  0
  142.9990   78.2554  222.4025 H   0  0  0  0  0  0  0  0  0  0  0  0
  138.6793   69.2946  222.9845 H   0  0  0  0  0  0  0  0  0  0  0  0
  139.1042   67.7784  224.8857 H   0  0  0  0  0  0  0  0  0  0  0  0
  139.9043   67.4571  227.0469 H   0  0  0  0  0  0  0  0  0  0  0  0
  140.9547   68.3248  229.1443 H   0  0  0  0  0  0  0  0  0  0  0  0
  141.5583   70.7390  229.2567 H   0  0  0  0  0  0  0  0  0  0  0  0
  141.1337   72.2478  227.3509 H   0  0  0  0  0  0  0  0  0  0  0  0
  1  2  2  0
  2  3  1  0
  3  4  1  0
  4  5  1  0
  5  6  2  0
  5  7  1  0
  7  8  1  0
  8  9  1  0
  9 10  1  0
 10 11  1  0
 11 12  1  0
 11 13  1  0
 13 14  1  0
 14 15  2  0
 15 16  1  0
 16 17  2  0
 17 18  1  0
 18 19  2  0
  2 20  1  0
 20 21  2  0
 21 22  1  0
 22 23  2  0
 23 24  1  0
 24 25  2  0
 25 26  1  0
 26 27  2  0
 27 28  1  0
 28 29  2  0
 12  7  1  0
 19 14  1  0
 29 20  1  0
 13  9  1  0
 28 23  1  0
  3 30  1  0
  4 31  1  0
  4 32  1  0
  8 33  1  0
  8 34  1  0
  9 35  1  1
 10 36  1  0
 10 37  1  0
 11 38  1  6
 12 39  1  0
 12 40  1  0
 13 41  1  1
 15 42  1  0
 16 43  1  0
 17 44  1  0
 18 45  1  0
 19 46  1  0
 21 47  1  0
 22 48  1  0
 24 49  1  0
 25 50  1  0
 26 51  1  0
 27 52  1  0
M  END
>  <smiles>  (31) 
O=C(NCC(=O)N1C[C@H]2C[C@@H](C1)C2c1ccccc1)c1ccc2ccccc2n1

>  <score_type>  (31) 
oracle

>  <origin>  (31) 
autodockgpu

>  <m_score__min__energy>  (31) 
-9.5

>  <m_primary>  (31) 
energy

>  <rmsd>  (31) 
2.232605142718867

>  <m_score__min__rmsd>  (31) 
2.232605142718867

>  <meeko>  (31) 
{"free_energy": -9.22, "intermolecular_energy": -10.71, "internal_energy": -1.36, "cluster_size": 36, "cluster_id": 1, "rank_in_cluster": 10}

>  <energy>  (31) 
-8.94

>  <cluster_rmsd>  (31) 
1.47

>  <cluster>  (31) 
1

$$$$

     RDKit          3D

 52 56  0  0  1  0  0  0  0  0999 V2000
  138.2850   71.8470  222.1900 O   0  0  0  0  0  0  0  0  0  0  0  0
  139.4500   71.7090  222.6810 C   0  0  0  0  0  0  0  0  0  0  0  0
  140.5950   72.3170  222.1210 N   0  0  0  0  0  0  0  0  0  0  0  0
  140.4530   73.1380  220.9360 C   0  0  0  0  0  0  0  0  0  0  0  0
  141.4510   74.2360  220.9550 C   0  0  0  0  0  0  0  0  0  0  0  0
  142.6640   73.8970  220.9590 O   0  0  0  0  0  0  0  0  0  0  0  0
  141.0230   75.5970  220.9690 N   0  0  0  0  0  0  0  0  0  0  0  0
  141.6750   76.5540  220.0990 C   0  0  0  0  0  0  0  0  0  0  0  0
  141.3910   77.9500  220.6210 C   0  0  1  0  0  0  0  0  0  0  0  0
  139.8880   78.0910  220.7060 C   0  0  0  0  0  0  0  0  0  0  0  0
  139.9760   77.4450  222.0730 C   0  0  1  0  0  0  0  0  0  0  0  0
  139.9420   75.9290  221.8750 C   0  0  0  0  0  0  0  0  0  0  0  0
  141.3830   77.8960  222.1630 C   0  0  2  0  0  0  0  0  0  0  0  0
  141.7190   79.1440  222.8340 C   0  0  0  0  0  0  0  0  0  0  0  0
  140.6630   79.9710  223.2220 C   0  0  0  0  0  0  0  0  0  0  0  0
  140.8730   81.1800  223.8530 C   0  0  0  0  0  0  0  0  0  0  0  0
  142.1580   81.6250  224.1270 C   0  0  0  0  0  0  0  0  0  0  0  0
  143.2150   80.8220  223.7530 C   0  0  0  0  0  0  0  0  0  0  0  0
  142.9780   79.6080  223.1180 C   0  0  0  0  0  0  0  0  0  0  0  0
  139.5920   70.8740  223.8880 C   0  0  0  0  0  0  0  0  0  0  0  0
  139.0720   69.5970  223.9290 C   0  0  0  0  0  0  0  0  0  0  0  0
  139.1720   68.7700  225.0270 C   0  0  0  0  0  0  0  0  0  0  0  0
  139.8320   69.2590  226.1370 C   0  0  0  0  0  0  0  0  0  0  0  0
  139.9320   68.4380  227.2250 C   0  0  0  0  0  0  0  0  0  0  0  0
  140.5820   68.8780  228.3630 C   0  0  0  0  0  0  0  0  0  0  0  0
  141.1150   70.1560  228.3480 C   0  0  0  0  0  0  0  0  0  0  0  0
  141.0040   70.9770  227.2340 C   0  0  0  0  0  0  0  0  0  0  0  0
  140.3490   70.5370  226.0840 C   0  0  0  0  0  0  0  0  0  0  0  0
  140.2270   71.3110  224.9900 N   0  0  0  0  0  0  0  0  0  0  0  0
  141.5140   72.1560  222.5800 H   0  0  0  0  0  0  0  0  0  0  0  0
  140.6118   72.5172  220.0419 H   0  0  0  0  0  0  0  0  0  0  0  0
  139.4417   73.5704  220.9161 H   0  0  0  0  0  0  0  0  0  0  0  0
  142.7600   76.3729  220.0950 H   0  0  0  0  0  0  0  0  0  0  0  0
  141.2942   76.4507  219.0722 H   0  0  0  0  0  0  0  0  0  0  0  0
  142.0376   78.6362  220.0544 H   0  0  0  0  0  0  0  0  0  0  0  0
  139.5234   79.1288  220.7109 H   0  0  0  0  0  0  0  0  0  0  0  0
  139.2234   77.7003  219.9214 H   0  0  0  0  0  0  0  0  0  0  0  0
  139.2562   77.6602  222.8765 H   0  0  0  0  0  0  0  0  0  0  0  0
  140.0863   75.4186  222.8387 H   0  0  0  0  0  0  0  0  0  0  0  0
  138.9730   75.6077  221.4653 H   0  0  0  0  0  0  0  0  0  0  0  0
  142.0962   77.3099  222.7612 H   0  0  0  0  0  0  0  0  0  0  0  0
  139.6312   79.6486  223.0182 H   0  0  0  0  0  0  0  0  0  0  0  0
  140.0107   81.7987  224.1424 H   0  0  0  0  0  0  0  0  0  0  0  0
  142.3288   82.5895  224.6276 H   0  0  0  0  0  0  0  0  0  0  0  0
  144.2472   81.1425  223.9574 H   0  0  0  0  0  0  0  0  0  0  0  0
  143.8413   78.9903  222.8297 H   0  0  0  0  0  0  0  0  0  0  0  0
  138.5497   69.2186  223.0379 H   0  0  0  0  0  0  0  0  0  0  0  0
  138.7419   67.7576  225.0194 H   0  0  0  0  0  0  0  0  0  0  0  0
  139.4959   67.4286  227.1953 H   0  0  0  0  0  0  0  0  0  0  0  0
  140.6728   68.2346  229.2506 H   0  0  0  0  0  0  0  0  0  0  0  0
  141.6389   70.5296  229.2401 H   0  0  0  0  0  0  0  0  0  0  0  0
  141.4382   71.9874  227.2587 H   0  0  0  0  0  0  0  0  0  0  0  0
  1  2  2  0
  2  3  1  0
  3  4  1  0
  4  5  1  0
  5  6  2  0
  5  7  1  0
  7  8  1  0
  8  9  1  0
  9 10  1  0
 10 11  1  0
 11 12  1  0
 11 13  1  0
 13 14  1  0
 14 15  2  0
 15 16  1  0
 16 17  2  0
 17 18  1  0
 18 19  2  0
  2 20  1  0
 20 21  2  0
 21 22  1  0
 22 23  2  0
 23 24  1  0
 24 25  2  0
 25 26  1  0
 26 27  2  0
 27 28  1  0
 28 29  2  0
 12  7  1  0
 19 14  1  0
 29 20  1  0
 13  9  1  0
 28 23  1  0
  3 30  1  0
  4 31  1  0
  4 32  1  0
  8 33  1  0
  8 34  1  0
  9 35  1  1
 10 36  1  0
 10 37  1  0
 11 38  1  1
 12 39  1  0
 12 40  1  0
 13 41  1  6
 15 42  1  0
 16 43  1  0
 17 44  1  0
 18 45  1  0
 19 46  1  0
 21 47  1  0
 22 48  1  0
 24 49  1  0
 25 50  1  0
 26 51  1  0
 27 52  1  0
M  END
>  <smiles>  (32) 
O=C(NCC(=O)N1C[C@H]2C[C@@H](C1)C2c1ccccc1)c1ccc2ccccc2n1

>  <score_type>  (32) 
oracle

>  <origin>  (32) 
autodockgpu

>  <m_score__min__energy>  (32) 
-9.5

>  <m_primary>  (32) 
energy

>  <rmsd>  (32) 
2.4565647390010015

>  <m_score__min__rmsd>  (32) 
2.4565647390010015

>  <meeko>  (32) 
{"free_energy": -9.12, "intermolecular_energy": -10.62, "internal_energy": -1.4, "cluster_size": 36, "cluster_id": 1, "rank_in_cluster": 17}

>  <energy>  (32) 
-8.9

>  <cluster_rmsd>  (32) 
1.75

>  <cluster>  (32) 
1

$$$$

     RDKit          3D

 52 56  0  0  1  0  0  0  0  0999 V2000
  139.9490   71.8230  221.7340 O   0  0  0  0  0  0  0  0  0  0  0  0
  139.1350   71.8560  222.7100 C   0  0  0  0  0  0  0  0  0  0  0  0
  137.9610   72.6410  222.7030 N   0  0  0  0  0  0  0  0  0  0  0  0
  137.6550   73.4460  221.5390 C   0  0  0  0  0  0  0  0  0  0  0  0
  138.3410   74.7590  221.6330 C   0  0  0  0  0  0  0  0  0  0  0  0
  137.8060   75.6240  222.3770 O   0  0  0  0  0  0  0  0  0  0  0  0
  139.5430   74.9960  220.9030 N   0  0  0  0  0  0  0  0  0  0  0  0
  139.7480   74.3250  219.6370 C   0  0  0  0  0  0  0  0  0  0  0  0
  141.2290   74.3590  219.3080 C   0  0  1  0  0  0  0  0  0  0  0  0
  141.6530   75.8090  219.3330 C   0  0  0  0  0  0  0  0  0  0  0  0
  141.8430   75.6540  220.8270 C   0  0  1  0  0  0  0  0  0  0  0  0
  140.4940   75.9130  221.4980 C   0  0  0  0  0  0  0  0  0  0  0  0
  142.0180   74.1980  220.6240 C   0  0  2  0  0  0  0  0  0  0  0  0
  143.3490   73.6240  220.4880 C   0  0  0  0  0  0  0  0  0  0  0  0
  144.4400   74.4710  220.6930 C   0  0  0  0  0  0  0  0  0  0  0  0
  145.7420   74.0310  220.5750 C   0  0  0  0  0  0  0  0  0  0  0  0
  146.0200   72.7130  220.2460 C   0  0  0  0  0  0  0  0  0  0  0  0
  144.9560   71.8590  220.0410 C   0  0  0  0  0  0  0  0  0  0  0  0
  143.6530   72.3260  220.1640 C   0  0  0  0  0  0  0  0  0  0  0  0
  139.4480   71.0350  223.8930 C   0  0  0  0  0  0  0  0  0  0  0  0
  139.1990   69.6780  223.8980 C   0  0  0  0  0  0  0  0  0  0  0  0
  139.4690   68.8590  224.9730 C   0  0  0  0  0  0  0  0  0  0  0  0
  140.0170   69.4410  226.0990 C   0  0  0  0  0  0  0  0  0  0  0  0
  140.2850   68.6290  227.1640 C   0  0  0  0  0  0  0  0  0  0  0  0
  140.8340   69.1600  228.3150 C   0  0  0  0  0  0  0  0  0  0  0  0
  141.0950   70.5200  228.3370 C   0  0  0  0  0  0  0  0  0  0  0  0
  140.8160   71.3310  227.2460 C   0  0  0  0  0  0  0  0  0  0  0  0
  140.2620   70.7990  226.0820 C   0  0  0  0  0  0  0  0  0  0  0  0
  139.9830   71.5620  225.0090 N   0  0  0  0  0  0  0  0  0  0  0  0
  137.3450   72.6160  223.5400 H   0  0  0  0  0  0  0  0  0  0  0  0
  137.9954   72.9215  220.6340 H   0  0  0  0  0  0  0  0  0  0  0  0
  136.5684   73.6099  221.4898 H   0  0  0  0  0  0  0  0  0  0  0  0
  139.4082   73.2814  219.7109 H   0  0  0  0  0  0  0  0  0  0  0  0
  139.1746   74.8300  218.8457 H   0  0  0  0  0  0  0  0  0  0  0  0
  141.3755   73.6957  218.4428 H   0  0  0  0  0  0  0  0  0  0  0  0
  142.5741   76.0281  218.7730 H   0  0  0  0  0  0  0  0  0  0  0  0
  141.0238   76.6048  218.9077 H   0  0  0  0  0  0  0  0  0  0  0  0
  142.5792   76.2429  221.3938 H   0  0  0  0  0  0  0  0  0  0  0  0
  140.5689   75.7303  222.5801 H   0  0  0  0  0  0  0  0  0  0  0  0
  140.1771   76.9564  221.3534 H   0  0  0  0  0  0  0  0  0  0  0  0
  141.7342   73.5064  221.4309 H   0  0  0  0  0  0  0  0  0  0  0  0
  144.2553   75.5227  220.9570 H   0  0  0  0  0  0  0  0  0  0  0  0
  146.5704   74.7347  220.7441 H   0  0  0  0  0  0  0  0  0  0  0  0
  147.0572   72.3591  220.1513 H   0  0  0  0  0  0  0  0  0  0  0  0
  145.1395   70.8064  219.7797 H   0  0  0  0  0  0  0  0  0  0  0  0
  142.8258   71.6213  219.9934 H   0  0  0  0  0  0  0  0  0  0  0  0
  138.7616   69.2256  222.9957 H   0  0  0  0  0  0  0  0  0  0  0  0
  139.2556   67.7805  224.9355 H   0  0  0  0  0  0  0  0  0  0  0  0
  140.0639   67.5531  227.1052 H   0  0  0  0  0  0  0  0  0  0  0  0
  141.0564   68.5242  229.1847 H   0  0  0  0  0  0  0  0  0  0  0  0
  141.5339   70.9679  229.2407 H   0  0  0  0  0  0  0  0  0  0  0  0
  141.0347   72.4077  227.3001 H   0  0  0  0  0  0  0  0  0  0  0  0
  1  2  2  0
  2  3  1  0
  3  4  1  0
  4  5  1  0
  5  6  2  0
  5  7  1  0
  7  8  1  0
  8  9  1  0
  9 10  1  0
 10 11  1  0
 11 12  1  0
 11 13  1  0
 13 14  1  0
 14 15  2  0
 15 16  1  0
 16 17  2  0
 17 18  1  0
 18 19  2  0
  2 20  1  0
 20 21  2  0
 21 22  1  0
 22 23  2  0
 23 24  1  0
 24 25  2  0
 25 26  1  0
 26 27  2  0
 27 28  1  0
 28 29  2  0
 12  7  1  0
 19 14  1  0
 29 20  1  0
 13  9  1  0
 28 23  1  0
  3 30  1  0
  4 31  1  0
  4 32  1  0
  8 33  1  0
  8 34  1  0
  9 35  1  6
 10 36  1  0
 10 37  1  0
 11 38  1  1
 12 39  1  0
 12 40  1  0
 13 41  1  1
 15 42  1  0
 16 43  1  0
 17 44  1  0
 18 45  1  0
 19 46  1  0
 21 47  1  0
 22 48  1  0
 24 49  1  0
 25 50  1  0
 26 51  1  0
 27 52  1  0
M  END
>  <smiles>  (33) 
O=C(NCC(=O)N1C[C@H]2C[C@@H](C1)C2c1ccccc1)c1ccc2ccccc2n1

>  <score_type>  (33) 
oracle

>  <origin>  (33) 
autodockgpu

>  <m_score__min__energy>  (33) 
-9.5

>  <m_primary>  (33) 
energy

>  <rmsd>  (33) 
2.2001512591541426

>  <m_score__min__rmsd>  (33) 
2.2001512591541426

>  <meeko>  (33) 
{"free_energy": -8.24, "intermolecular_energy": -9.74, "internal_energy": -1.69, "cluster_size": 1, "cluster_id": 3, "rank_in_cluster": 1}

>  <energy>  (33) 
-8.89

>  <cluster_rmsd>  (33) 
1.44

>  <cluster>  (33) 
1

$$$$

     RDKit          3D

 52 56  0  0  1  0  0  0  0  0999 V2000
  140.2710   74.5670  222.3310 O   0  0  0  0  0  0  0  0  0  0  0  0
  139.3930   75.4570  222.1010 C   0  0  0  0  0  0  0  0  0  0  0  0
  138.1430   75.1680  221.5130 N   0  0  0  0  0  0  0  0  0  0  0  0
  137.8290   73.8010  221.1520 C   0  0  0  0  0  0  0  0  0  0  0  0
  137.3320   73.0620  222.3390 C   0  0  0  0  0  0  0  0  0  0  0  0
  136.3250   73.5440  222.9230 O   0  0  0  0  0  0  0  0  0  0  0  0
  137.9850   71.8700  222.7700 N   0  0  0  0  0  0  0  0  0  0  0  0
  137.2010   70.8080  223.3650 C   0  0  0  0  0  0  0  0  0  0  0  0
  138.1350   69.8990  224.1440 C   0  0  1  0  0  0  0  0  0  0  0  0
  139.2030   69.4350  223.1790 C   0  0  0  0  0  0  0  0  0  0  0  0
  139.9480   70.7130  223.5020 C   0  0  1  0  0  0  0  0  0  0  0  0
  139.4190   71.8080  222.5750 C   0  0  0  0  0  0  0  0  0  0  0  0
  139.2270   70.7740  224.7930 C   0  0  2  0  0  0  0  0  0  0  0  0
  139.8280   70.2280  226.0020 C   0  0  0  0  0  0  0  0  0  0  0  0
  139.6740   68.8610  226.2380 C   0  0  0  0  0  0  0  0  0  0  0  0
  140.1930   68.2470  227.3600 C   0  0  0  0  0  0  0  0  0  0  0  0
  140.8970   68.9760  228.3070 C   0  0  0  0  0  0  0  0  0  0  0  0
  141.0620   70.3290  228.0920 C   0  0  0  0  0  0  0  0  0  0  0  0
  140.5290   70.9240  226.9540 C   0  0  0  0  0  0  0  0  0  0  0  0
  139.7140   76.8480  222.4700 C   0  0  0  0  0  0  0  0  0  0  0  0
  138.7110   77.7610  222.7260 C   0  0  0  0  0  0  0  0  0  0  0  0
  138.9480   79.0730  223.0740 C   0  0  0  0  0  0  0  0  0  0  0  0
  140.2630   79.4820  223.1680 C   0  0  0  0  0  0  0  0  0  0  0  0
  140.4980   80.7830  223.5140 C   0  0  0  0  0  0  0  0  0  0  0  0
  141.7950   81.2450  223.6220 C   0  0  0  0  0  0  0  0  0  0  0  0
  142.8220   80.3490  223.3710 C   0  0  0  0  0  0  0  0  0  0  0  0
  142.5660   79.0310  223.0210 C   0  0  0  0  0  0  0  0  0  0  0  0
  141.2580   78.5610  222.9110 C   0  0  0  0  0  0  0  0  0  0  0  0
  140.9810   77.2880  222.5730 N   0  0  0  0  0  0  0  0  0  0  0  0
  137.4780   75.9520  221.3550 H   0  0  0  0  0  0  0  0  0  0  0  0
  137.0538   73.7996  220.3716 H   0  0  0  0  0  0  0  0  0  0  0  0
  138.7386   73.3095  220.7765 H   0  0  0  0  0  0  0  0  0  0  0  0
  136.4492   71.2372  224.0437 H   0  0  0  0  0  0  0  0  0  0  0  0
  136.6848   70.2353  222.5805 H   0  0  0  0  0  0  0  0  0  0  0  0
  137.4990   69.2152  224.7253 H   0  0  0  0  0  0  0  0  0  0  0  0
  139.7224   68.5123  223.4771 H   0  0  0  0  0  0  0  0  0  0  0  0
  138.9652   69.1473  222.1443 H   0  0  0  0  0  0  0  0  0  0  0  0
  141.0448   70.7848  223.4583 H   0  0  0  0  0  0  0  0  0  0  0  0
  139.8775   72.7744  222.8315 H   0  0  0  0  0  0  0  0  0  0  0  0
  139.6638   71.5868  221.5256 H   0  0  0  0  0  0  0  0  0  0  0  0
  139.0358   71.7541  225.2544 H   0  0  0  0  0  0  0  0  0  0  0  0
  139.1212   68.2534  225.5063 H   0  0  0  0  0  0  0  0  0  0  0  0
  140.0465   67.1665  227.5049 H   0  0  0  0  0  0  0  0  0  0  0  0
  141.3114   68.4901  229.2026 H   0  0  0  0  0  0  0  0  0  0  0  0
  141.6159   70.9376  228.8219 H   0  0  0  0  0  0  0  0  0  0  0  0
  140.6765   72.0045  226.8101 H   0  0  0  0  0  0  0  0  0  0  0  0
  137.6670   77.4233  222.6481 H   0  0  0  0  0  0  0  0  0  0  0  0
  138.1192   79.7693  223.2698 H   0  0  0  0  0  0  0  0  0  0  0  0
  139.6543   81.4621  223.7065 H   0  0  0  0  0  0  0  0  0  0  0  0
  142.0057   82.2888  223.8979 H   0  0  0  0  0  0  0  0  0  0  0  0
  143.8645   80.6907  223.4511 H   0  0  0  0  0  0  0  0  0  0  0  0
  143.4062   78.3478  222.8277 H   0  0  0  0  0  0  0  0  0  0  0  0
  1  2  2  0
  2  3  1  0
  3  4  1  0
  4  5  1  0
  5  6  2  0
  5  7  1  0
  7  8  1  0
  8  9  1  0
  9 10  1  0
 10 11  1  0
 11 12  1  0
 11 13  1  0
 13 14  1  0
 14 15  2  0
 15 16  1  0
 16 17  2  0
 17 18  1  0
 18 19  2  0
  2 20  1  0
 20 21  2  0
 21 22  1  0
 22 23  2  0
 23 24  1  0
 24 25  2  0
 25 26  1  0
 26 27  2  0
 27 28  1  0
 28 29  2  0
 12  7  1  0
 19 14  1  0
 29 20  1  0
 13  9  1  0
 28 23  1  0
  3 30  1  0
  4 31  1  0
  4 32  1  0
  8 33  1  0
  8 34  1  0
  9 35  1  1
 10 36  1  0
 10 37  1  0
 11 38  1  1
 12 39  1  0
 12 40  1  0
 13 41  1  1
 15 42  1  0
 16 43  1  0
 17 44  1  0
 18 45  1  0
 19 46  1  0
 21 47  1  0
 22 48  1  0
 24 49  1  0
 25 50  1  0
 26 51  1  0
 27 52  1  0
M  END
>  <smiles>  (34) 
O=C(NCC(=O)N1C[C@H]2C[C@@H](C1)C2c1ccccc1)c1ccc2ccccc2n1

>  <score_type>  (34) 
oracle

>  <origin>  (34) 
autodockgpu

>  <m_score__min__energy>  (34) 
-9.5

>  <m_primary>  (34) 
energy

>  <rmsd>  (34) 
8.194571407506187

>  <m_score__min__rmsd>  (34) 
8.194571407506187

>  <meeko>  (34) 
{"free_energy": -9.3, "intermolecular_energy": -10.79, "internal_energy": -1.29, "cluster_size": 10, "cluster_id": 2, "rank_in_cluster": 4}

>  <energy>  (34) 
-8.72

>  <cluster_rmsd>  (34) 
1.03

>  <cluster>  (34) 
1

$$$$

     RDKit          3D

 52 56  0  0  1  0  0  0  0  0999 V2000
  140.7510   73.0250  222.3890 O   0  0  0  0  0  0  0  0  0  0  0  0
  139.6810   72.4440  222.7560 C   0  0  0  0  0  0  0  0  0  0  0  0
  138.4370   72.6580  222.1240 N   0  0  0  0  0  0  0  0  0  0  0  0
  138.3590   73.5740  221.0050 C   0  0  0  0  0  0  0  0  0  0  0  0
  138.2020   74.9660  221.4950 C   0  0  0  0  0  0  0  0  0  0  0  0
  137.1970   75.1990  222.2190 O   0  0  0  0  0  0  0  0  0  0  0  0
  139.1580   75.9640  221.1450 N   0  0  0  0  0  0  0  0  0  0  0  0
  140.5570   75.7440  221.4480 C   0  0  0  0  0  0  0  0  0  0  0  0
  141.2710   77.0820  221.4230 C   0  0  1  0  0  0  0  0  0  0  0  0
  141.0060   77.6990  220.0690 C   0  0  0  0  0  0  0  0  0  0  0  0
  139.7140   78.2380  220.6470 C   0  0  1  0  0  0  0  0  0  0  0  0
  138.6470   77.1540  220.4960 C   0  0  0  0  0  0  0  0  0  0  0  0
  140.3150   78.1490  221.9970 C   0  0  2  0  0  0  0  0  0  0  0  0
  140.9610   79.3080  222.5980 C   0  0  0  0  0  0  0  0  0  0  0  0
  142.2140   79.1180  223.1830 C   0  0  0  0  0  0  0  0  0  0  0  0
  142.9040   80.1470  223.7890 C   0  0  0  0  0  0  0  0  0  0  0  0
  142.3710   81.4260  223.8410 C   0  0  0  0  0  0  0  0  0  0  0  0
  141.1340   81.6360  223.2680 C   0  0  0  0  0  0  0  0  0  0  0  0
  140.4580   80.5830  222.6620 C   0  0  0  0  0  0  0  0  0  0  0  0
  139.7620   71.5110  223.8950 C   0  0  0  0  0  0  0  0  0  0  0  0
  139.2310   70.2410  223.8080 C   0  0  0  0  0  0  0  0  0  0  0  0
  139.2750   69.3260  224.8370 C   0  0  0  0  0  0  0  0  0  0  0  0
  139.8860   69.7150  226.0130 C   0  0  0  0  0  0  0  0  0  0  0  0
  139.9300   68.8070  227.0330 C   0  0  0  0  0  0  0  0  0  0  0  0
  140.5300   69.1450  228.2310 C   0  0  0  0  0  0  0  0  0  0  0  0
  141.0720   70.4150  228.3460 C   0  0  0  0  0  0  0  0  0  0  0  0
  141.0190   71.3240  227.2990 C   0  0  0  0  0  0  0  0  0  0  0  0
  140.4150   70.9880  226.0880 C   0  0  0  0  0  0  0  0  0  0  0  0
  140.3490   71.8500  225.0570 N   0  0  0  0  0  0  0  0  0  0  0  0
  137.6060   72.1460  222.4830 H   0  0  0  0  0  0  0  0  0  0  0  0
  139.2807   73.4998  220.4093 H   0  0  0  0  0  0  0  0  0  0  0  0
  137.4898   73.3108  220.3843 H   0  0  0  0  0  0  0  0  0  0  0  0
  140.6538   75.2904  222.4454 H   0  0  0  0  0  0  0  0  0  0  0  0
  141.0015   75.0657  220.7048 H   0  0  0  0  0  0  0  0  0  0  0  0
  142.2792   76.9087  221.8273 H   0  0  0  0  0  0  0  0  0  0  0  0
  141.7302   78.4693  219.7654 H   0  0  0  0  0  0  0  0  0  0  0  0
  141.0239   77.1016  219.1456 H   0  0  0  0  0  0  0  0  0  0  0  0
  139.2498   79.1691  220.2899 H   0  0  0  0  0  0  0  0  0  0  0  0
  137.7116   77.4749  220.9776 H   0  0  0  0  0  0  0  0  0  0  0  0
  138.4310   76.9606  219.4349 H   0  0  0  0  0  0  0  0  0  0  0  0
  139.6601   77.9851  222.8655 H   0  0  0  0  0  0  0  0  0  0  0  0
  142.6657   78.1153  223.1599 H   0  0  0  0  0  0  0  0  0  0  0  0
  143.8894   79.9506  224.2366 H   0  0  0  0  0  0  0  0  0  0  0  0
  142.9182   82.2485  224.3247 H   0  0  0  0  0  0  0  0  0  0  0  0
  140.6815   82.6384  223.2905 H   0  0  0  0  0  0  0  0  0  0  0  0
  139.4737   80.7813  222.2128 H   0  0  0  0  0  0  0  0  0  0  0  0
  138.7465   69.9428  222.8666 H   0  0  0  0  0  0  0  0  0  0  0  0
  138.8393   68.3221  224.7260 H   0  0  0  0  0  0  0  0  0  0  0  0
  139.4884   67.8083  226.9007 H   0  0  0  0  0  0  0  0  0  0  0  0
  140.5758   68.4298  229.0655 H   0  0  0  0  0  0  0  0  0  0  0  0
  141.5555   70.7094  229.2891 H   0  0  0  0  0  0  0  0  0  0  0  0
  141.4597   72.3238  227.4261 H   0  0  0  0  0  0  0  0  0  0  0  0
  1  2  2  0
  2  3  1  0
  3  4  1  0
  4  5  1  0
  5  6  2  0
  5  7  1  0
  7  8  1  0
  8  9  1  0
  9 10  1  0
 10 11  1  0
 11 12  1  0
 11 13  1  0
 13 14  1  0
 14 15  2  0
 15 16  1  0
 16 17  2  0
 17 18  1  0
 18 19  2  0
  2 20  1  0
 20 21  2  0
 21 22  1  0
 22 23  2  0
 23 24  1  0
 24 25  2  0
 25 26  1  0
 26 27  2  0
 27 28  1  0
 28 29  2  0
 12  7  1  0
 19 14  1  0
 29 20  1  0
 13  9  1  0
 28 23  1  0
  3 30  1  0
  4 31  1  0
  4 32  1  0
  8 33  1  0
  8 34  1  0
  9 35  1  1
 10 36  1  0
 10 37  1  0
 11 38  1  6
 12 39  1  0
 12 40  1  0
 13 41  1  1
 15 42  1  0
 16 43  1  0
 17 44  1  0
 18 45  1  0
 19 46  1  0
 21 47  1  0
 22 48  1  0
 24 49  1  0
 25 50  1  0
 26 51  1  0
 27 52  1  0
M  END
>  <smiles>  (35) 
O=C(NCC(=O)N1C[C@H]2C[C@@H](C1)C2c1ccccc1)c1ccc2ccccc2n1

>  <score_type>  (35) 
oracle

>  <origin>  (35) 
autodockgpu

>  <m_score__min__energy>  (35) 
-9.5

>  <m_primary>  (35) 
energy

>  <rmsd>  (35) 
2.174248545513679

>  <m_score__min__rmsd>  (35) 
2.174248545513679

>  <meeko>  (35) 
{"free_energy": -8.94, "intermolecular_energy": -10.43, "internal_energy": -1.32, "cluster_size": 36, "cluster_id": 1, "rank_in_cluster": 31}

>  <energy>  (35) 
-8.72

>  <cluster_rmsd>  (35) 
1.02

>  <cluster>  (35) 
1

$$$$

     RDKit          3D

 52 56  0  0  1  0  0  0  0  0999 V2000
  139.1990   70.7400  221.3870 O   0  0  0  0  0  0  0  0  0  0  0  0
  139.3950   71.4750  222.4050 C   0  0  0  0  0  0  0  0  0  0  0  0
  139.3880   72.8850  222.3450 N   0  0  0  0  0  0  0  0  0  0  0  0
  139.1460   73.5390  221.0760 C   0  0  0  0  0  0  0  0  0  0  0  0
  138.6290   74.9120  221.3000 C   0  0  0  0  0  0  0  0  0  0  0  0
  137.4730   75.0070  221.7900 O   0  0  0  0  0  0  0  0  0  0  0  0
  139.4280   76.0450  220.9650 N   0  0  0  0  0  0  0  0  0  0  0  0
  140.8710   75.9280  220.9940 C   0  0  0  0  0  0  0  0  0  0  0  0
  141.4660   77.3230  221.0710 C   0  0  1  0  0  0  0  0  0  0  0  0
  140.9160   78.1010  219.8980 C   0  0  0  0  0  0  0  0  0  0  0  0
  139.7120   78.4130  220.7610 C   0  0  1  0  0  0  0  0  0  0  0  0
  138.7200   77.2590  220.6130 C   0  0  0  0  0  0  0  0  0  0  0  0
  140.5500   78.1880  221.9610 C   0  0  2  0  0  0  0  0  0  0  0  0
  141.2010   79.3060  222.6280 C   0  0  0  0  0  0  0  0  0  0  0  0
  140.8740   80.5940  222.1980 C   0  0  0  0  0  0  0  0  0  0  0  0
  141.4450   81.7190  222.7550 C   0  0  0  0  0  0  0  0  0  0  0  0
  142.3760   81.6130  223.7770 C   0  0  0  0  0  0  0  0  0  0  0  0
  142.7120   80.3500  224.2180 C   0  0  0  0  0  0  0  0  0  0  0  0
  142.1240   79.2300  223.6410 C   0  0  0  0  0  0  0  0  0  0  0  0
  139.6400   70.8080  223.6970 C   0  0  0  0  0  0  0  0  0  0  0  0
  139.3510   69.4700  223.8690 C   0  0  0  0  0  0  0  0  0  0  0  0
  139.5570   68.7920  225.0500 C   0  0  0  0  0  0  0  0  0  0  0  0
  140.0810   69.5040  226.1120 C   0  0  0  0  0  0  0  0  0  0  0  0
  140.2850   68.8320  227.2840 C   0  0  0  0  0  0  0  0  0  0  0  0
  140.8070   69.4960  228.3780 C   0  0  0  0  0  0  0  0  0  0  0  0
  141.1060   70.8400  228.2330 C   0  0  0  0  0  0  0  0  0  0  0  0
  140.8920   71.5080  227.0350 C   0  0  0  0  0  0  0  0  0  0  0  0
  140.3660   70.8410  225.9290 C   0  0  0  0  0  0  0  0  0  0  0  0
  140.1480   71.4630  224.7560 N   0  0  0  0  0  0  0  0  0  0  0  0
  139.5570   73.4180  223.2220 H   0  0  0  0  0  0  0  0  0  0  0  0
  140.0871   73.5927  220.5091 H   0  0  0  0  0  0  0  0  0  0  0  0
  138.4003   72.9615  220.5099 H   0  0  0  0  0  0  0  0  0  0  0  0
  141.1783   75.3444  221.8743 H   0  0  0  0  0  0  0  0  0  0  0  0
  141.2260   75.4163  220.0873 H   0  0  0  0  0  0  0  0  0  0  0  0
  142.5406   77.1980  221.2700 H   0  0  0  0  0  0  0  0  0  0  0  0
  141.5131   78.9781  219.6078 H   0  0  0  0  0  0  0  0  0  0  0  0
  140.8133   77.6504  218.8998 H   0  0  0  0  0  0  0  0  0  0  0  0
  139.1224   79.3340  220.6422 H   0  0  0  0  0  0  0  0  0  0  0  0
  137.8646   77.4070  221.2886 H   0  0  0  0  0  0  0  0  0  0  0  0
  138.3322   77.2037  219.5851 H   0  0  0  0  0  0  0  0  0  0  0  0
  140.0764   77.8299  222.8870 H   0  0  0  0  0  0  0  0  0  0  0  0
  140.1378   80.7149  221.3896 H   0  0  0  0  0  0  0  0  0  0  0  0
  141.1580   82.7138  222.3835 H   0  0  0  0  0  0  0  0  0  0  0  0
  142.8328   82.5090  224.2226 H   0  0  0  0  0  0  0  0  0  0  0  0
  143.4466   80.2286  225.0277 H   0  0  0  0  0  0  0  0  0  0  0  0
  142.4121   78.2361  224.0140 H   0  0  0  0  0  0  0  0  0  0  0  0
  138.9333   68.9144  223.0165 H   0  0  0  0  0  0  0  0  0  0  0  0
  139.3135   67.7235  225.1443 H   0  0  0  0  0  0  0  0  0  0  0  0
  140.0340   67.7635  227.3568 H   0  0  0  0  0  0  0  0  0  0  0  0
  140.9790   68.9745  229.3312 H   0  0  0  0  0  0  0  0  0  0  0  0
  141.5234   71.3921  229.0880 H   0  0  0  0  0  0  0  0  0  0  0  0
  141.1404   72.5768  226.9572 H   0  0  0  0  0  0  0  0  0  0  0  0
  1  2  2  0
  2  3  1  0
  3  4  1  0
  4  5  1  0
  5  6  2  0
  5  7  1  0
  7  8  1  0
  8  9  1  0
  9 10  1  0
 10 11  1  0
 11 12  1  0
 11 13  1  0
 13 14  1  0
 14 15  2  0
 15 16  1  0
 16 17  2  0
 17 18  1  0
 18 19  2  0
  2 20  1  0
 20 21  2  0
 21 22  1  0
 22 23  2  0
 23 24  1  0
 24 25  2  0
 25 26  1  0
 26 27  2  0
 27 28  1  0
 28 29  2  0
 12  7  1  0
 19 14  1  0
 29 20  1  0
 13  9  1  0
 28 23  1  0
  3 30  1  0
  4 31  1  0
  4 32  1  0
  8 33  1  0
  8 34  1  0
  9 35  1  1
 10 36  1  0
 10 37  1  0
 11 38  1  1
 12 39  1  0
 12 40  1  0
 13 41  1  1
 15 42  1  0
 16 43  1  0
 17 44  1  0
 18 45  1  0
 19 46  1  0
 21 47  1  0
 22 48  1  0
 24 49  1  0
 25 50  1  0
 26 51  1  0
 27 52  1  0
M  END
>  <smiles>  (36) 
O=C(NCC(=O)N1C[C@H]2C[C@@H](C1)C2c1ccccc1)c1ccc2ccccc2n1

>  <score_type>  (36) 
oracle

>  <origin>  (36) 
autodockgpu

>  <m_score__min__energy>  (36) 
-9.5

>  <m_primary>  (36) 
energy

>  <rmsd>  (36) 
2.090407754893783

>  <m_score__min__rmsd>  (36) 
2.090407754893783

>  <meeko>  (36) 
{"free_energy": -8.89, "intermolecular_energy": -10.38, "internal_energy": -1.42, "cluster_size": 36, "cluster_id": 1, "rank_in_cluster": 33}

>  <energy>  (36) 
-8.62

>  <cluster_rmsd>  (36) 
1.72

>  <cluster>  (36) 
1

$$$$

     RDKit          3D

 52 56  0  0  1  0  0  0  0  0999 V2000
  140.8340   72.9870  222.3870 O   0  0  0  0  0  0  0  0  0  0  0  0
  139.7690   72.4100  222.7760 C   0  0  0  0  0  0  0  0  0  0  0  0
  138.5070   72.6580  222.1960 N   0  0  0  0  0  0  0  0  0  0  0  0
  138.4020   73.6070  221.1060 C   0  0  0  0  0  0  0  0  0  0  0  0
  138.2580   74.9840  221.6420 C   0  0  0  0  0  0  0  0  0  0  0  0
  137.3140   75.1790  222.4530 O   0  0  0  0  0  0  0  0  0  0  0  0
  139.1610   76.0110  221.2370 N   0  0  0  0  0  0  0  0  0  0  0  0
  140.5860   75.7530  221.2620 C   0  0  0  0  0  0  0  0  0  0  0  0
  141.3160   77.0840  221.2550 C   0  0  1  0  0  0  0  0  0  0  0  0
  140.8310   77.8460  220.0430 C   0  0  0  0  0  0  0  0  0  0  0  0
  139.6740   78.3240  220.8960 C   0  0  1  0  0  0  0  0  0  0  0  0
  138.5720   77.2680  220.8210 C   0  0  0  0  0  0  0  0  0  0  0  0
  140.5010   78.0840  222.1000 C   0  0  2  0  0  0  0  0  0  0  0  0
  141.2690   79.1680  222.6980 C   0  0  0  0  0  0  0  0  0  0  0  0
  140.5560   80.2210  223.2750 C   0  0  0  0  0  0  0  0  0  0  0  0
  141.1880   81.3020  223.8560 C   0  0  0  0  0  0  0  0  0  0  0  0
  142.5720   81.3830  223.8890 C   0  0  0  0  0  0  0  0  0  0  0  0
  143.2950   80.3520  223.3260 C   0  0  0  0  0  0  0  0  0  0  0  0
  142.6360   79.2730  222.7460 C   0  0  0  0  0  0  0  0  0  0  0  0
  139.8780   71.4440  223.8840 C   0  0  0  0  0  0  0  0  0  0  0  0
  139.4190   70.1500  223.7420 C   0  0  0  0  0  0  0  0  0  0  0  0
  139.4920   69.2030  224.7410 C   0  0  0  0  0  0  0  0  0  0  0  0
  140.0560   69.5840  225.9430 C   0  0  0  0  0  0  0  0  0  0  0  0
  140.1280   68.6450  226.9320 C   0  0  0  0  0  0  0  0  0  0  0  0
  140.6830   68.9730  228.1550 C   0  0  0  0  0  0  0  0  0  0  0  0
  141.1520   70.2650  228.3240 C   0  0  0  0  0  0  0  0  0  0  0  0
  141.0700   71.2070  227.3080 C   0  0  0  0  0  0  0  0  0  0  0  0
  140.5110   70.8800  226.0730 C   0  0  0  0  0  0  0  0  0  0  0  0
  140.4200   71.7730  225.0700 N   0  0  0  0  0  0  0  0  0  0  0  0
  137.6820   72.1480  222.5700 H   0  0  0  0  0  0  0  0  0  0  0  0
  139.3087   73.5508  220.4857 H   0  0  0  0  0  0  0  0  0  0  0  0
  137.5180   73.3622  220.4988 H   0  0  0  0  0  0  0  0  0  0  0  0
  140.8457   75.1920  222.1718 H   0  0  0  0  0  0  0  0  0  0  0  0
  140.8771   75.1585  220.3835 H   0  0  0  0  0  0  0  0  0  0  0  0
  142.3754   76.8644  221.4535 H   0  0  0  0  0  0  0  0  0  0  0  0
  141.5081   78.6419  219.6992 H   0  0  0  0  0  0  0  0  0  0  0  0
  140.6718   77.3528  219.0727 H   0  0  0  0  0  0  0  0  0  0  0  0
  139.1765   79.2909  220.7295 H   0  0  0  0  0  0  0  0  0  0  0  0
  137.7438   77.5378  221.4928 H   0  0  0  0  0  0  0  0  0  0  0  0
  138.1682   77.1937  219.8005 H   0  0  0  0  0  0  0  0  0  0  0  0
  140.0056   77.8270  223.0479 H   0  0  0  0  0  0  0  0  0  0  0  0
  139.4565   80.1880  223.2662 H   0  0  0  0  0  0  0  0  0  0  0  0
  140.5861   82.1095  224.2985 H   0  0  0  0  0  0  0  0  0  0  0  0
  143.0782   82.2438  224.3504 H   0  0  0  0  0  0  0  0  0  0  0  0
  144.3945   80.3831  223.3357 H   0  0  0  0  0  0  0  0  0  0  0  0
  143.2394   78.4659  222.3050 H   0  0  0  0  0  0  0  0  0  0  0  0
  138.9711   69.8590  222.7804 H   0  0  0  0  0  0  0  0  0  0  0  0
  139.1149   68.1813  224.5866 H   0  0  0  0  0  0  0  0  0  0  0  0
  139.7449   67.6290  226.7558 H   0  0  0  0  0  0  0  0  0  0  0  0
  140.7498   68.2330  228.9661 H   0  0  0  0  0  0  0  0  0  0  0  0
  141.6003   70.5516  229.2867 H   0  0  0  0  0  0  0  0  0  0  0  0
  141.4509   72.2247  227.4792 H   0  0  0  0  0  0  0  0  0  0  0  0
  1  2  2  0
  2  3  1  0
  3  4  1  0
  4  5  1  0
  5  6  2  0
  5  7  1  0
  7  8  1  0
  8  9  1  0
  9 10  1  0
 10 11  1  0
 11 12  1  0
 11 13  1  0
 13 14  1  0
 14 15  2  0
 15 16  1  0
 16 17  2  0
 17 18  1  0
 18 19  2  0
  2 20  1  0
 20 21  2  0
 21 22  1  0
 22 23  2  0
 23 24  1  0
 24 25  2  0
 25 26  1  0
 26 27  2  0
 27 28  1  0
 28 29  2  0
 12  7  1  0
 19 14  1  0
 29 20  1  0
 13  9  1  0
 28 23  1  0
  3 30  1  0
  4 31  1  0
  4 32  1  0
  8 33  1  0
  8 34  1  0
  9 35  1  1
 10 36  1  0
 10 37  1  0
 11 38  1  6
 12 39  1  0
 12 40  1  0
 13 41  1  1
 15 42  1  0
 16 43  1  0
 17 44  1  0
 18 45  1  0
 19 46  1  0
 21 47  1  0
 22 48  1  0
 24 49  1  0
 25 50  1  0
 26 51  1  0
 27 52  1  0
M  END
>  <smiles>  (37) 
O=C(NCC(=O)N1C[C@H]2C[C@@H](C1)C2c1ccccc1)c1ccc2ccccc2n1

>  <score_type>  (37) 
oracle

>  <origin>  (37) 
autodockgpu

>  <m_score__min__energy>  (37) 
-9.5

>  <m_primary>  (37) 
energy

>  <rmsd>  (37) 
2.2353733478559668

>  <m_score__min__rmsd>  (37) 
2.2353733478559668

>  <meeko>  (37) 
{"free_energy": -9.14, "intermolecular_energy": -10.63, "internal_energy": -1.34, "cluster_size": 36, "cluster_id": 1, "rank_in_cluster": 13}

>  <energy>  (37) 
-9.33

>  <cluster_rmsd>  (37) 
0.0

>  <cluster>  (37) 
2

$$$$

     RDKit          3D

 52 56  0  0  1  0  0  0  0  0999 V2000
  140.3140   74.6830  222.0490 O   0  0  0  0  0  0  0  0  0  0  0  0
  139.3990   75.5630  221.9720 C   0  0  0  0  0  0  0  0  0  0  0  0
  138.0940   75.2750  221.5170 N   0  0  0  0  0  0  0  0  0  0  0  0
  137.7660   73.9220  221.1200 C   0  0  0  0  0  0  0  0  0  0  0  0
  137.2960   73.1450  222.2940 C   0  0  0  0  0  0  0  0  0  0  0  0
  136.2760   73.5850  222.8900 O   0  0  0  0  0  0  0  0  0  0  0  0
  137.9880   71.9670  222.7010 N   0  0  0  0  0  0  0  0  0  0  0  0
  137.2350   70.8510  223.2340 C   0  0  0  0  0  0  0  0  0  0  0  0
  138.1850   69.9540  224.0060 C   0  0  1  0  0  0  0  0  0  0  0  0
  139.2980   69.5720  223.0580 C   0  0  0  0  0  0  0  0  0  0  0  0
  139.9780   70.8670  223.4490 C   0  0  1  0  0  0  0  0  0  0  0  0
  139.4290   71.9720  222.5470 C   0  0  0  0  0  0  0  0  0  0  0  0
  139.2190   70.8490  224.7190 C   0  0  2  0  0  0  0  0  0  0  0  0
  139.8090   70.2840  225.9250 C   0  0  0  0  0  0  0  0  0  0  0  0
  140.4580   71.1600  226.7970 C   0  0  0  0  0  0  0  0  0  0  0  0
  141.0600   70.7250  227.9590 C   0  0  0  0  0  0  0  0  0  0  0  0
  141.0430   69.3830  228.3100 C   0  0  0  0  0  0  0  0  0  0  0  0
  140.4050   68.5010  227.4630 C   0  0  0  0  0  0  0  0  0  0  0  0
  139.8050   68.9630  226.2970 C   0  0  0  0  0  0  0  0  0  0  0  0
  139.7350   76.9400  222.3780 C   0  0  0  0  0  0  0  0  0  0  0  0
  138.7450   77.8390  222.7180 C   0  0  0  0  0  0  0  0  0  0  0  0
  138.9960   79.1380  223.1040 C   0  0  0  0  0  0  0  0  0  0  0  0
  140.3140   79.5480  223.1490 C   0  0  0  0  0  0  0  0  0  0  0  0
  140.5630   80.8350  223.5320 C   0  0  0  0  0  0  0  0  0  0  0  0
  141.8640   81.2970  223.5940 C   0  0  0  0  0  0  0  0  0  0  0  0
  142.8780   80.4150  223.2580 C   0  0  0  0  0  0  0  0  0  0  0  0
  142.6070   79.1100  222.8710 C   0  0  0  0  0  0  0  0  0  0  0  0
  141.2960   78.6400  222.8070 C   0  0  0  0  0  0  0  0  0  0  0  0
  141.0050   77.3800  222.4350 N   0  0  0  0  0  0  0  0  0  0  0  0
  137.4010   76.0490  221.4820 H   0  0  0  0  0  0  0  0  0  0  0  0
  136.9715   73.9485  220.3597 H   0  0  0  0  0  0  0  0  0  0  0  0
  138.6645   73.4407  220.7063 H   0  0  0  0  0  0  0  0  0  0  0  0
  136.4469   71.2221  223.9056 H   0  0  0  0  0  0  0  0  0  0  0  0
  136.7663   70.2868  222.4143 H   0  0  0  0  0  0  0  0  0  0  0  0
  137.5630   69.2224  224.5426 H   0  0  0  0  0  0  0  0  0  0  0  0
  139.8479   68.6614  223.3380 H   0  0  0  0  0  0  0  0  0  0  0  0
  139.1021   69.3136  222.0069 H   0  0  0  0  0  0  0  0  0  0  0  0
  141.0714   70.9866  223.4408 H   0  0  0  0  0  0  0  0  0  0  0  0
  139.8382   72.9466  222.8516 H   0  0  0  0  0  0  0  0  0  0  0  0
  139.7126   71.8001  221.4982 H   0  0  0  0  0  0  0  0  0  0  0  0
  138.9722   71.8019  225.2101 H   0  0  0  0  0  0  0  0  0  0  0  0
  140.4902   72.2313  226.5494 H   0  0  0  0  0  0  0  0  0  0  0  0
  141.5602   71.4516  228.6161 H   0  0  0  0  0  0  0  0  0  0  0  0
  141.5236   69.0330  229.2355 H   0  0  0  0  0  0  0  0  0  0  0  0
  140.3708   67.4298  227.7105 H   0  0  0  0  0  0  0  0  0  0  0  0
  139.3035   68.2355  225.6418 H   0  0  0  0  0  0  0  0  0  0  0  0
  137.6991   77.5007  222.6789 H   0  0  0  0  0  0  0  0  0  0  0  0
  138.1765   79.8232  223.3666 H   0  0  0  0  0  0  0  0  0  0  0  0
  139.7286   81.5034  223.7910 H   0  0  0  0  0  0  0  0  0  0  0  0
  142.0868   82.3299  223.8997 H   0  0  0  0  0  0  0  0  0  0  0  0
  143.9227   80.7570  223.2989 H   0  0  0  0  0  0  0  0  0  0  0  0
  143.4378   78.4375  222.6113 H   0  0  0  0  0  0  0  0  0  0  0  0
  1  2  2  0
  2  3  1  0
  3  4  1  0
  4  5  1  0
  5  6  2  0
  5  7  1  0
  7  8  1  0
  8  9  1  0
  9 10  1  0
 10 11  1  0
 11 12  1  0
 11 13  1  0
 13 14  1  0
 14 15  2  0
 15 16  1  0
 16 17  2  0
 17 18  1  0
 18 19  2  0
  2 20  1  0
 20 21  2  0
 21 22  1  0
 22 23  2  0
 23 24  1  0
 24 25  2  0
 25 26  1  0
 26 27  2  0
 27 28  1  0
 28 29  2  0
 12  7  1  0
 19 14  1  0
 29 20  1  0
 13  9  1  0
 28 23  1  0
  3 30  1  0
  4 31  1  0
  4 32  1  0
  8 33  1  0
  8 34  1  0
  9 35  1  1
 10 36  1  0
 10 37  1  0
 11 38  1  1
 12 39  1  0
 12 40  1  0
 13 41  1  1
 15 42  1  0
 16 43  1  0
 17 44  1  0
 18 45  1  0
 19 46  1  0
 21 47  1  0
 22 48  1  0
 24 49  1  0
 25 50  1  0
 26 51  1  0
 27 52  1  0
M  END
>  <smiles>  (38) 
O=C(NCC(=O)N1C[C@H]2C[C@@H](C1)C2c1ccccc1)c1ccc2ccccc2n1

>  <score_type>  (38) 
oracle

>  <origin>  (38) 
autodockgpu

>  <m_score__min__energy>  (38) 
-9.5

>  <m_primary>  (38) 
energy

>  <rmsd>  (38) 
8.19639559086912

>  <m_score__min__rmsd>  (38) 
8.19639559086912

>  <meeko>  (38) 
{"free_energy": -9.3, "intermolecular_energy": -10.79, "internal_energy": -1.33, "cluster_size": 10, "cluster_id": 2, "rank_in_cluster": 3}

>  <energy>  (38) 
-9.31

>  <cluster_rmsd>  (38) 
0.29

>  <cluster>  (38) 
2

$$$$

     RDKit          3D

 52 56  0  0  1  0  0  0  0  0999 V2000
  140.9380   72.7490  222.4660 O   0  0  0  0  0  0  0  0  0  0  0  0
  139.9370   72.2790  223.0930 C   0  0  0  0  0  0  0  0  0  0  0  0
  138.6030   72.5310  222.7080 N   0  0  0  0  0  0  0  0  0  0  0  0
  138.3450   73.3580  221.5470 C   0  0  0  0  0  0  0  0  0  0  0  0
  138.1390   74.7680  221.9620 C   0  0  0  0  0  0  0  0  0  0  0  0
  137.1590   74.9960  222.7210 O   0  0  0  0  0  0  0  0  0  0  0  0
  139.0230   75.7900  221.5060 N   0  0  0  0  0  0  0  0  0  0  0  0
  140.4510   75.5520  221.5270 C   0  0  0  0  0  0  0  0  0  0  0  0
  141.1630   76.8910  221.4570 C   0  0  1  0  0  0  0  0  0  0  0  0
  140.6560   77.5950  220.2190 C   0  0  0  0  0  0  0  0  0  0  0  0
  139.5010   78.0930  221.0620 C   0  0  1  0  0  0  0  0  0  0  0  0
  138.4130   77.0190  221.0430 C   0  0  0  0  0  0  0  0  0  0  0  0
  140.3430   77.9150  222.2670 C   0  0  2  0  0  0  0  0  0  0  0  0
  141.1010   79.0330  222.8110 C   0  0  0  0  0  0  0  0  0  0  0  0
  140.3790   80.1140  223.3220 C   0  0  0  0  0  0  0  0  0  0  0  0
  141.0010   81.2270  223.8480 C   0  0  0  0  0  0  0  0  0  0  0  0
  142.3850   81.3160  223.8890 C   0  0  0  0  0  0  0  0  0  0  0  0
  143.1170   80.2580  223.3910 C   0  0  0  0  0  0  0  0  0  0  0  0
  142.4670   79.1460  222.8650 C   0  0  0  0  0  0  0  0  0  0  0  0
  140.2010   71.4360  224.2740 C   0  0  0  0  0  0  0  0  0  0  0  0
  141.0490   71.8650  225.2740 C   0  0  0  0  0  0  0  0  0  0  0  0
  141.3360   71.1230  226.4000 C   0  0  0  0  0  0  0  0  0  0  0  0
  140.7340   69.8860  226.5200 C   0  0  0  0  0  0  0  0  0  0  0  0
  141.0170   69.1510  227.6360 C   0  0  0  0  0  0  0  0  0  0  0  0
  140.4430   67.9060  227.8060 C   0  0  0  0  0  0  0  0  0  0  0  0
  139.5860   67.4510  226.8170 C   0  0  0  0  0  0  0  0  0  0  0  0
  139.3090   68.2110  225.6890 C   0  0  0  0  0  0  0  0  0  0  0  0
  139.8870   69.4670  225.5140 C   0  0  0  0  0  0  0  0  0  0  0  0
  139.6360   70.2260  224.4300 N   0  0  0  0  0  0  0  0  0  0  0  0
  137.8380   72.1120  223.2730 H   0  0  0  0  0  0  0  0  0  0  0  0
  139.2039   73.3019  220.8620 H   0  0  0  0  0  0  0  0  0  0  0  0
  137.4385   72.9953  221.0403 H   0  0  0  0  0  0  0  0  0  0  0  0
  140.7271   75.0330  222.4567 H   0  0  0  0  0  0  0  0  0  0  0  0
  140.7415   74.9252  220.6710 H   0  0  0  0  0  0  0  0  0  0  0  0
  142.2270   76.6936  221.6541 H   0  0  0  0  0  0  0  0  0  0  0  0
  141.3189   78.3846  219.8354 H   0  0  0  0  0  0  0  0  0  0  0  0
  140.4944   77.0592  219.2720 H   0  0  0  0  0  0  0  0  0  0  0  0
  138.9886   79.0451  220.8598 H   0  0  0  0  0  0  0  0  0  0  0  0
  137.5873   77.3059  221.7108 H   0  0  0  0  0  0  0  0  0  0  0  0
  138.0010   76.8956  220.0306 H   0  0  0  0  0  0  0  0  0  0  0  0
  139.8605   77.6918  223.2300 H   0  0  0  0  0  0  0  0  0  0  0  0
  139.2798   80.0765  223.3044 H   0  0  0  0  0  0  0  0  0  0  0  0
  140.3919   82.0548  224.2401 H   0  0  0  0  0  0  0  0  0  0  0  0
  142.8836   82.2034  224.3060 H   0  0  0  0  0  0  0  0  0  0  0  0
  144.2163   80.2936  223.4098 H   0  0  0  0  0  0  0  0  0  0  0  0
  143.0772   78.3185  222.4740 H   0  0  0  0  0  0  0  0  0  0  0  0
  141.5217   72.8525  225.1672 H   0  0  0  0  0  0  0  0  0  0  0  0
  142.0192   71.5023  227.1741 H   0  0  0  0  0  0  0  0  0  0  0  0
  141.7016   69.5502  228.3989 H   0  0  0  0  0  0  0  0  0  0  0  0
  140.6589   67.2968  228.6961 H   0  0  0  0  0  0  0  0  0  0  0  0
  139.1138   66.4638  226.9284 H   0  0  0  0  0  0  0  0  0  0  0  0
  138.6245   67.8169  224.9234 H   0  0  0  0  0  0  0  0  0  0  0  0
  1  2  2  0
  2  3  1  0
  3  4  1  0
  4  5  1  0
  5  6  2  0
  5  7  1  0
  7  8  1  0
  8  9  1  0
  9 10  1  0
 10 11  1  0
 11 12  1  0
 11 13  1  0
 13 14  1  0
 14 15  2  0
 15 16  1  0
 16 17  2  0
 17 18  1  0
 18 19  2  0
  2 20  1  0
 20 21  2  0
 21 22  1  0
 22 23  2  0
 23 24  1  0
 24 25  2  0
 25 26  1  0
 26 27  2  0
 27 28  1  0
 28 29  2  0
 12  7  1  0
 19 14  1  0
 29 20  1  0
 13  9  1  0
 28 23  1  0
  3 30  1  0
  4 31  1  0
  4 32  1  0
  8 33  1  0
  8 34  1  0
  9 35  1  1
 10 36  1  0
 10 37  1  0
 11 38  1  6
 12 39  1  0
 12 40  1  0
 13 41  1  1
 15 42  1  0
 16 43  1  0
 17 44  1  0
 18 45  1  0
 19 46  1  0
 21 47  1  0
 22 48  1  0
 24 49  1  0
 25 50  1  0
 26 51  1  0
 27 52  1  0
M  END
>  <smiles>  (39) 
O=C(NCC(=O)N1C[C@H]2C[C@@H](C1)C2c1ccccc1)c1ccc2ccccc2n1

>  <score_type>  (39) 
oracle

>  <origin>  (39) 
autodockgpu

>  <m_score__min__energy>  (39) 
-9.5

>  <m_primary>  (39) 
energy

>  <rmsd>  (39) 
3.207485806581355

>  <m_score__min__rmsd>  (39) 
3.207485806581355

>  <meeko>  (39) 
{"free_energy": -9.11, "intermolecular_energy": -10.6, "internal_energy": -1.46, "cluster_size": 36, "cluster_id": 1, "rank_in_cluster": 18}

>  <energy>  (39) 
-9.3

>  <cluster_rmsd>  (39) 
0.2

>  <cluster>  (39) 
2

$$$$

     RDKit          3D

 52 56  0  0  1  0  0  0  0  0999 V2000
  139.2610   70.5770  221.5080 O   0  0  0  0  0  0  0  0  0  0  0  0
  139.4510   71.2400  222.5760 C   0  0  0  0  0  0  0  0  0  0  0  0
  139.5200   72.6500  222.6020 N   0  0  0  0  0  0  0  0  0  0  0  0
  139.3690   73.3880  221.3650 C   0  0  0  0  0  0  0  0  0  0  0  0
  138.7630   74.7160  221.6360 C   0  0  0  0  0  0  0  0  0  0  0  0
  137.6500   74.7190  222.2260 O   0  0  0  0  0  0  0  0  0  0  0  0
  139.4350   75.9090  221.2350 N   0  0  0  0  0  0  0  0  0  0  0  0
  140.8570   75.8660  220.9690 C   0  0  0  0  0  0  0  0  0  0  0  0
  141.4010   77.2810  221.0300 C   0  0  1  0  0  0  0  0  0  0  0  0
  140.5980   78.1040  220.0490 C   0  0  0  0  0  0  0  0  0  0  0  0
  139.5800   78.2960  221.1540 C   0  0  1  0  0  0  0  0  0  0  0  0
  138.6240   77.1040  221.1190 C   0  0  0  0  0  0  0  0  0  0  0  0
  140.6500   78.0380  222.1440 C   0  0  2  0  0  0  0  0  0  0  0  0
  141.3790   79.1430  222.7500 C   0  0  0  0  0  0  0  0  0  0  0  0
  140.6300   80.1760  223.3190 C   0  0  0  0  0  0  0  0  0  0  0  0
  141.2230   81.2740  223.9070 C   0  0  0  0  0  0  0  0  0  0  0  0
  142.6040   81.3950  223.9550 C   0  0  0  0  0  0  0  0  0  0  0  0
  143.3630   80.3850  223.4010 C   0  0  0  0  0  0  0  0  0  0  0  0
  142.7420   79.2880  222.8140 C   0  0  0  0  0  0  0  0  0  0  0  0
  139.6040   70.4860  223.8350 C   0  0  0  0  0  0  0  0  0  0  0  0
  139.1550   69.1860  223.9400 C   0  0  0  0  0  0  0  0  0  0  0  0
  139.2690   68.4320  225.0870 C   0  0  0  0  0  0  0  0  0  0  0  0
  139.8670   69.0230  226.1830 C   0  0  0  0  0  0  0  0  0  0  0  0
  139.9800   68.2750  227.3210 C   0  0  0  0  0  0  0  0  0  0  0  0
  140.5690   68.8170  228.4470 C   0  0  0  0  0  0  0  0  0  0  0  0
  141.0300   70.1210  228.3690 C   0  0  0  0  0  0  0  0  0  0  0  0
  140.9060   70.8670  227.2050 C   0  0  0  0  0  0  0  0  0  0  0  0
  140.3120   70.3230  226.0670 C   0  0  0  0  0  0  0  0  0  0  0  0
  140.1800   71.0230  224.9250 N   0  0  0  0  0  0  0  0  0  0  0  0
  139.6790   73.1200  223.5150 H   0  0  0  0  0  0  0  0  0  0  0  0
  140.3565   73.5263  220.9006 H   0  0  0  0  0  0  0  0  0  0  0  0
  138.7128   72.8237  220.6860 H   0  0  0  0  0  0  0  0  0  0  0  0
  141.3573   75.2432  221.7252 H   0  0  0  0  0  0  0  0  0  0  0  0
  141.0416   75.4337  219.9745 H   0  0  0  0  0  0  0  0  0  0  0  0
  142.4976   77.1992  221.0036 H   0  0  0  0  0  0  0  0  0  0  0  0
  141.0910   79.0280  219.7126 H   0  0  0  0  0  0  0  0  0  0  0  0
  140.3147   77.7147  219.0600 H   0  0  0  0  0  0  0  0  0  0  0  0
  138.9434   79.1904  221.2233 H   0  0  0  0  0  0  0  0  0  0  0  0
  137.9154   77.1629  221.9583 H   0  0  0  0  0  0  0  0  0  0  0  0
  138.0411   77.0946  220.1862 H   0  0  0  0  0  0  0  0  0  0  0  0
  140.3857   77.5968  223.1164 H   0  0  0  0  0  0  0  0  0  0  0  0
  139.5321   80.1117  223.2974 H   0  0  0  0  0  0  0  0  0  0  0  0
  140.5930   82.0632  224.3431 H   0  0  0  0  0  0  0  0  0  0  0  0
  143.0799   82.2704  224.4210 H   0  0  0  0  0  0  0  0  0  0  0  0
  144.4610   80.4475  223.4236 H   0  0  0  0  0  0  0  0  0  0  0  0
  143.3736   78.4987  222.3802 H   0  0  0  0  0  0  0  0  0  0  0  0
  138.6803   68.7267  223.0604 H   0  0  0  0  0  0  0  0  0  0  0  0
  138.8976   67.3974  225.1287 H   0  0  0  0  0  0  0  0  0  0  0  0
  139.6022   67.2421  227.3405 H   0  0  0  0  0  0  0  0  0  0  0  0
  140.6685   68.2330  229.3739 H   0  0  0  0  0  0  0  0  0  0  0  0
  141.5056   70.5761  229.2503 H   0  0  0  0  0  0  0  0  0  0  0  0
  141.2813   71.9007  227.1801 H   0  0  0  0  0  0  0  0  0  0  0  0
  1  2  2  0
  2  3  1  0
  3  4  1  0
  4  5  1  0
  5  6  2  0
  5  7  1  0
  7  8  1  0
  8  9  1  0
  9 10  1  0
 10 11  1  0
 11 12  1  0
 11 13  1  0
 13 14  1  0
 14 15  2  0
 15 16  1  0
 16 17  2  0
 17 18  1  0
 18 19  2  0
  2 20  1  0
 20 21  2  0
 21 22  1  0
 22 23  2  0
 23 24  1  0
 24 25  2  0
 25 26  1  0
 26 27  2  0
 27 28  1  0
 28 29  2  0
 12  7  1  0
 19 14  1  0
 29 20  1  0
 13  9  1  0
 28 23  1  0
  3 30  1  0
  4 31  1  0
  4 32  1  0
  8 33  1  0
  8 34  1  0
  9 35  1  1
 10 36  1  0
 10 37  1  0
 11 38  1  1
 12 39  1  0
 12 40  1  0
 13 41  1  1
 15 42  1  0
 16 43  1  0
 17 44  1  0
 18 45  1  0
 19 46  1  0
 21 47  1  0
 22 48  1  0
 24 49  1  0
 25 50  1  0
 26 51  1  0
 27 52  1  0
M  END
>  <smiles>  (40) 
O=C(NCC(=O)N1C[C@H]2C[C@@H](C1)C2c1ccccc1)c1ccc2ccccc2n1

>  <score_type>  (40) 
oracle

>  <origin>  (40) 
autodockgpu

>  <m_score__min__energy>  (40) 
-9.5

>  <m_primary>  (40) 
energy

>  <rmsd>  (40) 
2.198583284982268

>  <m_score__min__rmsd>  (40) 
2.198583284982268

>  <meeko>  (40) 
{"free_energy": -9.05, "intermolecular_energy": -10.54, "internal_energy": -1.42, "cluster_size": 36, "cluster_id": 1, "rank_in_cluster": 22}

>  <energy>  (40) 
-9.3

>  <cluster_rmsd>  (40) 
0.29

>  <cluster>  (40) 
2

$$$$

     RDKit          3D

 52 56  0  0  1  0  0  0  0  0999 V2000
  140.3060   70.9550  221.7280 O   0  0  0  0  0  0  0  0  0  0  0  0
  140.0340   71.7050  222.7180 C   0  0  0  0  0  0  0  0  0  0  0  0
  139.5990   73.0400  222.5720 N   0  0  0  0  0  0  0  0  0  0  0  0
  139.4480   73.5940  221.2420 C   0  0  0  0  0  0  0  0  0  0  0  0
  140.6970   74.2820  220.8320 C   0  0  0  0  0  0  0  0  0  0  0  0
  141.7060   73.5520  220.6370 O   0  0  0  0  0  0  0  0  0  0  0  0
  140.7200   75.6990  220.6760 N   0  0  0  0  0  0  0  0  0  0  0  0
  141.9080   76.3340  220.1440 C   0  0  0  0  0  0  0  0  0  0  0  0
  141.8720   77.8070  220.5100 C   0  0  1  0  0  0  0  0  0  0  0  0
  140.5670   78.3590  219.9840 C   0  0  0  0  0  0  0  0  0  0  0  0
  139.9270   77.8780  221.2690 C   0  0  1  0  0  0  0  0  0  0  0  0
  139.5250   76.4160  221.0700 C   0  0  0  0  0  0  0  0  0  0  0  0
  141.2550   77.9370  221.9190 C   0  0  2  0  0  0  0  0  0  0  0  0
  141.6590   79.1170  222.6710 C   0  0  0  0  0  0  0  0  0  0  0  0
  140.6500   79.9670  223.1280 C   0  0  0  0  0  0  0  0  0  0  0  0
  140.9260   81.1170  223.8380 C   0  0  0  0  0  0  0  0  0  0  0  0
  142.2340   81.4760  224.1290 C   0  0  0  0  0  0  0  0  0  0  0  0
  143.2460   80.6490  223.6870 C   0  0  0  0  0  0  0  0  0  0  0  0
  142.9430   79.4950  222.9730 C   0  0  0  0  0  0  0  0  0  0  0  0
  140.1870   71.1390  224.0710 C   0  0  0  0  0  0  0  0  0  0  0  0
  140.7190   71.8930  225.0970 C   0  0  0  0  0  0  0  0  0  0  0  0
  140.8880   71.4200  226.3800 C   0  0  0  0  0  0  0  0  0  0  0  0
  140.4990   70.1210  226.6390 C   0  0  0  0  0  0  0  0  0  0  0  0
  140.6660   69.6520  227.9110 C   0  0  0  0  0  0  0  0  0  0  0  0
  140.2930   68.3590  228.2240 C   0  0  0  0  0  0  0  0  0  0  0  0
  139.7550   67.5800  227.2130 C   0  0  0  0  0  0  0  0  0  0  0  0
  139.5930   68.0720  225.9250 C   0  0  0  0  0  0  0  0  0  0  0  0
  139.9670   69.3760  225.6050 C   0  0  0  0  0  0  0  0  0  0  0  0
  139.8210   69.8790  224.3660 N   0  0  0  0  0  0  0  0  0  0  0  0
  139.3970   73.5910  223.4300 H   0  0  0  0  0  0  0  0  0  0  0  0
  139.2298   72.7824  220.5323 H   0  0  0  0  0  0  0  0  0  0  0  0
  138.6215   74.3198  221.2458 H   0  0  0  0  0  0  0  0  0  0  0  0
  142.8044   75.8659  220.5769 H   0  0  0  0  0  0  0  0  0  0  0  0
  141.9398   76.2180  219.0506 H   0  0  0  0  0  0  0  0  0  0  0  0
  142.8579   78.2213  220.2525 H   0  0  0  0  0  0  0  0  0  0  0  0
  140.5528   79.4500  219.8441 H   0  0  0  0  0  0  0  0  0  0  0  0
  140.1724   78.0741  218.9975 H   0  0  0  0  0  0  0  0  0  0  0  0
  139.0521   78.3732  221.7155 H   0  0  0  0  0  0  0  0  0  0  0  0
  139.1281   76.0021  222.0087 H   0  0  0  0  0  0  0  0  0  0  0  0
  138.7414   76.3248  220.3034 H   0  0  0  0  0  0  0  0  0  0  0  0
  141.4747   77.2531  222.7521 H   0  0  0  0  0  0  0  0  0  0  0  0
  139.6015   79.7115  222.9151 H   0  0  0  0  0  0  0  0  0  0  0  0
  140.0986   81.7574  224.1777 H   0  0  0  0  0  0  0  0  0  0  0  0
  142.4575   82.3923  224.6950 H   0  0  0  0  0  0  0  0  0  0  0  0
  144.2949   80.9031  223.8999 H   0  0  0  0  0  0  0  0  0  0  0  0
  143.7713   78.8552  222.6345 H   0  0  0  0  0  0  0  0  0  0  0  0
  141.0245   72.9270  224.8789 H   0  0  0  0  0  0  0  0  0  0  0  0
  141.3174   72.0545  227.1694 H   0  0  0  0  0  0  0  0  0  0  0  0
  141.0971   70.3033  228.6856 H   0  0  0  0  0  0  0  0  0  0  0  0
  140.4191   67.9616  229.2419 H   0  0  0  0  0  0  0  0  0  0  0  0
  139.4489   66.5472  227.4359 H   0  0  0  0  0  0  0  0  0  0  0  0
  139.1637   67.4241  225.1466 H   0  0  0  0  0  0  0  0  0  0  0  0
  1  2  2  0
  2  3  1  0
  3  4  1  0
  4  5  1  0
  5  6  2  0
  5  7  1  0
  7  8  1  0
  8  9  1  0
  9 10  1  0
 10 11  1  0
 11 12  1  0
 11 13  1  0
 13 14  1  0
 14 15  2  0
 15 16  1  0
 16 17  2  0
 17 18  1  0
 18 19  2  0
  2 20  1  0
 20 21  2  0
 21 22  1  0
 22 23  2  0
 23 24  1  0
 24 25  2  0
 25 26  1  0
 26 27  2  0
 27 28  1  0
 28 29  2  0
 12  7  1  0
 19 14  1  0
 29 20  1  0
 13  9  1  0
 28 23  1  0
  3 30  1  0
  4 31  1  0
  4 32  1  0
  8 33  1  0
  8 34  1  0
  9 35  1  1
 10 36  1  0
 10 37  1  0
 11 38  1  1
 12 39  1  0
 12 40  1  0
 13 41  1  1
 15 42  1  0
 16 43  1  0
 17 44  1  0
 18 45  1  0
 19 46  1  0
 21 47  1  0
 22 48  1  0
 24 49  1  0
 25 50  1  0
 26 51  1  0
 27 52  1  0
M  END
>  <smiles>  (41) 
O=C(NCC(=O)N1C[C@H]2C[C@@H](C1)C2c1ccccc1)c1ccc2ccccc2n1

>  <score_type>  (41) 
oracle

>  <origin>  (41) 
autodockgpu

>  <m_score__min__energy>  (41) 
-9.5

>  <m_primary>  (41) 
energy

>  <rmsd>  (41) 
3.033859067941781

>  <m_score__min__rmsd>  (41) 
3.033859067941781

>  <meeko>  (41) 
{"free_energy": -9.44, "intermolecular_energy": -10.93, "internal_energy": -1.17, "cluster_size": 36, "cluster_id": 1, "rank_in_cluster": 4}

>  <energy>  (41) 
-9.3

>  <cluster_rmsd>  (41) 
0.31

>  <cluster>  (41) 
2

$$$$

     RDKit          3D

 52 56  0  0  1  0  0  0  0  0999 V2000
  138.9330   75.3560  221.5570 O   0  0  0  0  0  0  0  0  0  0  0  0
  140.1020   75.7470  221.8690 C   0  0  0  0  0  0  0  0  0  0  0  0
  141.2420   74.9220  221.7570 N   0  0  0  0  0  0  0  0  0  0  0  0
  141.0900   73.5680  221.2630 C   0  0  0  0  0  0  0  0  0  0  0  0
  141.7970   73.4170  219.9670 C   0  0  0  0  0  0  0  0  0  0  0  0
  142.0220   72.2390  219.5800 O   0  0  0  0  0  0  0  0  0  0  0  0
  142.1870   74.5690  219.2210 N   0  0  0  0  0  0  0  0  0  0  0  0
  143.4030   75.2670  219.5820 C   0  0  0  0  0  0  0  0  0  0  0  0
  143.3500   76.6630  218.9890 C   0  0  1  0  0  0  0  0  0  0  0  0
  143.1290   76.5020  217.5020 C   0  0  0  0  0  0  0  0  0  0  0  0
  141.6470   76.4200  217.8040 C   0  0  1  0  0  0  0  0  0  0  0  0
  141.3180   74.9630  218.1320 C   0  0  0  0  0  0  0  0  0  0  0  0
  141.8920   77.1620  219.0610 C   0  0  2  0  0  0  0  0  0  0  0  0
  141.7280   78.6080  219.1110 C   0  0  0  0  0  0  0  0  0  0  0  0
  140.6170   79.1080  219.7920 C   0  0  0  0  0  0  0  0  0  0  0  0
  140.3620   80.4610  219.8860 C   0  0  0  0  0  0  0  0  0  0  0  0
  141.2130   81.3870  219.3010 C   0  0  0  0  0  0  0  0  0  0  0  0
  142.3180   80.9130  218.6240 C   0  0  0  0  0  0  0  0  0  0  0  0
  142.5530   79.5450  218.5420 C   0  0  0  0  0  0  0  0  0  0  0  0
  140.2540   77.1250  222.3700 C   0  0  0  0  0  0  0  0  0  0  0  0
  139.1520   77.8720  222.7330 C   0  0  0  0  0  0  0  0  0  0  0  0
  139.2310   79.1630  223.2070 C   0  0  0  0  0  0  0  0  0  0  0  0
  140.4860   79.7270  223.3190 C   0  0  0  0  0  0  0  0  0  0  0  0
  140.5640   81.0080  223.7900 C   0  0  0  0  0  0  0  0  0  0  0  0
  141.7960   81.6200  223.9210 C   0  0  0  0  0  0  0  0  0  0  0  0
  142.9190   80.8930  223.5650 C   0  0  0  0  0  0  0  0  0  0  0  0
  142.8220   79.5930  223.0890 C   0  0  0  0  0  0  0  0  0  0  0  0
  141.5810   78.9710  222.9540 C   0  0  0  0  0  0  0  0  0  0  0  0
  141.4580   77.7120  222.4950 N   0  0  0  0  0  0  0  0  0  0  0  0
  142.1640   75.3130  222.0330 H   0  0  0  0  0  0  0  0  0  0  0  0
  141.5149   72.8640  221.9937 H   0  0  0  0  0  0  0  0  0  0  0  0
  140.0206   73.3552  221.1173 H   0  0  0  0  0  0  0  0  0  0  0  0
  143.4827   75.3317  220.6772 H   0  0  0  0  0  0  0  0  0  0  0  0
  144.2783   74.7253  219.1941 H   0  0  0  0  0  0  0  0  0  0  0  0
  144.1912   77.2227  219.4239 H   0  0  0  0  0  0  0  0  0  0  0  0
  143.4272   77.3705  216.8964 H   0  0  0  0  0  0  0  0  0  0  0  0
  143.6463   75.7258  216.9190 H   0  0  0  0  0  0  0  0  0  0  0  0
  140.8785   76.7487  217.0889 H   0  0  0  0  0  0  0  0  0  0  0  0
  140.2650   74.8727  218.4370 H   0  0  0  0  0  0  0  0  0  0  0  0
  141.4709   74.3182  217.2540 H   0  0  0  0  0  0  0  0  0  0  0  0
  141.2266   76.9941  219.9207 H   0  0  0  0  0  0  0  0  0  0  0  0
  139.9224   78.4009  220.2691 H   0  0  0  0  0  0  0  0  0  0  0  0
  139.4727   80.8095  220.4317 H   0  0  0  0  0  0  0  0  0  0  0  0
  141.0131   82.4662  219.3745 H   0  0  0  0  0  0  0  0  0  0  0  0
  143.0145   81.6190  218.1481 H   0  0  0  0  0  0  0  0  0  0  0  0
  143.4421   79.1977  217.9953 H   0  0  0  0  0  0  0  0  0  0  0  0
  138.1573   77.4120  222.6388 H   0  0  0  0  0  0  0  0  0  0  0  0
  138.3270   79.7241  223.4861 H   0  0  0  0  0  0  0  0  0  0  0  0
  139.6474   81.5508  224.0643 H   0  0  0  0  0  0  0  0  0  0  0  0
  141.8815   82.6507  224.2957 H   0  0  0  0  0  0  0  0  0  0  0  0
  143.9118   81.3567  223.6617 H   0  0  0  0  0  0  0  0  0  0  0  0
  143.7360   79.0459  222.8146 H   0  0  0  0  0  0  0  0  0  0  0  0
  1  2  2  0
  2  3  1  0
  3  4  1  0
  4  5  1  0
  5  6  2  0
  5  7  1  0
  7  8  1  0
  8  9  1  0
  9 10  1  0
 10 11  1  0
 11 12  1  0
 11 13  1  0
 13 14  1  0
 14 15  2  0
 15 16  1  0
 16 17  2  0
 17 18  1  0
 18 19  2  0
  2 20  1  0
 20 21  2  0
 21 22  1  0
 22 23  2  0
 23 24  1  0
 24 25  2  0
 25 26  1  0
 26 27  2  0
 27 28  1  0
 28 29  2  0
 12  7  1  0
 19 14  1  0
 29 20  1  0
 13  9  1  0
 28 23  1  0
  3 30  1  0
  4 31  1  0
  4 32  1  0
  8 33  1  0
  8 34  1  0
  9 35  1  6
 10 36  1  0
 10 37  1  0
 11 38  1  6
 12 39  1  0
 12 40  1  0
 13 41  1  1
 15 42  1  0
 16 43  1  0
 17 44  1  0
 18 45  1  0
 19 46  1  0
 21 47  1  0
 22 48  1  0
 24 49  1  0
 25 50  1  0
 26 51  1  0
 27 52  1  0
M  END
>  <smiles>  (42) 
O=C(NCC(=O)N1C[C@H]2C[C@@H](C1)C2c1ccccc1)c1ccc2ccccc2n1

>  <score_type>  (42) 
oracle

>  <origin>  (42) 
autodockgpu

>  <m_score__min__energy>  (42) 
-9.5

>  <m_primary>  (42) 
energy

>  <rmsd>  (42) 
7.135016137338259

>  <m_score__min__rmsd>  (42) 
7.135016137338259

>  <meeko>  (42) 
{"free_energy": -6.87, "intermolecular_energy": -8.36, "internal_energy": -3.29, "cluster_size": 3, "cluster_id": 4, "rank_in_cluster": 2}

>  <energy>  (42) 
-9.27

>  <cluster_rmsd>  (42) 
0.2

>  <cluster>  (42) 
2

$$$$

     RDKit          3D

 52 56  0  0  1  0  0  0  0  0999 V2000
  137.7200   71.6030  223.1680 O   0  0  0  0  0  0  0  0  0  0  0  0
  138.9550   71.4950  223.4480 C   0  0  0  0  0  0  0  0  0  0  0  0
  139.9590   72.2410  222.7930 N   0  0  0  0  0  0  0  0  0  0  0  0
  139.5810   73.1770  221.7550 C   0  0  0  0  0  0  0  0  0  0  0  0
  140.7370   74.0360  221.3970 C   0  0  0  0  0  0  0  0  0  0  0  0
  141.8500   73.4600  221.2690 O   0  0  0  0  0  0  0  0  0  0  0  0
  140.5620   75.4400  221.2170 N   0  0  0  0  0  0  0  0  0  0  0  0
  141.5070   76.1730  220.4000 C   0  0  0  0  0  0  0  0  0  0  0  0
  141.3940   77.6480  220.7400 C   0  0  1  0  0  0  0  0  0  0  0  0
  139.9470   78.0370  220.5380 C   0  0  0  0  0  0  0  0  0  0  0  0
  139.6940   77.5470  221.9480 C   0  0  1  0  0  0  0  0  0  0  0  0
  139.4240   76.0440  221.8790 C   0  0  0  0  0  0  0  0  0  0  0  0
  141.1250   77.7740  222.2530 C   0  0  2  0  0  0  0  0  0  0  0  0
  141.5620   79.0210  222.8640 C   0  0  0  0  0  0  0  0  0  0  0  0
  140.5750   79.9280  223.2570 C   0  0  0  0  0  0  0  0  0  0  0  0
  140.8830   81.1430  223.8330 C   0  0  0  0  0  0  0  0  0  0  0  0
  142.2020   81.5140  224.0470 C   0  0  0  0  0  0  0  0  0  0  0  0
  143.1930   80.6330  223.6670 C   0  0  0  0  0  0  0  0  0  0  0  0
  142.8570   79.4140  223.0880 C   0  0  0  0  0  0  0  0  0  0  0  0
  139.3390   70.5430  224.5070 C   0  0  0  0  0  0  0  0  0  0  0  0
  139.0000   69.2080  224.4140 C   0  0  0  0  0  0  0  0  0  0  0  0
  139.3290   68.2720  225.3700 C   0  0  0  0  0  0  0  0  0  0  0  0
  140.0350   68.7060  226.4740 C   0  0  0  0  0  0  0  0  0  0  0  0
  140.3610   67.7770  227.4210 C   0  0  0  0  0  0  0  0  0  0  0  0
  141.0670   68.1580  228.5460 C   0  0  0  0  0  0  0  0  0  0  0  0
  141.4200   69.4920  228.6650 C   0  0  0  0  0  0  0  0  0  0  0  0
  141.0810   70.4230  227.6930 C   0  0  0  0  0  0  0  0  0  0  0  0
  140.3690   70.0430  226.5560 C   0  0  0  0  0  0  0  0  0  0  0  0
  140.0260   70.9240  225.5980 N   0  0  0  0  0  0  0  0  0  0  0  0
  140.9480   72.0960  223.0780 H   0  0  0  0  0  0  0  0  0  0  0  0
  139.2522   72.6202  220.8652 H   0  0  0  0  0  0  0  0  0  0  0  0
  138.7615   73.8115  222.1235 H   0  0  0  0  0  0  0  0  0  0  0  0
  142.5283   75.8214  220.6079 H   0  0  0  0  0  0  0  0  0  0  0  0
  141.2871   76.0137  219.3340 H   0  0  0  0  0  0  0  0  0  0  0  0
  142.2361   78.1521  220.2432 H   0  0  0  0  0  0  0  0  0  0  0  0
  139.7770   79.1134  220.3880 H   0  0  0  0  0  0  0  0  0  0  0  0
  139.3613   77.6705  219.6821 H   0  0  0  0  0  0  0  0  0  0  0  0
  138.9018   77.9661  222.5858 H   0  0  0  0  0  0  0  0  0  0  0  0
  139.3148   75.6327  222.8934 H   0  0  0  0  0  0  0  0  0  0  0  0
  138.4941   75.8367  221.3292 H   0  0  0  0  0  0  0  0  0  0  0  0
  141.6153   77.1543  223.0182 H   0  0  0  0  0  0  0  0  0  0  0  0
  139.5182   79.6649  223.1022 H   0  0  0  0  0  0  0  0  0  0  0  0
  140.0722   81.8261  224.1262 H   0  0  0  0  0  0  0  0  0  0  0  0
  142.4506   82.4822  224.5062 H   0  0  0  0  0  0  0  0  0  0  0  0
  144.2501   80.8949  223.8221 H   0  0  0  0  0  0  0  0  0  0  0  0
  143.6690   78.7320  222.7955 H   0  0  0  0  0  0  0  0  0  0  0  0
  138.4374   68.8738  223.5298 H   0  0  0  0  0  0  0  0  0  0  0  0
  139.0395   67.2168  225.2576 H   0  0  0  0  0  0  0  0  0  0  0  0
  140.0618   66.7268  227.2881 H   0  0  0  0  0  0  0  0  0  0  0  0
  141.3395   67.4265  229.3210 H   0  0  0  0  0  0  0  0  0  0  0  0
  141.9825   69.8215  229.5510 H   0  0  0  0  0  0  0  0  0  0  0  0
  141.3779   71.4744  227.8213 H   0  0  0  0  0  0  0  0  0  0  0  0
  1  2  2  0
  2  3  1  0
  3  4  1  0
  4  5  1  0
  5  6  2  0
  5  7  1  0
  7  8  1  0
  8  9  1  0
  9 10  1  0
 10 11  1  0
 11 12  1  0
 11 13  1  0
 13 14  1  0
 14 15  2  0
 15 16  1  0
 16 17  2  0
 17 18  1  0
 18 19  2  0
  2 20  1  0
 20 21  2  0
 21 22  1  0
 22 23  2  0
 23 24  1  0
 24 25  2  0
 25 26  1  0
 26 27  2  0
 27 28  1  0
 28 29  2  0
 12  7  1  0
 19 14  1  0
 29 20  1  0
 13  9  1  0
 28 23  1  0
  3 30  1  0
  4 31  1  0
  4 32  1  0
  8 33  1  0
  8 34  1  0
  9 35  1  6
 10 36  1  0
 10 37  1  0
 11 38  1  1
 12 39  1  0
 12 40  1  0
 13 41  1  1
 15 42  1  0
 16 43  1  0
 17 44  1  0
 18 45  1  0
 19 46  1  0
 21 47  1  0
 22 48  1  0
 24 49  1  0
 25 50  1  0
 26 51  1  0
 27 52  1  0
M  END
>  <smiles>  (43) 
O=C(NCC(=O)N1C[C@H]2C[C@@H](C1)C2c1ccccc1)c1ccc2ccccc2n1

>  <score_type>  (43) 
oracle

>  <origin>  (43) 
autodockgpu

>  <m_score__min__energy>  (43) 
-9.5

>  <m_primary>  (43) 
energy

>  <rmsd>  (43) 
2.448354663846195

>  <m_score__min__rmsd>  (43) 
2.448354663846195

>  <meeko>  (43) 
{"free_energy": -9.23, "intermolecular_energy": -10.72, "internal_energy": -1.51, "cluster_size": 36, "cluster_id": 1, "rank_in_cluster": 9}

>  <energy>  (43) 
-9.16

>  <cluster_rmsd>  (43) 
0.55

>  <cluster>  (43) 
2

$$$$

     RDKit          3D

 52 56  0  0  1  0  0  0  0  0999 V2000
  138.8650   70.6550  221.5780 O   0  0  0  0  0  0  0  0  0  0  0  0
  139.2860   71.2340  222.6280 C   0  0  0  0  0  0  0  0  0  0  0  0
  139.5740   72.6150  222.6800 N   0  0  0  0  0  0  0  0  0  0  0  0
  139.3850   73.4230  221.4930 C   0  0  0  0  0  0  0  0  0  0  0  0
  140.6120   74.2100  221.2120 C   0  0  0  0  0  0  0  0  0  0  0  0
  141.6960   73.5700  221.1690 O   0  0  0  0  0  0  0  0  0  0  0  0
  140.5310   75.6190  221.0070 N   0  0  0  0  0  0  0  0  0  0  0  0
  141.6090   76.2980  220.3190 C   0  0  0  0  0  0  0  0  0  0  0  0
  141.5260   77.7800  220.6370 C   0  0  1  0  0  0  0  0  0  0  0  0
  140.1380   78.2370  220.2500 C   0  0  0  0  0  0  0  0  0  0  0  0
  139.6810   77.7720  221.6160 C   0  0  1  0  0  0  0  0  0  0  0  0
  139.3480   76.2830  221.5160 C   0  0  0  0  0  0  0  0  0  0  0  0
  141.0690   77.9320  222.1030 C   0  0  2  0  0  0  0  0  0  0  0  0
  141.4850   79.1620  222.7630 C   0  0  0  0  0  0  0  0  0  0  0  0
  142.8560   79.3890  222.8980 C   0  0  0  0  0  0  0  0  0  0  0  0
  143.3540   80.5160  223.5180 C   0  0  0  0  0  0  0  0  0  0  0  0
  142.5000   81.4780  224.0370 C   0  0  0  0  0  0  0  0  0  0  0  0
  141.1420   81.2730  223.9130 C   0  0  0  0  0  0  0  0  0  0  0  0
  140.6640   80.1290  223.2840 C   0  0  0  0  0  0  0  0  0  0  0  0
  139.4770   70.4100  223.8370 C   0  0  0  0  0  0  0  0  0  0  0  0
  139.0480   69.0990  223.8740 C   0  0  0  0  0  0  0  0  0  0  0  0
  139.1970   68.2810  224.9720 C   0  0  0  0  0  0  0  0  0  0  0  0
  139.8110   68.8150  226.0880 C   0  0  0  0  0  0  0  0  0  0  0  0
  139.9590   68.0030  227.1770 C   0  0  0  0  0  0  0  0  0  0  0  0
  140.5660   68.4870  228.3210 C   0  0  0  0  0  0  0  0  0  0  0  0
  141.0070   69.8010  228.3100 C   0  0  0  0  0  0  0  0  0  0  0  0
  140.8480   70.6110  227.1950 C   0  0  0  0  0  0  0  0  0  0  0  0
  140.2360   70.1270  226.0400 C   0  0  0  0  0  0  0  0  0  0  0  0
  140.0690   70.8910  224.9440 N   0  0  0  0  0  0  0  0  0  0  0  0
  139.9160   73.0150  223.5770 H   0  0  0  0  0  0  0  0  0  0  0  0
  139.1692   72.7671  220.6367 H   0  0  0  0  0  0  0  0  0  0  0  0
  138.5440   74.1128  221.6567 H   0  0  0  0  0  0  0  0  0  0  0  0
  142.5759   75.8991  220.6596 H   0  0  0  0  0  0  0  0  0  0  0  0
  141.5219   76.1401  219.2339 H   0  0  0  0  0  0  0  0  0  0  0  0
  142.4488   78.2379  220.2514 H   0  0  0  0  0  0  0  0  0  0  0  0
  140.0421   79.3191  220.0772 H   0  0  0  0  0  0  0  0  0  0  0  0
  139.6501   77.8919  219.3265 H   0  0  0  0  0  0  0  0  0  0  0  0
  138.8346   78.2344  222.1449 H   0  0  0  0  0  0  0  0  0  0  0  0
  139.0893   75.8860  222.5087 H   0  0  0  0  0  0  0  0  0  0  0  0
  138.4872   76.1164  220.8518 H   0  0  0  0  0  0  0  0  0  0  0  0
  141.4244   77.2958  222.9270 H   0  0  0  0  0  0  0  0  0  0  0  0
  143.5611   78.6458  222.4974 H   0  0  0  0  0  0  0  0  0  0  0  0
  144.4421   80.6536  223.6019 H   0  0  0  0  0  0  0  0  0  0  0  0
  142.8942   82.3774  224.5326 H   0  0  0  0  0  0  0  0  0  0  0  0
  140.4358   82.0158  224.3124 H   0  0  0  0  0  0  0  0  0  0  0  0
  139.5756   79.9931  223.2003 H   0  0  0  0  0  0  0  0  0  0  0  0
  138.5610   68.6851  222.9787 H   0  0  0  0  0  0  0  0  0  0  0  0
  138.8401   67.2406  224.9605 H   0  0  0  0  0  0  0  0  0  0  0  0
  139.5956   66.9653  227.1435 H   0  0  0  0  0  0  0  0  0  0  0  0
  140.6945   67.8512  229.2094 H   0  0  0  0  0  0  0  0  0  0  0  0
  141.4946   70.2113  229.2066 H   0  0  0  0  0  0  0  0  0  0  0  0
  141.2099   71.6494  227.2228 H   0  0  0  0  0  0  0  0  0  0  0  0
  1  2  2  0
  2  3  1  0
  3  4  1  0
  4  5  1  0
  5  6  2  0
  5  7  1  0
  7  8  1  0
  8  9  1  0
  9 10  1  0
 10 11  1  0
 11 12  1  0
 11 13  1  0
 13 14  1  0
 14 15  2  0
 15 16  1  0
 16 17  2  0
 17 18  1  0
 18 19  2  0
  2 20  1  0
 20 21  2  0
 21 22  1  0
 22 23  2  0
 23 24  1  0
 24 25  2  0
 25 26  1  0
 26 27  2  0
 27 28  1  0
 28 29  2  0
 12  7  1  0
 19 14  1  0
 29 20  1  0
 13  9  1  0
 28 23  1  0
  3 30  1  0
  4 31  1  0
  4 32  1  0
  8 33  1  0
  8 34  1  0
  9 35  1  6
 10 36  1  0
 10 37  1  0
 11 38  1  1
 12 39  1  0
 12 40  1  0
 13 41  1  1
 15 42  1  0
 16 43  1  0
 17 44  1  0
 18 45  1  0
 19 46  1  0
 21 47  1  0
 22 48  1  0
 24 49  1  0
 25 50  1  0
 26 51  1  0
 27 52  1  0
M  END
>  <smiles>  (44) 
O=C(NCC(=O)N1C[C@H]2C[C@@H](C1)C2c1ccccc1)c1ccc2ccccc2n1

>  <score_type>  (44) 
oracle

>  <origin>  (44) 
autodockgpu

>  <m_score__min__energy>  (44) 
-9.5

>  <m_primary>  (44) 
energy

>  <rmsd>  (44) 
2.1523492480182234

>  <m_score__min__rmsd>  (44) 
2.1523492480182234

>  <meeko>  (44) 
{"free_energy": -9.38, "intermolecular_energy": -10.88, "internal_energy": -1.43, "cluster_size": 36, "cluster_id": 1, "rank_in_cluster": 7}

>  <energy>  (44) 
-9.1

>  <cluster_rmsd>  (44) 
1.04

>  <cluster>  (44) 
2

$$$$

     RDKit          3D

 52 56  0  0  1  0  0  0  0  0999 V2000
  140.5570   71.5680  221.5570 O   0  0  0  0  0  0  0  0  0  0  0  0
  139.7230   71.8130  222.4850 C   0  0  0  0  0  0  0  0  0  0  0  0
  138.7000   72.7770  222.3620 N   0  0  0  0  0  0  0  0  0  0  0  0
  138.5790   73.5280  221.1300 C   0  0  0  0  0  0  0  0  0  0  0  0
  138.2760   74.9500  221.4270 C   0  0  0  0  0  0  0  0  0  0  0  0
  137.1720   75.1870  221.9870 O   0  0  0  0  0  0  0  0  0  0  0  0
  139.2090   75.9720  221.0820 N   0  0  0  0  0  0  0  0  0  0  0  0
  140.6250   75.7230  221.2480 C   0  0  0  0  0  0  0  0  0  0  0  0
  141.3480   77.0580  221.2750 C   0  0  1  0  0  0  0  0  0  0  0  0
  140.9770   77.7850  220.0030 C   0  0  0  0  0  0  0  0  0  0  0  0
  139.7430   78.2780  220.7290 C   0  0  1  0  0  0  0  0  0  0  0  0
  138.6560   77.2130  220.5790 C   0  0  0  0  0  0  0  0  0  0  0  0
  140.4530   78.0750  222.0120 C   0  0  2  0  0  0  0  0  0  0  0  0
  141.1570   79.1780  222.6510 C   0  0  0  0  0  0  0  0  0  0  0  0
  142.5530   79.1590  222.6180 C   0  0  0  0  0  0  0  0  0  0  0  0
  143.3140   80.1490  223.2030 C   0  0  0  0  0  0  0  0  0  0  0  0
  142.7130   81.2150  223.8560 C   0  0  0  0  0  0  0  0  0  0  0  0
  141.3350   81.2550  223.8990 C   0  0  0  0  0  0  0  0  0  0  0  0
  140.5890   80.2450  223.3010 C   0  0  0  0  0  0  0  0  0  0  0  0
  139.8470   71.0470  223.7390 C   0  0  0  0  0  0  0  0  0  0  0  0
  139.4570   69.7250  223.8030 C   0  0  0  0  0  0  0  0  0  0  0  0
  139.5480   68.9580  224.9440 C   0  0  0  0  0  0  0  0  0  0  0  0
  140.0580   69.5590  226.0780 C   0  0  0  0  0  0  0  0  0  0  0  0
  140.1480   68.7990  227.2100 C   0  0  0  0  0  0  0  0  0  0  0  0
  140.6520   69.3500  228.3720 C   0  0  0  0  0  0  0  0  0  0  0  0
  141.0520   70.6760  228.3370 C   0  0  0  0  0  0  0  0  0  0  0  0
  140.9530   71.4340  227.1790 C   0  0  0  0  0  0  0  0  0  0  0  0
  140.4460   70.8810  226.0030 C   0  0  0  0  0  0  0  0  0  0  0  0
  140.3390   71.5930  224.8660 N   0  0  0  0  0  0  0  0  0  0  0  0
  138.0570   72.9210  223.1670 H   0  0  0  0  0  0  0  0  0  0  0  0
  139.5250   73.4665  220.5721 H   0  0  0  0  0  0  0  0  0  0  0  0
  137.7614   73.1038  220.5287 H   0  0  0  0  0  0  0  0  0  0  0  0
  140.7995   75.1872  222.1927 H   0  0  0  0  0  0  0  0  0  0  0  0
  140.9999   75.1076  220.4169 H   0  0  0  0  0  0  0  0  0  0  0  0
  142.3846   76.8500  221.5788 H   0  0  0  0  0  0  0  0  0  0  0  0
  141.6807   78.5758  219.7038 H   0  0  0  0  0  0  0  0  0  0  0  0
  140.9122   77.2655  219.0356 H   0  0  0  0  0  0  0  0  0  0  0  0
  139.2601   79.2370  220.4898 H   0  0  0  0  0  0  0  0  0  0  0  0
  137.7673   77.4950  221.1627 H   0  0  0  0  0  0  0  0  0  0  0  0
  138.3494   77.1094  219.5277 H   0  0  0  0  0  0  0  0  0  0  0  0
  139.8705   77.8405  222.9152 H   0  0  0  0  0  0  0  0  0  0  0  0
  143.0620   78.3273  222.1088 H   0  0  0  0  0  0  0  0  0  0  0  0
  144.4113   80.0927  223.1512 H   0  0  0  0  0  0  0  0  0  0  0  0
  143.3174   82.0050  224.3256 H   0  0  0  0  0  0  0  0  0  0  0  0
  140.8253   82.0869  224.4070 H   0  0  0  0  0  0  0  0  0  0  0  0
  139.4918   80.3042  223.3514 H   0  0  0  0  0  0  0  0  0  0  0  0
  139.0513   69.2579  222.8935 H   0  0  0  0  0  0  0  0  0  0  0  0
  139.2264   67.9061  224.9514 H   0  0  0  0  0  0  0  0  0  0  0  0
  139.8194   67.7493  227.1959 H   0  0  0  0  0  0  0  0  0  0  0  0
  140.7331   68.7559  229.2942 H   0  0  0  0  0  0  0  0  0  0  0  0
  141.4576   71.1388  229.2487 H   0  0  0  0  0  0  0  0  0  0  0  0
  141.2786   72.4847  227.1885 H   0  0  0  0  0  0  0  0  0  0  0  0
  1  2  2  0
  2  3  1  0
  3  4  1  0
  4  5  1  0
  5  6  2  0
  5  7  1  0
  7  8  1  0
  8  9  1  0
  9 10  1  0
 10 11  1  0
 11 12  1  0
 11 13  1  0
 13 14  1  0
 14 15  2  0
 15 16  1  0
 16 17  2  0
 17 18  1  0
 18 19  2  0
  2 20  1  0
 20 21  2  0
 21 22  1  0
 22 23  2  0
 23 24  1  0
 24 25  2  0
 25 26  1  0
 26 27  2  0
 27 28  1  0
 28 29  2  0
 12  7  1  0
 19 14  1  0
 29 20  1  0
 13  9  1  0
 28 23  1  0
  3 30  1  0
  4 31  1  0
  4 32  1  0
  8 33  1  0
  8 34  1  0
  9 35  1  1
 10 36  1  0
 10 37  1  0
 11 38  1  6
 12 39  1  0
 12 40  1  0
 13 41  1  1
 15 42  1  0
 16 43  1  0
 17 44  1  0
 18 45  1  0
 19 46  1  0
 21 47  1  0
 22 48  1  0
 24 49  1  0
 25 50  1  0
 26 51  1  0
 27 52  1  0
M  END
>  <smiles>  (45) 
O=C(NCC(=O)N1C[C@H]2C[C@@H](C1)C2c1ccccc1)c1ccc2ccccc2n1

>  <score_type>  (45) 
oracle

>  <origin>  (45) 
autodockgpu

>  <m_score__min__energy>  (45) 
-9.5

>  <m_primary>  (45) 
energy

>  <rmsd>  (45) 
2.106796402710383

>  <m_score__min__rmsd>  (45) 
2.106796402710383

>  <meeko>  (45) 
{"free_energy": -9.14, "intermolecular_energy": -10.63, "internal_energy": -1.35, "cluster_size": 36, "cluster_id": 1, "rank_in_cluster": 15}

>  <energy>  (45) 
-9.01

>  <cluster_rmsd>  (45) 
0.9

>  <cluster>  (45) 
2

$$$$

     RDKit          3D

 52 56  0  0  1  0  0  0  0  0999 V2000
  140.6730   72.9650  222.6930 O   0  0  0  0  0  0  0  0  0  0  0  0
  139.6390   72.2680  222.9430 C   0  0  0  0  0  0  0  0  0  0  0  0
  138.4180   72.4330  222.2530 N   0  0  0  0  0  0  0  0  0  0  0  0
  138.3240   73.4330  221.2090 C   0  0  0  0  0  0  0  0  0  0  0  0
  138.2270   74.7870  221.8090 C   0  0  0  0  0  0  0  0  0  0  0  0
  137.3480   74.9500  222.6970 O   0  0  0  0  0  0  0  0  0  0  0  0
  139.1010   75.8290  221.3780 N   0  0  0  0  0  0  0  0  0  0  0  0
  140.5300   75.5970  221.3700 C   0  0  0  0  0  0  0  0  0  0  0  0
  141.2360   76.9400  221.3390 C   0  0  1  0  0  0  0  0  0  0  0  0
  140.7080   77.6880  220.1360 C   0  0  0  0  0  0  0  0  0  0  0  0
  139.5640   78.1490  221.0150 C   0  0  1  0  0  0  0  0  0  0  0  0
  138.4790   77.0720  220.9710 C   0  0  0  0  0  0  0  0  0  0  0  0
  140.4240   77.9300  222.2000 C   0  0  2  0  0  0  0  0  0  0  0  0
  141.1860   79.0300  222.7740 C   0  0  0  0  0  0  0  0  0  0  0  0
  140.4680   80.1030  223.3050 C   0  0  0  0  0  0  0  0  0  0  0  0
  141.0940   81.2000  223.8610 C   0  0  0  0  0  0  0  0  0  0  0  0
  142.4780   81.2780  223.9130 C   0  0  0  0  0  0  0  0  0  0  0  0
  143.2060   80.2270  223.3940 C   0  0  0  0  0  0  0  0  0  0  0  0
  142.5530   79.1330  222.8400 C   0  0  0  0  0  0  0  0  0  0  0  0
  139.7370   71.2500  224.0040 C   0  0  0  0  0  0  0  0  0  0  0  0
  139.2180   69.9850  223.8210 C   0  0  0  0  0  0  0  0  0  0  0  0
  139.2780   68.9920  224.7750 C   0  0  0  0  0  0  0  0  0  0  0  0
  139.8940   69.2940  225.9730 C   0  0  0  0  0  0  0  0  0  0  0  0
  139.9540   68.3090  226.9190 C   0  0  0  0  0  0  0  0  0  0  0  0
  140.5580   68.5580  228.1360 C   0  0  0  0  0  0  0  0  0  0  0  0
  141.0890   69.8200  228.3470 C   0  0  0  0  0  0  0  0  0  0  0  0
  141.0190   70.8090  227.3750 C   0  0  0  0  0  0  0  0  0  0  0  0
  140.4100   70.5620  226.1450 C   0  0  0  0  0  0  0  0  0  0  0  0
  140.3280   71.5020  225.1860 N   0  0  0  0  0  0  0  0  0  0  0  0
  137.6160   71.8250  222.5150 H   0  0  0  0  0  0  0  0  0  0  0  0
  139.2196   73.3801  220.5725 H   0  0  0  0  0  0  0  0  0  0  0  0
  137.4248   73.2407  220.6053 H   0  0  0  0  0  0  0  0  0  0  0  0
  140.8214   75.0455  222.2760 H   0  0  0  0  0  0  0  0  0  0  0  0
  140.8104   75.0035  220.4873 H   0  0  0  0  0  0  0  0  0  0  0  0
  142.3037   76.7398  221.5121 H   0  0  0  0  0  0  0  0  0  0  0  0
  141.3622   78.4942  219.7726 H   0  0  0  0  0  0  0  0  0  0  0  0
  140.5341   77.1878  219.1719 H   0  0  0  0  0  0  0  0  0  0  0  0
  139.0453   79.1060  220.8567 H   0  0  0  0  0  0  0  0  0  0  0  0
  137.6623   77.3298  221.6614 H   0  0  0  0  0  0  0  0  0  0  0  0
  138.0519   76.9855  219.9610 H   0  0  0  0  0  0  0  0  0  0  0  0
  139.9568   77.6691  223.1611 H   0  0  0  0  0  0  0  0  0  0  0  0
  139.3687   80.0731  223.2794 H   0  0  0  0  0  0  0  0  0  0  0  0
  140.4879   82.0228  224.2680 H   0  0  0  0  0  0  0  0  0  0  0  0
  142.9800   82.1514  224.3547 H   0  0  0  0  0  0  0  0  0  0  0  0
  144.3053   80.2554  223.4189 H   0  0  0  0  0  0  0  0  0  0  0  0
  143.1605   78.3102  222.4350 H   0  0  0  0  0  0  0  0  0  0  0  0
  138.7300   69.7565  222.8620 H   0  0  0  0  0  0  0  0  0  0  0  0
  138.8508   67.9956  224.5887 H   0  0  0  0  0  0  0  0  0  0  0  0
  139.5217   67.3191  226.7113 H   0  0  0  0  0  0  0  0  0  0  0  0
  140.6155   67.7802  228.9117 H   0  0  0  0  0  0  0  0  0  0  0  0
  141.5774   70.0437  229.3069 H   0  0  0  0  0  0  0  0  0  0  0  0
  141.4497   71.8006  227.5779 H   0  0  0  0  0  0  0  0  0  0  0  0
  1  2  2  0
  2  3  1  0
  3  4  1  0
  4  5  1  0
  5  6  2  0
  5  7  1  0
  7  8  1  0
  8  9  1  0
  9 10  1  0
 10 11  1  0
 11 12  1  0
 11 13  1  0
 13 14  1  0
 14 15  2  0
 15 16  1  0
 16 17  2  0
 17 18  1  0
 18 19  2  0
  2 20  1  0
 20 21  2  0
 21 22  1  0
 22 23  2  0
 23 24  1  0
 24 25  2  0
 25 26  1  0
 26 27  2  0
 27 28  1  0
 28 29  2  0
 12  7  1  0
 19 14  1  0
 29 20  1  0
 13  9  1  0
 28 23  1  0
  3 30  1  0
  4 31  1  0
  4 32  1  0
  8 33  1  0
  8 34  1  0
  9 35  1  1
 10 36  1  0
 10 37  1  0
 11 38  1  6
 12 39  1  0
 12 40  1  0
 13 41  1  1
 15 42  1  0
 16 43  1  0
 17 44  1  0
 18 45  1  0
 19 46  1  0
 21 47  1  0
 22 48  1  0
 24 49  1  0
 25 50  1  0
 26 51  1  0
 27 52  1  0
M  END
>  <smiles>  (46) 
O=C(NCC(=O)N1C[C@H]2C[C@@H](C1)C2c1ccccc1)c1ccc2ccccc2n1

>  <score_type>  (46) 
oracle

>  <origin>  (46) 
autodockgpu

>  <m_score__min__energy>  (46) 
-9.5

>  <m_primary>  (46) 
energy

>  <rmsd>  (46) 
2.2565738241818143

>  <m_score__min__rmsd>  (46) 
2.2565738241818143

>  <meeko>  (46) 
{"free_energy": -9.15, "intermolecular_energy": -10.64, "internal_energy": -1.33, "cluster_size": 36, "cluster_id": 1, "rank_in_cluster": 12}

>  <energy>  (46) 
-8.97

>  <cluster_rmsd>  (46) 
0.94

>  <cluster>  (46) 
2

$$$$

     RDKit          3D

 52 56  0  0  1  0  0  0  0  0999 V2000
  139.6420   73.4980  222.5420 O   0  0  0  0  0  0  0  0  0  0  0  0
  140.3080   72.4160  222.5300 C   0  0  0  0  0  0  0  0  0  0  0  0
  141.1050   72.0180  221.4350 N   0  0  0  0  0  0  0  0  0  0  0  0
  141.1810   72.8710  220.2670 C   0  0  0  0  0  0  0  0  0  0  0  0
  142.0950   74.0110  220.5270 C   0  0  0  0  0  0  0  0  0  0  0  0
  143.2720   73.7230  220.8720 O   0  0  0  0  0  0  0  0  0  0  0  0
  141.6310   75.3520  220.3850 N   0  0  0  0  0  0  0  0  0  0  0  0
  142.5050   76.3460  219.7980 C   0  0  0  0  0  0  0  0  0  0  0  0
  141.9950   77.7230  220.1810 C   0  0  1  0  0  0  0  0  0  0  0  0
  140.5540   77.8000  219.7300 C   0  0  0  0  0  0  0  0  0  0  0  0
  140.1830   77.1410  221.0420 C   0  0  1  0  0  0  0  0  0  0  0  0
  140.2870   75.6280  220.8500 C   0  0  0  0  0  0  0  0  0  0  0  0
  141.4470   77.6490  221.6210 C   0  0  2  0  0  0  0  0  0  0  0  0
  141.4700   78.9020  222.3630 C   0  0  0  0  0  0  0  0  0  0  0  0
  142.7180   79.4540  222.6590 C   0  0  0  0  0  0  0  0  0  0  0  0
  142.8500   80.6310  223.3670 C   0  0  0  0  0  0  0  0  0  0  0  0
  141.7330   81.3180  223.8180 C   0  0  0  0  0  0  0  0  0  0  0  0
  140.4900   80.7900  223.5360 C   0  0  0  0  0  0  0  0  0  0  0  0
  140.3820   79.6030  222.8200 C   0  0  0  0  0  0  0  0  0  0  0  0
  140.2310   71.5480  223.7200 C   0  0  0  0  0  0  0  0  0  0  0  0
  139.6540   70.2970  223.6480 C   0  0  0  0  0  0  0  0  0  0  0  0
  139.5520   69.4430  224.7240 C   0  0  0  0  0  0  0  0  0  0  0  0
  140.0590   69.8760  225.9340 C   0  0  0  0  0  0  0  0  0  0  0  0
  139.9580   69.0280  227.0010 C   0  0  0  0  0  0  0  0  0  0  0  0
  140.4470   69.4120  228.2340 C   0  0  0  0  0  0  0  0  0  0  0  0
  141.0320   70.6630  228.3360 C   0  0  0  0  0  0  0  0  0  0  0  0
  141.1260   71.5120  227.2410 C   0  0  0  0  0  0  0  0  0  0  0  0
  140.6330   71.1290  225.9940 C   0  0  0  0  0  0  0  0  0  0  0  0
  140.7110   71.9310  224.9170 N   0  0  0  0  0  0  0  0  0  0  0  0
  141.6200   71.1170  221.5000 H   0  0  0  0  0  0  0  0  0  0  0  0
  141.5598   72.2879  219.4146 H   0  0  0  0  0  0  0  0  0  0  0  0
  140.1774   73.2589  220.0384 H   0  0  0  0  0  0  0  0  0  0  0  0
  143.5285   76.2107  220.1777 H   0  0  0  0  0  0  0  0  0  0  0  0
  142.5151   76.2392  218.7032 H   0  0  0  0  0  0  0  0  0  0  0  0
  142.7689   78.4429  219.8763 H   0  0  0  0  0  0  0  0  0  0  0  0
  140.1662   78.8215  219.6030 H   0  0  0  0  0  0  0  0  0  0  0  0
  140.2261   77.3919  218.7625 H   0  0  0  0  0  0  0  0  0  0  0  0
  139.2175   77.3159  221.5391 H   0  0  0  0  0  0  0  0  0  0  0  0
  140.1040   75.1125  221.8044 H   0  0  0  0  0  0  0  0  0  0  0  0
  139.5398   75.2717  220.1256 H   0  0  0  0  0  0  0  0  0  0  0  0
  141.9285   77.0855  222.4338 H   0  0  0  0  0  0  0  0  0  0  0  0
  143.6249   78.9339  222.3168 H   0  0  0  0  0  0  0  0  0  0  0  0
  143.8538   81.0293  223.5763 H   0  0  0  0  0  0  0  0  0  0  0  0
  141.8350   82.2559  224.3837 H   0  0  0  0  0  0  0  0  0  0  0  0
  139.5826   81.3091  223.8783 H   0  0  0  0  0  0  0  0  0  0  0  0
  139.3774   79.2071  222.6099 H   0  0  0  0  0  0  0  0  0  0  0  0
  139.2538   69.9635  222.6792 H   0  0  0  0  0  0  0  0  0  0  0  0
  139.0840   68.4526  224.6235 H   0  0  0  0  0  0  0  0  0  0  0  0
  139.4879   68.0412  226.8778 H   0  0  0  0  0  0  0  0  0  0  0  0
  140.3743   68.7461  229.1065 H   0  0  0  0  0  0  0  0  0  0  0  0
  141.4314   70.9918  229.3067 H   0  0  0  0  0  0  0  0  0  0  0  0
  141.5956   72.4997  227.3589 H   0  0  0  0  0  0  0  0  0  0  0  0
  1  2  2  0
  2  3  1  0
  3  4  1  0
  4  5  1  0
  5  6  2  0
  5  7  1  0
  7  8  1  0
  8  9  1  0
  9 10  1  0
 10 11  1  0
 11 12  1  0
 11 13  1  0
 13 14  1  0
 14 15  2  0
 15 16  1  0
 16 17  2  0
 17 18  1  0
 18 19  2  0
  2 20  1  0
 20 21  2  0
 21 22  1  0
 22 23  2  0
 23 24  1  0
 24 25  2  0
 25 26  1  0
 26 27  2  0
 27 28  1  0
 28 29  2  0
 12  7  1  0
 19 14  1  0
 29 20  1  0
 13  9  1  0
 28 23  1  0
  3 30  1  0
  4 31  1  0
  4 32  1  0
  8 33  1  0
  8 34  1  0
  9 35  1  1
 10 36  1  0
 10 37  1  0
 11 38  1  1
 12 39  1  0
 12 40  1  0
 13 41  1  1
 15 42  1  0
 16 43  1  0
 17 44  1  0
 18 45  1  0
 19 46  1  0
 21 47  1  0
 22 48  1  0
 24 49  1  0
 25 50  1  0
 26 51  1  0
 27 52  1  0
M  END
>  <smiles>  (47) 
O=C(NCC(=O)N1C[C@H]2C[C@@H](C1)C2c1ccccc1)c1ccc2ccccc2n1

>  <score_type>  (47) 
oracle

>  <origin>  (47) 
autodockgpu

>  <m_score__min__energy>  (47) 
-9.5

>  <m_primary>  (47) 
energy

>  <rmsd>  (47) 
2.381289369740091

>  <m_score__min__rmsd>  (47) 
2.381289369740091

>  <meeko>  (47) 
{"free_energy": -9.41, "intermolecular_energy": -10.9, "internal_energy": -1.32, "cluster_size": 36, "cluster_id": 1, "rank_in_cluster": 6}

>  <energy>  (47) 
-8.24

>  <cluster_rmsd>  (47) 
0.0

>  <cluster>  (47) 
3

$$$$

     RDKit          3D

 52 56  0  0  1  0  0  0  0  0999 V2000
  140.6950   74.1410  222.2680 O   0  0  0  0  0  0  0  0  0  0  0  0
  140.1620   75.0120  221.5100 C   0  0  0  0  0  0  0  0  0  0  0  0
  139.0930   74.7160  220.6370 N   0  0  0  0  0  0  0  0  0  0  0  0
  138.5660   73.3680  220.5930 C   0  0  0  0  0  0  0  0  0  0  0  0
  137.8550   73.0570  221.8580 C   0  0  0  0  0  0  0  0  0  0  0  0
  137.0320   73.9180  222.2700 O   0  0  0  0  0  0  0  0  0  0  0  0
  138.1150   71.8360  222.5480 N   0  0  0  0  0  0  0  0  0  0  0  0
  137.1560   71.3530  223.5200 C   0  0  0  0  0  0  0  0  0  0  0  0
  137.8490   70.3480  224.4210 C   0  0  1  0  0  0  0  0  0  0  0  0
  138.4350   69.2820  223.5240 C   0  0  0  0  0  0  0  0  0  0  0  0
  139.6420   70.1820  223.3620 C   0  0  1  0  0  0  0  0  0  0  0  0
  139.3490   71.1520  222.2170 C   0  0  0  0  0  0  0  0  0  0  0  0
  139.2980   70.8260  224.6490 C   0  0  2  0  0  0  0  0  0  0  0  0
  139.9170   70.3760  225.8890 C   0  0  0  0  0  0  0  0  0  0  0  0
  140.4470   71.3520  226.7360 C   0  0  0  0  0  0  0  0  0  0  0  0
  141.0650   71.0310  227.9270 C   0  0  0  0  0  0  0  0  0  0  0  0
  141.1840   69.7100  228.3330 C   0  0  0  0  0  0  0  0  0  0  0  0
  140.6650   68.7310  227.5110 C   0  0  0  0  0  0  0  0  0  0  0  0
  140.0470   69.0790  226.3150 C   0  0  0  0  0  0  0  0  0  0  0  0
  140.6980   76.3850  221.5570 C   0  0  0  0  0  0  0  0  0  0  0  0
  140.9730   77.0770  220.3960 C   0  0  0  0  0  0  0  0  0  0  0  0
  141.4750   78.3600  220.3750 C   0  0  0  0  0  0  0  0  0  0  0  0
  141.7110   78.9730  221.5900 C   0  0  0  0  0  0  0  0  0  0  0  0
  142.2090   80.2450  221.5690 C   0  0  0  0  0  0  0  0  0  0  0  0
  142.4640   80.9050  222.7560 C   0  0  0  0  0  0  0  0  0  0  0  0
  142.1970   80.2330  223.9380 C   0  0  0  0  0  0  0  0  0  0  0  0
  141.6910   78.9410  223.9400 C   0  0  0  0  0  0  0  0  0  0  0  0
  141.4330   78.2710  222.7450 C   0  0  0  0  0  0  0  0  0  0  0  0
  140.9430   77.0180  222.7180 N   0  0  0  0  0  0  0  0  0  0  0  0
  138.7110   75.4820  220.0470 H   0  0  0  0  0  0  0  0  0  0  0  0
  137.8649   73.2788  219.7501 H   0  0  0  0  0  0  0  0  0  0  0  0
  139.3980   72.6601  220.4642 H   0  0  0  0  0  0  0  0  0  0  0  0
  136.7815   72.1943  224.1216 H   0  0  0  0  0  0  0  0  0  0  0  0
  136.3068   70.8773  223.0076 H   0  0  0  0  0  0  0  0  0  0  0  0
  137.1562   70.1355  225.2486 H   0  0  0  0  0  0  0  0  0  0  0  0
  138.6403   68.3235  224.0231 H   0  0  0  0  0  0  0  0  0  0  0  0
  137.8853   68.8870  222.6569 H   0  0  0  0  0  0  0  0  0  0  0  0
  140.6519   69.7889  223.1735 H   0  0  0  0  0  0  0  0  0  0  0  0
  140.1690   71.8785  222.1179 H   0  0  0  0  0  0  0  0  0  0  0  0
  139.2568   70.6154  221.2612 H   0  0  0  0  0  0  0  0  0  0  0  0
  139.5790   71.8764  224.8151 H   0  0  0  0  0  0  0  0  0  0  0  0
  140.3692   72.4098  226.4443 H   0  0  0  0  0  0  0  0  0  0  0  0
  141.4685   71.8329  228.5627 H   0  0  0  0  0  0  0  0  0  0  0  0
  141.6772   69.4508  229.2815 H   0  0  0  0  0  0  0  0  0  0  0  0
  140.7402   67.6730  227.8024 H   0  0  0  0  0  0  0  0  0  0  0  0
  139.6433   68.2761  225.6807 H   0  0  0  0  0  0  0  0  0  0  0  0
  140.7812   76.5776  219.4348 H   0  0  0  0  0  0  0  0  0  0  0  0
  141.6802   78.8768  219.4259 H   0  0  0  0  0  0  0  0  0  0  0  0
  142.4067   80.7432  220.6084 H   0  0  0  0  0  0  0  0  0  0  0  0
  142.8654   81.9291  222.7623 H   0  0  0  0  0  0  0  0  0  0  0  0
  142.3907   80.7355  224.8972 H   0  0  0  0  0  0  0  0  0  0  0  0
  141.4906   78.4385  224.8978 H   0  0  0  0  0  0  0  0  0  0  0  0
  1  2  2  0
  2  3  1  0
  3  4  1  0
  4  5  1  0
  5  6  2  0
  5  7  1  0
  7  8  1  0
  8  9  1  0
  9 10  1  0
 10 11  1  0
 11 12  1  0
 11 13  1  0
 13 14  1  0
 14 15  2  0
 15 16  1  0
 16 17  2  0
 17 18  1  0
 18 19  2  0
  2 20  1  0
 20 21  2  0
 21 22  1  0
 22 23  2  0
 23 24  1  0
 24 25  2  0
 25 26  1  0
 26 27  2  0
 27 28  1  0
 28 29  2  0
 12  7  1  0
 19 14  1  0
 29 20  1  0
 13  9  1  0
 28 23  1  0
  3 30  1  0
  4 31  1  0
  4 32  1  0
  8 33  1  0
  8 34  1  0
  9 35  1  1
 10 36  1  0
 10 37  1  0
 11 38  1  1
 12 39  1  0
 12 40  1  0
 13 41  1  6
 15 42  1  0
 16 43  1  0
 17 44  1  0
 18 45  1  0
 19 46  1  0
 21 47  1  0
 22 48  1  0
 24 49  1  0
 25 50  1  0
 26 51  1  0
 27 52  1  0
M  END
>  <smiles>  (48) 
O=C(NCC(=O)N1C[C@H]2C[C@@H](C1)C2c1ccccc1)c1ccc2ccccc2n1

>  <score_type>  (48) 
oracle

>  <origin>  (48) 
autodockgpu

>  <m_score__min__energy>  (48) 
-9.5

>  <m_primary>  (48) 
energy

>  <rmsd>  (48) 
8.201091374741038

>  <m_score__min__rmsd>  (48) 
8.201091374741038

>  <meeko>  (48) 
{"free_energy": -9.1, "intermolecular_energy": -10.6, "internal_energy": -1.35, "cluster_size": 10, "cluster_id": 2, "rank_in_cluster": 8}

>  <energy>  (48) 
-7.18

>  <cluster_rmsd>  (48) 
0.0

>  <cluster>  (48) 
4

$$$$

     RDKit          3D

 52 56  0  0  1  0  0  0  0  0999 V2000
  139.0760   70.7640  221.5280 O   0  0  0  0  0  0  0  0  0  0  0  0
  139.3190   71.3770  222.6150 C   0  0  0  0  0  0  0  0  0  0  0  0
  139.4100   72.7830  222.7000 N   0  0  0  0  0  0  0  0  0  0  0  0
  139.2180   73.5780  221.5050 C   0  0  0  0  0  0  0  0  0  0  0  0
  140.5030   74.1950  221.0910 C   0  0  0  0  0  0  0  0  0  0  0  0
  141.4930   73.4230  220.9900 O   0  0  0  0  0  0  0  0  0  0  0  0
  140.5770   75.5950  220.8290 N   0  0  0  0  0  0  0  0  0  0  0  0
  141.8290   76.1660  220.3790 C   0  0  0  0  0  0  0  0  0  0  0  0
  141.7910   77.6630  220.6240 C   0  0  1  0  0  0  0  0  0  0  0  0
  140.5630   78.1940  219.9210 C   0  0  0  0  0  0  0  0  0  0  0  0
  139.7800   77.8270  221.1650 C   0  0  1  0  0  0  0  0  0  0  0  0
  139.3650   76.3610  221.0380 C   0  0  0  0  0  0  0  0  0  0  0  0
  141.0350   77.9150  221.9450 C   0  0  2  0  0  0  0  0  0  0  0  0
  141.3870   79.1440  222.6420 C   0  0  0  0  0  0  0  0  0  0  0  0
  142.7450   79.4180  222.8210 C   0  0  0  0  0  0  0  0  0  0  0  0
  143.1840   80.5480  223.4790 C   0  0  0  0  0  0  0  0  0  0  0  0
  142.2810   81.4670  223.9940 C   0  0  0  0  0  0  0  0  0  0  0  0
  140.9360   81.2160  223.8270 C   0  0  0  0  0  0  0  0  0  0  0  0
  140.5170   80.0700  223.1610 C   0  0  0  0  0  0  0  0  0  0  0  0
  139.5140   70.5660  223.8320 C   0  0  0  0  0  0  0  0  0  0  0  0
  139.1130   69.2460  223.8740 C   0  0  0  0  0  0  0  0  0  0  0  0
  139.2670   68.4390  224.9800 C   0  0  0  0  0  0  0  0  0  0  0  0
  139.8560   68.9940  226.0990 C   0  0  0  0  0  0  0  0  0  0  0  0
  140.0090   68.1930  227.1950 C   0  0  0  0  0  0  0  0  0  0  0  0
  140.5920   68.6980  228.3420 C   0  0  0  0  0  0  0  0  0  0  0  0
  141.0050   70.0210  228.3270 C   0  0  0  0  0  0  0  0  0  0  0  0
  140.8410   70.8200  227.2040 C   0  0  0  0  0  0  0  0  0  0  0  0
  140.2540   70.3140  226.0450 C   0  0  0  0  0  0  0  0  0  0  0  0
  140.0830   71.0670  224.9420 N   0  0  0  0  0  0  0  0  0  0  0  0
  139.6140   73.2100  223.6260 H   0  0  0  0  0  0  0  0  0  0  0  0
  138.8463   72.9333  220.6949 H   0  0  0  0  0  0  0  0  0  0  0  0
  138.4879   74.3734  221.7152 H   0  0  0  0  0  0  0  0  0  0  0  0
  142.6633   75.7193  220.9397 H   0  0  0  0  0  0  0  0  0  0  0  0
  141.9723   75.9630  219.3074 H   0  0  0  0  0  0  0  0  0  0  0  0
  142.8085   78.0388  220.4411 H   0  0  0  0  0  0  0  0  0  0  0  0
  140.5913   79.2705  219.6968 H   0  0  0  0  0  0  0  0  0  0  0  0
  140.2666   77.8389  218.9230 H   0  0  0  0  0  0  0  0  0  0  0  0
  138.8759   78.3705  221.4770 H   0  0  0  0  0  0  0  0  0  0  0  0
  138.8624   76.0294  221.9586 H   0  0  0  0  0  0  0  0  0  0  0  0
  138.6635   76.2223  220.2021 H   0  0  0  0  0  0  0  0  0  0  0  0
  141.1507   77.2957  222.8467 H   0  0  0  0  0  0  0  0  0  0  0  0
  143.4879   78.7101  222.4246 H   0  0  0  0  0  0  0  0  0  0  0  0
  144.2636   80.7228  223.5970 H   0  0  0  0  0  0  0  0  0  0  0  0
  142.6280   82.3688  224.5197 H   0  0  0  0  0  0  0  0  0  0  0  0
  140.1925   81.9241  224.2216 H   0  0  0  0  0  0  0  0  0  0  0  0
  139.4369   79.8971  223.0444 H   0  0  0  0  0  0  0  0  0  0  0  0
  138.6454   68.8152  222.9763 H   0  0  0  0  0  0  0  0  0  0  0  0
  138.9330   67.3910  224.9720 H   0  0  0  0  0  0  0  0  0  0  0  0
  139.6687   67.1474  227.1648 H   0  0  0  0  0  0  0  0  0  0  0  0
  140.7237   68.0712  229.2363 H   0  0  0  0  0  0  0  0  0  0  0  0
  141.4737   70.4477  229.2261 H   0  0  0  0  0  0  0  0  0  0  0  0
  141.1787   71.8666  227.2287 H   0  0  0  0  0  0  0  0  0  0  0  0
  1  2  2  0
  2  3  1  0
  3  4  1  0
  4  5  1  0
  5  6  2  0
  5  7  1  0
  7  8  1  0
  8  9  1  0
  9 10  1  0
 10 11  1  0
 11 12  1  0
 11 13  1  0
 13 14  1  0
 14 15  2  0
 15 16  1  0
 16 17  2  0
 17 18  1  0
 18 19  2  0
  2 20  1  0
 20 21  2  0
 21 22  1  0
 22 23  2  0
 23 24  1  0
 24 25  2  0
 25 26  1  0
 26 27  2  0
 27 28  1  0
 28 29  2  0
 12  7  1  0
 19 14  1  0
 29 20  1  0
 13  9  1  0
 28 23  1  0
  3 30  1  0
  4 31  1  0
  4 32  1  0
  8 33  1  0
  8 34  1  0
  9 35  1  1
 10 36  1  0
 10 37  1  0
 11 38  1  1
 12 39  1  0
 12 40  1  0
 13 41  1  1
 15 42  1  0
 16 43  1  0
 17 44  1  0
 18 45  1  0
 19 46  1  0
 21 47  1  0
 22 48  1  0
 24 49  1  0
 25 50  1  0
 26 51  1  0
 27 52  1  0
M  END
>  <smiles>  (49) 
O=C(NCC(=O)N1C[C@H]2C[C@@H](C1)C2c1ccccc1)c1ccc2ccccc2n1

>  <score_type>  (49) 
oracle

>  <origin>  (49) 
autodockgpu

>  <m_score__min__energy>  (49) 
-9.5

>  <m_primary>  (49) 
energy

>  <rmsd>  (49) 
1.974609689929665

>  <m_score__min__rmsd>  (49) 
1.974609689929665

>  <meeko>  (49) 
{"free_energy": -9.29, "intermolecular_energy": -10.78, "internal_energy": -1.41, "cluster_size": 36, "cluster_id": 1, "rank_in_cluster": 8}

>  <energy>  (49) 
-6.87

>  <cluster_rmsd>  (49) 
0.62

>  <cluster>  (49) 
4

$$$$

     RDKit          3D

 52 56  0  0  1  0  0  0  0  0999 V2000
  139.5950   73.4520  222.5750 O   0  0  0  0  0  0  0  0  0  0  0  0
  140.2870   72.3850  222.5590 C   0  0  0  0  0  0  0  0  0  0  0  0
  141.1010   72.0150  221.4670 N   0  0  0  0  0  0  0  0  0  0  0  0
  141.1640   72.8780  220.3060 C   0  0  0  0  0  0  0  0  0  0  0  0
  142.0730   74.0220  220.5710 C   0  0  0  0  0  0  0  0  0  0  0  0
  143.2580   73.7380  220.8930 O   0  0  0  0  0  0  0  0  0  0  0  0
  141.5970   75.3610  220.4580 N   0  0  0  0  0  0  0  0  0  0  0  0
  142.4380   76.3630  219.8360 C   0  0  0  0  0  0  0  0  0  0  0  0
  141.9390   77.7350  220.2500 C   0  0  1  0  0  0  0  0  0  0  0  0
  140.4780   77.8060  219.8670 C   0  0  0  0  0  0  0  0  0  0  0  0
  140.1710   77.1390  221.1900 C   0  0  1  0  0  0  0  0  0  0  0  0
  140.2740   75.6270  220.9850 C   0  0  0  0  0  0  0  0  0  0  0  0
  141.4580   77.6500  221.7140 C   0  0  2  0  0  0  0  0  0  0  0  0
  141.5080   78.8990  222.4610 C   0  0  0  0  0  0  0  0  0  0  0  0
  142.7680   79.4280  222.7490 C   0  0  0  0  0  0  0  0  0  0  0  0
  142.9260   80.5990  223.4620 C   0  0  0  0  0  0  0  0  0  0  0  0
  141.8240   81.3030  223.9250 C   0  0  0  0  0  0  0  0  0  0  0  0
  140.5700   80.7980  223.6500 C   0  0  0  0  0  0  0  0  0  0  0  0
  140.4370   79.6160  222.9300 C   0  0  0  0  0  0  0  0  0  0  0  0
  140.2220   71.5070  223.7430 C   0  0  0  0  0  0  0  0  0  0  0  0
  139.6610   70.2500  223.6600 C   0  0  0  0  0  0  0  0  0  0  0  0
  139.5710   69.3850  224.7300 C   0  0  0  0  0  0  0  0  0  0  0  0
  140.0740   69.8140  225.9420 C   0  0  0  0  0  0  0  0  0  0  0  0
  139.9850   68.9570  227.0020 C   0  0  0  0  0  0  0  0  0  0  0  0
  140.4730   69.3360  228.2380 C   0  0  0  0  0  0  0  0  0  0  0  0
  141.0420   70.5930  228.3490 C   0  0  0  0  0  0  0  0  0  0  0  0
  141.1240   71.4520  227.2620 C   0  0  0  0  0  0  0  0  0  0  0  0
  140.6340   71.0730  226.0130 C   0  0  0  0  0  0  0  0  0  0  0  0
  140.7000   71.8860  224.9410 N   0  0  0  0  0  0  0  0  0  0  0  0
  141.6360   71.1250  221.5290 H   0  0  0  0  0  0  0  0  0  0  0  0
  141.5413   72.3048  219.4463 H   0  0  0  0  0  0  0  0  0  0  0  0
  140.1566   73.2612  220.0864 H   0  0  0  0  0  0  0  0  0  0  0  0
  143.4787   76.2313  220.1669 H   0  0  0  0  0  0  0  0  0  0  0  0
  142.3980   76.2619  218.7414 H   0  0  0  0  0  0  0  0  0  0  0  0
  142.6941   78.4608  219.9139 H   0  0  0  0  0  0  0  0  0  0  0  0
  140.0794   78.8260  219.7634 H   0  0  0  0  0  0  0  0  0  0  0  0
  140.1081   77.4006  218.9137 H   0  0  0  0  0  0  0  0  0  0  0  0
  139.2283   77.3067  221.7315 H   0  0  0  0  0  0  0  0  0  0  0  0
  140.1372   75.1054  221.9438 H   0  0  0  0  0  0  0  0  0  0  0  0
  139.4965   75.2704  220.2933 H   0  0  0  0  0  0  0  0  0  0  0  0
  141.9792   77.0845  222.5005 H   0  0  0  0  0  0  0  0  0  0  0  0
  143.6629   78.8944  222.3963 H   0  0  0  0  0  0  0  0  0  0  0  0
  143.9381   80.9787  223.6657 H   0  0  0  0  0  0  0  0  0  0  0  0
  141.9464   82.2361  224.4945 H   0  0  0  0  0  0  0  0  0  0  0  0
  139.6741   81.3312  224.0008 H   0  0  0  0  0  0  0  0  0  0  0  0
  139.4242   79.2378  222.7268 H   0  0  0  0  0  0  0  0  0  0  0  0
  139.2642   69.9199  222.6886 H   0  0  0  0  0  0  0  0  0  0  0  0
  139.1152   68.3897  224.6219 H   0  0  0  0  0  0  0  0  0  0  0  0
  139.5253   67.9662  226.8718 H   0  0  0  0  0  0  0  0  0  0  0  0
  140.4114   68.6614  229.1047 H   0  0  0  0  0  0  0  0  0  0  0  0
  141.4386   70.9188  229.3219 H   0  0  0  0  0  0  0  0  0  0  0  0
  141.5814   72.4445  227.3875 H   0  0  0  0  0  0  0  0  0  0  0  0
  1  2  2  0
  2  3  1  0
  3  4  1  0
  4  5  1  0
  5  6  2  0
  5  7  1  0
  7  8  1  0
  8  9  1  0
  9 10  1  0
 10 11  1  0
 11 12  1  0
 11 13  1  0
 13 14  1  0
 14 15  2  0
 15 16  1  0
 16 17  2  0
 17 18  1  0
 18 19  2  0
  2 20  1  0
 20 21  2  0
 21 22  1  0
 22 23  2  0
 23 24  1  0
 24 25  2  0
 25 26  1  0
 26 27  2  0
 27 28  1  0
 28 29  2  0
 12  7  1  0
 19 14  1  0
 29 20  1  0
 13  9  1  0
 28 23  1  0
  3 30  1  0
  4 31  1  0
  4 32  1  0
  8 33  1  0
  8 34  1  0
  9 35  1  1
 10 36  1  0
 10 37  1  0
 11 38  1  1
 12 39  1  0
 12 40  1  0
 13 41  1  1
 15 42  1  0
 16 43  1  0
 17 44  1  0
 18 45  1  0
 19 46  1  0
 21 47  1  0
 22 48  1  0
 24 49  1  0
 25 50  1  0
 26 51  1  0
 27 52  1  0
M  END
>  <smiles>  (50) 
O=C(NCC(=O)N1C[C@H]2C[C@@H](C1)C2c1ccccc1)c1ccc2ccccc2n1

>  <score_type>  (50) 
oracle

>  <origin>  (50) 
autodockgpu

>  <m_score__min__energy>  (50) 
-9.5

>  <m_primary>  (50) 
energy

>  <rmsd>  (50) 
2.407256019891644

>  <m_score__min__rmsd>  (50) 
2.407256019891644

>  <meeko>  (50) 
{"free_energy": -9.46, "intermolecular_energy": -10.95, "internal_energy": -1.31, "cluster_size": 36, "cluster_id": 1, "rank_in_cluster": 2}

>  <energy>  (50) 
-6.78

>  <cluster_rmsd>  (50) 
0.69

>  <cluster>  (50) 
4

$$$$

     RDKit          3D

 52 56  0  0  1  0  0  0  0  0999 V2000
  141.1410   71.7240  221.8050 O   0  0  0  0  0  0  0  0  0  0  0  0
  140.2090   71.8380  222.6550 C   0  0  0  0  0  0  0  0  0  0  0  0
  139.2660   72.8900  222.4230 N   0  0  0  0  0  0  0  0  0  0  0  0
  139.4740   73.7130  221.2440 C   0  0  0  0  0  0  0  0  0  0  0  0
  140.6690   74.5890  221.3930 C   0  0  0  0  0  0  0  0  0  0  0  0
  141.8300   74.1690  221.4910 O   0  0  0  0  0  0  0  0  0  0  0  0
  140.4460   75.9860  221.4230 N   0  0  0  0  0  0  0  0  0  0  0  0
  141.0500   76.9130  220.4740 C   0  0  0  0  0  0  0  0  0  0  0  0
  140.0020   77.9000  220.1060 C   0  0  1  0  0  0  0  0  0  0  0  0
  138.6040   77.3240  220.3580 C   0  0  0  0  0  0  0  0  0  0  0  0
  138.8390   77.7510  221.8200 C   0  0  1  0  0  0  0  0  0  0  0  0
  139.5760   76.6060  222.4320 C   0  0  0  0  0  0  0  0  0  0  0  0
  139.6790   78.8440  221.2550 C   0  0  1  0  0  0  0  0  0  0  0  0
  140.8120   79.3460  222.0310 C   0  0  0  0  0  0  0  0  0  0  0  0
  141.8880   80.0370  221.5150 C   0  0  0  0  0  0  0  0  0  0  0  0
  142.9350   80.4970  222.2840 C   0  0  0  0  0  0  0  0  0  0  0  0
  142.9510   80.2790  223.6460 C   0  0  0  0  0  0  0  0  0  0  0  0
  141.8850   79.5880  224.1950 C   0  0  0  0  0  0  0  0  0  0  0  0
  140.8450   79.1330  223.4150 C   0  0  0  0  0  0  0  0  0  0  0  0
  140.0940   70.9540  223.8080 C   0  0  0  0  0  0  0  0  0  0  0  0
  139.3710   69.7900  223.6510 C   0  0  0  0  0  0  0  0  0  0  0  0
  139.1960   68.8840  224.6640 C   0  0  0  0  0  0  0  0  0  0  0  0
  139.7750   69.1670  225.8840 C   0  0  0  0  0  0  0  0  0  0  0  0
  139.6330   68.2910  226.9490 C   0  0  0  0  0  0  0  0  0  0  0  0
  140.2060   68.5700  228.1630 C   0  0  0  0  0  0  0  0  0  0  0  0
  140.9390   69.7420  228.3370 C   0  0  0  0  0  0  0  0  0  0  0  0
  141.0600   70.5960  227.2540 C   0  0  0  0  0  0  0  0  0  0  0  0
  140.4950   70.3370  226.0260 C   0  0  0  0  0  0  0  0  0  0  0  0
  140.6510   71.2170  225.0020 N   0  0  0  0  0  0  0  0  0  0  0  0
  138.4700   73.0420  223.0860 H   0  0  0  0  0  0  0  0  0  0  0  0
  139.6175   73.0581  220.3719 H   0  0  0  0  0  0  0  0  0  0  0  0
  138.5905   74.3547  221.1111 H   0  0  0  0  0  0  0  0  0  0  0  0
  141.9055   77.4254  220.9383 H   0  0  0  0  0  0  0  0  0  0  0  0
  141.4184   76.3807  219.5846 H   0  0  0  0  0  0  0  0  0  0  0  0
  140.3540   78.2526  219.1253 H   0  0  0  0  0  0  0  0  0  0  0  0
  137.7831   77.8455  219.8441 H   0  0  0  0  0  0  0  0  0  0  0  0
  138.3155   76.3022  220.0705 H   0  0  0  0  0  0  0  0  0  0  0  0
  138.0882   78.0085  222.5816 H   0  0  0  0  0  0  0  0  0  0  0  0
  140.1886   76.9704  223.2698 H   0  0  0  0  0  0  0  0  0  0  0  0
  138.8548   75.8616  222.8006 H   0  0  0  0  0  0  0  0  0  0  0  0
  139.2582   79.8486  221.1010 H   0  0  0  0  0  0  0  0  0  0  0  0
  141.9119   80.2313  220.4326 H   0  0  0  0  0  0  0  0  0  0  0  0
  143.7638   81.0419  221.8084 H   0  0  0  0  0  0  0  0  0  0  0  0
  143.7799   80.6408  224.2722 H   0  0  0  0  0  0  0  0  0  0  0  0
  141.8679   79.3979  225.2783 H   0  0  0  0  0  0  0  0  0  0  0  0
  140.0176   78.5873  223.8921 H   0  0  0  0  0  0  0  0  0  0  0  0
  138.9159   69.5802  222.6718 H   0  0  0  0  0  0  0  0  0  0  0  0
  138.6142   67.9632  224.5099 H   0  0  0  0  0  0  0  0  0  0  0  0
  139.0555   67.3639  226.8190 H   0  0  0  0  0  0  0  0  0  0  0  0
  140.0868   67.8674  229.0009 H   0  0  0  0  0  0  0  0  0  0  0  0
  141.4065   69.9811  229.3036 H   0  0  0  0  0  0  0  0  0  0  0  0
  141.6348   71.5253  227.3810 H   0  0  0  0  0  0  0  0  0  0  0  0
  1  2  2  0
  2  3  1  0
  3  4  1  0
  4  5  1  0
  5  6  2  0
  5  7  1  0
  7  8  1  0
  8  9  1  0
  9 10  1  0
 10 11  1  0
 11 12  1  0
 11 13  1  0
 13 14  1  0
 14 15  2  0
 15 16  1  0
 16 17  2  0
 17 18  1  0
 18 19  2  0
  2 20  1  0
 20 21  2  0
 21 22  1  0
 22 23  2  0
 23 24  1  0
 24 25  2  0
 25 26  1  0
 26 27  2  0
 27 28  1  0
 28 29  2  0
 12  7  1  0
 19 14  1  0
 29 20  1  0
 13  9  1  0
 28 23  1  0
  3 30  1  0
  4 31  1  0
  4 32  1  0
  8 33  1  0
  8 34  1  0
  9 35  1  6
 10 36  1  0
 10 37  1  0
 11 38  1  1
 12 39  1  0
 12 40  1  0
 13 41  1  6
 15 42  1  0
 16 43  1  0
 17 44  1  0
 18 45  1  0
 19 46  1  0
 21 47  1  0
 22 48  1  0
 24 49  1  0
 25 50  1  0
 26 51  1  0
 27 52  1  0
M  END
>  <smiles>  (51) 
O=C(NCC(=O)N1C[C@H]2C[C@@H](C1)C2c1ccccc1)c1ccc2ccccc2n1

>  <score_type>  (51) 
oracle

>  <origin>  (51) 
autodockgpu

>  <m_score__min__energy>  (51) 
-9.1899999999999995

>  <m_primary>  (51) 
energy

>  <rmsd>  (51) 
2.5370737152549885

>  <m_score__min__rmsd>  (51) 
2.5370737152549885

>  <meeko>  (51) 
{"free_energy": -8.97, "intermolecular_energy": -10.47, "internal_energy": -1.09, "cluster_size": 35, "cluster_id": 1, "rank_in_cluster": 30}

>  <energy>  (51) 
-9.19

>  <cluster_rmsd>  (51) 
0.0

>  <cluster>  (51) 
1

$$$$

     RDKit          3D

 52 56  0  0  1  0  0  0  0  0999 V2000
  139.5430   73.3910  222.3420 O   0  0  0  0  0  0  0  0  0  0  0  0
  140.3750   72.4610  222.5610 C   0  0  0  0  0  0  0  0  0  0  0  0
  141.4330   72.3220  221.6060 N   0  0  0  0  0  0  0  0  0  0  0  0
  141.4440   73.2560  220.4940 C   0  0  0  0  0  0  0  0  0  0  0  0
  142.3520   74.4080  220.7570 C   0  0  0  0  0  0  0  0  0  0  0  0
  143.5840   74.3140  220.8470 O   0  0  0  0  0  0  0  0  0  0  0  0
  141.7540   75.6800  220.9100 N   0  0  0  0  0  0  0  0  0  0  0  0
  142.1480   76.8490  220.1330 C   0  0  0  0  0  0  0  0  0  0  0  0
  140.9000   77.5650  219.7630 C   0  0  1  0  0  0  0  0  0  0  0  0
  139.6990   76.6140  219.8050 C   0  0  0  0  0  0  0  0  0  0  0  0
  139.7010   76.8940  221.3200 C   0  0  1  0  0  0  0  0  0  0  0  0
  140.6760   75.9130  221.8820 C   0  0  0  0  0  0  0  0  0  0  0  0
  140.2480   78.2330  220.9650 C   0  0  1  0  0  0  0  0  0  0  0  0
  141.1410   78.9100  221.9050 C   0  0  0  0  0  0  0  0  0  0  0  0
  142.1180   79.8200  221.5610 C   0  0  0  0  0  0  0  0  0  0  0  0
  142.9370   80.4400  222.4800 C   0  0  0  0  0  0  0  0  0  0  0  0
  142.8080   80.1660  223.8260 C   0  0  0  0  0  0  0  0  0  0  0  0
  141.8370   79.2570  224.2040 C   0  0  0  0  0  0  0  0  0  0  0  0
  141.0250   78.6440  223.2750 C   0  0  0  0  0  0  0  0  0  0  0  0
  140.2700   71.5760  223.7130 C   0  0  0  0  0  0  0  0  0  0  0  0
  139.6560   70.3550  223.5290 C   0  0  0  0  0  0  0  0  0  0  0  0
  139.5010   69.4430  224.5400 C   0  0  0  0  0  0  0  0  0  0  0  0
  139.9880   69.7790  225.7870 C   0  0  0  0  0  0  0  0  0  0  0  0
  139.8620   68.9000  226.8510 C   0  0  0  0  0  0  0  0  0  0  0  0
  140.3440   69.2310  228.0910 C   0  0  0  0  0  0  0  0  0  0  0  0
  140.9680   70.4610  228.2920 C   0  0  0  0  0  0  0  0  0  0  0  0
  141.0760   71.3160  227.2090 C   0  0  0  0  0  0  0  0  0  0  0  0
  140.6010   71.0050  225.9550 C   0  0  0  0  0  0  0  0  0  0  0  0
  140.7390   71.8900  224.9330 N   0  0  0  0  0  0  0  0  0  0  0  0
  142.1560   71.5750  221.7240 H   0  0  0  0  0  0  0  0  0  0  0  0
  141.7855   72.7310  219.5897 H   0  0  0  0  0  0  0  0  0  0  0  0
  140.4237   73.6445  220.3597 H   0  0  0  0  0  0  0  0  0  0  0  0
  142.7943   77.5034  220.7363 H   0  0  0  0  0  0  0  0  0  0  0  0
  142.7114   76.5526  219.2359 H   0  0  0  0  0  0  0  0  0  0  0  0
  141.2124   78.1223  218.8676 H   0  0  0  0  0  0  0  0  0  0  0  0
  138.8062   76.9632  219.2655 H   0  0  0  0  0  0  0  0  0  0  0  0
  139.7232   75.5985  219.3828 H   0  0  0  0  0  0  0  0  0  0  0  0
  138.8552   76.8440  222.0216 H   0  0  0  0  0  0  0  0  0  0  0  0
  141.1027   76.3131  222.8136 H   0  0  0  0  0  0  0  0  0  0  0  0
  140.1608   74.9640  222.0919 H   0  0  0  0  0  0  0  0  0  0  0  0
  139.5805   79.1026  220.8744 H   0  0  0  0  0  0  0  0  0  0  0  0
  142.2509   80.0641  220.4967 H   0  0  0  0  0  0  0  0  0  0  0  0
  143.6977   81.1573  222.1383 H   0  0  0  0  0  0  0  0  0  0  0  0
  143.4541   80.6529  224.5713 H   0  0  0  0  0  0  0  0  0  0  0  0
  141.7100   79.0180  225.2702 H   0  0  0  0  0  0  0  0  0  0  0  0
  140.2653   77.9265  223.6186 H   0  0  0  0  0  0  0  0  0  0  0  0
  139.2746   70.1025  222.5286 H   0  0  0  0  0  0  0  0  0  0  0  0
  139.0057   68.4768  224.3638 H   0  0  0  0  0  0  0  0  0  0  0  0
  139.3706   67.9276  226.6992 H   0  0  0  0  0  0  0  0  0  0  0  0
  140.2382   68.5252  228.9281 H   0  0  0  0  0  0  0  0  0  0  0  0
  141.3619   70.7431  229.2795 H   0  0  0  0  0  0  0  0  0  0  0  0
  141.5646   72.2903  227.3574 H   0  0  0  0  0  0  0  0  0  0  0  0
  1  2  2  0
  2  3  1  0
  3  4  1  0
  4  5  1  0
  5  6  2  0
  5  7  1  0
  7  8  1  0
  8  9  1  0
  9 10  1  0
 10 11  1  0
 11 12  1  0
 11 13  1  0
 13 14  1  0
 14 15  2  0
 15 16  1  0
 16 17  2  0
 17 18  1  0
 18 19  2  0
  2 20  1  0
 20 21  2  0
 21 22  1  0
 22 23  2  0
 23 24  1  0
 24 25  2  0
 25 26  1  0
 26 27  2  0
 27 28  1  0
 28 29  2  0
 12  7  1  0
 19 14  1  0
 29 20  1  0
 13  9  1  0
 28 23  1  0
  3 30  1  0
  4 31  1  0
  4 32  1  0
  8 33  1  0
  8 34  1  0
  9 35  1  6
 10 36  1  0
 10 37  1  0
 11 38  1  1
 12 39  1  0
 12 40  1  0
 13 41  1  6
 15 42  1  0
 16 43  1  0
 17 44  1  0
 18 45  1  0
 19 46  1  0
 21 47  1  0
 22 48  1  0
 24 49  1  0
 25 50  1  0
 26 51  1  0
 27 52  1  0
M  END
>  <smiles>  (52) 
O=C(NCC(=O)N1C[C@H]2C[C@@H](C1)C2c1ccccc1)c1ccc2ccccc2n1

>  <score_type>  (52) 
oracle

>  <origin>  (52) 
autodockgpu

>  <m_score__min__energy>  (52) 
-9.1899999999999995

>  <m_primary>  (52) 
energy

>  <rmsd>  (52) 
2.6484623384886974

>  <m_score__min__rmsd>  (52) 
2.6484623384886974

>  <meeko>  (52) 
{"free_energy": -9.19, "intermolecular_energy": -10.68, "internal_energy": -1.39, "cluster_size": 35, "cluster_id": 1, "rank_in_cluster": 2}

>  <energy>  (52) 
-9.19

>  <cluster_rmsd>  (52) 
0.05

>  <cluster>  (52) 
1

$$$$

     RDKit          3D

 52 56  0  0  1  0  0  0  0  0999 V2000
  139.4460   73.4060  222.3450 O   0  0  0  0  0  0  0  0  0  0  0  0
  140.2990   72.4910  222.5520 C   0  0  0  0  0  0  0  0  0  0  0  0
  141.3630   72.3920  221.5990 N   0  0  0  0  0  0  0  0  0  0  0  0
  141.3560   73.3430  220.5010 C   0  0  0  0  0  0  0  0  0  0  0  0
  142.2150   74.5230  220.7950 C   0  0  0  0  0  0  0  0  0  0  0  0
  143.4540   74.4900  220.8230 O   0  0  0  0  0  0  0  0  0  0  0  0
  141.5620   75.7500  221.0570 N   0  0  0  0  0  0  0  0  0  0  0  0
  141.6620   76.9130  220.1840 C   0  0  0  0  0  0  0  0  0  0  0  0
  140.3050   77.5110  220.1020 C   0  0  1  0  0  0  0  0  0  0  0  0
  139.2330   76.4710  220.4460 C   0  0  0  0  0  0  0  0  0  0  0  0
  139.5630   76.8140  221.9120 C   0  0  1  0  0  0  0  0  0  0  0  0
  140.7230   75.9370  222.2490 C   0  0  0  0  0  0  0  0  0  0  0  0
  139.8950   78.1760  221.4090 C   0  0  1  0  0  0  0  0  0  0  0  0
  140.9200   78.9600  222.0970 C   0  0  0  0  0  0  0  0  0  0  0  0
  141.6970   79.9400  221.5170 C   0  0  0  0  0  0  0  0  0  0  0  0
  142.6510   80.6600  222.2030 C   0  0  0  0  0  0  0  0  0  0  0  0
  142.8740   80.4210  223.5440 C   0  0  0  0  0  0  0  0  0  0  0  0
  142.1110   79.4430  224.1550 C   0  0  0  0  0  0  0  0  0  0  0  0
  141.1610   78.7310  223.4570 C   0  0  0  0  0  0  0  0  0  0  0  0
  140.2120   71.5870  223.6910 C   0  0  0  0  0  0  0  0  0  0  0  0
  139.6160   70.3600  223.4880 C   0  0  0  0  0  0  0  0  0  0  0  0
  139.4790   69.4290  224.4850 C   0  0  0  0  0  0  0  0  0  0  0  0
  139.9640   69.7540  225.7360 C   0  0  0  0  0  0  0  0  0  0  0  0
  139.8540   68.8560  226.7860 C   0  0  0  0  0  0  0  0  0  0  0  0
  140.3340   69.1740  228.0300 C   0  0  0  0  0  0  0  0  0  0  0  0
  140.9390   70.4110  228.2500 C   0  0  0  0  0  0  0  0  0  0  0  0
  141.0310   71.2850  227.1800 C   0  0  0  0  0  0  0  0  0  0  0  0
  140.5570   70.9860  225.9220 C   0  0  0  0  0  0  0  0  0  0  0  0
  140.6790   71.8890  224.9140 N   0  0  0  0  0  0  0  0  0  0  0  0
  142.1030   71.6590  221.7070 H   0  0  0  0  0  0  0  0  0  0  0  0
  141.7309   72.8451  219.5946 H   0  0  0  0  0  0  0  0  0  0  0  0
  140.3240   73.6951  220.3563 H   0  0  0  0  0  0  0  0  0  0  0  0
  142.3712   77.6413  220.6043 H   0  0  0  0  0  0  0  0  0  0  0  0
  142.0257   76.6255  219.1865 H   0  0  0  0  0  0  0  0  0  0  0  0
  140.3512   78.0526  219.1457 H   0  0  0  0  0  0  0  0  0  0  0  0
  138.2127   76.7260  220.1237 H   0  0  0  0  0  0  0  0  0  0  0  0
  139.2457   75.4438  220.0528 H   0  0  0  0  0  0  0  0  0  0  0  0
  138.9111   76.7274  222.7938 H   0  0  0  0  0  0  0  0  0  0  0  0
  141.3183   76.4072  223.0456 H   0  0  0  0  0  0  0  0  0  0  0  0
  140.3542   74.9595  222.5933 H   0  0  0  0  0  0  0  0  0  0  0  0
  139.1524   78.9860  221.4588 H   0  0  0  0  0  0  0  0  0  0  0  0
  141.5475   80.1590  220.4494 H   0  0  0  0  0  0  0  0  0  0  0  0
  143.2377   81.4291  221.6792 H   0  0  0  0  0  0  0  0  0  0  0  0
  143.6309   80.9877  224.1060 H   0  0  0  0  0  0  0  0  0  0  0  0
  142.2663   79.2288  225.2227 H   0  0  0  0  0  0  0  0  0  0  0  0
  140.5758   77.9617  223.9821 H   0  0  0  0  0  0  0  0  0  0  0  0
  139.2348   70.1184  222.4848 H   0  0  0  0  0  0  0  0  0  0  0  0
  138.9996   68.4574  224.2949 H   0  0  0  0  0  0  0  0  0  0  0  0
  139.3770   67.8789  226.6195 H   0  0  0  0  0  0  0  0  0  0  0  0
  140.2419   68.4528  228.8554 H   0  0  0  0  0  0  0  0  0  0  0  0
  141.3304   70.6836  229.2412 H   0  0  0  0  0  0  0  0  0  0  0  0
  141.5050   72.2643  227.3424 H   0  0  0  0  0  0  0  0  0  0  0  0
  1  2  2  0
  2  3  1  0
  3  4  1  0
  4  5  1  0
  5  6  2  0
  5  7  1  0
  7  8  1  0
  8  9  1  0
  9 10  1  0
 10 11  1  0
 11 12  1  0
 11 13  1  0
 13 14  1  0
 14 15  2  0
 15 16  1  0
 16 17  2  0
 17 18  1  0
 18 19  2  0
  2 20  1  0
 20 21  2  0
 21 22  1  0
 22 23  2  0
 23 24  1  0
 24 25  2  0
 25 26  1  0
 26 27  2  0
 27 28  1  0
 28 29  2  0
 12  7  1  0
 19 14  1  0
 29 20  1  0
 13  9  1  0
 28 23  1  0
  3 30  1  0
  4 31  1  0
  4 32  1  0
  8 33  1  0
  8 34  1  0
  9 35  1  6
 10 36  1  0
 10 37  1  0
 11 38  1  1
 12 39  1  0
 12 40  1  0
 13 41  1  6
 15 42  1  0
 16 43  1  0
 17 44  1  0
 18 45  1  0
 19 46  1  0
 21 47  1  0
 22 48  1  0
 24 49  1  0
 25 50  1  0
 26 51  1  0
 27 52  1  0
M  END
>  <smiles>  (53) 
O=C(NCC(=O)N1C[C@H]2C[C@@H](C1)C2c1ccccc1)c1ccc2ccccc2n1

>  <score_type>  (53) 
oracle

>  <origin>  (53) 
autodockgpu

>  <m_score__min__energy>  (53) 
-9.1899999999999995

>  <m_primary>  (53) 
energy

>  <rmsd>  (53) 
2.812801284408762

>  <m_score__min__rmsd>  (53) 
2.812801284408762

>  <meeko>  (53) 
{"free_energy": -8.98, "intermolecular_energy": -10.47, "internal_energy": -1.45, "cluster_size": 35, "cluster_id": 1, "rank_in_cluster": 29}

>  <energy>  (53) 
-9.17

>  <cluster_rmsd>  (53) 
0.18

>  <cluster>  (53) 
1

$$$$

     RDKit          3D

 52 56  0  0  1  0  0  0  0  0999 V2000
  141.1550   72.6730  221.9680 O   0  0  0  0  0  0  0  0  0  0  0  0
  140.1250   72.5860  222.7010 C   0  0  0  0  0  0  0  0  0  0  0  0
  139.0340   73.4500  222.3640 N   0  0  0  0  0  0  0  0  0  0  0  0
  139.2190   74.3300  221.2230 C   0  0  0  0  0  0  0  0  0  0  0  0
  138.7890   75.7220  221.5320 C   0  0  0  0  0  0  0  0  0  0  0  0
  137.6910   76.0170  222.0240 O   0  0  0  0  0  0  0  0  0  0  0  0
  139.7020   76.7610  221.2370 N   0  0  0  0  0  0  0  0  0  0  0  0
  141.1140   76.7110  221.5970 C   0  0  0  0  0  0  0  0  0  0  0  0
  141.8750   77.2540  220.4430 C   0  0  1  0  0  0  0  0  0  0  0  0
  141.0540   77.1430  219.1540 C   0  0  0  0  0  0  0  0  0  0  0  0
  140.3770   78.4420  219.6330 C   0  0  1  0  0  0  0  0  0  0  0  0
  139.2820   77.9820  220.5360 C   0  0  0  0  0  0  0  0  0  0  0  0
  141.6790   78.7550  220.2860 C   0  0  1  0  0  0  0  0  0  0  0  0
  141.6870   79.5510  221.5130 C   0  0  0  0  0  0  0  0  0  0  0  0
  142.5570   79.3780  222.5690 C   0  0  0  0  0  0  0  0  0  0  0  0
  142.5330   80.1540  223.7080 C   0  0  0  0  0  0  0  0  0  0  0  0
  141.6080   81.1690  223.8420 C   0  0  0  0  0  0  0  0  0  0  0  0
  140.7210   81.3670  222.8000 C   0  0  0  0  0  0  0  0  0  0  0  0
  140.7550   80.5840  221.6680 C   0  0  0  0  0  0  0  0  0  0  0  0
  140.0450   71.6640  223.8260 C   0  0  0  0  0  0  0  0  0  0  0  0
  139.3350   70.4950  223.6450 C   0  0  0  0  0  0  0  0  0  0  0  0
  139.1930   69.5540  224.6310 C   0  0  0  0  0  0  0  0  0  0  0  0
  139.7920   69.8060  225.8490 C   0  0  0  0  0  0  0  0  0  0  0  0
  139.6830   68.8940  226.8870 C   0  0  0  0  0  0  0  0  0  0  0  0
  140.2770   69.1410  228.0980 C   0  0  0  0  0  0  0  0  0  0  0  0
  140.9970   70.3180  228.2960 C   0  0  0  0  0  0  0  0  0  0  0  0
  141.0850   71.2080  227.2390 C   0  0  0  0  0  0  0  0  0  0  0  0
  140.4980   70.9810  226.0150 C   0  0  0  0  0  0  0  0  0  0  0  0
  140.6220   71.8960  225.0170 N   0  0  0  0  0  0  0  0  0  0  0  0
  138.1520   73.4310  222.9270 H   0  0  0  0  0  0  0  0  0  0  0  0
  140.2837   74.3378  220.9465 H   0  0  0  0  0  0  0  0  0  0  0  0
  138.6018   73.9542  220.3936 H   0  0  0  0  0  0  0  0  0  0  0  0
  141.2976   77.3230  222.4924 H   0  0  0  0  0  0  0  0  0  0  0  0
  141.4255   75.6806  221.8232 H   0  0  0  0  0  0  0  0  0  0  0  0
  142.8640   76.7934  220.5836 H   0  0  0  0  0  0  0  0  0  0  0  0
  141.6314   77.2321  218.2220 H   0  0  0  0  0  0  0  0  0  0  0  0
  140.4905   76.2396  218.8777 H   0  0  0  0  0  0  0  0  0  0  0  0
  139.8964   79.2227  219.0251 H   0  0  0  0  0  0  0  0  0  0  0  0
  139.0596   78.7687  221.2720 H   0  0  0  0  0  0  0  0  0  0  0  0
  138.3818   77.7702  219.9404 H   0  0  0  0  0  0  0  0  0  0  0  0
  142.4138   79.4028  219.7856 H   0  0  0  0  0  0  0  0  0  0  0  0
  143.3096   78.5788  222.4987 H   0  0  0  0  0  0  0  0  0  0  0  0
  143.2557   79.9629  224.5150 H   0  0  0  0  0  0  0  0  0  0  0  0
  141.5774   81.7974  224.7443 H   0  0  0  0  0  0  0  0  0  0  0  0
  139.9712   82.1682  222.8772 H   0  0  0  0  0  0  0  0  0  0  0  0
  140.0299   80.7754  220.8633 H   0  0  0  0  0  0  0  0  0  0  0  0
  138.8633   70.3106  222.6685 H   0  0  0  0  0  0  0  0  0  0  0  0
  138.6216   68.6301  224.4580 H   0  0  0  0  0  0  0  0  0  0  0  0
  139.1150   67.9639  226.7380 H   0  0  0  0  0  0  0  0  0  0  0  0
  140.1852   68.4094  228.9143 H   0  0  0  0  0  0  0  0  0  0  0  0
  141.4797   70.5328  229.2608 H   0  0  0  0  0  0  0  0  0  0  0  0
  141.6506   72.1402  227.3843 H   0  0  0  0  0  0  0  0  0  0  0  0
  1  2  2  0
  2  3  1  0
  3  4  1  0
  4  5  1  0
  5  6  2  0
  5  7  1  0
  7  8  1  0
  8  9  1  0
  9 10  1  0
 10 11  1  0
 11 12  1  0
 11 13  1  0
 13 14  1  0
 14 15  2  0
 15 16  1  0
 16 17  2  0
 17 18  1  0
 18 19  2  0
  2 20  1  0
 20 21  2  0
 21 22  1  0
 22 23  2  0
 23 24  1  0
 24 25  2  0
 25 26  1  0
 26 27  2  0
 27 28  1  0
 28 29  2  0
 12  7  1  0
 19 14  1  0
 29 20  1  0
 13  9  1  0
 28 23  1  0
  3 30  1  0
  4 31  1  0
  4 32  1  0
  8 33  1  0
  8 34  1  0
  9 35  1  6
 10 36  1  0
 10 37  1  0
 11 38  1  6
 12 39  1  0
 12 40  1  0
 13 41  1  6
 15 42  1  0
 16 43  1  0
 17 44  1  0
 18 45  1  0
 19 46  1  0
 21 47  1  0
 22 48  1  0
 24 49  1  0
 25 50  1  0
 26 51  1  0
 27 52  1  0
M  END
>  <smiles>  (54) 
O=C(NCC(=O)N1C[C@H]2C[C@@H](C1)C2c1ccccc1)c1ccc2ccccc2n1

>  <score_type>  (54) 
oracle

>  <origin>  (54) 
autodockgpu

>  <m_score__min__energy>  (54) 
-9.1899999999999995

>  <m_primary>  (54) 
energy

>  <rmsd>  (54) 
2.1806600024229774

>  <m_score__min__rmsd>  (54) 
2.1806600024229774

>  <meeko>  (54) 
{"free_energy": -9.01, "intermolecular_energy": -10.5, "internal_energy": -1.36, "cluster_size": 35, "cluster_id": 1, "rank_in_cluster": 27}

>  <energy>  (54) 
-9.16

>  <cluster_rmsd>  (54) 
0.11

>  <cluster>  (54) 
1

$$$$

     RDKit          3D

 52 56  0  0  1  0  0  0  0  0999 V2000
  141.1250   71.7960  221.5260 O   0  0  0  0  0  0  0  0  0  0  0  0
  140.2920   72.1800  222.4000 C   0  0  0  0  0  0  0  0  0  0  0  0
  139.5120   73.3330  222.0660 N   0  0  0  0  0  0  0  0  0  0  0  0
  139.7530   73.9390  220.7690 C   0  0  0  0  0  0  0  0  0  0  0  0
  140.7920   75.0030  220.8470 C   0  0  0  0  0  0  0  0  0  0  0  0
  141.9790   74.8380  220.5350 O   0  0  0  0  0  0  0  0  0  0  0  0
  140.3800   76.2750  221.3090 N   0  0  0  0  0  0  0  0  0  0  0  0
  140.4240   77.4780  220.4860 C   0  0  0  0  0  0  0  0  0  0  0  0
  139.1740   78.2330  220.7560 C   0  0  1  0  0  0  0  0  0  0  0  0
  138.0870   77.3020  221.3020 C   0  0  0  0  0  0  0  0  0  0  0  0
  138.7890   77.4990  222.6600 C   0  0  1  0  0  0  0  0  0  0  0  0
  139.8730   76.4720  222.6730 C   0  0  0  0  0  0  0  0  0  0  0  0
  139.1680   78.8460  222.1500 C   0  0  1  0  0  0  0  0  0  0  0  0
  140.4160   79.4560  222.6050 C   0  0  0  0  0  0  0  0  0  0  0  0
  141.0530   79.1750  223.7950 C   0  0  0  0  0  0  0  0  0  0  0  0
  142.2340   79.7700  224.1840 C   0  0  0  0  0  0  0  0  0  0  0  0
  142.8470   80.7020  223.3730 C   0  0  0  0  0  0  0  0  0  0  0  0
  142.2330   81.0060  222.1710 C   0  0  0  0  0  0  0  0  0  0  0  0
  141.0530   80.4040  221.7940 C   0  0  0  0  0  0  0  0  0  0  0  0
  140.1300   71.4950  223.6760 C   0  0  0  0  0  0  0  0  0  0  0  0
  139.3420   70.3630  223.6980 C   0  0  0  0  0  0  0  0  0  0  0  0
  139.1190   69.6380  224.8390 C   0  0  0  0  0  0  0  0  0  0  0  0
  139.7150   70.0760  226.0040 C   0  0  0  0  0  0  0  0  0  0  0  0
  139.5270   69.3870  227.1920 C   0  0  0  0  0  0  0  0  0  0  0  0
  140.1180   69.8190  228.3510 C   0  0  0  0  0  0  0  0  0  0  0  0
  140.9160   70.9620  228.3440 C   0  0  0  0  0  0  0  0  0  0  0  0
  141.0830   71.6270  227.1420 C   0  0  0  0  0  0  0  0  0  0  0  0
  140.5000   71.2120  225.9650 C   0  0  0  0  0  0  0  0  0  0  0  0
  140.7030   71.9100  224.8180 N   0  0  0  0  0  0  0  0  0  0  0  0
  138.8040   73.7060  222.7420 H   0  0  0  0  0  0  0  0  0  0  0  0
  140.0903   73.1610  220.0683 H   0  0  0  0  0  0  0  0  0  0  0  0
  138.8150   74.3980  220.4234 H   0  0  0  0  0  0  0  0  0  0  0  0
  141.2993   78.0877  220.7543 H   0  0  0  0  0  0  0  0  0  0  0  0
  140.5060   77.2219  219.4194 H   0  0  0  0  0  0  0  0  0  0  0  0
  139.0663   78.8326  219.8401 H   0  0  0  0  0  0  0  0  0  0  0  0
  137.0613   77.6951  221.2438 H   0  0  0  0  0  0  0  0  0  0  0  0
  137.8761   76.3108  220.8742 H   0  0  0  0  0  0  0  0  0  0  0  0
  138.3536   77.4253  223.6675 H   0  0  0  0  0  0  0  0  0  0  0  0
  140.6926   76.8127  223.3227 H   0  0  0  0  0  0  0  0  0  0  0  0
  139.4718   75.5216  223.0549 H   0  0  0  0  0  0  0  0  0  0  0  0
  138.5682   79.7306  222.4102 H   0  0  0  0  0  0  0  0  0  0  0  0
  140.5946   78.4370  224.4697 H   0  0  0  0  0  0  0  0  0  0  0  0
  142.6905   79.4997  225.1476 H   0  0  0  0  0  0  0  0  0  0  0  0
  143.7890   81.1857  223.6707 H   0  0  0  0  0  0  0  0  0  0  0  0
  142.6976   81.7449  221.5016 H   0  0  0  0  0  0  0  0  0  0  0  0
  140.5984   80.6751  220.8297 H   0  0  0  0  0  0  0  0  0  0  0  0
  138.8733   70.0286  222.7607 H   0  0  0  0  0  0  0  0  0  0  0  0
  138.4868   68.7379  224.8268 H   0  0  0  0  0  0  0  0  0  0  0  0
  138.8976   68.4850  227.2049 H   0  0  0  0  0  0  0  0  0  0  0  0
  139.9624   69.2632  229.2874 H   0  0  0  0  0  0  0  0  0  0  0  0
  141.3975   71.3237  229.2645 H   0  0  0  0  0  0  0  0  0  0  0  0
  141.7111   72.5299  227.1257 H   0  0  0  0  0  0  0  0  0  0  0  0
  1  2  2  0
  2  3  1  0
  3  4  1  0
  4  5  1  0
  5  6  2  0
  5  7  1  0
  7  8  1  0
  8  9  1  0
  9 10  1  0
 10 11  1  0
 11 12  1  0
 11 13  1  0
 13 14  1  0
 14 15  2  0
 15 16  1  0
 16 17  2  0
 17 18  1  0
 18 19  2  0
  2 20  1  0
 20 21  2  0
 21 22  1  0
 22 23  2  0
 23 24  1  0
 24 25  2  0
 25 26  1  0
 26 27  2  0
 27 28  1  0
 28 29  2  0
 12  7  1  0
 19 14  1  0
 29 20  1  0
 13  9  1  0
 28 23  1  0
  3 30  1  0
  4 31  1  0
  4 32  1  0
  8 33  1  0
  8 34  1  0
  9 35  1  6
 10 36  1  0
 10 37  1  0
 11 38  1  1
 12 39  1  0
 12 40  1  0
 13 41  1  6
 15 42  1  0
 16 43  1  0
 17 44  1  0
 18 45  1  0
 19 46  1  0
 21 47  1  0
 22 48  1  0
 24 49  1  0
 25 50  1  0
 26 51  1  0
 27 52  1  0
M  END
>  <smiles>  (55) 
O=C(NCC(=O)N1C[C@H]2C[C@@H](C1)C2c1ccccc1)c1ccc2ccccc2n1

>  <score_type>  (55) 
oracle

>  <origin>  (55) 
autodockgpu

>  <m_score__min__energy>  (55) 
-9.1899999999999995

>  <m_primary>  (55) 
energy

>  <rmsd>  (55) 
2.915644926173705

>  <m_score__min__rmsd>  (55) 
2.915644926173705

>  <meeko>  (55) 
{"free_energy": -9.01, "intermolecular_energy": -10.5, "internal_energy": -1.35, "cluster_size": 35, "cluster_id": 1, "rank_in_cluster": 26}

>  <energy>  (55) 
-9.15

>  <cluster_rmsd>  (55) 
1.63

>  <cluster>  (55) 
1

$$$$

     RDKit          3D

 52 56  0  0  1  0  0  0  0  0999 V2000
  140.4570   74.4520  221.9920 O   0  0  0  0  0  0  0  0  0  0  0  0
  139.5440   75.3280  222.0450 C   0  0  0  0  0  0  0  0  0  0  0  0
  138.2210   74.8830  221.7260 N   0  0  0  0  0  0  0  0  0  0  0  0
  138.0630   73.4820  221.3780 C   0  0  0  0  0  0  0  0  0  0  0  0
  137.3630   72.7270  222.4540 C   0  0  0  0  0  0  0  0  0  0  0  0
  136.1730   72.8900  222.7550 O   0  0  0  0  0  0  0  0  0  0  0  0
  138.1200   71.7680  223.1670 N   0  0  0  0  0  0  0  0  0  0  0  0
  137.5590   70.9260  224.2170 C   0  0  0  0  0  0  0  0  0  0  0  0
  138.1250   69.5650  224.0300 C   0  0  1  0  0  0  0  0  0  0  0  0
  138.5990   69.3700  222.5860 C   0  0  0  0  0  0  0  0  0  0  0  0
  139.8730   70.1040  223.0470 C   0  0  1  0  0  0  0  0  0  0  0  0
  139.5470   71.5530  222.8930 C   0  0  0  0  0  0  0  0  0  0  0  0
  139.6040   69.5100  224.3860 C   0  0  1  0  0  0  0  0  0  0  0  0
  140.0190   70.2370  225.5850 C   0  0  0  0  0  0  0  0  0  0  0  0
  139.5560   70.0000  226.8620 C   0  0  0  0  0  0  0  0  0  0  0  0
  139.9770   70.7070  227.9670 C   0  0  0  0  0  0  0  0  0  0  0  0
  140.9100   71.7140  227.8380 C   0  0  0  0  0  0  0  0  0  0  0  0
  141.3950   71.9770  226.5690 C   0  0  0  0  0  0  0  0  0  0  0  0
  140.9650   71.2640  225.4730 C   0  0  0  0  0  0  0  0  0  0  0  0
  139.8130   76.7130  222.4080 C   0  0  0  0  0  0  0  0  0  0  0  0
  138.7300   77.5360  222.6370 C   0  0  0  0  0  0  0  0  0  0  0  0
  138.8610   78.8550  222.9850 C   0  0  0  0  0  0  0  0  0  0  0  0
  140.1400   79.3620  223.1060 C   0  0  0  0  0  0  0  0  0  0  0  0
  140.3400   80.6890  223.4530 C   0  0  0  0  0  0  0  0  0  0  0  0
  141.6080   81.1960  223.5740 C   0  0  0  0  0  0  0  0  0  0  0  0
  142.7120   80.3760  223.3450 C   0  0  0  0  0  0  0  0  0  0  0  0
  142.4770   79.0570  222.9980 C   0  0  0  0  0  0  0  0  0  0  0  0
  141.2130   78.5260  222.8720 C   0  0  0  0  0  0  0  0  0  0  0  0
  141.0510   77.2210  222.5280 N   0  0  0  0  0  0  0  0  0  0  0  0
  137.4180   75.5540  221.7500 H   0  0  0  0  0  0  0  0  0  0  0  0
  137.4766   73.4083  220.4503 H   0  0  0  0  0  0  0  0  0  0  0  0
  139.0636   73.0449  221.2451 H   0  0  0  0  0  0  0  0  0  0  0  0
  137.8380   71.3188  225.2059 H   0  0  0  0  0  0  0  0  0  0  0  0
  136.4607   70.9061  224.1599 H   0  0  0  0  0  0  0  0  0  0  0  0
  137.3692   68.9330  224.5193 H   0  0  0  0  0  0  0  0  0  0  0  0
  138.7465   68.3241  222.2789 H   0  0  0  0  0  0  0  0  0  0  0  0
  138.0081   69.6849  221.7132 H   0  0  0  0  0  0  0  0  0  0  0  0
  140.8898   70.0250  222.6349 H   0  0  0  0  0  0  0  0  0  0  0  0
  140.1487   72.1411  223.6016 H   0  0  0  0  0  0  0  0  0  0  0  0
  139.7740   71.8716  221.8649 H   0  0  0  0  0  0  0  0  0  0  0  0
  140.1083   68.5832  224.6972 H   0  0  0  0  0  0  0  0  0  0  0  0
  138.8107   69.2039  227.0062 H   0  0  0  0  0  0  0  0  0  0  0  0
  139.5661   70.4666  228.9586 H   0  0  0  0  0  0  0  0  0  0  0  0
  141.2558   72.2868  228.7111 H   0  0  0  0  0  0  0  0  0  0  0  0
  142.1410   72.7738  226.4331 H   0  0  0  0  0  0  0  0  0  0  0  0
  141.3755   71.5073  224.4819 H   0  0  0  0  0  0  0  0  0  0  0  0
  137.7184   77.1158  222.5360 H   0  0  0  0  0  0  0  0  0  0  0  0
  137.9786   79.4876  223.1617 H   0  0  0  0  0  0  0  0  0  0  0  0
  139.4730   81.3416  223.6330 H   0  0  0  0  0  0  0  0  0  0  0  0
  141.7544   82.2502  223.8519 H   0  0  0  0  0  0  0  0  0  0  0  0
  143.7369   80.7648  223.4371 H   0  0  0  0  0  0  0  0  0  0  0  0
  143.3412   78.4017  222.8141 H   0  0  0  0  0  0  0  0  0  0  0  0
  1  2  2  0
  2  3  1  0
  3  4  1  0
  4  5  1  0
  5  6  2  0
  5  7  1  0
  7  8  1  0
  8  9  1  0
  9 10  1  0
 10 11  1  0
 11 12  1  0
 11 13  1  0
 13 14  1  0
 14 15  2  0
 15 16  1  0
 16 17  2  0
 17 18  1  0
 18 19  2  0
  2 20  1  0
 20 21  2  0
 21 22  1  0
 22 23  2  0
 23 24  1  0
 24 25  2  0
 25 26  1  0
 26 27  2  0
 27 28  1  0
 28 29  2  0
 12  7  1  0
 19 14  1  0
 29 20  1  0
 13  9  1  0
 28 23  1  0
  3 30  1  0
  4 31  1  0
  4 32  1  0
  8 33  1  0
  8 34  1  0
  9 35  1  1
 10 36  1  0
 10 37  1  0
 11 38  1  6
 12 39  1  0
 12 40  1  0
 13 41  1  6
 15 42  1  0
 16 43  1  0
 17 44  1  0
 18 45  1  0
 19 46  1  0
 21 47  1  0
 22 48  1  0
 24 49  1  0
 25 50  1  0
 26 51  1  0
 27 52  1  0
M  END
>  <smiles>  (56) 
O=C(NCC(=O)N1C[C@H]2C[C@@H](C1)C2c1ccccc1)c1ccc2ccccc2n1

>  <score_type>  (56) 
oracle

>  <origin>  (56) 
autodockgpu

>  <m_score__min__energy>  (56) 
-9.1899999999999995

>  <m_primary>  (56) 
energy

>  <rmsd>  (56) 
8.162282029195255

>  <m_score__min__rmsd>  (56) 
8.162282029195255

>  <meeko>  (56) 
{"free_energy": -9.06, "intermolecular_energy": -10.55, "internal_energy": -1.34, "cluster_size": 15, "cluster_id": 2, "rank_in_cluster": 9}

>  <energy>  (56) 
-9.14

>  <cluster_rmsd>  (56) 
0.13

>  <cluster>  (56) 
1

$$$$

     RDKit          3D

 52 56  0  0  1  0  0  0  0  0999 V2000
  140.9170   73.3640  222.1160 O   0  0  0  0  0  0  0  0  0  0  0  0
  139.8740   72.9110  222.6760 C   0  0  0  0  0  0  0  0  0  0  0  0
  138.6430   73.5580  222.3370 N   0  0  0  0  0  0  0  0  0  0  0  0
  138.7150   74.6590  221.3930 C   0  0  0  0  0  0  0  0  0  0  0  0
  138.6970   75.9770  222.0860 C   0  0  0  0  0  0  0  0  0  0  0  0
  137.9050   76.2740  222.9920 O   0  0  0  0  0  0  0  0  0  0  0  0
  139.6490   76.9380  221.6730 N   0  0  0  0  0  0  0  0  0  0  0  0
  141.0730   76.8290  221.9630 C   0  0  0  0  0  0  0  0  0  0  0  0
  141.7980   77.2480  220.7360 C   0  0  1  0  0  0  0  0  0  0  0  0
  140.9030   77.0990  219.5010 C   0  0  0  0  0  0  0  0  0  0  0  0
  140.3260   78.4640  219.9220 C   0  0  1  0  0  0  0  0  0  0  0  0
  139.2580   78.1310  220.9100 C   0  0  0  0  0  0  0  0  0  0  0  0
  141.6770   78.7440  220.4840 C   0  0  1  0  0  0  0  0  0  0  0  0
  141.7970   79.6180  221.6500 C   0  0  0  0  0  0  0  0  0  0  0  0
  142.6450   79.4110  222.7170 C   0  0  0  0  0  0  0  0  0  0  0  0
  142.7310   80.2640  223.7960 C   0  0  0  0  0  0  0  0  0  0  0  0
  141.9450   81.3960  223.8550 C   0  0  0  0  0  0  0  0  0  0  0  0
  141.0820   81.6320  222.8000 C   0  0  0  0  0  0  0  0  0  0  0  0
  141.0060   80.7710  221.7270 C   0  0  0  0  0  0  0  0  0  0  0  0
  139.9150   71.7970  223.6130 C   0  0  0  0  0  0  0  0  0  0  0  0
  139.3430   70.6060  223.2160 C   0  0  0  0  0  0  0  0  0  0  0  0
  139.3220   69.4910  224.0120 C   0  0  0  0  0  0  0  0  0  0  0  0
  139.9030   69.5850  225.2610 C   0  0  0  0  0  0  0  0  0  0  0  0
  139.9130   68.4920  226.1150 C   0  0  0  0  0  0  0  0  0  0  0  0
  140.4880   68.5810  227.3560 C   0  0  0  0  0  0  0  0  0  0  0  0
  141.0700   69.7780  227.7710 C   0  0  0  0  0  0  0  0  0  0  0  0
  141.0420   70.8500  226.8950 C   0  0  0  0  0  0  0  0  0  0  0  0
  140.4710   70.7830  225.6450 C   0  0  0  0  0  0  0  0  0  0  0  0
  140.4760   71.8730  224.8320 N   0  0  0  0  0  0  0  0  0  0  0  0
  137.7420   73.2360  222.7630 H   0  0  0  0  0  0  0  0  0  0  0  0
  139.6464   74.5727  220.8142 H   0  0  0  0  0  0  0  0  0  0  0  0
  137.8363   74.6049  220.7335 H   0  0  0  0  0  0  0  0  0  0  0  0
  141.3392   77.4876  222.8029 H   0  0  0  0  0  0  0  0  0  0  0  0
  141.3392   75.7995  222.2447 H   0  0  0  0  0  0  0  0  0  0  0  0
  142.7662   76.7404  220.8583 H   0  0  0  0  0  0  0  0  0  0  0  0
  141.4326   77.0916  218.5369 H   0  0  0  0  0  0  0  0  0  0  0  0
  140.2766   76.2137  219.3172 H   0  0  0  0  0  0  0  0  0  0  0  0
  139.8562   79.2288  219.2861 H   0  0  0  0  0  0  0  0  0  0  0  0
  139.1194   78.9773  221.5989 H   0  0  0  0  0  0  0  0  0  0  0  0
  138.3161   77.9324  220.3777 H   0  0  0  0  0  0  0  0  0  0  0  0
  142.4170   79.3132  219.9023 H   0  0  0  0  0  0  0  0  0  0  0  0
  143.2869   78.5178  222.7066 H   0  0  0  0  0  0  0  0  0  0  0  0
  143.4306   80.0408  224.6150 H   0  0  0  0  0  0  0  0  0  0  0  0
  142.0024   82.0859  224.7098 H   0  0  0  0  0  0  0  0  0  0  0  0
  140.4424   82.5267  222.8181 H   0  0  0  0  0  0  0  0  0  0  0  0
  140.3054   80.9953  220.9092 H   0  0  0  0  0  0  0  0  0  0  0  0
  138.8842   70.5491  222.2179 H   0  0  0  0  0  0  0  0  0  0  0  0
  138.8588   68.5544  223.6682 H   0  0  0  0  0  0  0  0  0  0  0  0
  139.4552   67.5450  225.7933 H   0  0  0  0  0  0  0  0  0  0  0  0
  140.4903   67.7077  228.0248 H   0  0  0  0  0  0  0  0  0  0  0  0
  141.5367   69.8680  228.7630 H   0  0  0  0  0  0  0  0  0  0  0  0
  141.4975   71.7993  227.2133 H   0  0  0  0  0  0  0  0  0  0  0  0
  1  2  2  0
  2  3  1  0
  3  4  1  0
  4  5  1  0
  5  6  2  0
  5  7  1  0
  7  8  1  0
  8  9  1  0
  9 10  1  0
 10 11  1  0
 11 12  1  0
 11 13  1  0
 13 14  1  0
 14 15  2  0
 15 16  1  0
 16 17  2  0
 17 18  1  0
 18 19  2  0
  2 20  1  0
 20 21  2  0
 21 22  1  0
 22 23  2  0
 23 24  1  0
 24 25  2  0
 25 26  1  0
 26 27  2  0
 27 28  1  0
 28 29  2  0
 12  7  1  0
 19 14  1  0
 29 20  1  0
 13  9  1  0
 28 23  1  0
  3 30  1  0
  4 31  1  0
  4 32  1  0
  8 33  1  0
  8 34  1  0
  9 35  1  6
 10 36  1  0
 10 37  1  0
 11 38  1  6
 12 39  1  0
 12 40  1  0
 13 41  1  6
 15 42  1  0
 16 43  1  0
 17 44  1  0
 18 45  1  0
 19 46  1  0
 21 47  1  0
 22 48  1  0
 24 49  1  0
 25 50  1  0
 26 51  1  0
 27 52  1  0
M  END
>  <smiles>  (57) 
O=C(NCC(=O)N1C[C@H]2C[C@@H](C1)C2c1ccccc1)c1ccc2ccccc2n1

>  <score_type>  (57) 
oracle

>  <origin>  (57) 
autodockgpu

>  <m_score__min__energy>  (57) 
-9.1899999999999995

>  <m_primary>  (57) 
energy

>  <rmsd>  (57) 
2.3147015051926916

>  <m_score__min__rmsd>  (57) 
2.3147015051926916

>  <meeko>  (57) 
{"free_energy": -9.08, "intermolecular_energy": -10.57, "internal_energy": -1.39, "cluster_size": 35, "cluster_id": 1, "rank_in_cluster": 17}

>  <energy>  (57) 
-9.14

>  <cluster_rmsd>  (57) 
0.16

>  <cluster>  (57) 
1

$$$$

     RDKit          3D

 52 56  0  0  1  0  0  0  0  0999 V2000
  140.5950   71.5090  221.3220 O   0  0  0  0  0  0  0  0  0  0  0  0
  140.1240   72.0430  222.3700 C   0  0  0  0  0  0  0  0  0  0  0  0
  139.5960   73.3660  222.2230 N   0  0  0  0  0  0  0  0  0  0  0  0
  139.6540   73.9550  220.8970 C   0  0  0  0  0  0  0  0  0  0  0  0
  140.7330   74.9770  220.7990 C   0  0  0  0  0  0  0  0  0  0  0  0
  141.8880   74.7330  220.4230 O   0  0  0  0  0  0  0  0  0  0  0  0
  140.4020   76.3030  221.1620 N   0  0  0  0  0  0  0  0  0  0  0  0
  140.7160   77.4620  220.3350 C   0  0  0  0  0  0  0  0  0  0  0  0
  139.5350   78.3610  220.3810 C   0  0  1  0  0  0  0  0  0  0  0  0
  138.2730   77.5760  220.7580 C   0  0  0  0  0  0  0  0  0  0  0  0
  138.7650   77.7460  222.2090 C   0  0  1  0  0  0  0  0  0  0  0  0
  139.7070   76.6070  222.4210 C   0  0  0  0  0  0  0  0  0  0  0  0
  139.3740   79.0230  221.7430 C   0  0  1  0  0  0  0  0  0  0  0  0
  140.5950   79.5070  222.3850 C   0  0  0  0  0  0  0  0  0  0  0  0
  141.0320   79.1440  223.6410 C   0  0  0  0  0  0  0  0  0  0  0  0
  142.1940   79.6210  224.2100 C   0  0  0  0  0  0  0  0  0  0  0  0
  142.9920   80.5120  223.5220 C   0  0  0  0  0  0  0  0  0  0  0  0
  142.5800   80.8970  222.2590 C   0  0  0  0  0  0  0  0  0  0  0  0
  141.4170   80.4120  221.7030 C   0  0  0  0  0  0  0  0  0  0  0  0
  140.1150   71.3600  223.6570 C   0  0  0  0  0  0  0  0  0  0  0  0
  139.5880   70.0860  223.7000 C   0  0  0  0  0  0  0  0  0  0  0  0
  139.5280   69.3480  224.8530 C   0  0  0  0  0  0  0  0  0  0  0  0
  140.0210   69.9220  226.0080 C   0  0  0  0  0  0  0  0  0  0  0  0
  139.9870   69.2270  227.2070 C   0  0  0  0  0  0  0  0  0  0  0  0
  140.4750   69.7940  228.3560 C   0  0  0  0  0  0  0  0  0  0  0  0
  141.0110   71.0800  228.3270 C   0  0  0  0  0  0  0  0  0  0  0  0
  141.0280   71.7470  227.1140 C   0  0  0  0  0  0  0  0  0  0  0  0
  140.5450   71.1980  225.9480 C   0  0  0  0  0  0  0  0  0  0  0  0
  140.5910   71.9050  224.7890 N   0  0  0  0  0  0  0  0  0  0  0  0
  139.1910   73.8680  223.0480 H   0  0  0  0  0  0  0  0  0  0  0  0
  139.8468   73.1603  220.1613 H   0  0  0  0  0  0  0  0  0  0  0  0
  138.6919   74.4495  220.6972 H   0  0  0  0  0  0  0  0  0  0  0  0
  141.6012   77.9806  220.7319 H   0  0  0  0  0  0  0  0  0  0  0  0
  140.9380   77.1581  219.3014 H   0  0  0  0  0  0  0  0  0  0  0  0
  139.6471   78.9345  219.4491 H   0  0  0  0  0  0  0  0  0  0  0  0
  137.3222   78.0773  220.5241 H   0  0  0  0  0  0  0  0  0  0  0  0
  138.0211   76.5987  220.3204 H   0  0  0  0  0  0  0  0  0  0  0  0
  138.1669   77.7591  223.1321 H   0  0  0  0  0  0  0  0  0  0  0  0
  140.4446   76.8799  223.1900 H   0  0  0  0  0  0  0  0  0  0  0  0
  139.1429   75.7220  222.7505 H   0  0  0  0  0  0  0  0  0  0  0  0
  138.8456   79.9773  221.8844 H   0  0  0  0  0  0  0  0  0  0  0  0
  140.4211   78.4360  224.2203 H   0  0  0  0  0  0  0  0  0  0  0  0
  142.4862   79.2896  225.2174 H   0  0  0  0  0  0  0  0  0  0  0  0
  143.9218   80.9018  223.9619 H   0  0  0  0  0  0  0  0  0  0  0  0
  143.1950   81.6064  221.6858 H   0  0  0  0  0  0  0  0  0  0  0  0
  141.1261   80.7448  220.6957 H   0  0  0  0  0  0  0  0  0  0  0  0
  139.1999   69.6442  222.7704 H   0  0  0  0  0  0  0  0  0  0  0  0
  139.1020   68.3338  224.8583 H   0  0  0  0  0  0  0  0  0  0  0  0
  139.5648   68.2117  227.2368 H   0  0  0  0  0  0  0  0  0  0  0  0
  140.4434   69.2332  229.3018 H   0  0  0  0  0  0  0  0  0  0  0  0
  141.4079   71.5501  229.2388 H   0  0  0  0  0  0  0  0  0  0  0  0
  141.4472   72.7634  227.0805 H   0  0  0  0  0  0  0  0  0  0  0  0
  1  2  2  0
  2  3  1  0
  3  4  1  0
  4  5  1  0
  5  6  2  0
  5  7  1  0
  7  8  1  0
  8  9  1  0
  9 10  1  0
 10 11  1  0
 11 12  1  0
 11 13  1  0
 13 14  1  0
 14 15  2  0
 15 16  1  0
 16 17  2  0
 17 18  1  0
 18 19  2  0
  2 20  1  0
 20 21  2  0
 21 22  1  0
 22 23  2  0
 23 24  1  0
 24 25  2  0
 25 26  1  0
 26 27  2  0
 27 28  1  0
 28 29  2  0
 12  7  1  0
 19 14  1  0
 29 20  1  0
 13  9  1  0
 28 23  1  0
  3 30  1  0
  4 31  1  0
  4 32  1  0
  8 33  1  0
  8 34  1  0
  9 35  1  6
 10 36  1  0
 10 37  1  0
 11 38  1  1
 12 39  1  0
 12 40  1  0
 13 41  1  6
 15 42  1  0
 16 43  1  0
 17 44  1  0
 18 45  1  0
 19 46  1  0
 21 47  1  0
 22 48  1  0
 24 49  1  0
 25 50  1  0
 26 51  1  0
 27 52  1  0
M  END
>  <smiles>  (58) 
O=C(NCC(=O)N1C[C@H]2C[C@@H](C1)C2c1ccccc1)c1ccc2ccccc2n1

>  <score_type>  (58) 
oracle

>  <origin>  (58) 
autodockgpu

>  <m_score__min__energy>  (58) 
-9.1899999999999995

>  <m_primary>  (58) 
energy

>  <rmsd>  (58) 
2.712473964323272

>  <m_score__min__rmsd>  (58) 
2.712473964323272

>  <meeko>  (58) 
{"free_energy": -9.1, "intermolecular_energy": -10.59, "internal_energy": -1.33, "cluster_size": 35, "cluster_id": 1, "rank_in_cluster": 13}

>  <energy>  (58) 
-9.13

>  <cluster_rmsd>  (58) 
1.61

>  <cluster>  (58) 
1

$$$$

     RDKit          3D

 52 56  0  0  1  0  0  0  0  0999 V2000
  141.1520   72.8980  222.0090 O   0  0  0  0  0  0  0  0  0  0  0  0
  140.0940   72.6860  222.6740 C   0  0  0  0  0  0  0  0  0  0  0  0
  138.9600   73.4900  222.3320 N   0  0  0  0  0  0  0  0  0  0  0  0
  139.1380   74.4590  221.2640 C   0  0  0  0  0  0  0  0  0  0  0  0
  138.7860   75.8360  221.7110 C   0  0  0  0  0  0  0  0  0  0  0  0
  137.7760   76.1150  222.3720 O   0  0  0  0  0  0  0  0  0  0  0  0
  139.6720   76.8780  221.3490 N   0  0  0  0  0  0  0  0  0  0  0  0
  141.0960   76.8630  221.6610 C   0  0  0  0  0  0  0  0  0  0  0  0
  141.8070   77.3780  220.4630 C   0  0  1  0  0  0  0  0  0  0  0  0
  140.9440   77.2090  219.2080 C   0  0  0  0  0  0  0  0  0  0  0  0
  140.2620   78.5130  219.6660 C   0  0  1  0  0  0  0  0  0  0  0  0
  139.2060   78.0670  220.6230 C   0  0  0  0  0  0  0  0  0  0  0  0
  141.5790   78.8700  220.2620 C   0  0  1  0  0  0  0  0  0  0  0  0
  141.6160   79.7070  221.4600 C   0  0  0  0  0  0  0  0  0  0  0  0
  140.7500   80.7430  221.7360 C   0  0  0  0  0  0  0  0  0  0  0  0
  140.8170   81.5060  222.8820 C   0  0  0  0  0  0  0  0  0  0  0  0
  141.7860   81.2560  223.8310 C   0  0  0  0  0  0  0  0  0  0  0  0
  142.6720   80.2220  223.5840 C   0  0  0  0  0  0  0  0  0  0  0  0
  142.5940   79.4680  222.4340 C   0  0  0  0  0  0  0  0  0  0  0  0
  140.0250   71.6840  223.7290 C   0  0  0  0  0  0  0  0  0  0  0  0
  139.3590   70.5090  223.4520 C   0  0  0  0  0  0  0  0  0  0  0  0
  139.2300   69.4960  224.3660 C   0  0  0  0  0  0  0  0  0  0  0  0
  139.7980   69.6800  225.6110 C   0  0  0  0  0  0  0  0  0  0  0  0
  139.7020   68.6940  226.5800 C   0  0  0  0  0  0  0  0  0  0  0  0
  140.2640   68.8730  227.8170 C   0  0  0  0  0  0  0  0  0  0  0  0
  140.9400   70.0560  228.1120 C   0  0  0  0  0  0  0  0  0  0  0  0
  141.0170   71.0210  227.1230 C   0  0  0  0  0  0  0  0  0  0  0  0
  140.4610   70.8620  225.8730 C   0  0  0  0  0  0  0  0  0  0  0  0
  140.5720   71.8490  224.9460 N   0  0  0  0  0  0  0  0  0  0  0  0
  138.0530   73.3690  222.8410 H   0  0  0  0  0  0  0  0  0  0  0  0
  140.1895   74.4459  220.9413 H   0  0  0  0  0  0  0  0  0  0  0  0
  138.4700   74.1844  220.4344 H   0  0  0  0  0  0  0  0  0  0  0  0
  141.2998   77.5084  222.5281 H   0  0  0  0  0  0  0  0  0  0  0  0
  141.4329   75.8462  221.9113 H   0  0  0  0  0  0  0  0  0  0  0  0
  142.8082   76.9387  220.5843 H   0  0  0  0  0  0  0  0  0  0  0  0
  141.4872   77.2748  218.2538 H   0  0  0  0  0  0  0  0  0  0  0  0
  140.3869   76.2877  218.9826 H   0  0  0  0  0  0  0  0  0  0  0  0
  139.7476   79.2641  219.0486 H   0  0  0  0  0  0  0  0  0  0  0  0
  138.9959   78.8748  221.3394 H   0  0  0  0  0  0  0  0  0  0  0  0
  138.2889   77.8209  220.0677 H   0  0  0  0  0  0  0  0  0  0  0  0
  142.2838   79.5129  219.7143 H   0  0  0  0  0  0  0  0  0  0  0  0
  139.9633   80.9733  221.0025 H   0  0  0  0  0  0  0  0  0  0  0  0
  140.0933   82.3191  223.0406 H   0  0  0  0  0  0  0  0  0  0  0  0
  141.8522   81.8563  224.7503 H   0  0  0  0  0  0  0  0  0  0  0  0
  143.4558   79.9973  224.3224 H   0  0  0  0  0  0  0  0  0  0  0  0
  143.3193   78.6562  222.2762 H   0  0  0  0  0  0  0  0  0  0  0  0
  138.9123   70.3791  222.4552 H   0  0  0  0  0  0  0  0  0  0  0  0
  138.6929   68.5690  224.1166 H   0  0  0  0  0  0  0  0  0  0  0  0
  139.1694   67.7584  226.3540 H   0  0  0  0  0  0  0  0  0  0  0  0
  140.1817   68.0827  228.5777 H   0  0  0  0  0  0  0  0  0  0  0  0
  141.3975   70.2173  229.0992 H   0  0  0  0  0  0  0  0  0  0  0  0
  141.5470   71.9588  227.3457 H   0  0  0  0  0  0  0  0  0  0  0  0
  1  2  2  0
  2  3  1  0
  3  4  1  0
  4  5  1  0
  5  6  2  0
  5  7  1  0
  7  8  1  0
  8  9  1  0
  9 10  1  0
 10 11  1  0
 11 12  1  0
 11 13  1  0
 13 14  1  0
 14 15  2  0
 15 16  1  0
 16 17  2  0
 17 18  1  0
 18 19  2  0
  2 20  1  0
 20 21  2  0
 21 22  1  0
 22 23  2  0
 23 24  1  0
 24 25  2  0
 25 26  1  0
 26 27  2  0
 27 28  1  0
 28 29  2  0
 12  7  1  0
 19 14  1  0
 29 20  1  0
 13  9  1  0
 28 23  1  0
  3 30  1  0
  4 31  1  0
  4 32  1  0
  8 33  1  0
  8 34  1  0
  9 35  1  6
 10 36  1  0
 10 37  1  0
 11 38  1  6
 12 39  1  0
 12 40  1  0
 13 41  1  6
 15 42  1  0
 16 43  1  0
 17 44  1  0
 18 45  1  0
 19 46  1  0
 21 47  1  0
 22 48  1  0
 24 49  1  0
 25 50  1  0
 26 51  1  0
 27 52  1  0
M  END
>  <smiles>  (59) 
O=C(NCC(=O)N1C[C@H]2C[C@@H](C1)C2c1ccccc1)c1ccc2ccccc2n1

>  <score_type>  (59) 
oracle

>  <origin>  (59) 
autodockgpu

>  <m_score__min__energy>  (59) 
-9.1899999999999995

>  <m_primary>  (59) 
energy

>  <rmsd>  (59) 
2.2136732426865526

>  <m_score__min__rmsd>  (59) 
2.2136732426865526

>  <meeko>  (59) 
{"free_energy": -9.06, "intermolecular_energy": -10.55, "internal_energy": -1.35, "cluster_size": 35, "cluster_id": 1, "rank_in_cluster": 21}

>  <energy>  (59) 
-9.12

>  <cluster_rmsd>  (59) 
1.33

>  <cluster>  (59) 
1

$$$$

     RDKit          3D

 52 56  0  0  1  0  0  0  0  0999 V2000
  140.2250   71.3020  221.2780 O   0  0  0  0  0  0  0  0  0  0  0  0
  140.0080   71.9060  222.3710 C   0  0  0  0  0  0  0  0  0  0  0  0
  139.7150   73.3040  222.2730 N   0  0  0  0  0  0  0  0  0  0  0  0
  139.6960   73.8810  220.9410 C   0  0  0  0  0  0  0  0  0  0  0  0
  140.7590   74.9120  220.7770 C   0  0  0  0  0  0  0  0  0  0  0  0
  141.9000   74.6730  220.3580 O   0  0  0  0  0  0  0  0  0  0  0  0
  140.4280   76.2420  221.1270 N   0  0  0  0  0  0  0  0  0  0  0  0
  140.7830   77.3960  220.3100 C   0  0  0  0  0  0  0  0  0  0  0  0
  139.6090   78.3070  220.3140 C   0  0  1  0  0  0  0  0  0  0  0  0
  138.3270   77.5350  220.6470 C   0  0  0  0  0  0  0  0  0  0  0  0
  138.7700   77.7020  222.1140 C   0  0  1  0  0  0  0  0  0  0  0  0
  139.6920   76.5550  222.3600 C   0  0  0  0  0  0  0  0  0  0  0  0
  139.4070   78.9720  221.6680 C   0  0  1  0  0  0  0  0  0  0  0  0
  140.6090   79.4460  222.3520 C   0  0  0  0  0  0  0  0  0  0  0  0
  141.0200   79.0500  223.6070 C   0  0  0  0  0  0  0  0  0  0  0  0
  142.1650   79.5180  224.2150 C   0  0  0  0  0  0  0  0  0  0  0  0
  142.9720   80.4330  223.5730 C   0  0  0  0  0  0  0  0  0  0  0  0
  142.5870   80.8520  222.3120 C   0  0  0  0  0  0  0  0  0  0  0  0
  141.4400   80.3760  221.7150 C   0  0  0  0  0  0  0  0  0  0  0  0
  140.0520   71.2270  223.6590 C   0  0  0  0  0  0  0  0  0  0  0  0
  139.5710   69.9350  223.7180 C   0  0  0  0  0  0  0  0  0  0  0  0
  139.5630   69.1990  224.8730 C   0  0  0  0  0  0  0  0  0  0  0  0
  140.0600   69.7930  226.0160 C   0  0  0  0  0  0  0  0  0  0  0  0
  140.0780   69.1020  227.2170 C   0  0  0  0  0  0  0  0  0  0  0  0
  140.5700   69.6890  228.3530 C   0  0  0  0  0  0  0  0  0  0  0  0
  141.0600   70.9930  228.3090 C   0  0  0  0  0  0  0  0  0  0  0  0
  141.0270   71.6560  227.0950 C   0  0  0  0  0  0  0  0  0  0  0  0
  140.5370   71.0870  225.9410 C   0  0  0  0  0  0  0  0  0  0  0  0
  140.5330   71.7920  224.7790 N   0  0  0  0  0  0  0  0  0  0  0  0
  139.5250   73.8650  223.1360 H   0  0  0  0  0  0  0  0  0  0  0  0
  139.8567   73.0814  220.2028 H   0  0  0  0  0  0  0  0  0  0  0  0
  138.7199   74.3646  220.7884 H   0  0  0  0  0  0  0  0  0  0  0  0
  141.6590   77.9063  220.7369 H   0  0  0  0  0  0  0  0  0  0  0  0
  141.0386   77.0885  219.2852 H   0  0  0  0  0  0  0  0  0  0  0  0
  139.7593   78.8782  219.3860 H   0  0  0  0  0  0  0  0  0  0  0  0
  137.3900   78.0454  220.3796 H   0  0  0  0  0  0  0  0  0  0  0  0
  138.0807   76.5598  220.2016 H   0  0  0  0  0  0  0  0  0  0  0  0
  138.1405   77.7221  223.0158 H   0  0  0  0  0  0  0  0  0  0  0  0
  140.4047   76.8218  223.1542 H   0  0  0  0  0  0  0  0  0  0  0  0
  139.1077   75.6762  222.6702 H   0  0  0  0  0  0  0  0  0  0  0  0
  138.8831   79.9316  221.7895 H   0  0  0  0  0  0  0  0  0  0  0  0
  140.4013   78.3219  224.1520 H   0  0  0  0  0  0  0  0  0  0  0  0
  142.4366   79.1592  225.2187 H   0  0  0  0  0  0  0  0  0  0  0  0
  143.8883   80.8158  224.0460 H   0  0  0  0  0  0  0  0  0  0  0  0
  143.2104   81.5813  221.7740 H   0  0  0  0  0  0  0  0  0  0  0  0
  141.1699   80.7361  220.7113 H   0  0  0  0  0  0  0  0  0  0  0  0
  139.1774   69.4769  222.7986 H   0  0  0  0  0  0  0  0  0  0  0  0
  139.1741   68.1702  224.8894 H   0  0  0  0  0  0  0  0  0  0  0  0
  139.6936   68.0722  227.2587 H   0  0  0  0  0  0  0  0  0  0  0  0
  140.5783   69.1306  229.3007 H   0  0  0  0  0  0  0  0  0  0  0  0
  141.4602   71.4796  229.2107 H   0  0  0  0  0  0  0  0  0  0  0  0
  141.4102   72.6861  227.0497 H   0  0  0  0  0  0  0  0  0  0  0  0
  1  2  2  0
  2  3  1  0
  3  4  1  0
  4  5  1  0
  5  6  2  0
  5  7  1  0
  7  8  1  0
  8  9  1  0
  9 10  1  0
 10 11  1  0
 11 12  1  0
 11 13  1  0
 13 14  1  0
 14 15  2  0
 15 16  1  0
 16 17  2  0
 17 18  1  0
 18 19  2  0
  2 20  1  0
 20 21  2  0
 21 22  1  0
 22 23  2  0
 23 24  1  0
 24 25  2  0
 25 26  1  0
 26 27  2  0
 27 28  1  0
 28 29  2  0
 12  7  1  0
 19 14  1  0
 29 20  1  0
 13  9  1  0
 28 23  1  0
  3 30  1  0
  4 31  1  0
  4 32  1  0
  8 33  1  0
  8 34  1  0
  9 35  1  6
 10 36  1  0
 10 37  1  0
 11 38  1  1
 12 39  1  0
 12 40  1  0
 13 41  1  6
 15 42  1  0
 16 43  1  0
 17 44  1  0
 18 45  1  0
 19 46  1  0
 21 47  1  0
 22 48  1  0
 24 49  1  0
 25 50  1  0
 26 51  1  0
 27 52  1  0
M  END
>  <smiles>  (60) 
O=C(NCC(=O)N1C[C@H]2C[C@@H](C1)C2c1ccccc1)c1ccc2ccccc2n1

>  <score_type>  (60) 
oracle

>  <origin>  (60) 
autodockgpu

>  <m_score__min__energy>  (60) 
-9.1899999999999995

>  <m_primary>  (60) 
energy

>  <rmsd>  (60) 
2.649006367218212

>  <m_score__min__rmsd>  (60) 
2.649006367218212

>  <meeko>  (60) 
{"free_energy": -9.04, "intermolecular_energy": -10.53, "internal_energy": -1.34, "cluster_size": 35, "cluster_id": 1, "rank_in_cluster": 23}

>  <energy>  (60) 
-9.12

>  <cluster_rmsd>  (60) 
1.59

>  <cluster>  (60) 
1

$$$$

     RDKit          3D

 52 56  0  0  1  0  0  0  0  0999 V2000
  140.8920   73.2850  222.2490 O   0  0  0  0  0  0  0  0  0  0  0  0
  139.8260   72.7860  222.7160 C   0  0  0  0  0  0  0  0  0  0  0  0
  138.6030   73.4020  222.2980 N   0  0  0  0  0  0  0  0  0  0  0  0
  138.7100   74.5280  221.3870 C   0  0  0  0  0  0  0  0  0  0  0  0
  138.7060   75.8250  222.1180 C   0  0  0  0  0  0  0  0  0  0  0  0
  137.9480   76.0880  223.0620 O   0  0  0  0  0  0  0  0  0  0  0  0
  139.6310   76.8080  221.6950 N   0  0  0  0  0  0  0  0  0  0  0  0
  141.0590   76.7390  221.9800 C   0  0  0  0  0  0  0  0  0  0  0  0
  141.7680   77.1690  220.7480 C   0  0  1  0  0  0  0  0  0  0  0  0
  140.8720   76.9880  219.5170 C   0  0  0  0  0  0  0  0  0  0  0  0
  140.2610   78.3410  219.9320 C   0  0  1  0  0  0  0  0  0  0  0  0
  139.2060   77.9860  220.9270 C   0  0  0  0  0  0  0  0  0  0  0  0
  141.6060   78.6600  220.4870 C   0  0  1  0  0  0  0  0  0  0  0  0
  141.7070   79.5440  221.6470 C   0  0  0  0  0  0  0  0  0  0  0  0
  142.5790   79.3780  222.7020 C   0  0  0  0  0  0  0  0  0  0  0  0
  142.6450   80.2390  223.7760 C   0  0  0  0  0  0  0  0  0  0  0  0
  141.8150   81.3380  223.8420 C   0  0  0  0  0  0  0  0  0  0  0  0
  140.9280   81.5330  222.7980 C   0  0  0  0  0  0  0  0  0  0  0  0
  140.8710   80.6640  221.7310 C   0  0  0  0  0  0  0  0  0  0  0  0
  139.8310   71.6500  223.6280 C   0  0  0  0  0  0  0  0  0  0  0  0
  139.1480   70.5160  223.2410 C   0  0  0  0  0  0  0  0  0  0  0  0
  139.0850   69.3880  224.0160 C   0  0  0  0  0  0  0  0  0  0  0  0
  139.7390   69.4080  225.2320 C   0  0  0  0  0  0  0  0  0  0  0  0
  139.7120   68.2980  226.0620 C   0  0  0  0  0  0  0  0  0  0  0  0
  140.3610   68.3140  227.2700 C   0  0  0  0  0  0  0  0  0  0  0  0
  141.0550   69.4530  227.6740 C   0  0  0  0  0  0  0  0  0  0  0  0
  141.0620   70.5430  226.8220 C   0  0  0  0  0  0  0  0  0  0  0  0
  140.4190   70.5500  225.6050 C   0  0  0  0  0  0  0  0  0  0  0  0
  140.4630   71.6540  224.8140 N   0  0  0  0  0  0  0  0  0  0  0  0
  137.6830   73.0410  222.6450 H   0  0  0  0  0  0  0  0  0  0  0  0
  139.6484   74.4406  220.8197 H   0  0  0  0  0  0  0  0  0  0  0  0
  137.8410   74.5097  220.7128 H   0  0  0  0  0  0  0  0  0  0  0  0
  141.3107   77.4099  222.8146 H   0  0  0  0  0  0  0  0  0  0  0  0
  141.3535   75.7188  222.2670 H   0  0  0  0  0  0  0  0  0  0  0  0
  142.7499   76.6884  220.8696 H   0  0  0  0  0  0  0  0  0  0  0  0
  141.3978   76.9881  218.5508 H   0  0  0  0  0  0  0  0  0  0  0  0
  140.2683   76.0854  219.3414 H   0  0  0  0  0  0  0  0  0  0  0  0
  139.7691   79.0892  219.2931 H   0  0  0  0  0  0  0  0  0  0  0  0
  139.0485   78.8324  221.6117 H   0  0  0  0  0  0  0  0  0  0  0  0
  138.2673   77.7600  220.4000 H   0  0  0  0  0  0  0  0  0  0  0  0
  142.3284   79.2449  219.8987 H   0  0  0  0  0  0  0  0  0  0  0  0
  143.2578   78.5126  222.6856 H   0  0  0  0  0  0  0  0  0  0  0  0
  143.3645   80.0482  224.5859 H   0  0  0  0  0  0  0  0  0  0  0  0
  141.8564   82.0339  224.6929 H   0  0  0  0  0  0  0  0  0  0  0  0
  140.2533   82.4015  222.8208 H   0  0  0  0  0  0  0  0  0  0  0  0
  140.1493   80.8550  220.9231 H   0  0  0  0  0  0  0  0  0  0  0  0
  138.6322   70.5173  222.2694 H   0  0  0  0  0  0  0  0  0  0  0  0
  138.5327   68.4975  223.6813 H   0  0  0  0  0  0  0  0  0  0  0  0
  139.1652   67.3964  225.7489 H   0  0  0  0  0  0  0  0  0  0  0  0
  140.3337   67.4273  227.9204 H   0  0  0  0  0  0  0  0  0  0  0  0
  141.5806   69.4844  228.6398 H   0  0  0  0  0  0  0  0  0  0  0  0
  141.6072   71.4468  227.1318 H   0  0  0  0  0  0  0  0  0  0  0  0
  1  2  2  0
  2  3  1  0
  3  4  1  0
  4  5  1  0
  5  6  2  0
  5  7  1  0
  7  8  1  0
  8  9  1  0
  9 10  1  0
 10 11  1  0
 11 12  1  0
 11 13  1  0
 13 14  1  0
 14 15  2  0
 15 16  1  0
 16 17  2  0
 17 18  1  0
 18 19  2  0
  2 20  1  0
 20 21  2  0
 21 22  1  0
 22 23  2  0
 23 24  1  0
 24 25  2  0
 25 26  1  0
 26 27  2  0
 27 28  1  0
 28 29  2  0
 12  7  1  0
 19 14  1  0
 29 20  1  0
 13  9  1  0
 28 23  1  0
  3 30  1  0
  4 31  1  0
  4 32  1  0
  8 33  1  0
  8 34  1  0
  9 35  1  6
 10 36  1  0
 10 37  1  0
 11 38  1  6
 12 39  1  0
 12 40  1  0
 13 41  1  6
 15 42  1  0
 16 43  1  0
 17 44  1  0
 18 45  1  0
 19 46  1  0
 21 47  1  0
 22 48  1  0
 24 49  1  0
 25 50  1  0
 26 51  1  0
 27 52  1  0
M  END
>  <smiles>  (61) 
O=C(NCC(=O)N1C[C@H]2C[C@@H](C1)C2c1ccccc1)c1ccc2ccccc2n1

>  <score_type>  (61) 
oracle

>  <origin>  (61) 
autodockgpu

>  <m_score__min__energy>  (61) 
-9.1899999999999995

>  <m_primary>  (61) 
energy

>  <rmsd>  (61) 
2.2822535814393867

>  <m_score__min__rmsd>  (61) 
2.2822535814393867

>  <meeko>  (61) 
{"free_energy": -8.93, "intermolecular_energy": -10.42, "internal_energy": -1.37, "cluster_size": 35, "cluster_id": 1, "rank_in_cluster": 33}

>  <energy>  (61) 
-9.11

>  <cluster_rmsd>  (61) 
1.61

>  <cluster>  (61) 
1

$$$$

     RDKit          3D

 52 56  0  0  1  0  0  0  0  0999 V2000
  140.7070   71.4350  221.2920 O   0  0  0  0  0  0  0  0  0  0  0  0
  140.2300   71.9950  222.3240 C   0  0  0  0  0  0  0  0  0  0  0  0
  139.7230   73.3220  222.1460 N   0  0  0  0  0  0  0  0  0  0  0  0
  139.8050   73.8850  220.8100 C   0  0  0  0  0  0  0  0  0  0  0  0
  140.8360   74.9570  220.7310 C   0  0  0  0  0  0  0  0  0  0  0  0
  141.9900   74.7820  220.3160 O   0  0  0  0  0  0  0  0  0  0  0  0
  140.4580   76.2510  221.1610 N   0  0  0  0  0  0  0  0  0  0  0  0
  140.5750   77.4380  220.3250 C   0  0  0  0  0  0  0  0  0  0  0  0
  139.3460   78.2440  220.5430 C   0  0  1  0  0  0  0  0  0  0  0  0
  138.2060   77.3620  221.0640 C   0  0  0  0  0  0  0  0  0  0  0  0
  138.8700   77.5530  222.4420 C   0  0  1  0  0  0  0  0  0  0  0  0
  139.9130   76.4870  222.5060 C   0  0  0  0  0  0  0  0  0  0  0  0
  139.3160   78.8770  221.9270 C   0  0  1  0  0  0  0  0  0  0  0  0
  140.5720   79.4460  222.4150 C   0  0  0  0  0  0  0  0  0  0  0  0
  141.3990   80.2860  221.7000 C   0  0  0  0  0  0  0  0  0  0  0  0
  142.5730   80.8050  222.2000 C   0  0  0  0  0  0  0  0  0  0  0  0
  142.9830   80.4950  223.4800 C   0  0  0  0  0  0  0  0  0  0  0  0
  142.1760   79.6540  224.2250 C   0  0  0  0  0  0  0  0  0  0  0  0
  141.0040   79.1420  223.7120 C   0  0  0  0  0  0  0  0  0  0  0  0
  140.1960   71.3360  223.6220 C   0  0  0  0  0  0  0  0  0  0  0  0
  139.6240   70.0830  223.6890 C   0  0  0  0  0  0  0  0  0  0  0  0
  139.5370   69.3680  224.8550 C   0  0  0  0  0  0  0  0  0  0  0  0
  140.0480   69.9460  226.0000 C   0  0  0  0  0  0  0  0  0  0  0  0
  139.9890   69.2740  227.2110 C   0  0  0  0  0  0  0  0  0  0  0  0
  140.4950   69.8440  228.3510 C   0  0  0  0  0  0  0  0  0  0  0  0
  141.0760   71.1100  228.2990 C   0  0  0  0  0  0  0  0  0  0  0  0
  141.1180   71.7540  227.0740 C   0  0  0  0  0  0  0  0  0  0  0  0
  140.6170   71.2010  225.9170 C   0  0  0  0  0  0  0  0  0  0  0  0
  140.6890   71.8850  224.7460 N   0  0  0  0  0  0  0  0  0  0  0  0
  139.3140   73.8450  222.9560 H   0  0  0  0  0  0  0  0  0  0  0  0
  140.0657   73.0856  220.1008 H   0  0  0  0  0  0  0  0  0  0  0  0
  138.8287   74.3266  220.5614 H   0  0  0  0  0  0  0  0  0  0  0  0
  141.4637   78.0180  220.6143 H   0  0  0  0  0  0  0  0  0  0  0  0
  140.6823   77.1635  219.2652 H   0  0  0  0  0  0  0  0  0  0  0  0
  139.2925   78.8342  219.6163 H   0  0  0  0  0  0  0  0  0  0  0  0
  137.1985   77.7924  220.9659 H   0  0  0  0  0  0  0  0  0  0  0  0
  137.9716   76.3733  220.6427 H   0  0  0  0  0  0  0  0  0  0  0  0
  138.3991   77.5105  223.4352 H   0  0  0  0  0  0  0  0  0  0  0  0
  140.7227   76.8066  223.1785 H   0  0  0  0  0  0  0  0  0  0  0  0
  139.4639   75.5580  222.8871 H   0  0  0  0  0  0  0  0  0  0  0  0
  138.7411   79.7867  222.1551 H   0  0  0  0  0  0  0  0  0  0  0  0
  141.1055   80.5564  220.6749 H   0  0  0  0  0  0  0  0  0  0  0  0
  143.1869   81.4703  221.5751 H   0  0  0  0  0  0  0  0  0  0  0  0
  143.9177   80.9018  223.8933 H   0  0  0  0  0  0  0  0  0  0  0  0
  142.4764   79.3882  225.2493 H   0  0  0  0  0  0  0  0  0  0  0  0
  140.3913   78.4767  224.3381 H   0  0  0  0  0  0  0  0  0  0  0  0
  139.2203   69.6385  222.7673 H   0  0  0  0  0  0  0  0  0  0  0  0
  139.0765   68.3693  224.8778 H   0  0  0  0  0  0  0  0  0  0  0  0
  139.5321   68.2745  227.2579 H   0  0  0  0  0  0  0  0  0  0  0  0
  140.4424   69.3020  229.3068 H   0  0  0  0  0  0  0  0  0  0  0  0
  141.4882   71.5826  229.2028 H   0  0  0  0  0  0  0  0  0  0  0  0
  141.5729   72.7542  227.0228 H   0  0  0  0  0  0  0  0  0  0  0  0
  1  2  2  0
  2  3  1  0
  3  4  1  0
  4  5  1  0
  5  6  2  0
  5  7  1  0
  7  8  1  0
  8  9  1  0
  9 10  1  0
 10 11  1  0
 11 12  1  0
 11 13  1  0
 13 14  1  0
 14 15  2  0
 15 16  1  0
 16 17  2  0
 17 18  1  0
 18 19  2  0
  2 20  1  0
 20 21  2  0
 21 22  1  0
 22 23  2  0
 23 24  1  0
 24 25  2  0
 25 26  1  0
 26 27  2  0
 27 28  1  0
 28 29  2  0
 12  7  1  0
 19 14  1  0
 29 20  1  0
 13  9  1  0
 28 23  1  0
  3 30  1  0
  4 31  1  0
  4 32  1  0
  8 33  1  0
  8 34  1  0
  9 35  1  6
 10 36  1  0
 10 37  1  0
 11 38  1  1
 12 39  1  0
 12 40  1  0
 13 41  1  6
 15 42  1  0
 16 43  1  0
 17 44  1  0
 18 45  1  0
 19 46  1  0
 21 47  1  0
 22 48  1  0
 24 49  1  0
 25 50  1  0
 26 51  1  0
 27 52  1  0
M  END
>  <smiles>  (62) 
O=C(NCC(=O)N1C[C@H]2C[C@@H](C1)C2c1ccccc1)c1ccc2ccccc2n1

>  <score_type>  (62) 
oracle

>  <origin>  (62) 
autodockgpu

>  <m_score__min__energy>  (62) 
-9.1899999999999995

>  <m_primary>  (62) 
energy

>  <rmsd>  (62) 
2.7995370129940507

>  <m_score__min__rmsd>  (62) 
2.7995370129940507

>  <meeko>  (62) 
{"free_energy": -9.06, "intermolecular_energy": -10.55, "internal_energy": -1.34, "cluster_size": 35, "cluster_id": 1, "rank_in_cluster": 20}

>  <energy>  (62) 
-9.1

>  <cluster_rmsd>  (62) 
1.27

>  <cluster>  (62) 
1

$$$$

     RDKit          3D

 52 56  0  0  1  0  0  0  0  0999 V2000
  140.9270   73.9690  220.2760 O   0  0  0  0  0  0  0  0  0  0  0  0
  140.4650   74.7270  221.1800 C   0  0  0  0  0  0  0  0  0  0  0  0
  139.4690   74.1560  222.0350 N   0  0  0  0  0  0  0  0  0  0  0  0
  139.0940   72.7770  221.7820 C   0  0  0  0  0  0  0  0  0  0  0  0
  140.0450   71.8250  222.4200 C   0  0  0  0  0  0  0  0  0  0  0  0
  141.2720   71.8520  222.2500 O   0  0  0  0  0  0  0  0  0  0  0  0
  139.4970   70.8350  223.2680 N   0  0  0  0  0  0  0  0  0  0  0  0
  138.8160   71.1410  224.5200 C   0  0  0  0  0  0  0  0  0  0  0  0
  137.6310   70.2480  224.5980 C   0  0  1  0  0  0  0  0  0  0  0  0
  137.2230   69.7670  223.2010 C   0  0  0  0  0  0  0  0  0  0  0  0
  138.3350   68.7160  223.3860 C   0  0  1  0  0  0  0  0  0  0  0  0
  139.5810   69.4050  222.9390 C   0  0  0  0  0  0  0  0  0  0  0  0
  138.0260   68.7980  224.8410 C   0  0  1  0  0  0  0  0  0  0  0  0
  139.0940   68.5610  225.8110 C   0  0  0  0  0  0  0  0  0  0  0  0
  140.0540   67.5760  225.7160 C   0  0  0  0  0  0  0  0  0  0  0  0
  141.0480   67.3900  226.6530 C   0  0  0  0  0  0  0  0  0  0  0  0
  141.1260   68.2090  227.7600 C   0  0  0  0  0  0  0  0  0  0  0  0
  140.1770   69.2080  227.8840 C   0  0  0  0  0  0  0  0  0  0  0  0
  139.1880   69.3820  226.9420 C   0  0  0  0  0  0  0  0  0  0  0  0
  140.9140   76.1030  221.3480 C   0  0  0  0  0  0  0  0  0  0  0  0
  141.2790   76.7990  220.2150 C   0  0  0  0  0  0  0  0  0  0  0  0
  141.7160   78.0970  220.2510 C   0  0  0  0  0  0  0  0  0  0  0  0
  141.7870   78.7150  221.4830 C   0  0  0  0  0  0  0  0  0  0  0  0
  142.2220   80.0270  221.5870 C   0  0  0  0  0  0  0  0  0  0  0  0
  142.2940   80.6450  222.8080 C   0  0  0  0  0  0  0  0  0  0  0  0
  141.9270   79.9540  223.9620 C   0  0  0  0  0  0  0  0  0  0  0  0
  141.4980   78.6450  223.8240 C   0  0  0  0  0  0  0  0  0  0  0  0
  141.4180   78.0050  222.6080 C   0  0  0  0  0  0  0  0  0  0  0  0
  140.9880   76.7180  222.5400 N   0  0  0  0  0  0  0  0  0  0  0  0
  139.0430   74.7260  222.8040 H   0  0  0  0  0  0  0  0  0  0  0  0
  138.0866   72.6008  222.1872 H   0  0  0  0  0  0  0  0  0  0  0  0
  139.1150   72.6083  220.6952 H   0  0  0  0  0  0  0  0  0  0  0  0
  139.4873   70.9535  225.3710 H   0  0  0  0  0  0  0  0  0  0  0  0
  138.5145   72.1983  224.5553 H   0  0  0  0  0  0  0  0  0  0  0  0
  136.9667   70.8068  225.2736 H   0  0  0  0  0  0  0  0  0  0  0  0
  136.2034   69.3614  223.1246 H   0  0  0  0  0  0  0  0  0  0  0  0
  137.1680   70.4350  222.3288 H   0  0  0  0  0  0  0  0  0  0  0  0
  138.4130   67.7210  222.9235 H   0  0  0  0  0  0  0  0  0  0  0  0
  140.4483   68.9618  223.4502 H   0  0  0  0  0  0  0  0  0  0  0  0
  139.6951   69.2858  221.8514 H   0  0  0  0  0  0  0  0  0  0  0  0
  137.3516   68.0671  225.3111 H   0  0  0  0  0  0  0  0  0  0  0  0
  140.0253   66.9028  224.8465 H   0  0  0  0  0  0  0  0  0  0  0  0
  141.7835   66.5834  226.5169 H   0  0  0  0  0  0  0  0  0  0  0  0
  141.9134   68.0730  228.5160 H   0  0  0  0  0  0  0  0  0  0  0  0
  140.2134   69.8787  228.7551 H   0  0  0  0  0  0  0  0  0  0  0  0
  138.4519   70.1874  227.0813 H   0  0  0  0  0  0  0  0  0  0  0  0
  141.2167   76.2908  219.2414 H   0  0  0  0  0  0  0  0  0  0  0  0
  142.0002   78.6279  219.3305 H   0  0  0  0  0  0  0  0  0  0  0  0
  142.5124   80.5777  220.6802 H   0  0  0  0  0  0  0  0  0  0  0  0
  142.6414   81.6864  222.8776 H   0  0  0  0  0  0  0  0  0  0  0  0
  141.9767   80.4337  224.9507 H   0  0  0  0  0  0  0  0  0  0  0  0
  141.2075   78.0904  224.7284 H   0  0  0  0  0  0  0  0  0  0  0  0
  1  2  2  0
  2  3  1  0
  3  4  1  0
  4  5  1  0
  5  6  2  0
  5  7  1  0
  7  8  1  0
  8  9  1  0
  9 10  1  0
 10 11  1  0
 11 12  1  0
 11 13  1  0
 13 14  1  0
 14 15  2  0
 15 16  1  0
 16 17  2  0
 17 18  1  0
 18 19  2  0
  2 20  1  0
 20 21  2  0
 21 22  1  0
 22 23  2  0
 23 24  1  0
 24 25  2  0
 25 26  1  0
 26 27  2  0
 27 28  1  0
 28 29  2  0
 12  7  1  0
 19 14  1  0
 29 20  1  0
 13  9  1  0
 28 23  1  0
  3 30  1  0
  4 31  1  0
  4 32  1  0
  8 33  1  0
  8 34  1  0
  9 35  1  1
 10 36  1  0
 10 37  1  0
 11 38  1  6
 12 39  1  0
 12 40  1  0
 13 41  1  1
 15 42  1  0
 16 43  1  0
 17 44  1  0
 18 45  1  0
 19 46  1  0
 21 47  1  0
 22 48  1  0
 24 49  1  0
 25 50  1  0
 26 51  1  0
 27 52  1  0
M  END
>  <smiles>  (63) 
O=C(NCC(=O)N1C[C@H]2C[C@@H](C1)C2c1ccccc1)c1ccc2ccccc2n1

>  <score_type>  (63) 
oracle

>  <origin>  (63) 
autodockgpu

>  <m_score__min__energy>  (63) 
-9.1899999999999995

>  <m_primary>  (63) 
energy

>  <rmsd>  (63) 
8.3048523706331

>  <m_score__min__rmsd>  (63) 
8.3048523706331

>  <meeko>  (63) 
{"free_energy": -8.7, "intermolecular_energy": -10.19, "internal_energy": -1.28, "cluster_size": 15, "cluster_id": 2, "rank_in_cluster": 14}

>  <energy>  (63) 
-9.1

>  <cluster_rmsd>  (63) 
1.33

>  <cluster>  (63) 
1

$$$$

     RDKit          3D

 52 56  0  0  1  0  0  0  0  0999 V2000
  141.1540   71.7830  221.5240 O   0  0  0  0  0  0  0  0  0  0  0  0
  140.3060   72.1270  222.4000 C   0  0  0  0  0  0  0  0  0  0  0  0
  139.4890   73.2580  222.0790 N   0  0  0  0  0  0  0  0  0  0  0  0
  139.7150   73.8900  220.7920 C   0  0  0  0  0  0  0  0  0  0  0  0
  140.8010   74.9070  220.8650 C   0  0  0  0  0  0  0  0  0  0  0  0
  141.9920   74.6690  220.6200 O   0  0  0  0  0  0  0  0  0  0  0  0
  140.4320   76.2200  221.2390 N   0  0  0  0  0  0  0  0  0  0  0  0
  140.6540   77.3850  220.3910 C   0  0  0  0  0  0  0  0  0  0  0  0
  139.4380   78.2330  220.4940 C   0  0  1  0  0  0  0  0  0  0  0  0
  138.2330   77.3980  220.9400 C   0  0  0  0  0  0  0  0  0  0  0  0
  138.7910   77.5980  222.3620 C   0  0  1  0  0  0  0  0  0  0  0  0
  139.7900   76.5020  222.5300 C   0  0  0  0  0  0  0  0  0  0  0  0
  139.3190   78.8970  221.8590 C   0  0  1  0  0  0  0  0  0  0  0  0
  140.5500   79.4370  222.4360 C   0  0  0  0  0  0  0  0  0  0  0  0
  141.0160   79.1770  223.7070 C   0  0  0  0  0  0  0  0  0  0  0  0
  142.1850   79.7040  224.2110 C   0  0  0  0  0  0  0  0  0  0  0  0
  142.9630   80.5420  223.4380 C   0  0  0  0  0  0  0  0  0  0  0  0
  142.5220   80.8240  222.1580 C   0  0  0  0  0  0  0  0  0  0  0  0
  141.3510   80.2900  221.6670 C   0  0  0  0  0  0  0  0  0  0  0  0
  140.1610   71.4190  223.6660 C   0  0  0  0  0  0  0  0  0  0  0  0
  139.4740   70.2230  223.6540 C   0  0  0  0  0  0  0  0  0  0  0  0
  139.2760   69.4710  224.7820 C   0  0  0  0  0  0  0  0  0  0  0  0
  139.7940   69.9480  225.9700 C   0  0  0  0  0  0  0  0  0  0  0  0
  139.6270   69.2350  227.1460 C   0  0  0  0  0  0  0  0  0  0  0  0
  140.1390   69.7060  228.3280 C   0  0  0  0  0  0  0  0  0  0  0  0
  140.8350   70.9130  228.3540 C   0  0  0  0  0  0  0  0  0  0  0  0
  140.9830   71.6010  227.1630 C   0  0  0  0  0  0  0  0  0  0  0  0
  140.4780   71.1470  225.9650 C   0  0  0  0  0  0  0  0  0  0  0  0
  140.6590   71.8710  224.8290 N   0  0  0  0  0  0  0  0  0  0  0  0
  138.7670   73.5970  222.7570 H   0  0  0  0  0  0  0  0  0  0  0  0
  139.9965   73.1188  220.0599 H   0  0  0  0  0  0  0  0  0  0  0  0
  138.7872   74.3978  220.4898 H   0  0  0  0  0  0  0  0  0  0  0  0
  141.5352   77.9437  220.7392 H   0  0  0  0  0  0  0  0  0  0  0  0
  140.8365   77.0839  219.3489 H   0  0  0  0  0  0  0  0  0  0  0  0
  139.4769   78.8038  219.5545 H   0  0  0  0  0  0  0  0  0  0  0  0
  137.2508   77.8568  220.7537 H   0  0  0  0  0  0  0  0  0  0  0  0
  138.0012   76.4079  220.5205 H   0  0  0  0  0  0  0  0  0  0  0  0
  138.2418   77.5915  223.3151 H   0  0  0  0  0  0  0  0  0  0  0  0
  140.5535   76.8109  223.2591 H   0  0  0  0  0  0  0  0  0  0  0  0
  139.2817   75.5959  222.8915 H   0  0  0  0  0  0  0  0  0  0  0  0
  138.7580   79.8290  222.0222 H   0  0  0  0  0  0  0  0  0  0  0  0
  140.4229   78.5133  224.3534 H   0  0  0  0  0  0  0  0  0  0  0  0
  142.5000   79.4555  225.2352 H   0  0  0  0  0  0  0  0  0  0  0  0
  143.8993   80.9698  223.8258 H   0  0  0  0  0  0  0  0  0  0  0  0
  143.1196   81.4895  221.5177 H   0  0  0  0  0  0  0  0  0  0  0  0
  141.0366   80.5405  220.6431 H   0  0  0  0  0  0  0  0  0  0  0  0
  139.0682   69.8578  222.6991 H   0  0  0  0  0  0  0  0  0  0  0  0
  138.7237   68.5205  224.7428 H   0  0  0  0  0  0  0  0  0  0  0  0
  139.0783   68.2817  227.1316 H   0  0  0  0  0  0  0  0  0  0  0  0
  140.0003   69.1310  229.2554 H   0  0  0  0  0  0  0  0  0  0  0  0
  141.2536   71.3064  229.2921 H   0  0  0  0  0  0  0  0  0  0  0  0
  141.5297   72.5555  227.1734 H   0  0  0  0  0  0  0  0  0  0  0  0
  1  2  2  0
  2  3  1  0
  3  4  1  0
  4  5  1  0
  5  6  2  0
  5  7  1  0
  7  8  1  0
  8  9  1  0
  9 10  1  0
 10 11  1  0
 11 12  1  0
 11 13  1  0
 13 14  1  0
 14 15  2  0
 15 16  1  0
 16 17  2  0
 17 18  1  0
 18 19  2  0
  2 20  1  0
 20 21  2  0
 21 22  1  0
 22 23  2  0
 23 24  1  0
 24 25  2  0
 25 26  1  0
 26 27  2  0
 27 28  1  0
 28 29  2  0
 12  7  1  0
 19 14  1  0
 29 20  1  0
 13  9  1  0
 28 23  1  0
  3 30  1  0
  4 31  1  0
  4 32  1  0
  8 33  1  0
  8 34  1  0
  9 35  1  6
 10 36  1  0
 10 37  1  0
 11 38  1  1
 12 39  1  0
 12 40  1  0
 13 41  1  6
 15 42  1  0
 16 43  1  0
 17 44  1  0
 18 45  1  0
 19 46  1  0
 21 47  1  0
 22 48  1  0
 24 49  1  0
 25 50  1  0
 26 51  1  0
 27 52  1  0
M  END
>  <smiles>  (64) 
O=C(NCC(=O)N1C[C@H]2C[C@@H](C1)C2c1ccccc1)c1ccc2ccccc2n1

>  <score_type>  (64) 
oracle

>  <origin>  (64) 
autodockgpu

>  <m_score__min__energy>  (64) 
-9.1899999999999995

>  <m_primary>  (64) 
energy

>  <rmsd>  (64) 
2.77518046391218

>  <m_score__min__rmsd>  (64) 
2.77518046391218

>  <meeko>  (64) 
{"free_energy": -9.1, "intermolecular_energy": -10.59, "internal_energy": -1.33, "cluster_size": 35, "cluster_id": 1, "rank_in_cluster": 14}

>  <energy>  (64) 
-9.1

>  <cluster_rmsd>  (64) 
1.33

>  <cluster>  (64) 
1

$$$$

     RDKit          3D

 52 56  0  0  1  0  0  0  0  0999 V2000
  140.7000   71.5180  221.3450 O   0  0  0  0  0  0  0  0  0  0  0  0
  140.1340   71.9930  222.3740 C   0  0  0  0  0  0  0  0  0  0  0  0
  139.4790   73.2550  222.2100 N   0  0  0  0  0  0  0  0  0  0  0  0
  139.5300   73.8570  220.8890 C   0  0  0  0  0  0  0  0  0  0  0  0
  140.6390   74.8460  220.7820 C   0  0  0  0  0  0  0  0  0  0  0  0
  141.7900   74.5620  220.4230 O   0  0  0  0  0  0  0  0  0  0  0  0
  140.3420   76.1880  221.1150 N   0  0  0  0  0  0  0  0  0  0  0  0
  140.6760   77.3180  220.2570 C   0  0  0  0  0  0  0  0  0  0  0  0
  139.5160   78.2460  220.2910 C   0  0  1  0  0  0  0  0  0  0  0  0
  138.2400   77.5010  220.6970 C   0  0  0  0  0  0  0  0  0  0  0  0
  138.7480   77.6940  222.1390 C   0  0  1  0  0  0  0  0  0  0  0  0
  139.6650   76.5390  222.3710 C   0  0  0  0  0  0  0  0  0  0  0  0
  139.3830   78.9440  221.6370 C   0  0  1  0  0  0  0  0  0  0  0  0
  140.6200   79.4150  222.2580 C   0  0  0  0  0  0  0  0  0  0  0  0
  141.5690   80.2060  221.6450 C   0  0  0  0  0  0  0  0  0  0  0  0
  142.7220   80.6320  222.2690 C   0  0  0  0  0  0  0  0  0  0  0  0
  142.9820   80.2730  223.5750 C   0  0  0  0  0  0  0  0  0  0  0  0
  142.0490   79.4800  224.2190 C   0  0  0  0  0  0  0  0  0  0  0  0
  140.9010   79.0610  223.5830 C   0  0  0  0  0  0  0  0  0  0  0  0
  140.1420   71.3020  223.6570 C   0  0  0  0  0  0  0  0  0  0  0  0
  139.6330   70.0210  223.6970 C   0  0  0  0  0  0  0  0  0  0  0  0
  139.5900   69.2760  224.8460 C   0  0  0  0  0  0  0  0  0  0  0  0
  140.0820   69.8500  226.0010 C   0  0  0  0  0  0  0  0  0  0  0  0
  140.0650   69.1480  227.1960 C   0  0  0  0  0  0  0  0  0  0  0  0
  140.5520   69.7150  228.3460 C   0  0  0  0  0  0  0  0  0  0  0  0
  141.0700   71.0090  228.3210 C   0  0  0  0  0  0  0  0  0  0  0  0
  141.0710   71.6830  227.1110 C   0  0  0  0  0  0  0  0  0  0  0  0
  140.5880   71.1340  225.9450 C   0  0  0  0  0  0  0  0  0  0  0  0
  140.6170   71.8480  224.7890 N   0  0  0  0  0  0  0  0  0  0  0  0
  138.9900   73.7060  223.0180 H   0  0  0  0  0  0  0  0  0  0  0  0
  139.6838   73.0652  220.1411 H   0  0  0  0  0  0  0  0  0  0  0  0
  138.5802   74.3832  220.7127 H   0  0  0  0  0  0  0  0  0  0  0  0
  141.5767   77.8250  220.6334 H   0  0  0  0  0  0  0  0  0  0  0  0
  140.8818   76.9837  219.2294 H   0  0  0  0  0  0  0  0  0  0  0  0
  139.6332   78.7940  219.3444 H   0  0  0  0  0  0  0  0  0  0  0  0
  137.2993   78.0190  220.4586 H   0  0  0  0  0  0  0  0  0  0  0  0
  137.9615   76.5197  220.2853 H   0  0  0  0  0  0  0  0  0  0  0  0
  138.1581   77.7434  223.0661 H   0  0  0  0  0  0  0  0  0  0  0  0
  140.4153   76.8132  223.1272 H   0  0  0  0  0  0  0  0  0  0  0  0
  139.0831   75.6758  222.7263 H   0  0  0  0  0  0  0  0  0  0  0  0
  138.8789   79.9141  221.7588 H   0  0  0  0  0  0  0  0  0  0  0  0
  141.3967   80.5132  220.6029 H   0  0  0  0  0  0  0  0  0  0  0  0
  143.4389   81.2620  221.7221 H   0  0  0  0  0  0  0  0  0  0  0  0
  143.8978   80.6051  224.0860 H   0  0  0  0  0  0  0  0  0  0  0  0
  142.2277   79.1775  225.2614 H   0  0  0  0  0  0  0  0  0  0  0  0
  140.1854   78.4309  224.1314 H   0  0  0  0  0  0  0  0  0  0  0  0
  139.2452   69.5788  222.7674 H   0  0  0  0  0  0  0  0  0  0  0  0
  139.1778   68.2561  224.8481 H   0  0  0  0  0  0  0  0  0  0  0  0
  139.6572   68.1267  227.2223 H   0  0  0  0  0  0  0  0  0  0  0  0
  140.5338   69.1483  229.2886 H   0  0  0  0  0  0  0  0  0  0  0  0
  141.4654   71.4798  229.2332 H   0  0  0  0  0  0  0  0  0  0  0  0
  141.4768   72.7049  227.0805 H   0  0  0  0  0  0  0  0  0  0  0  0
  1  2  2  0
  2  3  1  0
  3  4  1  0
  4  5  1  0
  5  6  2  0
  5  7  1  0
  7  8  1  0
  8  9  1  0
  9 10  1  0
 10 11  1  0
 11 12  1  0
 11 13  1  0
 13 14  1  0
 14 15  2  0
 15 16  1  0
 16 17  2  0
 17 18  1  0
 18 19  2  0
  2 20  1  0
 20 21  2  0
 21 22  1  0
 22 23  2  0
 23 24  1  0
 24 25  2  0
 25 26  1  0
 26 27  2  0
 27 28  1  0
 28 29  2  0
 12  7  1  0
 19 14  1  0
 29 20  1  0
 13  9  1  0
 28 23  1  0
  3 30  1  0
  4 31  1  0
  4 32  1  0
  8 33  1  0
  8 34  1  0
  9 35  1  6
 10 36  1  0
 10 37  1  0
 11 38  1  1
 12 39  1  0
 12 40  1  0
 13 41  1  6
 15 42  1  0
 16 43  1  0
 17 44  1  0
 18 45  1  0
 19 46  1  0
 21 47  1  0
 22 48  1  0
 24 49  1  0
 25 50  1  0
 26 51  1  0
 27 52  1  0
M  END
>  <smiles>  (65) 
O=C(NCC(=O)N1C[C@H]2C[C@@H](C1)C2c1ccccc1)c1ccc2ccccc2n1

>  <score_type>  (65) 
oracle

>  <origin>  (65) 
autodockgpu

>  <m_score__min__energy>  (65) 
-9.1899999999999995

>  <m_primary>  (65) 
energy

>  <rmsd>  (65) 
2.6637946242268655

>  <m_score__min__rmsd>  (65) 
2.6637946242268655

>  <meeko>  (65) 
{"free_energy": -9.03, "intermolecular_energy": -10.52, "internal_energy": -1.3, "cluster_size": 35, "cluster_id": 1, "rank_in_cluster": 25}

>  <energy>  (65) 
-9.09

>  <cluster_rmsd>  (65) 
1.61

>  <cluster>  (65) 
1

$$$$

     RDKit          3D

 52 56  0  0  1  0  0  0  0  0999 V2000
  139.5780   73.4220  222.3970 O   0  0  0  0  0  0  0  0  0  0  0  0
  140.3920   72.4680  222.5790 C   0  0  0  0  0  0  0  0  0  0  0  0
  141.4170   72.3140  221.5920 N   0  0  0  0  0  0  0  0  0  0  0  0
  141.4190   73.2610  220.4910 C   0  0  0  0  0  0  0  0  0  0  0  0
  142.3400   74.4020  220.7530 C   0  0  0  0  0  0  0  0  0  0  0  0
  143.5700   74.2930  220.8550 O   0  0  0  0  0  0  0  0  0  0  0  0
  141.7570   75.6830  220.8940 N   0  0  0  0  0  0  0  0  0  0  0  0
  142.1850   76.8460  220.1250 C   0  0  0  0  0  0  0  0  0  0  0  0
  140.9560   77.5790  219.7280 C   0  0  1  0  0  0  0  0  0  0  0  0
  139.7410   76.6460  219.7420 C   0  0  0  0  0  0  0  0  0  0  0  0
  139.7130   76.9270  221.2570 C   0  0  1  0  0  0  0  0  0  0  0  0
  140.6610   75.9320  221.8400 C   0  0  0  0  0  0  0  0  0  0  0  0
  140.2870   78.2580  220.9150 C   0  0  1  0  0  0  0  0  0  0  0  0
  141.1680   78.9220  221.8740 C   0  0  0  0  0  0  0  0  0  0  0  0
  142.1480   79.8380  221.5540 C   0  0  0  0  0  0  0  0  0  0  0  0
  142.9560   80.4460  222.4910 C   0  0  0  0  0  0  0  0  0  0  0  0
  142.8130   80.1530  223.8310 C   0  0  0  0  0  0  0  0  0  0  0  0
  141.8380   79.2370  224.1850 C   0  0  0  0  0  0  0  0  0  0  0  0
  141.0380   78.6360  223.2380 C   0  0  0  0  0  0  0  0  0  0  0  0
  140.2990   71.5730  223.7240 C   0  0  0  0  0  0  0  0  0  0  0  0
  139.7200   70.3370  223.5250 C   0  0  0  0  0  0  0  0  0  0  0  0
  139.5790   69.4130  224.5270 C   0  0  0  0  0  0  0  0  0  0  0  0
  140.0420   69.7540  225.7820 C   0  0  0  0  0  0  0  0  0  0  0  0
  139.9280   68.8630  226.8380 C   0  0  0  0  0  0  0  0  0  0  0  0
  140.3870   69.1980  228.0860 C   0  0  0  0  0  0  0  0  0  0  0  0
  140.9750   70.4430  228.3030 C   0  0  0  0  0  0  0  0  0  0  0  0
  141.0720   71.3090  227.2270 C   0  0  0  0  0  0  0  0  0  0  0  0
  140.6190   70.9940  225.9660 C   0  0  0  0  0  0  0  0  0  0  0  0
  140.7450   71.8900  224.9520 N   0  0  0  0  0  0  0  0  0  0  0  0
  142.1240   71.5460  221.6790 H   0  0  0  0  0  0  0  0  0  0  0  0
  141.7422   72.7439  219.5755 H   0  0  0  0  0  0  0  0  0  0  0  0
  140.4001   73.6595  220.3771 H   0  0  0  0  0  0  0  0  0  0  0  0
  142.8274   77.4915  220.7420 H   0  0  0  0  0  0  0  0  0  0  0  0
  142.7637   76.5411  219.2406 H   0  0  0  0  0  0  0  0  0  0  0  0
  141.2966   78.1312  218.8397 H   0  0  0  0  0  0  0  0  0  0  0  0
  138.8660   77.0081  219.1823 H   0  0  0  0  0  0  0  0  0  0  0  0
  139.7596   75.6302  219.3204 H   0  0  0  0  0  0  0  0  0  0  0  0
  138.8510   76.8898  221.9394 H   0  0  0  0  0  0  0  0  0  0  0  0
  141.0721   76.3258  222.7812 H   0  0  0  0  0  0  0  0  0  0  0  0
  140.1272   74.9905  222.0369 H   0  0  0  0  0  0  0  0  0  0  0  0
  139.6347   79.1375  220.8097 H   0  0  0  0  0  0  0  0  0  0  0  0
  142.2926   80.0973  220.4948 H   0  0  0  0  0  0  0  0  0  0  0  0
  143.7193   81.1692  222.1679 H   0  0  0  0  0  0  0  0  0  0  0  0
  143.4503   80.6297  224.5903 H   0  0  0  0  0  0  0  0  0  0  0  0
  141.6986   78.9831  225.2462 H   0  0  0  0  0  0  0  0  0  0  0  0
  140.2764   77.9117  223.5626 H   0  0  0  0  0  0  0  0  0  0  0  0
  139.3558   70.0821  222.5188 H   0  0  0  0  0  0  0  0  0  0  0  0
  139.1135   68.4344  224.3381 H   0  0  0  0  0  0  0  0  0  0  0  0
  139.4653   67.8787  226.6733 H   0  0  0  0  0  0  0  0  0  0  0  0
  140.2910   68.4834  228.9168 H   0  0  0  0  0  0  0  0  0  0  0  0
  141.3499   70.7283  229.2970 H   0  0  0  0  0  0  0  0  0  0  0  0
  141.5327   72.2949  227.3875 H   0  0  0  0  0  0  0  0  0  0  0  0
  1  2  2  0
  2  3  1  0
  3  4  1  0
  4  5  1  0
  5  6  2  0
  5  7  1  0
  7  8  1  0
  8  9  1  0
  9 10  1  0
 10 11  1  0
 11 12  1  0
 11 13  1  0
 13 14  1  0
 14 15  2  0
 15 16  1  0
 16 17  2  0
 17 18  1  0
 18 19  2  0
  2 20  1  0
 20 21  2  0
 21 22  1  0
 22 23  2  0
 23 24  1  0
 24 25  2  0
 25 26  1  0
 26 27  2  0
 27 28  1  0
 28 29  2  0
 12  7  1  0
 19 14  1  0
 29 20  1  0
 13  9  1  0
 28 23  1  0
  3 30  1  0
  4 31  1  0
  4 32  1  0
  8 33  1  0
  8 34  1  0
  9 35  1  6
 10 36  1  0
 10 37  1  0
 11 38  1  1
 12 39  1  0
 12 40  1  0
 13 41  1  6
 15 42  1  0
 16 43  1  0
 17 44  1  0
 18 45  1  0
 19 46  1  0
 21 47  1  0
 22 48  1  0
 24 49  1  0
 25 50  1  0
 26 51  1  0
 27 52  1  0
M  END
>  <smiles>  (66) 
O=C(NCC(=O)N1C[C@H]2C[C@@H](C1)C2c1ccccc1)c1ccc2ccccc2n1

>  <score_type>  (66) 
oracle

>  <origin>  (66) 
autodockgpu

>  <m_score__min__energy>  (66) 
-9.1899999999999995

>  <m_primary>  (66) 
energy

>  <rmsd>  (66) 
2.629253294406375

>  <m_score__min__rmsd>  (66) 
2.629253294406375

>  <meeko>  (66) 
{"free_energy": -9.19, "intermolecular_energy": -10.68, "internal_energy": -1.37, "cluster_size": 35, "cluster_id": 1, "rank_in_cluster": 1}

>  <energy>  (66) 
-9.08

>  <cluster_rmsd>  (66) 
1.59

>  <cluster>  (66) 
1

$$$$

     RDKit          3D

 52 56  0  0  1  0  0  0  0  0999 V2000
  140.2120   74.2410  221.9800 O   0  0  0  0  0  0  0  0  0  0  0  0
  139.2860   75.0960  222.1110 C   0  0  0  0  0  0  0  0  0  0  0  0
  137.9510   74.6190  221.9070 N   0  0  0  0  0  0  0  0  0  0  0  0
  137.7970   73.2140  221.5750 C   0  0  0  0  0  0  0  0  0  0  0  0
  137.1930   72.4490  222.7020 C   0  0  0  0  0  0  0  0  0  0  0  0
  136.0090   72.5480  223.0530 O   0  0  0  0  0  0  0  0  0  0  0  0
  138.0380   71.5580  223.4050 N   0  0  0  0  0  0  0  0  0  0  0  0
  137.5600   70.6500  224.4390 C   0  0  0  0  0  0  0  0  0  0  0  0
  138.2590   69.3540  224.2350 C   0  0  1  0  0  0  0  0  0  0  0  0
  138.7540   69.2290  222.7900 C   0  0  0  0  0  0  0  0  0  0  0  0
  139.9480   70.0780  223.2680 C   0  0  1  0  0  0  0  0  0  0  0  0
  139.4810   71.4890  223.1340 C   0  0  0  0  0  0  0  0  0  0  0  0
  139.7350   69.4390  224.5970 C   0  0  1  0  0  0  0  0  0  0  0  0
  140.0720   70.1860  225.8080 C   0  0  0  0  0  0  0  0  0  0  0  0
  139.5870   69.9170  227.0710 C   0  0  0  0  0  0  0  0  0  0  0  0
  139.9350   70.6440  228.1890 C   0  0  0  0  0  0  0  0  0  0  0  0
  140.8110   71.7050  228.0880 C   0  0  0  0  0  0  0  0  0  0  0  0
  141.3150   72.0000  226.8340 C   0  0  0  0  0  0  0  0  0  0  0  0
  140.9590   71.2660  225.7240 C   0  0  0  0  0  0  0  0  0  0  0  0
  139.5520   76.4880  222.4480 C   0  0  0  0  0  0  0  0  0  0  0  0
  138.4700   77.3310  222.5850 C   0  0  0  0  0  0  0  0  0  0  0  0
  138.5990   78.6590  222.9010 C   0  0  0  0  0  0  0  0  0  0  0  0
  139.8750   79.1520  223.0850 C   0  0  0  0  0  0  0  0  0  0  0  0
  140.0730   80.4860  223.4050 C   0  0  0  0  0  0  0  0  0  0  0  0
  141.3380   80.9800  223.5880 C   0  0  0  0  0  0  0  0  0  0  0  0
  142.4420   80.1400  223.4530 C   0  0  0  0  0  0  0  0  0  0  0  0
  142.2100   78.8140  223.1320 C   0  0  0  0  0  0  0  0  0  0  0  0
  140.9480   78.2950  222.9440 C   0  0  0  0  0  0  0  0  0  0  0  0
  140.7890   76.9830  222.6300 N   0  0  0  0  0  0  0  0  0  0  0  0
  137.1370   75.2710  221.9990 H   0  0  0  0  0  0  0  0  0  0  0  0
  137.1459   73.1246  220.6929 H   0  0  0  0  0  0  0  0  0  0  0  0
  138.7940   72.7968  221.3701 H   0  0  0  0  0  0  0  0  0  0  0  0
  137.7954   71.0537  225.4348 H   0  0  0  0  0  0  0  0  0  0  0  0
  136.4692   70.5223  224.3762 H   0  0  0  0  0  0  0  0  0  0  0  0
  137.5681   68.6433  224.7120 H   0  0  0  0  0  0  0  0  0  0  0  0
  139.0049   68.2076  222.4677 H   0  0  0  0  0  0  0  0  0  0  0  0
  138.1375   69.4974  221.9194 H   0  0  0  0  0  0  0  0  0  0  0  0
  140.9691   70.1064  222.8598 H   0  0  0  0  0  0  0  0  0  0  0  0
  140.0195   72.1229  223.8539 H   0  0  0  0  0  0  0  0  0  0  0  0
  139.6783   71.8438  222.1117 H   0  0  0  0  0  0  0  0  0  0  0  0
  140.3269   68.5615  224.8964 H   0  0  0  0  0  0  0  0  0  0  0  0
  138.8857   69.0783  227.1922 H   0  0  0  0  0  0  0  0  0  0  0  0
  139.5115   70.3765  229.1683 H   0  0  0  0  0  0  0  0  0  0  0  0
  141.0979   72.2942  228.9714 H   0  0  0  0  0  0  0  0  0  0  0  0
  142.0161   72.8400  226.7206 H   0  0  0  0  0  0  0  0  0  0  0  0
  141.3830   71.5356  224.7454 H   0  0  0  0  0  0  0  0  0  0  0  0
  137.4604   76.9210  222.4345 H   0  0  0  0  0  0  0  0  0  0  0  0
  137.7171   79.3083  223.0042 H   0  0  0  0  0  0  0  0  0  0  0  0
  139.2063   81.1546  223.5131 H   0  0  0  0  0  0  0  0  0  0  0  0
  141.4823   82.0406  223.8417 H   0  0  0  0  0  0  0  0  0  0  0  0
  143.4646   80.5188  223.5970 H   0  0  0  0  0  0  0  0  0  0  0  0
  143.0744   78.1427  223.0218 H   0  0  0  0  0  0  0  0  0  0  0  0
  1  2  2  0
  2  3  1  0
  3  4  1  0
  4  5  1  0
  5  6  2  0
  5  7  1  0
  7  8  1  0
  8  9  1  0
  9 10  1  0
 10 11  1  0
 11 12  1  0
 11 13  1  0
 13 14  1  0
 14 15  2  0
 15 16  1  0
 16 17  2  0
 17 18  1  0
 18 19  2  0
  2 20  1  0
 20 21  2  0
 21 22  1  0
 22 23  2  0
 23 24  1  0
 24 25  2  0
 25 26  1  0
 26 27  2  0
 27 28  1  0
 28 29  2  0
 12  7  1  0
 19 14  1  0
 29 20  1  0
 13  9  1  0
 28 23  1  0
  3 30  1  0
  4 31  1  0
  4 32  1  0
  8 33  1  0
  8 34  1  0
  9 35  1  1
 10 36  1  0
 10 37  1  0
 11 38  1  6
 12 39  1  0
 12 40  1  0
 13 41  1  6
 15 42  1  0
 16 43  1  0
 17 44  1  0
 18 45  1  0
 19 46  1  0
 21 47  1  0
 22 48  1  0
 24 49  1  0
 25 50  1  0
 26 51  1  0
 27 52  1  0
M  END
>  <smiles>  (67) 
O=C(NCC(=O)N1C[C@H]2C[C@@H](C1)C2c1ccccc1)c1ccc2ccccc2n1

>  <score_type>  (67) 
oracle

>  <origin>  (67) 
autodockgpu

>  <m_score__min__energy>  (67) 
-9.1899999999999995

>  <m_primary>  (67) 
energy

>  <rmsd>  (67) 
8.122070814190732

>  <m_score__min__rmsd>  (67) 
8.122070814190732

>  <meeko>  (67) 
{"free_energy": -9.01, "intermolecular_energy": -10.5, "internal_energy": -1.36, "cluster_size": 15, "cluster_id": 2, "rank_in_cluster": 12}

>  <energy>  (67) 
-9.08

>  <cluster_rmsd>  (67) 
1.66

>  <cluster>  (67) 
1

$$$$

     RDKit          3D

 52 56  0  0  1  0  0  0  0  0999 V2000
  140.9660   71.6760  221.4070 O   0  0  0  0  0  0  0  0  0  0  0  0
  140.2790   72.1030  222.3830 C   0  0  0  0  0  0  0  0  0  0  0  0
  139.5670   73.3260  222.1680 N   0  0  0  0  0  0  0  0  0  0  0  0
  139.7040   73.9480  220.8630 C   0  0  0  0  0  0  0  0  0  0  0  0
  140.7850   74.9720  220.8560 C   0  0  0  0  0  0  0  0  0  0  0  0
  141.9620   74.7370  220.5470 O   0  0  0  0  0  0  0  0  0  0  0  0
  140.4300   76.2890  221.2300 N   0  0  0  0  0  0  0  0  0  0  0  0
  140.6110   77.4440  220.3590 C   0  0  0  0  0  0  0  0  0  0  0  0
  139.3990   78.2910  220.5050 C   0  0  1  0  0  0  0  0  0  0  0  0
  138.2170   77.4590  221.0130 C   0  0  0  0  0  0  0  0  0  0  0  0
  138.8370   77.6780  222.4070 C   0  0  1  0  0  0  0  0  0  0  0  0
  139.8450   76.5860  222.5440 C   0  0  0  0  0  0  0  0  0  0  0  0
  139.3390   78.9710  221.8650 C   0  0  1  0  0  0  0  0  0  0  0  0
  140.5930   79.5210  222.3800 C   0  0  0  0  0  0  0  0  0  0  0  0
  141.4330   80.3710  221.6920 C   0  0  0  0  0  0  0  0  0  0  0  0
  142.6050   80.8710  222.2170 C   0  0  0  0  0  0  0  0  0  0  0  0
  142.9990   80.5300  223.4940 C   0  0  0  0  0  0  0  0  0  0  0  0
  142.1780   79.6790  224.2110 C   0  0  0  0  0  0  0  0  0  0  0  0
  141.0090   79.1860  223.6740 C   0  0  0  0  0  0  0  0  0  0  0  0
  140.2100   71.3970  223.6550 C   0  0  0  0  0  0  0  0  0  0  0  0
  139.6170   70.1520  223.6640 C   0  0  0  0  0  0  0  0  0  0  0  0
  139.4960   69.3960  224.8010 C   0  0  0  0  0  0  0  0  0  0  0  0
  139.9960   69.9210  225.9760 C   0  0  0  0  0  0  0  0  0  0  0  0
  139.9030   69.2070  227.1600 C   0  0  0  0  0  0  0  0  0  0  0  0
  140.3980   69.7250  228.3290 C   0  0  0  0  0  0  0  0  0  0  0  0
  141.0000   70.9820  228.3350 C   0  0  0  0  0  0  0  0  0  0  0  0
  141.0750   71.6700  227.1360 C   0  0  0  0  0  0  0  0  0  0  0  0
  140.5860   71.1690  225.9500 C   0  0  0  0  0  0  0  0  0  0  0  0
  140.6910   71.8950  224.8070 N   0  0  0  0  0  0  0  0  0  0  0  0
  138.9790   73.7360  222.9310 H   0  0  0  0  0  0  0  0  0  0  0  0
  139.9422   73.1720  220.1207 H   0  0  0  0  0  0  0  0  0  0  0  0
  138.7549   74.4471  220.6178 H   0  0  0  0  0  0  0  0  0  0  0  0
  141.5054   78.0087  220.6610 H   0  0  0  0  0  0  0  0  0  0  0  0
  140.7476   77.1303  219.3136 H   0  0  0  0  0  0  0  0  0  0  0  0
  139.3950   78.8508  219.5581 H   0  0  0  0  0  0  0  0  0  0  0  0
  137.2263   77.9133  220.8644 H   0  0  0  0  0  0  0  0  0  0  0  0
  137.9694   76.4634  220.6161 H   0  0  0  0  0  0  0  0  0  0  0  0
  138.3306   77.6826  223.3835 H   0  0  0  0  0  0  0  0  0  0  0  0
  140.6393   76.9053  223.2348 H   0  0  0  0  0  0  0  0  0  0  0  0
  139.3552   75.6836  222.9386 H   0  0  0  0  0  0  0  0  0  0  0  0
  138.7833   79.9038  222.0415 H   0  0  0  0  0  0  0  0  0  0  0  0
  141.1527   80.6656  220.6699 H   0  0  0  0  0  0  0  0  0  0  0  0
  143.2300   81.5461  221.6140 H   0  0  0  0  0  0  0  0  0  0  0  0
  143.9320   80.9206  223.9263 H   0  0  0  0  0  0  0  0  0  0  0  0
  142.4647   79.3893  225.2327 H   0  0  0  0  0  0  0  0  0  0  0  0
  140.3856   78.5108  224.2784 H   0  0  0  0  0  0  0  0  0  0  0  0
  139.2245   69.7486  222.7189 H   0  0  0  0  0  0  0  0  0  0  0  0
  139.0174   68.4059  224.7781 H   0  0  0  0  0  0  0  0  0  0  0  0
  139.4275   68.2151  227.1620 H   0  0  0  0  0  0  0  0  0  0  0  0
  140.3200   69.1483  229.2624 H   0  0  0  0  0  0  0  0  0  0  0  0
  141.4028   71.4138  229.2631 H   0  0  0  0  0  0  0  0  0  0  0  0
  141.5473   72.6634  227.1303 H   0  0  0  0  0  0  0  0  0  0  0  0
  1  2  2  0
  2  3  1  0
  3  4  1  0
  4  5  1  0
  5  6  2  0
  5  7  1  0
  7  8  1  0
  8  9  1  0
  9 10  1  0
 10 11  1  0
 11 12  1  0
 11 13  1  0
 13 14  1  0
 14 15  2  0
 15 16  1  0
 16 17  2  0
 17 18  1  0
 18 19  2  0
  2 20  1  0
 20 21  2  0
 21 22  1  0
 22 23  2  0
 23 24  1  0
 24 25  2  0
 25 26  1  0
 26 27  2  0
 27 28  1  0
 28 29  2  0
 12  7  1  0
 19 14  1  0
 29 20  1  0
 13  9  1  0
 28 23  1  0
  3 30  1  0
  4 31  1  0
  4 32  1  0
  8 33  1  0
  8 34  1  0
  9 35  1  6
 10 36  1  0
 10 37  1  0
 11 38  1  1
 12 39  1  0
 12 40  1  0
 13 41  1  6
 15 42  1  0
 16 43  1  0
 17 44  1  0
 18 45  1  0
 19 46  1  0
 21 47  1  0
 22 48  1  0
 24 49  1  0
 25 50  1  0
 26 51  1  0
 27 52  1  0
M  END
>  <smiles>  (68) 
O=C(NCC(=O)N1C[C@H]2C[C@@H](C1)C2c1ccccc1)c1ccc2ccccc2n1

>  <score_type>  (68) 
oracle

>  <origin>  (68) 
autodockgpu

>  <m_score__min__energy>  (68) 
-9.1899999999999995

>  <m_primary>  (68) 
energy

>  <rmsd>  (68) 
2.7969241677772385

>  <m_score__min__rmsd>  (68) 
2.7969241677772385

>  <meeko>  (68) 
{"free_energy": -9.12, "intermolecular_energy": -10.61, "internal_energy": -1.3, "cluster_size": 35, "cluster_id": 1, "rank_in_cluster": 9}

>  <energy>  (68) 
-9.07

>  <cluster_rmsd>  (68) 
1.31

>  <cluster>  (68) 
1

$$$$

     RDKit          3D

 52 56  0  0  1  0  0  0  0  0999 V2000
  140.6010   74.2350  220.2310 O   0  0  0  0  0  0  0  0  0  0  0  0
  140.3330   74.9450  221.2460 C   0  0  0  0  0  0  0  0  0  0  0  0
  139.4870   74.3430  222.2320 N   0  0  0  0  0  0  0  0  0  0  0  0
  139.0270   72.9910  221.9700 C   0  0  0  0  0  0  0  0  0  0  0  0
  139.9900   71.9770  222.4840 C   0  0  0  0  0  0  0  0  0  0  0  0
  141.2060   71.9930  222.2490 O   0  0  0  0  0  0  0  0  0  0  0  0
  139.4660   70.9370  223.2860 N   0  0  0  0  0  0  0  0  0  0  0  0
  138.7320   71.1740  224.5240 C   0  0  0  0  0  0  0  0  0  0  0  0
  137.5910   70.2220  224.5400 C   0  0  1  0  0  0  0  0  0  0  0  0
  137.2500   69.7630  223.1180 C   0  0  0  0  0  0  0  0  0  0  0  0
  138.4060   68.7620  223.3090 C   0  0  1  0  0  0  0  0  0  0  0  0
  139.6300   69.5240  222.9200 C   0  0  0  0  0  0  0  0  0  0  0  0
  138.0490   68.7860  224.7540 C   0  0  1  0  0  0  0  0  0  0  0  0
  139.0980   68.5740  225.7510 C   0  0  0  0  0  0  0  0  0  0  0  0
  140.0650   67.5920  225.6950 C   0  0  0  0  0  0  0  0  0  0  0  0
  141.0400   67.4290  226.6550 C   0  0  0  0  0  0  0  0  0  0  0  0
  141.0900   68.2680  227.7490 C   0  0  0  0  0  0  0  0  0  0  0  0
  140.1330   69.2640  227.8350 C   0  0  0  0  0  0  0  0  0  0  0  0
  139.1640   69.4160  226.8690 C   0  0  0  0  0  0  0  0  0  0  0  0
  140.8500   76.2970  221.4110 C   0  0  0  0  0  0  0  0  0  0  0  0
  141.2540   76.9690  220.2770 C   0  0  0  0  0  0  0  0  0  0  0  0
  141.7560   78.2440  220.3090 C   0  0  0  0  0  0  0  0  0  0  0  0
  141.8520   78.8630  221.5390 C   0  0  0  0  0  0  0  0  0  0  0  0
  142.3520   80.1520  221.6400 C   0  0  0  0  0  0  0  0  0  0  0  0
  142.4500   80.7700  222.8590 C   0  0  0  0  0  0  0  0  0  0  0  0
  142.0450   80.1030  224.0140 C   0  0  0  0  0  0  0  0  0  0  0  0
  141.5510   78.8180  223.8790 C   0  0  0  0  0  0  0  0  0  0  0  0
  141.4430   78.1770  222.6660 C   0  0  0  0  0  0  0  0  0  0  0  0
  140.9500   76.9130  222.6010 N   0  0  0  0  0  0  0  0  0  0  0  0
  139.2240   74.8720  223.0970 H   0  0  0  0  0  0  0  0  0  0  0  0
  138.0548   72.8425  222.4627 H   0  0  0  0  0  0  0  0  0  0  0  0
  138.9382   72.8617  220.8812 H   0  0  0  0  0  0  0  0  0  0  0  0
  139.3853   70.9957  225.3909 H   0  0  0  0  0  0  0  0  0  0  0  0
  138.3772   72.2138  224.5778 H   0  0  0  0  0  0  0  0  0  0  0  0
  136.8803   70.7277  225.2102 H   0  0  0  0  0  0  0  0  0  0  0  0
  136.2543   69.3111  222.9979 H   0  0  0  0  0  0  0  0  0  0  0  0
  137.1888   70.4529  222.2634 H   0  0  0  0  0  0  0  0  0  0  0  0
  138.5474   67.7857  222.8223 H   0  0  0  0  0  0  0  0  0  0  0  0
  140.5026   69.1084  223.4452 H   0  0  0  0  0  0  0  0  0  0  0  0
  139.7819   69.4426  221.8336 H   0  0  0  0  0  0  0  0  0  0  0  0
  137.3974   68.0092  225.1806 H   0  0  0  0  0  0  0  0  0  0  0  0
  140.0575   66.9021  224.8382 H   0  0  0  0  0  0  0  0  0  0  0  0
  141.7830   66.6249  226.5484 H   0  0  0  0  0  0  0  0  0  0  0  0
  141.8617   68.1497  228.5239 H   0  0  0  0  0  0  0  0  0  0  0  0
  140.1469   69.9499  228.6949 H   0  0  0  0  0  0  0  0  0  0  0  0
  138.4215   70.2202  226.9778 H   0  0  0  0  0  0  0  0  0  0  0  0
  141.1699   76.4603  219.3053 H   0  0  0  0  0  0  0  0  0  0  0  0
  142.0710   78.7556  219.3876 H   0  0  0  0  0  0  0  0  0  0  0  0
  142.6733   80.6840  220.7324 H   0  0  0  0  0  0  0  0  0  0  0  0
  142.8485   81.7931  222.9262 H   0  0  0  0  0  0  0  0  0  0  0  0
  142.1160   80.5831  225.0012 H   0  0  0  0  0  0  0  0  0  0  0  0
  141.2291   78.2829  224.7846 H   0  0  0  0  0  0  0  0  0  0  0  0
  1  2  2  0
  2  3  1  0
  3  4  1  0
  4  5  1  0
  5  6  2  0
  5  7  1  0
  7  8  1  0
  8  9  1  0
  9 10  1  0
 10 11  1  0
 11 12  1  0
 11 13  1  0
 13 14  1  0
 14 15  2  0
 15 16  1  0
 16 17  2  0
 17 18  1  0
 18 19  2  0
  2 20  1  0
 20 21  2  0
 21 22  1  0
 22 23  2  0
 23 24  1  0
 24 25  2  0
 25 26  1  0
 26 27  2  0
 27 28  1  0
 28 29  2  0
 12  7  1  0
 19 14  1  0
 29 20  1  0
 13  9  1  0
 28 23  1  0
  3 30  1  0
  4 31  1  0
  4 32  1  0
  8 33  1  0
  8 34  1  0
  9 35  1  1
 10 36  1  0
 10 37  1  0
 11 38  1  6
 12 39  1  0
 12 40  1  0
 13 41  1  6
 15 42  1  0
 16 43  1  0
 17 44  1  0
 18 45  1  0
 19 46  1  0
 21 47  1  0
 22 48  1  0
 24 49  1  0
 25 50  1  0
 26 51  1  0
 27 52  1  0
M  END
>  <smiles>  (69) 
O=C(NCC(=O)N1C[C@H]2C[C@@H](C1)C2c1ccccc1)c1ccc2ccccc2n1

>  <score_type>  (69) 
oracle

>  <origin>  (69) 
autodockgpu

>  <m_score__min__energy>  (69) 
-9.1899999999999995

>  <m_primary>  (69) 
energy

>  <rmsd>  (69) 
8.34445638399276

>  <m_score__min__rmsd>  (69) 
8.34445638399276

>  <meeko>  (69) 
{"free_energy": -8.67, "intermolecular_energy": -10.16, "internal_energy": -1.27, "cluster_size": 15, "cluster_id": 2, "rank_in_cluster": 15}

>  <energy>  (69) 
-9.06

>  <cluster_rmsd>  (69) 
1.38

>  <cluster>  (69) 
1

$$$$

     RDKit          3D

 52 56  0  0  1  0  0  0  0  0999 V2000
  139.5680   73.3860  222.3520 O   0  0  0  0  0  0  0  0  0  0  0  0
  140.4010   72.4570  222.5740 C   0  0  0  0  0  0  0  0  0  0  0  0
  141.4580   72.3150  221.6200 N   0  0  0  0  0  0  0  0  0  0  0  0
  141.4680   73.2440  220.5040 C   0  0  0  0  0  0  0  0  0  0  0  0
  142.3430   74.4180  220.7780 C   0  0  0  0  0  0  0  0  0  0  0  0
  143.5790   74.3620  220.8470 O   0  0  0  0  0  0  0  0  0  0  0  0
  141.7080   75.6670  220.9690 N   0  0  0  0  0  0  0  0  0  0  0  0
  141.9840   76.8390  220.1470 C   0  0  0  0  0  0  0  0  0  0  0  0
  140.6800   77.4980  219.8800 C   0  0  1  0  0  0  0  0  0  0  0  0
  139.5280   76.4990  220.0360 C   0  0  0  0  0  0  0  0  0  0  0  0
  139.6490   76.8020  221.5420 C   0  0  1  0  0  0  0  0  0  0  0  0
  140.7100   75.8700  222.0280 C   0  0  0  0  0  0  0  0  0  0  0  0
  140.1070   78.1570  221.1260 C   0  0  1  0  0  0  0  0  0  0  0  0
  141.0490   78.8840  221.9770 C   0  0  0  0  0  0  0  0  0  0  0  0
  141.9650   79.8150  221.5370 C   0  0  0  0  0  0  0  0  0  0  0  0
  142.8330   80.4820  222.3740 C   0  0  0  0  0  0  0  0  0  0  0  0
  142.8210   80.2370  223.7310 C   0  0  0  0  0  0  0  0  0  0  0  0
  141.9130   79.3060  224.2050 C   0  0  0  0  0  0  0  0  0  0  0  0
  141.0510   78.6470  223.3570 C   0  0  0  0  0  0  0  0  0  0  0  0
  140.2970   71.5780  223.7310 C   0  0  0  0  0  0  0  0  0  0  0  0
  139.6770   70.3590  223.5540 C   0  0  0  0  0  0  0  0  0  0  0  0
  139.5230   69.4510  224.5690 C   0  0  0  0  0  0  0  0  0  0  0  0
  140.0160   69.7910  225.8130 C   0  0  0  0  0  0  0  0  0  0  0  0
  139.8900   68.9160  226.8810 C   0  0  0  0  0  0  0  0  0  0  0  0
  140.3780   69.2500  228.1180 C   0  0  0  0  0  0  0  0  0  0  0  0
  141.0080   70.4780  228.3120 C   0  0  0  0  0  0  0  0  0  0  0  0
  141.1160   71.3280  227.2250 C   0  0  0  0  0  0  0  0  0  0  0  0
  140.6340   71.0150  225.9740 C   0  0  0  0  0  0  0  0  0  0  0  0
  140.7720   71.8940  224.9480 N   0  0  0  0  0  0  0  0  0  0  0  0
  142.1820   71.5680  221.7410 H   0  0  0  0  0  0  0  0  0  0  0  0
  141.8388   72.7232  219.6089 H   0  0  0  0  0  0  0  0  0  0  0  0
  140.4415   73.6077  220.3488 H   0  0  0  0  0  0  0  0  0  0  0  0
  142.6527   77.5280  220.6837 H   0  0  0  0  0  0  0  0  0  0  0  0
  142.4789   76.5522  219.2074 H   0  0  0  0  0  0  0  0  0  0  0  0
  140.8903   78.0548  218.9549 H   0  0  0  0  0  0  0  0  0  0  0  0
  138.5782   76.8032  219.5719 H   0  0  0  0  0  0  0  0  0  0  0  0
  139.5582   75.4792  219.6247 H   0  0  0  0  0  0  0  0  0  0  0  0
  138.8696   76.7282  222.3147 H   0  0  0  0  0  0  0  0  0  0  0  0
  141.1986   76.3012  222.9142 H   0  0  0  0  0  0  0  0  0  0  0  0
  140.2555   74.9039  222.2927 H   0  0  0  0  0  0  0  0  0  0  0  0
  139.3985   78.9974  221.0842 H   0  0  0  0  0  0  0  0  0  0  0  0
  142.0054   80.0375  220.4605 H   0  0  0  0  0  0  0  0  0  0  0  0
  143.5399   81.2145  221.9571 H   0  0  0  0  0  0  0  0  0  0  0  0
  143.5075   80.7619  224.4115 H   0  0  0  0  0  0  0  0  0  0  0  0
  141.8792   79.0878  225.2826 H   0  0  0  0  0  0  0  0  0  0  0  0
  140.3448   77.9145  223.7751 H   0  0  0  0  0  0  0  0  0  0  0  0
  139.2898   70.1047  222.5563 H   0  0  0  0  0  0  0  0  0  0  0  0
  139.0242   68.4855  224.3985 H   0  0  0  0  0  0  0  0  0  0  0  0
  139.3941   67.9451  226.7346 H   0  0  0  0  0  0  0  0  0  0  0  0
  140.2722   68.5480  228.9582 H   0  0  0  0  0  0  0  0  0  0  0  0
  141.4065   70.7624  229.2970 H   0  0  0  0  0  0  0  0  0  0  0  0
  141.6106   72.3001  227.3675 H   0  0  0  0  0  0  0  0  0  0  0  0
  1  2  2  0
  2  3  1  0
  3  4  1  0
  4  5  1  0
  5  6  2  0
  5  7  1  0
  7  8  1  0
  8  9  1  0
  9 10  1  0
 10 11  1  0
 11 12  1  0
 11 13  1  0
 13 14  1  0
 14 15  2  0
 15 16  1  0
 16 17  2  0
 17 18  1  0
 18 19  2  0
  2 20  1  0
 20 21  2  0
 21 22  1  0
 22 23  2  0
 23 24  1  0
 24 25  2  0
 25 26  1  0
 26 27  2  0
 27 28  1  0
 28 29  2  0
 12  7  1  0
 19 14  1  0
 29 20  1  0
 13  9  1  0
 28 23  1  0
  3 30  1  0
  4 31  1  0
  4 32  1  0
  8 33  1  0
  8 34  1  0
  9 35  1  6
 10 36  1  0
 10 37  1  0
 11 38  1  1
 12 39  1  0
 12 40  1  0
 13 41  1  6
 15 42  1  0
 16 43  1  0
 17 44  1  0
 18 45  1  0
 19 46  1  0
 21 47  1  0
 22 48  1  0
 24 49  1  0
 25 50  1  0
 26 51  1  0
 27 52  1  0
M  END
>  <smiles>  (70) 
O=C(NCC(=O)N1C[C@H]2C[C@@H](C1)C2c1ccccc1)c1ccc2ccccc2n1

>  <score_type>  (70) 
oracle

>  <origin>  (70) 
autodockgpu

>  <m_score__min__energy>  (70) 
-9.1899999999999995

>  <m_primary>  (70) 
energy

>  <rmsd>  (70) 
2.7231832014116995

>  <m_score__min__rmsd>  (70) 
2.7231832014116995

>  <meeko>  (70) 
{"free_energy": -9.14, "intermolecular_energy": -10.63, "internal_energy": -1.39, "cluster_size": 35, "cluster_id": 1, "rank_in_cluster": 7}

>  <energy>  (70) 
-9.06

>  <cluster_rmsd>  (70) 
1.31

>  <cluster>  (70) 
1

$$$$

     RDKit          3D

 52 56  0  0  1  0  0  0  0  0999 V2000
  139.5260   73.3680  222.3670 O   0  0  0  0  0  0  0  0  0  0  0  0
  140.3660   72.4450  222.5880 C   0  0  0  0  0  0  0  0  0  0  0  0
  141.4220   72.3090  221.6300 N   0  0  0  0  0  0  0  0  0  0  0  0
  141.4220   73.2360  220.5130 C   0  0  0  0  0  0  0  0  0  0  0  0
  142.3100   74.4030  220.7710 C   0  0  0  0  0  0  0  0  0  0  0  0
  143.5450   74.3350  220.8390 O   0  0  0  0  0  0  0  0  0  0  0  0
  141.6890   75.6620  220.9480 N   0  0  0  0  0  0  0  0  0  0  0  0
  142.0460   76.8460  220.1780 C   0  0  0  0  0  0  0  0  0  0  0  0
  140.7780   77.5400  219.8360 C   0  0  1  0  0  0  0  0  0  0  0  0
  139.5970   76.5640  219.8860 C   0  0  0  0  0  0  0  0  0  0  0  0
  139.6180   76.8280  221.4040 C   0  0  1  0  0  0  0  0  0  0  0  0
  140.6220   75.8620  221.9390 C   0  0  0  0  0  0  0  0  0  0  0  0
  140.1320   78.1820  221.0550 C   0  0  1  0  0  0  0  0  0  0  0  0
  141.0260   78.8680  221.9870 C   0  0  0  0  0  0  0  0  0  0  0  0
  141.1010   78.6280  223.3430 C   0  0  0  0  0  0  0  0  0  0  0  0
  141.9630   79.2940  224.1870 C   0  0  0  0  0  0  0  0  0  0  0  0
  142.8140   80.2610  223.6940 C   0  0  0  0  0  0  0  0  0  0  0  0
  142.7630   80.5260  222.3370 C   0  0  0  0  0  0  0  0  0  0  0  0
  141.8960   79.8530  221.5050 C   0  0  0  0  0  0  0  0  0  0  0  0
  140.2720   71.5670  223.7470 C   0  0  0  0  0  0  0  0  0  0  0  0
  139.6730   70.3380  223.5700 C   0  0  0  0  0  0  0  0  0  0  0  0
  139.5300   69.4300  224.5870 C   0  0  0  0  0  0  0  0  0  0  0  0
  140.0120   69.7810  225.8320 C   0  0  0  0  0  0  0  0  0  0  0  0
  139.8960   68.9070  226.9020 C   0  0  0  0  0  0  0  0  0  0  0  0
  140.3740   69.2520  228.1400 C   0  0  0  0  0  0  0  0  0  0  0  0
  140.9820   70.4910  228.3330 C   0  0  0  0  0  0  0  0  0  0  0  0
  141.0810   71.3400  227.2440 C   0  0  0  0  0  0  0  0  0  0  0  0
  140.6090   71.0150  225.9920 C   0  0  0  0  0  0  0  0  0  0  0  0
  140.7370   71.8950  224.9640 N   0  0  0  0  0  0  0  0  0  0  0  0
  142.1510   71.5670  221.7500 H   0  0  0  0  0  0  0  0  0  0  0  0
  141.7745   72.7109  219.6130 H   0  0  0  0  0  0  0  0  0  0  0  0
  140.3961   73.6077  220.3736 H   0  0  0  0  0  0  0  0  0  0  0  0
  142.6887   77.5072  220.7778 H   0  0  0  0  0  0  0  0  0  0  0  0
  142.6005   76.5706  219.2688 H   0  0  0  0  0  0  0  0  0  0  0  0
  141.0648   78.1131  218.9420 H   0  0  0  0  0  0  0  0  0  0  0  0
  138.6888   76.9007  219.3646 H   0  0  0  0  0  0  0  0  0  0  0  0
  139.6347   75.5539  219.4521 H   0  0  0  0  0  0  0  0  0  0  0  0
  138.7849   76.7531  222.1183 H   0  0  0  0  0  0  0  0  0  0  0  0
  141.0551   76.2608  222.8681 H   0  0  0  0  0  0  0  0  0  0  0  0
  140.1300   74.9002  222.1459 H   0  0  0  0  0  0  0  0  0  0  0  0
  139.4453   79.0385  220.9849 H   0  0  0  0  0  0  0  0  0  0  0  0
  140.4372   77.8640  223.7739 H   0  0  0  0  0  0  0  0  0  0  0  0
  141.9724   79.0530  225.2602 H   0  0  0  0  0  0  0  0  0  0  0  0
  143.5074   80.8014  224.3551 H   0  0  0  0  0  0  0  0  0  0  0  0
  143.4298   81.2913  221.9132 H   0  0  0  0  0  0  0  0  0  0  0  0
  141.8870   80.0962  220.4323 H   0  0  0  0  0  0  0  0  0  0  0  0
  139.2941   70.0751  222.5713 H   0  0  0  0  0  0  0  0  0  0  0  0
  139.0481   68.4559  224.4170 H   0  0  0  0  0  0  0  0  0  0  0  0
  139.4162   67.9279  226.7564 H   0  0  0  0  0  0  0  0  0  0  0  0
  140.2775   68.5502  228.9815 H   0  0  0  0  0  0  0  0  0  0  0  0
  141.3708   70.7850  229.3191 H   0  0  0  0  0  0  0  0  0  0  0  0
  141.5593   72.3204  227.3856 H   0  0  0  0  0  0  0  0  0  0  0  0
  1  2  2  0
  2  3  1  0
  3  4  1  0
  4  5  1  0
  5  6  2  0
  5  7  1  0
  7  8  1  0
  8  9  1  0
  9 10  1  0
 10 11  1  0
 11 12  1  0
 11 13  1  0
 13 14  1  0
 14 15  2  0
 15 16  1  0
 16 17  2  0
 17 18  1  0
 18 19  2  0
  2 20  1  0
 20 21  2  0
 21 22  1  0
 22 23  2  0
 23 24  1  0
 24 25  2  0
 25 26  1  0
 26 27  2  0
 27 28  1  0
 28 29  2  0
 12  7  1  0
 19 14  1  0
 29 20  1  0
 13  9  1  0
 28 23  1  0
  3 30  1  0
  4 31  1  0
  4 32  1  0
  8 33  1  0
  8 34  1  0
  9 35  1  6
 10 36  1  0
 10 37  1  0
 11 38  1  1
 12 39  1  0
 12 40  1  0
 13 41  1  6
 15 42  1  0
 16 43  1  0
 17 44  1  0
 18 45  1  0
 19 46  1  0
 21 47  1  0
 22 48  1  0
 24 49  1  0
 25 50  1  0
 26 51  1  0
 27 52  1  0
M  END
>  <smiles>  (71) 
O=C(NCC(=O)N1C[C@H]2C[C@@H](C1)C2c1ccccc1)c1ccc2ccccc2n1

>  <score_type>  (71) 
oracle

>  <origin>  (71) 
autodockgpu

>  <m_score__min__energy>  (71) 
-9.1899999999999995

>  <m_primary>  (71) 
energy

>  <rmsd>  (71) 
2.664696619096069

>  <m_score__min__rmsd>  (71) 
2.664696619096069

>  <meeko>  (71) 
{"free_energy": -9.14, "intermolecular_energy": -10.63, "internal_energy": -1.4, "cluster_size": 35, "cluster_id": 1, "rank_in_cluster": 6}

>  <energy>  (71) 
-9.06

>  <cluster_rmsd>  (71) 
1.6

>  <cluster>  (71) 
1

$$$$

     RDKit          3D

 52 56  0  0  1  0  0  0  0  0999 V2000
  140.4480   74.5080  221.9960 O   0  0  0  0  0  0  0  0  0  0  0  0
  139.5460   75.3960  222.0460 C   0  0  0  0  0  0  0  0  0  0  0  0
  138.2190   74.9680  221.7210 N   0  0  0  0  0  0  0  0  0  0  0  0
  138.0450   73.5690  221.3710 C   0  0  0  0  0  0  0  0  0  0  0  0
  137.3740   72.8120  222.4640 C   0  0  0  0  0  0  0  0  0  0  0  0
  136.1880   72.9650  222.7890 O   0  0  0  0  0  0  0  0  0  0  0  0
  138.1530   71.8630  223.1660 N   0  0  0  0  0  0  0  0  0  0  0  0
  137.6120   70.9920  224.2020 C   0  0  0  0  0  0  0  0  0  0  0  0
  138.2150   69.6500  223.9980 C   0  0  1  0  0  0  0  0  0  0  0  0
  138.6970   69.4880  222.5520 C   0  0  0  0  0  0  0  0  0  0  0  0
  139.9500   70.2480  223.0270 C   0  0  1  0  0  0  0  0  0  0  0  0
  139.5870   71.6900  222.8930 C   0  0  0  0  0  0  0  0  0  0  0  0
  139.6940   69.6280  224.3570 C   0  0  1  0  0  0  0  0  0  0  0  0
  140.0870   70.3490  225.5670 C   0  0  0  0  0  0  0  0  0  0  0  0
  140.8620   71.4890  225.6000 C   0  0  0  0  0  0  0  0  0  0  0  0
  141.2060   72.1410  226.7640 C   0  0  0  0  0  0  0  0  0  0  0  0
  140.7750   71.6640  227.9850 C   0  0  0  0  0  0  0  0  0  0  0  0
  139.9960   70.5220  227.9860 C   0  0  0  0  0  0  0  0  0  0  0  0
  139.6600   69.8790  226.8150 C   0  0  0  0  0  0  0  0  0  0  0  0
  139.8310   76.7780  222.4110 C   0  0  0  0  0  0  0  0  0  0  0  0
  138.7570   77.6120  222.6440 C   0  0  0  0  0  0  0  0  0  0  0  0
  138.9040   78.9290  222.9940 C   0  0  0  0  0  0  0  0  0  0  0  0
  140.1880   79.4210  223.1130 C   0  0  0  0  0  0  0  0  0  0  0  0
  140.4040   80.7450  223.4630 C   0  0  0  0  0  0  0  0  0  0  0  0
  141.6770   81.2370  223.5820 C   0  0  0  0  0  0  0  0  0  0  0  0
  142.7720   80.4060  223.3500 C   0  0  0  0  0  0  0  0  0  0  0  0
  142.5220   79.0900  223.0010 C   0  0  0  0  0  0  0  0  0  0  0  0
  141.2520   78.5730  222.8760 C   0  0  0  0  0  0  0  0  0  0  0  0
  141.0750   77.2710  222.5300 N   0  0  0  0  0  0  0  0  0  0  0  0
  137.4240   75.6490  221.7420 H   0  0  0  0  0  0  0  0  0  0  0  0
  137.4310   73.5020  220.4607 H   0  0  0  0  0  0  0  0  0  0  0  0
  139.0393   73.1284  221.2062 H   0  0  0  0  0  0  0  0  0  0  0  0
  137.8774   71.3783  225.1972 H   0  0  0  0  0  0  0  0  0  0  0  0
  136.5148   70.9433  224.1410 H   0  0  0  0  0  0  0  0  0  0  0  0
  137.4754   68.9917  224.4771 H   0  0  0  0  0  0  0  0  0  0  0  0
  138.8724   68.4508  222.2303 H   0  0  0  0  0  0  0  0  0  0  0  0
  138.1001   69.7998  221.6822 H   0  0  0  0  0  0  0  0  0  0  0  0
  140.9694   70.2013  222.6164 H   0  0  0  0  0  0  0  0  0  0  0  0
  140.1711   72.2832  223.6120 H   0  0  0  0  0  0  0  0  0  0  0  0
  139.8087   72.0299  221.8706 H   0  0  0  0  0  0  0  0  0  0  0  0
  140.2216   68.7103  224.6563 H   0  0  0  0  0  0  0  0  0  0  0  0
  141.2249   71.8997  224.6463 H   0  0  0  0  0  0  0  0  0  0  0  0
  141.8279   73.0472  226.7197 H   0  0  0  0  0  0  0  0  0  0  0  0
  141.0414   72.1736  228.9227 H   0  0  0  0  0  0  0  0  0  0  0  0
  139.6363   70.1176  228.9436 H   0  0  0  0  0  0  0  0  0  0  0  0
  139.0395   68.9719  226.8616 H   0  0  0  0  0  0  0  0  0  0  0  0
  137.7407   77.2031  222.5448 H   0  0  0  0  0  0  0  0  0  0  0  0
  138.0293   79.5713  223.1738 H   0  0  0  0  0  0  0  0  0  0  0  0
  139.5449   81.4069  223.6469 H   0  0  0  0  0  0  0  0  0  0  0  0
  141.8354   82.2892  223.8610 H   0  0  0  0  0  0  0  0  0  0  0  0
  143.8011   80.7837  223.4413 H   0  0  0  0  0  0  0  0  0  0  0  0
  143.3787   78.4257  222.8147 H   0  0  0  0  0  0  0  0  0  0  0  0
  1  2  2  0
  2  3  1  0
  3  4  1  0
  4  5  1  0
  5  6  2  0
  5  7  1  0
  7  8  1  0
  8  9  1  0
  9 10  1  0
 10 11  1  0
 11 12  1  0
 11 13  1  0
 13 14  1  0
 14 15  2  0
 15 16  1  0
 16 17  2  0
 17 18  1  0
 18 19  2  0
  2 20  1  0
 20 21  2  0
 21 22  1  0
 22 23  2  0
 23 24  1  0
 24 25  2  0
 25 26  1  0
 26 27  2  0
 27 28  1  0
 28 29  2  0
 12  7  1  0
 19 14  1  0
 29 20  1  0
 13  9  1  0
 28 23  1  0
  3 30  1  0
  4 31  1  0
  4 32  1  0
  8 33  1  0
  8 34  1  0
  9 35  1  1
 10 36  1  0
 10 37  1  0
 11 38  1  6
 12 39  1  0
 12 40  1  0
 13 41  1  6
 15 42  1  0
 16 43  1  0
 17 44  1  0
 18 45  1  0
 19 46  1  0
 21 47  1  0
 22 48  1  0
 24 49  1  0
 25 50  1  0
 26 51  1  0
 27 52  1  0
M  END
>  <smiles>  (72) 
O=C(NCC(=O)N1C[C@H]2C[C@@H](C1)C2c1ccccc1)c1ccc2ccccc2n1

>  <score_type>  (72) 
oracle

>  <origin>  (72) 
autodockgpu

>  <m_score__min__energy>  (72) 
-9.1899999999999995

>  <m_primary>  (72) 
energy

>  <rmsd>  (72) 
8.155340653644343

>  <m_score__min__rmsd>  (72) 
8.155340653644343

>  <meeko>  (72) 
{"free_energy": -9.12, "intermolecular_energy": -10.62, "internal_energy": -1.37, "cluster_size": 15, "cluster_id": 2, "rank_in_cluster": 4}

>  <energy>  (72) 
-9.04

>  <cluster_rmsd>  (72) 
1.62

>  <cluster>  (72) 
1

$$$$

     RDKit          3D

 52 56  0  0  1  0  0  0  0  0999 V2000
  140.5130   74.3590  222.0310 O   0  0  0  0  0  0  0  0  0  0  0  0
  139.5790   75.2150  222.0470 C   0  0  0  0  0  0  0  0  0  0  0  0
  138.2810   74.7410  221.6730 N   0  0  0  0  0  0  0  0  0  0  0  0
  138.1690   73.3380  221.3150 C   0  0  0  0  0  0  0  0  0  0  0  0
  137.3530   72.5840  222.3070 C   0  0  0  0  0  0  0  0  0  0  0  0
  136.1440   72.7740  222.4990 O   0  0  0  0  0  0  0  0  0  0  0  0
  138.0160   71.5950  223.0710 N   0  0  0  0  0  0  0  0  0  0  0  0
  137.3990   70.9100  224.2000 C   0  0  0  0  0  0  0  0  0  0  0  0
  137.7890   69.4800  224.1050 C   0  0  1  0  0  0  0  0  0  0  0  0
  138.1770   69.1200  222.6670 C   0  0  0  0  0  0  0  0  0  0  0  0
  139.5480   69.7230  223.0290 C   0  0  1  0  0  0  0  0  0  0  0  0
  139.3940   71.1850  222.7710 C   0  0  0  0  0  0  0  0  0  0  0  0
  139.2630   69.2680  224.4190 C   0  0  1  0  0  0  0  0  0  0  0  0
  139.8110   70.0260  225.5430 C   0  0  0  0  0  0  0  0  0  0  0  0
  140.6490   71.1150  225.4370 C   0  0  0  0  0  0  0  0  0  0  0  0
  141.1400   71.8050  226.5250 C   0  0  0  0  0  0  0  0  0  0  0  0
  140.8020   71.4210  227.8060 C   0  0  0  0  0  0  0  0  0  0  0  0
  139.9630   70.3300  227.9460 C   0  0  0  0  0  0  0  0  0  0  0  0
  139.4790   69.6490  226.8510 C   0  0  0  0  0  0  0  0  0  0  0  0
  139.8020   76.6040  222.4240 C   0  0  0  0  0  0  0  0  0  0  0  0
  138.6920   77.3970  222.6280 C   0  0  0  0  0  0  0  0  0  0  0  0
  138.7790   78.7170  222.9850 C   0  0  0  0  0  0  0  0  0  0  0  0
  140.0400   79.2560  223.1430 C   0  0  0  0  0  0  0  0  0  0  0  0
  140.1950   80.5860  223.5030 C   0  0  0  0  0  0  0  0  0  0  0  0
  141.4450   81.1260  223.6600 C   0  0  0  0  0  0  0  0  0  0  0  0
  142.5770   80.3360  223.4590 C   0  0  0  0  0  0  0  0  0  0  0  0
  142.3860   79.0130  223.0990 C   0  0  0  0  0  0  0  0  0  0  0  0
  141.1410   78.4500  222.9360 C   0  0  0  0  0  0  0  0  0  0  0  0
  141.0220   77.1430  222.5820 N   0  0  0  0  0  0  0  0  0  0  0  0
  137.4620   75.3940  221.6640 H   0  0  0  0  0  0  0  0  0  0  0  0
  137.6930   73.2584  220.3265 H   0  0  0  0  0  0  0  0  0  0  0  0
  139.1798   72.9045  221.2994 H   0  0  0  0  0  0  0  0  0  0  0  0
  137.7615   71.3385  225.1460 H   0  0  0  0  0  0  0  0  0  0  0  0
  136.3049   71.0213  224.1768 H   0  0  0  0  0  0  0  0  0  0  0  0
  136.9828   68.9853  224.6666 H   0  0  0  0  0  0  0  0  0  0  0  0
  138.1842   68.0438  222.4394 H   0  0  0  0  0  0  0  0  0  0  0  0
  137.5939   69.4392  221.7906 H   0  0  0  0  0  0  0  0  0  0  0  0
  140.5305   69.4883  222.5934 H   0  0  0  0  0  0  0  0  0  0  0  0
  140.0906   71.7454  223.4119 H   0  0  0  0  0  0  0  0  0  0  0  0
  139.6162   71.3952  221.7144 H   0  0  0  0  0  0  0  0  0  0  0  0
  139.6627   68.3115  224.7870 H   0  0  0  0  0  0  0  0  0  0  0  0
  140.9415   71.4514  224.4314 H   0  0  0  0  0  0  0  0  0  0  0  0
  141.8055   72.6672  226.3705 H   0  0  0  0  0  0  0  0  0  0  0  0
  141.1853   71.9622  228.6836 H   0  0  0  0  0  0  0  0  0  0  0  0
  139.6758   69.9988  228.9549 H   0  0  0  0  0  0  0  0  0  0  0  0
  138.8144   68.7865  227.0075 H   0  0  0  0  0  0  0  0  0  0  0  0
  137.6949   76.9509  222.4986 H   0  0  0  0  0  0  0  0  0  0  0  0
  137.8760   79.3257  223.1402 H   0  0  0  0  0  0  0  0  0  0  0  0
  139.3063   81.2138  223.6642 H   0  0  0  0  0  0  0  0  0  0  0  0
  141.5556   82.1828  223.9446 H   0  0  0  0  0  0  0  0  0  0  0  0
  143.5883   80.7507  223.5825 H   0  0  0  0  0  0  0  0  0  0  0  0
  143.2718   78.3816  222.9354 H   0  0  0  0  0  0  0  0  0  0  0  0
  1  2  2  0
  2  3  1  0
  3  4  1  0
  4  5  1  0
  5  6  2  0
  5  7  1  0
  7  8  1  0
  8  9  1  0
  9 10  1  0
 10 11  1  0
 11 12  1  0
 11 13  1  0
 13 14  1  0
 14 15  2  0
 15 16  1  0
 16 17  2  0
 17 18  1  0
 18 19  2  0
  2 20  1  0
 20 21  2  0
 21 22  1  0
 22 23  2  0
 23 24  1  0
 24 25  2  0
 25 26  1  0
 26 27  2  0
 27 28  1  0
 28 29  2  0
 12  7  1  0
 19 14  1  0
 29 20  1  0
 13  9  1  0
 28 23  1  0
  3 30  1  0
  4 31  1  0
  4 32  1  0
  8 33  1  0
  8 34  1  0
  9 35  1  1
 10 36  1  0
 10 37  1  0
 11 38  1  6
 12 39  1  0
 12 40  1  0
 13 41  1  6
 15 42  1  0
 16 43  1  0
 17 44  1  0
 18 45  1  0
 19 46  1  0
 21 47  1  0
 22 48  1  0
 24 49  1  0
 25 50  1  0
 26 51  1  0
 27 52  1  0
M  END
>  <smiles>  (73) 
O=C(NCC(=O)N1C[C@H]2C[C@@H](C1)C2c1ccccc1)c1ccc2ccccc2n1

>  <score_type>  (73) 
oracle

>  <origin>  (73) 
autodockgpu

>  <m_score__min__energy>  (73) 
-9.1899999999999995

>  <m_primary>  (73) 
energy

>  <rmsd>  (73) 
8.178157822524321

>  <m_score__min__rmsd>  (73) 
8.178157822524321

>  <meeko>  (73) 
{"free_energy": -9.12, "intermolecular_energy": -10.61, "internal_energy": -1.31, "cluster_size": 15, "cluster_id": 2, "rank_in_cluster": 5}

>  <energy>  (73) 
-9.04

>  <cluster_rmsd>  (73) 
1.29

>  <cluster>  (73) 
1

$$$$

     RDKit          3D

 52 56  0  0  1  0  0  0  0  0999 V2000
  140.8140   75.0800  220.5160 O   0  0  0  0  0  0  0  0  0  0  0  0
  140.1220   75.4500  221.5100 C   0  0  0  0  0  0  0  0  0  0  0  0
  139.2320   74.4720  222.0590 N   0  0  0  0  0  0  0  0  0  0  0  0
  139.2140   73.1670  221.4240 C   0  0  0  0  0  0  0  0  0  0  0  0
  138.1530   72.2930  221.9980 C   0  0  0  0  0  0  0  0  0  0  0  0
  136.9690   72.3090  221.6350 O   0  0  0  0  0  0  0  0  0  0  0  0
  138.5380   71.3970  223.0230 N   0  0  0  0  0  0  0  0  0  0  0  0
  137.7440   71.1650  224.2230 C   0  0  0  0  0  0  0  0  0  0  0  0
  137.7830   69.7050  224.4930 C   0  0  1  0  0  0  0  0  0  0  0  0
  138.1150   68.9270  223.2150 C   0  0  0  0  0  0  0  0  0  0  0  0
  139.5790   69.2760  223.5440 C   0  0  1  0  0  0  0  0  0  0  0  0
  139.7870   70.6270  222.9440 C   0  0  0  0  0  0  0  0  0  0  0  0
  139.1550   69.2490  224.9710 C   0  0  1  0  0  0  0  0  0  0  0  0
  139.8350   70.1150  225.9340 C   0  0  0  0  0  0  0  0  0  0  0  0
  140.7230   71.1200  225.6130 C   0  0  0  0  0  0  0  0  0  0  0  0
  141.3400   71.9180  226.5530 C   0  0  0  0  0  0  0  0  0  0  0  0
  141.0870   71.7370  227.8960 C   0  0  0  0  0  0  0  0  0  0  0  0
  140.2010   70.7360  228.2510 C   0  0  0  0  0  0  0  0  0  0  0  0
  139.5910   69.9460  227.3020 C   0  0  0  0  0  0  0  0  0  0  0  0
  140.2180   76.7910  222.0720 C   0  0  0  0  0  0  0  0  0  0  0  0
  139.0510   77.3920  222.4960 C   0  0  0  0  0  0  0  0  0  0  0  0
  139.0190   78.6490  223.0400 C   0  0  0  0  0  0  0  0  0  0  0  0
  140.2170   79.3250  223.1600 C   0  0  0  0  0  0  0  0  0  0  0  0
  140.2520   80.6010  223.7010 C   0  0  0  0  0  0  0  0  0  0  0  0
  141.4390   81.2760  223.8210 C   0  0  0  0  0  0  0  0  0  0  0  0
  142.6260   80.6820  223.3970 C   0  0  0  0  0  0  0  0  0  0  0  0
  142.5560   79.4080  222.8610 C   0  0  0  0  0  0  0  0  0  0  0  0
  141.3760   78.7110  222.7300 C   0  0  0  0  0  0  0  0  0  0  0  0
  141.3760   77.4620  222.1940 N   0  0  0  0  0  0  0  0  0  0  0  0
  138.6290   74.7090  222.8820 H   0  0  0  0  0  0  0  0  0  0  0  0
  139.0267   73.2961  220.3478 H   0  0  0  0  0  0  0  0  0  0  0  0
  140.1878   72.6860  221.5981 H   0  0  0  0  0  0  0  0  0  0  0  0
  138.1721   71.7179  225.0721 H   0  0  0  0  0  0  0  0  0  0  0  0
  136.7094   71.5111  224.0825 H   0  0  0  0  0  0  0  0  0  0  0  0
  136.8662   69.5572  225.0825 H   0  0  0  0  0  0  0  0  0  0  0  0
  137.8716   67.8546  223.2431 H   0  0  0  0  0  0  0  0  0  0  0  0
  137.6504   69.1452  222.2421 H   0  0  0  0  0  0  0  0  0  0  0  0
  140.4890   68.7276  223.2592 H   0  0  0  0  0  0  0  0  0  0  0  0
  140.5786   71.1551  223.4958 H   0  0  0  0  0  0  0  0  0  0  0  0
  140.0838   70.5179  221.8904 H   0  0  0  0  0  0  0  0  0  0  0  0
  139.3053   68.3458  225.5806 H   0  0  0  0  0  0  0  0  0  0  0  0
  140.9511   71.2942  224.5511 H   0  0  0  0  0  0  0  0  0  0  0  0
  142.0383   72.7038  226.2293 H   0  0  0  0  0  0  0  0  0  0  0  0
  141.5720   72.3656  228.6573 H   0  0  0  0  0  0  0  0  0  0  0  0
  139.9786   70.5671  229.3150 H   0  0  0  0  0  0  0  0  0  0  0  0
  138.8930   69.1608  227.6279 H   0  0  0  0  0  0  0  0  0  0  0  0
  138.1060   76.8385  222.3930 H   0  0  0  0  0  0  0  0  0  0  0  0
  138.0729   79.1034  223.3693 H   0  0  0  0  0  0  0  0  0  0  0  0
  139.3186   81.0762  224.0371 H   0  0  0  0  0  0  0  0  0  0  0  0
  141.4545   82.2877  224.2525 H   0  0  0  0  0  0  0  0  0  0  0  0
  143.5877   81.2087  223.4855 H   0  0  0  0  0  0  0  0  0  0  0  0
  143.4873   78.9296  222.5236 H   0  0  0  0  0  0  0  0  0  0  0  0
  1  2  2  0
  2  3  1  0
  3  4  1  0
  4  5  1  0
  5  6  2  0
  5  7  1  0
  7  8  1  0
  8  9  1  0
  9 10  1  0
 10 11  1  0
 11 12  1  0
 11 13  1  0
 13 14  1  0
 14 15  2  0
 15 16  1  0
 16 17  2  0
 17 18  1  0
 18 19  2  0
  2 20  1  0
 20 21  2  0
 21 22  1  0
 22 23  2  0
 23 24  1  0
 24 25  2  0
 25 26  1  0
 26 27  2  0
 27 28  1  0
 28 29  2  0
 12  7  1  0
 19 14  1  0
 29 20  1  0
 13  9  1  0
 28 23  1  0
  3 30  1  0
  4 31  1  0
  4 32  1  0
  8 33  1  0
  8 34  1  0
  9 35  1  1
 10 36  1  0
 10 37  1  0
 11 38  1  1
 12 39  1  0
 12 40  1  0
 13 41  1  1
 15 42  1  0
 16 43  1  0
 17 44  1  0
 18 45  1  0
 19 46  1  0
 21 47  1  0
 22 48  1  0
 24 49  1  0
 25 50  1  0
 26 51  1  0
 27 52  1  0
M  END
>  <smiles>  (74) 
O=C(NCC(=O)N1C[C@H]2C[C@@H](C1)C2c1ccccc1)c1ccc2ccccc2n1

>  <score_type>  (74) 
oracle

>  <origin>  (74) 
autodockgpu

>  <m_score__min__energy>  (74) 
-9.1899999999999995

>  <m_primary>  (74) 
energy

>  <rmsd>  (74) 
8.367994390597982

>  <m_score__min__rmsd>  (74) 
8.367994390597982

>  <meeko>  (74) 
{"free_energy": -9.18, "intermolecular_energy": -10.67, "internal_energy": -1.02, "cluster_size": 15, "cluster_id": 2, "rank_in_cluster": 1}

>  <energy>  (74) 
-9.03

>  <cluster_rmsd>  (74) 
0.4

>  <cluster>  (74) 
1

$$$$

     RDKit          3D

 52 56  0  0  1  0  0  0  0  0999 V2000
  140.3890   74.4860  222.0430 O   0  0  0  0  0  0  0  0  0  0  0  0
  139.4950   75.3820  222.0930 C   0  0  0  0  0  0  0  0  0  0  0  0
  138.1650   74.9680  221.7640 N   0  0  0  0  0  0  0  0  0  0  0  0
  137.9780   73.5720  221.4090 C   0  0  0  0  0  0  0  0  0  0  0  0
  137.3290   72.8100  222.5120 C   0  0  0  0  0  0  0  0  0  0  0  0
  136.1520   72.9650  222.8650 O   0  0  0  0  0  0  0  0  0  0  0  0
  138.1220   71.8540  223.1900 N   0  0  0  0  0  0  0  0  0  0  0  0
  137.5900   70.9410  224.1940 C   0  0  0  0  0  0  0  0  0  0  0  0
  138.2190   69.6170  223.9530 C   0  0  1  0  0  0  0  0  0  0  0  0
  138.7130   69.5090  222.5060 C   0  0  0  0  0  0  0  0  0  0  0  0
  139.9490   70.2770  223.0140 C   0  0  1  0  0  0  0  0  0  0  0  0
  139.5600   71.7150  222.9220 C   0  0  0  0  0  0  0  0  0  0  0  0
  139.6950   69.6110  224.3210 C   0  0  1  0  0  0  0  0  0  0  0  0
  140.0660   70.3000  225.5570 C   0  0  0  0  0  0  0  0  0  0  0  0
  140.8450   71.4350  225.6330 C   0  0  0  0  0  0  0  0  0  0  0  0
  141.1680   72.0570  226.8200 C   0  0  0  0  0  0  0  0  0  0  0  0
  140.7110   71.5530  228.0190 C   0  0  0  0  0  0  0  0  0  0  0  0
  139.9270   70.4140  227.9770 C   0  0  0  0  0  0  0  0  0  0  0  0
  139.6120   69.8020  226.7840 C   0  0  0  0  0  0  0  0  0  0  0  0
  139.7920   76.7600  222.4640 C   0  0  0  0  0  0  0  0  0  0  0  0
  138.7270   77.6060  222.6880 C   0  0  0  0  0  0  0  0  0  0  0  0
  138.8850   78.9200  223.0430 C   0  0  0  0  0  0  0  0  0  0  0  0
  140.1730   79.3970  223.1740 C   0  0  0  0  0  0  0  0  0  0  0  0
  140.4010   80.7180  223.5290 C   0  0  0  0  0  0  0  0  0  0  0  0
  141.6790   81.1960  223.6610 C   0  0  0  0  0  0  0  0  0  0  0  0
  142.7660   80.3520  223.4380 C   0  0  0  0  0  0  0  0  0  0  0  0
  142.5040   79.0400  223.0840 C   0  0  0  0  0  0  0  0  0  0  0  0
  141.2300   78.5380  222.9460 C   0  0  0  0  0  0  0  0  0  0  0  0
  141.0410   77.2390  222.5960 N   0  0  0  0  0  0  0  0  0  0  0  0
  137.3760   75.6560  221.7860 H   0  0  0  0  0  0  0  0  0  0  0  0
  137.3434   73.5132  220.5124 H   0  0  0  0  0  0  0  0  0  0  0  0
  138.9667   73.1290  221.2190 H   0  0  0  0  0  0  0  0  0  0  0  0
  137.8412   71.3007  225.2027 H   0  0  0  0  0  0  0  0  0  0  0  0
  136.4943   70.8741  224.1229 H   0  0  0  0  0  0  0  0  0  0  0  0
  137.4888   68.9307  224.4066 H   0  0  0  0  0  0  0  0  0  0  0  0
  138.9097   68.4858  222.1533 H   0  0  0  0  0  0  0  0  0  0  0  0
  138.1161   69.8367  221.6421 H   0  0  0  0  0  0  0  0  0  0  0  0
  140.9721   70.2622  222.6102 H   0  0  0  0  0  0  0  0  0  0  0  0
  140.1285   72.2963  223.6629 H   0  0  0  0  0  0  0  0  0  0  0  0
  139.7815   72.0898  221.9118 H   0  0  0  0  0  0  0  0  0  0  0  0
  140.2379   68.6942  224.5943 H   0  0  0  0  0  0  0  0  0  0  0  0
  141.2290   71.8670  224.6971 H   0  0  0  0  0  0  0  0  0  0  0  0
  141.7944   72.9612  226.8104 H   0  0  0  0  0  0  0  0  0  0  0  0
  140.9605   72.0386  228.9739 H   0  0  0  0  0  0  0  0  0  0  0  0
  139.5468   69.9877  228.9171 H   0  0  0  0  0  0  0  0  0  0  0  0
  138.9866   68.8972  226.7957 H   0  0  0  0  0  0  0  0  0  0  0  0
  137.7070   77.2094  222.5771 H   0  0  0  0  0  0  0  0  0  0  0  0
  138.0159   79.5714  223.2173 H   0  0  0  0  0  0  0  0  0  0  0  0
  139.5477   81.3891  223.7065 H   0  0  0  0  0  0  0  0  0  0  0  0
  141.8469   82.2459  223.9430 H   0  0  0  0  0  0  0  0  0  0  0  0
  143.7986   80.7171  223.5401 H   0  0  0  0  0  0  0  0  0  0  0  0
  143.3547   78.3662  222.9043 H   0  0  0  0  0  0  0  0  0  0  0  0
  1  2  2  0
  2  3  1  0
  3  4  1  0
  4  5  1  0
  5  6  2  0
  5  7  1  0
  7  8  1  0
  8  9  1  0
  9 10  1  0
 10 11  1  0
 11 12  1  0
 11 13  1  0
 13 14  1  0
 14 15  2  0
 15 16  1  0
 16 17  2  0
 17 18  1  0
 18 19  2  0
  2 20  1  0
 20 21  2  0
 21 22  1  0
 22 23  2  0
 23 24  1  0
 24 25  2  0
 25 26  1  0
 26 27  2  0
 27 28  1  0
 28 29  2  0
 12  7  1  0
 19 14  1  0
 29 20  1  0
 13  9  1  0
 28 23  1  0
  3 30  1  0
  4 31  1  0
  4 32  1  0
  8 33  1  0
  8 34  1  0
  9 35  1  1
 10 36  1  0
 10 37  1  0
 11 38  1  6
 12 39  1  0
 12 40  1  0
 13 41  1  6
 15 42  1  0
 16 43  1  0
 17 44  1  0
 18 45  1  0
 19 46  1  0
 21 47  1  0
 22 48  1  0
 24 49  1  0
 25 50  1  0
 26 51  1  0
 27 52  1  0
M  END
>  <smiles>  (75) 
O=C(NCC(=O)N1C[C@H]2C[C@@H](C1)C2c1ccccc1)c1ccc2ccccc2n1

>  <score_type>  (75) 
oracle

>  <origin>  (75) 
autodockgpu

>  <m_score__min__energy>  (75) 
-9.1899999999999995

>  <m_primary>  (75) 
energy

>  <rmsd>  (75) 
8.129893533596302

>  <m_score__min__rmsd>  (75) 
8.129893533596302

>  <meeko>  (75) 
{"free_energy": -9.11, "intermolecular_energy": -10.6, "internal_energy": -1.38, "cluster_size": 15, "cluster_id": 2, "rank_in_cluster": 6}

>  <energy>  (75) 
-9.03

>  <cluster_rmsd>  (75) 
1.33

>  <cluster>  (75) 
1

$$$$

     RDKit          3D

 52 56  0  0  1  0  0  0  0  0999 V2000
  141.0730   73.0900  222.1150 O   0  0  0  0  0  0  0  0  0  0  0  0
  140.0110   72.7440  222.7140 C   0  0  0  0  0  0  0  0  0  0  0  0
  138.8200   73.4480  222.3460 N   0  0  0  0  0  0  0  0  0  0  0  0
  138.9500   74.4780  221.3300 C   0  0  0  0  0  0  0  0  0  0  0  0
  138.7380   75.8370  221.8990 C   0  0  0  0  0  0  0  0  0  0  0  0
  137.8190   76.1280  222.6780 O   0  0  0  0  0  0  0  0  0  0  0  0
  139.6500   76.8480  221.5160 N   0  0  0  0  0  0  0  0  0  0  0  0
  141.0730   76.8010  221.8270 C   0  0  0  0  0  0  0  0  0  0  0  0
  141.7970   77.2730  220.6180 C   0  0  1  0  0  0  0  0  0  0  0  0
  140.9280   77.1030  219.3670 C   0  0  0  0  0  0  0  0  0  0  0  0
  140.2810   78.4330  219.8000 C   0  0  1  0  0  0  0  0  0  0  0  0
  139.2150   78.0350  220.7660 C   0  0  0  0  0  0  0  0  0  0  0  0
  141.6090   78.7660  220.3880 C   0  0  1  0  0  0  0  0  0  0  0  0
  141.6700   79.6260  221.5690 C   0  0  0  0  0  0  0  0  0  0  0  0
  140.8090   80.6680  221.8430 C   0  0  0  0  0  0  0  0  0  0  0  0
  140.8990   81.4520  222.9720 C   0  0  0  0  0  0  0  0  0  0  0  0
  141.8870   81.2190  223.9070 C   0  0  0  0  0  0  0  0  0  0  0  0
  142.7670   80.1810  223.6610 C   0  0  0  0  0  0  0  0  0  0  0  0
  142.6660   79.4050  222.5280 C   0  0  0  0  0  0  0  0  0  0  0  0
  139.9920   71.6930  223.7220 C   0  0  0  0  0  0  0  0  0  0  0  0
  139.3660   70.5070  223.3980 C   0  0  0  0  0  0  0  0  0  0  0  0
  139.2860   69.4490  224.2650 C   0  0  0  0  0  0  0  0  0  0  0  0
  139.8630   69.5970  225.5100 C   0  0  0  0  0  0  0  0  0  0  0  0
  139.8150   68.5630  226.4330 C   0  0  0  0  0  0  0  0  0  0  0  0
  140.3870   68.7060  227.6710 C   0  0  0  0  0  0  0  0  0  0  0  0
  141.0230   69.8980  228.0130 C   0  0  0  0  0  0  0  0  0  0  0  0
  141.0520   70.9100  227.0690 C   0  0  0  0  0  0  0  0  0  0  0  0
  140.4860   70.7890  225.8200 C   0  0  0  0  0  0  0  0  0  0  0  0
  140.5490   71.8210  224.9380 N   0  0  0  0  0  0  0  0  0  0  0  0
  137.9060   73.2140  222.8000 H   0  0  0  0  0  0  0  0  0  0  0  0
  139.9593   74.4260  220.8957 H   0  0  0  0  0  0  0  0  0  0  0  0
  138.1828   74.3027  220.5614 H   0  0  0  0  0  0  0  0  0  0  0  0
  141.2951   77.4578  222.6810 H   0  0  0  0  0  0  0  0  0  0  0  0
  141.3827   75.7806  222.0970 H   0  0  0  0  0  0  0  0  0  0  0  0
  142.7860   76.8092  220.7472 H   0  0  0  0  0  0  0  0  0  0  0  0
  141.4716   77.1361  218.4113 H   0  0  0  0  0  0  0  0  0  0  0  0
  140.3464   76.1926  219.1599 H   0  0  0  0  0  0  0  0  0  0  0  0
  139.7856   79.1851  219.1685 H   0  0  0  0  0  0  0  0  0  0  0  0
  139.0275   78.8624  221.4661 H   0  0  0  0  0  0  0  0  0  0  0  0
  138.2910   77.8025  220.2163 H   0  0  0  0  0  0  0  0  0  0  0  0
  142.3306   79.3783  219.8273 H   0  0  0  0  0  0  0  0  0  0  0  0
  140.0076   80.8846  221.1214 H   0  0  0  0  0  0  0  0  0  0  0  0
  140.1791   82.2687  223.1293 H   0  0  0  0  0  0  0  0  0  0  0  0
  141.9713   81.8358  224.8139 H   0  0  0  0  0  0  0  0  0  0  0  0
  143.5660   79.9704  224.3871 H   0  0  0  0  0  0  0  0  0  0  0  0
  143.3874   78.5893  222.3721 H   0  0  0  0  0  0  0  0  0  0  0  0
  138.9118   70.4065  222.4012 H   0  0  0  0  0  0  0  0  0  0  0  0
  138.7800   68.5151  223.9790 H   0  0  0  0  0  0  0  0  0  0  0  0
  139.3137   67.6199  226.1697 H   0  0  0  0  0  0  0  0  0  0  0  0
  140.3438   67.8790  228.3950 H   0  0  0  0  0  0  0  0  0  0  0  0
  141.4871   70.0304  229.0015 H   0  0  0  0  0  0  0  0  0  0  0  0
  141.5508   71.8553  227.3291 H   0  0  0  0  0  0  0  0  0  0  0  0
  1  2  2  0
  2  3  1  0
  3  4  1  0
  4  5  1  0
  5  6  2  0
  5  7  1  0
  7  8  1  0
  8  9  1  0
  9 10  1  0
 10 11  1  0
 11 12  1  0
 11 13  1  0
 13 14  1  0
 14 15  2  0
 15 16  1  0
 16 17  2  0
 17 18  1  0
 18 19  2  0
  2 20  1  0
 20 21  2  0
 21 22  1  0
 22 23  2  0
 23 24  1  0
 24 25  2  0
 25 26  1  0
 26 27  2  0
 27 28  1  0
 28 29  2  0
 12  7  1  0
 19 14  1  0
 29 20  1  0
 13  9  1  0
 28 23  1  0
  3 30  1  0
  4 31  1  0
  4 32  1  0
  8 33  1  0
  8 34  1  0
  9 35  1  6
 10 36  1  0
 10 37  1  0
 11 38  1  6
 12 39  1  0
 12 40  1  0
 13 41  1  6
 15 42  1  0
 16 43  1  0
 17 44  1  0
 18 45  1  0
 19 46  1  0
 21 47  1  0
 22 48  1  0
 24 49  1  0
 25 50  1  0
 26 51  1  0
 27 52  1  0
M  END
>  <smiles>  (76) 
O=C(NCC(=O)N1C[C@H]2C[C@@H](C1)C2c1ccccc1)c1ccc2ccccc2n1

>  <score_type>  (76) 
oracle

>  <origin>  (76) 
autodockgpu

>  <m_score__min__energy>  (76) 
-9.1899999999999995

>  <m_primary>  (76) 
energy

>  <rmsd>  (76) 
2.2376743048030905

>  <m_score__min__rmsd>  (76) 
2.2376743048030905

>  <meeko>  (76) 
{"free_energy": -9.09, "intermolecular_energy": -10.58, "internal_energy": -1.37, "cluster_size": 35, "cluster_id": 1, "rank_in_cluster": 15}

>  <energy>  (76) 
-9.01

>  <cluster_rmsd>  (76) 
1.4

>  <cluster>  (76) 
1

$$$$

     RDKit          3D

 52 56  0  0  1  0  0  0  0  0999 V2000
  139.5250   73.5320  222.3940 O   0  0  0  0  0  0  0  0  0  0  0  0
  140.3370   72.5680  222.5250 C   0  0  0  0  0  0  0  0  0  0  0  0
  141.3490   72.4540  221.5190 N   0  0  0  0  0  0  0  0  0  0  0  0
  141.3410   73.4470  220.4590 C   0  0  0  0  0  0  0  0  0  0  0  0
  142.2020   74.6150  220.7980 C   0  0  0  0  0  0  0  0  0  0  0  0
  143.4390   74.5720  220.8520 O   0  0  0  0  0  0  0  0  0  0  0  0
  141.5510   75.8400  221.0730 N   0  0  0  0  0  0  0  0  0  0  0  0
  141.6830   77.0230  220.2310 C   0  0  0  0  0  0  0  0  0  0  0  0
  140.3330   77.6340  220.1290 C   0  0  1  0  0  0  0  0  0  0  0  0
  139.2450   76.5950  220.4190 C   0  0  0  0  0  0  0  0  0  0  0  0
  139.5390   76.8990  221.9010 C   0  0  1  0  0  0  0  0  0  0  0  0
  140.6830   76.0050  222.2470 C   0  0  0  0  0  0  0  0  0  0  0  0
  139.8940   78.2700  221.4400 C   0  0  1  0  0  0  0  0  0  0  0  0
  140.9060   79.0290  222.1730 C   0  0  0  0  0  0  0  0  0  0  0  0
  141.2390   78.8410  223.4980 C   0  0  0  0  0  0  0  0  0  0  0  0
  142.2050   79.5760  224.1510 C   0  0  0  0  0  0  0  0  0  0  0  0
  142.9000   80.5630  223.4840 C   0  0  0  0  0  0  0  0  0  0  0  0
  142.5890   80.7770  222.1530 C   0  0  0  0  0  0  0  0  0  0  0  0
  141.6220   80.0360  221.5130 C   0  0  0  0  0  0  0  0  0  0  0  0
  140.2550   71.6250  223.6310 C   0  0  0  0  0  0  0  0  0  0  0  0
  139.6660   70.4020  223.3870 C   0  0  0  0  0  0  0  0  0  0  0  0
  139.5340   69.4370  224.3510 C   0  0  0  0  0  0  0  0  0  0  0  0
  140.0180   69.7200  225.6120 C   0  0  0  0  0  0  0  0  0  0  0  0
  139.9140   68.7850  226.6310 C   0  0  0  0  0  0  0  0  0  0  0  0
  140.3930   69.0630  227.8850 C   0  0  0  0  0  0  0  0  0  0  0  0
  140.9920   70.2940  228.1460 C   0  0  0  0  0  0  0  0  0  0  0  0
  141.0790   71.2050  227.1080 C   0  0  0  0  0  0  0  0  0  0  0  0
  140.6050   70.9480  225.8410 C   0  0  0  0  0  0  0  0  0  0  0  0
  140.7220   71.8860  224.8650 N   0  0  0  0  0  0  0  0  0  0  0  0
  142.0540   71.6810  221.5640 H   0  0  0  0  0  0  0  0  0  0  0  0
  141.7142   72.9846  219.5333 H   0  0  0  0  0  0  0  0  0  0  0  0
  140.3090   73.8051  220.3295 H   0  0  0  0  0  0  0  0  0  0  0  0
  142.3868   77.7349  220.6869 H   0  0  0  0  0  0  0  0  0  0  0  0
  142.0704   76.7567  219.2365 H   0  0  0  0  0  0  0  0  0  0  0  0
  140.4084   78.1986  219.1879 H   0  0  0  0  0  0  0  0  0  0  0  0
  138.2354   76.8662  220.0767 H   0  0  0  0  0  0  0  0  0  0  0  0
  139.2603   75.5777  220.0009 H   0  0  0  0  0  0  0  0  0  0  0  0
  138.8637   76.7959  222.7632 H   0  0  0  0  0  0  0  0  0  0  0  0
  141.2607   76.4513  223.0698 H   0  0  0  0  0  0  0  0  0  0  0  0
  140.2983   75.0226  222.5583 H   0  0  0  0  0  0  0  0  0  0  0  0
  139.1562   79.0843  221.4903 H   0  0  0  0  0  0  0  0  0  0  0  0
  140.7053   78.0631  224.0638 H   0  0  0  0  0  0  0  0  0  0  0  0
  142.4229   79.3742  225.2102 H   0  0  0  0  0  0  0  0  0  0  0  0
  143.6732   81.1583  223.9917 H   0  0  0  0  0  0  0  0  0  0  0  0
  143.1267   81.5569  221.5938 H   0  0  0  0  0  0  0  0  0  0  0  0
  141.4053   80.2401  220.4540 H   0  0  0  0  0  0  0  0  0  0  0  0
  139.2862   70.1924  222.3761 H   0  0  0  0  0  0  0  0  0  0  0  0
  139.0588   68.4705  224.1275 H   0  0  0  0  0  0  0  0  0  0  0  0
  139.4428   67.8113  226.4311 H   0  0  0  0  0  0  0  0  0  0  0  0
  140.3045   68.3140  228.6857 H   0  0  0  0  0  0  0  0  0  0  0  0
  141.3833   70.5339  229.1457 H   0  0  0  0  0  0  0  0  0  0  0  0
  141.5488   72.1801  227.3042 H   0  0  0  0  0  0  0  0  0  0  0  0
  1  2  2  0
  2  3  1  0
  3  4  1  0
  4  5  1  0
  5  6  2  0
  5  7  1  0
  7  8  1  0
  8  9  1  0
  9 10  1  0
 10 11  1  0
 11 12  1  0
 11 13  1  0
 13 14  1  0
 14 15  2  0
 15 16  1  0
 16 17  2  0
 17 18  1  0
 18 19  2  0
  2 20  1  0
 20 21  2  0
 21 22  1  0
 22 23  2  0
 23 24  1  0
 24 25  2  0
 25 26  1  0
 26 27  2  0
 27 28  1  0
 28 29  2  0
 12  7  1  0
 19 14  1  0
 29 20  1  0
 13  9  1  0
 28 23  1  0
  3 30  1  0
  4 31  1  0
  4 32  1  0
  8 33  1  0
  8 34  1  0
  9 35  1  6
 10 36  1  0
 10 37  1  0
 11 38  1  1
 12 39  1  0
 12 40  1  0
 13 41  1  6
 15 42  1  0
 16 43  1  0
 17 44  1  0
 18 45  1  0
 19 46  1  0
 21 47  1  0
 22 48  1  0
 24 49  1  0
 25 50  1  0
 26 51  1  0
 27 52  1  0
M  END
>  <smiles>  (77) 
O=C(NCC(=O)N1C[C@H]2C[C@@H](C1)C2c1ccccc1)c1ccc2ccccc2n1

>  <score_type>  (77) 
oracle

>  <origin>  (77) 
autodockgpu

>  <m_score__min__energy>  (77) 
-9.1899999999999995

>  <m_primary>  (77) 
energy

>  <rmsd>  (77) 
2.8139988404721645

>  <m_score__min__rmsd>  (77) 
2.8139988404721645

>  <meeko>  (77) 
{"free_energy": -9.03, "intermolecular_energy": -10.52, "internal_energy": -1.41, "cluster_size": 35, "cluster_id": 1, "rank_in_cluster": 24}

>  <energy>  (77) 
-9.01

>  <cluster_rmsd>  (77) 
1.58

>  <cluster>  (77) 
1

$$$$

     RDKit          3D

 52 56  0  0  1  0  0  0  0  0999 V2000
  140.1730   74.2120  221.9830 O   0  0  0  0  0  0  0  0  0  0  0  0
  139.2480   75.0630  222.1430 C   0  0  0  0  0  0  0  0  0  0  0  0
  137.9100   74.5820  221.9770 N   0  0  0  0  0  0  0  0  0  0  0  0
  137.7520   73.1770  221.6450 C   0  0  0  0  0  0  0  0  0  0  0  0
  137.1400   72.4150  222.7690 C   0  0  0  0  0  0  0  0  0  0  0  0
  135.9550   72.5220  223.1170 O   0  0  0  0  0  0  0  0  0  0  0  0
  137.9770   71.5180  223.4740 N   0  0  0  0  0  0  0  0  0  0  0  0
  137.4920   70.6240  224.5180 C   0  0  0  0  0  0  0  0  0  0  0  0
  138.1730   69.3180  224.3200 C   0  0  1  0  0  0  0  0  0  0  0  0
  138.6570   69.1750  222.8730 C   0  0  0  0  0  0  0  0  0  0  0  0
  139.8650   70.0110  223.3370 C   0  0  1  0  0  0  0  0  0  0  0  0
  139.4170   71.4280  223.1950 C   0  0  0  0  0  0  0  0  0  0  0  0
  139.6520   69.3860  224.6720 C   0  0  1  0  0  0  0  0  0  0  0  0
  140.0060   70.1370  225.8760 C   0  0  0  0  0  0  0  0  0  0  0  0
  140.7760   71.2800  225.9050 C   0  0  0  0  0  0  0  0  0  0  0  0
  141.0840   71.9610  227.0630 C   0  0  0  0  0  0  0  0  0  0  0  0
  140.6180   71.5110  228.2810 C   0  0  0  0  0  0  0  0  0  0  0  0
  139.8430   70.3660  228.2860 C   0  0  0  0  0  0  0  0  0  0  0  0
  139.5430   69.6950  227.1220 C   0  0  0  0  0  0  0  0  0  0  0  0
  139.5180   76.4550  222.4780 C   0  0  0  0  0  0  0  0  0  0  0  0
  138.4450   77.3200  222.5350 C   0  0  0  0  0  0  0  0  0  0  0  0
  138.5790   78.6490  222.8400 C   0  0  0  0  0  0  0  0  0  0  0  0
  139.8500   79.1230  223.0960 C   0  0  0  0  0  0  0  0  0  0  0  0
  140.0520   80.4580  223.4090 C   0  0  0  0  0  0  0  0  0  0  0  0
  141.3120   80.9320  223.6650 C   0  0  0  0  0  0  0  0  0  0  0  0
  142.4070   80.0710  223.6110 C   0  0  0  0  0  0  0  0  0  0  0  0
  142.1710   78.7440  223.2950 C   0  0  0  0  0  0  0  0  0  0  0  0
  140.9140   78.2450  223.0350 C   0  0  0  0  0  0  0  0  0  0  0  0
  140.7500   76.9310  222.7300 N   0  0  0  0  0  0  0  0  0  0  0  0
  137.0960   75.2300  222.0950 H   0  0  0  0  0  0  0  0  0  0  0  0
  137.1047   73.0897  220.7599 H   0  0  0  0  0  0  0  0  0  0  0  0
  138.7483   72.7559  221.4452 H   0  0  0  0  0  0  0  0  0  0  0  0
  137.7378   71.0321  225.5095 H   0  0  0  0  0  0  0  0  0  0  0  0
  136.3993   70.5103  224.4622 H   0  0  0  0  0  0  0  0  0  0  0  0
  137.4759   68.6203  224.8072 H   0  0  0  0  0  0  0  0  0  0  0  0
  138.8919   68.1479  222.5571 H   0  0  0  0  0  0  0  0  0  0  0  0
  138.0388   69.4450  222.0042 H   0  0  0  0  0  0  0  0  0  0  0  0
  140.8836   70.0219  222.9219 H   0  0  0  0  0  0  0  0  0  0  0  0
  139.9684   72.0598  223.9070 H   0  0  0  0  0  0  0  0  0  0  0  0
  139.6135   71.7731  222.1692 H   0  0  0  0  0  0  0  0  0  0  0  0
  140.2349   68.5035  224.9744 H   0  0  0  0  0  0  0  0  0  0  0  0
  141.1655   71.6695  224.9529 H   0  0  0  0  0  0  0  0  0  0  0  0
  141.7046   72.8680  227.0158 H   0  0  0  0  0  0  0  0  0  0  0  0
  140.8543   72.0436  229.2140 H   0  0  0  0  0  0  0  0  0  0  0  0
  139.4573   69.9824  229.2421 H   0  0  0  0  0  0  0  0  0  0  0  0
  138.9232   68.7876  227.1717 H   0  0  0  0  0  0  0  0  0  0  0  0
  137.4393   76.9261  222.3268 H   0  0  0  0  0  0  0  0  0  0  0  0
  137.7044   79.3150  222.8795 H   0  0  0  0  0  0  0  0  0  0  0  0
  139.1928   81.1435  223.4523 H   0  0  0  0  0  0  0  0  0  0  0  0
  141.4596   81.9934  223.9134 H   0  0  0  0  0  0  0  0  0  0  0  0
  143.4255   80.4342  223.8129 H   0  0  0  0  0  0  0  0  0  0  0  0
  143.0279   78.0557  223.2494 H   0  0  0  0  0  0  0  0  0  0  0  0
  1  2  2  0
  2  3  1  0
  3  4  1  0
  4  5  1  0
  5  6  2  0
  5  7  1  0
  7  8  1  0
  8  9  1  0
  9 10  1  0
 10 11  1  0
 11 12  1  0
 11 13  1  0
 13 14  1  0
 14 15  2  0
 15 16  1  0
 16 17  2  0
 17 18  1  0
 18 19  2  0
  2 20  1  0
 20 21  2  0
 21 22  1  0
 22 23  2  0
 23 24  1  0
 24 25  2  0
 25 26  1  0
 26 27  2  0
 27 28  1  0
 28 29  2  0
 12  7  1  0
 19 14  1  0
 29 20  1  0
 13  9  1  0
 28 23  1  0
  3 30  1  0
  4 31  1  0
  4 32  1  0
  8 33  1  0
  8 34  1  0
  9 35  1  1
 10 36  1  0
 10 37  1  0
 11 38  1  6
 12 39  1  0
 12 40  1  0
 13 41  1  6
 15 42  1  0
 16 43  1  0
 17 44  1  0
 18 45  1  0
 19 46  1  0
 21 47  1  0
 22 48  1  0
 24 49  1  0
 25 50  1  0
 26 51  1  0
 27 52  1  0
M  END
>  <smiles>  (78) 
O=C(NCC(=O)N1C[C@H]2C[C@@H](C1)C2c1ccccc1)c1ccc2ccccc2n1

>  <score_type>  (78) 
oracle

>  <origin>  (78) 
autodockgpu

>  <m_score__min__energy>  (78) 
-9.1899999999999995

>  <m_primary>  (78) 
energy

>  <rmsd>  (78) 
8.128271843231607

>  <m_score__min__rmsd>  (78) 
8.128271843231607

>  <meeko>  (78) 
{"free_energy": -8.99, "intermolecular_energy": -10.49, "internal_energy": -1.38, "cluster_size": 15, "cluster_id": 2, "rank_in_cluster": 13}

>  <energy>  (78) 
-9.01

>  <cluster_rmsd>  (78) 
1.42

>  <cluster>  (78) 
1

$$$$

     RDKit          3D

 52 56  0  0  1  0  0  0  0  0999 V2000
  141.1050   71.9860  221.6150 O   0  0  0  0  0  0  0  0  0  0  0  0
  140.1890   72.2230  222.4590 C   0  0  0  0  0  0  0  0  0  0  0  0
  139.2520   73.2460  222.1040 N   0  0  0  0  0  0  0  0  0  0  0  0
  139.4450   73.9010  220.8230 C   0  0  0  0  0  0  0  0  0  0  0  0
  140.5620   74.8860  220.8750 C   0  0  0  0  0  0  0  0  0  0  0  0
  141.7360   74.6210  220.5780 O   0  0  0  0  0  0  0  0  0  0  0  0
  140.2460   76.2000  221.2930 N   0  0  0  0  0  0  0  0  0  0  0  0
  140.3440   77.3620  220.4200 C   0  0  0  0  0  0  0  0  0  0  0  0
  139.1530   78.2080  220.6890 C   0  0  1  0  0  0  0  0  0  0  0  0
  138.0240   77.3730  221.3010 C   0  0  0  0  0  0  0  0  0  0  0  0
  138.7750   77.5780  222.6310 C   0  0  1  0  0  0  0  0  0  0  0  0
  139.7910   76.4850  222.6610 C   0  0  0  0  0  0  0  0  0  0  0  0
  139.2250   78.8760  222.0550 C   0  0  1  0  0  0  0  0  0  0  0  0
  140.5230   79.4210  222.4530 C   0  0  0  0  0  0  0  0  0  0  0  0
  141.3570   80.1620  221.6440 C   0  0  0  0  0  0  0  0  0  0  0  0
  142.5730   80.6620  222.0600 C   0  0  0  0  0  0  0  0  0  0  0  0
  143.0180   80.4330  223.3450 C   0  0  0  0  0  0  0  0  0  0  0  0
  142.2040   79.6910  224.1820 C   0  0  0  0  0  0  0  0  0  0  0  0
  140.9920   79.1970  223.7530 C   0  0  0  0  0  0  0  0  0  0  0  0
  140.0870   71.5020  223.7200 C   0  0  0  0  0  0  0  0  0  0  0  0
  139.3250   70.3530  223.7400 C   0  0  0  0  0  0  0  0  0  0  0  0
  139.1580   69.5930  224.8680 C   0  0  0  0  0  0  0  0  0  0  0  0
  139.7860   70.0150  226.0230 C   0  0  0  0  0  0  0  0  0  0  0  0
  139.6540   69.2910  227.1980 C   0  0  0  0  0  0  0  0  0  0  0  0
  140.2760   69.7060  228.3470 C   0  0  0  0  0  0  0  0  0  0  0  0
  141.0490   70.8660  228.3430 C   0  0  0  0  0  0  0  0  0  0  0  0
  141.1590   71.5660  227.1530 C   0  0  0  0  0  0  0  0  0  0  0  0
  140.5440   71.1680  225.9880 C   0  0  0  0  0  0  0  0  0  0  0  0
  140.6920   71.9000  224.8530 N   0  0  0  0  0  0  0  0  0  0  0  0
  138.4700   73.4940  222.7540 H   0  0  0  0  0  0  0  0  0  0  0  0
  139.6754   73.1394  220.0634 H   0  0  0  0  0  0  0  0  0  0  0  0
  138.5208   74.4409  220.5692 H   0  0  0  0  0  0  0  0  0  0  0  0
  141.2639   77.9235  220.6401 H   0  0  0  0  0  0  0  0  0  0  0  0
  140.3793   77.0578  219.3635 H   0  0  0  0  0  0  0  0  0  0  0  0
  139.0589   78.7758  219.7516 H   0  0  0  0  0  0  0  0  0  0  0  0
  137.0246   77.8299  221.2524 H   0  0  0  0  0  0  0  0  0  0  0  0
  137.7376   76.3814  220.9207 H   0  0  0  0  0  0  0  0  0  0  0  0
  138.3639   77.5730  223.6513 H   0  0  0  0  0  0  0  0  0  0  0  0
  140.6485   76.7985  223.2746 H   0  0  0  0  0  0  0  0  0  0  0  0
  139.3416   75.5790  223.0937 H   0  0  0  0  0  0  0  0  0  0  0  0
  138.6905   79.8077  222.2921 H   0  0  0  0  0  0  0  0  0  0  0  0
  141.0357   80.3654  220.6118 H   0  0  0  0  0  0  0  0  0  0  0  0
  143.1914   81.2467  221.3630 H   0  0  0  0  0  0  0  0  0  0  0  0
  143.9851   80.8260  223.6918 H   0  0  0  0  0  0  0  0  0  0  0  0
  142.5319   79.4912  225.2128 H   0  0  0  0  0  0  0  0  0  0  0  0
  140.3759   78.6106  224.4506 H   0  0  0  0  0  0  0  0  0  0  0  0
  138.8302   70.0329  222.8112 H   0  0  0  0  0  0  0  0  0  0  0  0
  138.5455   68.6794  224.8538 H   0  0  0  0  0  0  0  0  0  0  0  0
  139.0447   68.3753  227.2084 H   0  0  0  0  0  0  0  0  0  0  0  0
  140.1650   69.1230  229.2732 H   0  0  0  0  0  0  0  0  0  0  0  0
  141.5552   71.2141  229.2554 H   0  0  0  0  0  0  0  0  0  0  0  0
  141.7664   72.4830  227.1384 H   0  0  0  0  0  0  0  0  0  0  0  0
  1  2  2  0
  2  3  1  0
  3  4  1  0
  4  5  1  0
  5  6  2  0
  5  7  1  0
  7  8  1  0
  8  9  1  0
  9 10  1  0
 10 11  1  0
 11 12  1  0
 11 13  1  0
 13 14  1  0
 14 15  2  0
 15 16  1  0
 16 17  2  0
 17 18  1  0
 18 19  2  0
  2 20  1  0
 20 21  2  0
 21 22  1  0
 22 23  2  0
 23 24  1  0
 24 25  2  0
 25 26  1  0
 26 27  2  0
 27 28  1  0
 28 29  2  0
 12  7  1  0
 19 14  1  0
 29 20  1  0
 13  9  1  0
 28 23  1  0
  3 30  1  0
  4 31  1  0
  4 32  1  0
  8 33  1  0
  8 34  1  0
  9 35  1  6
 10 36  1  0
 10 37  1  0
 11 38  1  1
 12 39  1  0
 12 40  1  0
 13 41  1  6
 15 42  1  0
 16 43  1  0
 17 44  1  0
 18 45  1  0
 19 46  1  0
 21 47  1  0
 22 48  1  0
 24 49  1  0
 25 50  1  0
 26 51  1  0
 27 52  1  0
M  END
>  <smiles>  (79) 
O=C(NCC(=O)N1C[C@H]2C[C@@H](C1)C2c1ccccc1)c1ccc2ccccc2n1

>  <score_type>  (79) 
oracle

>  <origin>  (79) 
autodockgpu

>  <m_score__min__energy>  (79) 
-9.1899999999999995

>  <m_primary>  (79) 
energy

>  <rmsd>  (79) 
2.883757622302861

>  <m_score__min__rmsd>  (79) 
2.883757622302861

>  <meeko>  (79) 
{"free_energy": -9.01, "intermolecular_energy": -10.5, "internal_energy": -1.32, "cluster_size": 35, "cluster_id": 1, "rank_in_cluster": 28}

>  <energy>  (79) 
-8.98

>  <cluster_rmsd>  (79) 
0.36

>  <cluster>  (79) 
1

$$$$

     RDKit          3D

 52 56  0  0  1  0  0  0  0  0999 V2000
  139.5660   73.3580  222.3440 O   0  0  0  0  0  0  0  0  0  0  0  0
  140.3960   72.4280  222.5720 C   0  0  0  0  0  0  0  0  0  0  0  0
  141.4580   72.2810  221.6240 N   0  0  0  0  0  0  0  0  0  0  0  0
  141.4760   73.2080  220.5060 C   0  0  0  0  0  0  0  0  0  0  0  0
  142.3650   74.3730  220.7750 C   0  0  0  0  0  0  0  0  0  0  0  0
  143.5990   74.3000  220.8560 O   0  0  0  0  0  0  0  0  0  0  0  0
  141.7450   75.6320  220.9480 N   0  0  0  0  0  0  0  0  0  0  0  0
  142.0790   76.8050  220.1490 C   0  0  0  0  0  0  0  0  0  0  0  0
  140.8000   77.4900  219.8290 C   0  0  1  0  0  0  0  0  0  0  0  0
  139.6240   76.5120  219.9260 C   0  0  0  0  0  0  0  0  0  0  0  0
  139.6840   76.8020  221.4390 C   0  0  1  0  0  0  0  0  0  0  0  0
  140.7040   75.8470  221.9630 C   0  0  0  0  0  0  0  0  0  0  0  0
  140.1840   78.1510  221.0540 C   0  0  1  0  0  0  0  0  0  0  0  0
  141.1010   78.8540  221.9510 C   0  0  0  0  0  0  0  0  0  0  0  0
  142.0610   79.7610  221.5570 C   0  0  0  0  0  0  0  0  0  0  0  0
  142.9040   80.4060  222.4370 C   0  0  0  0  0  0  0  0  0  0  0  0
  142.8170   80.1620  223.7920 C   0  0  0  0  0  0  0  0  0  0  0  0
  141.8640   79.2560  224.2190 C   0  0  0  0  0  0  0  0  0  0  0  0
  141.0290   78.6180  223.3290 C   0  0  0  0  0  0  0  0  0  0  0  0
  140.2840   71.5510  223.7310 C   0  0  0  0  0  0  0  0  0  0  0  0
  139.6610   70.3340  223.5540 C   0  0  0  0  0  0  0  0  0  0  0  0
  139.4990   69.4290  224.5700 C   0  0  0  0  0  0  0  0  0  0  0  0
  139.9880   69.7700  225.8150 C   0  0  0  0  0  0  0  0  0  0  0  0
  139.8550   68.8980  226.8850 C   0  0  0  0  0  0  0  0  0  0  0  0
  140.3390   69.2330  228.1230 C   0  0  0  0  0  0  0  0  0  0  0  0
  140.9710   70.4600  228.3170 C   0  0  0  0  0  0  0  0  0  0  0  0
  141.0870   71.3070  227.2290 C   0  0  0  0  0  0  0  0  0  0  0  0
  140.6090   70.9920  225.9760 C   0  0  0  0  0  0  0  0  0  0  0  0
  140.7550   71.8690  224.9490 N   0  0  0  0  0  0  0  0  0  0  0  0
  142.1800   71.5330  221.7510 H   0  0  0  0  0  0  0  0  0  0  0  0
  141.8386   72.6812  219.6110 H   0  0  0  0  0  0  0  0  0  0  0  0
  140.4533   73.5832  220.3531 H   0  0  0  0  0  0  0  0  0  0  0  0
  142.7351   77.4776  220.7210 H   0  0  0  0  0  0  0  0  0  0  0  0
  142.6107   76.5163  219.2303 H   0  0  0  0  0  0  0  0  0  0  0  0
  141.0615   78.0489  218.9184 H   0  0  0  0  0  0  0  0  0  0  0  0
  138.7015   76.8374  219.4230 H   0  0  0  0  0  0  0  0  0  0  0  0
  139.6534   75.4948  219.5083 H   0  0  0  0  0  0  0  0  0  0  0  0
  138.8705   76.7375  222.1766 H   0  0  0  0  0  0  0  0  0  0  0  0
  141.1606   76.2622  222.8736 H   0  0  0  0  0  0  0  0  0  0  0  0
  140.2196   74.8879  222.1986 H   0  0  0  0  0  0  0  0  0  0  0  0
  139.4931   79.0044  220.9875 H   0  0  0  0  0  0  0  0  0  0  0  0
  142.1599   79.9820  220.4840 H   0  0  0  0  0  0  0  0  0  0  0  0
  143.6501   81.1191  222.0565 H   0  0  0  0  0  0  0  0  0  0  0  0
  143.4816   80.6697  224.5066 H   0  0  0  0  0  0  0  0  0  0  0  0
  141.7707   79.0400  225.2935 H   0  0  0  0  0  0  0  0  0  0  0  0
  140.2852   77.9034  223.7113 H   0  0  0  0  0  0  0  0  0  0  0  0
  139.2778   70.0787  222.5550 H   0  0  0  0  0  0  0  0  0  0  0  0
  138.9971   68.4651  224.3996 H   0  0  0  0  0  0  0  0  0  0  0  0
  139.3564   67.9284  226.7390 H   0  0  0  0  0  0  0  0  0  0  0  0
  140.2285   68.5328  228.9641 H   0  0  0  0  0  0  0  0  0  0  0  0
  141.3649   70.7459  229.3034 H   0  0  0  0  0  0  0  0  0  0  0  0
  141.5844   72.2777  227.3713 H   0  0  0  0  0  0  0  0  0  0  0  0
  1  2  2  0
  2  3  1  0
  3  4  1  0
  4  5  1  0
  5  6  2  0
  5  7  1  0
  7  8  1  0
  8  9  1  0
  9 10  1  0
 10 11  1  0
 11 12  1  0
 11 13  1  0
 13 14  1  0
 14 15  2  0
 15 16  1  0
 16 17  2  0
 17 18  1  0
 18 19  2  0
  2 20  1  0
 20 21  2  0
 21 22  1  0
 22 23  2  0
 23 24  1  0
 24 25  2  0
 25 26  1  0
 26 27  2  0
 27 28  1  0
 28 29  2  0
 12  7  1  0
 19 14  1  0
 29 20  1  0
 13  9  1  0
 28 23  1  0
  3 30  1  0
  4 31  1  0
  4 32  1  0
  8 33  1  0
  8 34  1  0
  9 35  1  6
 10 36  1  0
 10 37  1  0
 11 38  1  1
 12 39  1  0
 12 40  1  0
 13 41  1  6
 15 42  1  0
 16 43  1  0
 17 44  1  0
 18 45  1  0
 19 46  1  0
 21 47  1  0
 22 48  1  0
 24 49  1  0
 25 50  1  0
 26 51  1  0
 27 52  1  0
M  END
>  <smiles>  (80) 
O=C(NCC(=O)N1C[C@H]2C[C@@H](C1)C2c1ccccc1)c1ccc2ccccc2n1

>  <score_type>  (80) 
oracle

>  <origin>  (80) 
autodockgpu

>  <m_score__min__energy>  (80) 
-9.1899999999999995

>  <m_primary>  (80) 
energy

>  <rmsd>  (80) 
2.68827197863491

>  <m_score__min__rmsd>  (80) 
2.68827197863491

>  <meeko>  (80) 
{"free_energy": -9.16, "intermolecular_energy": -10.65, "internal_energy": -1.39, "cluster_size": 35, "cluster_id": 1, "rank_in_cluster": 4}

>  <energy>  (80) 
-8.97

>  <cluster_rmsd>  (80) 
1.35

>  <cluster>  (80) 
1

$$$$

     RDKit          3D

 52 56  0  0  1  0  0  0  0  0999 V2000
  139.5020   73.4570  222.4220 O   0  0  0  0  0  0  0  0  0  0  0  0
  140.3330   72.5130  222.5750 C   0  0  0  0  0  0  0  0  0  0  0  0
  141.3530   72.4010  221.5760 N   0  0  0  0  0  0  0  0  0  0  0  0
  141.3300   73.3740  220.4990 C   0  0  0  0  0  0  0  0  0  0  0  0
  142.1990   74.5460  220.8020 C   0  0  0  0  0  0  0  0  0  0  0  0
  143.4370   74.5080  220.8130 O   0  0  0  0  0  0  0  0  0  0  0  0
  141.5530   75.7700  221.0940 N   0  0  0  0  0  0  0  0  0  0  0  0
  141.6210   76.9380  220.2240 C   0  0  0  0  0  0  0  0  0  0  0  0
  140.2610   77.5350  220.1940 C   0  0  1  0  0  0  0  0  0  0  0  0
  139.2040   76.4920  220.5710 C   0  0  0  0  0  0  0  0  0  0  0  0
  139.5860   76.8270  222.0260 C   0  0  1  0  0  0  0  0  0  0  0  0
  140.7580   75.9490  222.3170 C   0  0  0  0  0  0  0  0  0  0  0  0
  139.8970   78.1920  221.5190 C   0  0  1  0  0  0  0  0  0  0  0  0
  140.9450   78.9730  222.1740 C   0  0  0  0  0  0  0  0  0  0  0  0
  141.7470   79.9090  221.5550 C   0  0  0  0  0  0  0  0  0  0  0  0
  142.7220   80.6290  222.2110 C   0  0  0  0  0  0  0  0  0  0  0  0
  142.9440   80.4350  223.5590 C   0  0  0  0  0  0  0  0  0  0  0  0
  142.1560   79.5030  224.2090 C   0  0  0  0  0  0  0  0  0  0  0  0
  141.1850   78.7900  223.5410 C   0  0  0  0  0  0  0  0  0  0  0  0
  140.2640   71.5890  223.6980 C   0  0  0  0  0  0  0  0  0  0  0  0
  139.7000   70.3510  223.4740 C   0  0  0  0  0  0  0  0  0  0  0  0
  139.5820   69.4010  224.4550 C   0  0  0  0  0  0  0  0  0  0  0  0
  140.0550   69.7170  225.7130 C   0  0  0  0  0  0  0  0  0  0  0  0
  139.9640   68.7990  226.7480 C   0  0  0  0  0  0  0  0  0  0  0  0
  140.4320   69.1090  227.9990 C   0  0  0  0  0  0  0  0  0  0  0  0
  141.0050   70.3570  228.2400 C   0  0  0  0  0  0  0  0  0  0  0  0
  141.0790   71.2500  227.1850 C   0  0  0  0  0  0  0  0  0  0  0  0
  140.6170   70.9600  225.9210 C   0  0  0  0  0  0  0  0  0  0  0  0
  140.7190   71.8820  224.9280 N   0  0  0  0  0  0  0  0  0  0  0  0
  142.0730   71.6440  221.6390 H   0  0  0  0  0  0  0  0  0  0  0  0
  141.6869   72.8938  219.5760 H   0  0  0  0  0  0  0  0  0  0  0  0
  140.2968   73.7324  220.3802 H   0  0  0  0  0  0  0  0  0  0  0  0
  142.3442   77.6647  220.6226 H   0  0  0  0  0  0  0  0  0  0  0  0
  141.9492   76.6564  219.2126 H   0  0  0  0  0  0  0  0  0  0  0  0
  140.2723   78.0820  219.2397 H   0  0  0  0  0  0  0  0  0  0  0  0
  138.1723   76.7473  220.2872 H   0  0  0  0  0  0  0  0  0  0  0  0
  139.2041   75.4669  220.1719 H   0  0  0  0  0  0  0  0  0  0  0  0
  138.9668   76.7346  222.9305 H   0  0  0  0  0  0  0  0  0  0  0  0
  141.3812   76.4153  223.0942 H   0  0  0  0  0  0  0  0  0  0  0  0
  140.4031   74.9694  222.6697 H   0  0  0  0  0  0  0  0  0  0  0  0
  139.1552   79.0002  221.5998 H   0  0  0  0  0  0  0  0  0  0  0  0
  141.6005   80.0905  220.4800 H   0  0  0  0  0  0  0  0  0  0  0  0
  143.3265   81.3623  221.6570 H   0  0  0  0  0  0  0  0  0  0  0  0
  143.7191   81.0008  224.0966 H   0  0  0  0  0  0  0  0  0  0  0  0
  142.3080   79.3269  225.2841 H   0  0  0  0  0  0  0  0  0  0  0  0
  140.5818   78.0570  224.0968 H   0  0  0  0  0  0  0  0  0  0  0  0
  139.3291   70.1158  222.4655 H   0  0  0  0  0  0  0  0  0  0  0  0
  139.1266   68.4215  224.2473 H   0  0  0  0  0  0  0  0  0  0  0  0
  139.5123   67.8131  226.5639 H   0  0  0  0  0  0  0  0  0  0  0  0
  140.3554   68.3728  228.8127 H   0  0  0  0  0  0  0  0  0  0  0  0
  141.3862   70.6235  229.2369 H   0  0  0  0  0  0  0  0  0  0  0  0
  141.5281   72.2379  227.3650 H   0  0  0  0  0  0  0  0  0  0  0  0
  1  2  2  0
  2  3  1  0
  3  4  1  0
  4  5  1  0
  5  6  2  0
  5  7  1  0
  7  8  1  0
  8  9  1  0
  9 10  1  0
 10 11  1  0
 11 12  1  0
 11 13  1  0
 13 14  1  0
 14 15  2  0
 15 16  1  0
 16 17  2  0
 17 18  1  0
 18 19  2  0
  2 20  1  0
 20 21  2  0
 21 22  1  0
 22 23  2  0
 23 24  1  0
 24 25  2  0
 25 26  1  0
 26 27  2  0
 27 28  1  0
 28 29  2  0
 12  7  1  0
 19 14  1  0
 29 20  1  0
 13  9  1  0
 28 23  1  0
  3 30  1  0
  4 31  1  0
  4 32  1  0
  8 33  1  0
  8 34  1  0
  9 35  1  6
 10 36  1  0
 10 37  1  0
 11 38  1  1
 12 39  1  0
 12 40  1  0
 13 41  1  6
 15 42  1  0
 16 43  1  0
 17 44  1  0
 18 45  1  0
 19 46  1  0
 21 47  1  0
 22 48  1  0
 24 49  1  0
 25 50  1  0
 26 51  1  0
 27 52  1  0
M  END
>  <smiles>  (81) 
O=C(NCC(=O)N1C[C@H]2C[C@@H](C1)C2c1ccccc1)c1ccc2ccccc2n1

>  <score_type>  (81) 
oracle

>  <origin>  (81) 
autodockgpu

>  <m_score__min__energy>  (81) 
-9.1899999999999995

>  <m_primary>  (81) 
energy

>  <rmsd>  (81) 
2.8507876420664826

>  <m_score__min__rmsd>  (81) 
2.8507876420664826

>  <meeko>  (81) 
{"free_energy": -8.97, "intermolecular_energy": -10.46, "internal_energy": -1.44, "cluster_size": 35, "cluster_id": 1, "rank_in_cluster": 31}

>  <energy>  (81) 
-8.97

>  <cluster_rmsd>  (81) 
0.39

>  <cluster>  (81) 
1

$$$$

     RDKit          3D

 52 56  0  0  1  0  0  0  0  0999 V2000
  140.1110   74.4490  222.0280 O   0  0  0  0  0  0  0  0  0  0  0  0
  139.2110   75.3400  222.0740 C   0  0  0  0  0  0  0  0  0  0  0  0
  137.8800   74.9090  221.7720 N   0  0  0  0  0  0  0  0  0  0  0  0
  137.6980   73.5060  221.4470 C   0  0  0  0  0  0  0  0  0  0  0  0
  137.1380   72.7450  222.5980 C   0  0  0  0  0  0  0  0  0  0  0  0
  135.9830   72.8810  223.0240 O   0  0  0  0  0  0  0  0  0  0  0  0
  137.9930   71.8150  223.2350 N   0  0  0  0  0  0  0  0  0  0  0  0
  137.5270   70.8430  224.2170 C   0  0  0  0  0  0  0  0  0  0  0  0
  138.2260   69.5650  223.9260 C   0  0  1  0  0  0  0  0  0  0  0  0
  138.7060   69.5300  222.4700 C   0  0  0  0  0  0  0  0  0  0  0  0
  139.9030   70.3510  222.9870 C   0  0  1  0  0  0  0  0  0  0  0  0
  139.4320   71.7670  222.9460 C   0  0  0  0  0  0  0  0  0  0  0  0
  139.7060   69.6310  224.2760 C   0  0  1  0  0  0  0  0  0  0  0  0
  140.0550   70.3020  225.5280 C   0  0  0  0  0  0  0  0  0  0  0  0
  140.8000   71.4570  225.6320 C   0  0  0  0  0  0  0  0  0  0  0  0
  141.1030   72.0600  226.8340 C   0  0  0  0  0  0  0  0  0  0  0  0
  140.6590   71.5150  228.0210 C   0  0  0  0  0  0  0  0  0  0  0  0
  139.9080   70.3550  227.9490 C   0  0  0  0  0  0  0  0  0  0  0  0
  139.6130   69.7620  226.7420 C   0  0  0  0  0  0  0  0  0  0  0  0
  139.5040   76.7260  222.4140 C   0  0  0  0  0  0  0  0  0  0  0  0
  138.4400   77.5980  222.5140 C   0  0  0  0  0  0  0  0  0  0  0  0
  138.5940   78.9230  222.8280 C   0  0  0  0  0  0  0  0  0  0  0  0
  139.8760   79.3840  223.0500 C   0  0  0  0  0  0  0  0  0  0  0  0
  140.0980   80.7140  223.3700 C   0  0  0  0  0  0  0  0  0  0  0  0
  141.3700   81.1760  223.5900 C   0  0  0  0  0  0  0  0  0  0  0  0
  142.4550   80.3060  223.4930 C   0  0  0  0  0  0  0  0  0  0  0  0
  142.1980   78.9850  223.1710 C   0  0  0  0  0  0  0  0  0  0  0  0
  140.9300   78.4990  222.9460 C   0  0  0  0  0  0  0  0  0  0  0  0
  140.7460   77.1900  222.6320 N   0  0  0  0  0  0  0  0  0  0  0  0
  137.0860   75.5920  221.7910 H   0  0  0  0  0  0  0  0  0  0  0  0
  137.0075   73.4236  220.5947 H   0  0  0  0  0  0  0  0  0  0  0  0
  138.6812   73.0800  221.1985 H   0  0  0  0  0  0  0  0  0  0  0  0
  137.7721   71.1851  225.2333 H   0  0  0  0  0  0  0  0  0  0  0  0
  136.4358   70.7167  224.1582 H   0  0  0  0  0  0  0  0  0  0  0  0
  137.5415   68.8249  224.3660 H   0  0  0  0  0  0  0  0  0  0  0  0
  138.9555   68.5310  222.0830 H   0  0  0  0  0  0  0  0  0  0  0  0
  138.0798   69.8496  221.6240 H   0  0  0  0  0  0  0  0  0  0  0  0
  140.9194   70.4072  222.5701 H   0  0  0  0  0  0  0  0  0  0  0  0
  139.9766   72.3561  223.6986 H   0  0  0  0  0  0  0  0  0  0  0  0
  139.6184   72.1856  221.9460 H   0  0  0  0  0  0  0  0  0  0  0  0
  140.3033   68.7384  224.5137 H   0  0  0  0  0  0  0  0  0  0  0  0
  141.1723   71.9220  224.7073 H   0  0  0  0  0  0  0  0  0  0  0  0
  141.7029   72.9820  226.8468 H   0  0  0  0  0  0  0  0  0  0  0  0
  140.8930   71.9846  228.9878 H   0  0  0  0  0  0  0  0  0  0  0  0
  139.5381   69.8960  228.8777 H   0  0  0  0  0  0  0  0  0  0  0  0
  139.0141   68.8394  226.7310 H   0  0  0  0  0  0  0  0  0  0  0  0
  137.4251   77.2137  222.3341 H   0  0  0  0  0  0  0  0  0  0  0  0
  137.7265   79.5955  222.9006 H   0  0  0  0  0  0  0  0  0  0  0  0
  139.2460   81.4053  223.4482 H   0  0  0  0  0  0  0  0  0  0  0  0
  141.5345   82.2338  223.8432 H   0  0  0  0  0  0  0  0  0  0  0  0
  143.4824   80.6583  223.6668 H   0  0  0  0  0  0  0  0  0  0  0  0
  143.0472   78.2904  223.0911 H   0  0  0  0  0  0  0  0  0  0  0  0
  1  2  2  0
  2  3  1  0
  3  4  1  0
  4  5  1  0
  5  6  2  0
  5  7  1  0
  7  8  1  0
  8  9  1  0
  9 10  1  0
 10 11  1  0
 11 12  1  0
 11 13  1  0
 13 14  1  0
 14 15  2  0
 15 16  1  0
 16 17  2  0
 17 18  1  0
 18 19  2  0
  2 20  1  0
 20 21  2  0
 21 22  1  0
 22 23  2  0
 23 24  1  0
 24 25  2  0
 25 26  1  0
 26 27  2  0
 27 28  1  0
 28 29  2  0
 12  7  1  0
 19 14  1  0
 29 20  1  0
 13  9  1  0
 28 23  1  0
  3 30  1  0
  4 31  1  0
  4 32  1  0
  8 33  1  0
  8 34  1  0
  9 35  1  1
 10 36  1  0
 10 37  1  0
 11 38  1  6
 12 39  1  0
 12 40  1  0
 13 41  1  6
 15 42  1  0
 16 43  1  0
 17 44  1  0
 18 45  1  0
 19 46  1  0
 21 47  1  0
 22 48  1  0
 24 49  1  0
 25 50  1  0
 26 51  1  0
 27 52  1  0
M  END
>  <smiles>  (82) 
O=C(NCC(=O)N1C[C@H]2C[C@@H](C1)C2c1ccccc1)c1ccc2ccccc2n1

>  <score_type>  (82) 
oracle

>  <origin>  (82) 
autodockgpu

>  <m_score__min__energy>  (82) 
-9.1899999999999995

>  <m_primary>  (82) 
energy

>  <rmsd>  (82) 
8.11658867946452

>  <m_score__min__rmsd>  (82) 
8.11658867946452

>  <meeko>  (82) 
{"free_energy": -9.02, "intermolecular_energy": -10.51, "internal_energy": -1.37, "cluster_size": 15, "cluster_id": 2, "rank_in_cluster": 11}

>  <energy>  (82) 
-8.93

>  <cluster_rmsd>  (82) 
1.55

>  <cluster>  (82) 
1

$$$$

     RDKit          3D

 52 56  0  0  1  0  0  0  0  0999 V2000
  140.4580   74.4580  222.0310 O   0  0  0  0  0  0  0  0  0  0  0  0
  139.5550   75.3460  222.0530 C   0  0  0  0  0  0  0  0  0  0  0  0
  138.2370   74.9160  221.6950 N   0  0  0  0  0  0  0  0  0  0  0  0
  138.0730   73.5160  221.3460 C   0  0  0  0  0  0  0  0  0  0  0  0
  137.3520   72.7680  222.4130 C   0  0  0  0  0  0  0  0  0  0  0  0
  136.1580   72.9380  222.6950 O   0  0  0  0  0  0  0  0  0  0  0  0
  138.0920   71.8070  223.1410 N   0  0  0  0  0  0  0  0  0  0  0  0
  137.5140   70.9820  224.1950 C   0  0  0  0  0  0  0  0  0  0  0  0
  138.0670   69.6130  224.0260 C   0  0  1  0  0  0  0  0  0  0  0  0
  138.5480   69.3990  222.5860 C   0  0  0  0  0  0  0  0  0  0  0  0
  139.8270   70.1230  223.0500 C   0  0  1  0  0  0  0  0  0  0  0  0
  139.5190   71.5740  222.8800 C   0  0  0  0  0  0  0  0  0  0  0  0
  139.5420   69.5440  224.3920 C   0  0  1  0  0  0  0  0  0  0  0  0
  139.9570   70.2780  225.5870 C   0  0  0  0  0  0  0  0  0  0  0  0
  140.6990   71.4400  225.5920 C   0  0  0  0  0  0  0  0  0  0  0  0
  141.0650   72.1040  226.7430 C   0  0  0  0  0  0  0  0  0  0  0  0
  140.6930   71.6170  227.9780 C   0  0  0  0  0  0  0  0  0  0  0  0
  139.9470   70.4520  228.0080 C   0  0  0  0  0  0  0  0  0  0  0  0
  139.5880   69.7980  226.8500 C   0  0  0  0  0  0  0  0  0  0  0  0
  139.8300   76.7290  222.4210 C   0  0  0  0  0  0  0  0  0  0  0  0
  138.7510   77.5630  222.6260 C   0  0  0  0  0  0  0  0  0  0  0  0
  138.8880   78.8810  222.9750 C   0  0  0  0  0  0  0  0  0  0  0  0
  140.1680   79.3740  223.1230 C   0  0  0  0  0  0  0  0  0  0  0  0
  140.3740   80.7000  223.4730 C   0  0  0  0  0  0  0  0  0  0  0  0
  141.6440   81.1940  223.6210 C   0  0  0  0  0  0  0  0  0  0  0  0
  142.7450   80.3630  223.4170 C   0  0  0  0  0  0  0  0  0  0  0  0
  142.5040   79.0460  223.0670 C   0  0  0  0  0  0  0  0  0  0  0  0
  141.2380   78.5270  222.9140 C   0  0  0  0  0  0  0  0  0  0  0  0
  141.0700   77.2240  222.5680 N   0  0  0  0  0  0  0  0  0  0  0  0
  137.4420   75.5970  221.6920 H   0  0  0  0  0  0  0  0  0  0  0  0
  137.4991   73.4458  220.4102 H   0  0  0  0  0  0  0  0  0  0  0  0
  139.0718   73.0708  221.2273 H   0  0  0  0  0  0  0  0  0  0  0  0
  137.7897   71.3818  225.1820 H   0  0  0  0  0  0  0  0  0  0  0  0
  136.4160   70.9732  224.1297 H   0  0  0  0  0  0  0  0  0  0  0  0
  137.3015   68.9945  224.5174 H   0  0  0  0  0  0  0  0  0  0  0  0
  138.6857   68.3487  222.2893 H   0  0  0  0  0  0  0  0  0  0  0  0
  137.9667   69.7121  221.7062 H   0  0  0  0  0  0  0  0  0  0  0  0
  140.8459   70.0290  222.6464 H   0  0  0  0  0  0  0  0  0  0  0  0
  140.1217   72.1619  223.5879 H   0  0  0  0  0  0  0  0  0  0  0  0
  139.7578   71.8808  221.8510 H   0  0  0  0  0  0  0  0  0  0  0  0
  140.0332   68.6141  224.7146 H   0  0  0  0  0  0  0  0  0  0  0  0
  141.0158   71.8596  224.6258 H   0  0  0  0  0  0  0  0  0  0  0  0
  141.6576   73.0283  226.6758 H   0  0  0  0  0  0  0  0  0  0  0  0
  140.9786   72.1354  228.9052 H   0  0  0  0  0  0  0  0  0  0  0  0
  139.6337   70.0389  228.9781 H   0  0  0  0  0  0  0  0  0  0  0  0
  138.9955   68.8738  226.9191 H   0  0  0  0  0  0  0  0  0  0  0  0
  137.7376   77.1529  222.5042 H   0  0  0  0  0  0  0  0  0  0  0  0
  138.0087   79.5231  223.1316 H   0  0  0  0  0  0  0  0  0  0  0  0
  139.5100   81.3616  223.6334 H   0  0  0  0  0  0  0  0  0  0  0  0
  141.7948   82.2470  223.9010 H   0  0  0  0  0  0  0  0  0  0  0  0
  143.7714   80.7419  223.5306 H   0  0  0  0  0  0  0  0  0  0  0  0
  143.3654   78.3818  222.9031 H   0  0  0  0  0  0  0  0  0  0  0  0
  1  2  2  0
  2  3  1  0
  3  4  1  0
  4  5  1  0
  5  6  2  0
  5  7  1  0
  7  8  1  0
  8  9  1  0
  9 10  1  0
 10 11  1  0
 11 12  1  0
 11 13  1  0
 13 14  1  0
 14 15  2  0
 15 16  1  0
 16 17  2  0
 17 18  1  0
 18 19  2  0
  2 20  1  0
 20 21  2  0
 21 22  1  0
 22 23  2  0
 23 24  1  0
 24 25  2  0
 25 26  1  0
 26 27  2  0
 27 28  1  0
 28 29  2  0
 12  7  1  0
 19 14  1  0
 29 20  1  0
 13  9  1  0
 28 23  1  0
  3 30  1  0
  4 31  1  0
  4 32  1  0
  8 33  1  0
  8 34  1  0
  9 35  1  1
 10 36  1  0
 10 37  1  0
 11 38  1  6
 12 39  1  0
 12 40  1  0
 13 41  1  6
 15 42  1  0
 16 43  1  0
 17 44  1  0
 18 45  1  0
 19 46  1  0
 21 47  1  0
 22 48  1  0
 24 49  1  0
 25 50  1  0
 26 51  1  0
 27 52  1  0
M  END
>  <smiles>  (83) 
O=C(NCC(=O)N1C[C@H]2C[C@@H](C1)C2c1ccccc1)c1ccc2ccccc2n1

>  <score_type>  (83) 
oracle

>  <origin>  (83) 
autodockgpu

>  <m_score__min__energy>  (83) 
-9.1899999999999995

>  <m_primary>  (83) 
energy

>  <rmsd>  (83) 
8.15668570186465

>  <m_score__min__rmsd>  (83) 
8.15668570186465

>  <meeko>  (83) 
{"free_energy": -9.15, "intermolecular_energy": -10.64, "internal_energy": -1.34, "cluster_size": 15, "cluster_id": 2, "rank_in_cluster": 2}

>  <energy>  (83) 
-8.93

>  <cluster_rmsd>  (83) 
1.67

>  <cluster>  (83) 
1

$$$$

     RDKit          3D

 52 56  0  0  1  0  0  0  0  0999 V2000
  140.3590   74.4170  222.3270 O   0  0  0  0  0  0  0  0  0  0  0  0
  139.5160   75.3470  222.1530 C   0  0  0  0  0  0  0  0  0  0  0  0
  138.2550   74.9610  221.5970 N   0  0  0  0  0  0  0  0  0  0  0  0
  138.0720   73.5530  221.2920 C   0  0  0  0  0  0  0  0  0  0  0  0
  137.3890   72.8370  222.4050 C   0  0  0  0  0  0  0  0  0  0  0  0
  136.2100   73.0290  222.7340 O   0  0  0  0  0  0  0  0  0  0  0  0
  138.1480   71.8820  223.1220 N   0  0  0  0  0  0  0  0  0  0  0  0
  137.5870   71.0360  224.1680 C   0  0  0  0  0  0  0  0  0  0  0  0
  138.1640   69.6790  223.9830 C   0  0  1  0  0  0  0  0  0  0  0  0
  138.6470   69.4890  222.5410 C   0  0  0  0  0  0  0  0  0  0  0  0
  139.9130   70.2310  223.0100 C   0  0  1  0  0  0  0  0  0  0  0  0
  139.5780   71.6780  222.8560 C   0  0  0  0  0  0  0  0  0  0  0  0
  139.6410   69.6340  224.3470 C   0  0  1  0  0  0  0  0  0  0  0  0
  140.0450   70.3620  225.5490 C   0  0  0  0  0  0  0  0  0  0  0  0
  140.8480   71.4830  225.5700 C   0  0  0  0  0  0  0  0  0  0  0  0
  141.2010   72.1440  226.7270 C   0  0  0  0  0  0  0  0  0  0  0  0
  140.7500   71.6960  227.9510 C   0  0  0  0  0  0  0  0  0  0  0  0
  139.9420   70.5730  227.9640 C   0  0  0  0  0  0  0  0  0  0  0  0
  139.5970   69.9220  226.8010 C   0  0  0  0  0  0  0  0  0  0  0  0
  139.8040   76.7330  222.4950 C   0  0  0  0  0  0  0  0  0  0  0  0
  138.7320   77.5790  222.6900 C   0  0  0  0  0  0  0  0  0  0  0  0
  138.8810   78.9020  223.0160 C   0  0  0  0  0  0  0  0  0  0  0  0
  140.1660   79.3880  223.1500 C   0  0  0  0  0  0  0  0  0  0  0  0
  140.3840   80.7180  223.4770 C   0  0  0  0  0  0  0  0  0  0  0  0
  141.6580   81.2040  223.6100 C   0  0  0  0  0  0  0  0  0  0  0  0
  142.7510   80.3610  223.4160 C   0  0  0  0  0  0  0  0  0  0  0  0
  142.4990   79.0400  223.0890 C   0  0  0  0  0  0  0  0  0  0  0  0
  141.2280   78.5290  222.9510 C   0  0  0  0  0  0  0  0  0  0  0  0
  141.0490   77.2210  222.6280 N   0  0  0  0  0  0  0  0  0  0  0  0
  137.5110   75.6780  221.4260 H   0  0  0  0  0  0  0  0  0  0  0  0
  137.4627   73.4611  220.3808 H   0  0  0  0  0  0  0  0  0  0  0  0
  139.0638   73.0997  221.1477 H   0  0  0  0  0  0  0  0  0  0  0  0
  137.8576   71.4301  225.1587 H   0  0  0  0  0  0  0  0  0  0  0  0
  136.4892   71.0085  224.1050 H   0  0  0  0  0  0  0  0  0  0  0  0
  137.4103   69.0411  224.4678 H   0  0  0  0  0  0  0  0  0  0  0  0
  138.8034   68.4445  222.2333 H   0  0  0  0  0  0  0  0  0  0  0  0
  138.0587   69.8008  221.6654 H   0  0  0  0  0  0  0  0  0  0  0  0
  140.9325   70.1592  222.6033 H   0  0  0  0  0  0  0  0  0  0  0  0
  140.1713   72.2693  223.5690 H   0  0  0  0  0  0  0  0  0  0  0  0
  139.8090   72.0000  221.8299 H   0  0  0  0  0  0  0  0  0  0  0  0
  140.1500   68.7105  224.6602 H   0  0  0  0  0  0  0  0  0  0  0  0
  141.2269   71.8702  224.6127 H   0  0  0  0  0  0  0  0  0  0  0  0
  141.8459   73.0336  226.6738 H   0  0  0  0  0  0  0  0  0  0  0  0
  141.0228   72.2128  228.8830 H   0  0  0  0  0  0  0  0  0  0  0  0
  139.5668   70.1917  228.9252 H   0  0  0  0  0  0  0  0  0  0  0  0
  138.9523   69.0325  226.8565 H   0  0  0  0  0  0  0  0  0  0  0  0
  137.7149   77.1749  222.5792 H   0  0  0  0  0  0  0  0  0  0  0  0
  138.0074   79.5535  223.1656 H   0  0  0  0  0  0  0  0  0  0  0  0
  139.5260   81.3889  223.6310 H   0  0  0  0  0  0  0  0  0  0  0  0
  141.8185   82.2607  223.8702 H   0  0  0  0  0  0  0  0  0  0  0  0
  143.7808   80.7337  223.5195 H   0  0  0  0  0  0  0  0  0  0  0  0
  143.3545   78.3666  222.9320 H   0  0  0  0  0  0  0  0  0  0  0  0
  1  2  2  0
  2  3  1  0
  3  4  1  0
  4  5  1  0
  5  6  2  0
  5  7  1  0
  7  8  1  0
  8  9  1  0
  9 10  1  0
 10 11  1  0
 11 12  1  0
 11 13  1  0
 13 14  1  0
 14 15  2  0
 15 16  1  0
 16 17  2  0
 17 18  1  0
 18 19  2  0
  2 20  1  0
 20 21  2  0
 21 22  1  0
 22 23  2  0
 23 24  1  0
 24 25  2  0
 25 26  1  0
 26 27  2  0
 27 28  1  0
 28 29  2  0
 12  7  1  0
 19 14  1  0
 29 20  1  0
 13  9  1  0
 28 23  1  0
  3 30  1  0
  4 31  1  0
  4 32  1  0
  8 33  1  0
  8 34  1  0
  9 35  1  1
 10 36  1  0
 10 37  1  0
 11 38  1  6
 12 39  1  0
 12 40  1  0
 13 41  1  6
 15 42  1  0
 16 43  1  0
 17 44  1  0
 18 45  1  0
 19 46  1  0
 21 47  1  0
 22 48  1  0
 24 49  1  0
 25 50  1  0
 26 51  1  0
 27 52  1  0
M  END
>  <smiles>  (84) 
O=C(NCC(=O)N1C[C@H]2C[C@@H](C1)C2c1ccccc1)c1ccc2ccccc2n1

>  <score_type>  (84) 
oracle

>  <origin>  (84) 
autodockgpu

>  <m_score__min__energy>  (84) 
-9.1899999999999995

>  <m_primary>  (84) 
energy

>  <rmsd>  (84) 
8.127457848553506

>  <m_score__min__rmsd>  (84) 
8.127457848553506

>  <meeko>  (84) 
{"free_energy": -9.08, "intermolecular_energy": -10.57, "internal_energy": -1.38, "cluster_size": 15, "cluster_id": 2, "rank_in_cluster": 8}

>  <energy>  (84) 
-8.91

>  <cluster_rmsd>  (84) 
1.67

>  <cluster>  (84) 
1

$$$$

     RDKit          3D

 52 56  0  0  1  0  0  0  0  0999 V2000
  141.1370   72.8890  222.0220 O   0  0  0  0  0  0  0  0  0  0  0  0
  140.0800   72.6810  222.6880 C   0  0  0  0  0  0  0  0  0  0  0  0
  138.9500   73.4930  222.3500 N   0  0  0  0  0  0  0  0  0  0  0  0
  139.1310   74.4640  221.2850 C   0  0  0  0  0  0  0  0  0  0  0  0
  138.7920   75.8420  221.7370 C   0  0  0  0  0  0  0  0  0  0  0  0
  137.7830   76.1270  222.3980 O   0  0  0  0  0  0  0  0  0  0  0  0
  139.6860   76.8770  221.3810 N   0  0  0  0  0  0  0  0  0  0  0  0
  141.1200   76.8210  221.6420 C   0  0  0  0  0  0  0  0  0  0  0  0
  141.8010   77.3640  220.4380 C   0  0  1  0  0  0  0  0  0  0  0  0
  140.8920   77.2580  219.2090 C   0  0  0  0  0  0  0  0  0  0  0  0
  140.2540   78.5580  219.7360 C   0  0  1  0  0  0  0  0  0  0  0  0
  139.2230   78.1010  220.7130 C   0  0  0  0  0  0  0  0  0  0  0  0
  141.5990   78.8660  220.2970 C   0  0  1  0  0  0  0  0  0  0  0  0
  141.6960   79.6590  221.5220 C   0  0  0  0  0  0  0  0  0  0  0  0
  142.5350   79.3900  222.5820 C   0  0  0  0  0  0  0  0  0  0  0  0
  142.5980   80.1670  223.7190 C   0  0  0  0  0  0  0  0  0  0  0  0
  141.7980   81.2840  223.8460 C   0  0  0  0  0  0  0  0  0  0  0  0
  140.9450   81.5820  222.7980 C   0  0  0  0  0  0  0  0  0  0  0  0
  140.8910   80.7960  221.6690 C   0  0  0  0  0  0  0  0  0  0  0  0
  140.0060   71.6770  223.7410 C   0  0  0  0  0  0  0  0  0  0  0  0
  139.3510   70.4970  223.4550 C   0  0  0  0  0  0  0  0  0  0  0  0
  139.2210   69.4820  224.3650 C   0  0  0  0  0  0  0  0  0  0  0  0
  139.7740   69.6680  225.6160 C   0  0  0  0  0  0  0  0  0  0  0  0
  139.6750   68.6790  226.5820 C   0  0  0  0  0  0  0  0  0  0  0  0
  140.2230   68.8590  227.8260 C   0  0  0  0  0  0  0  0  0  0  0  0
  140.8880   70.0460  228.1290 C   0  0  0  0  0  0  0  0  0  0  0  0
  140.9690   71.0140  227.1430 C   0  0  0  0  0  0  0  0  0  0  0  0
  140.4260   70.8540  225.8870 C   0  0  0  0  0  0  0  0  0  0  0  0
  140.5400   71.8430  224.9630 N   0  0  0  0  0  0  0  0  0  0  0  0
  138.0430   73.3760  222.8600 H   0  0  0  0  0  0  0  0  0  0  0  0
  140.1810   74.4437  220.9579 H   0  0  0  0  0  0  0  0  0  0  0  0
  138.4569   74.1974  220.4577 H   0  0  0  0  0  0  0  0  0  0  0  0
  141.3678   77.4304  222.5236 H   0  0  0  0  0  0  0  0  0  0  0  0
  141.4427   75.7890  221.8443 H   0  0  0  0  0  0  0  0  0  0  0  0
  142.7958   76.9001  220.5090 H   0  0  0  0  0  0  0  0  0  0  0  0
  141.4035   77.3471  218.2392 H   0  0  0  0  0  0  0  0  0  0  0  0
  140.3078   76.3568  218.9710 H   0  0  0  0  0  0  0  0  0  0  0  0
  139.7344   79.3407  219.1638 H   0  0  0  0  0  0  0  0  0  0  0  0
  139.0562   78.8873  221.4640 H   0  0  0  0  0  0  0  0  0  0  0  0
  138.2823   77.8940  220.1817 H   0  0  0  0  0  0  0  0  0  0  0  0
  142.2982   79.5130  219.7471 H   0  0  0  0  0  0  0  0  0  0  0  0
  143.1893   78.5081  222.5172 H   0  0  0  0  0  0  0  0  0  0  0  0
  143.2900   79.8949  224.5296 H   0  0  0  0  0  0  0  0  0  0  0  0
  141.8369   81.9141  224.7468 H   0  0  0  0  0  0  0  0  0  0  0  0
  140.2954   82.4669  222.8686 H   0  0  0  0  0  0  0  0  0  0  0  0
  140.1968   81.0682  220.8603 H   0  0  0  0  0  0  0  0  0  0  0  0
  138.9148   70.3659  222.4537 H   0  0  0  0  0  0  0  0  0  0  0  0
  138.6943   68.5511  224.1081 H   0  0  0  0  0  0  0  0  0  0  0  0
  139.1515   67.7402  226.3483 H   0  0  0  0  0  0  0  0  0  0  0  0
  140.1379   68.0670  228.5846 H   0  0  0  0  0  0  0  0  0  0  0  0
  141.3346   70.2084  229.1211 H   0  0  0  0  0  0  0  0  0  0  0  0
  141.4911   71.9545  227.3729 H   0  0  0  0  0  0  0  0  0  0  0  0
  1  2  2  0
  2  3  1  0
  3  4  1  0
  4  5  1  0
  5  6  2  0
  5  7  1  0
  7  8  1  0
  8  9  1  0
  9 10  1  0
 10 11  1  0
 11 12  1  0
 11 13  1  0
 13 14  1  0
 14 15  2  0
 15 16  1  0
 16 17  2  0
 17 18  1  0
 18 19  2  0
  2 20  1  0
 20 21  2  0
 21 22  1  0
 22 23  2  0
 23 24  1  0
 24 25  2  0
 25 26  1  0
 26 27  2  0
 27 28  1  0
 28 29  2  0
 12  7  1  0
 19 14  1  0
 29 20  1  0
 13  9  1  0
 28 23  1  0
  3 30  1  0
  4 31  1  0
  4 32  1  0
  8 33  1  0
  8 34  1  0
  9 35  1  6
 10 36  1  0
 10 37  1  0
 11 38  1  6
 12 39  1  0
 12 40  1  0
 13 41  1  6
 15 42  1  0
 16 43  1  0
 17 44  1  0
 18 45  1  0
 19 46  1  0
 21 47  1  0
 22 48  1  0
 24 49  1  0
 25 50  1  0
 26 51  1  0
 27 52  1  0
M  END
>  <smiles>  (85) 
O=C(NCC(=O)N1C[C@H]2C[C@@H](C1)C2c1ccccc1)c1ccc2ccccc2n1

>  <score_type>  (85) 
oracle

>  <origin>  (85) 
autodockgpu

>  <m_score__min__energy>  (85) 
-9.1899999999999995

>  <m_primary>  (85) 
energy

>  <rmsd>  (85) 
2.2326347984772177

>  <m_score__min__rmsd>  (85) 
2.2326347984772177

>  <meeko>  (85) 
{"free_energy": -9.12, "intermolecular_energy": -10.61, "internal_energy": -1.34, "cluster_size": 35, "cluster_id": 1, "rank_in_cluster": 10}

>  <energy>  (85) 
-8.35

>  <cluster_rmsd>  (85) 
0.96

>  <cluster>  (85) 
1

$$$$

     RDKit          3D

 52 56  0  0  1  0  0  0  0  0999 V2000
  140.4320   74.4970  222.0140 O   0  0  0  0  0  0  0  0  0  0  0  0
  139.5320   75.3870  222.0610 C   0  0  0  0  0  0  0  0  0  0  0  0
  138.2060   74.9630  221.7270 N   0  0  0  0  0  0  0  0  0  0  0  0
  138.0300   73.5660  221.3720 C   0  0  0  0  0  0  0  0  0  0  0  0
  137.3540   72.8060  222.4610 C   0  0  0  0  0  0  0  0  0  0  0  0
  136.1660   72.9570  222.7790 O   0  0  0  0  0  0  0  0  0  0  0  0
  138.1320   71.8590  223.1670 N   0  0  0  0  0  0  0  0  0  0  0  0
  137.5870   70.9870  224.2010 C   0  0  0  0  0  0  0  0  0  0  0  0
  138.1920   69.6450  224.0000 C   0  0  1  0  0  0  0  0  0  0  0  0
  138.6810   69.4830  222.5560 C   0  0  0  0  0  0  0  0  0  0  0  0
  139.9310   70.2450  223.0370 C   0  0  1  0  0  0  0  0  0  0  0  0
  139.5670   71.6870  222.9000 C   0  0  0  0  0  0  0  0  0  0  0  0
  139.6700   69.6250  224.3650 C   0  0  1  0  0  0  0  0  0  0  0  0
  140.0560   70.3470  225.5770 C   0  0  0  0  0  0  0  0  0  0  0  0
  140.8360   71.4830  225.6140 C   0  0  0  0  0  0  0  0  0  0  0  0
  141.1740   72.1370  226.7790 C   0  0  0  0  0  0  0  0  0  0  0  0
  140.7310   71.6640  227.9980 C   0  0  0  0  0  0  0  0  0  0  0  0
  139.9470   70.5250  227.9950 C   0  0  0  0  0  0  0  0  0  0  0  0
  139.6170   69.8810  226.8230 C   0  0  0  0  0  0  0  0  0  0  0  0
  139.8180   76.7660  222.4310 C   0  0  0  0  0  0  0  0  0  0  0  0
  138.7460   77.6020  222.6620 C   0  0  0  0  0  0  0  0  0  0  0  0
  138.8940   78.9180  223.0160 C   0  0  0  0  0  0  0  0  0  0  0  0
  140.1780   79.4070  223.1420 C   0  0  0  0  0  0  0  0  0  0  0  0
  140.3950   80.7290  223.4970 C   0  0  0  0  0  0  0  0  0  0  0  0
  141.6690   81.2190  223.6230 C   0  0  0  0  0  0  0  0  0  0  0  0
  142.7630   80.3860  223.3930 C   0  0  0  0  0  0  0  0  0  0  0  0
  142.5120   79.0710  223.0400 C   0  0  0  0  0  0  0  0  0  0  0  0
  141.2420   78.5580  222.9080 C   0  0  0  0  0  0  0  0  0  0  0  0
  141.0630   77.2570  222.5580 N   0  0  0  0  0  0  0  0  0  0  0  0
  137.4130   75.6460  221.7440 H   0  0  0  0  0  0  0  0  0  0  0  0
  137.4184   73.5035  220.4598 H   0  0  0  0  0  0  0  0  0  0  0  0
  139.0239   73.1239  221.2086 H   0  0  0  0  0  0  0  0  0  0  0  0
  137.8476   71.3736  225.1973 H   0  0  0  0  0  0  0  0  0  0  0  0
  136.4901   70.9373  224.1349 H   0  0  0  0  0  0  0  0  0  0  0  0
  137.4508   68.9862  224.4761 H   0  0  0  0  0  0  0  0  0  0  0  0
  138.8592   68.4459  222.2355 H   0  0  0  0  0  0  0  0  0  0  0  0
  138.0878   69.7936  221.6833 H   0  0  0  0  0  0  0  0  0  0  0  0
  140.9526   70.1997  222.6316 H   0  0  0  0  0  0  0  0  0  0  0  0
  140.1476   72.2815  223.6207 H   0  0  0  0  0  0  0  0  0  0  0  0
  139.7924   72.0259  221.8781 H   0  0  0  0  0  0  0  0  0  0  0  0
  140.1979   68.7081  224.6661 H   0  0  0  0  0  0  0  0  0  0  0  0
  141.2088   71.8894  224.6622 H   0  0  0  0  0  0  0  0  0  0  0  0
  141.8000   73.0406  226.7374 H   0  0  0  0  0  0  0  0  0  0  0  0
  140.9920   72.1743  228.9369 H   0  0  0  0  0  0  0  0  0  0  0  0
  139.5784   70.1240  228.9506 H   0  0  0  0  0  0  0  0  0  0  0  0
  138.9922   68.9768  226.8666 H   0  0  0  0  0  0  0  0  0  0  0  0
  137.7291   77.1957  222.5578 H   0  0  0  0  0  0  0  0  0  0  0  0
  138.0197   79.5616  223.1934 H   0  0  0  0  0  0  0  0  0  0  0  0
  139.5362   81.3917  223.6795 H   0  0  0  0  0  0  0  0  0  0  0  0
  141.8282   82.2700  223.9057 H   0  0  0  0  0  0  0  0  0  0  0  0
  143.7925   80.7614  223.4889 H   0  0  0  0  0  0  0  0  0  0  0  0
  143.3680   78.4050  222.8564 H   0  0  0  0  0  0  0  0  0  0  0  0
  1  2  2  0
  2  3  1  0
  3  4  1  0
  4  5  1  0
  5  6  2  0
  5  7  1  0
  7  8  1  0
  8  9  1  0
  9 10  1  0
 10 11  1  0
 11 12  1  0
 11 13  1  0
 13 14  1  0
 14 15  2  0
 15 16  1  0
 16 17  2  0
 17 18  1  0
 18 19  2  0
  2 20  1  0
 20 21  2  0
 21 22  1  0
 22 23  2  0
 23 24  1  0
 24 25  2  0
 25 26  1  0
 26 27  2  0
 27 28  1  0
 28 29  2  0
 12  7  1  0
 19 14  1  0
 29 20  1  0
 13  9  1  0
 28 23  1  0
  3 30  1  0
  4 31  1  0
  4 32  1  0
  8 33  1  0
  8 34  1  0
  9 35  1  1
 10 36  1  0
 10 37  1  0
 11 38  1  6
 12 39  1  0
 12 40  1  0
 13 41  1  6
 15 42  1  0
 16 43  1  0
 17 44  1  0
 18 45  1  0
 19 46  1  0
 21 47  1  0
 22 48  1  0
 24 49  1  0
 25 50  1  0
 26 51  1  0
 27 52  1  0
M  END
>  <smiles>  (86) 
O=C(NCC(=O)N1C[C@H]2C[C@@H](C1)C2c1ccccc1)c1ccc2ccccc2n1

>  <score_type>  (86) 
oracle

>  <origin>  (86) 
autodockgpu

>  <m_score__min__energy>  (86) 
-9.1899999999999995

>  <m_primary>  (86) 
energy

>  <rmsd>  (86) 
8.146976973428595

>  <m_score__min__rmsd>  (86) 
8.146976973428595

>  <meeko>  (86) 
{"free_energy": -9.13, "intermolecular_energy": -10.62, "internal_energy": -1.37, "cluster_size": 15, "cluster_id": 2, "rank_in_cluster": 3}

>  <energy>  (86) 
-9.18

>  <cluster_rmsd>  (86) 
0.0

>  <cluster>  (86) 
2

$$$$

     RDKit          3D

 52 56  0  0  1  0  0  0  0  0999 V2000
  140.3750   74.4160  222.0790 O   0  0  0  0  0  0  0  0  0  0  0  0
  139.4770   75.3100  222.0940 C   0  0  0  0  0  0  0  0  0  0  0  0
  138.1560   74.8850  221.7420 N   0  0  0  0  0  0  0  0  0  0  0  0
  137.9820   73.4830  221.4070 C   0  0  0  0  0  0  0  0  0  0  0  0
  137.3090   72.7370  222.5070 C   0  0  0  0  0  0  0  0  0  0  0  0
  136.1320   72.9160  222.8490 O   0  0  0  0  0  0  0  0  0  0  0  0
  138.0770   71.7690  223.1950 N   0  0  0  0  0  0  0  0  0  0  0  0
  137.5240   70.8870  224.2160 C   0  0  0  0  0  0  0  0  0  0  0  0
  138.1120   69.5410  223.9910 C   0  0  1  0  0  0  0  0  0  0  0  0
  138.5960   69.3970  222.5440 C   0  0  0  0  0  0  0  0  0  0  0  0
  139.8560   70.1360  223.0340 C   0  0  1  0  0  0  0  0  0  0  0  0
  139.5090   71.5840  222.9230 C   0  0  0  0  0  0  0  0  0  0  0  0
  139.5900   69.4970  224.3530 C   0  0  1  0  0  0  0  0  0  0  0  0
  139.9880   70.1940  225.5760 C   0  0  0  0  0  0  0  0  0  0  0  0
  139.5190   69.9130  226.8420 C   0  0  0  0  0  0  0  0  0  0  0  0
  139.9240   70.5920  227.9710 C   0  0  0  0  0  0  0  0  0  0  0  0
  140.8450   71.6150  227.8770 C   0  0  0  0  0  0  0  0  0  0  0  0
  141.3350   71.9220  226.6200 C   0  0  0  0  0  0  0  0  0  0  0  0
  140.9210   71.2350  225.5000 C   0  0  0  0  0  0  0  0  0  0  0  0
  139.7610   76.6950  222.4470 C   0  0  0  0  0  0  0  0  0  0  0  0
  138.6880   77.5240  222.6980 C   0  0  0  0  0  0  0  0  0  0  0  0
  138.8340   78.8430  223.0390 C   0  0  0  0  0  0  0  0  0  0  0  0
  140.1170   79.3430  223.1300 C   0  0  0  0  0  0  0  0  0  0  0  0
  140.3310   80.6700  223.4700 C   0  0  0  0  0  0  0  0  0  0  0  0
  141.6040   81.1700  223.5610 C   0  0  0  0  0  0  0  0  0  0  0  0
  142.6990   80.3440  223.3110 C   0  0  0  0  0  0  0  0  0  0  0  0
  142.4500   79.0250  222.9740 C   0  0  0  0  0  0  0  0  0  0  0  0
  141.1810   78.5010  222.8760 C   0  0  0  0  0  0  0  0  0  0  0  0
  141.0050   77.1960  222.5400 N   0  0  0  0  0  0  0  0  0  0  0  0
  137.3650   75.5710  221.7340 H   0  0  0  0  0  0  0  0  0  0  0  0
  137.3693   73.4067  220.4966 H   0  0  0  0  0  0  0  0  0  0  0  0
  138.9766   73.0405  221.2487 H   0  0  0  0  0  0  0  0  0  0  0  0
  137.7920   71.2538  225.2178 H   0  0  0  0  0  0  0  0  0  0  0  0
  136.4264   70.8519  224.1523 H   0  0  0  0  0  0  0  0  0  0  0  0
  137.3636   68.8833  224.4572 H   0  0  0  0  0  0  0  0  0  0  0  0
  138.7611   68.3633  222.2062 H   0  0  0  0  0  0  0  0  0  0  0  0
  138.0047   69.7290  221.6779 H   0  0  0  0  0  0  0  0  0  0  0  0
  140.8758   70.0853  222.6247 H   0  0  0  0  0  0  0  0  0  0  0  0
  140.0977   72.1587  223.6531 H   0  0  0  0  0  0  0  0  0  0  0  0
  139.7369   71.9378  221.9067 H   0  0  0  0  0  0  0  0  0  0  0  0
  140.1068   68.5688  224.6383 H   0  0  0  0  0  0  0  0  0  0  0  0
  138.7826   69.1040  226.9569 H   0  0  0  0  0  0  0  0  0  0  0  0
  139.5106   70.3168  228.9525 H   0  0  0  0  0  0  0  0  0  0  0  0
  141.1776   72.1664  228.7688 H   0  0  0  0  0  0  0  0  0  0  0  0
  142.0712   72.7323  226.5126 H   0  0  0  0  0  0  0  0  0  0  0  0
  141.3348   71.5119  224.5192 H   0  0  0  0  0  0  0  0  0  0  0  0
  137.6722   77.1089  222.6212 H   0  0  0  0  0  0  0  0  0  0  0  0
  137.9592   79.4810  223.2334 H   0  0  0  0  0  0  0  0  0  0  0  0
  139.4716   81.3273  223.6685 H   0  0  0  0  0  0  0  0  0  0  0  0
  141.7619   82.2244  223.8317 H   0  0  0  0  0  0  0  0  0  0  0  0
  143.7275   80.7282  223.3794 H   0  0  0  0  0  0  0  0  0  0  0  0
  143.3066   78.3642  222.7751 H   0  0  0  0  0  0  0  0  0  0  0  0
  1  2  2  0
  2  3  1  0
  3  4  1  0
  4  5  1  0
  5  6  2  0
  5  7  1  0
  7  8  1  0
  8  9  1  0
  9 10  1  0
 10 11  1  0
 11 12  1  0
 11 13  1  0
 13 14  1  0
 14 15  2  0
 15 16  1  0
 16 17  2  0
 17 18  1  0
 18 19  2  0
  2 20  1  0
 20 21  2  0
 21 22  1  0
 22 23  2  0
 23 24  1  0
 24 25  2  0
 25 26  1  0
 26 27  2  0
 27 28  1  0
 28 29  2  0
 12  7  1  0
 19 14  1  0
 29 20  1  0
 13  9  1  0
 28 23  1  0
  3 30  1  0
  4 31  1  0
  4 32  1  0
  8 33  1  0
  8 34  1  0
  9 35  1  1
 10 36  1  0
 10 37  1  0
 11 38  1  6
 12 39  1  0
 12 40  1  0
 13 41  1  6
 15 42  1  0
 16 43  1  0
 17 44  1  0
 18 45  1  0
 19 46  1  0
 21 47  1  0
 22 48  1  0
 24 49  1  0
 25 50  1  0
 26 51  1  0
 27 52  1  0
M  END
>  <smiles>  (87) 
O=C(NCC(=O)N1C[C@H]2C[C@@H](C1)C2c1ccccc1)c1ccc2ccccc2n1

>  <score_type>  (87) 
oracle

>  <origin>  (87) 
autodockgpu

>  <m_score__min__energy>  (87) 
-9.1899999999999995

>  <m_primary>  (87) 
energy

>  <rmsd>  (87) 
8.150158762710538

>  <m_score__min__rmsd>  (87) 
8.150158762710538

>  <meeko>  (87) 
{"free_energy": -9.03, "intermolecular_energy": -10.52, "internal_energy": -1.34, "cluster_size": 15, "cluster_id": 2, "rank_in_cluster": 10}

>  <energy>  (87) 
-9.15

>  <cluster_rmsd>  (87) 
0.79

>  <cluster>  (87) 
2

$$$$

     RDKit          3D

 52 56  0  0  1  0  0  0  0  0999 V2000
  141.0770   73.0440  222.0970 O   0  0  0  0  0  0  0  0  0  0  0  0
  140.0160   72.7280  222.7140 C   0  0  0  0  0  0  0  0  0  0  0  0
  138.8310   73.4390  222.3380 N   0  0  0  0  0  0  0  0  0  0  0  0
  138.9670   74.4420  221.2960 C   0  0  0  0  0  0  0  0  0  0  0  0
  138.7130   75.8130  221.8200 C   0  0  0  0  0  0  0  0  0  0  0  0
  137.7460   76.1160  222.5330 O   0  0  0  0  0  0  0  0  0  0  0  0
  139.6430   76.8200  221.4720 N   0  0  0  0  0  0  0  0  0  0  0  0
  141.0650   76.7380  221.7840 C   0  0  0  0  0  0  0  0  0  0  0  0
  141.7990   77.2380  220.5930 C   0  0  1  0  0  0  0  0  0  0  0  0
  140.9310   77.1230  219.3350 C   0  0  0  0  0  0  0  0  0  0  0  0
  140.3060   78.4490  219.8100 C   0  0  1  0  0  0  0  0  0  0  0  0
  139.2310   78.0370  220.7600 C   0  0  0  0  0  0  0  0  0  0  0  0
  141.6370   78.7400  220.4110 C   0  0  1  0  0  0  0  0  0  0  0  0
  141.7090   79.5600  221.6200 C   0  0  0  0  0  0  0  0  0  0  0  0
  142.5730   79.3500  222.6740 C   0  0  0  0  0  0  0  0  0  0  0  0
  142.6120   80.1510  223.7950 C   0  0  0  0  0  0  0  0  0  0  0  0
  141.7600   81.2300  223.9120 C   0  0  0  0  0  0  0  0  0  0  0  0
  140.8810   81.4670  222.8710 C   0  0  0  0  0  0  0  0  0  0  0  0
  140.8520   80.6590  221.7560 C   0  0  0  0  0  0  0  0  0  0  0  0
  139.9910   71.7020  223.7470 C   0  0  0  0  0  0  0  0  0  0  0  0
  139.3390   70.5210  223.4600 C   0  0  0  0  0  0  0  0  0  0  0  0
  139.2510   69.4860  224.3540 C   0  0  0  0  0  0  0  0  0  0  0  0
  139.8480   69.6530  225.5880 C   0  0  0  0  0  0  0  0  0  0  0  0
  139.7940   68.6430  226.5360 C   0  0  0  0  0  0  0  0  0  0  0  0
  140.3840   68.8050  227.7630 C   0  0  0  0  0  0  0  0  0  0  0  0
  141.0470   69.9930  228.0670 C   0  0  0  0  0  0  0  0  0  0  0  0
  141.0820   70.9810  227.0980 C   0  0  0  0  0  0  0  0  0  0  0  0
  140.4970   70.8410  225.8600 C   0  0  0  0  0  0  0  0  0  0  0  0
  140.5660   71.8500  224.9530 N   0  0  0  0  0  0  0  0  0  0  0  0
  137.9180   73.2300  222.8060 H   0  0  0  0  0  0  0  0  0  0  0  0
  139.9881   74.3985  220.8894 H   0  0  0  0  0  0  0  0  0  0  0  0
  138.2239   74.2290  220.5135 H   0  0  0  0  0  0  0  0  0  0  0  0
  141.2964   77.3617  222.6600 H   0  0  0  0  0  0  0  0  0  0  0  0
  141.3567   75.7040  222.0202 H   0  0  0  0  0  0  0  0  0  0  0  0
  142.7800   76.7542  220.7096 H   0  0  0  0  0  0  0  0  0  0  0  0
  141.4778   77.1777  218.3821 H   0  0  0  0  0  0  0  0  0  0  0  0
  140.3347   76.2298  219.0969 H   0  0  0  0  0  0  0  0  0  0  0  0
  139.8253   79.2301  219.2026 H   0  0  0  0  0  0  0  0  0  0  0  0
  139.0550   78.8442  221.4862 H   0  0  0  0  0  0  0  0  0  0  0  0
  138.3054   77.8373  220.2002 H   0  0  0  0  0  0  0  0  0  0  0  0
  142.3703   79.3578  219.8719 H   0  0  0  0  0  0  0  0  0  0  0  0
  143.2674   78.4988  222.6172 H   0  0  0  0  0  0  0  0  0  0  0  0
  143.3266   79.9287  224.6012 H   0  0  0  0  0  0  0  0  0  0  0  0
  141.7792   81.8779  224.8007 H   0  0  0  0  0  0  0  0  0  0  0  0
  140.1894   82.3200  222.9349 H   0  0  0  0  0  0  0  0  0  0  0  0
  140.1366   80.8830  220.9510 H   0  0  0  0  0  0  0  0  0  0  0  0
  138.8698   70.4049  222.4719 H   0  0  0  0  0  0  0  0  0  0  0  0
  138.7236   68.5553  224.0977 H   0  0  0  0  0  0  0  0  0  0  0  0
  139.2730   67.7030  226.3017 H   0  0  0  0  0  0  0  0  0  0  0  0
  140.3342   67.9971  228.5079 H   0  0  0  0  0  0  0  0  0  0  0  0
  141.5270   70.1406  229.0457 H   0  0  0  0  0  0  0  0  0  0  0  0
  141.6020   71.9226  227.3283 H   0  0  0  0  0  0  0  0  0  0  0  0
  1  2  2  0
  2  3  1  0
  3  4  1  0
  4  5  1  0
  5  6  2  0
  5  7  1  0
  7  8  1  0
  8  9  1  0
  9 10  1  0
 10 11  1  0
 11 12  1  0
 11 13  1  0
 13 14  1  0
 14 15  2  0
 15 16  1  0
 16 17  2  0
 17 18  1  0
 18 19  2  0
  2 20  1  0
 20 21  2  0
 21 22  1  0
 22 23  2  0
 23 24  1  0
 24 25  2  0
 25 26  1  0
 26 27  2  0
 27 28  1  0
 28 29  2  0
 12  7  1  0
 19 14  1  0
 29 20  1  0
 13  9  1  0
 28 23  1  0
  3 30  1  0
  4 31  1  0
  4 32  1  0
  8 33  1  0
  8 34  1  0
  9 35  1  6
 10 36  1  0
 10 37  1  0
 11 38  1  6
 12 39  1  0
 12 40  1  0
 13 41  1  6
 15 42  1  0
 16 43  1  0
 17 44  1  0
 18 45  1  0
 19 46  1  0
 21 47  1  0
 22 48  1  0
 24 49  1  0
 25 50  1  0
 26 51  1  0
 27 52  1  0
M  END
>  <smiles>  (88) 
O=C(NCC(=O)N1C[C@H]2C[C@@H](C1)C2c1ccccc1)c1ccc2ccccc2n1

>  <score_type>  (88) 
oracle

>  <origin>  (88) 
autodockgpu

>  <m_score__min__energy>  (88) 
-9.1899999999999995

>  <m_primary>  (88) 
energy

>  <rmsd>  (88) 
2.233844901051807

>  <m_score__min__rmsd>  (88) 
2.233844901051807

>  <meeko>  (88) 
{"free_energy": -9.11, "intermolecular_energy": -10.6, "internal_energy": -1.36, "cluster_size": 35, "cluster_id": 1, "rank_in_cluster": 11}

>  <energy>  (88) 
-9.13

>  <cluster_rmsd>  (88) 
0.82

>  <cluster>  (88) 
2

$$$$

     RDKit          3D

 52 56  0  0  1  0  0  0  0  0999 V2000
  141.3580   72.6330  221.7570 O   0  0  0  0  0  0  0  0  0  0  0  0
  140.3680   72.6330  222.5490 C   0  0  0  0  0  0  0  0  0  0  0  0
  139.3920   73.6590  222.3400 N   0  0  0  0  0  0  0  0  0  0  0  0
  139.6340   74.5870  221.2500 C   0  0  0  0  0  0  0  0  0  0  0  0
  139.0370   75.9240  221.5260 C   0  0  0  0  0  0  0  0  0  0  0  0
  137.8950   76.0940  221.9770 O   0  0  0  0  0  0  0  0  0  0  0  0
  139.8350   77.0580  221.2510 N   0  0  0  0  0  0  0  0  0  0  0  0
  141.2810   77.0830  221.4380 C   0  0  0  0  0  0  0  0  0  0  0  0
  141.8550   77.8070  220.2750 C   0  0  1  0  0  0  0  0  0  0  0  0
  140.8910   77.7690  219.0840 C   0  0  0  0  0  0  0  0  0  0  0  0
  140.1930   78.9500  219.7850 C   0  0  1  0  0  0  0  0  0  0  0  0
  139.2500   78.3090  220.7490 C   0  0  0  0  0  0  0  0  0  0  0  0
  141.5400   79.2960  220.3170 C   0  0  1  0  0  0  0  0  0  0  0  0
  141.6470   79.9530  221.6190 C   0  0  0  0  0  0  0  0  0  0  0  0
  140.6440   80.6740  222.2320 C   0  0  0  0  0  0  0  0  0  0  0  0
  140.7840   81.2750  223.4640 C   0  0  0  0  0  0  0  0  0  0  0  0
  141.9730   81.1770  224.1570 C   0  0  0  0  0  0  0  0  0  0  0  0
  142.9990   80.4610  223.5680 C   0  0  0  0  0  0  0  0  0  0  0  0
  142.8460   79.8650  222.3360 C   0  0  0  0  0  0  0  0  0  0  0  0
  140.2220   71.6500  223.6140 C   0  0  0  0  0  0  0  0  0  0  0  0
  139.5770   70.4700  223.3100 C   0  0  0  0  0  0  0  0  0  0  0  0
  139.3820   69.4730  224.2300 C   0  0  0  0  0  0  0  0  0  0  0  0
  139.8590   69.6800  225.5090 C   0  0  0  0  0  0  0  0  0  0  0  0
  139.6930   68.7100  226.4860 C   0  0  0  0  0  0  0  0  0  0  0  0
  140.1650   68.9120  227.7570 C   0  0  0  0  0  0  0  0  0  0  0  0
  140.8190   70.1000  228.0790 C   0  0  0  0  0  0  0  0  0  0  0  0
  140.9680   71.0470  227.0810 C   0  0  0  0  0  0  0  0  0  0  0  0
  140.5030   70.8670  225.7980 C   0  0  0  0  0  0  0  0  0  0  0  0
  140.6810   71.8370  224.8630 N   0  0  0  0  0  0  0  0  0  0  0  0
  138.5480   73.7190  222.9560 H   0  0  0  0  0  0  0  0  0  0  0  0
  140.7194   74.7019  221.1132 H   0  0  0  0  0  0  0  0  0  0  0  0
  139.1647   74.1812  220.3417 H   0  0  0  0  0  0  0  0  0  0  0  0
  141.5325   77.6076  222.3716 H   0  0  0  0  0  0  0  0  0  0  0  0
  141.6866   76.0627  221.5054 H   0  0  0  0  0  0  0  0  0  0  0  0
  142.8826   77.4154  220.2468 H   0  0  0  0  0  0  0  0  0  0  0  0
  141.3422   78.0037  218.1086 H   0  0  0  0  0  0  0  0  0  0  0  0
  140.3597   76.8581  218.7709 H   0  0  0  0  0  0  0  0  0  0  0  0
  139.5902   79.7499  219.3302 H   0  0  0  0  0  0  0  0  0  0  0  0
  139.0672   78.9920  221.5917 H   0  0  0  0  0  0  0  0  0  0  0  0
  138.2995   78.0901  220.2403 H   0  0  0  0  0  0  0  0  0  0  0  0
  142.1608   80.0524  219.8146 H   0  0  0  0  0  0  0  0  0  0  0  0
  139.6811   80.7747  221.7098 H   0  0  0  0  0  0  0  0  0  0  0  0
  139.9430   81.8361  223.8975 H   0  0  0  0  0  0  0  0  0  0  0  0
  142.1001   81.6509  225.1415 H   0  0  0  0  0  0  0  0  0  0  0  0
  143.9594   80.3653  224.0957 H   0  0  0  0  0  0  0  0  0  0  0  0
  143.6884   79.3049  221.9039 H   0  0  0  0  0  0  0  0  0  0  0  0
  139.2032   70.3225  222.2860 H   0  0  0  0  0  0  0  0  0  0  0  0
  138.8640   68.5412  223.9591 H   0  0  0  0  0  0  0  0  0  0  0  0
  139.1779   67.7700  226.2388 H   0  0  0  0  0  0  0  0  0  0  0  0
  140.0274   68.1355  228.5239 H   0  0  0  0  0  0  0  0  0  0  0  0
  141.2043   70.2790  229.0936 H   0  0  0  0  0  0  0  0  0  0  0  0
  141.4825   71.9883  227.3245 H   0  0  0  0  0  0  0  0  0  0  0  0
  1  2  2  0
  2  3  1  0
  3  4  1  0
  4  5  1  0
  5  6  2  0
  5  7  1  0
  7  8  1  0
  8  9  1  0
  9 10  1  0
 10 11  1  0
 11 12  1  0
 11 13  1  0
 13 14  1  0
 14 15  2  0
 15 16  1  0
 16 17  2  0
 17 18  1  0
 18 19  2  0
  2 20  1  0
 20 21  2  0
 21 22  1  0
 22 23  2  0
 23 24  1  0
 24 25  2  0
 25 26  1  0
 26 27  2  0
 27 28  1  0
 28 29  2  0
 12  7  1  0
 19 14  1  0
 29 20  1  0
 13  9  1  0
 28 23  1  0
  3 30  1  0
  4 31  1  0
  4 32  1  0
  8 33  1  0
  8 34  1  0
  9 35  1  6
 10 36  1  0
 10 37  1  0
 11 38  1  6
 12 39  1  0
 12 40  1  0
 13 41  1  6
 15 42  1  0
 16 43  1  0
 17 44  1  0
 18 45  1  0
 19 46  1  0
 21 47  1  0
 22 48  1  0
 24 49  1  0
 25 50  1  0
 26 51  1  0
 27 52  1  0
M  END
>  <smiles>  (89) 
O=C(NCC(=O)N1C[C@H]2C[C@@H](C1)C2c1ccccc1)c1ccc2ccccc2n1

>  <score_type>  (89) 
oracle

>  <origin>  (89) 
autodockgpu

>  <m_score__min__energy>  (89) 
-9.1899999999999995

>  <m_primary>  (89) 
energy

>  <rmsd>  (89) 
2.347115387083436

>  <m_score__min__rmsd>  (89) 
2.347115387083436

>  <meeko>  (89) 
{"free_energy": -8.93, "intermolecular_energy": -10.42, "internal_energy": -1.37, "cluster_size": 35, "cluster_id": 1, "rank_in_cluster": 32}

>  <energy>  (89) 
-9.12

>  <cluster_rmsd>  (89) 
0.81

>  <cluster>  (89) 
2

$$$$

     RDKit          3D

 52 56  0  0  1  0  0  0  0  0999 V2000
  141.0280   73.1630  222.1240 O   0  0  0  0  0  0  0  0  0  0  0  0
  139.9620   72.8100  222.7100 C   0  0  0  0  0  0  0  0  0  0  0  0
  138.7740   73.5200  222.3420 N   0  0  0  0  0  0  0  0  0  0  0  0
  138.9130   74.5630  221.3410 C   0  0  0  0  0  0  0  0  0  0  0  0
  138.7320   75.9170  221.9340 C   0  0  0  0  0  0  0  0  0  0  0  0
  137.8340   76.2100  222.7360 O   0  0  0  0  0  0  0  0  0  0  0  0
  139.6510   76.9200  221.5460 N   0  0  0  0  0  0  0  0  0  0  0  0
  141.0840   76.8350  221.8000 C   0  0  0  0  0  0  0  0  0  0  0  0
  141.7700   77.3290  220.5780 C   0  0  1  0  0  0  0  0  0  0  0  0
  140.8510   77.2150  219.3570 C   0  0  0  0  0  0  0  0  0  0  0  0
  140.2500   78.5440  219.8540 C   0  0  1  0  0  0  0  0  0  0  0  0
  139.2140   78.1380  220.8490 C   0  0  0  0  0  0  0  0  0  0  0  0
  141.6060   78.8320  220.4000 C   0  0  1  0  0  0  0  0  0  0  0  0
  141.7310   79.6530  221.6030 C   0  0  0  0  0  0  0  0  0  0  0  0
  142.5780   79.3960  222.6600 C   0  0  0  0  0  0  0  0  0  0  0  0
  142.6680   80.2000  223.7760 C   0  0  0  0  0  0  0  0  0  0  0  0
  141.8890   81.3330  223.8840 C   0  0  0  0  0  0  0  0  0  0  0  0
  141.0280   81.6190  222.8400 C   0  0  0  0  0  0  0  0  0  0  0  0
  140.9470   80.8070  221.7310 C   0  0  0  0  0  0  0  0  0  0  0  0
  139.9340   71.7450  223.7040 C   0  0  0  0  0  0  0  0  0  0  0  0
  139.2930   70.5720  223.3650 C   0  0  0  0  0  0  0  0  0  0  0  0
  139.2040   69.5030  224.2180 C   0  0  0  0  0  0  0  0  0  0  0  0
  139.7860   69.6260  225.4630 C   0  0  0  0  0  0  0  0  0  0  0  0
  139.7300   68.5810  226.3720 C   0  0  0  0  0  0  0  0  0  0  0  0
  140.3070   68.7000  227.6100 C   0  0  0  0  0  0  0  0  0  0  0  0
  140.9580   69.8800  227.9660 C   0  0  0  0  0  0  0  0  0  0  0  0
  140.9960   70.9040  227.0360 C   0  0  0  0  0  0  0  0  0  0  0  0
  140.4240   70.8070  225.7870 C   0  0  0  0  0  0  0  0  0  0  0  0
  140.4960   71.8500  224.9200 N   0  0  0  0  0  0  0  0  0  0  0  0
  137.8570   73.2810  222.7860 H   0  0  0  0  0  0  0  0  0  0  0  0
  139.9167   74.4993  220.8955 H   0  0  0  0  0  0  0  0  0  0  0  0
  138.1352   74.4141  220.5775 H   0  0  0  0  0  0  0  0  0  0  0  0
  141.3527   77.4610  222.6637 H   0  0  0  0  0  0  0  0  0  0  0  0
  141.3824   75.8010  222.0278 H   0  0  0  0  0  0  0  0  0  0  0  0
  142.7529   76.8410  220.6548 H   0  0  0  0  0  0  0  0  0  0  0  0
  141.3586   77.2661  218.3825 H   0  0  0  0  0  0  0  0  0  0  0  0
  140.2425   76.3234  219.1454 H   0  0  0  0  0  0  0  0  0  0  0  0
  139.7471   79.3248  219.2645 H   0  0  0  0  0  0  0  0  0  0  0  0
  139.0716   78.9473  221.5803 H   0  0  0  0  0  0  0  0  0  0  0  0
  138.2650   77.9409  220.3288 H   0  0  0  0  0  0  0  0  0  0  0  0
  142.3182   79.4469  219.8303 H   0  0  0  0  0  0  0  0  0  0  0  0
  143.2162   78.5014  222.6101 H   0  0  0  0  0  0  0  0  0  0  0  0
  143.3651   79.9365  224.5851 H   0  0  0  0  0  0  0  0  0  0  0  0
  141.9502   81.9851  224.7678 H   0  0  0  0  0  0  0  0  0  0  0  0
  140.3934   82.5157  222.8970 H   0  0  0  0  0  0  0  0  0  0  0  0
  140.2480   81.0714  220.9239 H   0  0  0  0  0  0  0  0  0  0  0  0
  138.8341   70.4910  222.3686 H   0  0  0  0  0  0  0  0  0  0  0  0
  138.6866   68.5790  223.9204 H   0  0  0  0  0  0  0  0  0  0  0  0
  139.2176   67.6472  226.0974 H   0  0  0  0  0  0  0  0  0  0  0  0
  140.2562   67.8637  228.3228 H   0  0  0  0  0  0  0  0  0  0  0  0
  141.4266   69.9936  228.9547 H   0  0  0  0  0  0  0  0  0  0  0  0
  141.5072   71.8395  227.3071 H   0  0  0  0  0  0  0  0  0  0  0  0
  1  2  2  0
  2  3  1  0
  3  4  1  0
  4  5  1  0
  5  6  2  0
  5  7  1  0
  7  8  1  0
  8  9  1  0
  9 10  1  0
 10 11  1  0
 11 12  1  0
 11 13  1  0
 13 14  1  0
 14 15  2  0
 15 16  1  0
 16 17  2  0
 17 18  1  0
 18 19  2  0
  2 20  1  0
 20 21  2  0
 21 22  1  0
 22 23  2  0
 23 24  1  0
 24 25  2  0
 25 26  1  0
 26 27  2  0
 27 28  1  0
 28 29  2  0
 12  7  1  0
 19 14  1  0
 29 20  1  0
 13  9  1  0
 28 23  1  0
  3 30  1  0
  4 31  1  0
  4 32  1  0
  8 33  1  0
  8 34  1  0
  9 35  1  6
 10 36  1  0
 10 37  1  0
 11 38  1  6
 12 39  1  0
 12 40  1  0
 13 41  1  6
 15 42  1  0
 16 43  1  0
 17 44  1  0
 18 45  1  0
 19 46  1  0
 21 47  1  0
 22 48  1  0
 24 49  1  0
 25 50  1  0
 26 51  1  0
 27 52  1  0
M  END
>  <smiles>  (90) 
O=C(NCC(=O)N1C[C@H]2C[C@@H](C1)C2c1ccccc1)c1ccc2ccccc2n1

>  <score_type>  (90) 
oracle

>  <origin>  (90) 
autodockgpu

>  <m_score__min__energy>  (90) 
-9.1899999999999995

>  <m_primary>  (90) 
energy

>  <rmsd>  (90) 
2.283246419031257

>  <m_score__min__rmsd>  (90) 
2.283246419031257

>  <meeko>  (90) 
{"free_energy": -9.15, "intermolecular_energy": -10.64, "internal_energy": -1.35, "cluster_size": 35, "cluster_id": 1, "rank_in_cluster": 5}

>  <energy>  (90) 
-9.12

>  <cluster_rmsd>  (90) 
0.74

>  <cluster>  (90) 
2

$$$$

     RDKit          3D

 52 56  0  0  1  0  0  0  0  0999 V2000
  141.1350   71.5770  221.4150 O   0  0  0  0  0  0  0  0  0  0  0  0
  140.4080   72.0540  222.3370 C   0  0  0  0  0  0  0  0  0  0  0  0
  139.7500   73.2910  222.0450 N   0  0  0  0  0  0  0  0  0  0  0  0
  139.9810   73.8680  220.7330 C   0  0  0  0  0  0  0  0  0  0  0  0
  141.0170   74.9370  220.7800 C   0  0  0  0  0  0  0  0  0  0  0  0
  142.2090   74.7630  220.4900 O   0  0  0  0  0  0  0  0  0  0  0  0
  140.5970   76.2260  221.1850 N   0  0  0  0  0  0  0  0  0  0  0  0
  140.6900   77.4030  220.3290 C   0  0  0  0  0  0  0  0  0  0  0  0
  139.4370   78.1770  220.5190 C   0  0  1  0  0  0  0  0  0  0  0  0
  138.3160   77.2710  221.0410 C   0  0  0  0  0  0  0  0  0  0  0  0
  138.9570   77.5030  222.4240 C   0  0  1  0  0  0  0  0  0  0  0  0
  140.0290   76.4690  222.5180 C   0  0  0  0  0  0  0  0  0  0  0  0
  139.3720   78.8310  221.8920 C   0  0  1  0  0  0  0  0  0  0  0  0
  140.6040   79.4440  222.3860 C   0  0  0  0  0  0  0  0  0  0  0  0
  141.4140   80.2970  221.6670 C   0  0  0  0  0  0  0  0  0  0  0  0
  142.5680   80.8570  222.1730 C   0  0  0  0  0  0  0  0  0  0  0  0
  142.9720   80.5780  223.4620 C   0  0  0  0  0  0  0  0  0  0  0  0
  142.1800   79.7250  224.2090 C   0  0  0  0  0  0  0  0  0  0  0  0
  141.0310   79.1710  223.6920 C   0  0  0  0  0  0  0  0  0  0  0  0
  140.2440   71.3900  223.6230 C   0  0  0  0  0  0  0  0  0  0  0  0
  139.5390   70.2050  223.6460 C   0  0  0  0  0  0  0  0  0  0  0  0
  139.3220   69.4930  224.7960 C   0  0  0  0  0  0  0  0  0  0  0  0
  139.8400   70.0000  225.9710 C   0  0  0  0  0  0  0  0  0  0  0  0
  139.6540   69.3280  227.1690 C   0  0  0  0  0  0  0  0  0  0  0  0
  140.1660   69.8290  228.3380 C   0  0  0  0  0  0  0  0  0  0  0  0
  140.8820   71.0250  228.3300 C   0  0  0  0  0  0  0  0  0  0  0  0
  141.0480   71.6720  227.1180 C   0  0  0  0  0  0  0  0  0  0  0  0
  140.5430   71.1880  225.9320 C   0  0  0  0  0  0  0  0  0  0  0  0
  140.7420   71.8720  224.7750 N   0  0  0  0  0  0  0  0  0  0  0  0
  139.1330   73.7430  222.7610 H   0  0  0  0  0  0  0  0  0  0  0  0
  140.3166   73.0752  220.0482 H   0  0  0  0  0  0  0  0  0  0  0  0
  139.0393   74.3160  220.3830 H   0  0  0  0  0  0  0  0  0  0  0  0
  141.5585   78.0129  220.6182 H   0  0  0  0  0  0  0  0  0  0  0  0
  140.8171   77.1136  219.2754 H   0  0  0  0  0  0  0  0  0  0  0  0
  139.3783   78.7507  219.5823 H   0  0  0  0  0  0  0  0  0  0  0  0
  137.2979   77.6707  220.9237 H   0  0  0  0  0  0  0  0  0  0  0  0
  138.1152   76.2693  220.6332 H   0  0  0  0  0  0  0  0  0  0  0  0
  138.4749   77.4630  223.4119 H   0  0  0  0  0  0  0  0  0  0  0  0
  140.8209   76.8230  223.1945 H   0  0  0  0  0  0  0  0  0  0  0  0
  139.6016   75.5340  222.9092 H   0  0  0  0  0  0  0  0  0  0  0  0
  138.7688   79.7276  222.0977 H   0  0  0  0  0  0  0  0  0  0  0  0
  141.1243   80.5439  220.6350 H   0  0  0  0  0  0  0  0  0  0  0  0
  143.1700   81.5302  221.5450 H   0  0  0  0  0  0  0  0  0  0  0  0
  143.8896   81.0174  223.8802 H   0  0  0  0  0  0  0  0  0  0  0  0
  142.4754   79.4836  225.2407 H   0  0  0  0  0  0  0  0  0  0  0  0
  140.4321   78.4959  224.3210 H   0  0  0  0  0  0  0  0  0  0  0  0
  139.1337   69.8149  222.7007 H   0  0  0  0  0  0  0  0  0  0  0  0
  138.7550   68.5505  224.7837 H   0  0  0  0  0  0  0  0  0  0  0  0
  139.0902   68.3836  227.1819 H   0  0  0  0  0  0  0  0  0  0  0  0
  140.0117   69.2869  229.2826 H   0  0  0  0  0  0  0  0  0  0  0  0
  141.3017   71.4413  229.2576 H   0  0  0  0  0  0  0  0  0  0  0  0
  141.6099   72.6175  227.1013 H   0  0  0  0  0  0  0  0  0  0  0  0
  1  2  2  0
  2  3  1  0
  3  4  1  0
  4  5  1  0
  5  6  2  0
  5  7  1  0
  7  8  1  0
  8  9  1  0
  9 10  1  0
 10 11  1  0
 11 12  1  0
 11 13  1  0
 13 14  1  0
 14 15  2  0
 15 16  1  0
 16 17  2  0
 17 18  1  0
 18 19  2  0
  2 20  1  0
 20 21  2  0
 21 22  1  0
 22 23  2  0
 23 24  1  0
 24 25  2  0
 25 26  1  0
 26 27  2  0
 27 28  1  0
 28 29  2  0
 12  7  1  0
 19 14  1  0
 29 20  1  0
 13  9  1  0
 28 23  1  0
  3 30  1  0
  4 31  1  0
  4 32  1  0
  8 33  1  0
  8 34  1  0
  9 35  1  6
 10 36  1  0
 10 37  1  0
 11 38  1  1
 12 39  1  0
 12 40  1  0
 13 41  1  6
 15 42  1  0
 16 43  1  0
 17 44  1  0
 18 45  1  0
 19 46  1  0
 21 47  1  0
 22 48  1  0
 24 49  1  0
 25 50  1  0
 26 51  1  0
 27 52  1  0
M  END
>  <smiles>  (91) 
O=C(NCC(=O)N1C[C@H]2C[C@@H](C1)C2c1ccccc1)c1ccc2ccccc2n1

>  <score_type>  (91) 
oracle

>  <origin>  (91) 
autodockgpu

>  <m_score__min__energy>  (91) 
-9.1899999999999995

>  <m_primary>  (91) 
energy

>  <rmsd>  (91) 
2.8126477615377636

>  <m_score__min__rmsd>  (91) 
2.8126477615377636

>  <meeko>  (91) 
{"free_energy": -9.1, "intermolecular_energy": -10.59, "internal_energy": -1.33, "cluster_size": 35, "cluster_id": 1, "rank_in_cluster": 12}

>  <energy>  (91) 
-9.11

>  <cluster_rmsd>  (91) 
0.84

>  <cluster>  (91) 
2

$$$$

     RDKit          3D

 52 56  0  0  1  0  0  0  0  0999 V2000
  140.8380   73.3710  222.2410 O   0  0  0  0  0  0  0  0  0  0  0  0
  139.7910   72.8420  222.7220 C   0  0  0  0  0  0  0  0  0  0  0  0
  138.5470   73.4300  222.3250 N   0  0  0  0  0  0  0  0  0  0  0  0
  138.6130   74.5630  221.4190 C   0  0  0  0  0  0  0  0  0  0  0  0
  138.6630   75.8540  222.1610 C   0  0  0  0  0  0  0  0  0  0  0  0
  137.9200   76.1380  223.1110 O   0  0  0  0  0  0  0  0  0  0  0  0
  139.6230   76.8040  221.7410 N   0  0  0  0  0  0  0  0  0  0  0  0
  141.0430   76.6970  222.0510 C   0  0  0  0  0  0  0  0  0  0  0  0
  141.7850   77.0890  220.8250 C   0  0  1  0  0  0  0  0  0  0  0  0
  140.9050   76.9170  219.5820 C   0  0  0  0  0  0  0  0  0  0  0  0
  140.3270   78.2930  219.9680 C   0  0  1  0  0  0  0  0  0  0  0  0
  139.2450   77.9830  220.9490 C   0  0  0  0  0  0  0  0  0  0  0  0
  141.6710   78.5800  220.5410 C   0  0  1  0  0  0  0  0  0  0  0  0
  141.7780   79.4780  221.6910 C   0  0  0  0  0  0  0  0  0  0  0  0
  142.5950   79.2790  222.7830 C   0  0  0  0  0  0  0  0  0  0  0  0
  142.6700   80.1540  223.8460 C   0  0  0  0  0  0  0  0  0  0  0  0
  141.9040   81.3020  223.8600 C   0  0  0  0  0  0  0  0  0  0  0  0
  141.0730   81.5300  222.7780 C   0  0  0  0  0  0  0  0  0  0  0  0
  141.0080   80.6470  221.7230 C   0  0  0  0  0  0  0  0  0  0  0  0
  139.8390   71.7020  223.6270 C   0  0  0  0  0  0  0  0  0  0  0  0
  139.2440   70.5290  223.2090 C   0  0  0  0  0  0  0  0  0  0  0  0
  139.2280   69.3930  223.9750 C   0  0  0  0  0  0  0  0  0  0  0  0
  139.8370   69.4450  225.2130 C   0  0  0  0  0  0  0  0  0  0  0  0
  139.8530   68.3300  226.0350 C   0  0  0  0  0  0  0  0  0  0  0  0
  140.4560   68.3780  227.2650 C   0  0  0  0  0  0  0  0  0  0  0  0
  141.0610   69.5560  227.7000 C   0  0  0  0  0  0  0  0  0  0  0  0
  141.0260   70.6510  226.8550 C   0  0  0  0  0  0  0  0  0  0  0  0
  140.4270   70.6260  225.6160 C   0  0  0  0  0  0  0  0  0  0  0  0
  140.4270   71.7370  224.8340 N   0  0  0  0  0  0  0  0  0  0  0  0
  137.6420   73.0440  222.6840 H   0  0  0  0  0  0  0  0  0  0  0  0
  139.5168   74.4722  220.7986 H   0  0  0  0  0  0  0  0  0  0  0  0
  137.7072   74.5588  220.7949 H   0  0  0  0  0  0  0  0  0  0  0  0
  141.3006   77.3718  222.8807 H   0  0  0  0  0  0  0  0  0  0  0  0
  141.3024   75.6726  222.3566 H   0  0  0  0  0  0  0  0  0  0  0  0
  142.7503   76.5818  220.9699 H   0  0  0  0  0  0  0  0  0  0  0  0
  141.4466   76.8882  218.6250 H   0  0  0  0  0  0  0  0  0  0  0  0
  140.2781   76.0299  219.4085 H   0  0  0  0  0  0  0  0  0  0  0  0
  139.8680   79.0464  219.3109 H   0  0  0  0  0  0  0  0  0  0  0  0
  139.1002   78.8434  221.6189 H   0  0  0  0  0  0  0  0  0  0  0  0
  138.3093   77.7765  220.4089 H   0  0  0  0  0  0  0  0  0  0  0  0
  142.4204   79.1347  219.9572 H   0  0  0  0  0  0  0  0  0  0  0  0
  143.2203   78.3743  222.8078 H   0  0  0  0  0  0  0  0  0  0  0  0
  143.3440   79.9359  224.6875 H   0  0  0  0  0  0  0  0  0  0  0  0
  141.9526   82.0097  224.7007 H   0  0  0  0  0  0  0  0  0  0  0  0
  140.4503   82.4366  222.7597 H   0  0  0  0  0  0  0  0  0  0  0  0
  140.3328   80.8661  220.8827 H   0  0  0  0  0  0  0  0  0  0  0  0
  138.7628   70.5050  222.2201 H   0  0  0  0  0  0  0  0  0  0  0  0
  138.7466   68.4714  223.6160 H   0  0  0  0  0  0  0  0  0  0  0  0
  139.3773   67.3974  225.6974 H   0  0  0  0  0  0  0  0  0  0  0  0
  140.4625   67.4864  227.9092 H   0  0  0  0  0  0  0  0  0  0  0  0
  141.5505   69.6132  228.6834 H   0  0  0  0  0  0  0  0  0  0  0  0
  141.4994   71.5860  227.1892 H   0  0  0  0  0  0  0  0  0  0  0  0
  1  2  2  0
  2  3  1  0
  3  4  1  0
  4  5  1  0
  5  6  2  0
  5  7  1  0
  7  8  1  0
  8  9  1  0
  9 10  1  0
 10 11  1  0
 11 12  1  0
 11 13  1  0
 13 14  1  0
 14 15  2  0
 15 16  1  0
 16 17  2  0
 17 18  1  0
 18 19  2  0
  2 20  1  0
 20 21  2  0
 21 22  1  0
 22 23  2  0
 23 24  1  0
 24 25  2  0
 25 26  1  0
 26 27  2  0
 27 28  1  0
 28 29  2  0
 12  7  1  0
 19 14  1  0
 29 20  1  0
 13  9  1  0
 28 23  1  0
  3 30  1  0
  4 31  1  0
  4 32  1  0
  8 33  1  0
  8 34  1  0
  9 35  1  6
 10 36  1  0
 10 37  1  0
 11 38  1  6
 12 39  1  0
 12 40  1  0
 13 41  1  6
 15 42  1  0
 16 43  1  0
 17 44  1  0
 18 45  1  0
 19 46  1  0
 21 47  1  0
 22 48  1  0
 24 49  1  0
 25 50  1  0
 26 51  1  0
 27 52  1  0
M  END
>  <smiles>  (92) 
O=C(NCC(=O)N1C[C@H]2C[C@@H](C1)C2c1ccccc1)c1ccc2ccccc2n1

>  <score_type>  (92) 
oracle

>  <origin>  (92) 
autodockgpu

>  <m_score__min__energy>  (92) 
-9.1899999999999995

>  <m_primary>  (92) 
energy

>  <rmsd>  (92) 
2.2900759856197217

>  <m_score__min__rmsd>  (92) 
2.2900759856197217

>  <meeko>  (92) 
{"free_energy": -8.91, "intermolecular_energy": -10.4, "internal_energy": -1.39, "cluster_size": 35, "cluster_id": 1, "rank_in_cluster": 34}

>  <energy>  (92) 
-9.09

>  <cluster_rmsd>  (92) 
0.86

>  <cluster>  (92) 
2

$$$$

     RDKit          3D

 52 56  0  0  1  0  0  0  0  0999 V2000
  139.4380   71.5770  221.1850 O   0  0  0  0  0  0  0  0  0  0  0  0
  140.1600   71.9590  222.1530 C   0  0  0  0  0  0  0  0  0  0  0  0
  141.0840   73.0160  221.8750 N   0  0  0  0  0  0  0  0  0  0  0  0
  141.0980   73.5390  220.5200 C   0  0  0  0  0  0  0  0  0  0  0  0
  141.8170   74.8410  220.4440 C   0  0  0  0  0  0  0  0  0  0  0  0
  142.9530   74.9800  219.9670 O   0  0  0  0  0  0  0  0  0  0  0  0
  141.1500   75.9790  220.9530 N   0  0  0  0  0  0  0  0  0  0  0  0
  140.9200   77.1880  220.1720 C   0  0  0  0  0  0  0  0  0  0  0  0
  139.5420   77.6480  220.4800 C   0  0  1  0  0  0  0  0  0  0  0  0
  138.6890   76.4870  221.0040 C   0  0  0  0  0  0  0  0  0  0  0  0
  139.3550   76.7880  222.3610 C   0  0  1  0  0  0  0  0  0  0  0  0
  140.6340   76.0190  222.3290 C   0  0  0  0  0  0  0  0  0  0  0  0
  139.4270   78.2010  221.8940 C   0  0  1  0  0  0  0  0  0  0  0  0
  140.5230   79.0500  222.3580 C   0  0  0  0  0  0  0  0  0  0  0  0
  141.2010   78.8970  223.5480 C   0  0  0  0  0  0  0  0  0  0  0  0
  142.2340   79.7190  223.9460 C   0  0  0  0  0  0  0  0  0  0  0  0
  142.6430   80.7640  223.1430 C   0  0  0  0  0  0  0  0  0  0  0  0
  141.9820   80.9450  221.9420 C   0  0  0  0  0  0  0  0  0  0  0  0
  140.9510   80.1160  221.5570 C   0  0  0  0  0  0  0  0  0  0  0  0
  140.0640   71.3630  223.4790 C   0  0  0  0  0  0  0  0  0  0  0  0
  139.3320   70.2010  223.6070 C   0  0  0  0  0  0  0  0  0  0  0  0
  139.1730   69.5520  224.8030 C   0  0  0  0  0  0  0  0  0  0  0  0
  139.7790   70.1010  225.9150 C   0  0  0  0  0  0  0  0  0  0  0  0
  139.6550   69.4920  227.1550 C   0  0  0  0  0  0  0  0  0  0  0  0
  140.2550   70.0350  228.2620 C   0  0  0  0  0  0  0  0  0  0  0  0
  140.9980   71.2090  228.1480 C   0  0  0  0  0  0  0  0  0  0  0  0
  141.1010   71.7910  226.8970 C   0  0  0  0  0  0  0  0  0  0  0  0
  140.5080   71.2640  225.7710 C   0  0  0  0  0  0  0  0  0  0  0  0
  140.6480   71.8850  224.5710 N   0  0  0  0  0  0  0  0  0  0  0  0
  141.7110   73.3820  222.6290 H   0  0  0  0  0  0  0  0  0  0  0  0
  141.6007   72.8144  219.8625 H   0  0  0  0  0  0  0  0  0  0  0  0
  140.0574   73.7007  220.2021 H   0  0  0  0  0  0  0  0  0  0  0  0
  141.6485   77.9631  220.4522 H   0  0  0  0  0  0  0  0  0  0  0  0
  141.0362   76.9887  219.0965 H   0  0  0  0  0  0  0  0  0  0  0  0
  139.2933   78.2396  219.5866 H   0  0  0  0  0  0  0  0  0  0  0  0
  137.6019   76.6516  220.9691 H   0  0  0  0  0  0  0  0  0  0  0  0
  138.6887   75.4876  220.5444 H   0  0  0  0  0  0  0  0  0  0  0  0
  138.9625   76.5906  223.3694 H   0  0  0  0  0  0  0  0  0  0  0  0
  141.3716   76.5076  222.9827 H   0  0  0  0  0  0  0  0  0  0  0  0
  140.4527   74.9929  222.6816 H   0  0  0  0  0  0  0  0  0  0  0  0
  138.6553   78.9269  222.1898 H   0  0  0  0  0  0  0  0  0  0  0  0
  140.9022   78.0755  224.2158 H   0  0  0  0  0  0  0  0  0  0  0  0
  142.7348   79.5408  224.9090 H   0  0  0  0  0  0  0  0  0  0  0  0
  143.4649   81.4288  223.4472 H   0  0  0  0  0  0  0  0  0  0  0  0
  142.2859   81.7688  221.2795 H   0  0  0  0  0  0  0  0  0  0  0  0
  140.4505   80.2964  220.5942 H   0  0  0  0  0  0  0  0  0  0  0  0
  138.8556   69.7773  222.7106 H   0  0  0  0  0  0  0  0  0  0  0  0
  138.5833   68.6262  224.8746 H   0  0  0  0  0  0  0  0  0  0  0  0
  139.0702   68.5653  227.2512 H   0  0  0  0  0  0  0  0  0  0  0  0
  140.1500   69.5439  229.2406 H   0  0  0  0  0  0  0  0  0  0  0  0
  141.4869   71.6585  229.0249 H   0  0  0  0  0  0  0  0  0  0  0  0
  141.6840   72.7184  226.7969 H   0  0  0  0  0  0  0  0  0  0  0  0
  1  2  2  0
  2  3  1  0
  3  4  1  0
  4  5  1  0
  5  6  2  0
  5  7  1  0
  7  8  1  0
  8  9  1  0
  9 10  1  0
 10 11  1  0
 11 12  1  0
 11 13  1  0
 13 14  1  0
 14 15  2  0
 15 16  1  0
 16 17  2  0
 17 18  1  0
 18 19  2  0
  2 20  1  0
 20 21  2  0
 21 22  1  0
 22 23  2  0
 23 24  1  0
 24 25  2  0
 25 26  1  0
 26 27  2  0
 27 28  1  0
 28 29  2  0
 12  7  1  0
 19 14  1  0
 29 20  1  0
 13  9  1  0
 28 23  1  0
  3 30  1  0
  4 31  1  0
  4 32  1  0
  8 33  1  0
  8 34  1  0
  9 35  1  6
 10 36  1  0
 10 37  1  0
 11 38  1  1
 12 39  1  0
 12 40  1  0
 13 41  1  6
 15 42  1  0
 16 43  1  0
 17 44  1  0
 18 45  1  0
 19 46  1  0
 21 47  1  0
 22 48  1  0
 24 49  1  0
 25 50  1  0
 26 51  1  0
 27 52  1  0
M  END
>  <smiles>  (93) 
O=C(NCC(=O)N1C[C@H]2C[C@@H](C1)C2c1ccccc1)c1ccc2ccccc2n1

>  <score_type>  (93) 
oracle

>  <origin>  (93) 
autodockgpu

>  <m_score__min__energy>  (93) 
-9.1899999999999995

>  <m_primary>  (93) 
energy

>  <rmsd>  (93) 
2.8856286128791497

>  <m_score__min__rmsd>  (93) 
2.8856286128791497

>  <meeko>  (93) 
{"free_energy": -8.35, "intermolecular_energy": -9.84, "internal_energy": -1.55, "cluster_size": 35, "cluster_id": 1, "rank_in_cluster": 35}

>  <energy>  (93) 
-9.08

>  <cluster_rmsd>  (93) 
0.85

>  <cluster>  (93) 
2

$$$$

     RDKit          3D

 52 56  0  0  1  0  0  0  0  0999 V2000
  141.0390   73.1790  222.0750 O   0  0  0  0  0  0  0  0  0  0  0  0
  139.9940   72.8070  222.6880 C   0  0  0  0  0  0  0  0  0  0  0  0
  138.7830   73.4910  222.3460 N   0  0  0  0  0  0  0  0  0  0  0  0
  138.8770   74.5320  221.3380 C   0  0  0  0  0  0  0  0  0  0  0  0
  138.7160   75.8870  221.9340 C   0  0  0  0  0  0  0  0  0  0  0  0
  137.8180   76.1930  222.7310 O   0  0  0  0  0  0  0  0  0  0  0  0
  139.6550   76.8750  221.5560 N   0  0  0  0  0  0  0  0  0  0  0  0
  141.0790   76.7800  221.8520 C   0  0  0  0  0  0  0  0  0  0  0  0
  141.8050   77.2480  220.6430 C   0  0  1  0  0  0  0  0  0  0  0  0
  140.9190   77.1220  219.3980 C   0  0  0  0  0  0  0  0  0  0  0  0
  140.3180   78.4650  219.8570 C   0  0  1  0  0  0  0  0  0  0  0  0
  139.2500   78.0850  220.8280 C   0  0  0  0  0  0  0  0  0  0  0  0
  141.6610   78.7490  220.4350 C   0  0  1  0  0  0  0  0  0  0  0  0
  141.7600   79.5890  221.6280 C   0  0  0  0  0  0  0  0  0  0  0  0
  142.6170   79.3720  222.6870 C   0  0  0  0  0  0  0  0  0  0  0  0
  142.6810   80.1930  223.7930 C   0  0  0  0  0  0  0  0  0  0  0  0
  141.8650   81.3000  223.8890 C   0  0  0  0  0  0  0  0  0  0  0  0
  140.9930   81.5450  222.8430 C   0  0  0  0  0  0  0  0  0  0  0  0
  140.9380   80.7170  221.7440 C   0  0  0  0  0  0  0  0  0  0  0  0
  140.0120   71.7470  223.6870 C   0  0  0  0  0  0  0  0  0  0  0  0
  139.4610   70.5310  223.3380 C   0  0  0  0  0  0  0  0  0  0  0  0
  139.4220   69.4620  224.1940 C   0  0  0  0  0  0  0  0  0  0  0  0
  139.9620   69.6300  225.4540 C   0  0  0  0  0  0  0  0  0  0  0  0
  139.9520   68.5860  226.3670 C   0  0  0  0  0  0  0  0  0  0  0  0
  140.4870   68.7490  227.6180 C   0  0  0  0  0  0  0  0  0  0  0  0
  141.0470   69.9710  227.9850 C   0  0  0  0  0  0  0  0  0  0  0  0
  141.0400   70.9920  227.0500 C   0  0  0  0  0  0  0  0  0  0  0  0
  140.5090   70.8520  225.7880 C   0  0  0  0  0  0  0  0  0  0  0  0
  140.5330   71.8950  224.9160 N   0  0  0  0  0  0  0  0  0  0  0  0
  137.8820   73.2360  222.8130 H   0  0  0  0  0  0  0  0  0  0  0  0
  139.8618   74.4704  220.8517 H   0  0  0  0  0  0  0  0  0  0  0  0
  138.0686   74.3786  220.6079 H   0  0  0  0  0  0  0  0  0  0  0  0
  141.3293   77.4168  222.7133 H   0  0  0  0  0  0  0  0  0  0  0  0
  141.3600   75.7467  222.1038 H   0  0  0  0  0  0  0  0  0  0  0  0
  142.7808   76.7530  220.7564 H   0  0  0  0  0  0  0  0  0  0  0  0
  141.4540   77.1522  218.4373 H   0  0  0  0  0  0  0  0  0  0  0  0
  140.3079   76.2329  219.1837 H   0  0  0  0  0  0  0  0  0  0  0  0
  139.8397   79.2415  219.2419 H   0  0  0  0  0  0  0  0  0  0  0  0
  139.0947   78.9073  221.5420 H   0  0  0  0  0  0  0  0  0  0  0  0
  138.3143   77.8886  220.2841 H   0  0  0  0  0  0  0  0  0  0  0  0
  142.3949   79.3469  219.8748 H   0  0  0  0  0  0  0  0  0  0  0  0
  143.2842   78.4984  222.6470 H   0  0  0  0  0  0  0  0  0  0  0  0
  143.3877   79.9631  224.6040 H   0  0  0  0  0  0  0  0  0  0  0  0
  141.9057   81.9641  224.7650 H   0  0  0  0  0  0  0  0  0  0  0  0
  140.3289   82.4206  222.8904 H   0  0  0  0  0  0  0  0  0  0  0  0
  140.2291   80.9479  220.9352 H   0  0  0  0  0  0  0  0  0  0  0  0
  139.0353   70.4151  222.3304 H   0  0  0  0  0  0  0  0  0  0  0  0
  138.9764   68.5038  223.8885 H   0  0  0  0  0  0  0  0  0  0  0  0
  139.5108   67.6188  226.0845 H   0  0  0  0  0  0  0  0  0  0  0  0
  140.4744   67.9138  228.3337 H   0  0  0  0  0  0  0  0  0  0  0  0
  141.4805   70.1196  228.9850 H   0  0  0  0  0  0  0  0  0  0  0  0
  141.4796   71.9610  227.3290 H   0  0  0  0  0  0  0  0  0  0  0  0
  1  2  2  0
  2  3  1  0
  3  4  1  0
  4  5  1  0
  5  6  2  0
  5  7  1  0
  7  8  1  0
  8  9  1  0
  9 10  1  0
 10 11  1  0
 11 12  1  0
 11 13  1  0
 13 14  1  0
 14 15  2  0
 15 16  1  0
 16 17  2  0
 17 18  1  0
 18 19  2  0
  2 20  1  0
 20 21  2  0
 21 22  1  0
 22 23  2  0
 23 24  1  0
 24 25  2  0
 25 26  1  0
 26 27  2  0
 27 28  1  0
 28 29  2  0
 12  7  1  0
 19 14  1  0
 29 20  1  0
 13  9  1  0
 28 23  1  0
  3 30  1  0
  4 31  1  0
  4 32  1  0
  8 33  1  0
  8 34  1  0
  9 35  1  6
 10 36  1  0
 10 37  1  0
 11 38  1  6
 12 39  1  0
 12 40  1  0
 13 41  1  6
 15 42  1  0
 16 43  1  0
 17 44  1  0
 18 45  1  0
 19 46  1  0
 21 47  1  0
 22 48  1  0
 24 49  1  0
 25 50  1  0
 26 51  1  0
 27 52  1  0
M  END
>  <smiles>  (94) 
O=C(NCC(=O)N1C[C@H]2C[C@@H](C1)C2c1ccccc1)c1ccc2ccccc2n1

>  <score_type>  (94) 
oracle

>  <origin>  (94) 
autodockgpu

>  <m_score__min__energy>  (94) 
-9.1899999999999995

>  <m_primary>  (94) 
energy

>  <rmsd>  (94) 
2.2642608156795663

>  <m_score__min__rmsd>  (94) 
2.2642608156795663

>  <meeko>  (94) 
{"free_energy": -9.13, "intermolecular_energy": -10.63, "internal_energy": -1.37, "cluster_size": 35, "cluster_id": 1, "rank_in_cluster": 8}

>  <energy>  (94) 
-9.06

>  <cluster_rmsd>  (94) 
0.78

>  <cluster>  (94) 
2

$$$$

     RDKit          3D

 52 56  0  0  1  0  0  0  0  0999 V2000
  139.5680   73.4150  222.3810 O   0  0  0  0  0  0  0  0  0  0  0  0
  140.3720   72.4540  222.5680 C   0  0  0  0  0  0  0  0  0  0  0  0
  141.3890   72.2780  221.5750 N   0  0  0  0  0  0  0  0  0  0  0  0
  141.3930   73.2130  220.4640 C   0  0  0  0  0  0  0  0  0  0  0  0
  142.3470   74.3330  220.6950 C   0  0  0  0  0  0  0  0  0  0  0  0
  143.5720   74.1880  220.8180 O   0  0  0  0  0  0  0  0  0  0  0  0
  141.8050   75.6370  220.7790 N   0  0  0  0  0  0  0  0  0  0  0  0
  142.4020   76.7950  220.1260 C   0  0  0  0  0  0  0  0  0  0  0  0
  141.2860   77.5950  219.5580 C   0  0  1  0  0  0  0  0  0  0  0  0
  140.0450   76.7200  219.3490 C   0  0  0  0  0  0  0  0  0  0  0  0
  139.7850   76.9670  220.8480 C   0  0  1  0  0  0  0  0  0  0  0  0
  140.5820   75.9150  221.5450 C   0  0  0  0  0  0  0  0  0  0  0  0
  140.4640   78.2770  220.6430 C   0  0  1  0  0  0  0  0  0  0  0  0
  141.2060   78.8760  221.7510 C   0  0  0  0  0  0  0  0  0  0  0  0
  141.0970   78.5090  223.0750 C   0  0  0  0  0  0  0  0  0  0  0  0
  141.8200   79.0980  224.0900 C   0  0  0  0  0  0  0  0  0  0  0  0
  142.7120   80.1130  223.8130 C   0  0  0  0  0  0  0  0  0  0  0  0
  142.8440   80.5050  222.4930 C   0  0  0  0  0  0  0  0  0  0  0  0
  142.1150   79.9090  221.4890 C   0  0  0  0  0  0  0  0  0  0  0  0
  140.2780   71.5720  223.7240 C   0  0  0  0  0  0  0  0  0  0  0  0
  139.6820   70.3420  223.5420 C   0  0  0  0  0  0  0  0  0  0  0  0
  139.5390   69.4310  224.5560 C   0  0  0  0  0  0  0  0  0  0  0  0
  140.0160   69.7790  225.8030 C   0  0  0  0  0  0  0  0  0  0  0  0
  139.9000   68.9020  226.8700 C   0  0  0  0  0  0  0  0  0  0  0  0
  140.3730   69.2440  228.1100 C   0  0  0  0  0  0  0  0  0  0  0  0
  140.9770   70.4850  228.3090 C   0  0  0  0  0  0  0  0  0  0  0  0
  141.0770   71.3370  227.2230 C   0  0  0  0  0  0  0  0  0  0  0  0
  140.6090   71.0150  225.9690 C   0  0  0  0  0  0  0  0  0  0  0  0
  140.7380   71.8980  224.9440 N   0  0  0  0  0  0  0  0  0  0  0  0
  142.0870   71.5040  221.6660 H   0  0  0  0  0  0  0  0  0  0  0  0
  141.6850   72.6782  219.5482 H   0  0  0  0  0  0  0  0  0  0  0  0
  140.3823   73.6359  220.3660 H   0  0  0  0  0  0  0  0  0  0  0  0
  142.9625   77.3947  220.8583 H   0  0  0  0  0  0  0  0  0  0  0  0
  143.1035   76.4837  219.3379 H   0  0  0  0  0  0  0  0  0  0  0  0
  141.7888   78.1506  218.7527 H   0  0  0  0  0  0  0  0  0  0  0  0
  139.2881   77.1358  218.6677 H   0  0  0  0  0  0  0  0  0  0  0  0
  140.0877   75.7144  218.9052 H   0  0  0  0  0  0  0  0  0  0  0  0
  138.8233   76.9551  221.3819 H   0  0  0  0  0  0  0  0  0  0  0  0
  140.8521   76.2668  222.5516 H   0  0  0  0  0  0  0  0  0  0  0  0
  139.9835   74.9956  221.6254 H   0  0  0  0  0  0  0  0  0  0  0  0
  139.8761   79.1888  220.4612 H   0  0  0  0  0  0  0  0  0  0  0  0
  140.3954   77.7029  223.3357 H   0  0  0  0  0  0  0  0  0  0  0  0
  141.6849   78.7566  225.1269 H   0  0  0  0  0  0  0  0  0  0  0  0
  143.2965   80.5928  224.6119 H   0  0  0  0  0  0  0  0  0  0  0  0
  143.5478   81.3116  222.2398 H   0  0  0  0  0  0  0  0  0  0  0  0
  142.2499   80.2532  220.4530 H   0  0  0  0  0  0  0  0  0  0  0  0
  139.3058   70.0811  222.5418 H   0  0  0  0  0  0  0  0  0  0  0  0
  139.0604   68.4560  224.3816 H   0  0  0  0  0  0  0  0  0  0  0  0
  139.4236   67.9219  226.7201 H   0  0  0  0  0  0  0  0  0  0  0  0
  140.2761   68.5391  228.9489 H   0  0  0  0  0  0  0  0  0  0  0  0
  141.3616   70.7773  229.2973 H   0  0  0  0  0  0  0  0  0  0  0  0
  141.5530   72.3179  227.3687 H   0  0  0  0  0  0  0  0  0  0  0  0
  1  2  2  0
  2  3  1  0
  3  4  1  0
  4  5  1  0
  5  6  2  0
  5  7  1  0
  7  8  1  0
  8  9  1  0
  9 10  1  0
 10 11  1  0
 11 12  1  0
 11 13  1  0
 13 14  1  0
 14 15  2  0
 15 16  1  0
 16 17  2  0
 17 18  1  0
 18 19  2  0
  2 20  1  0
 20 21  2  0
 21 22  1  0
 22 23  2  0
 23 24  1  0
 24 25  2  0
 25 26  1  0
 26 27  2  0
 27 28  1  0
 28 29  2  0
 12  7  1  0
 19 14  1  0
 29 20  1  0
 13  9  1  0
 28 23  1  0
  3 30  1  0
  4 31  1  0
  4 32  1  0
  8 33  1  0
  8 34  1  0
  9 35  1  6
 10 36  1  0
 10 37  1  0
 11 38  1  6
 12 39  1  0
 12 40  1  0
 13 41  1  6
 15 42  1  0
 16 43  1  0
 17 44  1  0
 18 45  1  0
 19 46  1  0
 21 47  1  0
 22 48  1  0
 24 49  1  0
 25 50  1  0
 26 51  1  0
 27 52  1  0
M  END
>  <smiles>  (95) 
O=C(NCC(=O)N1C[C@H]2C[C@@H](C1)C2c1ccccc1)c1ccc2ccccc2n1

>  <score_type>  (95) 
oracle

>  <origin>  (95) 
autodockgpu

>  <m_score__min__energy>  (95) 
-9.1899999999999995

>  <m_primary>  (95) 
energy

>  <rmsd>  (95) 
2.5089561888968657

>  <m_score__min__rmsd>  (95) 
2.5089561888968657

>  <meeko>  (95) 
{"free_energy": -9.17, "intermolecular_energy": -10.66, "internal_energy": -1.36, "cluster_size": 35, "cluster_id": 1, "rank_in_cluster": 3}

>  <energy>  (95) 
-9.03

>  <cluster_rmsd>  (95) 
0.82

>  <cluster>  (95) 
2

$$$$

     RDKit          3D

 52 56  0  0  1  0  0  0  0  0999 V2000
  141.0260   73.2420  222.1340 O   0  0  0  0  0  0  0  0  0  0  0  0
  139.9790   72.8280  222.7150 C   0  0  0  0  0  0  0  0  0  0  0  0
  138.7550   73.4760  222.3510 N   0  0  0  0  0  0  0  0  0  0  0  0
  138.8400   74.5330  221.3590 C   0  0  0  0  0  0  0  0  0  0  0  0
  138.7130   75.8790  221.9820 C   0  0  0  0  0  0  0  0  0  0  0  0
  137.8450   76.1810  222.8130 O   0  0  0  0  0  0  0  0  0  0  0  0
  139.6510   76.8630  221.5900 N   0  0  0  0  0  0  0  0  0  0  0  0
  141.0650   76.8040  221.9360 C   0  0  0  0  0  0  0  0  0  0  0  0
  141.8240   77.2270  220.7310 C   0  0  1  0  0  0  0  0  0  0  0  0
  140.9820   77.0310  219.4660 C   0  0  0  0  0  0  0  0  0  0  0  0
  140.3480   78.3840  219.8420 C   0  0  1  0  0  0  0  0  0  0  0  0
  139.2530   78.0330  220.7940 C   0  0  0  0  0  0  0  0  0  0  0  0
  141.6660   78.7150  220.4510 C   0  0  1  0  0  0  0  0  0  0  0  0
  141.7140   79.6090  221.6070 C   0  0  0  0  0  0  0  0  0  0  0  0
  140.8070   80.6120  221.8770 C   0  0  0  0  0  0  0  0  0  0  0  0
  140.8860   81.4310  222.9820 C   0  0  0  0  0  0  0  0  0  0  0  0
  141.9100   81.2770  223.8930 C   0  0  0  0  0  0  0  0  0  0  0  0
  142.8370   80.2800  223.6510 C   0  0  0  0  0  0  0  0  0  0  0  0
  142.7470   79.4680  222.5420 C   0  0  0  0  0  0  0  0  0  0  0  0
  140.0070   71.7550  223.7000 C   0  0  0  0  0  0  0  0  0  0  0  0
  139.4650   70.5390  223.3370 C   0  0  0  0  0  0  0  0  0  0  0  0
  139.4360   69.4590  224.1800 C   0  0  0  0  0  0  0  0  0  0  0  0
  139.9770   69.6150  225.4410 C   0  0  0  0  0  0  0  0  0  0  0  0
  139.9770   68.5600  226.3400 C   0  0  0  0  0  0  0  0  0  0  0  0
  140.5120   68.7110  227.5930 C   0  0  0  0  0  0  0  0  0  0  0  0
  141.0630   69.9340  227.9740 C   0  0  0  0  0  0  0  0  0  0  0  0
  141.0460   70.9670  227.0530 C   0  0  0  0  0  0  0  0  0  0  0  0
  140.5150   70.8380  225.7890 C   0  0  0  0  0  0  0  0  0  0  0  0
  140.5290   71.8910  224.9310 N   0  0  0  0  0  0  0  0  0  0  0  0
  137.8510   73.1840  222.7920 H   0  0  0  0  0  0  0  0  0  0  0  0
  139.8119   74.4661  220.8481 H   0  0  0  0  0  0  0  0  0  0  0  0
  138.0124   74.4038  220.6460 H   0  0  0  0  0  0  0  0  0  0  0  0
  141.2776   77.4836  222.7744 H   0  0  0  0  0  0  0  0  0  0  0  0
  141.3520   75.7879  222.2446 H   0  0  0  0  0  0  0  0  0  0  0  0
  142.8023   76.7524  220.8977 H   0  0  0  0  0  0  0  0  0  0  0  0
  141.5481   77.0250  218.5229 H   0  0  0  0  0  0  0  0  0  0  0  0
  140.3903   76.1239  219.2736 H   0  0  0  0  0  0  0  0  0  0  0  0
  139.8805   79.1238  219.1755 H   0  0  0  0  0  0  0  0  0  0  0  0
  139.0628   78.8845  221.4639 H   0  0  0  0  0  0  0  0  0  0  0  0
  138.3383   77.7983  220.2298 H   0  0  0  0  0  0  0  0  0  0  0  0
  142.4095   79.2994  219.8892 H   0  0  0  0  0  0  0  0  0  0  0  0
  139.9763   80.7664  221.1727 H   0  0  0  0  0  0  0  0  0  0  0  0
  140.1278   82.2124  223.1386 H   0  0  0  0  0  0  0  0  0  0  0  0
  141.9864   81.9236  224.7796 H   0  0  0  0  0  0  0  0  0  0  0  0
  143.6649   80.1320  224.3600 H   0  0  0  0  0  0  0  0  0  0  0  0
  143.5068   78.6879  222.3866 H   0  0  0  0  0  0  0  0  0  0  0  0
  139.0383   70.4321  222.3288 H   0  0  0  0  0  0  0  0  0  0  0  0
  138.9972   68.5013  223.8633 H   0  0  0  0  0  0  0  0  0  0  0  0
  139.5438   67.5928  226.0453 H   0  0  0  0  0  0  0  0  0  0  0  0
  140.5066   67.8669  228.2984 H   0  0  0  0  0  0  0  0  0  0  0  0
  141.4975   70.0734  228.9749 H   0  0  0  0  0  0  0  0  0  0  0  0
  141.4768   71.9363  227.3443 H   0  0  0  0  0  0  0  0  0  0  0  0
  1  2  2  0
  2  3  1  0
  3  4  1  0
  4  5  1  0
  5  6  2  0
  5  7  1  0
  7  8  1  0
  8  9  1  0
  9 10  1  0
 10 11  1  0
 11 12  1  0
 11 13  1  0
 13 14  1  0
 14 15  2  0
 15 16  1  0
 16 17  2  0
 17 18  1  0
 18 19  2  0
  2 20  1  0
 20 21  2  0
 21 22  1  0
 22 23  2  0
 23 24  1  0
 24 25  2  0
 25 26  1  0
 26 27  2  0
 27 28  1  0
 28 29  2  0
 12  7  1  0
 19 14  1  0
 29 20  1  0
 13  9  1  0
 28 23  1  0
  3 30  1  0
  4 31  1  0
  4 32  1  0
  8 33  1  0
  8 34  1  0
  9 35  1  6
 10 36  1  0
 10 37  1  0
 11 38  1  6
 12 39  1  0
 12 40  1  0
 13 41  1  6
 15 42  1  0
 16 43  1  0
 17 44  1  0
 18 45  1  0
 19 46  1  0
 21 47  1  0
 22 48  1  0
 24 49  1  0
 25 50  1  0
 26 51  1  0
 27 52  1  0
M  END
>  <smiles>  (96) 
O=C(NCC(=O)N1C[C@H]2C[C@@H](C1)C2c1ccccc1)c1ccc2ccccc2n1

>  <score_type>  (96) 
oracle

>  <origin>  (96) 
autodockgpu

>  <m_score__min__energy>  (96) 
-9.1899999999999995

>  <m_primary>  (96) 
energy

>  <rmsd>  (96) 
2.2586051261339426

>  <m_score__min__rmsd>  (96) 
2.2586051261339426

>  <meeko>  (96) 
{"free_energy": -9.04, "intermolecular_energy": -10.53, "internal_energy": -1.39, "cluster_size": 35, "cluster_id": 1, "rank_in_cluster": 22}

>  <energy>  (96) 
-9.02

>  <cluster_rmsd>  (96) 
0.95

>  <cluster>  (96) 
2

$$$$

     RDKit          3D

 52 56  0  0  1  0  0  0  0  0999 V2000
  141.3040   71.9260  221.5810 O   0  0  0  0  0  0  0  0  0  0  0  0
  140.3860   72.1720  222.4180 C   0  0  0  0  0  0  0  0  0  0  0  0
  139.4920   73.2390  222.0800 N   0  0  0  0  0  0  0  0  0  0  0  0
  139.7290   73.9230  220.8220 C   0  0  0  0  0  0  0  0  0  0  0  0
  140.8280   74.9220  220.9410 C   0  0  0  0  0  0  0  0  0  0  0  0
  142.0260   74.6610  220.7610 O   0  0  0  0  0  0  0  0  0  0  0  0
  140.4640   76.2460  221.2820 N   0  0  0  0  0  0  0  0  0  0  0  0
  140.7050   77.3910  220.4120 C   0  0  0  0  0  0  0  0  0  0  0  0
  139.4940   78.2490  220.4820 C   0  0  1  0  0  0  0  0  0  0  0  0
  138.2770   77.4320  220.9310 C   0  0  0  0  0  0  0  0  0  0  0  0
  138.8200   77.6590  222.3550 C   0  0  1  0  0  0  0  0  0  0  0  0
  139.8090   76.5600  222.5590 C   0  0  0  0  0  0  0  0  0  0  0  0
  139.3640   78.9430  221.8310 C   0  0  1  0  0  0  0  0  0  0  0  0
  140.5910   79.4870  222.4110 C   0  0  0  0  0  0  0  0  0  0  0  0
  141.0670   79.2090  223.6740 C   0  0  0  0  0  0  0  0  0  0  0  0
  142.2330   79.7400  224.1810 C   0  0  0  0  0  0  0  0  0  0  0  0
  142.9960   80.6020  223.4200 C   0  0  0  0  0  0  0  0  0  0  0  0
  142.5450   80.9020  222.1480 C   0  0  0  0  0  0  0  0  0  0  0  0
  141.3780   80.3640  221.6530 C   0  0  0  0  0  0  0  0  0  0  0  0
  140.2370   71.4200  223.6560 C   0  0  0  0  0  0  0  0  0  0  0  0
  139.5470   70.2270  223.6010 C   0  0  0  0  0  0  0  0  0  0  0  0
  139.3460   69.4350  224.7010 C   0  0  0  0  0  0  0  0  0  0  0  0
  139.8640   69.8670  225.9050 C   0  0  0  0  0  0  0  0  0  0  0  0
  139.6930   69.1120  227.0550 C   0  0  0  0  0  0  0  0  0  0  0  0
  140.2050   69.5380  228.2530 C   0  0  0  0  0  0  0  0  0  0  0  0
  140.9050   70.7420  228.3240 C   0  0  0  0  0  0  0  0  0  0  0  0
  141.0570   71.4720  227.1580 C   0  0  0  0  0  0  0  0  0  0  0  0
  140.5520   71.0640  225.9450 C   0  0  0  0  0  0  0  0  0  0  0  0
  140.7350   71.8280  224.8360 N   0  0  0  0  0  0  0  0  0  0  0  0
  138.7100   73.4970  222.7260 H   0  0  0  0  0  0  0  0  0  0  0  0
  140.0023   73.1806  220.0577 H   0  0  0  0  0  0  0  0  0  0  0  0
  138.8085   74.4552  220.5403 H   0  0  0  0  0  0  0  0  0  0  0  0
  141.5859   77.9510  220.7591 H   0  0  0  0  0  0  0  0  0  0  0  0
  140.8984   77.0666  219.3789 H   0  0  0  0  0  0  0  0  0  0  0  0
  139.5479   78.7991  219.5309 H   0  0  0  0  0  0  0  0  0  0  0  0
  137.3004   77.8936  220.7231 H   0  0  0  0  0  0  0  0  0  0  0  0
  138.0426   76.4348  220.5301 H   0  0  0  0  0  0  0  0  0  0  0  0
  138.2591   77.6771  223.3011 H   0  0  0  0  0  0  0  0  0  0  0  0
  140.5660   76.8793  223.2904 H   0  0  0  0  0  0  0  0  0  0  0  0
  139.2903   75.6655  222.9342 H   0  0  0  0  0  0  0  0  0  0  0  0
  138.8083   79.8824  221.9676 H   0  0  0  0  0  0  0  0  0  0  0  0
  140.4852   78.5269  224.3113 H   0  0  0  0  0  0  0  0  0  0  0  0
  142.5575   79.4753  225.1982 H   0  0  0  0  0  0  0  0  0  0  0  0
  143.9287   81.0345  223.8111 H   0  0  0  0  0  0  0  0  0  0  0  0
  143.1316   81.5859  221.5170 H   0  0  0  0  0  0  0  0  0  0  0  0
  141.0552   80.6298  220.6356 H   0  0  0  0  0  0  0  0  0  0  0  0
  139.1409   69.8974  222.6333 H   0  0  0  0  0  0  0  0  0  0  0  0
  138.7912   68.4881  224.6270 H   0  0  0  0  0  0  0  0  0  0  0  0
  139.1410   68.1618  227.0056 H   0  0  0  0  0  0  0  0  0  0  0  0
  140.0637   68.9299  229.1587 H   0  0  0  0  0  0  0  0  0  0  0  0
  141.3230   71.1001  229.2764 H   0  0  0  0  0  0  0  0  0  0  0  0
  141.6075   72.4232  227.2033 H   0  0  0  0  0  0  0  0  0  0  0  0
  1  2  2  0
  2  3  1  0
  3  4  1  0
  4  5  1  0
  5  6  2  0
  5  7  1  0
  7  8  1  0
  8  9  1  0
  9 10  1  0
 10 11  1  0
 11 12  1  0
 11 13  1  0
 13 14  1  0
 14 15  2  0
 15 16  1  0
 16 17  2  0
 17 18  1  0
 18 19  2  0
  2 20  1  0
 20 21  2  0
 21 22  1  0
 22 23  2  0
 23 24  1  0
 24 25  2  0
 25 26  1  0
 26 27  2  0
 27 28  1  0
 28 29  2  0
 12  7  1  0
 19 14  1  0
 29 20  1  0
 13  9  1  0
 28 23  1  0
  3 30  1  0
  4 31  1  0
  4 32  1  0
  8 33  1  0
  8 34  1  0
  9 35  1  6
 10 36  1  0
 10 37  1  0
 11 38  1  1
 12 39  1  0
 12 40  1  0
 13 41  1  6
 15 42  1  0
 16 43  1  0
 17 44  1  0
 18 45  1  0
 19 46  1  0
 21 47  1  0
 22 48  1  0
 24 49  1  0
 25 50  1  0
 26 51  1  0
 27 52  1  0
M  END
>  <smiles>  (97) 
O=C(NCC(=O)N1C[C@H]2C[C@@H](C1)C2c1ccccc1)c1ccc2ccccc2n1

>  <score_type>  (97) 
oracle

>  <origin>  (97) 
autodockgpu

>  <m_score__min__energy>  (97) 
-9.1899999999999995

>  <m_primary>  (97) 
energy

>  <rmsd>  (97) 
2.7783278613855886

>  <m_score__min__rmsd>  (97) 
2.7783278613855886

>  <meeko>  (97) 
{"free_energy": -9.07, "intermolecular_energy": -10.56, "internal_energy": -1.31, "cluster_size": 35, "cluster_id": 1, "rank_in_cluster": 18}

>  <energy>  (97) 
-9.01

>  <cluster_rmsd>  (97) 
0.87

>  <cluster>  (97) 
2

$$$$

     RDKit          3D

 52 56  0  0  1  0  0  0  0  0999 V2000
  141.1460   72.8120  221.8770 O   0  0  0  0  0  0  0  0  0  0  0  0
  140.1290   72.6570  222.6180 C   0  0  0  0  0  0  0  0  0  0  0  0
  139.0150   73.5140  222.3470 N   0  0  0  0  0  0  0  0  0  0  0  0
  139.1630   74.4650  221.2600 C   0  0  0  0  0  0  0  0  0  0  0  0
  138.7960   75.8450  221.6850 C   0  0  0  0  0  0  0  0  0  0  0  0
  137.7610   76.1270  222.3060 O   0  0  0  0  0  0  0  0  0  0  0  0
  139.6940   76.8850  221.3510 N   0  0  0  0  0  0  0  0  0  0  0  0
  141.1200   76.8360  221.6470 C   0  0  0  0  0  0  0  0  0  0  0  0
  141.8280   77.3830  220.4600 C   0  0  1  0  0  0  0  0  0  0  0  0
  140.9500   77.2720  219.2090 C   0  0  0  0  0  0  0  0  0  0  0  0
  140.2930   78.5690  219.7200 C   0  0  1  0  0  0  0  0  0  0  0  0
  139.2400   78.1060  220.6720 C   0  0  0  0  0  0  0  0  0  0  0  0
  141.6220   78.8840  220.3140 C   0  0  1  0  0  0  0  0  0  0  0  0
  141.6850   79.6770  221.5410 C   0  0  0  0  0  0  0  0  0  0  0  0
  142.5120   79.4230  222.6140 C   0  0  0  0  0  0  0  0  0  0  0  0
  142.5430   80.2000  223.7520 C   0  0  0  0  0  0  0  0  0  0  0  0
  141.7200   81.3010  223.8680 C   0  0  0  0  0  0  0  0  0  0  0  0
  140.8770   81.5830  222.8080 C   0  0  0  0  0  0  0  0  0  0  0  0
  140.8560   80.7980  221.6770 C   0  0  0  0  0  0  0  0  0  0  0  0
  140.0860   71.6680  223.6860 C   0  0  0  0  0  0  0  0  0  0  0  0
  139.5230   70.4420  223.3990 C   0  0  0  0  0  0  0  0  0  0  0  0
  139.4280   69.4350  224.3230 C   0  0  0  0  0  0  0  0  0  0  0  0
  139.9220   69.6780  225.5890 C   0  0  0  0  0  0  0  0  0  0  0  0
  139.8540   68.7010  226.5700 C   0  0  0  0  0  0  0  0  0  0  0  0
  140.3430   68.9390  227.8280 C   0  0  0  0  0  0  0  0  0  0  0  0
  140.9150   70.1730  228.1330 C   0  0  0  0  0  0  0  0  0  0  0  0
  140.9660   71.1280  227.1310 C   0  0  0  0  0  0  0  0  0  0  0  0
  140.4820   70.9110  225.8610 C   0  0  0  0  0  0  0  0  0  0  0  0
  140.5620   71.8900  224.9220 N   0  0  0  0  0  0  0  0  0  0  0  0
  138.1410   73.4420  222.9200 H   0  0  0  0  0  0  0  0  0  0  0  0
  140.2101   74.4618  220.9230 H   0  0  0  0  0  0  0  0  0  0  0  0
  138.4873   74.1646  220.4456 H   0  0  0  0  0  0  0  0  0  0  0  0
  141.3430   77.4463  222.5346 H   0  0  0  0  0  0  0  0  0  0  0  0
  141.4427   75.8056  221.8569 H   0  0  0  0  0  0  0  0  0  0  0  0
  142.8233   76.9245  220.5556 H   0  0  0  0  0  0  0  0  0  0  0  0
  141.4846   77.3634  218.2520 H   0  0  0  0  0  0  0  0  0  0  0  0
  140.3764   76.3679  218.9570 H   0  0  0  0  0  0  0  0  0  0  0  0
  139.7840   79.3492  219.1351 H   0  0  0  0  0  0  0  0  0  0  0  0
  139.0501   78.8913  221.4185 H   0  0  0  0  0  0  0  0  0  0  0  0
  138.3136   77.8938  220.1181 H   0  0  0  0  0  0  0  0  0  0  0  0
  142.3310   79.5349  219.7814 H   0  0  0  0  0  0  0  0  0  0  0  0
  143.1834   78.5534  222.5592 H   0  0  0  0  0  0  0  0  0  0  0  0
  143.2281   79.9406  224.5726 H   0  0  0  0  0  0  0  0  0  0  0  0
  141.7335   81.9311  224.7696 H   0  0  0  0  0  0  0  0  0  0  0  0
  140.2083   82.4542  222.8701 H   0  0  0  0  0  0  0  0  0  0  0  0
  140.1695   81.0582  220.8579 H   0  0  0  0  0  0  0  0  0  0  0  0
  139.1338   70.2653  222.3854 H   0  0  0  0  0  0  0  0  0  0  0  0
  138.9740   68.4668  224.0652 H   0  0  0  0  0  0  0  0  0  0  0  0
  139.4032   67.7252  226.3365 H   0  0  0  0  0  0  0  0  0  0  0  0
  140.2840   68.1554  228.5978 H   0  0  0  0  0  0  0  0  0  0  0  0
  141.3130   70.3817  229.1370 H   0  0  0  0  0  0  0  0  0  0  0  0
  141.4144   72.1057  227.3611 H   0  0  0  0  0  0  0  0  0  0  0  0
  1  2  2  0
  2  3  1  0
  3  4  1  0
  4  5  1  0
  5  6  2  0
  5  7  1  0
  7  8  1  0
  8  9  1  0
  9 10  1  0
 10 11  1  0
 11 12  1  0
 11 13  1  0
 13 14  1  0
 14 15  2  0
 15 16  1  0
 16 17  2  0
 17 18  1  0
 18 19  2  0
  2 20  1  0
 20 21  2  0
 21 22  1  0
 22 23  2  0
 23 24  1  0
 24 25  2  0
 25 26  1  0
 26 27  2  0
 27 28  1  0
 28 29  2  0
 12  7  1  0
 19 14  1  0
 29 20  1  0
 13  9  1  0
 28 23  1  0
  3 30  1  0
  4 31  1  0
  4 32  1  0
  8 33  1  0
  8 34  1  0
  9 35  1  6
 10 36  1  0
 10 37  1  0
 11 38  1  6
 12 39  1  0
 12 40  1  0
 13 41  1  6
 15 42  1  0
 16 43  1  0
 17 44  1  0
 18 45  1  0
 19 46  1  0
 21 47  1  0
 22 48  1  0
 24 49  1  0
 25 50  1  0
 26 51  1  0
 27 52  1  0
M  END
>  <smiles>  (98) 
O=C(NCC(=O)N1C[C@H]2C[C@@H](C1)C2c1ccccc1)c1ccc2ccccc2n1

>  <score_type>  (98) 
oracle

>  <origin>  (98) 
autodockgpu

>  <m_score__min__energy>  (98) 
-9.1899999999999995

>  <m_primary>  (98) 
energy

>  <rmsd>  (98) 
2.222406818142006

>  <m_score__min__rmsd>  (98) 
2.222406818142006

>  <meeko>  (98) 
{"free_energy": -9.08, "intermolecular_energy": -10.57, "internal_energy": -1.35, "cluster_size": 35, "cluster_id": 1, "rank_in_cluster": 16}

>  <energy>  (98) 
-8.99

>  <cluster_rmsd>  (98) 
0.91

>  <cluster>  (98) 
2

$$$$

     RDKit          3D

 52 56  0  0  1  0  0  0  0  0999 V2000
  140.3510   74.5070  222.0570 O   0  0  0  0  0  0  0  0  0  0  0  0
  139.4580   75.4050  222.1000 C   0  0  0  0  0  0  0  0  0  0  0  0
  138.1290   74.9910  221.7650 N   0  0  0  0  0  0  0  0  0  0  0  0
  137.9420   73.5950  221.4120 C   0  0  0  0  0  0  0  0  0  0  0  0
  137.3020   72.8320  222.5190 C   0  0  0  0  0  0  0  0  0  0  0  0
  136.1260   72.9850  222.8780 O   0  0  0  0  0  0  0  0  0  0  0  0
  138.1000   71.8790  223.1930 N   0  0  0  0  0  0  0  0  0  0  0  0
  137.5740   70.9570  224.1920 C   0  0  0  0  0  0  0  0  0  0  0  0
  138.2130   69.6390  223.9450 C   0  0  1  0  0  0  0  0  0  0  0  0
  138.7110   69.5420  222.4990 C   0  0  0  0  0  0  0  0  0  0  0  0
  139.9400   70.3170  223.0130 C   0  0  1  0  0  0  0  0  0  0  0  0
  139.5400   71.7530  222.9280 C   0  0  0  0  0  0  0  0  0  0  0  0
  139.6890   69.6420  224.3160 C   0  0  1  0  0  0  0  0  0  0  0  0
  140.0530   70.3280  225.5560 C   0  0  0  0  0  0  0  0  0  0  0  0
  140.8270   71.4660  225.6400 C   0  0  0  0  0  0  0  0  0  0  0  0
  141.1430   72.0840  226.8310 C   0  0  0  0  0  0  0  0  0  0  0  0
  140.6820   71.5740  228.0260 C   0  0  0  0  0  0  0  0  0  0  0  0
  139.9020   70.4320  227.9760 C   0  0  0  0  0  0  0  0  0  0  0  0
  139.5940   69.8240  226.7790 C   0  0  0  0  0  0  0  0  0  0  0  0
  139.7540   76.7830  222.4690 C   0  0  0  0  0  0  0  0  0  0  0  0
  138.6890   77.6380  222.6590 C   0  0  0  0  0  0  0  0  0  0  0  0
  138.8470   78.9530  223.0090 C   0  0  0  0  0  0  0  0  0  0  0  0
  140.1350   79.4230  223.1720 C   0  0  0  0  0  0  0  0  0  0  0  0
  140.3620   80.7440  223.5230 C   0  0  0  0  0  0  0  0  0  0  0  0
  141.6390   81.2150  223.6860 C   0  0  0  0  0  0  0  0  0  0  0  0
  142.7260   80.3620  223.4970 C   0  0  0  0  0  0  0  0  0  0  0  0
  142.4650   79.0490  223.1450 C   0  0  0  0  0  0  0  0  0  0  0  0
  141.1910   78.5550  222.9770 C   0  0  0  0  0  0  0  0  0  0  0  0
  141.0020   77.2540  222.6310 N   0  0  0  0  0  0  0  0  0  0  0  0
  137.3410   75.6810  221.7800 H   0  0  0  0  0  0  0  0  0  0  0  0
  137.3015   73.5349  220.5197 H   0  0  0  0  0  0  0  0  0  0  0  0
  138.9303   73.1538  221.2157 H   0  0  0  0  0  0  0  0  0  0  0  0
  137.8216   71.3135  225.2027 H   0  0  0  0  0  0  0  0  0  0  0  0
  136.4789   70.8823  224.1196 H   0  0  0  0  0  0  0  0  0  0  0  0
  137.4866   68.9451  224.3932 H   0  0  0  0  0  0  0  0  0  0  0  0
  138.9163   68.5221  222.1418 H   0  0  0  0  0  0  0  0  0  0  0  0
  138.1134   69.8694  221.6354 H   0  0  0  0  0  0  0  0  0  0  0  0
  140.9638   70.3124  222.6108 H   0  0  0  0  0  0  0  0  0  0  0  0
  140.1019   72.3345  223.6737 H   0  0  0  0  0  0  0  0  0  0  0  0
  139.7614   72.1354  221.9206 H   0  0  0  0  0  0  0  0  0  0  0  0
  140.2379   68.7277  224.5857 H   0  0  0  0  0  0  0  0  0  0  0  0
  141.2126   71.9038  224.7075 H   0  0  0  0  0  0  0  0  0  0  0  0
  141.7670   72.9899  226.8279 H   0  0  0  0  0  0  0  0  0  0  0  0
  140.9252   72.0570  228.9839 H   0  0  0  0  0  0  0  0  0  0  0  0
  139.5196   70.0003  228.9127 H   0  0  0  0  0  0  0  0  0  0  0  0
  138.9704   68.9178  226.7841 H   0  0  0  0  0  0  0  0  0  0  0  0
  137.6695   77.2477  222.5238 H   0  0  0  0  0  0  0  0  0  0  0  0
  137.9781   79.6115  223.1551 H   0  0  0  0  0  0  0  0  0  0  0  0
  139.5086   81.4218  223.6724 H   0  0  0  0  0  0  0  0  0  0  0  0
  141.8063   82.2656  223.9658 H   0  0  0  0  0  0  0  0  0  0  0  0
  143.7580   80.7212  223.6236 H   0  0  0  0  0  0  0  0  0  0  0  0
  143.3155   78.3683  222.9923 H   0  0  0  0  0  0  0  0  0  0  0  0
  1  2  2  0
  2  3  1  0
  3  4  1  0
  4  5  1  0
  5  6  2  0
  5  7  1  0
  7  8  1  0
  8  9  1  0
  9 10  1  0
 10 11  1  0
 11 12  1  0
 11 13  1  0
 13 14  1  0
 14 15  2  0
 15 16  1  0
 16 17  2  0
 17 18  1  0
 18 19  2  0
  2 20  1  0
 20 21  2  0
 21 22  1  0
 22 23  2  0
 23 24  1  0
 24 25  2  0
 25 26  1  0
 26 27  2  0
 27 28  1  0
 28 29  2  0
 12  7  1  0
 19 14  1  0
 29 20  1  0
 13  9  1  0
 28 23  1  0
  3 30  1  0
  4 31  1  0
  4 32  1  0
  8 33  1  0
  8 34  1  0
  9 35  1  1
 10 36  1  0
 10 37  1  0
 11 38  1  6
 12 39  1  0
 12 40  1  0
 13 41  1  6
 15 42  1  0
 16 43  1  0
 17 44  1  0
 18 45  1  0
 19 46  1  0
 21 47  1  0
 22 48  1  0
 24 49  1  0
 25 50  1  0
 26 51  1  0
 27 52  1  0
M  END
>  <smiles>  (99) 
O=C(NCC(=O)N1C[C@H]2C[C@@H](C1)C2c1ccccc1)c1ccc2ccccc2n1

>  <score_type>  (99) 
oracle

>  <origin>  (99) 
autodockgpu

>  <m_score__min__energy>  (99) 
-9.1899999999999995

>  <m_primary>  (99) 
energy

>  <rmsd>  (99) 
8.129669823327735

>  <m_score__min__rmsd>  (99) 
8.129669823327735

>  <meeko>  (99) 
{"free_energy": -9.09, "intermolecular_energy": -10.58, "internal_energy": -1.38, "cluster_size": 15, "cluster_id": 2, "rank_in_cluster": 7}

>  <energy>  (99) 
-8.7

>  <cluster_rmsd>  (99) 
1.54

>  <cluster>  (99) 
2

$$$$

     RDKit          3D

 52 56  0  0  1  0  0  0  0  0999 V2000
  141.2670   72.0070  221.6300 O   0  0  0  0  0  0  0  0  0  0  0  0
  140.3410   72.2080  222.4710 C   0  0  0  0  0  0  0  0  0  0  0  0
  139.4190   73.2570  222.1580 N   0  0  0  0  0  0  0  0  0  0  0  0
  139.6380   73.9780  220.9160 C   0  0  0  0  0  0  0  0  0  0  0  0
  140.7240   74.9870  221.0540 C   0  0  0  0  0  0  0  0  0  0  0  0
  141.9270   74.7410  220.8820 O   0  0  0  0  0  0  0  0  0  0  0  0
  140.3430   76.3030  221.4050 N   0  0  0  0  0  0  0  0  0  0  0  0
  140.5550   77.4550  220.5380 C   0  0  0  0  0  0  0  0  0  0  0  0
  139.3310   78.2940  220.6250 C   0  0  1  0  0  0  0  0  0  0  0  0
  138.1330   77.4550  221.0830 C   0  0  0  0  0  0  0  0  0  0  0  0
  138.6870   77.6850  222.5020 C   0  0  1  0  0  0  0  0  0  0  0  0
  139.6970   76.6020  222.6900 C   0  0  0  0  0  0  0  0  0  0  0  0
  139.2040   78.9800  221.9780 C   0  0  1  0  0  0  0  0  0  0  0  0
  140.4290   79.5420  222.5460 C   0  0  0  0  0  0  0  0  0  0  0  0
  141.0240   79.1310  223.7200 C   0  0  0  0  0  0  0  0  0  0  0  0
  142.1830   79.6850  224.2190 C   0  0  0  0  0  0  0  0  0  0  0  0
  142.8150   80.7080  223.5430 C   0  0  0  0  0  0  0  0  0  0  0  0
  142.2420   81.1430  222.3610 C   0  0  0  0  0  0  0  0  0  0  0  0
  141.0840   80.5810  221.8740 C   0  0  0  0  0  0  0  0  0  0  0  0
  140.2130   71.4220  223.6910 C   0  0  0  0  0  0  0  0  0  0  0  0
  139.5480   70.2160  223.6080 C   0  0  0  0  0  0  0  0  0  0  0  0
  139.3670   69.3930  224.6890 C   0  0  0  0  0  0  0  0  0  0  0  0
  139.8790   69.8070  225.9020 C   0  0  0  0  0  0  0  0  0  0  0  0
  139.7280   69.0200  227.0340 C   0  0  0  0  0  0  0  0  0  0  0  0
  140.2340   69.4280  228.2400 C   0  0  0  0  0  0  0  0  0  0  0  0
  140.9080   70.6450  228.3400 C   0  0  0  0  0  0  0  0  0  0  0  0
  141.0400   71.4060  227.1920 C   0  0  0  0  0  0  0  0  0  0  0  0
  140.5410   71.0170  225.9690 C   0  0  0  0  0  0  0  0  0  0  0  0
  140.7050   71.8120  224.8790 N   0  0  0  0  0  0  0  0  0  0  0  0
  138.6290   73.4780  222.8080 H   0  0  0  0  0  0  0  0  0  0  0  0
  139.9152   73.2599  220.1302 H   0  0  0  0  0  0  0  0  0  0  0  0
  138.7086   74.5054  220.6550 H   0  0  0  0  0  0  0  0  0  0  0  0
  141.4307   78.0276  220.8776 H   0  0  0  0  0  0  0  0  0  0  0  0
  140.7412   77.1378  219.5013 H   0  0  0  0  0  0  0  0  0  0  0  0
  139.3660   78.8496  219.6763 H   0  0  0  0  0  0  0  0  0  0  0  0
  137.1467   77.9010  220.8873 H   0  0  0  0  0  0  0  0  0  0  0  0
  137.9112   76.4557  220.6801 H   0  0  0  0  0  0  0  0  0  0  0  0
  138.1358   77.6895  223.4539 H   0  0  0  0  0  0  0  0  0  0  0  0
  140.4568   76.9315  223.4139 H   0  0  0  0  0  0  0  0  0  0  0  0
  139.1973   75.6975  223.0672 H   0  0  0  0  0  0  0  0  0  0  0  0
  138.6341   79.9092  222.1256 H   0  0  0  0  0  0  0  0  0  0  0  0
  140.5485   78.3180  224.2883 H   0  0  0  0  0  0  0  0  0  0  0  0
  142.6067   79.3092  225.1620 H   0  0  0  0  0  0  0  0  0  0  0  0
  143.7400   81.1611  223.9292 H   0  0  0  0  0  0  0  0  0  0  0  0
  142.7229   81.9564  221.7979 H   0  0  0  0  0  0  0  0  0  0  0  0
  140.6615   80.9584  220.9311 H   0  0  0  0  0  0  0  0  0  0  0  0
  139.1462   69.9018  222.6334 H   0  0  0  0  0  0  0  0  0  0  0  0
  138.8326   68.4363  224.5932 H   0  0  0  0  0  0  0  0  0  0  0  0
  139.1970   68.0593  226.9628 H   0  0  0  0  0  0  0  0  0  0  0  0
  140.1085   68.7949  229.1307 H   0  0  0  0  0  0  0  0  0  0  0  0
  141.3210   70.9885  229.2999 H   0  0  0  0  0  0  0  0  0  0  0  0
  141.5690   72.3681  227.2596 H   0  0  0  0  0  0  0  0  0  0  0  0
  1  2  2  0
  2  3  1  0
  3  4  1  0
  4  5  1  0
  5  6  2  0
  5  7  1  0
  7  8  1  0
  8  9  1  0
  9 10  1  0
 10 11  1  0
 11 12  1  0
 11 13  1  0
 13 14  1  0
 14 15  2  0
 15 16  1  0
 16 17  2  0
 17 18  1  0
 18 19  2  0
  2 20  1  0
 20 21  2  0
 21 22  1  0
 22 23  2  0
 23 24  1  0
 24 25  2  0
 25 26  1  0
 26 27  2  0
 27 28  1  0
 28 29  2  0
 12  7  1  0
 19 14  1  0
 29 20  1  0
 13  9  1  0
 28 23  1  0
  3 30  1  0
  4 31  1  0
  4 32  1  0
  8 33  1  0
  8 34  1  0
  9 35  1  6
 10 36  1  0
 10 37  1  0
 11 38  1  1
 12 39  1  0
 12 40  1  0
 13 41  1  6
 15 42  1  0
 16 43  1  0
 17 44  1  0
 18 45  1  0
 19 46  1  0
 21 47  1  0
 22 48  1  0
 24 49  1  0
 25 50  1  0
 26 51  1  0
 27 52  1  0
M  END
>  <smiles>  (100) 
O=C(NCC(=O)N1C[C@H]2C[C@@H](C1)C2c1ccccc1)c1ccc2ccccc2n1

>  <score_type>  (100) 
oracle

>  <origin>  (100) 
autodockgpu

>  <m_score__min__energy>  (100) 
-9.1899999999999995

>  <m_primary>  (100) 
energy

>  <rmsd>  (100) 
2.8460576295055007

>  <m_score__min__rmsd>  (100) 
2.8460576295055007

>  <meeko>  (100) 
{"free_energy": -9.06, "intermolecular_energy": -10.56, "internal_energy": -1.28, "cluster_size": 35, "cluster_id": 1, "rank_in_cluster": 19}

>  <energy>  (100) 
-8.67

>  <cluster_rmsd>  (100) 
1.49

>  <cluster>  (100) 
2

$$$$
