
     RDKit          3D

 60 64  0  0  0  0  0  0  0  0999 V2000
  137.4990   70.2120  221.9130 O   0  0  0  0  0  0  0  0  0  0  0  0
  137.9860   70.9060  222.8570 C   0  0  0  0  0  0  0  0  0  0  0  0
  137.9040   72.3270  222.6650 N   0  0  0  0  0  0  0  0  0  0  0  0
  137.2980   72.7920  221.4640 C   0  0  0  0  0  0  0  0  0  0  0  0
  138.2070   72.9520  220.2790 C   0  0  2  0  0  0  0  0  0  0  0  0
  137.7540   72.1660  219.0840 C   0  0  0  0  0  0  0  0  0  0  0  0
  138.6960   71.0160  219.0150 C   0  0  0  0  0  0  0  0  0  0  0  0
  139.9320   71.4460  219.6950 C   0  0  0  0  0  0  0  0  0  0  0  0
  139.5740   72.6350  220.5160 N   0  0  0  0  0  0  0  0  0  0  0  0
  140.5950   73.1540  221.3460 C   0  0  0  0  0  0  0  0  0  0  0  0
  140.3320   72.8940  222.6210 O   0  0  0  0  0  0  0  0  0  0  0  0
  141.8060   73.8760  221.1420 C   0  0  0  0  0  0  0  0  0  0  0  0
  141.8760   75.2880  221.3150 N   0  0  0  0  0  0  0  0  0  0  0  0
  140.8570   76.0850  221.9350 C   0  0  0  0  0  0  0  0  0  0  0  0
  139.7920   75.5220  222.3660 O   0  0  0  0  0  0  0  0  0  0  0  0
  141.0160   77.5330  222.0800 C   0  0  0  0  0  0  0  0  0  0  0  0
  141.3980   78.0530  223.2960 C   0  0  0  0  0  0  0  0  0  0  0  0
  141.5680   79.4210  223.5020 C   0  0  0  0  0  0  0  0  0  0  0  0
  141.3320   80.2440  222.4140 C   0  0  0  0  0  0  0  0  0  0  0  0
  141.4850   81.6080  222.5590 C   0  0  0  0  0  0  0  0  0  0  0  0
  141.2460   82.4130  221.4650 C   0  0  0  0  0  0  0  0  0  0  0  0
  141.3940   83.7540  221.5990 F   0  0  0  0  0  0  0  0  0  0  0  0
  140.8630   81.9290  220.2360 C   0  0  0  0  0  0  0  0  0  0  0  0
  140.7150   80.5570  220.1070 C   0  0  0  0  0  0  0  0  0  0  0  0
  140.9440   79.7160  221.1780 C   0  0  0  0  0  0  0  0  0  0  0  0
  140.7990   78.3880  221.0500 N   0  0  0  0  0  0  0  0  0  0  0  0
  138.5770   70.2990  224.0330 C   0  0  0  0  0  0  0  0  0  0  0  0
  138.4890   68.9650  224.3530 C   0  0  0  0  0  0  0  0  0  0  0  0
  139.0660   68.4160  225.4840 C   0  0  0  0  0  0  0  0  0  0  0  0
  139.7680   69.2400  226.3420 C   0  0  0  0  0  0  0  0  0  0  0  0
  140.3410   68.6880  227.4680 C   0  0  0  0  0  0  0  0  0  0  0  0
  141.0570   69.5000  228.3520 C   0  0  0  0  0  0  0  0  0  0  0  0
  141.1280   70.8390  228.0040 C   0  0  0  0  0  0  0  0  0  0  0  0
  140.5630   71.3470  226.9050 N   0  0  0  0  0  0  0  0  0  0  0  0
  139.8590   70.5790  226.0260 C   0  0  0  0  0  0  0  0  0  0  0  0
  139.2810   71.1130  224.8950 C   0  0  0  0  0  0  0  0  0  0  0  0
  138.2950   72.9030  223.4340 H   0  0  0  0  0  0  0  0  0  0  0  0
  136.5096   72.0765  221.1875 H   0  0  0  0  0  0  0  0  0  0  0  0
  136.9327   73.8041  221.6924 H   0  0  0  0  0  0  0  0  0  0  0  0
  138.1394   74.0313  220.0779 H   0  0  0  0  0  0  0  0  0  0  0  0
  136.7205   71.8144  219.2190 H   0  0  0  0  0  0  0  0  0  0  0  0
  137.7589   72.7664  218.1623 H   0  0  0  0  0  0  0  0  0  0  0  0
  138.2661   70.1414  219.5252 H   0  0  0  0  0  0  0  0  0  0  0  0
  138.8953   70.7270  217.9725 H   0  0  0  0  0  0  0  0  0  0  0  0
  140.3106   70.6394  220.3400 H   0  0  0  0  0  0  0  0  0  0  0  0
  140.7209   71.6889  218.9679 H   0  0  0  0  0  0  0  0  0  0  0  0
  142.5439   73.4431  221.8334 H   0  0  0  0  0  0  0  0  0  0  0  0
  141.9637   73.7656  220.0590 H   0  0  0  0  0  0  0  0  0  0  0  0
  142.7170   75.8600  220.9880 H   0  0  0  0  0  0  0  0  0  0  0  0
  141.5754   77.3643  224.1351 H   0  0  0  0  0  0  0  0  0  0  0  0
  141.8737   79.8256  224.4781 H   0  0  0  0  0  0  0  0  0  0  0  0
  141.7898   82.0420  223.5227 H   0  0  0  0  0  0  0  0  0  0  0  0
  140.6811   82.6051  219.3876 H   0  0  0  0  0  0  0  0  0  0  0  0
  140.4111   80.1325  219.1388 H   0  0  0  0  0  0  0  0  0  0  0  0
  137.9319   68.3009  223.6758 H   0  0  0  0  0  0  0  0  0  0  0  0
  138.9674   67.3412  225.6965 H   0  0  0  0  0  0  0  0  0  0  0  0
  140.2350   67.6119  227.6700 H   0  0  0  0  0  0  0  0  0  0  0  0
  141.5315   69.1031  229.2616 H   0  0  0  0  0  0  0  0  0  0  0  0
  141.6793   71.5208  228.6683 H   0  0  0  0  0  0  0  0  0  0  0  0
  139.3810   72.1871  224.6800 H   0  0  0  0  0  0  0  0  0  0  0  0
  1  2  2  0
  2  3  1  0
  3  4  1  0
  4  5  1  0
  5  6  1  0
  6  7  1  0
  7  8  1  0
  8  9  1  0
  9 10  1  0
 10 11  2  0
 10 12  1  0
 12 13  1  0
 13 14  1  0
 14 15  2  0
 14 16  1  0
 16 17  2  0
 17 18  1  0
 18 19  2  0
 19 20  1  0
 20 21  2  0
 21 22  1  0
 21 23  1  0
 23 24  2  0
 24 25  1  0
 25 26  2  0
  2 27  1  0
 27 28  2  0
 28 29  1  0
 29 30  2  0
 30 31  1  0
 31 32  2  0
 32 33  1  0
 33 34  2  0
 34 35  1  0
 35 36  2  0
  9  5  1  0
 26 16  1  0
 36 27  1  0
 25 19  1  0
 35 30  1  0
  3 37  1  0
  4 38  1  0
  4 39  1  0
  5 40  1  6
  6 41  1  0
  6 42  1  0
  7 43  1  0
  7 44  1  0
  8 45  1  0
  8 46  1  0
 12 47  1  0
 12 48  1  0
 13 49  1  0
 17 50  1  0
 18 51  1  0
 20 52  1  0
 23 53  1  0
 24 54  1  0
 28 55  1  0
 29 56  1  0
 31 57  1  0
 32 58  1  0
 33 59  1  0
 36 60  1  0
M  END
