@<TRIPOS>MOLECULE
*****
 66 69 0 0 0
SMALL
GASTEIGER

@<TRIPOS>ATOM
      1 C         137.0360   75.6630  222.7600 C.3     1  UNL1        0.0032
      2 N         138.1890   75.5180  221.9220 N.am    1  UNL1       -0.3028
      3 C         138.0000   74.7660  220.6750 C.3     1  UNL1        0.0299
      4 C         137.6230   73.3310  221.0070 C.3     1  UNL1        0.0277
      5 N         138.3580   72.9780  222.2150 N.am    1  UNL1       -0.3086
      6 C         138.3520   71.6010  222.5780 C.2     1  UNL1        0.2625
      7 O         137.6980   70.8350  221.7890 O.2     1  UNL1       -0.2685
      8 C         139.0400   71.0980  223.7560 C.ar    1  UNL1        0.1260
      9 C         140.0520   71.8870  224.2860 C.ar    1  UNL1       -0.0306
     10 C         140.7510   71.4610  225.4120 C.ar    1  UNL1       -0.0503
     11 C         140.3930   70.2600  225.9450 C.ar    1  UNL1        0.0031
     12 C         141.0910   69.8270  227.0740 C.ar    1  UNL1       -0.0173
     13 C         140.7440   68.5970  227.6420 C.ar    1  UNL1        0.1241
     14 F         141.4070   68.1560  228.7390 F       1  UNL1       -0.2055
     15 C         139.7270   67.8260  227.0920 C.ar    1  UNL1       -0.0244
     16 C         139.0390   68.2590  225.9760 C.ar    1  UNL1       -0.0330
     17 C         139.3870   69.4710  225.4220 C.ar    1  UNL1        0.0720
     18 N         138.7360   69.9200  224.3330 N.ar    1  UNL1       -0.2421
     19 C         139.4750   76.0230  222.1720 C.2     1  UNL1        0.2185
     20 O         140.4090   75.1350  222.3140 O.2     1  UNL1       -0.2753
     21 C         139.8990   77.4090  222.2960 C.3     1  UNL1        0.0358
     22 C         138.8830   78.3580  222.8930 C.3     1  UNL1       -0.0412
     23 C         139.2750   79.7350  222.3970 C.3     1  UNL1       -0.0412
     24 C         140.6910   80.0920  222.7020 C.3     1  UNL1        0.0356
     25 C         141.1200   81.1350  221.7320 C.2     1  UNL1        0.2164
     26 O         141.2510   82.3500  222.0610 O.2     1  UNL1       -0.2755
     27 N         141.3830   80.7040  220.4020 N.am    1  UNL1       -0.3095
     28 C         141.8140   81.6680  219.3790 C.3     1  UNL1        0.0539
     29 C         141.9350   80.9520  218.0680 C.ar    1  UNL1        0.0583
     30 C         142.0560   81.6750  216.8770 C.ar    1  UNL1       -0.0388
     31 C         142.1640   80.9540  215.7010 C.ar    1  UNL1       -0.0586
     32 C         142.1490   79.5770  215.7480 C.ar    1  UNL1       -0.0436
     33 C         142.0290   78.8760  216.9310 C.ar    1  UNL1        0.0279
     34 N         141.9240   79.6000  218.0750 N.ar    1  UNL1       -0.2583
     35 C         141.6940   78.9900  222.6540 C.3     1  UNL1       -0.0412
     36 C         141.1550   77.6510  223.0950 C.3     1  UNL1       -0.0412
     37 H         137.3428   75.6244  223.8156 H       1  UNL1        0.0428
     38 H         136.5521   76.6291  222.5539 H       1  UNL1        0.0428
     39 H         136.3279   74.8468  222.5539 H       1  UNL1        0.0428
     40 H         137.1965   75.2299  220.0841 H       1  UNL1        0.0480
     41 H         138.9331   74.7770  220.0926 H       1  UNL1        0.0480
     42 H         136.5402   73.2542  221.1851 H       1  UNL1        0.0477
     43 H         137.8722   72.6526  220.1777 H       1  UNL1        0.0477
     44 H         138.8670   73.6770  222.8000 H       1  UNL1        0.1491
     45 H         140.3017   72.8496  223.8158 H       1  UNL1        0.0641
     46 H         141.5566   72.0674  225.8516 H       1  UNL1        0.0625
     47 H         141.8957   70.4394  227.5070 H       1  UNL1        0.0653
     48 H         139.4674   66.8605  227.5506 H       1  UNL1        0.0647
     49 H         138.2327   67.6509  225.5400 H       1  UNL1        0.0640
     50 H         140.0645   77.6189  221.2290 H       1  UNL1        0.0394
     51 H         138.9206   78.3200  223.9917 H       1  UNL1        0.0273
     52 H         137.8564   78.0950  222.5982 H       1  UNL1        0.0273
     53 H         138.6176   80.4776  222.8729 H       1  UNL1        0.0273
     54 H         139.1696   79.7287  221.3021 H       1  UNL1        0.0273
     55 H         140.6768   80.4196  223.7520 H       1  UNL1        0.0394
     56 H         141.2720   79.6910  220.1320 H       1  UNL1        0.1491
     57 H         141.0710   82.4746  219.2935 H       1  UNL1        0.0527
     58 H         142.7837   82.1050  219.6594 H       1  UNL1        0.0527
     59 H         142.0650   82.7750  216.8752 H       1  UNL1        0.0636
     60 H         142.2610   81.4754  214.7373 H       1  UNL1        0.0619
     61 H         142.2360   79.0147  214.8066 H       1  UNL1        0.0633
     62 H         142.0189   77.7762  216.9464 H       1  UNL1        0.0829
     63 H         142.5345   79.2582  223.3110 H       1  UNL1        0.0273
     64 H         141.9973   78.8807  221.6023 H       1  UNL1        0.0273
     65 H         140.9233   77.6703  224.1701 H       1  UNL1        0.0273
     66 H         141.8921   76.8517  222.9281 H       1  UNL1        0.0273
@<TRIPOS>BOND
     1     1     2    1
     2     2     3    1
     3     3     4    1
     4     4     5    1
     5     5     6   am
     6     6     7    2
     7     6     8    1
     8     8     9   ar
     9     9    10   ar
    10    10    11   ar
    11    11    12   ar
    12    12    13   ar
    13    13    14    1
    14    13    15   ar
    15    15    16   ar
    16    16    17   ar
    17    17    18   ar
    18     2    19   am
    19    19    20    2
    20    19    21    1
    21    21    22    1
    22    22    23    1
    23    23    24    1
    24    24    25    1
    25    25    26    2
    26    25    27   am
    27    27    28    1
    28    28    29    1
    29    29    30   ar
    30    30    31   ar
    31    31    32   ar
    32    32    33   ar
    33    33    34   ar
    34    24    35    1
    35    35    36    1
    36    18     8   ar
    37    36    21    1
    38    17    11   ar
    39    34    29   ar
    40     1    37    1
    41     1    38    1
    42     1    39    1
    43     3    40    1
    44     3    41    1
    45     4    42    1
    46     4    43    1
    47     5    44    1
    48     9    45    1
    49    10    46    1
    50    12    47    1
    51    15    48    1
    52    16    49    1
    53    21    50    1
    54    22    51    1
    55    22    52    1
    56    23    53    1
    57    23    54    1
    58    24    55    1
    59    27    56    1
    60    28    57    1
    61    28    58    1
    62    30    59    1
    63    31    60    1
    64    32    61    1
    65    33    62    1
    66    35    63    1
    67    35    64    1
    68    36    65    1
    69    36    66    1
