
 72 77  0  0  0  0  0  0  0  0999 V2000
  139.7230   73.3770  217.2270 O   0  0  0  0  0  0  0  0  0  0  0  0
  139.8860   74.4740  217.8150 C   0  0  0  0  0  0  0  0  0  0  0  0
  140.0990   75.7100  217.1550 N   0  0  0  0  0  0  0  0  0  0  0  0
  140.1490   75.8270  215.6900 C   0  0  0  0  0  0  0  0  0  0  0  0
  141.3950   76.5670  215.2750 C   0  0  0  0  0  0  0  0  0  0  0  0
  142.6720   75.9360  215.7260 C   0  0  0  0  0  0  0  0  0  0  0  0
  142.9490   76.0750  217.0930 C   0  0  0  0  0  0  0  0  0  0  0  0
  142.9600   77.0460  218.0830 C   0  0  0  0  0  0  0  0  0  0  0  0
  143.2660   76.7590  219.3300 C   0  0  0  0  0  0  0  0  0  0  0  0
  143.5900   75.3880  219.6250 C   0  0  0  0  0  0  0  0  0  0  0  0
  143.4240   74.5520  218.0050 S   0  0  0  0  0  0  0  0  0  0  0  0
  139.8540   74.4760  219.2930 C   0  0  0  0  0  0  0  0  0  0  0  0
  139.6650   73.2980  220.0050 C   0  0  0  0  0  0  0  0  0  0  0  0
  139.6280   73.2620  221.3820 C   0  0  0  0  0  0  0  0  0  0  0  0
  139.4400   72.0800  222.1360 N   0  0  0  0  0  0  0  0  0  0  0  0
  138.1870   71.5560  222.5670 C   0  0  0  0  0  0  0  0  0  0  0  0
  138.2250   71.1850  224.0090 C   0  0  0  0  0  0  0  0  0  0  0  0
  139.5110   70.9390  224.5700 N   0  0  0  0  0  0  0  0  0  0  0  0
  139.6570   70.0970  225.7330 C   0  0  0  0  0  0  0  0  0  0  0  0
  139.4790   68.7290  225.6670 C   0  0  0  0  0  0  0  0  0  0  0  0
  139.6190   67.9060  226.7770 C   0  0  0  0  0  0  0  0  0  0  0  0
  139.9490   68.4820  227.9890 C   0  0  0  0  0  0  0  0  0  0  0  0
  140.1180   69.8510  228.0160 C   0  0  0  0  0  0  0  0  0  0  0  0
  139.9760   70.6030  226.9360 N   0  0  0  0  0  0  0  0  0  0  0  0
  140.7320   71.5060  224.0300 C   0  0  0  0  0  0  0  0  0  0  0  0
  140.6430   71.3190  222.5150 C   0  0  0  0  0  0  0  0  0  0  0  0
  139.7900   74.4600  222.0050 N   0  0  0  0  0  0  0  0  0  0  0  0
  139.9740   75.6080  221.3290 C   0  0  0  0  0  0  0  0  0  0  0  0
  140.1370   76.8410  222.0060 N   0  0  0  0  0  0  0  0  0  0  0  0
  139.0210   77.4930  222.6790 C   0  0  0  0  0  0  0  0  0  0  0  0
  138.9880   78.9150  222.1050 C   0  0  0  0  0  0  0  0  0  0  0  0
  140.2090   79.5760  222.6850 C   0  0  0  0  0  0  0  0  0  0  0  0
  140.1560   80.8410  223.2330 C   0  0  0  0  0  0  0  0  0  0  0  0
  141.3150   81.3950  223.7500 C   0  0  0  0  0  0  0  0  0  0  0  0
  142.4840   80.6550  223.6970 C   0  0  0  0  0  0  0  0  0  0  0  0
  142.5430   79.3910  223.1500 C   0  0  0  0  0  0  0  0  0  0  0  0
  141.3710   78.8360  222.6290 C   0  0  0  0  0  0  0  0  0  0  0  0
  141.4310   77.4720  222.0370 C   0  0  0  0  0  0  0  0  0  0  0  0
  140.0040   75.6040  219.9850 N   0  0  0  0  0  0  0  0  0  0  0  0
  140.2260   76.5810  217.7520 H   0  0  0  0  0  0  0  0  0  0  0  0
  140.1568   74.8214  215.2442 H   0  0  0  0  0  0  0  0  0  0  0  0
  139.2658   76.3824  215.3414 H   0  0  0  0  0  0  0  0  0  0  0  0
  141.4100   76.6248  214.1766 H   0  0  0  0  0  0  0  0  0  0  0  0
  141.3471   77.5540  215.7582 H   0  0  0  0  0  0  0  0  0  0  0  0
  142.6224   74.8617  215.4950 H   0  0  0  0  0  0  0  0  0  0  0  0
  143.4795   76.4594  215.1931 H   0  0  0  0  0  0  0  0  0  0  0  0
  142.7063   78.0832  217.8188 H   0  0  0  0  0  0  0  0  0  0  0  0
  143.2739   77.5323  220.1122 H   0  0  0  0  0  0  0  0  0  0  0  0
  143.8705   74.9476  220.5932 H   0  0  0  0  0  0  0  0  0  0  0  0
  139.5400   72.3577  219.4480 H   0  0  0  0  0  0  0  0  0  0  0  0
  137.4078   72.3170  222.4128 H   0  0  0  0  0  0  0  0  0  0  0  0
  137.9677   70.6516  221.9806 H   0  0  0  0  0  0  0  0  0  0  0  0
  137.7644   72.0065  224.5773 H   0  0  0  0  0  0  0  0  0  0  0  0
  137.6907   70.2258  224.0762 H   0  0  0  0  0  0  0  0  0  0  0  0
  139.2168   68.2747  224.7001 H   0  0  0  0  0  0  0  0  0  0  0  0
  139.4704   66.8193  226.6932 H   0  0  0  0  0  0  0  0  0  0  0  0
  140.0721   67.8729  228.8966 H   0  0  0  0  0  0  0  0  0  0  0  0
  140.3800   70.3346  228.9686 H   0  0  0  0  0  0  0  0  0  0  0  0
  140.8017   72.5748  224.2807 H   0  0  0  0  0  0  0  0  0  0  0  0
  141.6247   71.0168  224.4468 H   0  0  0  0  0  0  0  0  0  0  0  0
  141.5361   71.7247  222.0171 H   0  0  0  0  0  0  0  0  0  0  0  0
  140.5869   70.2608  222.2200 H   0  0  0  0  0  0  0  0  0  0  0  0
  138.0791   76.9672  222.4638 H   0  0  0  0  0  0  0  0  0  0  0  0
  139.1397   77.4913  223.7726 H   0  0  0  0  0  0  0  0  0  0  0  0
  139.0408   78.8935  221.0065 H   0  0  0  0  0  0  0  0  0  0  0  0
  138.0601   79.4494  222.3567 H   0  0  0  0  0  0  0  0  0  0  0  0
  139.2090   81.4001  223.2588 H   0  0  0  0  0  0  0  0  0  0  0  0
  141.3071   82.4016  224.1934 H   0  0  0  0  0  0  0  0  0  0  0  0
  143.4046   81.0942  224.1088 H   0  0  0  0  0  0  0  0  0  0  0  0
  143.4903   78.8324  223.1242 H   0  0  0  0  0  0  0  0  0  0  0  0
  141.8142   77.5475  221.0087 H   0  0  0  0  0  0  0  0  0  0  0  0
  142.0940   76.8579  222.6641 H   0  0  0  0  0  0  0  0  0  0  0  0
  1  2  2  0
  2  3  1  0
  3  4  1  0
  4  5  1  0
  5  6  1  0
  6  7  1  0
  7  8  2  0
  8  9  1  0
  9 10  2  0
 10 11  1  0
  2 12  1  0
 12 13  2  0
 13 14  1  0
 14 15  1  0
 15 16  1  0
 16 17  1  0
 17 18  1  0
 18 19  1  0
 19 20  2  0
 20 21  1  0
 21 22  2  0
 22 23  1  0
 23 24  2  0
 18 25  1  0
 25 26  1  0
 14 27  2  0
 27 28  1  0
 28 29  1  0
 29 30  1  0
 30 31  1  0
 31 32  1  0
 32 33  2  0
 33 34  1  0
 34 35  2  0
 35 36  1  0
 36 37  2  0
 37 38  1  0
 28 39  2  0
 11  7  1  0
 39 12  1  0
 26 15  1  0
 38 29  1  0
 24 19  1  0
 37 32  1  0
  3 40  1  0
  4 41  1  0
  4 42  1  0
  5 43  1  0
  5 44  1  0
  6 45  1  0
  6 46  1  0
  8 47  1  0
  9 48  1  0
 10 49  1  0
 13 50  1  0
 16 51  1  0
 16 52  1  0
 17 53  1  0
 17 54  1  0
 20 55  1  0
 21 56  1  0
 22 57  1  0
 23 58  1  0
 25 59  1  0
 25 60  1  0
 26 61  1  0
 26 62  1  0
 30 63  1  0
 30 64  1  0
 31 65  1  0
 31 66  1  0
 33 67  1  0
 34 68  1  0
 35 69  1  0
 36 70  1  0
 38 71  1  0
 38 72  1  0
M  END
