@<TRIPOS>MOLECULE
*****
 65 69 0 0 0
SMALL
GASTEIGER

@<TRIPOS>ATOM
      1 O         141.3370   79.0530  219.1610 O.2     1  UNL1       -0.2702
      2 C         141.3660   78.5680  220.3430 C.2     1  UNL1        0.2441
      3 N         142.1850   77.4550  220.6550 N.am    1  UNL1       -0.3096
      4 C         143.0410   76.7760  219.7080 C.3     1  UNL1        0.0305
      5 C         142.9820   75.3000  219.9980 C.3     1  UNL1        0.0416
      6 C         143.8370   74.4520  219.1250 C.3     1  UNL1       -0.0314
      7 C         142.9140   73.6880  218.2190 C.3     1  UNL1       -0.0354
      8 C         141.6110   74.4610  218.4030 C.3     1  UNL1        0.0151
      9 N         141.6190   74.7520  219.8210 N.am    1  UNL1       -0.2957
     10 C         140.7320   74.5950  220.8800 C.2     1  UNL1        0.2330
     11 O         141.0070   75.3050  221.9410 O.2     1  UNL1       -0.2739
     12 C         139.5310   73.7800  221.0350 C.3     1  UNL1        0.0887
     13 N         139.4110   73.1330  222.2890 N.am    1  UNL1       -0.3015
     14 C         140.2110   71.9310  222.4760 C.2     1  UNL1        0.2628
     15 O         140.9160   71.6130  221.4940 O.2     1  UNL1       -0.2685
     16 C         140.1630   71.1850  223.7260 C.ar    1  UNL1        0.1260
     17 C         139.5580   69.9350  223.6690 C.ar    1  UNL1       -0.0306
     18 C         139.4440   69.1240  224.7840 C.ar    1  UNL1       -0.0504
     19 C         139.9690   69.6310  225.9620 C.ar    1  UNL1        0.0004
     20 C         139.8640   68.8340  227.0890 C.ar    1  UNL1       -0.0526
     21 C         140.3770   69.3150  228.2700 C.ar    1  UNL1       -0.0611
     22 C         140.9880   70.5600  228.3600 C.ar    1  UNL1       -0.0597
     23 C         141.0630   71.3100  227.2030 C.ar    1  UNL1       -0.0357
     24 C         140.5650   70.8710  226.0020 C.ar    1  UNL1        0.0718
     25 N         140.6500   71.6210  224.8850 N.ar    1  UNL1       -0.2421
     26 C         140.5060   79.2400  221.3100 C.ar    1  UNL1        0.0367
     27 C         139.7690   80.3300  220.9030 C.ar    1  UNL1       -0.0491
     28 C         138.9230   81.0230  221.7780 C.ar    1  UNL1       -0.0533
     29 C         138.8280   80.5970  223.0910 C.ar    1  UNL1       -0.0178
     30 C         137.9530   81.3020  224.0220 C.ar    1  UNL1       -0.0179
     31 C         137.3170   82.4510  223.5570 C.ar    1  UNL1       -0.0540
     32 C         136.4720   83.1830  224.3690 C.ar    1  UNL1       -0.0612
     33 C         136.2720   82.7400  225.6740 C.ar    1  UNL1       -0.0617
     34 C         136.9030   81.5960  226.1430 C.ar    1  UNL1       -0.0612
     35 C         137.7560   80.8530  225.3320 C.ar    1  UNL1       -0.0540
     36 C         139.5620   79.4960  223.5340 C.ar    1  UNL1       -0.0533
     37 C         140.3800   78.8510  222.6240 C.ar    1  UNL1       -0.0491
     38 H         142.1480   77.1200  221.6530 H       1  UNL1        0.1491
     39 H         142.6901   76.9689  218.6834 H       1  UNL1        0.0480
     40 H         144.0747   77.1410  219.7991 H       1  UNL1        0.0480
     41 H         143.3372   75.2537  221.0380 H       1  UNL1        0.0516
     42 H         144.5138   75.0832  218.5303 H       1  UNL1        0.0284
     43 H         144.4553   73.7678  219.7246 H       1  UNL1        0.0284
     44 H         143.2573   73.7195  217.1744 H       1  UNL1        0.0281
     45 H         142.8392   72.6154  218.4512 H       1  UNL1        0.0281
     46 H         141.6094   75.3856  217.8071 H       1  UNL1        0.0465
     47 H         140.7205   73.9055  218.0736 H       1  UNL1        0.0465
     48 H         138.6552   74.4319  220.9009 H       1  UNL1        0.0558
     49 H         139.5978   72.9828  220.2800 H       1  UNL1        0.0558
     50 H         138.7860   73.4780  223.0660 H       1  UNL1        0.1496
     51 H         139.1576   69.5797  222.7080 H       1  UNL1        0.0641
     52 H         138.9648   68.1349  224.7382 H       1  UNL1        0.0625
     53 H         139.3843   67.8453  227.0408 H       1  UNL1        0.0624
     54 H         140.3014   68.6935  229.1745 H       1  UNL1        0.0618
     55 H         141.3944   70.9320  229.3121 H       1  UNL1        0.0618
     56 H         141.5414   72.2996  227.2458 H       1  UNL1        0.0639
     57 H         139.8472   80.6666  219.8587 H       1  UNL1        0.0625
     58 H         138.3444   81.8905  221.4276 H       1  UNL1        0.0624
     59 H         137.4910   82.7821  222.5226 H       1  UNL1        0.0624
     60 H         135.9721   84.0889  223.9956 H       1  UNL1        0.0618
     61 H         135.6049   83.3043  226.3422 H       1  UNL1        0.0618
     62 H         136.7250   81.2695  227.1782 H       1  UNL1        0.0618
     63 H         138.2559   79.9477  225.7068 H       1  UNL1        0.0624
     64 H         139.4921   79.1512  224.5762 H       1  UNL1        0.0624
     65 H         140.9599   77.9821  222.9685 H       1  UNL1        0.0625
@<TRIPOS>BOND
     1     1     2    2
     2     2     3   am
     3     3     4    1
     4     4     5    1
     5     5     6    1
     6     6     7    1
     7     7     8    1
     8     8     9    1
     9     9    10   am
    10    10    11    2
    11    10    12    1
    12    12    13    1
    13    13    14   am
    14    14    15    2
    15    14    16    1
    16    16    17   ar
    17    17    18   ar
    18    18    19   ar
    19    19    20   ar
    20    20    21   ar
    21    21    22   ar
    22    22    23   ar
    23    23    24   ar
    24    24    25   ar
    25     2    26    1
    26    26    27   ar
    27    27    28   ar
    28    28    29   ar
    29    29    30    1
    30    30    31   ar
    31    31    32   ar
    32    32    33   ar
    33    33    34   ar
    34    34    35   ar
    35    29    36   ar
    36    36    37   ar
    37     9     5    1
    38    25    16   ar
    39    37    26   ar
    40    24    19   ar
    41    35    30   ar
    42     3    38    1
    43     4    39    1
    44     4    40    1
    45     5    41    1
    46     6    42    1
    47     6    43    1
    48     7    44    1
    49     7    45    1
    50     8    46    1
    51     8    47    1
    52    12    48    1
    53    12    49    1
    54    13    50    1
    55    17    51    1
    56    18    52    1
    57    20    53    1
    58    21    54    1
    59    22    55    1
    60    23    56    1
    61    27    57    1
    62    28    58    1
    63    31    59    1
    64    32    60    1
    65    33    61    1
    66    34    62    1
    67    35    63    1
    68    36    64    1
    69    37    65    1
