@<TRIPOS>MOLECULE
*****
 66 70 0 0 0
SMALL
GASTEIGER

@<TRIPOS>ATOM
      1 O         141.4270   72.3190  221.7510 O.2     1  UNL1       -0.2685
      2 C         140.4680   72.3950  222.5610 C.2     1  UNL1        0.2628
      3 N         139.5340   73.4800  222.3060 N.am    1  UNL1       -0.3015
      4 C         139.8070   74.3130  221.2010 C.3     1  UNL1        0.0887
      5 C         140.9300   75.2330  221.2030 C.2     1  UNL1        0.2334
      6 O         141.0160   75.9420  222.2880 O.2     1  UNL1       -0.2739
      7 N         141.9240   75.4790  220.2470 N.am    1  UNL1       -0.2886
      8 C         142.8370   74.4670  219.6090 C.3     1  UNL1        0.0156
      9 C         142.5340   74.7550  218.1700 C.3     1  UNL1       -0.0350
     10 C         142.0700   76.2190  218.1190 C.3     1  UNL1       -0.0243
     11 C         142.3660   76.6620  219.5540 C.3     1  UNL1        0.1022
     12 C         141.8770   77.9660  219.8680 C.2     1  UNL1        0.2338
     13 O         141.4180   78.8710  219.1590 O.2     1  UNL1       -0.2738
     14 N         141.9150   78.3250  221.2960 N.am    1  UNL1       -0.3104
     15 C         141.4390   79.6300  221.7090 C.3     1  UNL1        0.0300
     16 C         142.6100   80.5120  222.0510 C.3     1  UNL1       -0.0339
     17 C         142.9300   80.3340  223.4970 C.3     1  UNL1       -0.0508
     18 C         141.6870   79.7910  224.1220 C.3     1  UNL1       -0.0445
     19 C         140.7240   79.4770  223.0170 C.3     1  UNL1        0.0026
     20 C         139.5170   80.3310  223.1500 C.ar    1  UNL1       -0.0423
     21 C         138.7230   80.1180  224.2650 C.ar    1  UNL1       -0.0548
     22 C         137.5770   80.8630  224.4780 C.ar    1  UNL1       -0.0199
     23 C         137.2500   81.8330  223.5360 C.ar    1  UNL1        0.1169
     24 O         136.0980   82.5780  223.7560 O.3     1  UNL1       -0.5068
     25 C         138.0620   82.0300  222.4210 C.ar    1  UNL1       -0.0199
     26 C         139.2080   81.2860  222.2070 C.ar    1  UNL1       -0.0548
     27 C         140.2780   71.4830  223.6790 C.ar    1  UNL1        0.1260
     28 C         139.6130   70.3050  223.4200 C.ar    1  UNL1       -0.0306
     29 C         139.4340   69.4350  224.4970 C.ar    1  UNL1       -0.0503
     30 C         139.9150   69.7790  225.7480 C.ar    1  UNL1        0.0031
     31 C         139.7600   68.9440  226.8480 C.ar    1  UNL1       -0.0173
     32 C         140.2330   69.2770  228.0900 C.ar    1  UNL1        0.1241
     33 F         140.0710   68.4430  229.1610 F       1  UNL1       -0.2055
     34 C         140.8910   70.4770  228.2760 C.ar    1  UNL1       -0.0244
     35 C         141.0700   71.3420  227.2050 C.ar    1  UNL1       -0.0330
     36 C         140.5810   70.9760  225.9700 C.ar    1  UNL1        0.0720
     37 N         140.7410   71.7970  224.9160 N.ar    1  UNL1       -0.2421
     38 H         138.7110   73.5790  222.9610 H       1  UNL1        0.1496
     39 H         139.9539   73.6461  220.3386 H       1  UNL1        0.0558
     40 H         138.9435   74.9945  221.2000 H       1  UNL1        0.0558
     41 H         143.8934   74.6522  219.8534 H       1  UNL1        0.0465
     42 H         142.6842   73.4248  219.9259 H       1  UNL1        0.0465
     43 H         143.4356   74.6183  217.5549 H       1  UNL1        0.0281
     44 H         141.7643   74.0747  217.7766 H       1  UNL1        0.0281
     45 H         142.6487   76.8021  217.3875 H       1  UNL1        0.0288
     46 H         141.0243   76.3554  217.8061 H       1  UNL1        0.0288
     47 H         143.3992   76.9038  219.8439 H       1  UNL1        0.0597
     48 H         142.2800   77.6490  221.9940 H       1  UNL1        0.1490
     49 H         140.8159   80.0426  220.9018 H       1  UNL1        0.0504
     50 H         143.4797   80.2273  221.4407 H       1  UNL1        0.0283
     51 H         142.3620   81.5640  221.8465 H       1  UNL1        0.0283
     52 H         143.7626   79.6260  223.6212 H       1  UNL1        0.0266
     53 H         143.2391   81.2808  223.9640 H       1  UNL1        0.0266
     54 H         141.9201   78.8767  224.6875 H       1  UNL1        0.0272
     55 H         141.2519   80.5243  224.8169 H       1  UNL1        0.0272
     56 H         140.3651   78.4386  223.0710 H       1  UNL1        0.0367
     57 H         139.0084   79.3440  224.9927 H       1  UNL1        0.0622
     58 H         136.9454   80.6940  225.3626 H       1  UNL1        0.0654
     59 H         136.0260   83.4880  223.3460 H       1  UNL1        0.2921
     60 H         137.7828   82.8013  221.6881 H       1  UNL1        0.0654
     61 H         139.8435   81.4495  221.3242 H       1  UNL1        0.0622
     62 H         139.2412   70.0616  222.4138 H       1  UNL1        0.0641
     63 H         138.9117   68.4779  224.3514 H       1  UNL1        0.0625
     64 H         139.2401   67.9835  226.7172 H       1  UNL1        0.0653
     65 H         141.2728   70.7470  229.2716 H       1  UNL1        0.0647
     66 H         141.5920   72.3008  227.3398 H       1  UNL1        0.0640
@<TRIPOS>BOND
     1     1     2    2
     2     2     3   am
     3     3     4    1
     4     4     5    1
     5     5     6    2
     6     5     7   am
     7     7     8    1
     8     8     9    1
     9     9    10    1
    10    10    11    1
    11    11    12    1
    12    12    13    2
    13    12    14   am
    14    14    15    1
    15    15    16    1
    16    16    17    1
    17    17    18    1
    18    18    19    1
    19    19    20    1
    20    20    21   ar
    21    21    22   ar
    22    22    23   ar
    23    23    24    1
    24    23    25   ar
    25    25    26   ar
    26     2    27    1
    27    27    28   ar
    28    28    29   ar
    29    29    30   ar
    30    30    31   ar
    31    31    32   ar
    32    32    33    1
    33    32    34   ar
    34    34    35   ar
    35    35    36   ar
    36    36    37   ar
    37    11     7    1
    38    19    15    1
    39    26    20   ar
    40    37    27   ar
    41    36    30   ar
    42     3    38    1
    43     4    39    1
    44     4    40    1
    45     8    41    1
    46     8    42    1
    47     9    43    1
    48     9    44    1
    49    10    45    1
    50    10    46    1
    51    11    47    1
    52    14    48    1
    53    15    49    1
    54    16    50    1
    55    16    51    1
    56    17    52    1
    57    17    53    1
    58    18    54    1
    59    18    55    1
    60    19    56    1
    61    21    57    1
    62    22    58    1
    63    24    59    1
    64    25    60    1
    65    26    61    1
    66    28    62    1
    67    29    63    1
    68    31    64    1
    69    34    65    1
    70    35    66    1
