@<TRIPOS>MOLECULE
*****
 65 70 0 0 0
SMALL
GASTEIGER

@<TRIPOS>ATOM
      1 C         139.9330   68.5680  227.9730 C.ar    1  UNL1       -0.0615
      2 C         140.6860   69.6860  228.3260 C.ar    1  UNL1       -0.0614
      3 C         141.0370   70.5890  227.3440 C.ar    1  UNL1       -0.0568
      4 C         140.6770   70.4400  226.0290 C.ar    1  UNL1       -0.0269
      5 C         139.9270   69.3140  225.7130 C.ar    1  UNL1       -0.0412
      6 C         139.5490   68.3790  226.6510 C.ar    1  UNL1       -0.0582
      7 C         139.5530   69.1900  224.2610 C.3     1  UNL1       -0.0115
      8 C         139.0240   70.5900  223.9040 C.3     1  UNL1        0.0178
      9 N         140.1830   71.4510  223.8510 N.pl3   1  UNL1       -0.3104
     10 C         140.5090   72.3090  222.7770 C.ar    1  UNL1        0.1284
     11 C         141.5210   72.0520  221.8760 C.ar    1  UNL1        0.0182
     12 C         141.8370   72.9000  220.8290 C.ar    1  UNL1        0.1259
     13 N         142.8770   72.6430  219.9000 N.pl3   1  UNL1       -0.3248
     14 C         143.6410   73.6750  219.2360 C.3     1  UNL1        0.0345
     15 C         143.9640   74.8510  220.1040 C.3     1  UNL1       -0.0322
     16 C         143.2180   76.0890  219.6330 C.3     1  UNL1       -0.0387
     17 C         143.4350   76.3570  218.1790 C.3     1  UNL1       -0.0040
     18 N         143.7900   75.1780  217.4120 N.3     1  UNL1       -0.3142
     19 C         143.0110   74.0710  217.9270 C.3     1  UNL1        0.0143
     20 N         141.0930   74.0180  220.7240 N.ar    1  UNL1       -0.1995
     21 C         140.0940   74.2640  221.6220 C.ar    1  UNL1        0.2215
     22 N         139.3500   75.4640  221.4500 N.pl3   1  UNL1       -0.2949
     23 C         140.0150   76.7410  221.6130 C.3     1  UNL1        0.0192
     24 C         139.0840   77.8990  221.7360 C.3     1  UNL1       -0.0115
     25 C         137.7460   77.5820  222.2410 C.ar    1  UNL1       -0.0412
     26 C         137.0050   78.4560  223.0220 C.ar    1  UNL1       -0.0582
     27 C         135.7550   78.1710  223.4990 C.ar    1  UNL1       -0.0615
     28 C         135.1740   76.9460  223.1980 C.ar    1  UNL1       -0.0614
     29 C         135.8960   76.0660  222.4230 C.ar    1  UNL1       -0.0568
     30 C         137.1540   76.3700  221.9520 C.ar    1  UNL1       -0.0269
     31 C         137.9380   75.4240  221.1170 C.3     1  UNL1        0.0402
     32 N         139.8110   73.4300  222.6200 N.ar    1  UNL1       -0.1993
     33 C         141.0690   71.4160  225.0160 C.3     1  UNL1        0.0388
     34 H         139.6427   67.8354  228.7405 H       1  UNL1        0.0618
     35 H         140.9952   69.8457  229.3695 H       1  UNL1        0.0618
     36 H         141.6328   71.4687  227.6286 H       1  UNL1        0.0621
     37 H         138.9550   67.5002  226.3595 H       1  UNL1        0.0620
     38 H         140.4309   68.9340  223.6496 H       1  UNL1        0.0328
     39 H         138.8166   68.3942  224.0753 H       1  UNL1        0.0328
     40 H         138.5176   70.5699  222.9277 H       1  UNL1        0.0467
     41 H         138.2913   70.9450  224.6437 H       1  UNL1        0.0467
     42 H         142.1055   71.1279  221.9954 H       1  UNL1        0.0686
     43 H         143.1150   71.6550  219.6710 H       1  UNL1        0.1478
     44 H         144.6196   73.2270  219.0086 H       1  UNL1        0.0510
     45 H         143.6715   74.6258  221.1402 H       1  UNL1        0.0284
     46 H         145.0449   75.0466  220.0459 H       1  UNL1        0.0284
     47 H         142.1421   75.9436  219.8101 H       1  UNL1        0.0278
     48 H         143.6025   76.9513  220.1974 H       1  UNL1        0.0278
     49 H         142.5075   76.7758  217.7615 H       1  UNL1        0.0424
     50 H         144.2828   77.0540  218.1052 H       1  UNL1        0.0424
     51 H         144.8190   74.9650  217.4970 H       1  UNL1        0.1220
     52 H         141.9681   74.3823  218.0864 H       1  UNL1        0.0442
     53 H         143.0022   73.2286  217.2197 H       1  UNL1        0.0442
     54 H         140.6325   76.6957  222.5222 H       1  UNL1        0.0468
     55 H         140.6110   76.9074  220.7036 H       1  UNL1        0.0468
     56 H         139.5402   78.6294  222.4204 H       1  UNL1        0.0328
     57 H         138.9387   78.2793  220.7141 H       1  UNL1        0.0328
     58 H         137.4466   79.4320  223.2717 H       1  UNL1        0.0620
     59 H         135.2151   78.9051  224.1151 H       1  UNL1        0.0618
     60 H         134.1704   76.6873  223.5664 H       1  UNL1        0.0618
     61 H         135.4544   75.0902  222.1724 H       1  UNL1        0.0621
     62 H         137.5606   74.4041  221.2825 H       1  UNL1        0.0514
     63 H         137.8238   75.7180  220.0632 H       1  UNL1        0.0514
     64 H         142.0841   71.1690  224.6717 H       1  UNL1        0.0513
     65 H         141.0129   72.4073  225.4894 H       1  UNL1        0.0513
@<TRIPOS>BOND
     1     1     2   ar
     2     2     3   ar
     3     3     4   ar
     4     4     5   ar
     5     5     6   ar
     6     5     7    1
     7     7     8    1
     8     8     9    1
     9     9    10    1
    10    10    11   ar
    11    11    12   ar
    12    12    13    1
    13    13    14    1
    14    14    15    1
    15    15    16    1
    16    16    17    1
    17    17    18    1
    18    18    19    1
    19    12    20   ar
    20    20    21   ar
    21    21    22    1
    22    22    23    1
    23    23    24    1
    24    24    25    1
    25    25    26   ar
    26    26    27   ar
    27    27    28   ar
    28    28    29   ar
    29    29    30   ar
    30    30    31    1
    31    21    32   ar
    32     9    33    1
    33     6     1   ar
    34    32    10   ar
    35    33     4    1
    36    19    14    1
    37    31    22    1
    38    30    25   ar
    39     1    34    1
    40     2    35    1
    41     3    36    1
    42     6    37    1
    43     7    38    1
    44     7    39    1
    45     8    40    1
    46     8    41    1
    47    11    42    1
    48    13    43    1
    49    14    44    1
    50    15    45    1
    51    15    46    1
    52    16    47    1
    53    16    48    1
    54    17    49    1
    55    17    50    1
    56    18    51    1
    57    19    52    1
    58    19    53    1
    59    23    54    1
    60    23    55    1
    61    24    56    1
    62    24    57    1
    63    26    58    1
    64    27    59    1
    65    28    60    1
    66    29    61    1
    67    31    62    1
    68    31    63    1
    69    33    64    1
    70    33    65    1
