@<TRIPOS>MOLECULE
*****
 68 73 0 0 0
SMALL
GASTEIGER

@<TRIPOS>ATOM
      1 C         141.5080   79.0310  223.5830 C.3     1  UNL1       -0.0525
      2 C         141.7820   79.1510  222.0860 C.3     1  UNL1       -0.0047
      3 N         140.6050   78.7040  221.3680 N.3     1  UNL1       -0.2906
      4 C         140.8730   77.6320  220.4350 C.3     1  UNL1        0.1253
      5 C         141.4560   76.4960  221.2150 C.3     1  UNL1        0.0547
      6 N         140.4870   75.4580  221.4220 N.pl3   1  UNL1       -0.2935
      7 C         140.9020   74.0920  221.6300 C.ar    1  UNL1        0.2239
      8 N         141.8530   73.5210  220.8550 N.ar    1  UNL1       -0.1807
      9 C         142.2180   72.2550  221.0700 C.ar    1  UNL1        0.2240
     10 N         143.2090   71.5730  220.3050 N.pl3   1  UNL1       -0.2948
     11 C         144.3850   72.2500  219.8070 C.3     1  UNL1        0.0192
     12 C         144.5510   71.8130  218.3490 C.3     1  UNL1       -0.0115
     13 C         144.9310   70.3590  218.4420 C.ar    1  UNL1       -0.0412
     14 C         145.9920   69.8470  217.7280 C.ar    1  UNL1       -0.0582
     15 C         146.3230   68.5160  217.8270 C.ar    1  UNL1       -0.0615
     16 C         145.5550   67.7160  218.6620 C.ar    1  UNL1       -0.0614
     17 C         144.4850   68.2440  219.3790 C.ar    1  UNL1       -0.0568
     18 C         144.1440   69.5940  219.2830 C.ar    1  UNL1       -0.0269
     19 C         143.0190   70.1720  220.0300 C.3     1  UNL1        0.0402
     20 N         141.6120   71.5670  222.0780 N.ar    1  UNL1       -0.1807
     21 C         140.6750   72.1090  222.8510 C.ar    1  UNL1        0.2240
     22 N         140.0250   71.4050  223.9150 N.pl3   1  UNL1       -0.2948
     23 C         138.9090   70.5230  223.6520 C.3     1  UNL1        0.0192
     24 C         139.2420   69.0900  224.0750 C.3     1  UNL1       -0.0115
     25 C         139.6780   69.1910  225.4910 C.ar    1  UNL1       -0.0412
     26 C         139.4960   68.0810  226.2840 C.ar    1  UNL1       -0.0582
     27 C         139.8670   68.0750  227.6100 C.ar    1  UNL1       -0.0615
     28 C         140.4440   69.2110  228.1800 C.ar    1  UNL1       -0.0614
     29 C         140.6240   70.3220  227.3790 C.ar    1  UNL1       -0.0568
     30 C         140.2450   70.3220  226.0360 C.ar    1  UNL1       -0.0269
     31 C         140.4890   71.5730  225.2780 C.3     1  UNL1        0.0402
     32 N         140.3270   73.3870  222.6110 N.ar    1  UNL1       -0.1807
     33 C         139.0890   75.8140  221.4160 C.3     1  UNL1        0.0385
     34 C         138.7330   76.7340  220.2720 C.3     1  UNL1        0.0655
     35 O         139.8090   77.3000  219.6520 O.3     1  UNL1       -0.3587
     36 H         142.3737   79.4102  224.1458 H       1  UNL1        0.0242
     37 H         140.6161   79.6209  223.8409 H       1  UNL1        0.0242
     38 H         141.3367   77.9755  223.8409 H       1  UNL1        0.0242
     39 H         141.9972   80.1991  221.8306 H       1  UNL1        0.0422
     40 H         142.6499   78.5341  221.8101 H       1  UNL1        0.0422
     41 H         139.7970   78.5360  221.9700 H       1  UNL1        0.1243
     42 H         141.6051   77.9642  219.6842 H       1  UNL1        0.0783
     43 H         142.3121   76.0826  220.6616 H       1  UNL1        0.0504
     44 H         141.7757   76.8752  222.1968 H       1  UNL1        0.0504
     45 H         144.2492   73.3401  219.8643 H       1  UNL1        0.0468
     46 H         145.2738   71.9956  220.4031 H       1  UNL1        0.0468
     47 H         143.6086   71.9356  217.7950 H       1  UNL1        0.0328
     48 H         145.3012   72.4118  217.8118 H       1  UNL1        0.0328
     49 H         146.5791   70.5081  217.0735 H       1  UNL1        0.0620
     50 H         147.1696   68.0984  217.2623 H       1  UNL1        0.0618
     51 H         145.7960   66.6471  218.7587 H       1  UNL1        0.0618
     52 H         143.8968   67.5844  220.0340 H       1  UNL1        0.0621
     53 H         142.1003   70.0490  219.4376 H       1  UNL1        0.0514
     54 H         142.9485   69.6460  220.9935 H       1  UNL1        0.0514
     55 H         138.0319   70.8718  224.2168 H       1  UNL1        0.0468
     56 H         138.6961   70.5333  222.5728 H       1  UNL1        0.0468
     57 H         138.3536   68.4469  223.9903 H       1  UNL1        0.0328
     58 H         140.0195   68.6442  223.4372 H       1  UNL1        0.0328
     59 H         139.0437   67.1778  225.8485 H       1  UNL1        0.0620
     60 H         139.7085   67.1740  228.2208 H       1  UNL1        0.0618
     61 H         140.7469   69.2213  229.2374 H       1  UNL1        0.0618
     62 H         141.0764   71.2274  227.8097 H       1  UNL1        0.0621
     63 H         139.9438   72.4024  225.7523 H       1  UNL1        0.0514
     64 H         141.5656   71.7987  225.2758 H       1  UNL1        0.0514
     65 H         138.4910   74.8949  221.3292 H       1  UNL1        0.0487
     66 H         138.8752   76.3475  222.3539 H       1  UNL1        0.0487
     67 H         138.1707   76.1540  219.5254 H       1  UNL1        0.0576
     68 H         138.1463   77.5593  220.7017 H       1  UNL1        0.0576
@<TRIPOS>BOND
     1     1     2    1
     2     2     3    1
     3     3     4    1
     4     4     5    1
     5     5     6    1
     6     6     7    1
     7     7     8   ar
     8     8     9   ar
     9     9    10    1
    10    10    11    1
    11    11    12    1
    12    12    13    1
    13    13    14   ar
    14    14    15   ar
    15    15    16   ar
    16    16    17   ar
    17    17    18   ar
    18    18    19    1
    19     9    20   ar
    20    20    21   ar
    21    21    22    1
    22    22    23    1
    23    23    24    1
    24    24    25    1
    25    25    26   ar
    26    26    27   ar
    27    27    28   ar
    28    28    29   ar
    29    29    30   ar
    30    30    31    1
    31    21    32   ar
    32     6    33    1
    33    33    34    1
    34    34    35    1
    35    35     4    1
    36    32     7   ar
    37    19    10    1
    38    31    22    1
    39    18    13   ar
    40    30    25   ar
    41     1    36    1
    42     1    37    1
    43     1    38    1
    44     2    39    1
    45     2    40    1
    46     3    41    1
    47     4    42    1
    48     5    43    1
    49     5    44    1
    50    11    45    1
    51    11    46    1
    52    12    47    1
    53    12    48    1
    54    14    49    1
    55    15    50    1
    56    16    51    1
    57    17    52    1
    58    19    53    1
    59    19    54    1
    60    23    55    1
    61    23    56    1
    62    24    57    1
    63    24    58    1
    64    26    59    1
    65    27    60    1
    66    28    61    1
    67    29    62    1
    68    31    63    1
    69    31    64    1
    70    33    65    1
    71    33    66    1
    72    34    67    1
    73    34    68    1
