
 56 59  0  0  0  0  0  0  0  0999 V2000
  140.2820   71.0280  221.3150 O   0  0  0  0  0  0  0  0  0  0  0  0
  140.0910   71.5520  222.4260 C   0  0  0  0  0  0  0  0  0  0  0  0
  139.9740   72.9910  222.5820 N   0  0  0  0  0  0  0  0  0  0  0  0
  140.0870   73.7750  221.4060 C   0  0  0  0  0  0  0  0  0  0  0  0
  140.1580   75.2150  221.5050 C   0  0  0  0  0  0  0  0  0  0  0  0
  139.9490   75.6720  222.7160 O   0  0  0  0  0  0  0  0  0  0  0  0
  140.4080   76.2130  220.5560 N   0  0  0  0  0  0  0  0  0  0  0  0
  139.7890   76.3480  219.2470 C   0  0  0  0  0  0  0  0  0  0  0  0
  140.7960   76.3140  218.1430 C   0  0  0  0  0  0  0  0  0  0  0  0
  142.2110   76.3140  218.6020 C   0  0  0  0  0  0  0  0  0  0  0  0
  142.5440   76.9570  219.8820 C   0  0  0  0  0  0  0  0  0  0  0  0
  141.4220   77.2290  220.8400 C   0  0  1  0  0  0  0  0  0  0  0  0
  140.9900   78.6370  220.6900 C   0  0  0  0  0  0  0  0  0  0  0  0
  141.9110   79.4270  221.5290 N   0  0  0  0  0  0  0  0  0  0  0  0
  142.0650   78.9150  222.8420 C   0  0  0  0  0  0  0  0  0  0  0  0
  141.9190   80.0630  223.8120 C   0  0  0  0  0  0  0  0  0  0  0  0
  141.7660   81.2980  222.9750 C   0  0  0  0  0  0  0  0  0  0  0  0
  141.5410   80.7990  221.5770 C   0  0  0  0  0  0  0  0  0  0  0  0
  139.9730   70.7470  223.6350 C   0  0  0  0  0  0  0  0  0  0  0  0
  139.3690   69.5000  223.5550 C   0  0  0  0  0  0  0  0  0  0  0  0
  139.2290   68.6890  224.6860 C   0  0  0  0  0  0  0  0  0  0  0  0
  139.7020   69.1410  225.9030 C   0  0  0  0  0  0  0  0  0  0  0  0
  139.6170   68.4320  227.0710 C   0  0  0  0  0  0  0  0  0  0  0  0
  140.1180   68.9530  228.2650 C   0  0  0  0  0  0  0  0  0  0  0  0
  140.7170   70.2080  228.3040 C   0  0  0  0  0  0  0  0  0  0  0  0
  140.7960   70.9140  227.1160 C   0  0  0  0  0  0  0  0  0  0  0  0
  140.2930   70.3780  225.9440 C   0  0  0  0  0  0  0  0  0  0  0  0
  140.4220   71.1540  224.8350 N   0  0  0  0  0  0  0  0  0  0  0  0
  139.8160   73.3920  223.5330 H   0  0  0  0  0  0  0  0  0  0  0  0
  141.0016   73.4460  220.8910 H   0  0  0  0  0  0  0  0  0  0  0  0
  139.1297   73.6024  220.8924 H   0  0  0  0  0  0  0  0  0  0  0  0
  139.0777   75.5212  219.1040 H   0  0  0  0  0  0  0  0  0  0  0  0
  139.2802   77.3226  219.2116 H   0  0  0  0  0  0  0  0  0  0  0  0
  140.6265   75.4028  217.5506 H   0  0  0  0  0  0  0  0  0  0  0  0
  140.6548   77.2365  217.5606 H   0  0  0  0  0  0  0  0  0  0  0  0
  142.5256   75.2627  218.6776 H   0  0  0  0  0  0  0  0  0  0  0  0
  142.7317   76.9294  217.8536 H   0  0  0  0  0  0  0  0  0  0  0  0
  143.2658   76.3068  220.3980 H   0  0  0  0  0  0  0  0  0  0  0  0
  142.9181   77.9531  219.6030 H   0  0  0  0  0  0  0  0  0  0  0  0
  141.6916   77.1431  221.9030 H   0  0  0  0  0  0  0  0  0  0  0  0
  141.0637   78.9511  219.6384 H   0  0  0  0  0  0  0  0  0  0  0  0
  139.9422   78.7755  220.9948 H   0  0  0  0  0  0  0  0  0  0  0  0
  141.2917   78.1583  223.0404 H   0  0  0  0  0  0  0  0  0  0  0  0
  143.0525   78.4437  222.9544 H   0  0  0  0  0  0  0  0  0  0  0  0
  141.0307   79.9179  224.4443 H   0  0  0  0  0  0  0  0  0  0  0  0
  142.7888   80.1365  224.4814 H   0  0  0  0  0  0  0  0  0  0  0  0
  140.9049   81.8913  223.3163 H   0  0  0  0  0  0  0  0  0  0  0  0
  142.6477   81.9523  223.0417 H   0  0  0  0  0  0  0  0  0  0  0  0
  140.4796   80.9078  221.3093 H   0  0  0  0  0  0  0  0  0  0  0  0
  142.1451   81.3801  220.8648 H   0  0  0  0  0  0  0  0  0  0  0  0
  138.9936   69.1430  222.5846 H   0  0  0  0  0  0  0  0  0  0  0  0
  138.7480   67.7029  224.6075 H   0  0  0  0  0  0  0  0  0  0  0  0
  139.1471   67.4374  227.0685 H   0  0  0  0  0  0  0  0  0  0  0  0
  140.0380   68.3622  229.1894 H   0  0  0  0  0  0  0  0  0  0  0  0
  141.1126   70.6233  229.2427 H   0  0  0  0  0  0  0  0  0  0  0  0
  141.2628   71.9100  227.1037 H   0  0  0  0  0  0  0  0  0  0  0  0
  1  2  2  0
  2  3  1  0
  3  4  1  0
  4  5  1  0
  5  6  2  0
  5  7  1  0
  7  8  1  0
  8  9  1  0
  9 10  1  0
 10 11  1  0
 11 12  1  0
 12 13  1  0
 13 14  1  0
 14 15  1  0
 15 16  1  0
 16 17  1  0
 17 18  1  0
  2 19  1  0
 19 20  2  0
 20 21  1  0
 21 22  2  0
 22 23  1  0
 23 24  2  0
 24 25  1  0
 25 26  2  0
 26 27  1  0
 27 28  2  0
 12  7  1  0
 18 14  1  0
 28 19  1  0
 27 22  1  0
  3 29  1  0
  4 30  1  0
  4 31  1  0
  8 32  1  0
  8 33  1  0
  9 34  1  0
  9 35  1  0
 10 36  1  0
 10 37  1  0
 11 38  1  0
 11 39  1  0
 12 40  1  1
 13 41  1  0
 13 42  1  0
 15 43  1  0
 15 44  1  0
 16 45  1  0
 16 46  1  0
 17 47  1  0
 17 48  1  0
 18 49  1  0
 18 50  1  0
 20 51  1  0
 21 52  1  0
 23 53  1  0
 24 54  1  0
 25 55  1  0
 26 56  1  0
M  END
