@<TRIPOS>MOLECULE
*****
 60 65 0 0 0
SMALL
GASTEIGER

@<TRIPOS>ATOM
      1 O         133.7430   73.7160  226.4800 O.3     1  UNL1       -0.5067
      2 C         134.3330   74.5810  225.5750 C.ar    1  UNL1        0.1186
      3 C         134.0220   75.9070  225.6570 C.ar    1  UNL1       -0.0201
      4 C         134.6040   76.7750  224.7590 C.ar    1  UNL1       -0.0566
      5 C         135.4890   76.2910  223.7950 C.ar    1  UNL1       -0.0402
      6 C         135.8190   74.9630  223.6900 C.ar    1  UNL1        0.0370
      7 N         136.7050   74.4180  222.7380 N.pl3   1  UNL1       -0.2834
      8 C         137.9400   74.9300  222.3310 C.ar    1  UNL1        0.2254
      9 N         138.1570   76.2770  222.4610 N.ar    1  UNL1       -0.1806
     10 C         139.3050   76.8680  222.1020 C.ar    1  UNL1        0.2240
     11 N         139.4850   78.2700  222.2550 N.pl3   1  UNL1       -0.2948
     12 C         138.7080   78.9860  223.2240 C.3     1  UNL1        0.0192
     13 C         139.1010   80.4490  223.2480 C.3     1  UNL1       -0.0115
     14 C         140.5850   80.5110  223.2970 C.ar    1  UNL1       -0.0412
     15 C         141.2800   81.2780  224.2090 C.ar    1  UNL1       -0.0582
     16 C         142.6760   81.2900  224.2000 C.ar    1  UNL1       -0.0615
     17 C         143.3590   80.5230  223.2630 C.ar    1  UNL1       -0.0614
     18 C         142.6700   79.7450  222.3370 C.ar    1  UNL1       -0.0568
     19 C         141.2910   79.7590  222.3780 C.ar    1  UNL1       -0.0269
     20 C         140.4630   78.9520  221.4190 C.3     1  UNL1        0.0402
     21 N         140.2830   76.1020  221.5930 N.ar    1  UNL1       -0.1807
     22 C         140.1200   74.7750  221.4450 C.ar    1  UNL1        0.2240
     23 N         141.1960   73.9950  220.8940 N.pl3   1  UNL1       -0.2948
     24 C         141.2130   72.5880  221.2250 C.3     1  UNL1        0.0192
     25 C         141.9860   71.8720  220.1210 C.3     1  UNL1       -0.0115
     26 C         143.3710   72.4570  220.1970 C.ar    1  UNL1       -0.0412
     27 C         144.4930   71.6600  220.2910 C.ar    1  UNL1       -0.0582
     28 C         145.7400   72.2740  220.3570 C.ar    1  UNL1       -0.0615
     29 C         145.7930   73.6690  220.3270 C.ar    1  UNL1       -0.0614
     30 C         144.6630   74.4440  220.2340 C.ar    1  UNL1       -0.0568
     31 C         143.4350   73.8360  220.1690 C.ar    1  UNL1       -0.0269
     32 C         142.1690   74.6430  220.0670 C.3     1  UNL1        0.0402
     33 N         138.9570   74.2360  221.8180 N.ar    1  UNL1       -0.1806
     34 C         135.2040   74.1180  224.6220 C.ar    1  UNL1        0.0011
     35 H         133.2590   72.8790  226.1720 H       1  UNL1        0.2921
     36 H         133.3227   76.2746  226.4224 H       1  UNL1        0.0654
     37 H         134.3710   77.8492  224.8021 H       1  UNL1        0.0619
     38 H         135.9412   77.0037  223.0896 H       1  UNL1        0.0636
     39 H         136.3850   73.5100  222.2840 H       1  UNL1        0.1550
     40 H         137.6420   78.9023  222.9657 H       1  UNL1        0.0468
     41 H         138.8942   78.5527  224.2178 H       1  UNL1        0.0468
     42 H         138.7336   80.9517  222.3412 H       1  UNL1        0.0328
     43 H         138.6626   80.9541  224.1213 H       1  UNL1        0.0328
     44 H         140.7319   81.8827  224.9465 H       1  UNL1        0.0620
     45 H         143.2305   81.9008  224.9277 H       1  UNL1        0.0618
     46 H         144.4589   80.5311  223.2533 H       1  UNL1        0.0618
     47 H         143.2087   79.1374  221.5950 H       1  UNL1        0.0621
     48 H         139.9614   79.6084  220.6927 H       1  UNL1        0.0514
     49 H         141.0730   78.2475  220.8346 H       1  UNL1        0.0514
     50 H         141.7114   72.4351  222.1936 H       1  UNL1        0.0468
     51 H         140.1891   72.1935  221.3026 H       1  UNL1        0.0468
     52 H         142.0106   70.7874  220.3030 H       1  UNL1        0.0328
     53 H         141.5265   72.0072  219.1307 H       1  UNL1        0.0328
     54 H         144.4039   70.5638  220.3133 H       1  UNL1        0.0620
     55 H         146.6602   71.6759  220.4309 H       1  UNL1        0.0618
     56 H         146.7737   74.1644  220.3797 H       1  UNL1        0.0618
     57 H         144.7418   75.5410  220.2118 H       1  UNL1        0.0621
     58 H         142.3446   75.6691  220.4223 H       1  UNL1        0.0514
     59 H         141.8229   74.7033  219.0246 H       1  UNL1        0.0514
     60 H         135.4280   73.0416  224.5885 H       1  UNL1        0.0673
@<TRIPOS>BOND
     1     1     2    1
     2     2     3   ar
     3     3     4   ar
     4     4     5   ar
     5     5     6   ar
     6     6     7    1
     7     7     8    1
     8     8     9   ar
     9     9    10   ar
    10    10    11    1
    11    11    12    1
    12    12    13    1
    13    13    14    1
    14    14    15   ar
    15    15    16   ar
    16    16    17   ar
    17    17    18   ar
    18    18    19   ar
    19    19    20    1
    20    10    21   ar
    21    21    22   ar
    22    22    23    1
    23    23    24    1
    24    24    25    1
    25    25    26    1
    26    26    27   ar
    27    27    28   ar
    28    28    29   ar
    29    29    30   ar
    30    30    31   ar
    31    31    32    1
    32    22    33   ar
    33     6    34   ar
    34    34     2   ar
    35    33     8   ar
    36    20    11    1
    37    32    23    1
    38    19    14   ar
    39    31    26   ar
    40     1    35    1
    41     3    36    1
    42     4    37    1
    43     5    38    1
    44     7    39    1
    45    12    40    1
    46    12    41    1
    47    13    42    1
    48    13    43    1
    49    15    44    1
    50    16    45    1
    51    17    46    1
    52    18    47    1
    53    20    48    1
    54    20    49    1
    55    24    50    1
    56    24    51    1
    57    25    52    1
    58    25    53    1
    59    27    54    1
    60    28    55    1
    61    29    56    1
    62    30    57    1
    63    32    58    1
    64    32    59    1
    65    34    60    1
