
     RDKit          3D

 69 73  0  0  0  0  0  0  0  0999 V2000
  139.9980   70.9610  221.4220 O   0  0  0  0  0  0  0  0  0  0  0  0
  139.9430   71.4750  222.5710 C   0  0  0  0  0  0  0  0  0  0  0  0
  139.8820   72.9060  222.6120 N   0  0  0  0  0  0  0  0  0  0  0  0
  139.8890   73.5870  221.3340 C   0  0  0  0  0  0  0  0  0  0  0  0
  139.8860   75.0590  221.4700 C   0  0  0  0  0  0  0  0  0  0  0  0
  139.7350   75.6630  222.5640 O   0  0  0  0  0  0  0  0  0  0  0  0
  140.0600   75.8380  220.3110 N   0  0  0  0  0  0  0  0  0  0  0  0
  139.0080   76.5870  219.6690 C   0  0  0  0  0  0  0  0  0  0  0  0
  139.5450   77.0440  218.3330 C   0  0  2  0  0  0  0  0  0  0  0  0
  138.5900   76.8670  217.3230 O   0  0  0  0  0  0  0  0  0  0  0  0
  140.7330   76.1560  218.1190 C   0  0  0  0  0  0  0  0  0  0  0  0
  141.2850   76.0540  219.5330 C   0  0  1  0  0  0  0  0  0  0  0  0
  141.7910   77.4210  219.9010 C   0  0  0  0  0  0  0  0  0  0  0  0
  142.5340   78.0590  219.0820 O   0  0  0  0  0  0  0  0  0  0  0  0
  141.4210   77.9480  221.1440 N   0  0  0  0  0  0  0  0  0  0  0  0
  141.8480   79.2640  221.6140 C   0  0  2  0  0  0  0  0  0  0  0  0
  142.4360   79.0450  222.9750 C   0  0  0  0  0  0  0  0  0  0  0  0
  142.6390   80.2870  223.7820 C   0  0  0  0  0  0  0  0  0  0  0  0
  141.4490   81.1740  223.8240 C   0  0  0  0  0  0  0  0  0  0  0  0
  140.3660   80.8840  222.8440 C   0  0  0  0  0  0  0  0  0  0  0  0
  140.7700   80.2810  221.5480 C   0  0  1  0  0  0  0  0  0  0  0  0
  141.0450   81.3200  220.4920 C   0  0  0  0  0  0  0  0  0  0  0  0
  140.5810   82.6140  220.6470 C   0  0  0  0  0  0  0  0  0  0  0  0
  140.8370   83.5760  219.6660 C   0  0  0  0  0  0  0  0  0  0  0  0
  141.5610   83.2240  218.5310 C   0  0  0  0  0  0  0  0  0  0  0  0
  142.0240   81.9410  218.3740 C   0  0  0  0  0  0  0  0  0  0  0  0
  141.7620   81.0020  219.3520 C   0  0  0  0  0  0  0  0  0  0  0  0
  139.9420   70.6800  223.7870 C   0  0  0  0  0  0  0  0  0  0  0  0
  139.3520   69.4310  223.7340 C   0  0  0  0  0  0  0  0  0  0  0  0
  139.2980   68.6020  224.8330 C   0  0  0  0  0  0  0  0  0  0  0  0
  139.8470   69.0330  226.0040 C   0  0  0  0  0  0  0  0  0  0  0  0
  139.8220   68.2360  227.1460 C   0  0  0  0  0  0  0  0  0  0  0  0
  140.3750   68.6610  228.3430 C   0  0  0  0  0  0  0  0  0  0  0  0
  140.3190   67.8440  229.4110 F   0  0  0  0  0  0  0  0  0  0  0  0
  140.9640   69.9150  228.3820 C   0  0  0  0  0  0  0  0  0  0  0  0
  140.9790   70.6900  227.2390 C   0  0  0  0  0  0  0  0  0  0  0  0
  140.4370   70.2920  226.0420 C   0  0  0  0  0  0  0  0  0  0  0  0
  140.4750   71.0840  224.9490 N   0  0  0  0  0  0  0  0  0  0  0  0
  139.8340   73.4130  223.5260 H   0  0  0  0  0  0  0  0  0  0  0  0
  140.7911   73.2869  220.7806 H   0  0  0  0  0  0  0  0  0  0  0  0
  138.9700   73.3015  220.8012 H   0  0  0  0  0  0  0  0  0  0  0  0
  138.1244   75.9484  219.5228 H   0  0  0  0  0  0  0  0  0  0  0  0
  138.7046   77.4461  220.2854 H   0  0  0  0  0  0  0  0  0  0  0  0
  139.8008   78.1136  218.3112 H   0  0  0  0  0  0  0  0  0  0  0  0
  138.4440   77.7820  216.9580 H   0  0  0  0  0  0  0  0  0  0  0  0
  140.4351   75.1709  217.7307 H   0  0  0  0  0  0  0  0  0  0  0  0
  141.4533   76.5363  217.3798 H   0  0  0  0  0  0  0  0  0  0  0  0
  142.0709   75.2974  219.6739 H   0  0  0  0  0  0  0  0  0  0  0  0
  140.8060   77.4180  221.8170 H   0  0  0  0  0  0  0  0  0  0  0  0
  142.6106   79.7036  220.9543 H   0  0  0  0  0  0  0  0  0  0  0  0
  141.7620   78.3803  223.5352 H   0  0  0  0  0  0  0  0  0  0  0  0
  143.4360   78.6164  222.8129 H   0  0  0  0  0  0  0  0  0  0  0  0
  142.8903   79.9943  224.8122 H   0  0  0  0  0  0  0  0  0  0  0  0
  143.4464   80.8559  223.2979 H   0  0  0  0  0  0  0  0  0  0  0  0
  141.0148   81.1022  224.8321 H   0  0  0  0  0  0  0  0  0  0  0  0
  141.8226   82.1733  223.5559 H   0  0  0  0  0  0  0  0  0  0  0  0
  139.6598   80.1918  223.3257 H   0  0  0  0  0  0  0  0  0  0  0  0
  139.9480   81.8673  222.5824 H   0  0  0  0  0  0  0  0  0  0  0  0
  139.8804   79.7086  221.2463 H   0  0  0  0  0  0  0  0  0  0  0  0
  140.0084   82.8868  221.5457 H   0  0  0  0  0  0  0  0  0  0  0  0
  140.4685   84.6049  219.7903 H   0  0  0  0  0  0  0  0  0  0  0  0
  141.7634   83.9775  217.7556 H   0  0  0  0  0  0  0  0  0  0  0  0
  142.5982   81.6637  217.4777 H   0  0  0  0  0  0  0  0  0  0  0  0
  142.1328   79.9747  219.2215 H   0  0  0  0  0  0  0  0  0  0  0  0
  138.9123   69.0887  222.7856 H   0  0  0  0  0  0  0  0  0  0  0  0
  138.8217   67.6127  224.7670 H   0  0  0  0  0  0  0  0  0  0  0  0
  139.3509   67.2432  227.0962 H   0  0  0  0  0  0  0  0  0  0  0  0
  141.4146   70.2889  229.3132 H   0  0  0  0  0  0  0  0  0  0  0  0
  141.4518   71.6819  227.2905 H   0  0  0  0  0  0  0  0  0  0  0  0
  1  2  2  0
  2  3  1  0
  3  4  1  0
  4  5  1  0
  5  6  2  0
  5  7  1  0
  7  8  1  0
  8  9  1  0
  9 10  1  0
  9 11  1  0
 11 12  1  0
 12 13  1  0
 13 14  2  0
 13 15  1  0
 15 16  1  0
 16 17  1  0
 17 18  1  0
 18 19  1  0
 19 20  1  0
 20 21  1  0
 21 22  1  0
 22 23  2  0
 23 24  1  0
 24 25  2  0
 25 26  1  0
 26 27  2  0
  2 28  1  0
 28 29  2  0
 29 30  1  0
 30 31  2  0
 31 32  1  0
 32 33  2  0
 33 34  1  0
 33 35  1  0
 35 36  2  0
 36 37  1  0
 37 38  2  0
 12  7  1  0
 21 16  1  0
 27 22  1  0
 38 28  1  0
 37 31  1  0
  3 39  1  0
  4 40  1  0
  4 41  1  0
  8 42  1  0
  8 43  1  0
  9 44  1  1
 10 45  1  0
 11 46  1  0
 11 47  1  0
 12 48  1  6
 15 49  1  0
 16 50  1  6
 17 51  1  0
 17 52  1  0
 18 53  1  0
 18 54  1  0
 19 55  1  0
 19 56  1  0
 20 57  1  0
 20 58  1  0
 21 59  1  6
 23 60  1  0
 24 61  1  0
 25 62  1  0
 26 63  1  0
 27 64  1  0
 29 65  1  0
 30 66  1  0
 32 67  1  0
 35 68  1  0
 36 69  1  0
M  END
>  <smiles>  (1) 
O=C(NCC(=O)N1C[C@H](O)C[C@H]1C(=O)N[C@@H]1CCCC[C@H]1c1ccccc1)c1ccc2cc(F)ccc2n1

>  <score_type>  (1) 
oracle

>  <origin>  (1) 
autodockgpu

>  <m_score__min__energy>  (1) 
-10.26

>  <m_primary>  (1) 
energy

>  <rmsd>  (1) 
1.7044453967974704

>  <m_score__min__rmsd>  (1) 
1.7044453967974704

>  <meeko>  (1) 
{"free_energy": -8.73, "intermolecular_energy": -11.12, "internal_energy": -3.34, "cluster_size": 10, "cluster_id": 3, "rank_in_cluster": 8}

>  <energy>  (1) 
-10.26

>  <cluster_rmsd>  (1) 
0.0

>  <cluster>  (1) 
1

$$$$

     RDKit          3D

 69 73  0  0  0  0  0  0  0  0999 V2000
  139.5560   73.7950  222.4120 O   0  0  0  0  0  0  0  0  0  0  0  0
  140.2340   72.7320  222.4060 C   0  0  0  0  0  0  0  0  0  0  0  0
  141.0510   72.5220  221.2470 N   0  0  0  0  0  0  0  0  0  0  0  0
  141.0020   73.5510  220.2300 C   0  0  0  0  0  0  0  0  0  0  0  0
  142.3450   73.9990  219.8040 C   0  0  0  0  0  0  0  0  0  0  0  0
  143.4190   73.4870  220.2140 O   0  0  0  0  0  0  0  0  0  0  0  0
  142.4360   75.0630  218.8870 N   0  0  0  0  0  0  0  0  0  0  0  0
  141.5960   75.2070  217.7240 C   0  0  0  0  0  0  0  0  0  0  0  0
  142.1970   76.3080  216.8810 C   0  0  2  0  0  0  0  0  0  0  0  0
  142.2030   75.9530  215.5250 O   0  0  0  0  0  0  0  0  0  0  0  0
  143.5910   76.4280  217.4170 C   0  0  0  0  0  0  0  0  0  0  0  0
  143.3560   76.2050  218.9040 C   0  0  1  0  0  0  0  0  0  0  0  0
  142.5680   77.3840  219.4000 C   0  0  0  0  0  0  0  0  0  0  0  0
  142.3610   78.3760  218.6240 O   0  0  0  0  0  0  0  0  0  0  0  0
  142.0830   77.3460  220.7140 N   0  0  0  0  0  0  0  0  0  0  0  0
  141.3040   78.4290  221.3100 C   0  0  2  0  0  0  0  0  0  0  0  0
  142.1560   79.6570  221.2040 C   0  0  0  0  0  0  0  0  0  0  0  0
  141.7050   80.8130  222.0390 C   0  0  0  0  0  0  0  0  0  0  0  0
  141.4160   80.4540  223.4500 C   0  0  0  0  0  0  0  0  0  0  0  0
  141.3100   79.0020  223.7610 C   0  0  0  0  0  0  0  0  0  0  0  0
  140.8220   78.1110  222.6770 C   0  0  1  0  0  0  0  0  0  0  0  0
  139.3260   77.9290  222.7130 C   0  0  0  0  0  0  0  0  0  0  0  0
  138.7690   76.6780  222.5100 C   0  0  0  0  0  0  0  0  0  0  0  0
  137.3820   76.5120  222.5450 C   0  0  0  0  0  0  0  0  0  0  0  0
  136.5640   77.6110  222.7840 C   0  0  0  0  0  0  0  0  0  0  0  0
  137.1120   78.8530  222.9860 C   0  0  0  0  0  0  0  0  0  0  0  0
  138.4850   79.0020  222.9490 C   0  0  0  0  0  0  0  0  0  0  0  0
  140.1990   71.7710  223.4940 C   0  0  0  0  0  0  0  0  0  0  0  0
  139.6510   70.5280  223.2310 C   0  0  0  0  0  0  0  0  0  0  0  0
  139.5710   69.5480  224.1960 C   0  0  0  0  0  0  0  0  0  0  0  0
  140.0490   69.8180  225.4430 C   0  0  0  0  0  0  0  0  0  0  0  0
  139.9940   68.8630  226.4560 C   0  0  0  0  0  0  0  0  0  0  0  0
  140.4750   69.1240  227.7290 C   0  0  0  0  0  0  0  0  0  0  0  0
  140.3930   68.1610  228.6650 F   0  0  0  0  0  0  0  0  0  0  0  0
  141.0210   70.3740  227.9780 C   0  0  0  0  0  0  0  0  0  0  0  0
  141.0670   71.3060  226.9610 C   0  0  0  0  0  0  0  0  0  0  0  0
  140.5960   71.0720  225.6920 C   0  0  0  0  0  0  0  0  0  0  0  0
  140.6620   72.0140  224.7280 N   0  0  0  0  0  0  0  0  0  0  0  0
  141.6460   71.6650  221.1610 H   0  0  0  0  0  0  0  0  0  0  0  0
  140.4694   73.1538  219.3533 H   0  0  0  0  0  0  0  0  0  0  0  0
  140.4844   74.4200  220.6623 H   0  0  0  0  0  0  0  0  0  0  0  0
  141.5725   74.2655  217.1556 H   0  0  0  0  0  0  0  0  0  0  0  0
  140.5631   75.4518  218.0126 H   0  0  0  0  0  0  0  0  0  0  0  0
  141.6348   77.2519  216.9353 H   0  0  0  0  0  0  0  0  0  0  0  0
  142.7560   76.6570  215.0880 H   0  0  0  0  0  0  0  0  0  0  0  0
  144.2533   75.6585  216.9937 H   0  0  0  0  0  0  0  0  0  0  0  0
  144.0870   77.3798  217.1760 H   0  0  0  0  0  0  0  0  0  0  0  0
  144.2666   76.0657  219.5052 H   0  0  0  0  0  0  0  0  0  0  0  0
  142.2550   76.5250  221.3510 H   0  0  0  0  0  0  0  0  0  0  0  0
  140.3590   78.5943  220.7718 H   0  0  0  0  0  0  0  0  0  0  0  0
  143.1778   79.3911  221.5127 H   0  0  0  0  0  0  0  0  0  0  0  0
  142.0884   79.9888  220.1574 H   0  0  0  0  0  0  0  0  0  0  0  0
  142.4962   81.5771  222.0303 H   0  0  0  0  0  0  0  0  0  0  0  0
  140.7640   81.1776  221.6012 H   0  0  0  0  0  0  0  0  0  0  0  0
  142.2221   80.8703  224.0719 H   0  0  0  0  0  0  0  0  0  0  0  0
  140.4177   80.8678  223.6555 H   0  0  0  0  0  0  0  0  0  0  0  0
  142.3112   78.6517  224.0522 H   0  0  0  0  0  0  0  0  0  0  0  0
  140.5459   78.9352  224.5495 H   0  0  0  0  0  0  0  0  0  0  0  0
  141.2943   77.1454  222.9105 H   0  0  0  0  0  0  0  0  0  0  0  0
  139.4203   75.8120  222.3206 H   0  0  0  0  0  0  0  0  0  0  0  0
  136.9397   75.5177  222.3844 H   0  0  0  0  0  0  0  0  0  0  0  0
  135.4717   77.4841  222.8113 H   0  0  0  0  0  0  0  0  0  0  0  0
  136.4642   79.7216  223.1755 H   0  0  0  0  0  0  0  0  0  0  0  0
  138.9206   79.9990  223.1113 H   0  0  0  0  0  0  0  0  0  0  0  0
  139.2680   70.3161  222.2218 H   0  0  0  0  0  0  0  0  0  0  0  0
  139.1301   68.5672  223.9644 H   0  0  0  0  0  0  0  0  0  0  0  0
  139.5576   67.8767  226.2397 H   0  0  0  0  0  0  0  0  0  0  0  0
  141.4134   70.6203  228.9757 H   0  0  0  0  0  0  0  0  0  0  0  0
  141.5053   72.2911  227.1788 H   0  0  0  0  0  0  0  0  0  0  0  0
  1  2  2  0
  2  3  1  0
  3  4  1  0
  4  5  1  0
  5  6  2  0
  5  7  1  0
  7  8  1  0
  8  9  1  0
  9 10  1  0
  9 11  1  0
 11 12  1  0
 12 13  1  0
 13 14  2  0
 13 15  1  0
 15 16  1  0
 16 17  1  0
 17 18  1  0
 18 19  1  0
 19 20  1  0
 20 21  1  0
 21 22  1  0
 22 23  2  0
 23 24  1  0
 24 25  2  0
 25 26  1  0
 26 27  2  0
  2 28  1  0
 28 29  2  0
 29 30  1  0
 30 31  2  0
 31 32  1  0
 32 33  2  0
 33 34  1  0
 33 35  1  0
 35 36  2  0
 36 37  1  0
 37 38  2  0
 12  7  1  0
 21 16  1  0
 27 22  1  0
 38 28  1  0
 37 31  1  0
  3 39  1  0
  4 40  1  0
  4 41  1  0
  8 42  1  0
  8 43  1  0
  9 44  1  6
 10 45  1  0
 11 46  1  0
 11 47  1  0
 12 48  1  1
 15 49  1  0
 16 50  1  6
 17 51  1  0
 17 52  1  0
 18 53  1  0
 18 54  1  0
 19 55  1  0
 19 56  1  0
 20 57  1  0
 20 58  1  0
 21 59  1  1
 23 60  1  0
 24 61  1  0
 25 62  1  0
 26 63  1  0
 27 64  1  0
 29 65  1  0
 30 66  1  0
 32 67  1  0
 35 68  1  0
 36 69  1  0
M  END
>  <smiles>  (2) 
O=C(NCC(=O)N1C[C@H](O)C[C@H]1C(=O)N[C@@H]1CCCC[C@H]1c1ccccc1)c1ccc2cc(F)ccc2n1

>  <score_type>  (2) 
oracle

>  <origin>  (2) 
autodockgpu

>  <m_score__min__energy>  (2) 
-10.26

>  <m_primary>  (2) 
energy

>  <rmsd>  (2) 
3.2353389294930666

>  <m_score__min__rmsd>  (2) 
3.2353389294930666

>  <meeko>  (2) 
{"free_energy": -9.42, "intermolecular_energy": -11.8, "internal_energy": -2.34, "cluster_size": 5, "cluster_id": 2, "rank_in_cluster": 4}

>  <energy>  (2) 
-10.15

>  <cluster_rmsd>  (2) 
1.58

>  <cluster>  (2) 
1

$$$$

     RDKit          3D

 69 73  0  0  0  0  0  0  0  0999 V2000
  139.9800   73.0070  222.6760 O   0  0  0  0  0  0  0  0  0  0  0  0
  140.1280   71.7650  222.8260 C   0  0  0  0  0  0  0  0  0  0  0  0
  140.1170   70.9870  221.6220 N   0  0  0  0  0  0  0  0  0  0  0  0
  139.9400   71.7170  220.3850 C   0  0  0  0  0  0  0  0  0  0  0  0
  141.1950   71.8520  219.6150 C   0  0  0  0  0  0  0  0  0  0  0  0
  141.7520   70.9010  219.0080 O   0  0  0  0  0  0  0  0  0  0  0  0
  141.8090   73.1170  219.5530 N   0  0  0  0  0  0  0  0  0  0  0  0
  142.0600   73.8400  218.3310 C   0  0  0  0  0  0  0  0  0  0  0  0
  142.9660   74.9980  218.6820 C   0  0  2  0  0  0  0  0  0  0  0  0
  143.9860   75.1410  217.7320 O   0  0  0  0  0  0  0  0  0  0  0  0
  143.5190   74.6070  220.0190 C   0  0  0  0  0  0  0  0  0  0  0  0
  142.3080   73.9430  220.6580 C   0  0  1  0  0  0  0  0  0  0  0  0
  141.2880   75.0240  220.8800 C   0  0  0  0  0  0  0  0  0  0  0  0
  140.3470   75.1870  220.0320 O   0  0  0  0  0  0  0  0  0  0  0  0
  141.4110   75.8210  222.0250 N   0  0  0  0  0  0  0  0  0  0  0  0
  140.4820   76.9010  222.3510 C   0  0  2  0  0  0  0  0  0  0  0  0
  139.1160   76.2870  222.3470 C   0  0  0  0  0  0  0  0  0  0  0  0
  137.9840   77.2630  222.3300 C   0  0  0  0  0  0  0  0  0  0  0  0
  138.1230   78.3220  221.2980 C   0  0  0  0  0  0  0  0  0  0  0  0
  139.4600   78.4560  220.6560 C   0  0  0  0  0  0  0  0  0  0  0  0
  140.6430   78.0870  221.4740 C   0  0  1  0  0  0  0  0  0  0  0  0
  141.2120   79.2650  222.2250 C   0  0  0  0  0  0  0  0  0  0  0  0
  140.9290   80.5570  221.8170 C   0  0  0  0  0  0  0  0  0  0  0  0
  141.4570   81.6460  222.5150 C   0  0  0  0  0  0  0  0  0  0  0  0
  142.2700   81.4240  223.6220 C   0  0  0  0  0  0  0  0  0  0  0  0
  142.5530   80.1440  224.0290 C   0  0  0  0  0  0  0  0  0  0  0  0
  142.0240   79.0780  223.3300 C   0  0  0  0  0  0  0  0  0  0  0  0
  140.2990   71.1450  224.1280 C   0  0  0  0  0  0  0  0  0  0  0  0
  140.7820   71.9370  225.1540 C   0  0  0  0  0  0  0  0  0  0  0  0
  140.9800   71.4430  226.4250 C   0  0  0  0  0  0  0  0  0  0  0  0
  140.6870   70.1350  226.6700 C   0  0  0  0  0  0  0  0  0  0  0  0
  140.8680   69.5840  227.9370 C   0  0  0  0  0  0  0  0  0  0  0  0
  140.5750   68.2550  228.2020 C   0  0  0  0  0  0  0  0  0  0  0  0
  140.7710   67.7820  229.4460 F   0  0  0  0  0  0  0  0  0  0  0  0
  140.0920   67.4730  227.1640 C   0  0  0  0  0  0  0  0  0  0  0  0
  139.9200   68.0390  225.9160 C   0  0  0  0  0  0  0  0  0  0  0  0
  140.2030   69.3510  225.6290 C   0  0  0  0  0  0  0  0  0  0  0  0
  140.0180   69.8610  224.3930 N   0  0  0  0  0  0  0  0  0  0  0  0
  140.2340   69.9470  221.6570 H   0  0  0  0  0  0  0  0  0  0  0  0
  139.2029   71.1852  219.7654 H   0  0  0  0  0  0  0  0  0  0  0  0
  139.5997   72.7304  220.6442 H   0  0  0  0  0  0  0  0  0  0  0  0
  142.5520   73.1839  217.5979 H   0  0  0  0  0  0  0  0  0  0  0  0
  141.1198   74.1975  217.8857 H   0  0  0  0  0  0  0  0  0  0  0  0
  142.4449   75.9666  218.7010 H   0  0  0  0  0  0  0  0  0  0  0  0
  144.5070   75.9290  218.0460 H   0  0  0  0  0  0  0  0  0  0  0  0
  144.3580   73.9029  219.9178 H   0  0  0  0  0  0  0  0  0  0  0  0
  143.9322   75.4454  220.5990 H   0  0  0  0  0  0  0  0  0  0  0  0
  142.5116   73.4021  221.5939 H   0  0  0  0  0  0  0  0  0  0  0  0
  142.1890   75.6830  222.7230 H   0  0  0  0  0  0  0  0  0  0  0  0
  140.6862   77.3264  223.3446 H   0  0  0  0  0  0  0  0  0  0  0  0
  139.0308   75.6503  221.4541 H   0  0  0  0  0  0  0  0  0  0  0  0
  139.0270   75.7299  223.2913 H   0  0  0  0  0  0  0  0  0  0  0  0
  137.0524   76.7107  222.1373 H   0  0  0  0  0  0  0  0  0  0  0  0
  137.9794   77.7664  223.3080 H   0  0  0  0  0  0  0  0  0  0  0  0
  137.3911   78.1124  220.5041 H   0  0  0  0  0  0  0  0  0  0  0  0
  137.9612   79.2701  221.8318 H   0  0  0  0  0  0  0  0  0  0  0  0
  139.4635   77.8165  219.7610 H   0  0  0  0  0  0  0  0  0  0  0  0
  139.5746   79.5321  220.4590 H   0  0  0  0  0  0  0  0  0  0  0  0
  141.3799   77.7658  220.7231 H   0  0  0  0  0  0  0  0  0  0  0  0
  140.2864   80.7269  220.9405 H   0  0  0  0  0  0  0  0  0  0  0  0
  141.2313   82.6728  222.1913 H   0  0  0  0  0  0  0  0  0  0  0  0
  142.6882   82.2787  224.1739 H   0  0  0  0  0  0  0  0  0  0  0  0
  143.1957   79.9694  224.9045 H   0  0  0  0  0  0  0  0  0  0  0  0
  142.2536   78.0539  223.6595 H   0  0  0  0  0  0  0  0  0  0  0  0
  141.0149   72.9924  224.9493 H   0  0  0  0  0  0  0  0  0  0  0  0
  141.3666   72.0911  227.2253 H   0  0  0  0  0  0  0  0  0  0  0  0
  141.2532   70.2198  228.7478 H   0  0  0  0  0  0  0  0  0  0  0  0
  139.8485   66.4136  227.3326 H   0  0  0  0  0  0  0  0  0  0  0  0
  139.5344   67.4022  225.1062 H   0  0  0  0  0  0  0  0  0  0  0  0
  1  2  2  0
  2  3  1  0
  3  4  1  0
  4  5  1  0
  5  6  2  0
  5  7  1  0
  7  8  1  0
  8  9  1  0
  9 10  1  0
  9 11  1  0
 11 12  1  0
 12 13  1  0
 13 14  2  0
 13 15  1  0
 15 16  1  0
 16 17  1  0
 17 18  1  0
 18 19  1  0
 19 20  1  0
 20 21  1  0
 21 22  1  0
 22 23  2  0
 23 24  1  0
 24 25  2  0
 25 26  1  0
 26 27  2  0
  2 28  1  0
 28 29  2  0
 29 30  1  0
 30 31  2  0
 31 32  1  0
 32 33  2  0
 33 34  1  0
 33 35  1  0
 35 36  2  0
 36 37  1  0
 37 38  2  0
 12  7  1  0
 21 16  1  0
 27 22  1  0
 38 28  1  0
 37 31  1  0
  3 39  1  0
  4 40  1  0
  4 41  1  0
  8 42  1  0
  8 43  1  0
  9 44  1  1
 10 45  1  0
 11 46  1  0
 11 47  1  0
 12 48  1  1
 15 49  1  0
 16 50  1  1
 17 51  1  0
 17 52  1  0
 18 53  1  0
 18 54  1  0
 19 55  1  0
 19 56  1  0
 20 57  1  0
 20 58  1  0
 21 59  1  6
 23 60  1  0
 24 61  1  0
 25 62  1  0
 26 63  1  0
 27 64  1  0
 29 65  1  0
 30 66  1  0
 32 67  1  0
 35 68  1  0
 36 69  1  0
M  END
>  <smiles>  (3) 
O=C(NCC(=O)N1C[C@H](O)C[C@H]1C(=O)N[C@@H]1CCCC[C@H]1c1ccccc1)c1ccc2cc(F)ccc2n1

>  <score_type>  (3) 
oracle

>  <origin>  (3) 
autodockgpu

>  <m_score__min__energy>  (3) 
-10.26

>  <m_primary>  (3) 
energy

>  <rmsd>  (3) 
3.6084305929124914

>  <m_score__min__rmsd>  (3) 
3.6084305929124914

>  <meeko>  (3) 
{"free_energy": -10.0, "intermolecular_energy": -12.38, "internal_energy": -2.61, "cluster_size": 11, "cluster_id": 1, "rank_in_cluster": 4}

>  <energy>  (3) 
-10.04

>  <cluster_rmsd>  (3) 
1.6

>  <cluster>  (3) 
1

$$$$

     RDKit          3D

 69 73  0  0  0  0  0  0  0  0999 V2000
  140.6310   71.4530  221.2850 O   0  0  0  0  0  0  0  0  0  0  0  0
  140.2390   71.9280  222.3840 C   0  0  0  0  0  0  0  0  0  0  0  0
  139.8590   73.3100  222.3660 N   0  0  0  0  0  0  0  0  0  0  0  0
  139.9690   73.9910  221.0940 C   0  0  0  0  0  0  0  0  0  0  0  0
  140.1130   75.4550  221.2390 C   0  0  0  0  0  0  0  0  0  0  0  0
  140.0210   76.0650  222.3360 O   0  0  0  0  0  0  0  0  0  0  0  0
  140.3670   76.2200  220.0850 N   0  0  0  0  0  0  0  0  0  0  0  0
  139.3500   76.8980  219.3190 C   0  0  0  0  0  0  0  0  0  0  0  0
  140.0000   77.3580  218.0350 C   0  0  2  0  0  0  0  0  0  0  0  0
  139.1670   77.1100  216.9360 O   0  0  0  0  0  0  0  0  0  0  0  0
  141.2490   76.5310  217.9670 C   0  0  0  0  0  0  0  0  0  0  0  0
  141.6530   76.4870  219.4330 C   0  0  1  0  0  0  0  0  0  0  0  0
  142.0470   77.8860  219.8170 C   0  0  0  0  0  0  0  0  0  0  0  0
  142.5630   78.6590  218.9410 O   0  0  0  0  0  0  0  0  0  0  0  0
  141.8270   78.2930  221.1390 N   0  0  0  0  0  0  0  0  0  0  0  0
  142.1650   79.6260  221.6320 C   0  0  2  0  0  0  0  0  0  0  0  0
  142.9380   79.4140  222.8980 C   0  0  0  0  0  0  0  0  0  0  0  0
  143.1060   80.6320  223.7480 C   0  0  0  0  0  0  0  0  0  0  0  0
  141.8420   81.3750  223.9830 C   0  0  0  0  0  0  0  0  0  0  0  0
  140.6830   81.0090  223.1230 C   0  0  0  0  0  0  0  0  0  0  0  0
  140.9840   80.5150  221.7550 C   0  0  1  0  0  0  0  0  0  0  0  0
  141.0130   81.6270  220.7370 C   0  0  0  0  0  0  0  0  0  0  0  0
  140.6020   82.9020  221.0820 C   0  0  0  0  0  0  0  0  0  0  0  0
  140.6290   83.9310  220.1370 C   0  0  0  0  0  0  0  0  0  0  0  0
  141.0710   83.6640  218.8450 C   0  0  0  0  0  0  0  0  0  0  0  0
  141.4790   82.4000  218.4980 C   0  0  0  0  0  0  0  0  0  0  0  0
  141.4470   81.3950  219.4440 C   0  0  0  0  0  0  0  0  0  0  0  0
  140.1710   71.1380  223.6020 C   0  0  0  0  0  0  0  0  0  0  0  0
  139.5570   69.9020  223.5270 C   0  0  0  0  0  0  0  0  0  0  0  0
  139.4410   69.0770  224.6260 C   0  0  0  0  0  0  0  0  0  0  0  0
  139.9510   69.5010  225.8160 C   0  0  0  0  0  0  0  0  0  0  0  0
  139.8630   68.7080  226.9590 C   0  0  0  0  0  0  0  0  0  0  0  0
  140.3760   69.1260  228.1760 C   0  0  0  0  0  0  0  0  0  0  0  0
  140.2590   68.3140  229.2430 F   0  0  0  0  0  0  0  0  0  0  0  0
  140.9880   70.3680  228.2360 C   0  0  0  0  0  0  0  0  0  0  0  0
  141.0670   71.1380  227.0920 C   0  0  0  0  0  0  0  0  0  0  0  0
  140.5660   70.7470  225.8760 C   0  0  0  0  0  0  0  0  0  0  0  0
  140.6650   71.5340  224.7830 N   0  0  0  0  0  0  0  0  0  0  0  0
  139.5210   73.7820  223.2370 H   0  0  0  0  0  0  0  0  0  0  0  0
  140.8498   73.6021  220.5621 H   0  0  0  0  0  0  0  0  0  0  0  0
  139.0398   73.8031  220.5361 H   0  0  0  0  0  0  0  0  0  0  0  0
  138.5213   76.2093  219.0977 H   0  0  0  0  0  0  0  0  0  0  0  0
  138.9387   77.7507  219.8791 H   0  0  0  0  0  0  0  0  0  0  0  0
  140.2008   78.4393  218.0139 H   0  0  0  0  0  0  0  0  0  0  0  0
  138.2810   76.8990  217.3390 H   0  0  0  0  0  0  0  0  0  0  0  0
  141.0450   75.5239  217.5745 H   0  0  0  0  0  0  0  0  0  0  0  0
  142.0224   76.9347  217.2970 H   0  0  0  0  0  0  0  0  0  0  0  0
  142.4576   75.7766  219.6738 H   0  0  0  0  0  0  0  0  0  0  0  0
  141.3990   77.6520  221.8590 H   0  0  0  0  0  0  0  0  0  0  0  0
  142.7877   80.1793  220.9136 H   0  0  0  0  0  0  0  0  0  0  0  0
  142.4144   78.6519  223.4938 H   0  0  0  0  0  0  0  0  0  0  0  0
  143.9503   79.1107  222.5925 H   0  0  0  0  0  0  0  0  0  0  0  0
  143.5130   80.3224  224.7219 H   0  0  0  0  0  0  0  0  0  0  0  0
  143.7820   81.3107  223.2072 H   0  0  0  0  0  0  0  0  0  0  0  0
  141.5467   81.2083  225.0294 H   0  0  0  0  0  0  0  0  0  0  0  0
  142.0701   82.4214  223.7319 H   0  0  0  0  0  0  0  0  0  0  0  0
  140.1203   80.2202  223.6437 H   0  0  0  0  0  0  0  0  0  0  0  0
  140.1336   81.9498  222.9710 H   0  0  0  0  0  0  0  0  0  0  0  0
  140.1304   79.8593  221.5280 H   0  0  0  0  0  0  0  0  0  0  0  0
  140.2524   83.1067  222.1047 H   0  0  0  0  0  0  0  0  0  0  0  0
  140.3031   84.9448  220.4125 H   0  0  0  0  0  0  0  0  0  0  0  0
  141.0936   84.4704  218.0972 H   0  0  0  0  0  0  0  0  0  0  0  0
  141.8280   82.1900  217.4762 H   0  0  0  0  0  0  0  0  0  0  0  0
  141.7751   80.3835  219.1624 H   0  0  0  0  0  0  0  0  0  0  0  0
  139.1488   69.5664  222.5622 H   0  0  0  0  0  0  0  0  0  0  0  0
  138.9472   68.0975  224.5435 H   0  0  0  0  0  0  0  0  0  0  0  0
  139.3736   67.7251  226.8929 H   0  0  0  0  0  0  0  0  0  0  0  0
  141.4063   70.7365  229.1843 H   0  0  0  0  0  0  0  0  0  0  0  0
  141.5591   72.1195  227.1596 H   0  0  0  0  0  0  0  0  0  0  0  0
  1  2  2  0
  2  3  1  0
  3  4  1  0
  4  5  1  0
  5  6  2  0
  5  7  1  0
  7  8  1  0
  8  9  1  0
  9 10  1  0
  9 11  1  0
 11 12  1  0
 12 13  1  0
 13 14  2  0
 13 15  1  0
 15 16  1  0
 16 17  1  0
 17 18  1  0
 18 19  1  0
 19 20  1  0
 20 21  1  0
 21 22  1  0
 22 23  2  0
 23 24  1  0
 24 25  2  0
 25 26  1  0
 26 27  2  0
  2 28  1  0
 28 29  2  0
 29 30  1  0
 30 31  2  0
 31 32  1  0
 32 33  2  0
 33 34  1  0
 33 35  1  0
 35 36  2  0
 36 37  1  0
 37 38  2  0
 12  7  1  0
 21 16  1  0
 27 22  1  0
 38 28  1  0
 37 31  1  0
  3 39  1  0
  4 40  1  0
  4 41  1  0
  8 42  1  0
  8 43  1  0
  9 44  1  1
 10 45  1  0
 11 46  1  0
 11 47  1  0
 12 48  1  6
 15 49  1  0
 16 50  1  6
 17 51  1  0
 17 52  1  0
 18 53  1  0
 18 54  1  0
 19 55  1  0
 19 56  1  0
 20 57  1  0
 20 58  1  0
 21 59  1  6
 23 60  1  0
 24 61  1  0
 25 62  1  0
 26 63  1  0
 27 64  1  0
 29 65  1  0
 30 66  1  0
 32 67  1  0
 35 68  1  0
 36 69  1  0
M  END
>  <smiles>  (4) 
O=C(NCC(=O)N1C[C@H](O)C[C@H]1C(=O)N[C@@H]1CCCC[C@H]1c1ccccc1)c1ccc2cc(F)ccc2n1

>  <score_type>  (4) 
oracle

>  <origin>  (4) 
autodockgpu

>  <m_score__min__energy>  (4) 
-10.26

>  <m_primary>  (4) 
energy

>  <rmsd>  (4) 
1.7179542092695086

>  <m_score__min__rmsd>  (4) 
1.7179542092695086

>  <meeko>  (4) 
{"free_energy": -9.09, "intermolecular_energy": -11.47, "internal_energy": -3.24, "cluster_size": 10, "cluster_id": 3, "rank_in_cluster": 6}

>  <energy>  (4) 
-10.0

>  <cluster_rmsd>  (4) 
1.65

>  <cluster>  (4) 
1

$$$$

     RDKit          3D

 69 73  0  0  0  0  0  0  0  0999 V2000
  140.1520   73.0390  222.6140 O   0  0  0  0  0  0  0  0  0  0  0  0
  140.0920   73.9700  221.7680 C   0  0  0  0  0  0  0  0  0  0  0  0
  140.2360   73.5780  220.3980 N   0  0  0  0  0  0  0  0  0  0  0  0
  140.4320   72.1650  220.1500 C   0  0  0  0  0  0  0  0  0  0  0  0
  141.8580   71.7740  220.1590 C   0  0  0  0  0  0  0  0  0  0  0  0
  142.2660   70.6110  220.4160 O   0  0  0  0  0  0  0  0  0  0  0  0
  142.8220   72.7550  219.8640 N   0  0  0  0  0  0  0  0  0  0  0  0
  143.8440   72.6140  218.8570 C   0  0  0  0  0  0  0  0  0  0  0  0
  144.8170   73.7540  219.0540 C   0  0  2  0  0  0  0  0  0  0  0  0
  146.1410   73.3050  218.9500 O   0  0  0  0  0  0  0  0  0  0  0  0
  144.5130   74.2280  220.4430 C   0  0  0  0  0  0  0  0  0  0  0  0
  142.9990   74.0740  220.4820 C   0  0  1  0  0  0  0  0  0  0  0  0
  142.4360   75.0790  219.5180 C   0  0  0  0  0  0  0  0  0  0  0  0
  142.1180   74.7100  218.3370 O   0  0  0  0  0  0  0  0  0  0  0  0
  142.2770   76.3990  219.9580 N   0  0  0  0  0  0  0  0  0  0  0  0
  141.7390   77.4640  219.1150 C   0  0  2  0  0  0  0  0  0  0  0  0
  142.8800   77.9320  218.2640 C   0  0  0  0  0  0  0  0  0  0  0  0
  142.6520   79.2310  217.5590 C   0  0  0  0  0  0  0  0  0  0  0  0
  142.1370   80.3070  218.4440 C   0  0  0  0  0  0  0  0  0  0  0  0
  141.6370   79.8890  219.7820 C   0  0  0  0  0  0  0  0  0  0  0  0
  141.0540   78.5270  219.8920 C   0  0  1  0  0  0  0  0  0  0  0  0
  139.5650   78.5190  219.6570 C   0  0  0  0  0  0  0  0  0  0  0  0
  138.8160   79.6620  219.8740 C   0  0  0  0  0  0  0  0  0  0  0  0
  137.4360   79.6520  219.6560 C   0  0  0  0  0  0  0  0  0  0  0  0
  136.8180   78.4840  219.2210 C   0  0  0  0  0  0  0  0  0  0  0  0
  137.5570   77.3470  219.0040 C   0  0  0  0  0  0  0  0  0  0  0  0
  138.9200   77.3730  219.2240 C   0  0  0  0  0  0  0  0  0  0  0  0
  139.8900   75.3600  222.1420 C   0  0  0  0  0  0  0  0  0  0  0  0
  138.5870   75.8130  222.2330 C   0  0  0  0  0  0  0  0  0  0  0  0
  138.2900   77.1130  222.5790 C   0  0  0  0  0  0  0  0  0  0  0  0
  139.3170   77.9710  222.8390 C   0  0  0  0  0  0  0  0  0  0  0  0
  139.0740   79.2960  223.1940 C   0  0  0  0  0  0  0  0  0  0  0  0
  140.1080   80.1790  223.4610 C   0  0  0  0  0  0  0  0  0  0  0  0
  139.8080   81.4470  223.7990 F   0  0  0  0  0  0  0  0  0  0  0  0
  141.4090   79.7110  223.3650 C   0  0  0  0  0  0  0  0  0  0  0  0
  141.6280   78.3940  223.0130 C   0  0  0  0  0  0  0  0  0  0  0  0
  140.6220   77.5000  222.7430 C   0  0  0  0  0  0  0  0  0  0  0  0
  140.8830   76.2200  222.4010 N   0  0  0  0  0  0  0  0  0  0  0  0
  140.1980   74.2890  219.6310 H   0  0  0  0  0  0  0  0  0  0  0  0
  139.9064   71.5950  220.9303 H   0  0  0  0  0  0  0  0  0  0  0  0
  140.0350   71.9465  219.1477 H   0  0  0  0  0  0  0  0  0  0  0  0
  144.3614   71.6506  218.9759 H   0  0  0  0  0  0  0  0  0  0  0  0
  143.4075   72.6397  217.8476 H   0  0  0  0  0  0  0  0  0  0  0  0
  144.7146   74.5470  218.2986 H   0  0  0  0  0  0  0  0  0  0  0  0
  146.6860   74.1380  218.9550 H   0  0  0  0  0  0  0  0  0  0  0  0
  145.0021   73.5977  221.2003 H   0  0  0  0  0  0  0  0  0  0  0  0
  144.8695   75.2454  220.6615 H   0  0  0  0  0  0  0  0  0  0  0  0
  142.5432   74.1915  221.4762 H   0  0  0  0  0  0  0  0  0  0  0  0
  142.5390   76.6990  220.9340 H   0  0  0  0  0  0  0  0  0  0  0  0
  140.9272   77.1001  218.4680 H   0  0  0  0  0  0  0  0  0  0  0  0
  143.7633   78.0448  218.9098 H   0  0  0  0  0  0  0  0  0  0  0  0
  143.0077   77.1738  217.4773 H   0  0  0  0  0  0  0  0  0  0  0  0
  143.6071   79.5640  217.1266 H   0  0  0  0  0  0  0  0  0  0  0  0
  141.8848   79.0505  216.7916 H   0  0  0  0  0  0  0  0  0  0  0  0
  142.9532   81.0271  218.6031 H   0  0  0  0  0  0  0  0  0  0  0  0
  141.2593   80.7158  217.9219 H   0  0  0  0  0  0  0  0  0  0  0  0
  142.4821   79.9452  220.4838 H   0  0  0  0  0  0  0  0  0  0  0  0
  140.8040   80.5733  220.0008 H   0  0  0  0  0  0  0  0  0  0  0  0
  141.2404   78.2550  220.9414 H   0  0  0  0  0  0  0  0  0  0  0  0
  139.3092   80.5825  220.2196 H   0  0  0  0  0  0  0  0  0  0  0  0
  136.8420   80.5618  219.8272 H   0  0  0  0  0  0  0  0  0  0  0  0
  135.7315   78.4711  219.0499 H   0  0  0  0  0  0  0  0  0  0  0  0
  137.0679   76.4244  218.6582 H   0  0  0  0  0  0  0  0  0  0  0  0
  139.5083   76.4598  219.0508 H   0  0  0  0  0  0  0  0  0  0  0  0
  137.7632   75.1149  222.0230 H   0  0  0  0  0  0  0  0  0  0  0  0
  137.2455   77.4518  222.6441 H   0  0  0  0  0  0  0  0  0  0  0  0
  138.0350   79.6503  223.2641 H   0  0  0  0  0  0  0  0  0  0  0  0
  142.2575   80.3812  223.5670 H   0  0  0  0  0  0  0  0  0  0  0  0
  142.6677   78.0412  222.9451 H   0  0  0  0  0  0  0  0  0  0  0  0
  1  2  2  0
  2  3  1  0
  3  4  1  0
  4  5  1  0
  5  6  2  0
  5  7  1  0
  7  8  1  0
  8  9  1  0
  9 10  1  0
  9 11  1  0
 11 12  1  0
 12 13  1  0
 13 14  2  0
 13 15  1  0
 15 16  1  0
 16 17  1  0
 17 18  1  0
 18 19  1  0
 19 20  1  0
 20 21  1  0
 21 22  1  0
 22 23  2  0
 23 24  1  0
 24 25  2  0
 25 26  1  0
 26 27  2  0
  2 28  1  0
 28 29  2  0
 29 30  1  0
 30 31  2  0
 31 32  1  0
 32 33  2  0
 33 34  1  0
 33 35  1  0
 35 36  2  0
 36 37  1  0
 37 38  2  0
 12  7  1  0
 21 16  1  0
 27 22  1  0
 38 28  1  0
 37 31  1  0
  3 39  1  0
  4 40  1  0
  4 41  1  0
  8 42  1  0
  8 43  1  0
  9 44  1  6
 10 45  1  0
 11 46  1  0
 11 47  1  0
 12 48  1  1
 15 49  1  0
 16 50  1  6
 17 51  1  0
 17 52  1  0
 18 53  1  0
 18 54  1  0
 19 55  1  0
 19 56  1  0
 20 57  1  0
 20 58  1  0
 21 59  1  1
 23 60  1  0
 24 61  1  0
 25 62  1  0
 26 63  1  0
 27 64  1  0
 29 65  1  0
 30 66  1  0
 32 67  1  0
 35 68  1  0
 36 69  1  0
M  END
>  <smiles>  (5) 
O=C(NCC(=O)N1C[C@H](O)C[C@H]1C(=O)N[C@@H]1CCCC[C@H]1c1ccccc1)c1ccc2cc(F)ccc2n1

>  <score_type>  (5) 
oracle

>  <origin>  (5) 
autodockgpu

>  <m_score__min__energy>  (5) 
-10.26

>  <m_primary>  (5) 
energy

>  <rmsd>  (5) 
6.363625850788618

>  <m_score__min__rmsd>  (5) 
6.363625850788618

>  <meeko>  (5) 
{"free_energy": -7.24, "intermolecular_energy": -9.62, "internal_energy": -5.23, "cluster_size": 12, "cluster_id": 9, "rank_in_cluster": 6}

>  <energy>  (5) 
-9.2

>  <cluster_rmsd>  (5) 
1.42

>  <cluster>  (5) 
1

$$$$

     RDKit          3D

 69 73  0  0  0  0  0  0  0  0999 V2000
  141.2700   71.5250  221.5240 O   0  0  0  0  0  0  0  0  0  0  0  0
  140.4350   71.8730  222.4000 C   0  0  0  0  0  0  0  0  0  0  0  0
  139.6550   73.0350  222.0910 N   0  0  0  0  0  0  0  0  0  0  0  0
  139.9180   73.6660  220.8160 C   0  0  0  0  0  0  0  0  0  0  0  0
  141.0840   74.5730  220.8560 C   0  0  0  0  0  0  0  0  0  0  0  0
  141.0910   75.6830  221.4500 O   0  0  0  0  0  0  0  0  0  0  0  0
  142.2610   74.1800  220.1920 N   0  0  0  0  0  0  0  0  0  0  0  0
  143.4020   73.5840  220.8430 C   0  0  0  0  0  0  0  0  0  0  0  0
  144.5280   73.5740  219.8350 C   0  0  2  0  0  0  0  0  0  0  0  0
  145.7330   73.9750  220.4280 O   0  0  0  0  0  0  0  0  0  0  0  0
  144.0750   74.5620  218.8040 C   0  0  0  0  0  0  0  0  0  0  0  0
  142.5800   74.2820  218.7630 C   0  0  1  0  0  0  0  0  0  0  0  0
  142.4120   72.9040  218.1870 C   0  0  0  0  0  0  0  0  0  0  0  0
  142.6310   72.7100  216.9440 O   0  0  0  0  0  0  0  0  0  0  0  0
  142.0170   71.8730  219.0490 N   0  0  0  0  0  0  0  0  0  0  0  0
  141.8210   70.4940  218.6080 C   0  0  2  0  0  0  0  0  0  0  0  0
  140.4610   70.4500  217.9810 C   0  0  0  0  0  0  0  0  0  0  0  0
  139.9130   69.0770  217.7550 C   0  0  0  0  0  0  0  0  0  0  0  0
  140.0090   68.1930  218.9440 C   0  0  0  0  0  0  0  0  0  0  0  0
  140.8830   68.6600  220.0540 C   0  0  0  0  0  0  0  0  0  0  0  0
  142.0500   69.5030  219.6890 C   0  0  1  0  0  0  0  0  0  0  0  0
  143.2940   68.6870  219.4440 C   0  0  0  0  0  0  0  0  0  0  0  0
  144.5440   69.2780  219.5190 C   0  0  0  0  0  0  0  0  0  0  0  0
  145.6950   68.5190  219.2920 C   0  0  0  0  0  0  0  0  0  0  0  0
  145.5780   67.1660  218.9890 C   0  0  0  0  0  0  0  0  0  0  0  0
  144.3400   66.5770  218.9140 C   0  0  0  0  0  0  0  0  0  0  0  0
  143.2120   67.3400  219.1400 C   0  0  0  0  0  0  0  0  0  0  0  0
  140.2610   71.1530  223.6500 C   0  0  0  0  0  0  0  0  0  0  0  0
  139.5590   69.9620  223.6080 C   0  0  0  0  0  0  0  0  0  0  0  0
  139.3390   69.2050  224.7390 C   0  0  0  0  0  0  0  0  0  0  0  0
  139.8330   69.6500  225.9290 C   0  0  0  0  0  0  0  0  0  0  0  0
  139.6410   68.9240  227.1030 C   0  0  0  0  0  0  0  0  0  0  0  0
  140.1350   69.3650  228.3200 C   0  0  0  0  0  0  0  0  0  0  0  0
  139.9160   68.6190  229.4180 F   0  0  0  0  0  0  0  0  0  0  0  0
  140.8360   70.5600  228.3460 C   0  0  0  0  0  0  0  0  0  0  0  0
  141.0160   71.2640  227.1720 C   0  0  0  0  0  0  0  0  0  0  0  0
  140.5350   70.8500  225.9550 C   0  0  0  0  0  0  0  0  0  0  0  0
  140.7360   71.5710  224.8310 N   0  0  0  0  0  0  0  0  0  0  0  0
  138.9370   73.3910  222.7650 H   0  0  0  0  0  0  0  0  0  0  0  0
  140.1081   72.8819  220.0683 H   0  0  0  0  0  0  0  0  0  0  0  0
  139.0364   74.2709  220.5576 H   0  0  0  0  0  0  0  0  0  0  0  0
  143.6880   74.1781  221.7235 H   0  0  0  0  0  0  0  0  0  0  0  0
  143.1714   72.5644  221.1853 H   0  0  0  0  0  0  0  0  0  0  0  0
  144.7246   72.5769  219.4142 H   0  0  0  0  0  0  0  0  0  0  0  0
  146.0920   74.6700  219.8120 H   0  0  0  0  0  0  0  0  0  0  0  0
  144.2831   75.5957  219.1174 H   0  0  0  0  0  0  0  0  0  0  0  0
  144.5796   74.4631  217.8316 H   0  0  0  0  0  0  0  0  0  0  0  0
  141.9835   75.0145  218.1994 H   0  0  0  0  0  0  0  0  0  0  0  0
  141.8380   72.0380  220.0750 H   0  0  0  0  0  0  0  0  0  0  0  0
  142.5740   70.1939  217.8644 H   0  0  0  0  0  0  0  0  0  0  0  0
  139.7646   70.9914  218.6383 H   0  0  0  0  0  0  0  0  0  0  0  0
  140.5666   70.9064  216.9857 H   0  0  0  0  0  0  0  0  0  0  0  0
  138.8533   69.1679  217.4745 H   0  0  0  0  0  0  0  0  0  0  0  0
  140.5191   68.6155  216.9615 H   0  0  0  0  0  0  0  0  0  0  0  0
  138.9940   68.0674  219.3490 H   0  0  0  0  0  0  0  0  0  0  0  0
  140.4753   67.2661  218.5787 H   0  0  0  0  0  0  0  0  0  0  0  0
  140.2569   69.2428  220.7456 H   0  0  0  0  0  0  0  0  0  0  0  0
  141.3170   67.7429  220.4789 H   0  0  0  0  0  0  0  0  0  0  0  0
  142.2102   70.1173  220.5873 H   0  0  0  0  0  0  0  0  0  0  0  0
  144.6311   70.3482  219.7580 H   0  0  0  0  0  0  0  0  0  0  0  0
  146.6880   68.9884  219.3525 H   0  0  0  0  0  0  0  0  0  0  0  0
  146.4817   66.5654  218.8087 H   0  0  0  0  0  0  0  0  0  0  0  0
  144.2479   65.5070  218.6760 H   0  0  0  0  0  0  0  0  0  0  0  0
  142.2221   66.8645  219.0767 H   0  0  0  0  0  0  0  0  0  0  0  0
  139.1647   69.6084  222.6439 H   0  0  0  0  0  0  0  0  0  0  0  0
  138.7765   68.2614  224.6823 H   0  0  0  0  0  0  0  0  0  0  0  0
  139.0831   67.9768  227.0624 H   0  0  0  0  0  0  0  0  0  0  0  0
  141.2449   70.9438  229.2923 H   0  0  0  0  0  0  0  0  0  0  0  0
  141.5763   72.2097  227.2144 H   0  0  0  0  0  0  0  0  0  0  0  0
  1  2  2  0
  2  3  1  0
  3  4  1  0
  4  5  1  0
  5  6  2  0
  5  7  1  0
  7  8  1  0
  8  9  1  0
  9 10  1  0
  9 11  1  0
 11 12  1  0
 12 13  1  0
 13 14  2  0
 13 15  1  0
 15 16  1  0
 16 17  1  0
 17 18  1  0
 18 19  1  0
 19 20  1  0
 20 21  1  0
 21 22  1  0
 22 23  2  0
 23 24  1  0
 24 25  2  0
 25 26  1  0
 26 27  2  0
  2 28  1  0
 28 29  2  0
 29 30  1  0
 30 31  2  0
 31 32  1  0
 32 33  2  0
 33 34  1  0
 33 35  1  0
 35 36  2  0
 36 37  1  0
 37 38  2  0
 12  7  1  0
 21 16  1  0
 27 22  1  0
 38 28  1  0
 37 31  1  0
  3 39  1  0
  4 40  1  0
  4 41  1  0
  8 42  1  0
  8 43  1  0
  9 44  1  6
 10 45  1  0
 11 46  1  0
 11 47  1  0
 12 48  1  6
 15 49  1  0
 16 50  1  6
 17 51  1  0
 17 52  1  0
 18 53  1  0
 18 54  1  0
 19 55  1  0
 19 56  1  0
 20 57  1  0
 20 58  1  0
 21 59  1  1
 23 60  1  0
 24 61  1  0
 25 62  1  0
 26 63  1  0
 27 64  1  0
 29 65  1  0
 30 66  1  0
 32 67  1  0
 35 68  1  0
 36 69  1  0
M  END
>  <smiles>  (6) 
O=C(NCC(=O)N1C[C@H](O)C[C@H]1C(=O)N[C@@H]1CCCC[C@H]1c1ccccc1)c1ccc2cc(F)ccc2n1

>  <score_type>  (6) 
oracle

>  <origin>  (6) 
autodockgpu

>  <m_score__min__energy>  (6) 
-10.26

>  <m_primary>  (6) 
energy

>  <rmsd>  (6) 
7.476858356517697

>  <m_score__min__rmsd>  (6) 
7.476858356517697

>  <meeko>  (6) 
{"free_energy": -7.96, "intermolecular_energy": -10.34, "internal_energy": -3.69, "cluster_size": 1, "cluster_id": 8, "rank_in_cluster": 1}

>  <energy>  (6) 
-9.12

>  <cluster_rmsd>  (6) 
1.92

>  <cluster>  (6) 
1

$$$$

     RDKit          3D

 69 73  0  0  0  0  0  0  0  0999 V2000
  141.0370   71.9590  221.6780 O   0  0  0  0  0  0  0  0  0  0  0  0
  140.1260   72.0400  222.5450 C   0  0  0  0  0  0  0  0  0  0  0  0
  139.1070   73.0140  222.2890 N   0  0  0  0  0  0  0  0  0  0  0  0
  139.2440   73.7840  221.0710 C   0  0  0  0  0  0  0  0  0  0  0  0
  139.2530   75.2420  221.3130 C   0  0  0  0  0  0  0  0  0  0  0  0
  138.3940   75.8440  222.0080 O   0  0  0  0  0  0  0  0  0  0  0  0
  140.2800   76.0100  220.7340 N   0  0  0  0  0  0  0  0  0  0  0  0
  141.0490   77.0050  221.4400 C   0  0  0  0  0  0  0  0  0  0  0  0
  141.8370   77.7710  220.4030 C   0  0  2  0  0  0  0  0  0  0  0  0
  141.7970   79.1480  220.6610 O   0  0  0  0  0  0  0  0  0  0  0  0
  141.1330   77.4370  219.1220 C   0  0  0  0  0  0  0  0  0  0  0  0
  140.7760   75.9770  219.3530 C   0  0  1  0  0  0  0  0  0  0  0  0
  142.0700   75.2130  219.3810 C   0  0  0  0  0  0  0  0  0  0  0  0
  143.0380   75.5850  218.6360 O   0  0  0  0  0  0  0  0  0  0  0  0
  142.1640   74.1070  220.2360 N   0  0  0  0  0  0  0  0  0  0  0  0
  143.3680   73.2870  220.3520 C   0  0  2  0  0  0  0  0  0  0  0  0
  144.4440   74.2010  220.8530 C   0  0  0  0  0  0  0  0  0  0  0  0
  145.8350   73.6630  220.7360 C   0  0  0  0  0  0  0  0  0  0  0  0
  146.1510   73.1120  219.3950 C   0  0  0  0  0  0  0  0  0  0  0  0
  144.9990   72.8840  218.4790 C   0  0  0  0  0  0  0  0  0  0  0  0
  143.6920   72.5550  219.1030 C   0  0  1  0  0  0  0  0  0  0  0  0
  143.4860   71.0690  219.2550 C   0  0  0  0  0  0  0  0  0  0  0  0
  142.2090   70.5490  219.3700 C   0  0  0  0  0  0  0  0  0  0  0  0
  142.0210   69.1710  219.5110 C   0  0  0  0  0  0  0  0  0  0  0  0
  143.1260   68.3260  219.5370 C   0  0  0  0  0  0  0  0  0  0  0  0
  144.3950   68.8390  219.4240 C   0  0  0  0  0  0  0  0  0  0  0  0
  144.5640   70.2020  219.2850 C   0  0  0  0  0  0  0  0  0  0  0  0
  140.0980   71.2060  223.7340 C   0  0  0  0  0  0  0  0  0  0  0  0
  139.5160   69.9570  223.6250 C   0  0  0  0  0  0  0  0  0  0  0  0
  139.4390   69.0920  224.6940 C   0  0  0  0  0  0  0  0  0  0  0  0
  139.9550   69.4870  225.8920 C   0  0  0  0  0  0  0  0  0  0  0  0
  139.9040   68.6530  227.0070 C   0  0  0  0  0  0  0  0  0  0  0  0
  140.4240   69.0410  228.2310 C   0  0  0  0  0  0  0  0  0  0  0  0
  140.3440   68.1900  229.2710 F   0  0  0  0  0  0  0  0  0  0  0  0
  141.0040   70.2960  228.3270 C   0  0  0  0  0  0  0  0  0  0  0  0
  141.0440   71.1080  227.2100 C   0  0  0  0  0  0  0  0  0  0  0  0
  140.5360   70.7470  225.9870 C   0  0  0  0  0  0  0  0  0  0  0  0
  140.5980   71.5740  224.9220 N   0  0  0  0  0  0  0  0  0  0  0  0
  138.3140   73.1460  222.9590 H   0  0  0  0  0  0  0  0  0  0  0  0
  140.1884   73.5031  220.5820 H   0  0  0  0  0  0  0  0  0  0  0  0
  138.3736   73.5589  220.4372 H   0  0  0  0  0  0  0  0  0  0  0  0
  140.3776   77.6860  221.9835 H   0  0  0  0  0  0  0  0  0  0  0  0
  141.7194   76.5350  222.1747 H   0  0  0  0  0  0  0  0  0  0  0  0
  142.9046   77.5063  220.3862 H   0  0  0  0  0  0  0  0  0  0  0  0
  140.9650   79.2760  221.1920 H   0  0  0  0  0  0  0  0  0  0  0  0
  140.2335   78.0548  218.9834 H   0  0  0  0  0  0  0  0  0  0  0  0
  141.7321   77.6175  218.2173 H   0  0  0  0  0  0  0  0  0  0  0  0
  140.0841   75.5440  218.6156 H   0  0  0  0  0  0  0  0  0  0  0  0
  141.3630   73.8040  220.8500 H   0  0  0  0  0  0  0  0  0  0  0  0
  143.2307   72.4619  221.0664 H   0  0  0  0  0  0  0  0  0  0  0  0
  144.3909   75.1377  220.2788 H   0  0  0  0  0  0  0  0  0  0  0  0
  144.2562   74.3370  221.9283 H   0  0  0  0  0  0  0  0  0  0  0  0
  146.5417   74.4778  220.9519 H   0  0  0  0  0  0  0  0  0  0  0  0
  145.9197   72.8328  221.4526 H   0  0  0  0  0  0  0  0  0  0  0  0
  146.8377   73.8139  218.8992 H   0  0  0  0  0  0  0  0  0  0  0  0
  146.5732   72.1139  219.5838 H   0  0  0  0  0  0  0  0  0  0  0  0
  144.8614   73.7999  217.8856 H   0  0  0  0  0  0  0  0  0  0  0  0
  145.2700   71.9896  217.8989 H   0  0  0  0  0  0  0  0  0  0  0  0
  142.9597   72.9324  218.3741 H   0  0  0  0  0  0  0  0  0  0  0  0
  141.3391   71.2220  219.3504 H   0  0  0  0  0  0  0  0  0  0  0  0
  141.0057   68.7573  219.6008 H   0  0  0  0  0  0  0  0  0  0  0  0
  142.9825   67.2411  219.6487 H   0  0  0  0  0  0  0  0  0  0  0  0
  145.2682   68.1703  219.4440 H   0  0  0  0  0  0  0  0  0  0  0  0
  145.5819   70.6094  219.1958 H   0  0  0  0  0  0  0  0  0  0  0  0
  139.1018   69.6444  222.6551 H   0  0  0  0  0  0  0  0  0  0  0  0
  138.9707   68.1028  224.5832 H   0  0  0  0  0  0  0  0  0  0  0  0
  139.4388   67.6607  226.9129 H   0  0  0  0  0  0  0  0  0  0  0  0
  141.4276   70.6416  229.2815 H   0  0  0  0  0  0  0  0  0  0  0  0
  141.5093   72.1001  227.3062 H   0  0  0  0  0  0  0  0  0  0  0  0
  1  2  2  0
  2  3  1  0
  3  4  1  0
  4  5  1  0
  5  6  2  0
  5  7  1  0
  7  8  1  0
  8  9  1  0
  9 10  1  0
  9 11  1  0
 11 12  1  0
 12 13  1  0
 13 14  2  0
 13 15  1  0
 15 16  1  0
 16 17  1  0
 17 18  1  0
 18 19  1  0
 19 20  1  0
 20 21  1  0
 21 22  1  0
 22 23  2  0
 23 24  1  0
 24 25  2  0
 25 26  1  0
 26 27  2  0
  2 28  1  0
 28 29  2  0
 29 30  1  0
 30 31  2  0
 31 32  1  0
 32 33  2  0
 33 34  1  0
 33 35  1  0
 35 36  2  0
 36 37  1  0
 37 38  2  0
 12  7  1  0
 21 16  1  0
 27 22  1  0
 38 28  1  0
 37 31  1  0
  3 39  1  0
  4 40  1  0
  4 41  1  0
  8 42  1  0
  8 43  1  0
  9 44  1  6
 10 45  1  0
 11 46  1  0
 11 47  1  0
 12 48  1  6
 15 49  1  0
 16 50  1  1
 17 51  1  0
 17 52  1  0
 18 53  1  0
 18 54  1  0
 19 55  1  0
 19 56  1  0
 20 57  1  0
 20 58  1  0
 21 59  1  6
 23 60  1  0
 24 61  1  0
 25 62  1  0
 26 63  1  0
 27 64  1  0
 29 65  1  0
 30 66  1  0
 32 67  1  0
 35 68  1  0
 36 69  1  0
M  END
>  <smiles>  (7) 
O=C(NCC(=O)N1C[C@H](O)C[C@H]1C(=O)N[C@@H]1CCCC[C@H]1c1ccccc1)c1ccc2cc(F)ccc2n1

>  <score_type>  (7) 
oracle

>  <origin>  (7) 
autodockgpu

>  <m_score__min__energy>  (7) 
-10.26

>  <m_primary>  (7) 
energy

>  <rmsd>  (7) 
6.005816219491869

>  <m_score__min__rmsd>  (7) 
6.005816219491869

>  <meeko>  (7) 
{"free_energy": -8.1, "intermolecular_energy": -10.48, "internal_energy": -3.5, "cluster_size": 2, "cluster_id": 6, "rank_in_cluster": 2}

>  <energy>  (7) 
-9.11

>  <cluster_rmsd>  (7) 
1.8

>  <cluster>  (7) 
1

$$$$

     RDKit          3D

 69 73  0  0  0  0  0  0  0  0999 V2000
  140.3010   73.4840  222.3300 O   0  0  0  0  0  0  0  0  0  0  0  0
  140.3460   72.2260  222.3440 C   0  0  0  0  0  0  0  0  0  0  0  0
  140.5400   71.5950  221.0720 N   0  0  0  0  0  0  0  0  0  0  0  0
  140.6620   72.4740  219.9290 C   0  0  0  0  0  0  0  0  0  0  0  0
  141.9740   73.1520  219.8660 C   0  0  0  0  0  0  0  0  0  0  0  0
  143.0400   72.6630  220.3220 O   0  0  0  0  0  0  0  0  0  0  0  0
  142.0430   74.4210  219.2610 N   0  0  0  0  0  0  0  0  0  0  0  0
  141.1730   74.8640  218.1990 C   0  0  0  0  0  0  0  0  0  0  0  0
  141.7540   76.1520  217.6620 C   0  0  2  0  0  0  0  0  0  0  0  0
  141.7240   76.1680  216.2610 O   0  0  0  0  0  0  0  0  0  0  0  0
  143.1620   76.1330  218.1750 C   0  0  0  0  0  0  0  0  0  0  0  0
  142.9660   75.5230  219.5550 C   0  0  1  0  0  0  0  0  0  0  0  0
  142.1930   76.5240  220.3660 C   0  0  0  0  0  0  0  0  0  0  0  0
  142.4800   77.7660  220.2760 O   0  0  0  0  0  0  0  0  0  0  0  0
  141.1730   76.0500  221.2010 N   0  0  0  0  0  0  0  0  0  0  0  0
  140.3520   76.9240  222.0360 C   0  0  2  0  0  0  0  0  0  0  0  0
  139.0890   76.1660  222.3100 C   0  0  0  0  0  0  0  0  0  0  0  0
  137.9690   76.9850  222.8680 C   0  0  0  0  0  0  0  0  0  0  0  0
  137.7150   78.2410  222.1170 C   0  0  0  0  0  0  0  0  0  0  0  0
  138.7620   78.6600  221.1450 C   0  0  0  0  0  0  0  0  0  0  0  0
  140.1640   78.2750  221.4510 C   0  0  1  0  0  0  0  0  0  0  0  0
  140.8900   79.3330  222.2420 C   0  0  0  0  0  0  0  0  0  0  0  0
  140.6570   80.6740  221.9950 C   0  0  0  0  0  0  0  0  0  0  0  0
  141.3320   81.6530  222.7290 C   0  0  0  0  0  0  0  0  0  0  0  0
  142.2410   81.2710  223.7100 C   0  0  0  0  0  0  0  0  0  0  0  0
  142.4750   79.9410  223.9590 C   0  0  0  0  0  0  0  0  0  0  0  0
  141.8010   78.9860  223.2250 C   0  0  0  0  0  0  0  0  0  0  0  0
  140.2110   71.4480  223.5640 C   0  0  0  0  0  0  0  0  0  0  0  0
  139.5520   70.2350  223.4780 C   0  0  0  0  0  0  0  0  0  0  0  0
  139.3710   69.4240  224.5780 C   0  0  0  0  0  0  0  0  0  0  0  0
  139.8610   69.8370  225.7810 C   0  0  0  0  0  0  0  0  0  0  0  0
  139.7070   69.0570  226.9250 C   0  0  0  0  0  0  0  0  0  0  0  0
  140.1980   69.4630  228.1550 C   0  0  0  0  0  0  0  0  0  0  0  0
  140.0170   68.6650  229.2230 F   0  0  0  0  0  0  0  0  0  0  0  0
  140.8560   70.6810  228.2260 C   0  0  0  0  0  0  0  0  0  0  0  0
  140.9990   71.4390  227.0810 C   0  0  0  0  0  0  0  0  0  0  0  0
  140.5200   71.0590  225.8510 C   0  0  0  0  0  0  0  0  0  0  0  0
  140.6830   71.8330  224.7570 N   0  0  0  0  0  0  0  0  0  0  0  0
  140.5900   70.5520  220.9950 H   0  0  0  0  0  0  0  0  0  0  0  0
  140.5289   71.8799  219.0128 H   0  0  0  0  0  0  0  0  0  0  0  0
  139.8909   73.2525  220.0258 H   0  0  0  0  0  0  0  0  0  0  0  0
  141.1328   74.1064  217.4025 H   0  0  0  0  0  0  0  0  0  0  0  0
  140.1486   75.0188  218.5687 H   0  0  0  0  0  0  0  0  0  0  0  0
  141.1953   77.0452  217.9783 H   0  0  0  0  0  0  0  0  0  0  0  0
  142.3810   76.8730  216.0080 H   0  0  0  0  0  0  0  0  0  0  0  0
  143.8117   75.5066  217.5461 H   0  0  0  0  0  0  0  0  0  0  0  0
  143.6530   77.1173  218.1823 H   0  0  0  0  0  0  0  0  0  0  0  0
  143.8924   75.2344  220.0732 H   0  0  0  0  0  0  0  0  0  0  0  0
  140.9380   75.0250  221.2720 H   0  0  0  0  0  0  0  0  0  0  0  0
  140.8484   77.1599  222.9888 H   0  0  0  0  0  0  0  0  0  0  0  0
  138.7471   75.7194  221.3647 H   0  0  0  0  0  0  0  0  0  0  0  0
  139.3384   75.4210  223.0799 H   0  0  0  0  0  0  0  0  0  0  0  0
  137.0520   76.3777  222.8490 H   0  0  0  0  0  0  0  0  0  0  0  0
  138.2603   77.2744  223.8885 H   0  0  0  0  0  0  0  0  0  0  0  0
  136.7750   78.1126  221.5603 H   0  0  0  0  0  0  0  0  0  0  0  0
  137.6920   79.0345  222.8784 H   0  0  0  0  0  0  0  0  0  0  0  0
  138.5034   78.2212  220.1700 H   0  0  0  0  0  0  0  0  0  0  0  0
  138.7558   79.7595  221.1772 H   0  0  0  0  0  0  0  0  0  0  0  0
  140.6312   78.2043  220.4577 H   0  0  0  0  0  0  0  0  0  0  0  0
  139.9375   80.9709  221.2177 H   0  0  0  0  0  0  0  0  0  0  0  0
  141.1456   82.7191  222.5322 H   0  0  0  0  0  0  0  0  0  0  0  0
  142.7753   82.0383  224.2894 H   0  0  0  0  0  0  0  0  0  0  0  0
  143.1928   79.6396  224.7361 H   0  0  0  0  0  0  0  0  0  0  0  0
  141.9926   77.9217  223.4263 H   0  0  0  0  0  0  0  0  0  0  0  0
  139.1609   69.9078  222.5033 H   0  0  0  0  0  0  0  0  0  0  0  0
  138.8422   68.4637  224.4868 H   0  0  0  0  0  0  0  0  0  0  0  0
  139.1817   68.0935  226.8496 H   0  0  0  0  0  0  0  0  0  0  0  0
  141.2599   71.0397  229.1842 H   0  0  0  0  0  0  0  0  0  0  0  0
  141.5261   72.4014  227.1581 H   0  0  0  0  0  0  0  0  0  0  0  0
  1  2  2  0
  2  3  1  0
  3  4  1  0
  4  5  1  0
  5  6  2  0
  5  7  1  0
  7  8  1  0
  8  9  1  0
  9 10  1  0
  9 11  1  0
 11 12  1  0
 12 13  1  0
 13 14  2  0
 13 15  1  0
 15 16  1  0
 16 17  1  0
 17 18  1  0
 18 19  1  0
 19 20  1  0
 20 21  1  0
 21 22  1  0
 22 23  2  0
 23 24  1  0
 24 25  2  0
 25 26  1  0
 26 27  2  0
  2 28  1  0
 28 29  2  0
 29 30  1  0
 30 31  2  0
 31 32  1  0
 32 33  2  0
 33 34  1  0
 33 35  1  0
 35 36  2  0
 36 37  1  0
 37 38  2  0
 12  7  1  0
 21 16  1  0
 27 22  1  0
 38 28  1  0
 37 31  1  0
  3 39  1  0
  4 40  1  0
  4 41  1  0
  8 42  1  0
  8 43  1  0
  9 44  1  1
 10 45  1  0
 11 46  1  0
 11 47  1  0
 12 48  1  1
 15 49  1  0
 16 50  1  1
 17 51  1  0
 17 52  1  0
 18 53  1  0
 18 54  1  0
 19 55  1  0
 19 56  1  0
 20 57  1  0
 20 58  1  0
 21 59  1  6
 23 60  1  0
 24 61  1  0
 25 62  1  0
 26 63  1  0
 27 64  1  0
 29 65  1  0
 30 66  1  0
 32 67  1  0
 35 68  1  0
 36 69  1  0
M  END
>  <smiles>  (8) 
O=C(NCC(=O)N1C[C@H](O)C[C@H]1C(=O)N[C@@H]1CCCC[C@H]1c1ccccc1)c1ccc2cc(F)ccc2n1

>  <score_type>  (8) 
oracle

>  <origin>  (8) 
autodockgpu

>  <m_score__min__energy>  (8) 
-10.26

>  <m_primary>  (8) 
energy

>  <rmsd>  (8) 
2.828095269408124

>  <m_score__min__rmsd>  (8) 
2.828095269408124

>  <meeko>  (8) 
{"free_energy": -9.09, "intermolecular_energy": -11.48, "internal_energy": -3.25, "cluster_size": 11, "cluster_id": 1, "rank_in_cluster": 8}

>  <energy>  (8) 
-9.09

>  <cluster_rmsd>  (8) 
1.91

>  <cluster>  (8) 
1

$$$$

     RDKit          3D

 69 73  0  0  0  0  0  0  0  0999 V2000
  141.8030   77.5750  216.9600 O   0  0  0  0  0  0  0  0  0  0  0  0
  142.1940   78.2000  217.9820 C   0  0  0  0  0  0  0  0  0  0  0  0
  142.9870   77.4470  218.9080 N   0  0  0  0  0  0  0  0  0  0  0  0
  143.2450   76.0650  218.5590 C   0  0  0  0  0  0  0  0  0  0  0  0
  142.9650   75.1320  219.6700 C   0  0  0  0  0  0  0  0  0  0  0  0
  143.8040   74.3150  220.1300 O   0  0  0  0  0  0  0  0  0  0  0  0
  141.6840   75.1520  220.2540 N   0  0  0  0  0  0  0  0  0  0  0  0
  141.3920   74.6980  221.5910 C   0  0  0  0  0  0  0  0  0  0  0  0
  139.8880   74.6350  221.7160 C   0  0  2  0  0  0  0  0  0  0  0  0
  139.4890   73.4600  222.3680 O   0  0  0  0  0  0  0  0  0  0  0  0
  139.4240   74.6500  220.2910 C   0  0  0  0  0  0  0  0  0  0  0  0
  140.4210   75.6140  219.6660 C   0  0  1  0  0  0  0  0  0  0  0  0
  140.1440   76.9680  220.2550 C   0  0  0  0  0  0  0  0  0  0  0  0
  139.0700   77.5840  219.9420 O   0  0  0  0  0  0  0  0  0  0  0  0
  141.0870   77.5080  221.1390 N   0  0  0  0  0  0  0  0  0  0  0  0
  140.9300   78.8140  221.7760 C   0  0  2  0  0  0  0  0  0  0  0  0
  142.2160   79.5460  221.5390 C   0  0  0  0  0  0  0  0  0  0  0  0
  142.4090   80.7700  222.3760 C   0  0  0  0  0  0  0  0  0  0  0  0
  142.1480   80.5520  223.8220 C   0  0  0  0  0  0  0  0  0  0  0  0
  141.4530   79.2890  224.1910 C   0  0  0  0  0  0  0  0  0  0  0  0
  140.5090   78.7190  223.1960 C   0  0  1  0  0  0  0  0  0  0  0  0
  139.0980   79.2090  223.3950 C   0  0  0  0  0  0  0  0  0  0  0  0
  138.0410   78.5680  222.7740 C   0  0  0  0  0  0  0  0  0  0  0  0
  136.7330   79.0250  222.9600 C   0  0  0  0  0  0  0  0  0  0  0  0
  136.5010   80.1290  223.7740 C   0  0  0  0  0  0  0  0  0  0  0  0
  137.5470   80.7680  224.3910 C   0  0  0  0  0  0  0  0  0  0  0  0
  138.8330   80.3050  224.1970 C   0  0  0  0  0  0  0  0  0  0  0  0
  141.8680   79.5950  218.2220 C   0  0  0  0  0  0  0  0  0  0  0  0
  142.7040   80.5500  217.6720 C   0  0  0  0  0  0  0  0  0  0  0  0
  142.4820   81.8990  217.8430 C   0  0  0  0  0  0  0  0  0  0  0  0
  141.4030   82.2950  218.5760 C   0  0  0  0  0  0  0  0  0  0  0  0
  141.1310   83.6470  218.7800 C   0  0  0  0  0  0  0  0  0  0  0  0
  140.0390   84.0650  219.5230 C   0  0  0  0  0  0  0  0  0  0  0  0
  139.8290   85.3850  219.6840 F   0  0  0  0  0  0  0  0  0  0  0  0
  139.2100   83.0970  220.0680 C   0  0  0  0  0  0  0  0  0  0  0  0
  139.4970   81.7640  219.8540 C   0  0  0  0  0  0  0  0  0  0  0  0
  140.5720   81.3240  219.1230 C   0  0  0  0  0  0  0  0  0  0  0  0
  140.8140   80.0090  218.9400 N   0  0  0  0  0  0  0  0  0  0  0  0
  143.3520   77.8890  219.7830 H   0  0  0  0  0  0  0  0  0  0  0  0
  142.6088   75.7939  217.7036 H   0  0  0  0  0  0  0  0  0  0  0  0
  144.3143   75.9789  218.3158 H   0  0  0  0  0  0  0  0  0  0  0  0
  141.8270   73.7011  221.7551 H   0  0  0  0  0  0  0  0  0  0  0  0
  141.8205   75.3801  222.3401 H   0  0  0  0  0  0  0  0  0  0  0  0
  139.4675   75.4588  222.3114 H   0  0  0  0  0  0  0  0  0  0  0  0
  138.8020   73.7610  223.0220 H   0  0  0  0  0  0  0  0  0  0  0  0
  139.4892   73.6510  219.8353 H   0  0  0  0  0  0  0  0  0  0  0  0
  138.3714   74.9424  220.1619 H   0  0  0  0  0  0  0  0  0  0  0  0
  140.4021   75.6571  218.5670 H   0  0  0  0  0  0  0  0  0  0  0  0
  141.9720   76.9960  221.3950 H   0  0  0  0  0  0  0  0  0  0  0  0
  140.1000   79.3850  221.3344 H   0  0  0  0  0  0  0  0  0  0  0  0
  143.0458   78.8549  221.7484 H   0  0  0  0  0  0  0  0  0  0  0  0
  142.1869   79.8890  220.4942 H   0  0  0  0  0  0  0  0  0  0  0  0
  143.4482   81.1109  222.2583 H   0  0  0  0  0  0  0  0  0  0  0  0
  141.6803   81.5163  222.0268 H   0  0  0  0  0  0  0  0  0  0  0  0
  143.1175   80.5634  224.3415 H   0  0  0  0  0  0  0  0  0  0  0  0
  141.4603   81.3582  224.1172 H   0  0  0  0  0  0  0  0  0  0  0  0
  142.2257   78.5309  224.3865 H   0  0  0  0  0  0  0  0  0  0  0  0
  140.8281   79.5515  225.0574 H   0  0  0  0  0  0  0  0  0  0  0  0
  140.5329   77.6407  223.4120 H   0  0  0  0  0  0  0  0  0  0  0  0
  138.2304   77.6955  222.1315 H   0  0  0  0  0  0  0  0  0  0  0  0
  135.8928   78.5150  222.4660 H   0  0  0  0  0  0  0  0  0  0  0  0
  135.4734   80.4917  223.9239 H   0  0  0  0  0  0  0  0  0  0  0  0
  137.3625   81.6411  225.0342 H   0  0  0  0  0  0  0  0  0  0  0  0
  139.6686   80.8207  224.6928 H   0  0  0  0  0  0  0  0  0  0  0  0
  143.5718   80.2227  217.0805 H   0  0  0  0  0  0  0  0  0  0  0  0
  143.1611   82.6408  217.3975 H   0  0  0  0  0  0  0  0  0  0  0  0
  141.8003   84.4009  218.3399 H   0  0  0  0  0  0  0  0  0  0  0  0
  138.3329   83.3880  220.6646 H   0  0  0  0  0  0  0  0  0  0  0  0
  138.8261   81.0117  220.2943 H   0  0  0  0  0  0  0  0  0  0  0  0
  1  2  2  0
  2  3  1  0
  3  4  1  0
  4  5  1  0
  5  6  2  0
  5  7  1  0
  7  8  1  0
  8  9  1  0
  9 10  1  0
  9 11  1  0
 11 12  1  0
 12 13  1  0
 13 14  2  0
 13 15  1  0
 15 16  1  0
 16 17  1  0
 17 18  1  0
 18 19  1  0
 19 20  1  0
 20 21  1  0
 21 22  1  0
 22 23  2  0
 23 24  1  0
 24 25  2  0
 25 26  1  0
 26 27  2  0
  2 28  1  0
 28 29  2  0
 29 30  1  0
 30 31  2  0
 31 32  1  0
 32 33  2  0
 33 34  1  0
 33 35  1  0
 35 36  2  0
 36 37  1  0
 37 38  2  0
 12  7  1  0
 21 16  1  0
 27 22  1  0
 38 28  1  0
 37 31  1  0
  3 39  1  0
  4 40  1  0
  4 41  1  0
  8 42  1  0
  8 43  1  0
  9 44  1  1
 10 45  1  0
 11 46  1  0
 11 47  1  0
 12 48  1  6
 15 49  1  0
 16 50  1  6
 17 51  1  0
 17 52  1  0
 18 53  1  0
 18 54  1  0
 19 55  1  0
 19 56  1  0
 20 57  1  0
 20 58  1  0
 21 59  1  1
 23 60  1  0
 24 61  1  0
 25 62  1  0
 26 63  1  0
 27 64  1  0
 29 65  1  0
 30 66  1  0
 32 67  1  0
 35 68  1  0
 36 69  1  0
M  END
>  <smiles>  (9) 
O=C(NCC(=O)N1C[C@H](O)C[C@H]1C(=O)N[C@@H]1CCCC[C@H]1c1ccccc1)c1ccc2cc(F)ccc2n1

>  <score_type>  (9) 
oracle

>  <origin>  (9) 
autodockgpu

>  <m_score__min__energy>  (9) 
-10.26

>  <m_primary>  (9) 
energy

>  <rmsd>  (9) 
8.98688438811524

>  <m_score__min__rmsd>  (9) 
8.98688438811524

>  <meeko>  (9) 
{"free_energy": -8.07, "intermolecular_energy": -10.45, "internal_energy": -4.16, "cluster_size": 1, "cluster_id": 7, "rank_in_cluster": 1}

>  <energy>  (9) 
-9.06

>  <cluster_rmsd>  (9) 
1.58

>  <cluster>  (9) 
1

$$$$

     RDKit          3D

 69 73  0  0  0  0  0  0  0  0999 V2000
  140.9960   73.0310  222.6370 O   0  0  0  0  0  0  0  0  0  0  0  0
  140.0530   73.1680  221.8130 C   0  0  0  0  0  0  0  0  0  0  0  0
  140.0260   72.2260  220.7330 N   0  0  0  0  0  0  0  0  0  0  0  0
  141.0800   71.2330  220.7190 C   0  0  0  0  0  0  0  0  0  0  0  0
  142.0150   71.4070  219.5880 C   0  0  0  0  0  0  0  0  0  0  0  0
  142.0050   70.6920  218.5520 O   0  0  0  0  0  0  0  0  0  0  0  0
  142.9790   72.4290  219.6670 N   0  0  0  0  0  0  0  0  0  0  0  0
  144.0020   72.6610  218.6780 C   0  0  0  0  0  0  0  0  0  0  0  0
  144.9730   73.6540  219.2730 C   0  0  2  0  0  0  0  0  0  0  0  0
  146.2970   73.2740  219.0160 O   0  0  0  0  0  0  0  0  0  0  0  0
  144.6670   73.5970  220.7390 C   0  0  0  0  0  0  0  0  0  0  0  0
  143.1540   73.4380  220.7180 C   0  0  1  0  0  0  0  0  0  0  0  0
  142.5890   74.7220  220.1790 C   0  0  0  0  0  0  0  0  0  0  0  0
  142.9200   75.1140  219.0090 O   0  0  0  0  0  0  0  0  0  0  0  0
  141.7080   75.4470  220.9910 N   0  0  0  0  0  0  0  0  0  0  0  0
  141.0940   76.7070  220.5790 C   0  0  2  0  0  0  0  0  0  0  0  0
  140.2900   76.3930  219.3540 C   0  0  0  0  0  0  0  0  0  0  0  0
  139.8410   77.5850  218.5710 C   0  0  0  0  0  0  0  0  0  0  0  0
  140.9250   78.5600  218.2910 C   0  0  0  0  0  0  0  0  0  0  0  0
  142.1880   78.3920  219.0620 C   0  0  0  0  0  0  0  0  0  0  0  0
  142.0780   77.8070  220.4230 C   0  0  1  0  0  0  0  0  0  0  0  0
  141.9130   78.8600  221.4890 C   0  0  0  0  0  0  0  0  0  0  0  0
  141.9140   80.2020  221.1520 C   0  0  0  0  0  0  0  0  0  0  0  0
  141.7610   81.1760  222.1420 C   0  0  0  0  0  0  0  0  0  0  0  0
  141.6090   80.7890  223.4700 C   0  0  0  0  0  0  0  0  0  0  0  0
  141.6070   79.4580  223.8080 C   0  0  0  0  0  0  0  0  0  0  0  0
  141.7600   78.5070  222.8180 C   0  0  0  0  0  0  0  0  0  0  0  0
  139.0480   74.2110  221.9340 C   0  0  0  0  0  0  0  0  0  0  0  0
  137.7460   73.8840  221.6030 C   0  0  0  0  0  0  0  0  0  0  0  0
  136.7210   74.8020  221.6840 C   0  0  0  0  0  0  0  0  0  0  0  0
  137.0080   76.0660  222.1050 C   0  0  0  0  0  0  0  0  0  0  0  0
  136.0100   77.0330  222.2050 C   0  0  0  0  0  0  0  0  0  0  0  0
  136.2870   78.3230  222.6300 C   0  0  0  0  0  0  0  0  0  0  0  0
  135.2800   79.2120  222.7060 F   0  0  0  0  0  0  0  0  0  0  0  0
  137.5970   78.6360  222.9580 C   0  0  0  0  0  0  0  0  0  0  0  0
  138.5710   77.6630  222.8520 C   0  0  0  0  0  0  0  0  0  0  0  0
  138.3220   76.3790  222.4330 C   0  0  0  0  0  0  0  0  0  0  0  0
  139.3070   75.4600  222.3440 N   0  0  0  0  0  0  0  0  0  0  0  0
  139.2760   72.2690  220.0040 H   0  0  0  0  0  0  0  0  0  0  0  0
  141.6469   71.3088  221.6586 H   0  0  0  0  0  0  0  0  0  0  0  0
  140.6050   70.2471  220.6077 H   0  0  0  0  0  0  0  0  0  0  0  0
  144.5205   71.7199  218.4426 H   0  0  0  0  0  0  0  0  0  0  0  0
  143.5662   73.0481  217.7451 H   0  0  0  0  0  0  0  0  0  0  0  0
  144.8704   74.6656  218.8533 H   0  0  0  0  0  0  0  0  0  0  0  0
  146.7880   74.1360  218.9200 H   0  0  0  0  0  0  0  0  0  0  0  0
  145.1562   72.7372  221.2200 H   0  0  0  0  0  0  0  0  0  0  0  0
  145.0219   74.4683  221.3089 H   0  0  0  0  0  0  0  0  0  0  0  0
  142.6978   73.1901  221.6877 H   0  0  0  0  0  0  0  0  0  0  0  0
  141.4370   75.1190  221.9550 H   0  0  0  0  0  0  0  0  0  0  0  0
  140.4293   77.1092  221.3577 H   0  0  0  0  0  0  0  0  0  0  0  0
  140.9048   75.7631  218.6943 H   0  0  0  0  0  0  0  0  0  0  0  0
  139.3752   75.8936  219.7059 H   0  0  0  0  0  0  0  0  0  0  0  0
  139.4320   77.2358  217.6114 H   0  0  0  0  0  0  0  0  0  0  0  0
  139.0906   78.1067  219.1831 H   0  0  0  0  0  0  0  0  0  0  0  0
  141.1739   78.4846  217.2222 H   0  0  0  0  0  0  0  0  0  0  0  0
  140.5240   79.5365  218.6002 H   0  0  0  0  0  0  0  0  0  0  0  0
  142.8509   77.7403  218.4739 H   0  0  0  0  0  0  0  0  0  0  0  0
  142.5619   79.4142  219.2213 H   0  0  0  0  0  0  0  0  0  0  0  0
  143.0522   77.3172  220.5680 H   0  0  0  0  0  0  0  0  0  0  0  0
  142.0357   80.5031  220.1010 H   0  0  0  0  0  0  0  0  0  0  0  0
  141.7607   82.2427  221.8732 H   0  0  0  0  0  0  0  0  0  0  0  0
  141.4899   81.5528  224.2526 H   0  0  0  0  0  0  0  0  0  0  0  0
  141.4847   79.1520  224.8575 H   0  0  0  0  0  0  0  0  0  0  0  0
  141.7602   77.4420  223.0932 H   0  0  0  0  0  0  0  0  0  0  0  0
  137.5216   72.8615  221.2652 H   0  0  0  0  0  0  0  0  0  0  0  0
  135.6925   74.5202  221.4144 H   0  0  0  0  0  0  0  0  0  0  0  0
  134.9763   76.7661  221.9400 H   0  0  0  0  0  0  0  0  0  0  0  0
  137.8578   79.6487  223.2991 H   0  0  0  0  0  0  0  0  0  0  0  0
  139.6041   77.9313  223.1180 H   0  0  0  0  0  0  0  0  0  0  0  0
  1  2  2  0
  2  3  1  0
  3  4  1  0
  4  5  1  0
  5  6  2  0
  5  7  1  0
  7  8  1  0
  8  9  1  0
  9 10  1  0
  9 11  1  0
 11 12  1  0
 12 13  1  0
 13 14  2  0
 13 15  1  0
 15 16  1  0
 16 17  1  0
 17 18  1  0
 18 19  1  0
 19 20  1  0
 20 21  1  0
 21 22  1  0
 22 23  2  0
 23 24  1  0
 24 25  2  0
 25 26  1  0
 26 27  2  0
  2 28  1  0
 28 29  2  0
 29 30  1  0
 30 31  2  0
 31 32  1  0
 32 33  2  0
 33 34  1  0
 33 35  1  0
 35 36  2  0
 36 37  1  0
 37 38  2  0
 12  7  1  0
 21 16  1  0
 27 22  1  0
 38 28  1  0
 37 31  1  0
  3 39  1  0
  4 40  1  0
  4 41  1  0
  8 42  1  0
  8 43  1  0
  9 44  1  6
 10 45  1  0
 11 46  1  0
 11 47  1  0
 12 48  1  1
 15 49  1  0
 16 50  1  1
 17 51  1  0
 17 52  1  0
 18 53  1  0
 18 54  1  0
 19 55  1  0
 19 56  1  0
 20 57  1  0
 20 58  1  0
 21 59  1  1
 23 60  1  0
 24 61  1  0
 25 62  1  0
 26 63  1  0
 27 64  1  0
 29 65  1  0
 30 66  1  0
 32 67  1  0
 35 68  1  0
 36 69  1  0
M  END
>  <smiles>  (10) 
O=C(NCC(=O)N1C[C@H](O)C[C@H]1C(=O)N[C@@H]1CCCC[C@H]1c1ccccc1)c1ccc2cc(F)ccc2n1

>  <score_type>  (10) 
oracle

>  <origin>  (10) 
autodockgpu

>  <m_score__min__energy>  (10) 
-10.26

>  <m_primary>  (10) 
energy

>  <rmsd>  (10) 
6.098632989316417

>  <m_score__min__rmsd>  (10) 
6.098632989316417

>  <meeko>  (10) 
{"free_energy": -7.53, "intermolecular_energy": -9.92, "internal_energy": -4.46, "cluster_size": 12, "cluster_id": 9, "rank_in_cluster": 2}

>  <energy>  (10) 
-9.04

>  <cluster_rmsd>  (10) 
1.76

>  <cluster>  (10) 
1

$$$$

     RDKit          3D

 69 73  0  0  0  0  0  0  0  0999 V2000
  140.1190   73.3050  222.5960 O   0  0  0  0  0  0  0  0  0  0  0  0
  139.8740   74.2050  221.7490 C   0  0  0  0  0  0  0  0  0  0  0  0
  139.9400   73.8010  220.3750 N   0  0  0  0  0  0  0  0  0  0  0  0
  140.2760   72.4150  220.1270 C   0  0  0  0  0  0  0  0  0  0  0  0
  141.7080   72.1250  220.3510 C   0  0  0  0  0  0  0  0  0  0  0  0
  142.1320   71.1020  220.9490 O   0  0  0  0  0  0  0  0  0  0  0  0
  142.6600   73.0430  219.8710 N   0  0  0  0  0  0  0  0  0  0  0  0
  143.5060   72.8130  218.7250 C   0  0  0  0  0  0  0  0  0  0  0  0
  144.5500   73.9060  218.7220 C   0  0  2  0  0  0  0  0  0  0  0  0
  145.8180   73.3840  218.4350 O   0  0  0  0  0  0  0  0  0  0  0  0
  144.4870   74.4430  220.1200 C   0  0  0  0  0  0  0  0  0  0  0  0
  142.9930   74.3710  220.3970 C   0  0  1  0  0  0  0  0  0  0  0  0
  142.3340   75.3700  219.4890 C   0  0  0  0  0  0  0  0  0  0  0  0
  141.7170   74.9640  218.4470 O   0  0  0  0  0  0  0  0  0  0  0  0
  142.4220   76.7270  219.8260 N   0  0  0  0  0  0  0  0  0  0  0  0
  141.8230   77.7910  219.0240 C   0  0  2  0  0  0  0  0  0  0  0  0
  142.9130   78.2950  218.1270 C   0  0  0  0  0  0  0  0  0  0  0  0
  142.6240   79.5980  217.4530 C   0  0  0  0  0  0  0  0  0  0  0  0
  142.1280   80.6510  218.3750 C   0  0  0  0  0  0  0  0  0  0  0  0
  141.7000   80.2040  219.7290 C   0  0  0  0  0  0  0  0  0  0  0  0
  141.1520   78.8280  219.8460 C   0  0  1  0  0  0  0  0  0  0  0  0
  139.6540   78.7900  219.6810 C   0  0  0  0  0  0  0  0  0  0  0  0
  139.0240   77.6240  219.2810 C   0  0  0  0  0  0  0  0  0  0  0  0
  137.6360   77.5920  219.1290 C   0  0  0  0  0  0  0  0  0  0  0  0
  136.8900   78.7380  219.3810 C   0  0  0  0  0  0  0  0  0  0  0  0
  137.5110   79.8970  219.7780 C   0  0  0  0  0  0  0  0  0  0  0  0
  138.8840   79.9130  219.9240 C   0  0  0  0  0  0  0  0  0  0  0  0
  139.5460   75.5700  222.1240 C   0  0  0  0  0  0  0  0  0  0  0  0
  138.2070   75.9010  222.2160 C   0  0  0  0  0  0  0  0  0  0  0  0
  137.7920   77.1690  222.5640 C   0  0  0  0  0  0  0  0  0  0  0  0
  138.7360   78.1170  222.8240 C   0  0  0  0  0  0  0  0  0  0  0  0
  138.3730   79.4140  223.1800 C   0  0  0  0  0  0  0  0  0  0  0  0
  139.3210   80.3880  223.4460 C   0  0  0  0  0  0  0  0  0  0  0  0
  138.9070   81.6230  223.7850 F   0  0  0  0  0  0  0  0  0  0  0  0
  140.6600   80.0410  223.3490 C   0  0  0  0  0  0  0  0  0  0  0  0
  140.9990   78.7500  222.9960 C   0  0  0  0  0  0  0  0  0  0  0  0
  140.0780   77.7680  222.7260 C   0  0  0  0  0  0  0  0  0  0  0  0
  140.4560   76.5180  222.3830 N   0  0  0  0  0  0  0  0  0  0  0  0
  139.7500   74.4870  219.6070 H   0  0  0  0  0  0  0  0  0  0  0  0
  139.6795   71.7825  220.8009 H   0  0  0  0  0  0  0  0  0  0  0  0
  140.0563   72.2045  219.0699 H   0  0  0  0  0  0  0  0  0  0  0  0
  143.9898   71.8283  218.8038 H   0  0  0  0  0  0  0  0  0  0  0  0
  142.9197   72.8267  217.7944 H   0  0  0  0  0  0  0  0  0  0  0  0
  144.3697   74.6773  217.9587 H   0  0  0  0  0  0  0  0  0  0  0  0
  146.4370   74.1530  218.5650 H   0  0  0  0  0  0  0  0  0  0  0  0
  145.0574   73.8142  220.8195 H   0  0  0  0  0  0  0  0  0  0  0  0
  144.9202   75.4472  220.2379 H   0  0  0  0  0  0  0  0  0  0  0  0
  142.7038   74.5475  221.4435 H   0  0  0  0  0  0  0  0  0  0  0  0
  142.9320   77.0580  220.6880 H   0  0  0  0  0  0  0  0  0  0  0  0
  140.9899   77.4178  218.4103 H   0  0  0  0  0  0  0  0  0  0  0  0
  143.8234   78.4182  218.7320 H   0  0  0  0  0  0  0  0  0  0  0  0
  143.0198   77.5505  217.3244 H   0  0  0  0  0  0  0  0  0  0  0  0
  143.5504   79.9578  216.9814 H   0  0  0  0  0  0  0  0  0  0  0  0
  141.8250   79.4103  216.7206 H   0  0  0  0  0  0  0  0  0  0  0  0
  142.9350   81.3869  218.5061 H   0  0  0  0  0  0  0  0  0  0  0  0
  141.2188   81.0477  217.8997 H   0  0  0  0  0  0  0  0  0  0  0  0
  142.5756   80.2693  220.3916 H   0  0  0  0  0  0  0  0  0  0  0  0
  140.8638   80.8668  219.9962 H   0  0  0  0  0  0  0  0  0  0  0  0
  141.3928   78.5461  220.8816 H   0  0  0  0  0  0  0  0  0  0  0  0
  139.6184   76.7200  219.0823 H   0  0  0  0  0  0  0  0  0  0  0  0
  137.1357   76.6652  218.8116 H   0  0  0  0  0  0  0  0  0  0  0  0
  135.7967   78.7163  219.2618 H   0  0  0  0  0  0  0  0  0  0  0  0
  136.9205   80.8034  219.9776 H   0  0  0  0  0  0  0  0  0  0  0  0
  139.3782   80.8429  220.2418 H   0  0  0  0  0  0  0  0  0  0  0  0
  137.4507   75.1305  222.0055 H   0  0  0  0  0  0  0  0  0  0  0  0
  136.7209   77.4105  222.6304 H   0  0  0  0  0  0  0  0  0  0  0  0
  137.3059   79.6712  223.2517 H   0  0  0  0  0  0  0  0  0  0  0  0
  141.4435   80.7861  223.5511 H   0  0  0  0  0  0  0  0  0  0  0  0
  142.0665   78.4938  222.9272 H   0  0  0  0  0  0  0  0  0  0  0  0
  1  2  2  0
  2  3  1  0
  3  4  1  0
  4  5  1  0
  5  6  2  0
  5  7  1  0
  7  8  1  0
  8  9  1  0
  9 10  1  0
  9 11  1  0
 11 12  1  0
 12 13  1  0
 13 14  2  0
 13 15  1  0
 15 16  1  0
 16 17  1  0
 17 18  1  0
 18 19  1  0
 19 20  1  0
 20 21  1  0
 21 22  1  0
 22 23  2  0
 23 24  1  0
 24 25  2  0
 25 26  1  0
 26 27  2  0
  2 28  1  0
 28 29  2  0
 29 30  1  0
 30 31  2  0
 31 32  1  0
 32 33  2  0
 33 34  1  0
 33 35  1  0
 35 36  2  0
 36 37  1  0
 37 38  2  0
 12  7  1  0
 21 16  1  0
 27 22  1  0
 38 28  1  0
 37 31  1  0
  3 39  1  0
  4 40  1  0
  4 41  1  0
  8 42  1  0
  8 43  1  0
  9 44  1  6
 10 45  1  0
 11 46  1  0
 11 47  1  0
 12 48  1  1
 15 49  1  0
 16 50  1  6
 17 51  1  0
 17 52  1  0
 18 53  1  0
 18 54  1  0
 19 55  1  0
 19 56  1  0
 20 57  1  0
 20 58  1  0
 21 59  1  1
 23 60  1  0
 24 61  1  0
 25 62  1  0
 26 63  1  0
 27 64  1  0
 29 65  1  0
 30 66  1  0
 32 67  1  0
 35 68  1  0
 36 69  1  0
M  END
>  <smiles>  (11) 
O=C(NCC(=O)N1C[C@H](O)C[C@H]1C(=O)N[C@@H]1CCCC[C@H]1c1ccccc1)c1ccc2cc(F)ccc2n1

>  <score_type>  (11) 
oracle

>  <origin>  (11) 
autodockgpu

>  <m_score__min__energy>  (11) 
-10.26

>  <m_primary>  (11) 
energy

>  <rmsd>  (11) 
6.416040936301799

>  <m_score__min__rmsd>  (11) 
6.416040936301799

>  <meeko>  (11) 
{"free_energy": -6.8, "intermolecular_energy": -9.19, "internal_energy": -5.09, "cluster_size": 12, "cluster_id": 9, "rank_in_cluster": 11}

>  <energy>  (11) 
-8.84

>  <cluster_rmsd>  (11) 
1.75

>  <cluster>  (11) 
1

$$$$

     RDKit          3D

 69 73  0  0  0  0  0  0  0  0999 V2000
  139.1260   71.2630  221.2270 O   0  0  0  0  0  0  0  0  0  0  0  0
  138.7750   71.6430  222.3760 C   0  0  0  0  0  0  0  0  0  0  0  0
  137.7640   72.6570  222.4150 N   0  0  0  0  0  0  0  0  0  0  0  0
  137.2670   73.1210  221.1370 C   0  0  0  0  0  0  0  0  0  0  0  0
  137.5300   74.5580  220.9080 C   0  0  0  0  0  0  0  0  0  0  0  0
  136.6270   75.4260  220.7860 O   0  0  0  0  0  0  0  0  0  0  0  0
  138.8670   74.9880  220.8200 N   0  0  0  0  0  0  0  0  0  0  0  0
  139.4640   75.5480  219.6330 C   0  0  0  0  0  0  0  0  0  0  0  0
  140.9530   75.6150  219.8780 C   0  0  2  0  0  0  0  0  0  0  0  0
  141.6660   75.1840  218.7510 O   0  0  0  0  0  0  0  0  0  0  0  0
  141.1520   74.6840  221.0360 C   0  0  0  0  0  0  0  0  0  0  0  0
  139.9030   74.9650  221.8580 C   0  0  1  0  0  0  0  0  0  0  0  0
  140.0270   76.3720  222.3710 C   0  0  0  0  0  0  0  0  0  0  0  0
  141.1330   76.7630  222.8750 O   0  0  0  0  0  0  0  0  0  0  0  0
  138.9100   77.2100  222.2730 N   0  0  0  0  0  0  0  0  0  0  0  0
  138.9070   78.5960  222.7360 C   0  0  2  0  0  0  0  0  0  0  0  0
  137.4670   78.9680  222.9170 C   0  0  0  0  0  0  0  0  0  0  0  0
  137.2070   80.4330  223.0680 C   0  0  0  0  0  0  0  0  0  0  0  0
  137.8740   81.2670  222.0360 C   0  0  0  0  0  0  0  0  0  0  0  0
  138.9220   80.6020  221.2150 C   0  0  0  0  0  0  0  0  0  0  0  0
  139.6870   79.5020  221.8560 C   0  0  1  0  0  0  0  0  0  0  0  0
  140.9430   79.9920  222.5310 C   0  0  0  0  0  0  0  0  0  0  0  0
  140.8880   81.0410  223.4320 C   0  0  0  0  0  0  0  0  0  0  0  0
  142.0540   81.4940  224.0560 C   0  0  0  0  0  0  0  0  0  0  0  0
  143.2700   80.8850  223.7650 C   0  0  0  0  0  0  0  0  0  0  0  0
  143.3280   79.8440  222.8710 C   0  0  0  0  0  0  0  0  0  0  0  0
  142.1680   79.4080  222.2630 C   0  0  0  0  0  0  0  0  0  0  0  0
  139.3500   71.0970  223.5930 C   0  0  0  0  0  0  0  0  0  0  0  0
  140.2850   71.8690  224.2590 C   0  0  0  0  0  0  0  0  0  0  0  0
  140.8890   71.4410  225.4220 C   0  0  0  0  0  0  0  0  0  0  0  0
  140.5480   70.2200  225.9230 C   0  0  0  0  0  0  0  0  0  0  0  0
  141.1270   69.7390  227.0950 C   0  0  0  0  0  0  0  0  0  0  0  0
  140.7920   68.5000  227.6170 C   0  0  0  0  0  0  0  0  0  0  0  0
  141.3870   68.0900  228.7530 F   0  0  0  0  0  0  0  0  0  0  0  0
  139.8540   67.7370  226.9380 C   0  0  0  0  0  0  0  0  0  0  0  0
  139.2920   68.2330  225.7790 C   0  0  0  0  0  0  0  0  0  0  0  0
  139.6080   69.4560  225.2420 C   0  0  0  0  0  0  0  0  0  0  0  0
  139.0320   69.9000  224.1050 N   0  0  0  0  0  0  0  0  0  0  0  0
  137.4150   73.0290  223.3290 H   0  0  0  0  0  0  0  0  0  0  0  0
  137.7554   72.5427  220.3389 H   0  0  0  0  0  0  0  0  0  0  0  0
  136.1762   72.9792  221.1343 H   0  0  0  0  0  0  0  0  0  0  0  0
  139.2524   74.9065  218.7649 H   0  0  0  0  0  0  0  0  0  0  0  0
  139.0553   76.5471  219.4216 H   0  0  0  0  0  0  0  0  0  0  0  0
  141.3137   76.6342  220.0811 H   0  0  0  0  0  0  0  0  0  0  0  0
  141.0820   74.4890  218.3410 H   0  0  0  0  0  0  0  0  0  0  0  0
  141.1911   73.6348  220.7078 H   0  0  0  0  0  0  0  0  0  0  0  0
  142.0953   74.8361  221.5811 H   0  0  0  0  0  0  0  0  0  0  0  0
  139.7229   74.2640  222.6863 H   0  0  0  0  0  0  0  0  0  0  0  0
  137.9990   76.8830  221.8560 H   0  0  0  0  0  0  0  0  0  0  0  0
  139.4343   78.7053  223.6952 H   0  0  0  0  0  0  0  0  0  0  0  0
  136.9093   78.6112  222.0386 H   0  0  0  0  0  0  0  0  0  0  0  0
  137.1445   78.4998  223.8587 H   0  0  0  0  0  0  0  0  0  0  0  0
  136.1220   80.6017  223.0028 H   0  0  0  0  0  0  0  0  0  0  0  0
  137.6208   80.7343  224.0416 H   0  0  0  0  0  0  0  0  0  0  0  0
  137.0962   81.6341  221.3502 H   0  0  0  0  0  0  0  0  0  0  0  0
  138.4009   82.0537  222.5959 H   0  0  0  0  0  0  0  0  0  0  0  0
  138.4303   80.1874  220.3226 H   0  0  0  0  0  0  0  0  0  0  0  0
  139.6663   81.3866  221.0138 H   0  0  0  0  0  0  0  0  0  0  0  0
  139.9766   78.8666  221.0061 H   0  0  0  0  0  0  0  0  0  0  0  0
  139.9238   81.5198  223.6578 H   0  0  0  0  0  0  0  0  0  0  0  0
  142.0100   82.3272  224.7729 H   0  0  0  0  0  0  0  0  0  0  0  0
  144.1900   81.2389  224.2533 H   0  0  0  0  0  0  0  0  0  0  0  0
  144.2899   79.3622  222.6416 H   0  0  0  0  0  0  0  0  0  0  0  0
  142.2190   78.5746  221.5469 H   0  0  0  0  0  0  0  0  0  0  0  0
  140.5545   72.8533  223.8485 H   0  0  0  0  0  0  0  0  0  0  0  0
  141.6304   72.0714  225.9348 H   0  0  0  0  0  0  0  0  0  0  0  0
  141.8692   70.3586  227.6196 H   0  0  0  0  0  0  0  0  0  0  0  0
  139.5611   66.7475  227.3188 H   0  0  0  0  0  0  0  0  0  0  0  0
  138.5488   67.6131  225.2561 H   0  0  0  0  0  0  0  0  0  0  0  0
  1  2  2  0
  2  3  1  0
  3  4  1  0
  4  5  1  0
  5  6  2  0
  5  7  1  0
  7  8  1  0
  8  9  1  0
  9 10  1  0
  9 11  1  0
 11 12  1  0
 12 13  1  0
 13 14  2  0
 13 15  1  0
 15 16  1  0
 16 17  1  0
 17 18  1  0
 18 19  1  0
 19 20  1  0
 20 21  1  0
 21 22  1  0
 22 23  2  0
 23 24  1  0
 24 25  2  0
 25 26  1  0
 26 27  2  0
  2 28  1  0
 28 29  2  0
 29 30  1  0
 30 31  2  0
 31 32  1  0
 32 33  2  0
 33 34  1  0
 33 35  1  0
 35 36  2  0
 36 37  1  0
 37 38  2  0
 12  7  1  0
 21 16  1  0
 27 22  1  0
 38 28  1  0
 37 31  1  0
  3 39  1  0
  4 40  1  0
  4 41  1  0
  8 42  1  0
  8 43  1  0
  9 44  1  1
 10 45  1  0
 11 46  1  0
 11 47  1  0
 12 48  1  1
 15 49  1  0
 16 50  1  1
 17 51  1  0
 17 52  1  0
 18 53  1  0
 18 54  1  0
 19 55  1  0
 19 56  1  0
 20 57  1  0
 20 58  1  0
 21 59  1  6
 23 60  1  0
 24 61  1  0
 25 62  1  0
 26 63  1  0
 27 64  1  0
 29 65  1  0
 30 66  1  0
 32 67  1  0
 35 68  1  0
 36 69  1  0
M  END
>  <smiles>  (12) 
O=C(NCC(=O)N1C[C@H](O)C[C@H]1C(=O)N[C@@H]1CCCC[C@H]1c1ccccc1)c1ccc2cc(F)ccc2n1

>  <score_type>  (12) 
oracle

>  <origin>  (12) 
autodockgpu

>  <m_score__min__energy>  (12) 
-10.26

>  <m_primary>  (12) 
energy

>  <rmsd>  (12) 
3.3252385650843244

>  <m_score__min__rmsd>  (12) 
3.3252385650843244

>  <meeko>  (12) 
{"free_energy": -8.71, "intermolecular_energy": -11.1, "internal_energy": -3.28, "cluster_size": 3, "cluster_id": 4, "rank_in_cluster": 2}

>  <energy>  (12) 
-9.77

>  <cluster_rmsd>  (12) 
0.0

>  <cluster>  (12) 
2

$$$$

     RDKit          3D

 69 73  0  0  0  0  0  0  0  0999 V2000
  140.0570   73.0250  222.6680 O   0  0  0  0  0  0  0  0  0  0  0  0
  140.0600   73.9510  221.8130 C   0  0  0  0  0  0  0  0  0  0  0  0
  140.2610   73.5430  220.4540 N   0  0  0  0  0  0  0  0  0  0  0  0
  140.4350   72.1240  220.2270 C   0  0  0  0  0  0  0  0  0  0  0  0
  141.8570   71.7270  220.1450 C   0  0  0  0  0  0  0  0  0  0  0  0
  142.2690   70.5510  220.3160 O   0  0  0  0  0  0  0  0  0  0  0  0
  142.8130   72.7200  219.8590 N   0  0  0  0  0  0  0  0  0  0  0  0
  143.8550   72.5850  218.8720 C   0  0  0  0  0  0  0  0  0  0  0  0
  144.8080   73.7390  219.0770 C   0  0  2  0  0  0  0  0  0  0  0  0
  146.1400   73.3080  219.0000 O   0  0  0  0  0  0  0  0  0  0  0  0
  144.4720   74.2210  220.4560 C   0  0  0  0  0  0  0  0  0  0  0  0
  142.9610   74.0460  220.4690 C   0  0  1  0  0  0  0  0  0  0  0  0
  142.4010   75.0350  219.4870 C   0  0  0  0  0  0  0  0  0  0  0  0
  142.1110   74.6530  218.3030 O   0  0  0  0  0  0  0  0  0  0  0  0
  142.2150   76.3560  219.9140 N   0  0  0  0  0  0  0  0  0  0  0  0
  141.6780   77.4070  219.0530 C   0  0  2  0  0  0  0  0  0  0  0  0
  142.7670   77.7380  218.0780 C   0  0  0  0  0  0  0  0  0  0  0  0
  142.5660   79.0070  217.3130 C   0  0  0  0  0  0  0  0  0  0  0  0
  142.2080   80.1690  218.1670 C   0  0  0  0  0  0  0  0  0  0  0  0
  141.8020   79.8670  219.5670 C   0  0  0  0  0  0  0  0  0  0  0  0
  141.1400   78.5610  219.8140 C   0  0  1  0  0  0  0  0  0  0  0  0
  139.6380   78.6490  219.7090 C   0  0  0  0  0  0  0  0  0  0  0  0
  138.9880   79.8430  219.9660 C   0  0  0  0  0  0  0  0  0  0  0  0
  137.5970   79.9220  219.8680 C   0  0  0  0  0  0  0  0  0  0  0  0
  136.8680   78.7920  219.5120 C   0  0  0  0  0  0  0  0  0  0  0  0
  137.5090   77.6050  219.2570 C   0  0  0  0  0  0  0  0  0  0  0  0
  138.8850   77.5430  219.3580 C   0  0  0  0  0  0  0  0  0  0  0  0
  139.8730   75.3470  222.1670 C   0  0  0  0  0  0  0  0  0  0  0  0
  138.5750   75.8030  222.3040 C   0  0  0  0  0  0  0  0  0  0  0  0
  138.2920   77.1100  222.6360 C   0  0  0  0  0  0  0  0  0  0  0  0
  139.3290   77.9720  222.8340 C   0  0  0  0  0  0  0  0  0  0  0  0
  139.1000   79.3050  223.1720 C   0  0  0  0  0  0  0  0  0  0  0  0
  140.1430   80.1930  223.3760 C   0  0  0  0  0  0  0  0  0  0  0  0
  139.8580   81.4680  223.7000 F   0  0  0  0  0  0  0  0  0  0  0  0
  141.4390   79.7220  223.2350 C   0  0  0  0  0  0  0  0  0  0  0  0
  141.6450   78.3990  222.9000 C   0  0  0  0  0  0  0  0  0  0  0  0
  140.6280   77.5000  222.6920 C   0  0  0  0  0  0  0  0  0  0  0  0
  140.8760   76.2130  222.3660 N   0  0  0  0  0  0  0  0  0  0  0  0
  140.2770   74.2490  219.6810 H   0  0  0  0  0  0  0  0  0  0  0  0
  139.9641   71.5751  221.0559 H   0  0  0  0  0  0  0  0  0  0  0  0
  139.9677   71.8834  219.2607 H   0  0  0  0  0  0  0  0  0  0  0  0
  144.3832   71.6298  219.0082 H   0  0  0  0  0  0  0  0  0  0  0  0
  143.4367   72.5966  217.8547 H   0  0  0  0  0  0  0  0  0  0  0  0
  144.7085   74.5242  218.3131 H   0  0  0  0  0  0  0  0  0  0  0  0
  146.6690   74.1500  218.9450 H   0  0  0  0  0  0  0  0  0  0  0  0
  144.9560   73.6045  221.2278 H   0  0  0  0  0  0  0  0  0  0  0  0
  144.8101   75.2453  220.6715 H   0  0  0  0  0  0  0  0  0  0  0  0
  142.4862   74.1651  221.4541 H   0  0  0  0  0  0  0  0  0  0  0  0
  142.4550   76.6670  220.8920 H   0  0  0  0  0  0  0  0  0  0  0  0
  140.7879   77.0670  218.5032 H   0  0  0  0  0  0  0  0  0  0  0  0
  143.7110   77.8220  218.6364 H   0  0  0  0  0  0  0  0  0  0  0  0
  142.7703   76.9278  217.3340 H   0  0  0  0  0  0  0  0  0  0  0  0
  143.4988   79.2424  216.7796 H   0  0  0  0  0  0  0  0  0  0  0  0
  141.7217   78.8392  216.6282 H   0  0  0  0  0  0  0  0  0  0  0  0
  143.0830   80.8342  218.2094 H   0  0  0  0  0  0  0  0  0  0  0  0
  141.3181   80.6120  217.6960 H   0  0  0  0  0  0  0  0  0  0  0  0
  142.7083   79.9017  220.1894 H   0  0  0  0  0  0  0  0  0  0  0  0
  141.0402   80.6221  219.8109 H   0  0  0  0  0  0  0  0  0  0  0  0
  141.4014   78.3379  220.8589 H   0  0  0  0  0  0  0  0  0  0  0  0
  139.5689   80.7334  220.2486 H   0  0  0  0  0  0  0  0  0  0  0  0
  137.0811   80.8720  220.0711 H   0  0  0  0  0  0  0  0  0  0  0  0
  135.7723   78.8498  219.4344 H   0  0  0  0  0  0  0  0  0  0  0  0
  136.9322   76.7119  218.9750 H   0  0  0  0  0  0  0  0  0  0  0  0
  139.3951   76.5900  219.1542 H   0  0  0  0  0  0  0  0  0  0  0  0
  137.7433   75.1013  222.1431 H   0  0  0  0  0  0  0  0  0  0  0  0
  137.2511   77.4505  222.7391 H   0  0  0  0  0  0  0  0  0  0  0  0
  138.0646   79.6605  223.2794 H   0  0  0  0  0  0  0  0  0  0  0  0
  142.2947   80.3959  223.3886 H   0  0  0  0  0  0  0  0  0  0  0  0
  142.6811   78.0452  222.7937 H   0  0  0  0  0  0  0  0  0  0  0  0
  1  2  2  0
  2  3  1  0
  3  4  1  0
  4  5  1  0
  5  6  2  0
  5  7  1  0
  7  8  1  0
  8  9  1  0
  9 10  1  0
  9 11  1  0
 11 12  1  0
 12 13  1  0
 13 14  2  0
 13 15  1  0
 15 16  1  0
 16 17  1  0
 17 18  1  0
 18 19  1  0
 19 20  1  0
 20 21  1  0
 21 22  1  0
 22 23  2  0
 23 24  1  0
 24 25  2  0
 25 26  1  0
 26 27  2  0
  2 28  1  0
 28 29  2  0
 29 30  1  0
 30 31  2  0
 31 32  1  0
 32 33  2  0
 33 34  1  0
 33 35  1  0
 35 36  2  0
 36 37  1  0
 37 38  2  0
 12  7  1  0
 21 16  1  0
 27 22  1  0
 38 28  1  0
 37 31  1  0
  3 39  1  0
  4 40  1  0
  4 41  1  0
  8 42  1  0
  8 43  1  0
  9 44  1  6
 10 45  1  0
 11 46  1  0
 11 47  1  0
 12 48  1  1
 15 49  1  0
 16 50  1  6
 17 51  1  0
 17 52  1  0
 18 53  1  0
 18 54  1  0
 19 55  1  0
 19 56  1  0
 20 57  1  0
 20 58  1  0
 21 59  1  1
 23 60  1  0
 24 61  1  0
 25 62  1  0
 26 63  1  0
 27 64  1  0
 29 65  1  0
 30 66  1  0
 32 67  1  0
 35 68  1  0
 36 69  1  0
M  END
>  <smiles>  (13) 
O=C(NCC(=O)N1C[C@H](O)C[C@H]1C(=O)N[C@@H]1CCCC[C@H]1c1ccccc1)c1ccc2cc(F)ccc2n1

>  <score_type>  (13) 
oracle

>  <origin>  (13) 
autodockgpu

>  <m_score__min__energy>  (13) 
-10.26

>  <m_primary>  (13) 
energy

>  <rmsd>  (13) 
6.36961506249035

>  <m_score__min__rmsd>  (13) 
6.36961506249035

>  <meeko>  (13) 
{"free_energy": -7.25, "intermolecular_energy": -9.64, "internal_energy": -5.16, "cluster_size": 12, "cluster_id": 9, "rank_in_cluster": 5}

>  <energy>  (13) 
-9.54

>  <cluster_rmsd>  (13) 
0.66

>  <cluster>  (13) 
2

$$$$

     RDKit          3D

 69 73  0  0  0  0  0  0  0  0999 V2000
  139.7040   73.8750  222.3730 O   0  0  0  0  0  0  0  0  0  0  0  0
  140.0230   72.6630  222.2410 C   0  0  0  0  0  0  0  0  0  0  0  0
  140.3600   72.2490  220.9110 N   0  0  0  0  0  0  0  0  0  0  0  0
  140.2960   73.2670  219.8840 C   0  0  0  0  0  0  0  0  0  0  0  0
  141.5790   73.4420  219.1710 C   0  0  0  0  0  0  0  0  0  0  0  0
  142.2800   72.4890  218.7420 O   0  0  0  0  0  0  0  0  0  0  0  0
  142.0510   74.7500  218.9540 N   0  0  0  0  0  0  0  0  0  0  0  0
  141.9360   75.4600  217.7050 C   0  0  0  0  0  0  0  0  0  0  0  0
  142.7990   76.6950  217.8180 C   0  0  2  0  0  0  0  0  0  0  0  0
  143.5410   76.8970  216.6470 O   0  0  0  0  0  0  0  0  0  0  0  0
  143.6920   76.3830  218.9800 C   0  0  0  0  0  0  0  0  0  0  0  0
  142.7340   75.6410  219.8990 C   0  0  1  0  0  0  0  0  0  0  0  0
  141.7110   76.6420  220.3600 C   0  0  0  0  0  0  0  0  0  0  0  0
  140.4680   76.3860  220.2140 O   0  0  0  0  0  0  0  0  0  0  0  0
  142.1680   77.8320  220.9400 N   0  0  0  0  0  0  0  0  0  0  0  0
  141.2740   78.8800  221.4260 C   0  0  2  0  0  0  0  0  0  0  0  0
  142.0030   80.1730  221.2210 C   0  0  0  0  0  0  0  0  0  0  0  0
  141.4220   81.3470  221.9420 C   0  0  0  0  0  0  0  0  0  0  0  0
  141.1380   81.0860  223.3770 C   0  0  0  0  0  0  0  0  0  0  0  0
  141.1690   79.6640  223.8150 C   0  0  0  0  0  0  0  0  0  0  0  0
  140.7950   78.6370  222.8090 C   0  0  1  0  0  0  0  0  0  0  0  0
  139.3240   78.3090  222.8420 C   0  0  0  0  0  0  0  0  0  0  0  0
  138.3890   79.3100  223.0390 C   0  0  0  0  0  0  0  0  0  0  0  0
  137.0260   79.0040  223.0700 C   0  0  0  0  0  0  0  0  0  0  0  0
  136.6140   77.6860  222.9020 C   0  0  0  0  0  0  0  0  0  0  0  0
  137.5390   76.6900  222.7070 C   0  0  0  0  0  0  0  0  0  0  0  0
  138.8820   77.0080  222.6790 C   0  0  0  0  0  0  0  0  0  0  0  0
  140.0510   71.7320  223.3560 C   0  0  0  0  0  0  0  0  0  0  0  0
  139.5230   70.4720  223.1480 C   0  0  0  0  0  0  0  0  0  0  0  0
  139.5020   69.5170  224.1420 C   0  0  0  0  0  0  0  0  0  0  0  0
  140.0200   69.8330  225.3620 C   0  0  0  0  0  0  0  0  0  0  0  0
  140.0250   68.9060  226.4020 C   0  0  0  0  0  0  0  0  0  0  0  0
  140.5470   69.2130  227.6480 C   0  0  0  0  0  0  0  0  0  0  0  0
  140.5230   68.2750  228.6130 F   0  0  0  0  0  0  0  0  0  0  0  0
  141.0730   70.4810  227.8420 C   0  0  0  0  0  0  0  0  0  0  0  0
  141.0590   71.3850  226.7980 C   0  0  0  0  0  0  0  0  0  0  0  0
  140.5470   71.1050  225.5560 C   0  0  0  0  0  0  0  0  0  0  0  0
  140.5540   72.0210  224.5640 N   0  0  0  0  0  0  0  0  0  0  0  0
  140.6380   71.2600  220.7140 H   0  0  0  0  0  0  0  0  0  0  0  0
  139.5241   72.9819  219.1540 H   0  0  0  0  0  0  0  0  0  0  0  0
  140.0581   74.2210  220.3773 H   0  0  0  0  0  0  0  0  0  0  0  0
  142.2884   74.8274  216.8770 H   0  0  0  0  0  0  0  0  0  0  0  0
  140.8892   75.7298  217.5017 H   0  0  0  0  0  0  0  0  0  0  0  0
  142.2182   77.6184  217.9596 H   0  0  0  0  0  0  0  0  0  0  0  0
  143.8230   77.8500  216.6930 H   0  0  0  0  0  0  0  0  0  0  0  0
  144.5368   75.7459  218.6793 H   0  0  0  0  0  0  0  0  0  0  0  0
  144.1628   77.2659  219.4370 H   0  0  0  0  0  0  0  0  0  0  0  0
  143.2050   75.1421  220.7588 H   0  0  0  0  0  0  0  0  0  0  0  0
  143.1950   78.0390  221.0590 H   0  0  0  0  0  0  0  0  0  0  0  0
  140.3295   78.9023  220.8626 H   0  0  0  0  0  0  0  0  0  0  0  0
  143.0389   80.0391  221.5660 H   0  0  0  0  0  0  0  0  0  0  0  0
  141.9263   80.4024  220.1479 H   0  0  0  0  0  0  0  0  0  0  0  0
  142.1342   82.1827  221.8754 H   0  0  0  0  0  0  0  0  0  0  0  0
  140.4599   81.5760  221.4604 H   0  0  0  0  0  0  0  0  0  0  0  0
  141.8850   81.6341  223.9700 H   0  0  0  0  0  0  0  0  0  0  0  0
  140.0995   81.4142  223.5312 H   0  0  0  0  0  0  0  0  0  0  0  0
  142.1934   79.4426  224.1492 H   0  0  0  0  0  0  0  0  0  0  0  0
  140.3983   79.5904  224.5964 H   0  0  0  0  0  0  0  0  0  0  0  0
  141.3546   77.7476  223.1341 H   0  0  0  0  0  0  0  0  0  0  0  0
  138.7201   80.3506  223.1717 H   0  0  0  0  0  0  0  0  0  0  0  0
  136.2834   79.8003  223.2263 H   0  0  0  0  0  0  0  0  0  0  0  0
  135.5420   77.4404  222.9254 H   0  0  0  0  0  0  0  0  0  0  0  0
  137.2127   75.6479  222.5743 H   0  0  0  0  0  0  0  0  0  0  0  0
  139.6195   76.2068  222.5232 H   0  0  0  0  0  0  0  0  0  0  0  0
  139.1073   70.2238  222.1603 H   0  0  0  0  0  0  0  0  0  0  0  0
  139.0759   68.5205  223.9541 H   0  0  0  0  0  0  0  0  0  0  0  0
  139.6037   67.9047  226.2294 H   0  0  0  0  0  0  0  0  0  0  0  0
  141.4969   70.7639  228.8168 H   0  0  0  0  0  0  0  0  0  0  0  0
  141.4820   72.3855  226.9718 H   0  0  0  0  0  0  0  0  0  0  0  0
  1  2  2  0
  2  3  1  0
  3  4  1  0
  4  5  1  0
  5  6  2  0
  5  7  1  0
  7  8  1  0
  8  9  1  0
  9 10  1  0
  9 11  1  0
 11 12  1  0
 12 13  1  0
 13 14  2  0
 13 15  1  0
 15 16  1  0
 16 17  1  0
 17 18  1  0
 18 19  1  0
 19 20  1  0
 20 21  1  0
 21 22  1  0
 22 23  2  0
 23 24  1  0
 24 25  2  0
 25 26  1  0
 26 27  2  0
  2 28  1  0
 28 29  2  0
 29 30  1  0
 30 31  2  0
 31 32  1  0
 32 33  2  0
 33 34  1  0
 33 35  1  0
 35 36  2  0
 36 37  1  0
 37 38  2  0
 12  7  1  0
 21 16  1  0
 27 22  1  0
 38 28  1  0
 37 31  1  0
  3 39  1  0
  4 40  1  0
  4 41  1  0
  8 42  1  0
  8 43  1  0
  9 44  1  1
 10 45  1  0
 11 46  1  0
 11 47  1  0
 12 48  1  1
 15 49  1  0
 16 50  1  6
 17 51  1  0
 17 52  1  0
 18 53  1  0
 18 54  1  0
 19 55  1  0
 19 56  1  0
 20 57  1  0
 20 58  1  0
 21 59  1  1
 23 60  1  0
 24 61  1  0
 25 62  1  0
 26 63  1  0
 27 64  1  0
 29 65  1  0
 30 66  1  0
 32 67  1  0
 35 68  1  0
 36 69  1  0
M  END
>  <smiles>  (14) 
O=C(NCC(=O)N1C[C@H](O)C[C@H]1C(=O)N[C@@H]1CCCC[C@H]1c1ccccc1)c1ccc2cc(F)ccc2n1

>  <score_type>  (14) 
oracle

>  <origin>  (14) 
autodockgpu

>  <m_score__min__energy>  (14) 
-10.26

>  <m_primary>  (14) 
energy

>  <rmsd>  (14) 
2.9928586599714526

>  <m_score__min__rmsd>  (14) 
2.9928586599714526

>  <meeko>  (14) 
{"free_energy": -9.54, "intermolecular_energy": -11.92, "internal_energy": -2.53, "cluster_size": 5, "cluster_id": 2, "rank_in_cluster": 2}

>  <energy>  (14) 
-9.44

>  <cluster_rmsd>  (14) 
1.44

>  <cluster>  (14) 
2

$$$$

     RDKit          3D

 69 73  0  0  0  0  0  0  0  0999 V2000
  138.8680   70.8300  221.4350 O   0  0  0  0  0  0  0  0  0  0  0  0
  138.9960   71.5610  222.4530 C   0  0  0  0  0  0  0  0  0  0  0  0
  138.6090   72.9310  222.2890 N   0  0  0  0  0  0  0  0  0  0  0  0
  138.1200   73.3090  220.9800 C   0  0  0  0  0  0  0  0  0  0  0  0
  139.1720   73.2680  219.9420 C   0  0  0  0  0  0  0  0  0  0  0  0
  139.1710   72.4660  218.9720 O   0  0  0  0  0  0  0  0  0  0  0  0
  140.2410   74.1780  220.0370 N   0  0  0  0  0  0  0  0  0  0  0  0
  140.9820   74.6830  218.9080 C   0  0  0  0  0  0  0  0  0  0  0  0
  142.1940   75.3980  219.4600 C   0  0  2  0  0  0  0  0  0  0  0  0
  143.3420   75.0770  218.7240 O   0  0  0  0  0  0  0  0  0  0  0  0
  142.2870   74.8800  220.8640 C   0  0  0  0  0  0  0  0  0  0  0  0
  140.8160   74.7870  221.2420 C   0  0  1  0  0  0  0  0  0  0  0  0
  140.2930   76.1940  221.3030 C   0  0  0  0  0  0  0  0  0  0  0  0
  139.0800   76.4300  220.9810 O   0  0  0  0  0  0  0  0  0  0  0  0
  141.1690   77.2050  221.7170 N   0  0  0  0  0  0  0  0  0  0  0  0
  140.7780   78.6100  221.8170 C   0  0  2  0  0  0  0  0  0  0  0  0
  141.8420   79.3860  221.1030 C   0  0  0  0  0  0  0  0  0  0  0  0
  141.8280   80.8600  221.3570 C   0  0  0  0  0  0  0  0  0  0  0  0
  141.7470   81.2170  222.7960 C   0  0  0  0  0  0  0  0  0  0  0  0
  141.3870   80.1200  223.7360 C   0  0  0  0  0  0  0  0  0  0  0  0
  140.5130   79.0390  223.2130 C   0  0  1  0  0  0  0  0  0  0  0  0
  139.0500   79.3200  223.4430 C   0  0  0  0  0  0  0  0  0  0  0  0
  138.0840   78.5120  222.8700 C   0  0  0  0  0  0  0  0  0  0  0  0
  136.7290   78.7740  223.0860 C   0  0  0  0  0  0  0  0  0  0  0  0
  136.3560   79.8540  223.8790 C   0  0  0  0  0  0  0  0  0  0  0  0
  137.3120   80.6590  224.4490 C   0  0  0  0  0  0  0  0  0  0  0  0
  138.6470   80.3860  224.2270 C   0  0  0  0  0  0  0  0  0  0  0  0
  139.5020   71.0620  223.7200 C   0  0  0  0  0  0  0  0  0  0  0  0
  140.3610   71.8790  224.4310 C   0  0  0  0  0  0  0  0  0  0  0  0
  140.8960   71.4980  225.6420 C   0  0  0  0  0  0  0  0  0  0  0  0
  140.5610   70.2770  226.1480 C   0  0  0  0  0  0  0  0  0  0  0  0
  141.0720   69.8420  227.3690 C   0  0  0  0  0  0  0  0  0  0  0  0
  140.7410   68.6030  227.8960 C   0  0  0  0  0  0  0  0  0  0  0  0
  141.2670   68.2390  229.0800 F   0  0  0  0  0  0  0  0  0  0  0  0
  139.8790   67.7940  227.1730 C   0  0  0  0  0  0  0  0  0  0  0  0
  139.3830   68.2450  225.9650 C   0  0  0  0  0  0  0  0  0  0  0  0
  139.6960   69.4660  225.4220 C   0  0  0  0  0  0  0  0  0  0  0  0
  139.1870   69.8660  224.2370 N   0  0  0  0  0  0  0  0  0  0  0  0
  138.6830   73.6060  223.0850 H   0  0  0  0  0  0  0  0  0  0  0  0
  137.3150   72.6169  220.6921 H   0  0  0  0  0  0  0  0  0  0  0  0
  137.7611   74.3466  221.0473 H   0  0  0  0  0  0  0  0  0  0  0  0
  141.2963   73.8517  218.2598 H   0  0  0  0  0  0  0  0  0  0  0  0
  140.3639   75.3651  218.3057 H   0  0  0  0  0  0  0  0  0  0  0  0
  142.1107   76.4938  219.4121 H   0  0  0  0  0  0  0  0  0  0  0  0
  143.0160   74.4640  218.0110 H   0  0  0  0  0  0  0  0  0  0  0  0
  142.7753   73.8950  220.8988 H   0  0  0  0  0  0  0  0  0  0  0  0
  142.8879   75.5079  221.5383 H   0  0  0  0  0  0  0  0  0  0  0  0
  140.6088   74.2547  222.1821 H   0  0  0  0  0  0  0  0  0  0  0  0
  142.1690   77.0060  221.9820 H   0  0  0  0  0  0  0  0  0  0  0  0
  139.8065   78.7973  221.3363 H   0  0  0  0  0  0  0  0  0  0  0  0
  142.8201   78.9946  221.4194 H   0  0  0  0  0  0  0  0  0  0  0  0
  141.6469   79.2576  220.0281 H   0  0  0  0  0  0  0  0  0  0  0  0
  142.7510   81.2924  220.9433 H   0  0  0  0  0  0  0  0  0  0  0  0
  140.9240   81.2607  220.8750 H   0  0  0  0  0  0  0  0  0  0  0  0
  142.7300   81.6068  223.0989 H   0  0  0  0  0  0  0  0  0  0  0  0
  140.9237   81.9429  222.8687 H   0  0  0  0  0  0  0  0  0  0  0  0
  142.3238   79.6536  224.0749 H   0  0  0  0  0  0  0  0  0  0  0  0
  140.7960   80.6057  224.5264 H   0  0  0  0  0  0  0  0  0  0  0  0
  140.7969   78.1672  223.8207 H   0  0  0  0  0  0  0  0  0  0  0  0
  138.3841   77.6602  222.2420 H   0  0  0  0  0  0  0  0  0  0  0  0
  135.9616   78.1300  222.6316 H   0  0  0  0  0  0  0  0  0  0  0  0
  135.2901   80.0646  224.0506 H   0  0  0  0  0  0  0  0  0  0  0  0
  137.0167   81.5130  225.0763 H   0  0  0  0  0  0  0  0  0  0  0  0
  139.4097   81.0327  224.6853 H   0  0  0  0  0  0  0  0  0  0  0  0
  140.6254   72.8633  224.0172 H   0  0  0  0  0  0  0  0  0  0  0  0
  141.5789   72.1646  226.1891 H   0  0  0  0  0  0  0  0  0  0  0  0
  141.7550   70.4978  227.9288 H   0  0  0  0  0  0  0  0  0  0  0  0
  139.5928   66.8036  227.5567 H   0  0  0  0  0  0  0  0  0  0  0  0
  138.6989   67.5887  225.4071 H   0  0  0  0  0  0  0  0  0  0  0  0
  1  2  2  0
  2  3  1  0
  3  4  1  0
  4  5  1  0
  5  6  2  0
  5  7  1  0
  7  8  1  0
  8  9  1  0
  9 10  1  0
  9 11  1  0
 11 12  1  0
 12 13  1  0
 13 14  2  0
 13 15  1  0
 15 16  1  0
 16 17  1  0
 17 18  1  0
 18 19  1  0
 19 20  1  0
 20 21  1  0
 21 22  1  0
 22 23  2  0
 23 24  1  0
 24 25  2  0
 25 26  1  0
 26 27  2  0
  2 28  1  0
 28 29  2  0
 29 30  1  0
 30 31  2  0
 31 32  1  0
 32 33  2  0
 33 34  1  0
 33 35  1  0
 35 36  2  0
 36 37  1  0
 37 38  2  0
 12  7  1  0
 21 16  1  0
 27 22  1  0
 38 28  1  0
 37 31  1  0
  3 39  1  0
  4 40  1  0
  4 41  1  0
  8 42  1  0
  8 43  1  0
  9 44  1  1
 10 45  1  0
 11 46  1  0
 11 47  1  0
 12 48  1  1
 15 49  1  0
 16 50  1  6
 17 51  1  0
 17 52  1  0
 18 53  1  0
 18 54  1  0
 19 55  1  0
 19 56  1  0
 20 57  1  0
 20 58  1  0
 21 59  1  1
 23 60  1  0
 24 61  1  0
 25 62  1  0
 26 63  1  0
 27 64  1  0
 29 65  1  0
 30 66  1  0
 32 67  1  0
 35 68  1  0
 36 69  1  0
M  END
>  <smiles>  (15) 
O=C(NCC(=O)N1C[C@H](O)C[C@H]1C(=O)N[C@@H]1CCCC[C@H]1c1ccccc1)c1ccc2cc(F)ccc2n1

>  <score_type>  (15) 
oracle

>  <origin>  (15) 
autodockgpu

>  <m_score__min__energy>  (15) 
-10.26

>  <m_primary>  (15) 
energy

>  <rmsd>  (15) 
3.3079141052557737

>  <m_score__min__rmsd>  (15) 
3.3079141052557737

>  <meeko>  (15) 
{"free_energy": -9.44, "intermolecular_energy": -11.83, "internal_energy": -2.32, "cluster_size": 5, "cluster_id": 2, "rank_in_cluster": 3}

>  <energy>  (15) 
-9.42

>  <cluster_rmsd>  (15) 
1.22

>  <cluster>  (15) 
2

$$$$

     RDKit          3D

 69 73  0  0  0  0  0  0  0  0999 V2000
  140.4200   73.3210  222.4170 O   0  0  0  0  0  0  0  0  0  0  0  0
  140.2400   72.0740  222.4330 C   0  0  0  0  0  0  0  0  0  0  0  0
  140.1700   71.4380  221.1500 N   0  0  0  0  0  0  0  0  0  0  0  0
  140.3150   72.3000  219.9960 C   0  0  0  0  0  0  0  0  0  0  0  0
  141.5310   72.0040  219.2100 C   0  0  0  0  0  0  0  0  0  0  0  0
  141.6250   71.0500  218.3940 O   0  0  0  0  0  0  0  0  0  0  0  0
  142.6560   72.8320  219.3800 N   0  0  0  0  0  0  0  0  0  0  0  0
  143.6520   73.0690  218.3650 C   0  0  0  0  0  0  0  0  0  0  0  0
  144.8060   73.7780  219.0370 C   0  0  2  0  0  0  0  0  0  0  0  0
  146.0320   73.2460  218.6180 O   0  0  0  0  0  0  0  0  0  0  0  0
  144.5680   73.5160  220.4930 C   0  0  0  0  0  0  0  0  0  0  0  0
  143.0510   73.6020  220.5650 C   0  0  1  0  0  0  0  0  0  0  0  0
  142.6840   75.0330  220.2890 C   0  0  0  0  0  0  0  0  0  0  0  0
  143.5660   75.8320  219.8240 O   0  0  0  0  0  0  0  0  0  0  0  0
  141.3700   75.4400  220.5540 N   0  0  0  0  0  0  0  0  0  0  0  0
  140.8930   76.8020  220.3270 C   0  0  2  0  0  0  0  0  0  0  0  0
  140.1140   76.7580  219.0480 C   0  0  0  0  0  0  0  0  0  0  0  0
  139.8090   78.0940  218.4470 C   0  0  0  0  0  0  0  0  0  0  0  0
  140.9910   78.9880  218.3510 C   0  0  0  0  0  0  0  0  0  0  0  0
  142.2000   78.5820  219.1190 C   0  0  0  0  0  0  0  0  0  0  0  0
  141.9810   77.8110  220.3690 C   0  0  1  0  0  0  0  0  0  0  0  0
  141.8710   78.7010  221.5810 C   0  0  0  0  0  0  0  0  0  0  0  0
  142.2010   80.0420  221.4960 C   0  0  0  0  0  0  0  0  0  0  0  0
  142.0980   80.8650  222.6210 C   0  0  0  0  0  0  0  0  0  0  0  0
  141.6630   80.3270  223.8280 C   0  0  0  0  0  0  0  0  0  0  0  0
  141.3350   78.9960  223.9160 C   0  0  0  0  0  0  0  0  0  0  0  0
  141.4410   78.1960  222.7960 C   0  0  0  0  0  0  0  0  0  0  0  0
  140.1090   71.3140  223.6640 C   0  0  0  0  0  0  0  0  0  0  0  0
  139.4010   70.1280  223.6100 C   0  0  0  0  0  0  0  0  0  0  0  0
  139.2200   69.3350  224.7230 C   0  0  0  0  0  0  0  0  0  0  0  0
  139.7580   69.7400  225.9080 C   0  0  0  0  0  0  0  0  0  0  0  0
  139.6060   68.9780  227.0640 C   0  0  0  0  0  0  0  0  0  0  0  0
  140.1460   69.3770  228.2750 C   0  0  0  0  0  0  0  0  0  0  0  0
  139.9640   68.5970  229.3570 F   0  0  0  0  0  0  0  0  0  0  0  0
  140.8520   70.5690  228.3150 C   0  0  0  0  0  0  0  0  0  0  0  0
  140.9930   71.3100  227.1580 C   0  0  0  0  0  0  0  0  0  0  0  0
  140.4660   70.9360  225.9470 C   0  0  0  0  0  0  0  0  0  0  0  0
  140.6280   71.6930  224.8400 N   0  0  0  0  0  0  0  0  0  0  0  0
  140.0220   70.4050  221.0730 H   0  0  0  0  0  0  0  0  0  0  0  0
  139.4365   72.1694  219.3470 H   0  0  0  0  0  0  0  0  0  0  0  0
  140.4009   73.3334  220.3629 H   0  0  0  0  0  0  0  0  0  0  0  0
  143.9920   72.1137  217.9386 H   0  0  0  0  0  0  0  0  0  0  0  0
  143.2410   73.6766  217.5453 H   0  0  0  0  0  0  0  0  0  0  0  0
  144.8550   74.8506  218.7980 H   0  0  0  0  0  0  0  0  0  0  0  0
  146.6120   74.0430  218.4730 H   0  0  0  0  0  0  0  0  0  0  0  0
  144.9296   72.5198  220.7876 H   0  0  0  0  0  0  0  0  0  0  0  0
  145.0918   74.2090  221.1678 H   0  0  0  0  0  0  0  0  0  0  0  0
  142.6090   73.2632  221.5136 H   0  0  0  0  0  0  0  0  0  0  0  0
  140.6450   74.7770  220.9370 H   0  0  0  0  0  0  0  0  0  0  0  0
  140.2374   77.1447  221.1411 H   0  0  0  0  0  0  0  0  0  0  0  0
  140.6942   76.1785  218.3149 H   0  0  0  0  0  0  0  0  0  0  0  0
  139.1433   76.3031  219.2948 H   0  0  0  0  0  0  0  0  0  0  0  0
  139.4093   77.9364  217.4344 H   0  0  0  0  0  0  0  0  0  0  0  0
  139.0847   78.5881  219.1113 H   0  0  0  0  0  0  0  0  0  0  0  0
  141.2756   79.0517  217.2904 H   0  0  0  0  0  0  0  0  0  0  0  0
  140.6704   79.9404  218.7984 H   0  0  0  0  0  0  0  0  0  0  0  0
  142.8229   77.9654  218.4544 H   0  0  0  0  0  0  0  0  0  0  0  0
  142.6602   79.5265  219.4447 H   0  0  0  0  0  0  0  0  0  0  0  0
  142.8988   77.2118  220.4613 H   0  0  0  0  0  0  0  0  0  0  0  0
  142.5457   80.4620  220.5395 H   0  0  0  0  0  0  0  0  0  0  0  0
  142.3592   81.9313  222.5525 H   0  0  0  0  0  0  0  0  0  0  0  0
  141.5813   80.9707  224.7163 H   0  0  0  0  0  0  0  0  0  0  0  0
  140.9909   78.5713  224.8706 H   0  0  0  0  0  0  0  0  0  0  0  0
  141.1772   77.1307  222.8709 H   0  0  0  0  0  0  0  0  0  0  0  0
  138.9692   69.8075  222.6504 H   0  0  0  0  0  0  0  0  0  0  0  0
  138.6531   68.3947  224.6561 H   0  0  0  0  0  0  0  0  0  0  0  0
  139.0423   68.0347  227.0136 H   0  0  0  0  0  0  0  0  0  0  0  0
  141.2953   70.9211  229.2581 H   0  0  0  0  0  0  0  0  0  0  0  0
  141.5588   72.2519  227.2099 H   0  0  0  0  0  0  0  0  0  0  0  0
  1  2  2  0
  2  3  1  0
  3  4  1  0
  4  5  1  0
  5  6  2  0
  5  7  1  0
  7  8  1  0
  8  9  1  0
  9 10  1  0
  9 11  1  0
 11 12  1  0
 12 13  1  0
 13 14  2  0
 13 15  1  0
 15 16  1  0
 16 17  1  0
 17 18  1  0
 18 19  1  0
 19 20  1  0
 20 21  1  0
 21 22  1  0
 22 23  2  0
 23 24  1  0
 24 25  2  0
 25 26  1  0
 26 27  2  0
  2 28  1  0
 28 29  2  0
 29 30  1  0
 30 31  2  0
 31 32  1  0
 32 33  2  0
 33 34  1  0
 33 35  1  0
 35 36  2  0
 36 37  1  0
 37 38  2  0
 12  7  1  0
 21 16  1  0
 27 22  1  0
 38 28  1  0
 37 31  1  0
  3 39  1  0
  4 40  1  0
  4 41  1  0
  8 42  1  0
  8 43  1  0
  9 44  1  1
 10 45  1  0
 11 46  1  0
 11 47  1  0
 12 48  1  1
 15 49  1  0
 16 50  1  1
 17 51  1  0
 17 52  1  0
 18 53  1  0
 18 54  1  0
 19 55  1  0
 19 56  1  0
 20 57  1  0
 20 58  1  0
 21 59  1  1
 23 60  1  0
 24 61  1  0
 25 62  1  0
 26 63  1  0
 27 64  1  0
 29 65  1  0
 30 66  1  0
 32 67  1  0
 35 68  1  0
 36 69  1  0
M  END
>  <smiles>  (16) 
O=C(NCC(=O)N1C[C@H](O)C[C@H]1C(=O)N[C@@H]1CCCC[C@H]1c1ccccc1)c1ccc2cc(F)ccc2n1

>  <score_type>  (16) 
oracle

>  <origin>  (16) 
autodockgpu

>  <m_score__min__energy>  (16) 
-10.26

>  <m_primary>  (16) 
energy

>  <rmsd>  (16) 
3.834234883636527

>  <m_score__min__rmsd>  (16) 
3.834234883636527

>  <meeko>  (16) 
{"free_energy": -10.26, "intermolecular_energy": -12.65, "internal_energy": -2.56, "cluster_size": 11, "cluster_id": 1, "rank_in_cluster": 1}

>  <energy>  (16) 
-9.36

>  <cluster_rmsd>  (16) 
1.4

>  <cluster>  (16) 
2

$$$$

     RDKit          3D

 69 73  0  0  0  0  0  0  0  0999 V2000
  137.8290   70.3630  221.4900 O   0  0  0  0  0  0  0  0  0  0  0  0
  138.1940   71.0460  222.4840 C   0  0  0  0  0  0  0  0  0  0  0  0
  138.0030   72.4620  222.3700 N   0  0  0  0  0  0  0  0  0  0  0  0
  137.4160   72.9360  221.1350 C   0  0  0  0  0  0  0  0  0  0  0  0
  137.6510   74.3770  220.9040 C   0  0  0  0  0  0  0  0  0  0  0  0
  136.7330   75.2260  220.7720 O   0  0  0  0  0  0  0  0  0  0  0  0
  138.9800   74.8330  220.8260 N   0  0  0  0  0  0  0  0  0  0  0  0
  139.5860   75.3730  219.6340 C   0  0  0  0  0  0  0  0  0  0  0  0
  141.0700   75.4790  219.9030 C   0  0  2  0  0  0  0  0  0  0  0  0
  141.8110   75.0310  218.8020 O   0  0  0  0  0  0  0  0  0  0  0  0
  141.2670   74.5850  221.0910 C   0  0  0  0  0  0  0  0  0  0  0  0
  139.9980   74.8620  221.8830 C   0  0  1  0  0  0  0  0  0  0  0  0
  140.0840   76.2850  222.3570 C   0  0  0  0  0  0  0  0  0  0  0  0
  141.1810   76.7230  222.8420 O   0  0  0  0  0  0  0  0  0  0  0  0
  138.9410   77.0860  222.2470 N   0  0  0  0  0  0  0  0  0  0  0  0
  138.8990   78.4840  222.6730 C   0  0  2  0  0  0  0  0  0  0  0  0
  137.4480   78.8380  222.7870 C   0  0  0  0  0  0  0  0  0  0  0  0
  137.1610   80.3010  222.8890 C   0  0  0  0  0  0  0  0  0  0  0  0
  137.8560   81.1200  221.8630 C   0  0  0  0  0  0  0  0  0  0  0  0
  138.9450   80.4500  221.1020 C   0  0  0  0  0  0  0  0  0  0  0  0
  139.7000   79.3780  221.8010 C   0  0  1  0  0  0  0  0  0  0  0  0
  140.9210   79.9060  222.5120 C   0  0  0  0  0  0  0  0  0  0  0  0
  142.1760   79.4090  222.2080 C   0  0  0  0  0  0  0  0  0  0  0  0
  143.3060   79.8990  222.8690 C   0  0  0  0  0  0  0  0  0  0  0  0
  143.1610   80.8900  223.8340 C   0  0  0  0  0  0  0  0  0  0  0  0
  141.9170   81.3860  224.1380 C   0  0  0  0  0  0  0  0  0  0  0  0
  140.8100   80.8910  223.4770 C   0  0  0  0  0  0  0  0  0  0  0  0
  138.7740   70.4520  223.6760 C   0  0  0  0  0  0  0  0  0  0  0  0
  138.6870   69.0790  223.8110 C   0  0  0  0  0  0  0  0  0  0  0  0
  139.2050   68.4190  224.9050 C   0  0  0  0  0  0  0  0  0  0  0  0
  139.8200   69.1510  225.8770 C   0  0  0  0  0  0  0  0  0  0  0  0
  140.3620   68.5360  227.0040 C   0  0  0  0  0  0  0  0  0  0  0  0
  140.9890   69.2660  228.0000 C   0  0  0  0  0  0  0  0  0  0  0  0
  141.4920   68.6140  229.0650 F   0  0  0  0  0  0  0  0  0  0  0  0
  141.0680   70.6420  227.8510 C   0  0  0  0  0  0  0  0  0  0  0  0
  140.5260   71.2320  226.7270 C   0  0  0  0  0  0  0  0  0  0  0  0
  139.8990   70.5310  225.7270 C   0  0  0  0  0  0  0  0  0  0  0  0
  139.3820   71.1500  224.6440 N   0  0  0  0  0  0  0  0  0  0  0  0
  138.2790   73.1030  223.1510 H   0  0  0  0  0  0  0  0  0  0  0  0
  137.8527   72.3704  220.2987 H   0  0  0  0  0  0  0  0  0  0  0  0
  136.3287   72.7855  221.2064 H   0  0  0  0  0  0  0  0  0  0  0  0
  139.4035   74.7034  218.7806 H   0  0  0  0  0  0  0  0  0  0  0  0
  139.1600   76.3568  219.3876 H   0  0  0  0  0  0  0  0  0  0  0  0
  141.4061   76.5108  220.0828 H   0  0  0  0  0  0  0  0  0  0  0  0
  141.2990   74.2480  218.4610 H   0  0  0  0  0  0  0  0  0  0  0  0
  141.3339   73.5281  220.7935 H   0  0  0  0  0  0  0  0  0  0  0  0
  142.1968   74.7727  221.6480 H   0  0  0  0  0  0  0  0  0  0  0  0
  139.8173   74.1813  222.7280 H   0  0  0  0  0  0  0  0  0  0  0  0
  138.0370   76.7210  221.8460 H   0  0  0  0  0  0  0  0  0  0  0  0
  139.3854   78.6266  223.6493 H   0  0  0  0  0  0  0  0  0  0  0  0
  136.9312   78.4501  221.8968 H   0  0  0  0  0  0  0  0  0  0  0  0
  137.0950   78.3892  223.7272 H   0  0  0  0  0  0  0  0  0  0  0  0
  136.0770   80.4507  222.7767 H   0  0  0  0  0  0  0  0  0  0  0  0
  137.5318   80.6332  223.8699 H   0  0  0  0  0  0  0  0  0  0  0  0
  137.1010   81.4578  221.1379 H   0  0  0  0  0  0  0  0  0  0  0  0
  138.3482   81.9293  222.4222 H   0  0  0  0  0  0  0  0  0  0  0  0
  138.4951   80.0054  220.2021 H   0  0  0  0  0  0  0  0  0  0  0  0
  139.6856   81.2404  220.9103 H   0  0  0  0  0  0  0  0  0  0  0  0
  140.0323   78.7246  220.9808 H   0  0  0  0  0  0  0  0  0  0  0  0
  142.2849   78.6256  221.4435 H   0  0  0  0  0  0  0  0  0  0  0  0
  144.3036   79.5033  222.6275 H   0  0  0  0  0  0  0  0  0  0  0  0
  144.0475   81.2786  224.3565 H   0  0  0  0  0  0  0  0  0  0  0  0
  141.8033   82.1703  224.9009 H   0  0  0  0  0  0  0  0  0  0  0  0
  139.8151   81.2900  223.7241 H   0  0  0  0  0  0  0  0  0  0  0  0
  138.1897   68.4957  223.0221 H   0  0  0  0  0  0  0  0  0  0  0  0
  139.1239   67.3254  224.9918 H   0  0  0  0  0  0  0  0  0  0  0  0
  140.2900   67.4430  227.1050 H   0  0  0  0  0  0  0  0  0  0  0  0
  141.5575   71.2572  228.6204 H   0  0  0  0  0  0  0  0  0  0  0  0
  140.6006   72.3249  226.6270 H   0  0  0  0  0  0  0  0  0  0  0  0
  1  2  2  0
  2  3  1  0
  3  4  1  0
  4  5  1  0
  5  6  2  0
  5  7  1  0
  7  8  1  0
  8  9  1  0
  9 10  1  0
  9 11  1  0
 11 12  1  0
 12 13  1  0
 13 14  2  0
 13 15  1  0
 15 16  1  0
 16 17  1  0
 17 18  1  0
 18 19  1  0
 19 20  1  0
 20 21  1  0
 21 22  1  0
 22 23  2  0
 23 24  1  0
 24 25  2  0
 25 26  1  0
 26 27  2  0
  2 28  1  0
 28 29  2  0
 29 30  1  0
 30 31  2  0
 31 32  1  0
 32 33  2  0
 33 34  1  0
 33 35  1  0
 35 36  2  0
 36 37  1  0
 37 38  2  0
 12  7  1  0
 21 16  1  0
 27 22  1  0
 38 28  1  0
 37 31  1  0
  3 39  1  0
  4 40  1  0
  4 41  1  0
  8 42  1  0
  8 43  1  0
  9 44  1  1
 10 45  1  0
 11 46  1  0
 11 47  1  0
 12 48  1  1
 15 49  1  0
 16 50  1  1
 17 51  1  0
 17 52  1  0
 18 53  1  0
 18 54  1  0
 19 55  1  0
 19 56  1  0
 20 57  1  0
 20 58  1  0
 21 59  1  6
 23 60  1  0
 24 61  1  0
 25 62  1  0
 26 63  1  0
 27 64  1  0
 29 65  1  0
 30 66  1  0
 32 67  1  0
 35 68  1  0
 36 69  1  0
M  END
>  <smiles>  (17) 
O=C(NCC(=O)N1C[C@H](O)C[C@H]1C(=O)N[C@@H]1CCCC[C@H]1c1ccccc1)c1ccc2cc(F)ccc2n1

>  <score_type>  (17) 
oracle

>  <origin>  (17) 
autodockgpu

>  <m_score__min__energy>  (17) 
-10.26

>  <m_primary>  (17) 
energy

>  <rmsd>  (17) 
3.0333192867675143

>  <m_score__min__rmsd>  (17) 
3.0333192867675143

>  <meeko>  (17) 
{"free_energy": -8.54, "intermolecular_energy": -10.92, "internal_energy": -3.22, "cluster_size": 3, "cluster_id": 4, "rank_in_cluster": 3}

>  <energy>  (17) 
-9.32

>  <cluster_rmsd>  (17) 
0.0

>  <cluster>  (17) 
3

$$$$

     RDKit          3D

 69 73  0  0  0  0  0  0  0  0999 V2000
  140.7990   72.0030  221.6450 O   0  0  0  0  0  0  0  0  0  0  0  0
  139.9240   72.0300  222.5510 C   0  0  0  0  0  0  0  0  0  0  0  0
  138.8480   72.9550  222.3510 N   0  0  0  0  0  0  0  0  0  0  0  0
  138.8940   73.7420  221.1370 C   0  0  0  0  0  0  0  0  0  0  0  0
  139.7390   74.9480  221.2680 C   0  0  0  0  0  0  0  0  0  0  0  0
  139.8950   75.5820  222.3440 O   0  0  0  0  0  0  0  0  0  0  0  0
  140.4110   75.4220  220.1270 N   0  0  0  0  0  0  0  0  0  0  0  0
  139.7540   75.9290  218.9480 C   0  0  0  0  0  0  0  0  0  0  0  0
  140.8120   76.0670  217.8780 C   0  0  2  0  0  0  0  0  0  0  0  0
  140.3420   75.5930  216.6460 O   0  0  0  0  0  0  0  0  0  0  0  0
  141.9340   75.2180  218.3940 C   0  0  0  0  0  0  0  0  0  0  0  0
  141.8560   75.5020  219.8870 C   0  0  1  0  0  0  0  0  0  0  0  0
  142.2430   76.9420  220.0750 C   0  0  0  0  0  0  0  0  0  0  0  0
  142.9850   77.5150  219.2080 O   0  0  0  0  0  0  0  0  0  0  0  0
  141.7660   77.6090  221.2100 N   0  0  0  0  0  0  0  0  0  0  0  0
  142.0710   79.0080  221.5040 C   0  0  2  0  0  0  0  0  0  0  0  0
  142.4010   79.0610  222.9640 C   0  0  0  0  0  0  0  0  0  0  0  0
  142.4250   80.4340  223.5570 C   0  0  0  0  0  0  0  0  0  0  0  0
  141.2290   81.2490  223.2240 C   0  0  0  0  0  0  0  0  0  0  0  0
  140.3540   80.7360  222.1350 C   0  0  0  0  0  0  0  0  0  0  0  0
  141.0030   79.9390  221.0630 C   0  0  1  0  0  0  0  0  0  0  0  0
  141.4480   80.7920  219.9030 C   0  0  0  0  0  0  0  0  0  0  0  0
  142.1810   80.2380  218.8680 C   0  0  0  0  0  0  0  0  0  0  0  0
  142.5920   81.0310  217.7940 C   0  0  0  0  0  0  0  0  0  0  0  0
  142.2620   82.3820  217.7710 C   0  0  0  0  0  0  0  0  0  0  0  0
  141.5350   82.9360  218.7960 C   0  0  0  0  0  0  0  0  0  0  0  0
  141.1360   82.1390  219.8500 C   0  0  0  0  0  0  0  0  0  0  0  0
  139.9870   71.1840  223.7310 C   0  0  0  0  0  0  0  0  0  0  0  0
  139.5010   69.8950  223.6190 C   0  0  0  0  0  0  0  0  0  0  0  0
  139.5160   69.0150  224.6790 C   0  0  0  0  0  0  0  0  0  0  0  0
  140.0280   69.4370  225.8700 C   0  0  0  0  0  0  0  0  0  0  0  0
  140.0670   68.5890  226.9750 C   0  0  0  0  0  0  0  0  0  0  0  0
  140.5840   69.0040  228.1920 C   0  0  0  0  0  0  0  0  0  0  0  0
  140.5940   68.1380  229.2230 F   0  0  0  0  0  0  0  0  0  0  0  0
  141.0670   70.2990  228.2900 C   0  0  0  0  0  0  0  0  0  0  0  0
  141.0190   71.1230  227.1830 C   0  0  0  0  0  0  0  0  0  0  0  0
  140.5120   70.7360  225.9680 C   0  0  0  0  0  0  0  0  0  0  0  0
  140.4850   71.5770  224.9120 N   0  0  0  0  0  0  0  0  0  0  0  0
  138.0780   73.0400  223.0550 H   0  0  0  0  0  0  0  0  0  0  0  0
  139.2977   73.1162  220.3275 H   0  0  0  0  0  0  0  0  0  0  0  0
  137.8690   74.0776  220.9207 H   0  0  0  0  0  0  0  0  0  0  0  0
  138.9734   75.2272  218.6192 H   0  0  0  0  0  0  0  0  0  0  0  0
  139.2732   76.8971  219.1520 H   0  0  0  0  0  0  0  0  0  0  0  0
  141.1123   77.1096  217.6968 H   0  0  0  0  0  0  0  0  0  0  0  0
  140.6700   74.6540  216.6000 H   0  0  0  0  0  0  0  0  0  0  0  0
  141.7664   74.1527  218.1769 H   0  0  0  0  0  0  0  0  0  0  0  0
  142.9124   75.4392  217.9426 H   0  0  0  0  0  0  0  0  0  0  0  0
  142.4736   74.8472  220.5193 H   0  0  0  0  0  0  0  0  0  0  0  0
  141.1520   77.1330  221.9240 H   0  0  0  0  0  0  0  0  0  0  0  0
  142.9338   79.3666  220.9234 H   0  0  0  0  0  0  0  0  0  0  0  0
  141.6490   78.4684  223.5056 H   0  0  0  0  0  0  0  0  0  0  0  0
  143.4226   78.6654  223.0629 H   0  0  0  0  0  0  0  0  0  0  0  0
  142.4867   80.3387  224.6511 H   0  0  0  0  0  0  0  0  0  0  0  0
  143.2964   80.9529  223.1312 H   0  0  0  0  0  0  0  0  0  0  0  0
  140.6164   81.3296  224.1341 H   0  0  0  0  0  0  0  0  0  0  0  0
  141.6249   82.2052  222.8512 H   0  0  0  0  0  0  0  0  0  0  0  0
  139.5846   80.1018  222.5995 H   0  0  0  0  0  0  0  0  0  0  0  0
  139.9731   81.6355  221.6292 H   0  0  0  0  0  0  0  0  0  0  0  0
  140.1969   79.2762  220.7153 H   0  0  0  0  0  0  0  0  0  0  0  0
  142.4409   79.1694  218.8912 H   0  0  0  0  0  0  0  0  0  0  0  0
  143.1733   80.5895  216.9711 H   0  0  0  0  0  0  0  0  0  0  0  0
  142.5849   83.0099  216.9275 H   0  0  0  0  0  0  0  0  0  0  0  0
  141.2733   84.0042  218.7772 H   0  0  0  0  0  0  0  0  0  0  0  0
  140.5546   82.5866  220.6695 H   0  0  0  0  0  0  0  0  0  0  0  0
  139.0899   69.5617  222.6547 H   0  0  0  0  0  0  0  0  0  0  0  0
  139.1232   67.9937  224.5667 H   0  0  0  0  0  0  0  0  0  0  0  0
  139.6777   67.5647  226.8790 H   0  0  0  0  0  0  0  0  0  0  0  0
  141.4841   70.6666  229.2392 H   0  0  0  0  0  0  0  0  0  0  0  0
  141.4090   72.1469  227.2806 H   0  0  0  0  0  0  0  0  0  0  0  0
  1  2  2  0
  2  3  1  0
  3  4  1  0
  4  5  1  0
  5  6  2  0
  5  7  1  0
  7  8  1  0
  8  9  1  0
  9 10  1  0
  9 11  1  0
 11 12  1  0
 12 13  1  0
 13 14  2  0
 13 15  1  0
 15 16  1  0
 16 17  1  0
 17 18  1  0
 18 19  1  0
 19 20  1  0
 20 21  1  0
 21 22  1  0
 22 23  2  0
 23 24  1  0
 24 25  2  0
 25 26  1  0
 26 27  2  0
  2 28  1  0
 28 29  2  0
 29 30  1  0
 30 31  2  0
 31 32  1  0
 32 33  2  0
 33 34  1  0
 33 35  1  0
 35 36  2  0
 36 37  1  0
 37 38  2  0
 12  7  1  0
 21 16  1  0
 27 22  1  0
 38 28  1  0
 37 31  1  0
  3 39  1  0
  4 40  1  0
  4 41  1  0
  8 42  1  0
  8 43  1  0
  9 44  1  6
 10 45  1  0
 11 46  1  0
 11 47  1  0
 12 48  1  1
 15 49  1  0
 16 50  1  6
 17 51  1  0
 17 52  1  0
 18 53  1  0
 18 54  1  0
 19 55  1  0
 19 56  1  0
 20 57  1  0
 20 58  1  0
 21 59  1  6
 23 60  1  0
 24 61  1  0
 25 62  1  0
 26 63  1  0
 27 64  1  0
 29 65  1  0
 30 66  1  0
 32 67  1  0
 35 68  1  0
 36 69  1  0
M  END
>  <smiles>  (18) 
O=C(NCC(=O)N1C[C@H](O)C[C@H]1C(=O)N[C@@H]1CCCC[C@H]1c1ccccc1)c1ccc2cc(F)ccc2n1

>  <score_type>  (18) 
oracle

>  <origin>  (18) 
autodockgpu

>  <m_score__min__energy>  (18) 
-10.26

>  <m_primary>  (18) 
energy

>  <rmsd>  (18) 
2.149905528756061

>  <m_score__min__rmsd>  (18) 
2.149905528756061

>  <meeko>  (18) 
{"free_energy": -9.28, "intermolecular_energy": -11.67, "internal_energy": -3.05, "cluster_size": 10, "cluster_id": 3, "rank_in_cluster": 2}

>  <energy>  (18) 
-9.28

>  <cluster_rmsd>  (18) 
0.23

>  <cluster>  (18) 
3

$$$$

     RDKit          3D

 69 73  0  0  0  0  0  0  0  0999 V2000
  140.4390   73.5170  222.3250 O   0  0  0  0  0  0  0  0  0  0  0  0
  140.1180   72.2990  222.3210 C   0  0  0  0  0  0  0  0  0  0  0  0
  139.7680   71.7510  221.0430 N   0  0  0  0  0  0  0  0  0  0  0  0
  139.8260   72.6580  219.9160 C   0  0  0  0  0  0  0  0  0  0  0  0
  141.1380   72.6410  219.2350 C   0  0  0  0  0  0  0  0  0  0  0  0
  141.6530   71.6110  218.7280 O   0  0  0  0  0  0  0  0  0  0  0  0
  141.8610   73.8450  219.1470 N   0  0  0  0  0  0  0  0  0  0  0  0
  142.0780   74.5750  217.9220 C   0  0  0  0  0  0  0  0  0  0  0  0
  143.1140   75.6350  218.2180 C   0  0  2  0  0  0  0  0  0  0  0  0
  144.0610   75.7090  217.1880 O   0  0  0  0  0  0  0  0  0  0  0  0
  143.7370   75.1580  219.4950 C   0  0  0  0  0  0  0  0  0  0  0  0
  142.5250   74.5920  220.2210 C   0  0  1  0  0  0  0  0  0  0  0  0
  141.6330   75.7550  220.5490 C   0  0  0  0  0  0  0  0  0  0  0  0
  141.1560   76.4710  219.6050 O   0  0  0  0  0  0  0  0  0  0  0  0
  141.3540   76.0120  221.8970 N   0  0  0  0  0  0  0  0  0  0  0  0
  140.5010   77.1120  222.3420 C   0  0  2  0  0  0  0  0  0  0  0  0
  139.0950   76.5960  222.2790 C   0  0  0  0  0  0  0  0  0  0  0  0
  138.0330   77.6440  222.3730 C   0  0  0  0  0  0  0  0  0  0  0  0
  138.2470   78.7950  221.4600 C   0  0  0  0  0  0  0  0  0  0  0  0
  139.5910   78.9060  220.8300 C   0  0  0  0  0  0  0  0  0  0  0  0
  140.7450   78.3720  221.5970 C   0  0  1  0  0  0  0  0  0  0  0  0
  141.3900   79.4200  222.4680 C   0  0  0  0  0  0  0  0  0  0  0  0
  142.7640   79.4430  222.6320 C   0  0  0  0  0  0  0  0  0  0  0  0
  143.3600   80.4150  223.4390 C   0  0  0  0  0  0  0  0  0  0  0  0
  142.5640   81.3600  224.0780 C   0  0  0  0  0  0  0  0  0  0  0  0
  141.2000   81.3400  223.9180 C   0  0  0  0  0  0  0  0  0  0  0  0
  140.6260   80.3730  223.1170 C   0  0  0  0  0  0  0  0  0  0  0  0
  140.0980   71.4870  223.5250 C   0  0  0  0  0  0  0  0  0  0  0  0
  139.5170   70.2350  223.4420 C   0  0  0  0  0  0  0  0  0  0  0  0
  139.4470   69.3900  224.5280 C   0  0  0  0  0  0  0  0  0  0  0  0
  139.9700   69.8080  225.7150 C   0  0  0  0  0  0  0  0  0  0  0  0
  139.9270   68.9930  226.8450 C   0  0  0  0  0  0  0  0  0  0  0  0
  140.4540   69.4050  228.0590 C   0  0  0  0  0  0  0  0  0  0  0  0
  140.3820   68.5720  229.1140 F   0  0  0  0  0  0  0  0  0  0  0  0
  141.0330   70.6620  228.1280 C   0  0  0  0  0  0  0  0  0  0  0  0
  141.0660   71.4530  226.9960 C   0  0  0  0  0  0  0  0  0  0  0  0
  140.5510   71.0690  225.7830 C   0  0  0  0  0  0  0  0  0  0  0  0
  140.6050   71.8770  224.7030 N   0  0  0  0  0  0  0  0  0  0  0  0
  139.4890   70.7470  220.9510 H   0  0  0  0  0  0  0  0  0  0  0  0
  139.0502   72.3690  219.1918 H   0  0  0  0  0  0  0  0  0  0  0  0
  139.6654   73.6759  220.3009 H   0  0  0  0  0  0  0  0  0  0  0  0
  142.4449   73.8966  217.1377 H   0  0  0  0  0  0  0  0  0  0  0  0
  141.1422   75.0292  217.5642 H   0  0  0  0  0  0  0  0  0  0  0  0
  142.6892   76.6463  218.3006 H   0  0  0  0  0  0  0  0  0  0  0  0
  144.8030   76.2520  217.5730 H   0  0  0  0  0  0  0  0  0  0  0  0
  144.4943   74.3821  219.3090 H   0  0  0  0  0  0  0  0  0  0  0  0
  144.2750   75.9378  220.0540 H   0  0  0  0  0  0  0  0  0  0  0  0
  142.7535   74.0100  221.1260 H   0  0  0  0  0  0  0  0  0  0  0  0
  141.7480   75.4180  222.6740 H   0  0  0  0  0  0  0  0  0  0  0  0
  140.7320   77.4135  223.3743 H   0  0  0  0  0  0  0  0  0  0  0  0
  138.9683   76.0664  221.3232 H   0  0  0  0  0  0  0  0  0  0  0  0
  138.9657   75.9474  223.1580 H   0  0  0  0  0  0  0  0  0  0  0  0
  137.0658   77.1812  222.1273 H   0  0  0  0  0  0  0  0  0  0  0  0
  138.0612   78.0386  223.3994 H   0  0  0  0  0  0  0  0  0  0  0  0
  137.5046   78.7220  220.6516 H   0  0  0  0  0  0  0  0  0  0  0  0
  138.1492   79.6891  222.0932 H   0  0  0  0  0  0  0  0  0  0  0  0
  139.5529   78.3677  219.8715 H   0  0  0  0  0  0  0  0  0  0  0  0
  139.7788   79.9869  220.7500 H   0  0  0  0  0  0  0  0  0  0  0  0
  141.4607   78.0855  220.8123 H   0  0  0  0  0  0  0  0  0  0  0  0
  143.3890   78.6931  222.1250 H   0  0  0  0  0  0  0  0  0  0  0  0
  144.4522   80.4330  223.5684 H   0  0  0  0  0  0  0  0  0  0  0  0
  143.0292   82.1271  224.7146 H   0  0  0  0  0  0  0  0  0  0  0  0
  140.5708   82.0875  224.4233 H   0  0  0  0  0  0  0  0  0  0  0  0
  139.5332   80.3601  222.9918 H   0  0  0  0  0  0  0  0  0  0  0  0
  139.0982   69.9038  222.4803 H   0  0  0  0  0  0  0  0  0  0  0  0
  138.9787   68.3986  224.4388 H   0  0  0  0  0  0  0  0  0  0  0  0
  139.4633   67.9982  226.7715 H   0  0  0  0  0  0  0  0  0  0  0  0
  141.4615   71.0259  229.0735 H   0  0  0  0  0  0  0  0  0  0  0  0
  141.5313   72.4469  227.0709 H   0  0  0  0  0  0  0  0  0  0  0  0
  1  2  2  0
  2  3  1  0
  3  4  1  0
  4  5  1  0
  5  6  2  0
  5  7  1  0
  7  8  1  0
  8  9  1  0
  9 10  1  0
  9 11  1  0
 11 12  1  0
 12 13  1  0
 13 14  2  0
 13 15  1  0
 15 16  1  0
 16 17  1  0
 17 18  1  0
 18 19  1  0
 19 20  1  0
 20 21  1  0
 21 22  1  0
 22 23  2  0
 23 24  1  0
 24 25  2  0
 25 26  1  0
 26 27  2  0
  2 28  1  0
 28 29  2  0
 29 30  1  0
 30 31  2  0
 31 32  1  0
 32 33  2  0
 33 34  1  0
 33 35  1  0
 35 36  2  0
 36 37  1  0
 37 38  2  0
 12  7  1  0
 21 16  1  0
 27 22  1  0
 38 28  1  0
 37 31  1  0
  3 39  1  0
  4 40  1  0
  4 41  1  0
  8 42  1  0
  8 43  1  0
  9 44  1  1
 10 45  1  0
 11 46  1  0
 11 47  1  0
 12 48  1  1
 15 49  1  0
 16 50  1  1
 17 51  1  0
 17 52  1  0
 18 53  1  0
 18 54  1  0
 19 55  1  0
 19 56  1  0
 20 57  1  0
 20 58  1  0
 21 59  1  6
 23 60  1  0
 24 61  1  0
 25 62  1  0
 26 63  1  0
 27 64  1  0
 29 65  1  0
 30 66  1  0
 32 67  1  0
 35 68  1  0
 36 69  1  0
M  END
>  <smiles>  (19) 
O=C(NCC(=O)N1C[C@H](O)C[C@H]1C(=O)N[C@@H]1CCCC[C@H]1c1ccccc1)c1ccc2cc(F)ccc2n1

>  <score_type>  (19) 
oracle

>  <origin>  (19) 
autodockgpu

>  <m_score__min__energy>  (19) 
-10.26

>  <m_primary>  (19) 
energy

>  <rmsd>  (19) 
3.1927079168438928

>  <m_score__min__rmsd>  (19) 
3.1927079168438928

>  <meeko>  (19) 
{"free_energy": -10.04, "intermolecular_energy": -12.43, "internal_energy": -2.47, "cluster_size": 11, "cluster_id": 1, "rank_in_cluster": 3}

>  <energy>  (19) 
-9.14

>  <cluster_rmsd>  (19) 
1.65

>  <cluster>  (19) 
3

$$$$

     RDKit          3D

 69 73  0  0  0  0  0  0  0  0999 V2000
  138.9690   72.1200  222.4650 O   0  0  0  0  0  0  0  0  0  0  0  0
  140.1120   71.8180  222.8990 C   0  0  0  0  0  0  0  0  0  0  0  0
  141.2120   72.1540  222.0450 N   0  0  0  0  0  0  0  0  0  0  0  0
  140.8800   72.7990  220.7920 C   0  0  0  0  0  0  0  0  0  0  0  0
  140.8580   74.2730  220.8950 C   0  0  0  0  0  0  0  0  0  0  0  0
  141.8830   74.9990  220.8110 O   0  0  0  0  0  0  0  0  0  0  0  0
  139.6200   74.9110  221.1010 N   0  0  0  0  0  0  0  0  0  0  0  0
  138.8840   74.8780  222.3410 C   0  0  0  0  0  0  0  0  0  0  0  0
  137.5110   75.4400  222.0530 C   0  0  2  0  0  0  0  0  0  0  0  0
  136.5160   74.6690  222.6690 O   0  0  0  0  0  0  0  0  0  0  0  0
  137.4140   75.3600  220.5600 C   0  0  0  0  0  0  0  0  0  0  0  0
  138.8370   75.7100  220.1520 C   0  0  1  0  0  0  0  0  0  0  0  0
  139.0530   77.1500  220.5230 C   0  0  0  0  0  0  0  0  0  0  0  0
  138.2280   78.0360  220.1180 O   0  0  0  0  0  0  0  0  0  0  0  0
  140.1670   77.4670  221.3120 N   0  0  0  0  0  0  0  0  0  0  0  0
  140.4830   78.8290  221.7380 C   0  0  2  0  0  0  0  0  0  0  0  0
  141.9110   79.0620  221.3480 C   0  0  0  0  0  0  0  0  0  0  0  0
  142.5490   80.2610  221.9740 C   0  0  0  0  0  0  0  0  0  0  0  0
  142.3500   80.3450  223.4430 C   0  0  0  0  0  0  0  0  0  0  0  0
  141.3220   79.4420  224.0300 C   0  0  0  0  0  0  0  0  0  0  0  0
  140.1700   79.0760  223.1670 C   0  0  1  0  0  0  0  0  0  0  0  0
  139.0070   80.0210  223.3300 C   0  0  0  0  0  0  0  0  0  0  0  0
  138.4140   80.5980  222.2200 C   0  0  0  0  0  0  0  0  0  0  0  0
  137.3370   81.4740  222.3740 C   0  0  0  0  0  0  0  0  0  0  0  0
  136.8640   81.7640  223.6500 C   0  0  0  0  0  0  0  0  0  0  0  0
  137.4490   81.1940  224.7530 C   0  0  0  0  0  0  0  0  0  0  0  0
  138.5130   80.3300  224.5850 C   0  0  0  0  0  0  0  0  0  0  0  0
  140.3190   71.1680  224.1820 C   0  0  0  0  0  0  0  0  0  0  0  0
  140.8740   71.9240  225.1980 C   0  0  0  0  0  0  0  0  0  0  0  0
  141.1100   71.4010  226.4510 C   0  0  0  0  0  0  0  0  0  0  0  0
  140.7840   70.0990  226.6870 C   0  0  0  0  0  0  0  0  0  0  0  0
  141.0010   69.5190  227.9350 C   0  0  0  0  0  0  0  0  0  0  0  0
  140.6750   68.1960  228.1890 C   0  0  0  0  0  0  0  0  0  0  0  0
  140.9090   67.6940  229.4160 F   0  0  0  0  0  0  0  0  0  0  0  0
  140.1190   67.4500  227.1620 C   0  0  0  0  0  0  0  0  0  0  0  0
  139.9120   68.0440  225.9320 C   0  0  0  0  0  0  0  0  0  0  0  0
  140.2270   69.3510  225.6550 C   0  0  0  0  0  0  0  0  0  0  0  0
  140.0060   69.8900  224.4370 N   0  0  0  0  0  0  0  0  0  0  0  0
  142.1960   71.9380  222.3300 H   0  0  0  0  0  0  0  0  0  0  0  0
  141.6282   72.5104  220.0391 H   0  0  0  0  0  0  0  0  0  0  0  0
  139.8688   72.4716  220.5087 H   0  0  0  0  0  0  0  0  0  0  0  0
  138.8004   73.8428  222.7036 H   0  0  0  0  0  0  0  0  0  0  0  0
  139.3949   75.4665  223.1173 H   0  0  0  0  0  0  0  0  0  0  0  0
  137.3709   76.4614  222.4366 H   0  0  0  0  0  0  0  0  0  0  0  0
  137.0170   73.9480  223.1400 H   0  0  0  0  0  0  0  0  0  0  0  0
  137.1366   74.3487  220.2277 H   0  0  0  0  0  0  0  0  0  0  0  0
  136.6452   76.0135  220.1220 H   0  0  0  0  0  0  0  0  0  0  0  0
  139.0726   75.5423  219.0907 H   0  0  0  0  0  0  0  0  0  0  0  0
  140.8450   76.7320  221.6450 H   0  0  0  0  0  0  0  0  0  0  0  0
  139.8434   79.5709  221.2374 H   0  0  0  0  0  0  0  0  0  0  0  0
  142.4932   78.1750  221.6382 H   0  0  0  0  0  0  0  0  0  0  0  0
  141.9076   79.2462  220.2636 H   0  0  0  0  0  0  0  0  0  0  0  0
  143.6296   80.2247  221.7715 H   0  0  0  0  0  0  0  0  0  0  0  0
  142.0687   81.1472  221.5336 H   0  0  0  0  0  0  0  0  0  0  0  0
  143.3117   80.1126  223.9237 H   0  0  0  0  0  0  0  0  0  0  0  0
  141.9795   81.3642  223.6273 H   0  0  0  0  0  0  0  0  0  0  0  0
  141.8276   78.5093  224.3208 H   0  0  0  0  0  0  0  0  0  0  0  0
  140.8839   80.0128  224.8620 H   0  0  0  0  0  0  0  0  0  0  0  0
  139.8698   78.0893  223.5495 H   0  0  0  0  0  0  0  0  0  0  0  0
  138.7922   80.3658  221.2135 H   0  0  0  0  0  0  0  0  0  0  0  0
  136.8656   81.9318  221.4918 H   0  0  0  0  0  0  0  0  0  0  0  0
  136.0165   82.4539  223.7754 H   0  0  0  0  0  0  0  0  0  0  0  0
  137.0738   81.4233  225.7613 H   0  0  0  0  0  0  0  0  0  0  0  0
  138.9798   79.8758  225.4715 H   0  0  0  0  0  0  0  0  0  0  0  0
  141.1349   72.9742  225.0003 H   0  0  0  0  0  0  0  0  0  0  0  0
  141.5523   72.0216  227.2442 H   0  0  0  0  0  0  0  0  0  0  0  0
  141.4422   70.1263  228.7390 H   0  0  0  0  0  0  0  0  0  0  0  0
  139.8456   66.3969  227.3243 H   0  0  0  0  0  0  0  0  0  0  0  0
  139.4699   67.4353  225.1295 H   0  0  0  0  0  0  0  0  0  0  0  0
  1  2  2  0
  2  3  1  0
  3  4  1  0
  4  5  1  0
  5  6  2  0
  5  7  1  0
  7  8  1  0
  8  9  1  0
  9 10  1  0
  9 11  1  0
 11 12  1  0
 12 13  1  0
 13 14  2  0
 13 15  1  0
 15 16  1  0
 16 17  1  0
 17 18  1  0
 18 19  1  0
 19 20  1  0
 20 21  1  0
 21 22  1  0
 22 23  2  0
 23 24  1  0
 24 25  2  0
 25 26  1  0
 26 27  2  0
  2 28  1  0
 28 29  2  0
 29 30  1  0
 30 31  2  0
 31 32  1  0
 32 33  2  0
 33 34  1  0
 33 35  1  0
 35 36  2  0
 36 37  1  0
 37 38  2  0
 12  7  1  0
 21 16  1  0
 27 22  1  0
 38 28  1  0
 37 31  1  0
  3 39  1  0
  4 40  1  0
  4 41  1  0
  8 42  1  0
  8 43  1  0
  9 44  1  6
 10 45  1  0
 11 46  1  0
 11 47  1  0
 12 48  1  6
 15 49  1  0
 16 50  1  6
 17 51  1  0
 17 52  1  0
 18 53  1  0
 18 54  1  0
 19 55  1  0
 19 56  1  0
 20 57  1  0
 20 58  1  0
 21 59  1  1
 23 60  1  0
 24 61  1  0
 25 62  1  0
 26 63  1  0
 27 64  1  0
 29 65  1  0
 30 66  1  0
 32 67  1  0
 35 68  1  0
 36 69  1  0
M  END
>  <smiles>  (20) 
O=C(NCC(=O)N1C[C@H](O)C[C@H]1C(=O)N[C@@H]1CCCC[C@H]1c1ccccc1)c1ccc2cc(F)ccc2n1

>  <score_type>  (20) 
oracle

>  <origin>  (20) 
autodockgpu

>  <m_score__min__energy>  (20) 
-10.26

>  <m_primary>  (20) 
energy

>  <rmsd>  (20) 
3.5783002949719593

>  <m_score__min__rmsd>  (20) 
3.5783002949719593

>  <meeko>  (20) 
{"free_energy": -8.51, "intermolecular_energy": -10.9, "internal_energy": -3.28, "cluster_size": 2, "cluster_id": 5, "rank_in_cluster": 2}

>  <energy>  (20) 
-9.14

>  <cluster_rmsd>  (20) 
0.25

>  <cluster>  (20) 
3

$$$$

     RDKit          3D

 69 73  0  0  0  0  0  0  0  0999 V2000
  139.9670   73.5580  222.7040 O   0  0  0  0  0  0  0  0  0  0  0  0
  140.0540   72.3060  222.5910 C   0  0  0  0  0  0  0  0  0  0  0  0
  140.1260   71.8050  221.2500 N   0  0  0  0  0  0  0  0  0  0  0  0
  140.0910   72.7920  220.1920 C   0  0  0  0  0  0  0  0  0  0  0  0
  141.3810   72.9140  219.4810 C   0  0  0  0  0  0  0  0  0  0  0  0
  142.1530   71.9470  219.2540 O   0  0  0  0  0  0  0  0  0  0  0  0
  141.7770   74.1870  219.0280 N   0  0  0  0  0  0  0  0  0  0  0  0
  141.1800   74.8740  217.9100 C   0  0  0  0  0  0  0  0  0  0  0  0
  142.0650   76.0580  217.5970 C   0  0  2  0  0  0  0  0  0  0  0  0
  142.2560   76.1880  216.2150 O   0  0  0  0  0  0  0  0  0  0  0  0
  143.3490   75.7200  218.2930 C   0  0  0  0  0  0  0  0  0  0  0  0
  142.8310   75.0570  219.5610 C   0  0  1  0  0  0  0  0  0  0  0  0
  142.1420   76.1260  220.3600 C   0  0  0  0  0  0  0  0  0  0  0  0
  142.5660   77.3300  220.3010 O   0  0  0  0  0  0  0  0  0  0  0  0
  141.0440   75.7570  221.1470 N   0  0  0  0  0  0  0  0  0  0  0  0
  140.2920   76.7040  221.9670 C   0  0  2  0  0  0  0  0  0  0  0  0
  138.9590   76.0680  222.2150 C   0  0  0  0  0  0  0  0  0  0  0  0
  137.9090   76.9890  222.7510 C   0  0  0  0  0  0  0  0  0  0  0  0
  137.7890   78.2620  221.9950 C   0  0  0  0  0  0  0  0  0  0  0  0
  138.8900   78.5800  221.0450 C   0  0  0  0  0  0  0  0  0  0  0  0
  140.2430   78.0660  221.3790 C   0  0  1  0  0  0  0  0  0  0  0  0
  141.0490   79.0530  222.1850 C   0  0  0  0  0  0  0  0  0  0  0  0
  141.3570   80.2960  221.6620 C   0  0  0  0  0  0  0  0  0  0  0  0
  142.1040   81.2090  222.4110 C   0  0  0  0  0  0  0  0  0  0  0  0
  142.5390   80.8590  223.6860 C   0  0  0  0  0  0  0  0  0  0  0  0
  142.2350   79.6260  224.2080 C   0  0  0  0  0  0  0  0  0  0  0  0
  141.4960   78.7350  223.4550 C   0  0  0  0  0  0  0  0  0  0  0  0
  140.0810   71.4140  223.7370 C   0  0  0  0  0  0  0  0  0  0  0  0
  139.5950   70.1320  223.5600 C   0  0  0  0  0  0  0  0  0  0  0  0
  139.5760   69.2100  224.5840 C   0  0  0  0  0  0  0  0  0  0  0  0
  140.0550   69.5820  225.8050 C   0  0  0  0  0  0  0  0  0  0  0  0
  140.0600   68.6910  226.8760 C   0  0  0  0  0  0  0  0  0  0  0  0
  140.5420   69.0540  228.1230 C   0  0  0  0  0  0  0  0  0  0  0  0
  140.5200   68.1480  229.1180 F   0  0  0  0  0  0  0  0  0  0  0  0
  141.0260   70.3430  228.2870 C   0  0  0  0  0  0  0  0  0  0  0  0
  141.0130   71.2110  227.2130 C   0  0  0  0  0  0  0  0  0  0  0  0
  140.5400   70.8750  225.9680 C   0  0  0  0  0  0  0  0  0  0  0  0
  140.5460   71.7570  224.9460 N   0  0  0  0  0  0  0  0  0  0  0  0
  140.2010   70.7770  221.0670 H   0  0  0  0  0  0  0  0  0  0  0  0
  139.3158   72.5030  219.4670 H   0  0  0  0  0  0  0  0  0  0  0  0
  139.8737   73.7662  220.6543 H   0  0  0  0  0  0  0  0  0  0  0  0
  141.1244   74.2031  217.0400 H   0  0  0  0  0  0  0  0  0  0  0  0
  140.1572   75.2002  218.1498 H   0  0  0  0  0  0  0  0  0  0  0  0
  141.6389   77.0171  217.9266 H   0  0  0  0  0  0  0  0  0  0  0  0
  143.1080   76.6960  216.1290 H   0  0  0  0  0  0  0  0  0  0  0  0
  143.9607   75.0271  217.6966 H   0  0  0  0  0  0  0  0  0  0  0  0
  144.0073   76.5831  218.4709 H   0  0  0  0  0  0  0  0  0  0  0  0
  143.5956   74.5505  220.1683 H   0  0  0  0  0  0  0  0  0  0  0  0
  140.6970   74.7620  221.1920 H   0  0  0  0  0  0  0  0  0  0  0  0
  140.7888   76.8928  222.9301 H   0  0  0  0  0  0  0  0  0  0  0  0
  138.5960   75.6540  221.2627 H   0  0  0  0  0  0  0  0  0  0  0  0
  139.1222   75.3040  222.9894 H   0  0  0  0  0  0  0  0  0  0  0  0
  136.9398   76.4701  222.7134 H   0  0  0  0  0  0  0  0  0  0  0  0
  138.2050   77.2513  223.7774 H   0  0  0  0  0  0  0  0  0  0  0  0
  136.8528   78.2209  221.4190 H   0  0  0  0  0  0  0  0  0  0  0  0
  137.8248   79.0554  222.7560 H   0  0  0  0  0  0  0  0  0  0  0  0
  138.6113   78.1662  220.0646 H   0  0  0  0  0  0  0  0  0  0  0  0
  138.9861   79.6753  221.0780 H   0  0  0  0  0  0  0  0  0  0  0  0
  140.7214   77.9503  220.3953 H   0  0  0  0  0  0  0  0  0  0  0  0
  141.0127   80.5667  220.6530 H   0  0  0  0  0  0  0  0  0  0  0  0
  142.3468   82.1982  221.9956 H   0  0  0  0  0  0  0  0  0  0  0  0
  143.1292   81.5737  224.2783 H   0  0  0  0  0  0  0  0  0  0  0  0
  142.5769   79.3505  225.2166 H   0  0  0  0  0  0  0  0  0  0  0  0
  141.2567   77.7472  223.8757 H   0  0  0  0  0  0  0  0  0  0  0  0
  139.2117   69.8389  222.5715 H   0  0  0  0  0  0  0  0  0  0  0  0
  139.1829   68.1959  224.4198 H   0  0  0  0  0  0  0  0  0  0  0  0
  139.6711   67.6728  226.7276 H   0  0  0  0  0  0  0  0  0  0  0  0
  141.4161   70.6706  229.2620 H   0  0  0  0  0  0  0  0  0  0  0  0
  141.4033   72.2284  227.3629 H   0  0  0  0  0  0  0  0  0  0  0  0
  1  2  2  0
  2  3  1  0
  3  4  1  0
  4  5  1  0
  5  6  2  0
  5  7  1  0
  7  8  1  0
  8  9  1  0
  9 10  1  0
  9 11  1  0
 11 12  1  0
 12 13  1  0
 13 14  2  0
 13 15  1  0
 15 16  1  0
 16 17  1  0
 17 18  1  0
 18 19  1  0
 19 20  1  0
 20 21  1  0
 21 22  1  0
 22 23  2  0
 23 24  1  0
 24 25  2  0
 25 26  1  0
 26 27  2  0
  2 28  1  0
 28 29  2  0
 29 30  1  0
 30 31  2  0
 31 32  1  0
 32 33  2  0
 33 34  1  0
 33 35  1  0
 35 36  2  0
 36 37  1  0
 37 38  2  0
 12  7  1  0
 21 16  1  0
 27 22  1  0
 38 28  1  0
 37 31  1  0
  3 39  1  0
  4 40  1  0
  4 41  1  0
  8 42  1  0
  8 43  1  0
  9 44  1  1
 10 45  1  0
 11 46  1  0
 11 47  1  0
 12 48  1  1
 15 49  1  0
 16 50  1  1
 17 51  1  0
 17 52  1  0
 18 53  1  0
 18 54  1  0
 19 55  1  0
 19 56  1  0
 20 57  1  0
 20 58  1  0
 21 59  1  6
 23 60  1  0
 24 61  1  0
 25 62  1  0
 26 63  1  0
 27 64  1  0
 29 65  1  0
 30 66  1  0
 32 67  1  0
 35 68  1  0
 36 69  1  0
M  END
>  <smiles>  (21) 
O=C(NCC(=O)N1C[C@H](O)C[C@H]1C(=O)N[C@@H]1CCCC[C@H]1c1ccccc1)c1ccc2cc(F)ccc2n1

>  <score_type>  (21) 
oracle

>  <origin>  (21) 
autodockgpu

>  <m_score__min__energy>  (21) 
-10.26

>  <m_primary>  (21) 
energy

>  <rmsd>  (21) 
2.9682329896802324

>  <m_score__min__rmsd>  (21) 
2.9682329896802324

>  <meeko>  (21) 
{"free_energy": -9.04, "intermolecular_energy": -11.43, "internal_energy": -3.13, "cluster_size": 11, "cluster_id": 1, "rank_in_cluster": 10}

>  <energy>  (21) 
-9.14

>  <cluster_rmsd>  (21) 
0.77

>  <cluster>  (21) 
3

$$$$

     RDKit          3D

 69 73  0  0  0  0  0  0  0  0999 V2000
  140.2900   73.5520  222.3440 O   0  0  0  0  0  0  0  0  0  0  0  0
  140.0910   72.3080  222.3300 C   0  0  0  0  0  0  0  0  0  0  0  0
  139.8440   71.7310  221.0420 N   0  0  0  0  0  0  0  0  0  0  0  0
  139.8530   72.6410  219.9160 C   0  0  0  0  0  0  0  0  0  0  0  0
  141.1590   72.6820  219.2240 C   0  0  0  0  0  0  0  0  0  0  0  0
  141.6980   71.6810  218.6840 O   0  0  0  0  0  0  0  0  0  0  0  0
  141.8450   73.9090  219.1610 N   0  0  0  0  0  0  0  0  0  0  0  0
  142.0760   74.6500  217.9460 C   0  0  0  0  0  0  0  0  0  0  0  0
  143.0670   75.7410  218.2770 C   0  0  2  0  0  0  0  0  0  0  0  0
  144.0430   75.8510  217.2780 O   0  0  0  0  0  0  0  0  0  0  0  0
  143.6650   75.2790  219.5720 C   0  0  0  0  0  0  0  0  0  0  0  0
  142.4510   74.6720  220.2580 C   0  0  1  0  0  0  0  0  0  0  0  0
  141.5120   75.8050  220.5620 C   0  0  0  0  0  0  0  0  0  0  0  0
  140.9080   76.3970  219.6060 O   0  0  0  0  0  0  0  0  0  0  0  0
  141.3330   76.1700  221.9020 N   0  0  0  0  0  0  0  0  0  0  0  0
  140.4470   77.2540  222.3240 C   0  0  2  0  0  0  0  0  0  0  0  0
  139.0620   76.6820  222.3150 C   0  0  0  0  0  0  0  0  0  0  0  0
  137.9610   77.6910  222.3940 C   0  0  0  0  0  0  0  0  0  0  0  0
  138.1090   78.8120  221.4310 C   0  0  0  0  0  0  0  0  0  0  0  0
  139.4330   78.9490  220.7650 C   0  0  0  0  0  0  0  0  0  0  0  0
  140.6240   78.4910  221.5240 C   0  0  1  0  0  0  0  0  0  0  0  0
  141.2470   79.5970  222.3370 C   0  0  0  0  0  0  0  0  0  0  0  0
  140.9610   80.9210  222.0520 C   0  0  0  0  0  0  0  0  0  0  0  0
  141.5400   81.9440  222.8060 C   0  0  0  0  0  0  0  0  0  0  0  0
  142.4080   81.6250  223.8460 C   0  0  0  0  0  0  0  0  0  0  0  0
  142.6950   80.3130  224.1320 C   0  0  0  0  0  0  0  0  0  0  0  0
  142.1140   79.3130  223.3770 C   0  0  0  0  0  0  0  0  0  0  0  0
  140.1070   71.4960  223.5350 C   0  0  0  0  0  0  0  0  0  0  0  0
  139.5820   70.2200  223.4510 C   0  0  0  0  0  0  0  0  0  0  0  0
  139.5500   69.3710  224.5370 C   0  0  0  0  0  0  0  0  0  0  0  0
  140.0550   69.8120  225.7240 C   0  0  0  0  0  0  0  0  0  0  0  0
  140.0490   68.9960  226.8540 C   0  0  0  0  0  0  0  0  0  0  0  0
  140.5570   69.4300  228.0670 C   0  0  0  0  0  0  0  0  0  0  0  0
  140.5220   68.5950  229.1220 F   0  0  0  0  0  0  0  0  0  0  0  0
  141.0800   70.7110  228.1360 C   0  0  0  0  0  0  0  0  0  0  0  0
  141.0770   71.5040  227.0050 C   0  0  0  0  0  0  0  0  0  0  0  0
  140.5790   71.0980  225.7930 C   0  0  0  0  0  0  0  0  0  0  0  0
  140.5970   71.9070  224.7120 N   0  0  0  0  0  0  0  0  0  0  0  0
  139.6690   70.7040  220.9410 H   0  0  0  0  0  0  0  0  0  0  0  0
  139.0844   72.3193  219.1978 H   0  0  0  0  0  0  0  0  0  0  0  0
  139.6514   73.6504  220.3038 H   0  0  0  0  0  0  0  0  0  0  0  0
  142.4887   73.9868  217.1715 H   0  0  0  0  0  0  0  0  0  0  0  0
  141.1376   75.0752  217.5606 H   0  0  0  0  0  0  0  0  0  0  0  0
  142.6069   76.7376  218.3487 H   0  0  0  0  0  0  0  0  0  0  0  0
  144.8420   75.3960  217.6610 H   0  0  0  0  0  0  0  0  0  0  0  0
  144.4522   74.5286  219.4075 H   0  0  0  0  0  0  0  0  0  0  0  0
  144.1597   76.0736  220.1498 H   0  0  0  0  0  0  0  0  0  0  0  0
  142.6699   74.0939  221.1679 H   0  0  0  0  0  0  0  0  0  0  0  0
  141.8330   75.6780  222.6890 H   0  0  0  0  0  0  0  0  0  0  0  0
  140.6890   77.6058  223.3377 H   0  0  0  0  0  0  0  0  0  0  0  0
  138.9349   76.1104  221.3838 H   0  0  0  0  0  0  0  0  0  0  0  0
  138.9786   76.0643  223.2214 H   0  0  0  0  0  0  0  0  0  0  0  0
  137.0076   77.1815  222.1902 H   0  0  0  0  0  0  0  0  0  0  0  0
  137.9961   78.1271  223.4032 H   0  0  0  0  0  0  0  0  0  0  0  0
  137.3521   78.6779  220.6442 H   0  0  0  0  0  0  0  0  0  0  0  0
  137.9903   79.7265  222.0306 H   0  0  0  0  0  0  0  0  0  0  0  0
  139.3944   78.3716  219.8295 H   0  0  0  0  0  0  0  0  0  0  0  0
  139.5764   80.0322  220.6383 H   0  0  0  0  0  0  0  0  0  0  0  0
  141.3319   78.2006  220.7337 H   0  0  0  0  0  0  0  0  0  0  0  0
  140.2750   81.1683  221.2284 H   0  0  0  0  0  0  0  0  0  0  0  0
  141.3113   82.9958  222.5792 H   0  0  0  0  0  0  0  0  0  0  0  0
  142.8665   82.4279  224.4419 H   0  0  0  0  0  0  0  0  0  0  0  0
  143.3808   80.0609  224.9543 H   0  0  0  0  0  0  0  0  0  0  0  0
  142.3467   78.2632  223.6087 H   0  0  0  0  0  0  0  0  0  0  0  0
  139.1777   69.8716  222.4892 H   0  0  0  0  0  0  0  0  0  0  0  0
  139.1262   68.3599  224.4475 H   0  0  0  0  0  0  0  0  0  0  0  0
  139.6301   67.9815  226.7804 H   0  0  0  0  0  0  0  0  0  0  0  0
  141.4932   71.0925  229.0813 H   0  0  0  0  0  0  0  0  0  0  0  0
  141.4974   72.5177  227.0804 H   0  0  0  0  0  0  0  0  0  0  0  0
  1  2  2  0
  2  3  1  0
  3  4  1  0
  4  5  1  0
  5  6  2  0
  5  7  1  0
  7  8  1  0
  8  9  1  0
  9 10  1  0
  9 11  1  0
 11 12  1  0
 12 13  1  0
 13 14  2  0
 13 15  1  0
 15 16  1  0
 16 17  1  0
 17 18  1  0
 18 19  1  0
 19 20  1  0
 20 21  1  0
 21 22  1  0
 22 23  2  0
 23 24  1  0
 24 25  2  0
 25 26  1  0
 26 27  2  0
  2 28  1  0
 28 29  2  0
 29 30  1  0
 30 31  2  0
 31 32  1  0
 32 33  2  0
 33 34  1  0
 33 35  1  0
 35 36  2  0
 36 37  1  0
 37 38  2  0
 12  7  1  0
 21 16  1  0
 27 22  1  0
 38 28  1  0
 37 31  1  0
  3 39  1  0
  4 40  1  0
  4 41  1  0
  8 42  1  0
  8 43  1  0
  9 44  1  1
 10 45  1  0
 11 46  1  0
 11 47  1  0
 12 48  1  1
 15 49  1  0
 16 50  1  1
 17 51  1  0
 17 52  1  0
 18 53  1  0
 18 54  1  0
 19 55  1  0
 19 56  1  0
 20 57  1  0
 20 58  1  0
 21 59  1  6
 23 60  1  0
 24 61  1  0
 25 62  1  0
 26 63  1  0
 27 64  1  0
 29 65  1  0
 30 66  1  0
 32 67  1  0
 35 68  1  0
 36 69  1  0
M  END
>  <smiles>  (22) 
O=C(NCC(=O)N1C[C@H](O)C[C@H]1C(=O)N[C@@H]1CCCC[C@H]1c1ccccc1)c1ccc2cc(F)ccc2n1

>  <score_type>  (22) 
oracle

>  <origin>  (22) 
autodockgpu

>  <m_score__min__energy>  (22) 
-10.26

>  <m_primary>  (22) 
energy

>  <rmsd>  (22) 
2.9341117839185236

>  <m_score__min__rmsd>  (22) 
2.9341117839185236

>  <meeko>  (22) 
{"free_energy": -10.15, "intermolecular_energy": -12.54, "internal_energy": -2.37, "cluster_size": 11, "cluster_id": 1, "rank_in_cluster": 2}

>  <energy>  (22) 
-9.09

>  <cluster_rmsd>  (22) 
1.09

>  <cluster>  (22) 
3

$$$$

     RDKit          3D

 69 73  0  0  0  0  0  0  0  0999 V2000
  138.8020   72.2240  221.3840 O   0  0  0  0  0  0  0  0  0  0  0  0
  139.8450   72.0700  222.0730 C   0  0  0  0  0  0  0  0  0  0  0  0
  141.0380   72.6550  221.5370 N   0  0  0  0  0  0  0  0  0  0  0  0
  140.9030   73.3510  220.2740 C   0  0  0  0  0  0  0  0  0  0  0  0
  140.8290   74.8180  220.4340 C   0  0  0  0  0  0  0  0  0  0  0  0
  141.7710   75.6040  220.1510 O   0  0  0  0  0  0  0  0  0  0  0  0
  139.6380   75.3780  220.9320 N   0  0  0  0  0  0  0  0  0  0  0  0
  139.0950   75.1030  222.2390 C   0  0  0  0  0  0  0  0  0  0  0  0
  137.6960   75.6750  222.2650 C   0  0  2  0  0  0  0  0  0  0  0  0
  136.8020   74.7820  222.8690 O   0  0  0  0  0  0  0  0  0  0  0  0
  137.3780   75.8650  220.8130 C   0  0  0  0  0  0  0  0  0  0  0  0
  138.7250   76.3170  220.2710 C   0  0  1  0  0  0  0  0  0  0  0  0
  138.9990   77.6710  220.8630 C   0  0  0  0  0  0  0  0  0  0  0  0
  138.0420   78.5050  220.9990 O   0  0  0  0  0  0  0  0  0  0  0  0
  140.3120   77.9680  221.2500 N   0  0  0  0  0  0  0  0  0  0  0  0
  140.7030   79.2470  221.8370 C   0  0  2  0  0  0  0  0  0  0  0  0
  142.1670   79.4000  221.5580 C   0  0  0  0  0  0  0  0  0  0  0  0
  142.8530   80.4710  222.3450 C   0  0  0  0  0  0  0  0  0  0  0  0
  142.5640   80.4200  223.8010 C   0  0  0  0  0  0  0  0  0  0  0  0
  141.4340   79.5490  224.2270 C   0  0  0  0  0  0  0  0  0  0  0  0
  140.3170   79.3710  223.2650 C   0  0  1  0  0  0  0  0  0  0  0  0
  139.2220   80.3880  223.4610 C   0  0  0  0  0  0  0  0  0  0  0  0
  139.0000   81.3690  222.5110 C   0  0  0  0  0  0  0  0  0  0  0  0
  137.9840   82.3110  222.6960 C   0  0  0  0  0  0  0  0  0  0  0  0
  137.1970   82.2570  223.8420 C   0  0  0  0  0  0  0  0  0  0  0  0
  137.4140   81.2850  224.7870 C   0  0  0  0  0  0  0  0  0  0  0  0
  138.4210   80.3610  224.5900 C   0  0  0  0  0  0  0  0  0  0  0  0
  139.8540   71.3480  223.3340 C   0  0  0  0  0  0  0  0  0  0  0  0
  139.2320   70.1140  223.3670 C   0  0  0  0  0  0  0  0  0  0  0  0
  139.1860   69.3510  224.5140 C   0  0  0  0  0  0  0  0  0  0  0  0
  139.7740   69.8350  225.6440 C   0  0  0  0  0  0  0  0  0  0  0  0
  139.7580   69.1050  226.8310 C   0  0  0  0  0  0  0  0  0  0  0  0
  140.3510   69.5850  227.9880 C   0  0  0  0  0  0  0  0  0  0  0  0
  140.3010   68.8330  229.1030 F   0  0  0  0  0  0  0  0  0  0  0  0
  140.9700   70.8240  227.9400 C   0  0  0  0  0  0  0  0  0  0  0  0
  140.9760   71.5300  226.7540 C   0  0  0  0  0  0  0  0  0  0  0  0
  140.3950   71.0780  225.5950 C   0  0  0  0  0  0  0  0  0  0  0  0
  140.4250   71.8040  224.4570 N   0  0  0  0  0  0  0  0  0  0  0  0
  141.9490   72.5750  222.0470 H   0  0  0  0  0  0  0  0  0  0  0  0
  141.7724   73.1094  219.6449 H   0  0  0  0  0  0  0  0  0  0  0  0
  139.9609   73.0201  219.8124 H   0  0  0  0  0  0  0  0  0  0  0  0
  139.0627   74.0175  222.4140 H   0  0  0  0  0  0  0  0  0  0  0  0
  139.7181   75.5531  223.0259 H   0  0  0  0  0  0  0  0  0  0  0  0
  137.6175   76.6058  222.8459 H   0  0  0  0  0  0  0  0  0  0  0  0
  137.3570   73.9840  223.0850 H   0  0  0  0  0  0  0  0  0  0  0  0
  137.0508   74.9244  220.3458 H   0  0  0  0  0  0  0  0  0  0  0  0
  136.5550   76.5688  220.6199 H   0  0  0  0  0  0  0  0  0  0  0  0
  138.7991   76.3503  219.1740 H   0  0  0  0  0  0  0  0  0  0  0  0
  141.1000   77.2760  221.1360 H   0  0  0  0  0  0  0  0  0  0  0  0
  140.1563   80.0863  221.3823 H   0  0  0  0  0  0  0  0  0  0  0  0
  142.6591   78.4425  221.7840 H   0  0  0  0  0  0  0  0  0  0  0  0
  142.2489   79.6952  220.5015 H   0  0  0  0  0  0  0  0  0  0  0  0
  143.9386   80.3653  222.2025 H   0  0  0  0  0  0  0  0  0  0  0  0
  142.4730   81.4349  221.9754 H   0  0  0  0  0  0  0  0  0  0  0  0
  143.4714   80.0614  224.3088 H   0  0  0  0  0  0  0  0  0  0  0  0
  142.2602   81.4419  224.0720 H   0  0  0  0  0  0  0  0  0  0  0  0
  141.8469   78.5527  224.4433 H   0  0  0  0  0  0  0  0  0  0  0  0
  140.9870   80.0646  225.0897 H   0  0  0  0  0  0  0  0  0  0  0  0
  139.9181   78.3786  223.5219 H   0  0  0  0  0  0  0  0  0  0  0  0
  139.6253   81.4078  221.6068 H   0  0  0  0  0  0  0  0  0  0  0  0
  137.8077   83.0903  221.9400 H   0  0  0  0  0  0  0  0  0  0  0  0
  136.3969   82.9968  223.9917 H   0  0  0  0  0  0  0  0  0  0  0  0
  136.7913   81.2427  225.6928 H   0  0  0  0  0  0  0  0  0  0  0  0
  138.5912   79.5836  225.3494 H   0  0  0  0  0  0  0  0  0  0  0  0
  138.7598   69.7296  222.4509 H   0  0  0  0  0  0  0  0  0  0  0  0
  138.6850   68.3717  224.5171 H   0  0  0  0  0  0  0  0  0  0  0  0
  139.2623   68.1232  226.8501 H   0  0  0  0  0  0  0  0  0  0  0  0
  141.4513   71.2402  228.8373 H   0  0  0  0  0  0  0  0  0  0  0  0
  141.4745   72.5104  226.7363 H   0  0  0  0  0  0  0  0  0  0  0  0
  1  2  2  0
  2  3  1  0
  3  4  1  0
  4  5  1  0
  5  6  2  0
  5  7  1  0
  7  8  1  0
  8  9  1  0
  9 10  1  0
  9 11  1  0
 11 12  1  0
 12 13  1  0
 13 14  2  0
 13 15  1  0
 15 16  1  0
 16 17  1  0
 17 18  1  0
 18 19  1  0
 19 20  1  0
 20 21  1  0
 21 22  1  0
 22 23  2  0
 23 24  1  0
 24 25  2  0
 25 26  1  0
 26 27  2  0
  2 28  1  0
 28 29  2  0
 29 30  1  0
 30 31  2  0
 31 32  1  0
 32 33  2  0
 33 34  1  0
 33 35  1  0
 35 36  2  0
 36 37  1  0
 37 38  2  0
 12  7  1  0
 21 16  1  0
 27 22  1  0
 38 28  1  0
 37 31  1  0
  3 39  1  0
  4 40  1  0
  4 41  1  0
  8 42  1  0
  8 43  1  0
  9 44  1  1
 10 45  1  0
 11 46  1  0
 11 47  1  0
 12 48  1  6
 15 49  1  0
 16 50  1  6
 17 51  1  0
 17 52  1  0
 18 53  1  0
 18 54  1  0
 19 55  1  0
 19 56  1  0
 20 57  1  0
 20 58  1  0
 21 59  1  1
 23 60  1  0
 24 61  1  0
 25 62  1  0
 26 63  1  0
 27 64  1  0
 29 65  1  0
 30 66  1  0
 32 67  1  0
 35 68  1  0
 36 69  1  0
M  END
>  <smiles>  (23) 
O=C(NCC(=O)N1C[C@H](O)C[C@H]1C(=O)N[C@@H]1CCCC[C@H]1c1ccccc1)c1ccc2cc(F)ccc2n1

>  <score_type>  (23) 
oracle

>  <origin>  (23) 
autodockgpu

>  <m_score__min__energy>  (23) 
-10.26

>  <m_primary>  (23) 
energy

>  <rmsd>  (23) 
2.992539517907117

>  <m_score__min__rmsd>  (23) 
2.992539517907117

>  <meeko>  (23) 
{"free_energy": -8.57, "intermolecular_energy": -10.95, "internal_energy": -3.48, "cluster_size": 2, "cluster_id": 5, "rank_in_cluster": 1}

>  <energy>  (23) 
-8.83

>  <cluster_rmsd>  (23) 
0.81

>  <cluster>  (23) 
3

$$$$

     RDKit          3D

 69 73  0  0  0  0  0  0  0  0999 V2000
  140.3910   73.5730  222.3530 O   0  0  0  0  0  0  0  0  0  0  0  0
  140.2500   72.3220  222.3100 C   0  0  0  0  0  0  0  0  0  0  0  0
  140.1550   71.7500  221.0000 N   0  0  0  0  0  0  0  0  0  0  0  0
  140.2330   72.6730  219.8870 C   0  0  0  0  0  0  0  0  0  0  0  0
  141.6250   72.9880  219.5020 C   0  0  0  0  0  0  0  0  0  0  0  0
  142.5780   72.1690  219.5770 O   0  0  0  0  0  0  0  0  0  0  0  0
  141.9110   74.2800  219.0220 N   0  0  0  0  0  0  0  0  0  0  0  0
  141.2230   74.9090  217.9220 C   0  0  0  0  0  0  0  0  0  0  0  0
  142.0080   76.1500  217.5630 C   0  0  2  0  0  0  0  0  0  0  0  0
  142.1360   76.2760  216.1730 O   0  0  0  0  0  0  0  0  0  0  0  0
  143.3380   75.9130  218.2120 C   0  0  0  0  0  0  0  0  0  0  0  0
  142.9190   75.2300  219.5050 C   0  0  1  0  0  0  0  0  0  0  0  0
  142.1840   76.2570  220.3200 C   0  0  0  0  0  0  0  0  0  0  0  0
  142.5540   77.4790  220.2760 O   0  0  0  0  0  0  0  0  0  0  0  0
  141.1070   75.8280  221.1050 N   0  0  0  0  0  0  0  0  0  0  0  0
  140.3160   76.7310  221.9390 C   0  0  2  0  0  0  0  0  0  0  0  0
  139.0150   76.0290  222.1870 C   0  0  0  0  0  0  0  0  0  0  0  0
  137.9260   76.8940  222.7380 C   0  0  0  0  0  0  0  0  0  0  0  0
  137.7420   78.1680  221.9980 C   0  0  0  0  0  0  0  0  0  0  0  0
  138.8210   78.5480  221.0450 C   0  0  0  0  0  0  0  0  0  0  0  0
  140.1990   78.0950  221.3670 C   0  0  1  0  0  0  0  0  0  0  0  0
  140.9620   79.1090  222.1800 C   0  0  0  0  0  0  0  0  0  0  0  0
  141.1340   80.3980  221.7060 C   0  0  0  0  0  0  0  0  0  0  0  0
  141.8430   81.3370  222.4610 C   0  0  0  0  0  0  0  0  0  0  0  0
  142.3740   80.9670  223.6930 C   0  0  0  0  0  0  0  0  0  0  0  0
  142.2050   79.6900  224.1660 C   0  0  0  0  0  0  0  0  0  0  0  0
  141.5030   78.7740  223.4080 C   0  0  0  0  0  0  0  0  0  0  0  0
  140.1850   71.4970  223.5050 C   0  0  0  0  0  0  0  0  0  0  0  0
  139.5760   70.2610  223.3940 C   0  0  0  0  0  0  0  0  0  0  0  0
  139.4630   69.4050  224.4680 C   0  0  0  0  0  0  0  0  0  0  0  0
  139.9720   69.7950  225.6710 C   0  0  0  0  0  0  0  0  0  0  0  0
  139.8860   68.9690  226.7890 C   0  0  0  0  0  0  0  0  0  0  0  0
  140.3970   69.3530  228.0190 C   0  0  0  0  0  0  0  0  0  0  0  0
  140.2830   68.5110  229.0620 F   0  0  0  0  0  0  0  0  0  0  0  0
  141.0060   70.5950  228.1140 C   0  0  0  0  0  0  0  0  0  0  0  0
  141.0810   71.3980  226.9940 C   0  0  0  0  0  0  0  0  0  0  0  0
  140.5810   71.0410  225.7660 C   0  0  0  0  0  0  0  0  0  0  0  0
  140.6780   71.8600  224.6970 N   0  0  0  0  0  0  0  0  0  0  0  0
  140.0370   70.7180  220.8740 H   0  0  0  0  0  0  0  0  0  0  0  0
  139.7217   72.2251  219.0222 H   0  0  0  0  0  0  0  0  0  0  0  0
  139.7550   73.6126  220.2011 H   0  0  0  0  0  0  0  0  0  0  0  0
  141.1822   74.2254  217.0612 H   0  0  0  0  0  0  0  0  0  0  0  0
  140.1895   75.1641  218.1990 H   0  0  0  0  0  0  0  0  0  0  0  0
  141.5272   77.0805  217.8992 H   0  0  0  0  0  0  0  0  0  0  0  0
  142.8750   76.9330  216.0520 H   0  0  0  0  0  0  0  0  0  0  0  0
  143.9749   75.2587  217.5986 H   0  0  0  0  0  0  0  0  0  0  0  0
  143.9382   76.8234  218.3566 H   0  0  0  0  0  0  0  0  0  0  0  0
  143.7412   74.7876  220.0865 H   0  0  0  0  0  0  0  0  0  0  0  0
  140.8040   74.8190  221.1380 H   0  0  0  0  0  0  0  0  0  0  0  0
  140.8095   76.9339  222.9009 H   0  0  0  0  0  0  0  0  0  0  0  0
  138.6667   75.6082  221.2322 H   0  0  0  0  0  0  0  0  0  0  0  0
  139.2183   75.2652  222.9520 H   0  0  0  0  0  0  0  0  0  0  0  0
  136.9820   76.3306  222.6990 H   0  0  0  0  0  0  0  0  0  0  0  0
  138.2154   77.1587  223.7657 H   0  0  0  0  0  0  0  0  0  0  0  0
  136.8050   78.0899  221.4271 H   0  0  0  0  0  0  0  0  0  0  0  0
  137.7458   78.9535  222.7681 H   0  0  0  0  0  0  0  0  0  0  0  0
  138.5565   78.1315  220.0618 H   0  0  0  0  0  0  0  0  0  0  0  0
  138.8651   79.6463  221.0883 H   0  0  0  0  0  0  0  0  0  0  0  0
  140.6763   78.0136  220.3793 H   0  0  0  0  0  0  0  0  0  0  0  0
  140.7113   80.6846  220.7317 H   0  0  0  0  0  0  0  0  0  0  0  0
  141.9802   82.3612  222.0839 H   0  0  0  0  0  0  0  0  0  0  0  0
  142.9323   81.7023  224.2910 H   0  0  0  0  0  0  0  0  0  0  0  0
  142.6249   79.3988  225.1401 H   0  0  0  0  0  0  0  0  0  0  0  0
  141.3706   77.7513  223.7907 H   0  0  0  0  0  0  0  0  0  0  0  0
  139.1697   69.9517  222.4197 H   0  0  0  0  0  0  0  0  0  0  0  0
  138.9721   68.4269  224.3569 H   0  0  0  0  0  0  0  0  0  0  0  0
  139.4001   67.9867  226.6935 H   0  0  0  0  0  0  0  0  0  0  0  0
  141.4250   70.9367  229.0720 H   0  0  0  0  0  0  0  0  0  0  0  0
  141.5688   72.3792  227.0905 H   0  0  0  0  0  0  0  0  0  0  0  0
  1  2  2  0
  2  3  1  0
  3  4  1  0
  4  5  1  0
  5  6  2  0
  5  7  1  0
  7  8  1  0
  8  9  1  0
  9 10  1  0
  9 11  1  0
 11 12  1  0
 12 13  1  0
 13 14  2  0
 13 15  1  0
 15 16  1  0
 16 17  1  0
 17 18  1  0
 18 19  1  0
 19 20  1  0
 20 21  1  0
 21 22  1  0
 22 23  2  0
 23 24  1  0
 24 25  2  0
 25 26  1  0
 26 27  2  0
  2 28  1  0
 28 29  2  0
 29 30  1  0
 30 31  2  0
 31 32  1  0
 32 33  2  0
 33 34  1  0
 33 35  1  0
 35 36  2  0
 36 37  1  0
 37 38  2  0
 12  7  1  0
 21 16  1  0
 27 22  1  0
 38 28  1  0
 37 31  1  0
  3 39  1  0
  4 40  1  0
  4 41  1  0
  8 42  1  0
  8 43  1  0
  9 44  1  1
 10 45  1  0
 11 46  1  0
 11 47  1  0
 12 48  1  1
 15 49  1  0
 16 50  1  1
 17 51  1  0
 17 52  1  0
 18 53  1  0
 18 54  1  0
 19 55  1  0
 19 56  1  0
 20 57  1  0
 20 58  1  0
 21 59  1  6
 23 60  1  0
 24 61  1  0
 25 62  1  0
 26 63  1  0
 27 64  1  0
 29 65  1  0
 30 66  1  0
 32 67  1  0
 35 68  1  0
 36 69  1  0
M  END
>  <smiles>  (24) 
O=C(NCC(=O)N1C[C@H](O)C[C@H]1C(=O)N[C@@H]1CCCC[C@H]1c1ccccc1)c1ccc2cc(F)ccc2n1

>  <score_type>  (24) 
oracle

>  <origin>  (24) 
autodockgpu

>  <m_score__min__energy>  (24) 
-10.26

>  <m_primary>  (24) 
energy

>  <rmsd>  (24) 
2.9386701779734303

>  <m_score__min__rmsd>  (24) 
2.9386701779734303

>  <meeko>  (24) 
{"free_energy": -9.11, "intermolecular_energy": -11.5, "internal_energy": -3.24, "cluster_size": 11, "cluster_id": 1, "rank_in_cluster": 7}

>  <energy>  (24) 
-8.73

>  <cluster_rmsd>  (24) 
1.11

>  <cluster>  (24) 
3

$$$$

     RDKit          3D

 69 73  0  0  0  0  0  0  0  0999 V2000
  140.2890   72.6840  223.0210 O   0  0  0  0  0  0  0  0  0  0  0  0
  139.9320   73.2890  221.9760 C   0  0  0  0  0  0  0  0  0  0  0  0
  140.2840   72.6570  220.7390 N   0  0  0  0  0  0  0  0  0  0  0  0
  141.0020   71.4030  220.8380 C   0  0  0  0  0  0  0  0  0  0  0  0
  142.1560   71.3310  219.9180 C   0  0  0  0  0  0  0  0  0  0  0  0
  142.3880   70.3550  219.1570 O   0  0  0  0  0  0  0  0  0  0  0  0
  143.0550   72.4130  219.8840 N   0  0  0  0  0  0  0  0  0  0  0  0
  144.0730   72.5940  218.8800 C   0  0  0  0  0  0  0  0  0  0  0  0
  144.9750   73.7060  219.3620 C   0  0  2  0  0  0  0  0  0  0  0  0
  146.3230   73.3820  219.1560 O   0  0  0  0  0  0  0  0  0  0  0  0
  144.6550   73.7980  220.8230 C   0  0  0  0  0  0  0  0  0  0  0  0
  143.1550   73.5440  220.8140 C   0  0  1  0  0  0  0  0  0  0  0  0
  142.5200   74.7210  220.1290 C   0  0  0  0  0  0  0  0  0  0  0  0
  142.5790   74.8170  218.8570 O   0  0  0  0  0  0  0  0  0  0  0  0
  141.8790   75.6790  220.9240 N   0  0  0  0  0  0  0  0  0  0  0  0
  141.2250   76.8650  220.3750 C   0  0  2  0  0  0  0  0  0  0  0  0
  140.4340   76.3910  219.1940 C   0  0  0  0  0  0  0  0  0  0  0  0
  139.9480   77.4740  218.2840 C   0  0  0  0  0  0  0  0  0  0  0  0
  141.0010   78.4470  217.8980 C   0  0  0  0  0  0  0  0  0  0  0  0
  142.2660   78.4070  218.6810 C   0  0  0  0  0  0  0  0  0  0  0  0
  142.1720   77.9720  220.0980 C   0  0  1  0  0  0  0  0  0  0  0  0
  141.9700   79.1310  221.0410 C   0  0  0  0  0  0  0  0  0  0  0  0
  142.4300   79.0600  222.3450 C   0  0  0  0  0  0  0  0  0  0  0  0
  142.2410   80.1350  223.2170 C   0  0  0  0  0  0  0  0  0  0  0  0
  141.5860   81.2770  222.7680 C   0  0  0  0  0  0  0  0  0  0  0  0
  141.1280   81.3520  221.4760 C   0  0  0  0  0  0  0  0  0  0  0  0
  141.3230   80.2810  220.6260 C   0  0  0  0  0  0  0  0  0  0  0  0
  139.2100   74.5490  222.0050 C   0  0  0  0  0  0  0  0  0  0  0  0
  137.9420   74.5720  221.4540 C   0  0  0  0  0  0  0  0  0  0  0  0
  137.1760   75.7170  221.4310 C   0  0  0  0  0  0  0  0  0  0  0  0
  137.6920   76.8570  221.9720 C   0  0  0  0  0  0  0  0  0  0  0  0
  136.9610   78.0440  221.9770 C   0  0  0  0  0  0  0  0  0  0  0  0
  137.4720   79.2110  222.5220 C   0  0  0  0  0  0  0  0  0  0  0  0
  136.7170   80.3250  222.4960 F   0  0  0  0  0  0  0  0  0  0  0  0
  138.7440   79.1740  223.0700 C   0  0  0  0  0  0  0  0  0  0  0  0
  139.4510   77.9880  223.0560 C   0  0  0  0  0  0  0  0  0  0  0  0
  138.9680   76.8200  222.5220 C   0  0  0  0  0  0  0  0  0  0  0  0
  139.6960   75.6830  222.5300 N   0  0  0  0  0  0  0  0  0  0  0  0
  140.0250   73.0920  219.8230 H   0  0  0  0  0  0  0  0  0  0  0  0
  141.3667   71.2870  221.8693 H   0  0  0  0  0  0  0  0  0  0  0  0
  140.3050   70.5989  220.5594 H   0  0  0  0  0  0  0  0  0  0  0  0
  144.6505   71.6660  218.7558 H   0  0  0  0  0  0  0  0  0  0  0  0
  143.6251   72.8452  217.9072 H   0  0  0  0  0  0  0  0  0  0  0  0
  144.8167   74.6550  218.8287 H   0  0  0  0  0  0  0  0  0  0  0  0
  146.7980   74.2560  219.2090 H   0  0  0  0  0  0  0  0  0  0  0  0
  145.1902   73.0309  221.4019 H   0  0  0  0  0  0  0  0  0  0  0  0
  144.9488   74.7495  221.2903 H   0  0  0  0  0  0  0  0  0  0  0  0
  142.7029   73.3800  221.8033 H   0  0  0  0  0  0  0  0  0  0  0  0
  141.8320   75.5950  221.9740 H   0  0  0  0  0  0  0  0  0  0  0  0
  140.5454   77.3293  221.1047 H   0  0  0  0  0  0  0  0  0  0  0  0
  141.0702   75.7120  218.6073 H   0  0  0  0  0  0  0  0  0  0  0  0
  139.5353   75.9043  219.6007 H   0  0  0  0  0  0  0  0  0  0  0  0
  139.5538   77.0078  217.3690 H   0  0  0  0  0  0  0  0  0  0  0  0
  139.1784   78.0350  218.8345 H   0  0  0  0  0  0  0  0  0  0  0  0
  141.2553   78.2625  216.8438 H   0  0  0  0  0  0  0  0  0  0  0  0
  140.5674   79.4378  218.0988 H   0  0  0  0  0  0  0  0  0  0  0  0
  142.9517   77.7170  218.1675 H   0  0  0  0  0  0  0  0  0  0  0  0
  142.6053   79.4524  218.7265 H   0  0  0  0  0  0  0  0  0  0  0  0
  143.1609   77.5327  220.2958 H   0  0  0  0  0  0  0  0  0  0  0  0
  142.9460   78.1540  222.6956 H   0  0  0  0  0  0  0  0  0  0  0  0
  142.6080   80.0787  224.2524 H   0  0  0  0  0  0  0  0  0  0  0  0
  141.4341   82.1249  223.4521 H   0  0  0  0  0  0  0  0  0  0  0  0
  140.6110   82.2558  221.1214 H   0  0  0  0  0  0  0  0  0  0  0  0
  140.9540   80.3442  219.5917 H   0  0  0  0  0  0  0  0  0  0  0  0
  137.5322   73.6477  221.0207 H   0  0  0  0  0  0  0  0  0  0  0  0
  136.1701   75.7114  220.9859 H   0  0  0  0  0  0  0  0  0  0  0  0
  135.9528   78.0545  221.5371 H   0  0  0  0  0  0  0  0  0  0  0  0
  139.1858   80.0795  223.5114 H   0  0  0  0  0  0  0  0  0  0  0  0
  140.4583   77.9791  223.4979 H   0  0  0  0  0  0  0  0  0  0  0  0
  1  2  2  0
  2  3  1  0
  3  4  1  0
  4  5  1  0
  5  6  2  0
  5  7  1  0
  7  8  1  0
  8  9  1  0
  9 10  1  0
  9 11  1  0
 11 12  1  0
 12 13  1  0
 13 14  2  0
 13 15  1  0
 15 16  1  0
 16 17  1  0
 17 18  1  0
 18 19  1  0
 19 20  1  0
 20 21  1  0
 21 22  1  0
 22 23  2  0
 23 24  1  0
 24 25  2  0
 25 26  1  0
 26 27  2  0
  2 28  1  0
 28 29  2  0
 29 30  1  0
 30 31  2  0
 31 32  1  0
 32 33  2  0
 33 34  1  0
 33 35  1  0
 35 36  2  0
 36 37  1  0
 37 38  2  0
 12  7  1  0
 21 16  1  0
 27 22  1  0
 38 28  1  0
 37 31  1  0
  3 39  1  0
  4 40  1  0
  4 41  1  0
  8 42  1  0
  8 43  1  0
  9 44  1  6
 10 45  1  0
 11 46  1  0
 11 47  1  0
 12 48  1  1
 15 49  1  0
 16 50  1  1
 17 51  1  0
 17 52  1  0
 18 53  1  0
 18 54  1  0
 19 55  1  0
 19 56  1  0
 20 57  1  0
 20 58  1  0
 21 59  1  1
 23 60  1  0
 24 61  1  0
 25 62  1  0
 26 63  1  0
 27 64  1  0
 29 65  1  0
 30 66  1  0
 32 67  1  0
 35 68  1  0
 36 69  1  0
M  END
>  <smiles>  (25) 
O=C(NCC(=O)N1C[C@H](O)C[C@H]1C(=O)N[C@@H]1CCCC[C@H]1c1ccccc1)c1ccc2cc(F)ccc2n1

>  <score_type>  (25) 
oracle

>  <origin>  (25) 
autodockgpu

>  <m_score__min__energy>  (25) 
-10.26

>  <m_primary>  (25) 
energy

>  <rmsd>  (25) 
6.246717426137119

>  <m_score__min__rmsd>  (25) 
6.246717426137119

>  <meeko>  (25) 
{"free_energy": -7.67, "intermolecular_energy": -10.05, "internal_energy": -4.36, "cluster_size": 12, "cluster_id": 9, "rank_in_cluster": 1}

>  <energy>  (25) 
-8.65

>  <cluster_rmsd>  (25) 
1.31

>  <cluster>  (25) 
3

$$$$

     RDKit          3D

 69 73  0  0  0  0  0  0  0  0999 V2000
  140.1510   73.0880  222.6500 O   0  0  0  0  0  0  0  0  0  0  0  0
  140.1170   74.0190  221.8010 C   0  0  0  0  0  0  0  0  0  0  0  0
  140.2640   73.6190  220.4330 N   0  0  0  0  0  0  0  0  0  0  0  0
  140.4310   72.2020  220.1910 C   0  0  0  0  0  0  0  0  0  0  0  0
  141.8500   71.7910  220.1530 C   0  0  0  0  0  0  0  0  0  0  0  0
  142.2480   70.6180  220.3770 O   0  0  0  0  0  0  0  0  0  0  0  0
  142.8210   72.7640  219.8500 N   0  0  0  0  0  0  0  0  0  0  0  0
  143.8350   72.6120  218.8370 C   0  0  0  0  0  0  0  0  0  0  0  0
  144.8190   73.7440  219.0250 C   0  0  2  0  0  0  0  0  0  0  0  0
  146.1380   73.2850  218.9140 O   0  0  0  0  0  0  0  0  0  0  0  0
  144.5260   74.2250  220.4140 C   0  0  0  0  0  0  0  0  0  0  0  0
  143.0120   74.0830  220.4630 C   0  0  1  0  0  0  0  0  0  0  0  0
  142.4500   75.0890  219.4990 C   0  0  0  0  0  0  0  0  0  0  0  0
  142.1230   74.7200  218.3210 O   0  0  0  0  0  0  0  0  0  0  0  0
  142.3040   76.4110  219.9380 N   0  0  0  0  0  0  0  0  0  0  0  0
  141.7690   77.4790  219.0950 C   0  0  2  0  0  0  0  0  0  0  0  0
  142.8980   77.9080  218.2070 C   0  0  0  0  0  0  0  0  0  0  0  0
  142.6820   79.2030  217.4920 C   0  0  0  0  0  0  0  0  0  0  0  0
  142.2170   80.3030  218.3760 C   0  0  0  0  0  0  0  0  0  0  0  0
  141.7430   79.9130  219.7320 C   0  0  0  0  0  0  0  0  0  0  0  0
  141.1310   78.5680  219.8750 C   0  0  1  0  0  0  0  0  0  0  0  0
  139.6360   78.5920  219.6800 C   0  0  0  0  0  0  0  0  0  0  0  0
  138.9650   77.4540  219.2700 C   0  0  0  0  0  0  0  0  0  0  0  0
  137.5800   77.4800  219.0900 C   0  0  0  0  0  0  0  0  0  0  0  0
  136.8780   78.6570  219.3260 C   0  0  0  0  0  0  0  0  0  0  0  0
  137.5400   79.7890  219.7330 C   0  0  0  0  0  0  0  0  0  0  0  0
  138.9090   79.7480  219.9060 C   0  0  0  0  0  0  0  0  0  0  0  0
  139.9420   75.4130  222.1700 C   0  0  0  0  0  0  0  0  0  0  0  0
  138.6480   75.8900  222.2690 C   0  0  0  0  0  0  0  0  0  0  0  0
  138.3760   77.1960  222.6120 C   0  0  0  0  0  0  0  0  0  0  0  0
  139.4200   78.0370  222.8590 C   0  0  0  0  0  0  0  0  0  0  0  0
  139.2030   79.3680  223.2090 C   0  0  0  0  0  0  0  0  0  0  0  0
  140.2540   80.2350  223.4620 C   0  0  0  0  0  0  0  0  0  0  0  0
  139.9790   81.5090  223.7960 F   0  0  0  0  0  0  0  0  0  0  0  0
  141.5460   79.7430  223.3580 C   0  0  0  0  0  0  0  0  0  0  0  0
  141.7400   78.4210  223.0110 C   0  0  0  0  0  0  0  0  0  0  0  0
  140.7160   77.5440  222.7540 C   0  0  0  0  0  0  0  0  0  0  0  0
  140.9520   76.2580  222.4160 N   0  0  0  0  0  0  0  0  0  0  0  0
  140.2470   74.3290  219.6640 H   0  0  0  0  0  0  0  0  0  0  0  0
  139.9255   71.6462  220.9945 H   0  0  0  0  0  0  0  0  0  0  0  0
  139.9955   71.9807  219.2054 H   0  0  0  0  0  0  0  0  0  0  0  0
  144.3449   71.6445  218.9548 H   0  0  0  0  0  0  0  0  0  0  0  0
  143.3922   72.6392  217.8304 H   0  0  0  0  0  0  0  0  0  0  0  0
  144.7194   74.5354  218.2676 H   0  0  0  0  0  0  0  0  0  0  0  0
  146.6890   74.1140  218.9060 H   0  0  0  0  0  0  0  0  0  0  0  0
  145.0147   73.5937  221.1707 H   0  0  0  0  0  0  0  0  0  0  0  0
  144.8912   75.2406  220.6264 H   0  0  0  0  0  0  0  0  0  0  0  0
  142.5638   74.2074  221.4598 H   0  0  0  0  0  0  0  0  0  0  0  0
  142.5740   76.7120  220.9110 H   0  0  0  0  0  0  0  0  0  0  0  0
  140.9313   77.1269  218.4751 H   0  0  0  0  0  0  0  0  0  0  0  0
  143.8012   78.0070  218.8270 H   0  0  0  0  0  0  0  0  0  0  0  0
  142.9860   77.1371  217.4273 H   0  0  0  0  0  0  0  0  0  0  0  0
  143.6327   79.5073  217.0298 H   0  0  0  0  0  0  0  0  0  0  0  0
  141.8898   79.0314  216.7484 H   0  0  0  0  0  0  0  0  0  0  0  0
  143.0543   81.0048  218.5042 H   0  0  0  0  0  0  0  0  0  0  0  0
  141.3363   80.7276  217.8719 H   0  0  0  0  0  0  0  0  0  0  0  0
  142.6078   79.9571  220.4104 H   0  0  0  0  0  0  0  0  0  0  0  0
  140.9326   80.6198  219.9637 H   0  0  0  0  0  0  0  0  0  0  0  0
  141.3391   78.3059  220.9229 H   0  0  0  0  0  0  0  0  0  0  0  0
  139.5242   76.5250  219.0850 H   0  0  0  0  0  0  0  0  0  0  0  0
  137.0476   76.5745  218.7634 H   0  0  0  0  0  0  0  0  0  0  0  0
  135.7872   78.6813  219.1860 H   0  0  0  0  0  0  0  0  0  0  0  0
  136.9846   80.7200  219.9195 H   0  0  0  0  0  0  0  0  0  0  0  0
  139.4355   80.6572  220.2318 H   0  0  0  0  0  0  0  0  0  0  0  0
  137.8105   75.2059  222.0678 H   0  0  0  0  0  0  0  0  0  0  0  0
  137.3381   77.5529  222.6851 H   0  0  0  0  0  0  0  0  0  0  0  0
  138.1708   79.7402  223.2865 H   0  0  0  0  0  0  0  0  0  0  0  0
  142.4076   80.3993  223.5500 H   0  0  0  0  0  0  0  0  0  0  0  0
  142.7728   78.0498  222.9363 H   0  0  0  0  0  0  0  0  0  0  0  0
  1  2  2  0
  2  3  1  0
  3  4  1  0
  4  5  1  0
  5  6  2  0
  5  7  1  0
  7  8  1  0
  8  9  1  0
  9 10  1  0
  9 11  1  0
 11 12  1  0
 12 13  1  0
 13 14  2  0
 13 15  1  0
 15 16  1  0
 16 17  1  0
 17 18  1  0
 18 19  1  0
 19 20  1  0
 20 21  1  0
 21 22  1  0
 22 23  2  0
 23 24  1  0
 24 25  2  0
 25 26  1  0
 26 27  2  0
  2 28  1  0
 28 29  2  0
 29 30  1  0
 30 31  2  0
 31 32  1  0
 32 33  2  0
 33 34  1  0
 33 35  1  0
 35 36  2  0
 36 37  1  0
 37 38  2  0
 12  7  1  0
 21 16  1  0
 27 22  1  0
 38 28  1  0
 37 31  1  0
  3 39  1  0
  4 40  1  0
  4 41  1  0
  8 42  1  0
  8 43  1  0
  9 44  1  6
 10 45  1  0
 11 46  1  0
 11 47  1  0
 12 48  1  1
 15 49  1  0
 16 50  1  6
 17 51  1  0
 17 52  1  0
 18 53  1  0
 18 54  1  0
 19 55  1  0
 19 56  1  0
 20 57  1  0
 20 58  1  0
 21 59  1  1
 23 60  1  0
 24 61  1  0
 25 62  1  0
 26 63  1  0
 27 64  1  0
 29 65  1  0
 30 66  1  0
 32 67  1  0
 35 68  1  0
 36 69  1  0
M  END
>  <smiles>  (26) 
O=C(NCC(=O)N1C[C@H](O)C[C@H]1C(=O)N[C@@H]1CCCC[C@H]1c1ccccc1)c1ccc2cc(F)ccc2n1

>  <score_type>  (26) 
oracle

>  <origin>  (26) 
autodockgpu

>  <m_score__min__energy>  (26) 
-10.26

>  <m_primary>  (26) 
energy

>  <rmsd>  (26) 
6.4436614006588675

>  <m_score__min__rmsd>  (26) 
6.4436614006588675

>  <meeko>  (26) 
{"free_energy": -7.23, "intermolecular_energy": -9.62, "internal_energy": -5.23, "cluster_size": 12, "cluster_id": 9, "rank_in_cluster": 7}

>  <energy>  (26) 
-8.56

>  <cluster_rmsd>  (26) 
1.04

>  <cluster>  (26) 
3

$$$$

     RDKit          3D

 69 73  0  0  0  0  0  0  0  0999 V2000
  140.6980   72.2100  221.7340 O   0  0  0  0  0  0  0  0  0  0  0  0
  139.7800   72.1220  222.5920 C   0  0  0  0  0  0  0  0  0  0  0  0
  138.6240   72.9350  222.3530 N   0  0  0  0  0  0  0  0  0  0  0  0
  138.6500   73.7560  221.1600 C   0  0  0  0  0  0  0  0  0  0  0  0
  139.5240   74.9400  221.2990 C   0  0  0  0  0  0  0  0  0  0  0  0
  139.6440   75.6040  222.3610 O   0  0  0  0  0  0  0  0  0  0  0  0
  140.2700   75.3550  220.1800 N   0  0  0  0  0  0  0  0  0  0  0  0
  139.6930   75.8560  218.9580 C   0  0  0  0  0  0  0  0  0  0  0  0
  140.8060   75.9220  217.9390 C   0  0  2  0  0  0  0  0  0  0  0  0
  140.3780   75.4340  216.6970 O   0  0  0  0  0  0  0  0  0  0  0  0
  141.8660   75.0430  218.5310 C   0  0  0  0  0  0  0  0  0  0  0  0
  141.7280   75.3700  220.0110 C   0  0  1  0  0  0  0  0  0  0  0  0
  142.1640   76.7980  220.1820 C   0  0  0  0  0  0  0  0  0  0  0  0
  143.0200   77.2960  219.3760 O   0  0  0  0  0  0  0  0  0  0  0  0
  141.6060   77.5360  221.2330 N   0  0  0  0  0  0  0  0  0  0  0  0
  141.9490   78.9310  221.5010 C   0  0  2  0  0  0  0  0  0  0  0  0
  142.2090   79.0160  222.9750 C   0  0  0  0  0  0  0  0  0  0  0  0
  142.2560   80.4040  223.5290 C   0  0  0  0  0  0  0  0  0  0  0  0
  141.1090   81.2520  223.1140 C   0  0  0  0  0  0  0  0  0  0  0  0
  140.2690   80.7380  221.9980 C   0  0  0  0  0  0  0  0  0  0  0  0
  140.9390   79.8860  220.9820 C   0  0  1  0  0  0  0  0  0  0  0  0
  141.4720   80.6870  219.8220 C   0  0  0  0  0  0  0  0  0  0  0  0
  141.2620   82.0540  219.7600 C   0  0  0  0  0  0  0  0  0  0  0  0
  141.7570   82.7940  218.6830 C   0  0  0  0  0  0  0  0  0  0  0  0
  142.4620   82.1490  217.6720 C   0  0  0  0  0  0  0  0  0  0  0  0
  142.6720   80.7930  217.7290 C   0  0  0  0  0  0  0  0  0  0  0  0
  142.1770   80.0750  218.8000 C   0  0  0  0  0  0  0  0  0  0  0  0
  139.8710   71.2560  223.7540 C   0  0  0  0  0  0  0  0  0  0  0  0
  139.3870   69.9670  223.6300 C   0  0  0  0  0  0  0  0  0  0  0  0
  139.4270   69.0680  224.6740 C   0  0  0  0  0  0  0  0  0  0  0  0
  139.9620   69.4710  225.8610 C   0  0  0  0  0  0  0  0  0  0  0  0
  140.0270   68.6040  226.9500 C   0  0  0  0  0  0  0  0  0  0  0  0
  140.5670   69.0000  228.1640 C   0  0  0  0  0  0  0  0  0  0  0  0
  140.6020   68.1160  229.1780 F   0  0  0  0  0  0  0  0  0  0  0  0
  141.0470   70.2950  228.2740 C   0  0  0  0  0  0  0  0  0  0  0  0
  140.9740   71.1380  227.1830 C   0  0  0  0  0  0  0  0  0  0  0  0
  140.4430   70.7710  225.9720 C   0  0  0  0  0  0  0  0  0  0  0  0
  140.3910   71.6300  224.9310 N   0  0  0  0  0  0  0  0  0  0  0  0
  137.8150   72.9220  223.0160 H   0  0  0  0  0  0  0  0  0  0  0  0
  139.0157   73.1456  220.3211 H   0  0  0  0  0  0  0  0  0  0  0  0
  137.6263   74.1185  220.9848 H   0  0  0  0  0  0  0  0  0  0  0  0
  138.9005   75.1778  218.6085 H   0  0  0  0  0  0  0  0  0  0  0  0
  139.2438   76.8480  219.1137 H   0  0  0  0  0  0  0  0  0  0  0  0
  141.1570   76.9467  217.7470 H   0  0  0  0  0  0  0  0  0  0  0  0
  140.8110   74.5410  216.6190 H   0  0  0  0  0  0  0  0  0  0  0  0
  141.6653   73.9798  218.3326 H   0  0  0  0  0  0  0  0  0  0  0  0
  142.8733   75.2128  218.1230 H   0  0  0  0  0  0  0  0  0  0  0  0
  142.2868   74.7085  220.6893 H   0  0  0  0  0  0  0  0  0  0  0  0
  140.8980   77.1210  221.8960 H   0  0  0  0  0  0  0  0  0  0  0  0
  142.8516   79.2403  220.9536 H   0  0  0  0  0  0  0  0  0  0  0  0
  141.4093   78.4679  223.4948 H   0  0  0  0  0  0  0  0  0  0  0  0
  143.2087   78.5864  223.1363 H   0  0  0  0  0  0  0  0  0  0  0  0
  142.2608   80.3396  224.6271 H   0  0  0  0  0  0  0  0  0  0  0  0
  143.1660   80.8777  223.1323 H   0  0  0  0  0  0  0  0  0  0  0  0
  140.4565   81.3826  223.9899 H   0  0  0  0  0  0  0  0  0  0  0  0
  141.5583   82.1815  222.7342 H   0  0  0  0  0  0  0  0  0  0  0  0
  139.4549   80.1460  222.4418 H   0  0  0  0  0  0  0  0  0  0  0  0
  139.9468   81.6349  221.4487 H   0  0  0  0  0  0  0  0  0  0  0  0
  140.1259   79.2430  220.6140 H   0  0  0  0  0  0  0  0  0  0  0  0
  140.7034   82.5595  220.5615 H   0  0  0  0  0  0  0  0  0  0  0  0
  141.5902   83.8802  218.6349 H   0  0  0  0  0  0  0  0  0  0  0  0
  142.8533   82.7281  216.8225 H   0  0  0  0  0  0  0  0  0  0  0  0
  143.2293   80.2835  216.9291 H   0  0  0  0  0  0  0  0  0  0  0  0
  142.3474   78.9891  218.8419 H   0  0  0  0  0  0  0  0  0  0  0  0
  138.9568   69.6491  222.6688 H   0  0  0  0  0  0  0  0  0  0  0  0
  139.0356   68.0473  224.5518 H   0  0  0  0  0  0  0  0  0  0  0  0
  139.6402   67.5798  226.8438 H   0  0  0  0  0  0  0  0  0  0  0  0
  141.4818   70.6479  229.2208 H   0  0  0  0  0  0  0  0  0  0  0  0
  141.3633   72.1612  227.2905 H   0  0  0  0  0  0  0  0  0  0  0  0
  1  2  2  0
  2  3  1  0
  3  4  1  0
  4  5  1  0
  5  6  2  0
  5  7  1  0
  7  8  1  0
  8  9  1  0
  9 10  1  0
  9 11  1  0
 11 12  1  0
 12 13  1  0
 13 14  2  0
 13 15  1  0
 15 16  1  0
 16 17  1  0
 17 18  1  0
 18 19  1  0
 19 20  1  0
 20 21  1  0
 21 22  1  0
 22 23  2  0
 23 24  1  0
 24 25  2  0
 25 26  1  0
 26 27  2  0
  2 28  1  0
 28 29  2  0
 29 30  1  0
 30 31  2  0
 31 32  1  0
 32 33  2  0
 33 34  1  0
 33 35  1  0
 35 36  2  0
 36 37  1  0
 37 38  2  0
 12  7  1  0
 21 16  1  0
 27 22  1  0
 38 28  1  0
 37 31  1  0
  3 39  1  0
  4 40  1  0
  4 41  1  0
  8 42  1  0
  8 43  1  0
  9 44  1  6
 10 45  1  0
 11 46  1  0
 11 47  1  0
 12 48  1  1
 15 49  1  0
 16 50  1  6
 17 51  1  0
 17 52  1  0
 18 53  1  0
 18 54  1  0
 19 55  1  0
 19 56  1  0
 20 57  1  0
 20 58  1  0
 21 59  1  6
 23 60  1  0
 24 61  1  0
 25 62  1  0
 26 63  1  0
 27 64  1  0
 29 65  1  0
 30 66  1  0
 32 67  1  0
 35 68  1  0
 36 69  1  0
M  END
>  <smiles>  (27) 
O=C(NCC(=O)N1C[C@H](O)C[C@H]1C(=O)N[C@@H]1CCCC[C@H]1c1ccccc1)c1ccc2cc(F)ccc2n1

>  <score_type>  (27) 
oracle

>  <origin>  (27) 
autodockgpu

>  <m_score__min__energy>  (27) 
-10.26

>  <m_primary>  (27) 
energy

>  <rmsd>  (27) 
1.9241453147852827

>  <m_score__min__rmsd>  (27) 
1.9241453147852827

>  <meeko>  (27) 
{"free_energy": -9.14, "intermolecular_energy": -11.52, "internal_energy": -3.11, "cluster_size": 10, "cluster_id": 3, "rank_in_cluster": 4}

>  <energy>  (27) 
-8.73

>  <cluster_rmsd>  (27) 
0.0

>  <cluster>  (27) 
4

$$$$

     RDKit          3D

 69 73  0  0  0  0  0  0  0  0999 V2000
  139.4880   73.3980  220.3210 O   0  0  0  0  0  0  0  0  0  0  0  0
  139.9970   73.8510  221.3810 C   0  0  0  0  0  0  0  0  0  0  0  0
  140.8130   72.9340  222.1210 N   0  0  0  0  0  0  0  0  0  0  0  0
  140.9560   71.6050  221.5640 C   0  0  0  0  0  0  0  0  0  0  0  0
  141.6020   71.6080  220.2340 C   0  0  0  0  0  0  0  0  0  0  0  0
  141.1240   71.0360  219.2200 O   0  0  0  0  0  0  0  0  0  0  0  0
  142.8250   72.2880  220.0860 N   0  0  0  0  0  0  0  0  0  0  0  0
  143.8260   71.9570  219.1030 C   0  0  0  0  0  0  0  0  0  0  0  0
  145.0710   72.7350  219.4610 C   0  0  2  0  0  0  0  0  0  0  0  0
  146.2130   71.9310  219.3480 O   0  0  0  0  0  0  0  0  0  0  0  0
  144.8270   73.1340  220.8850 C   0  0  0  0  0  0  0  0  0  0  0  0
  143.3340   73.4280  220.8580 C   0  0  1  0  0  0  0  0  0  0  0  0
  143.1460   74.6460  219.9980 C   0  0  0  0  0  0  0  0  0  0  0  0
  144.0420   75.5560  219.9900 O   0  0  0  0  0  0  0  0  0  0  0  0
  141.9800   74.7350  219.2280 N   0  0  0  0  0  0  0  0  0  0  0  0
  141.6850   75.8680  218.3530 C   0  0  2  0  0  0  0  0  0  0  0  0
  142.6980   75.8140  217.2500 C   0  0  0  0  0  0  0  0  0  0  0  0
  142.7970   77.0550  216.4220 C   0  0  0  0  0  0  0  0  0  0  0  0
  142.9090   78.3000  217.2220 C   0  0  0  0  0  0  0  0  0  0  0  0
  142.6020   78.1890  218.6750 C   0  0  0  0  0  0  0  0  0  0  0  0
  141.6130   77.1590  219.0810 C   0  0  1  0  0  0  0  0  0  0  0  0
  140.2060   77.6980  219.1250 C   0  0  0  0  0  0  0  0  0  0  0  0
  139.1350   76.8870  218.7910 C   0  0  0  0  0  0  0  0  0  0  0  0
  137.8320   77.3900  218.8330 C   0  0  0  0  0  0  0  0  0  0  0  0
  137.6170   78.7120  219.2100 C   0  0  0  0  0  0  0  0  0  0  0  0
  138.6770   79.5190  219.5420 C   0  0  0  0  0  0  0  0  0  0  0  0
  139.9580   79.0080  219.4960 C   0  0  0  0  0  0  0  0  0  0  0  0
  139.7790   75.2120  221.8380 C   0  0  0  0  0  0  0  0  0  0  0  0
  138.4710   75.6360  221.9800 C   0  0  0  0  0  0  0  0  0  0  0  0
  138.1590   76.9090  222.4070 C   0  0  0  0  0  0  0  0  0  0  0  0
  139.1770   77.7680  222.6960 C   0  0  0  0  0  0  0  0  0  0  0  0
  138.9190   79.0660  223.1320 C   0  0  0  0  0  0  0  0  0  0  0  0
  139.9430   79.9510  223.4290 C   0  0  0  0  0  0  0  0  0  0  0  0
  139.6290   81.1920  223.8450 F   0  0  0  0  0  0  0  0  0  0  0  0
  141.2490   79.5130  223.2810 C   0  0  0  0  0  0  0  0  0  0  0  0
  141.4840   78.2220  222.8490 C   0  0  0  0  0  0  0  0  0  0  0  0
  140.4870   77.3280  222.5470 C   0  0  0  0  0  0  0  0  0  0  0  0
  140.7630   76.0750  222.1270 N   0  0  0  0  0  0  0  0  0  0  0  0
  141.2740   73.2290  223.0130 H   0  0  0  0  0  0  0  0  0  0  0  0
  141.5670   71.0001  222.2502 H   0  0  0  0  0  0  0  0  0  0  0  0
  139.9460   71.1869  221.4408 H   0  0  0  0  0  0  0  0  0  0  0  0
  144.0355   70.8774  219.1259 H   0  0  0  0  0  0  0  0  0  0  0  0
  143.4812   72.2124  218.0902 H   0  0  0  0  0  0  0  0  0  0  0  0
  145.2506   73.5953  218.7994 H   0  0  0  0  0  0  0  0  0  0  0  0
  146.3340   71.5440  220.2580 H   0  0  0  0  0  0  0  0  0  0  0  0
  145.0640   72.3145  221.5795 H   0  0  0  0  0  0  0  0  0  0  0  0
  145.4465   73.9747  221.2308 H   0  0  0  0  0  0  0  0  0  0  0  0
  142.8692   73.5735  221.8443 H   0  0  0  0  0  0  0  0  0  0  0  0
  141.2430   73.9810  219.2360 H   0  0  0  0  0  0  0  0  0  0  0  0
  140.6751   75.7964  217.9229 H   0  0  0  0  0  0  0  0  0  0  0  0
  143.6835   75.6249  217.7007 H   0  0  0  0  0  0  0  0  0  0  0  0
  142.3688   75.0154  216.5690 H   0  0  0  0  0  0  0  0  0  0  0  0
  143.6865   76.9738  215.7800 H   0  0  0  0  0  0  0  0  0  0  0  0
  141.8653   77.1290  215.8419 H   0  0  0  0  0  0  0  0  0  0  0  0
  143.9417   78.6664  217.1262 H   0  0  0  0  0  0  0  0  0  0  0  0
  142.1430   78.9763  216.8147 H   0  0  0  0  0  0  0  0  0  0  0  0
  143.5446   77.9670  219.1967 H   0  0  0  0  0  0  0  0  0  0  0  0
  142.1376   79.1498  218.9417 H   0  0  0  0  0  0  0  0  0  0  0  0
  141.9184   76.9058  220.1070 H   0  0  0  0  0  0  0  0  0  0  0  0
  139.3103   75.8432  218.4916 H   0  0  0  0  0  0  0  0  0  0  0  0
  136.9811   76.7446  218.5695 H   0  0  0  0  0  0  0  0  0  0  0  0
  136.5930   79.1124  219.2422 H   0  0  0  0  0  0  0  0  0  0  0  0
  138.5066   80.5635  219.8420 H   0  0  0  0  0  0  0  0  0  0  0  0
  140.8041   79.6589  219.7612 H   0  0  0  0  0  0  0  0  0  0  0  0
  137.6549   74.9368  221.7453 H   0  0  0  0  0  0  0  0  0  0  0  0
  137.1106   77.2249  222.5123 H   0  0  0  0  0  0  0  0  0  0  0  0
  137.8758   79.3966  223.2433 H   0  0  0  0  0  0  0  0  0  0  0  0
  142.0898   80.1859  223.5051 H   0  0  0  0  0  0  0  0  0  0  0  0
  142.5278   77.8922  222.7410 H   0  0  0  0  0  0  0  0  0  0  0  0
  1  2  2  0
  2  3  1  0
  3  4  1  0
  4  5  1  0
  5  6  2  0
  5  7  1  0
  7  8  1  0
  8  9  1  0
  9 10  1  0
  9 11  1  0
 11 12  1  0
 12 13  1  0
 13 14  2  0
 13 15  1  0
 15 16  1  0
 16 17  1  0
 17 18  1  0
 18 19  1  0
 19 20  1  0
 20 21  1  0
 21 22  1  0
 22 23  2  0
 23 24  1  0
 24 25  2  0
 25 26  1  0
 26 27  2  0
  2 28  1  0
 28 29  2  0
 29 30  1  0
 30 31  2  0
 31 32  1  0
 32 33  2  0
 33 34  1  0
 33 35  1  0
 35 36  2  0
 36 37  1  0
 37 38  2  0
 12  7  1  0
 21 16  1  0
 27 22  1  0
 38 28  1  0
 37 31  1  0
  3 39  1  0
  4 40  1  0
  4 41  1  0
  8 42  1  0
  8 43  1  0
  9 44  1  6
 10 45  1  0
 11 46  1  0
 11 47  1  0
 12 48  1  1
 15 49  1  0
 16 50  1  6
 17 51  1  0
 17 52  1  0
 18 53  1  0
 18 54  1  0
 19 55  1  0
 19 56  1  0
 20 57  1  0
 20 58  1  0
 21 59  1  1
 23 60  1  0
 24 61  1  0
 25 62  1  0
 26 63  1  0
 27 64  1  0
 29 65  1  0
 30 66  1  0
 32 67  1  0
 35 68  1  0
 36 69  1  0
M  END
>  <smiles>  (28) 
O=C(NCC(=O)N1C[C@H](O)C[C@H]1C(=O)N[C@@H]1CCCC[C@H]1c1ccccc1)c1ccc2cc(F)ccc2n1

>  <score_type>  (28) 
oracle

>  <origin>  (28) 
autodockgpu

>  <m_score__min__energy>  (28) 
-10.26

>  <m_primary>  (28) 
energy

>  <rmsd>  (28) 
6.6992932636016915

>  <m_score__min__rmsd>  (28) 
6.6992932636016915

>  <meeko>  (28) 
{"free_energy": -5.85, "intermolecular_energy": -8.24, "internal_energy": -5.59, "cluster_size": 12, "cluster_id": 9, "rank_in_cluster": 12}

>  <energy>  (28) 
-8.71

>  <cluster_rmsd>  (28) 
0.15

>  <cluster>  (28) 
4

$$$$

     RDKit          3D

 69 73  0  0  0  0  0  0  0  0999 V2000
  139.4340   70.9470  221.4930 O   0  0  0  0  0  0  0  0  0  0  0  0
  139.5680   71.4500  222.6400 C   0  0  0  0  0  0  0  0  0  0  0  0
  139.5760   72.8820  222.6950 N   0  0  0  0  0  0  0  0  0  0  0  0
  139.4280   73.5760  221.4330 C   0  0  0  0  0  0  0  0  0  0  0  0
  139.9710   74.9500  221.4670 C   0  0  0  0  0  0  0  0  0  0  0  0
  140.0270   75.6570  222.5070 O   0  0  0  0  0  0  0  0  0  0  0  0
  140.4540   75.5090  220.2700 N   0  0  0  0  0  0  0  0  0  0  0  0
  139.6160   76.0650  219.2360 C   0  0  0  0  0  0  0  0  0  0  0  0
  140.4980   76.2960  218.0310 C   0  0  2  0  0  0  0  0  0  0  0  0
  139.8580   75.8820  216.8550 O   0  0  0  0  0  0  0  0  0  0  0  0
  141.7020   75.4520  218.3200 C   0  0  0  0  0  0  0  0  0  0  0  0
  141.8440   75.6450  219.8230 C   0  0  1  0  0  0  0  0  0  0  0  0
  142.2260   77.0820  220.0410 C   0  0  0  0  0  0  0  0  0  0  0  0
  142.8930   77.7010  219.1440 O   0  0  0  0  0  0  0  0  0  0  0  0
  141.8290   77.6960  221.2350 N   0  0  0  0  0  0  0  0  0  0  0  0
  142.1390   79.0860  221.5620 C   0  0  2  0  0  0  0  0  0  0  0  0
  142.5170   79.0950  223.0120 C   0  0  0  0  0  0  0  0  0  0  0  0
  142.5560   80.4480  223.6470 C   0  0  0  0  0  0  0  0  0  0  0  0
  141.3460   81.2680  223.3800 C   0  0  0  0  0  0  0  0  0  0  0  0
  140.4370   80.7840  222.3050 C   0  0  0  0  0  0  0  0  0  0  0  0
  141.0520   80.0250  221.1870 C   0  0  1  0  0  0  0  0  0  0  0  0
  141.4550   80.9160  220.0400 C   0  0  0  0  0  0  0  0  0  0  0  0
  141.0690   82.2450  220.0180 C   0  0  0  0  0  0  0  0  0  0  0  0
  141.4440   83.0690  218.9540 C   0  0  0  0  0  0  0  0  0  0  0  0
  142.2060   82.5450  217.9150 C   0  0  0  0  0  0  0  0  0  0  0  0
  142.5910   81.2270  217.9330 C   0  0  0  0  0  0  0  0  0  0  0  0
  142.2130   80.4260  218.9910 C   0  0  0  0  0  0  0  0  0  0  0  0
  139.7080   70.6440  223.8410 C   0  0  0  0  0  0  0  0  0  0  0  0
  139.2030   69.3580  223.8080 C   0  0  0  0  0  0  0  0  0  0  0  0
  139.2850   68.5140  224.8950 C   0  0  0  0  0  0  0  0  0  0  0  0
  139.8850   68.9700  226.0310 C   0  0  0  0  0  0  0  0  0  0  0  0
  139.9960   68.1600  227.1590 C   0  0  0  0  0  0  0  0  0  0  0  0
  140.6020   68.6090  228.3210 C   0  0  0  0  0  0  0  0  0  0  0  0
  140.6780   67.7780  229.3770 F   0  0  0  0  0  0  0  0  0  0  0  0
  141.1040   69.9010  228.3390 C   0  0  0  0  0  0  0  0  0  0  0  0
  140.9850   70.6870  227.2100 C   0  0  0  0  0  0  0  0  0  0  0  0
  140.3880   70.2660  226.0480 C   0  0  0  0  0  0  0  0  0  0  0  0
  140.2930   71.0710  224.9680 N   0  0  0  0  0  0  0  0  0  0  0  0
  139.6820   73.3820  223.6080 H   0  0  0  0  0  0  0  0  0  0  0  0
  139.9589   73.0076  220.6551 H   0  0  0  0  0  0  0  0  0  0  0  0
  138.3512   73.6510  221.2210 H   0  0  0  0  0  0  0  0  0  0  0  0
  138.8089   75.3612  218.9843 H   0  0  0  0  0  0  0  0  0  0  0  0
  139.1517   77.0049  219.5693 H   0  0  0  0  0  0  0  0  0  0  0  0
  140.7462   77.3559  217.8726 H   0  0  0  0  0  0  0  0  0  0  0  0
  139.0510   76.4630  216.7950 H   0  0  0  0  0  0  0  0  0  0  0  0
  141.5256   74.3969  218.0639 H   0  0  0  0  0  0  0  0  0  0  0  0
  142.5965   75.7286  217.7427 H   0  0  0  0  0  0  0  0  0  0  0  0
  142.5626   74.9723  220.3139 H   0  0  0  0  0  0  0  0  0  0  0  0
  141.2780   77.1820  221.9730 H   0  0  0  0  0  0  0  0  0  0  0  0
  142.9807   79.4663  220.9646 H   0  0  0  0  0  0  0  0  0  0  0  0
  141.7853   78.4824  223.5591 H   0  0  0  0  0  0  0  0  0  0  0  0
  143.5428   78.7014  223.0644 H   0  0  0  0  0  0  0  0  0  0  0  0
  142.6546   80.3184  224.7349 H   0  0  0  0  0  0  0  0  0  0  0  0
  143.4109   80.9842  223.2091 H   0  0  0  0  0  0  0  0  0  0  0  0
  140.7640   81.3175  224.3121 H   0  0  0  0  0  0  0  0  0  0  0  0
  141.7251   82.2375  223.0247 H   0  0  0  0  0  0  0  0  0  0  0  0
  139.6868   80.1311  222.7750 H   0  0  0  0  0  0  0  0  0  0  0  0
  140.0355   81.6969  221.8409 H   0  0  0  0  0  0  0  0  0  0  0  0
  140.2364   79.3703  220.8461 H   0  0  0  0  0  0  0  0  0  0  0  0
  140.4648   82.6539  220.8413 H   0  0  0  0  0  0  0  0  0  0  0  0
  141.1386   84.1256  218.9380 H   0  0  0  0  0  0  0  0  0  0  0  0
  142.5018   83.1899  217.0744 H   0  0  0  0  0  0  0  0  0  0  0  0
  143.1950   80.8137  217.1118 H   0  0  0  0  0  0  0  0  0  0  0  0
  142.5222   79.3704  219.0009 H   0  0  0  0  0  0  0  0  0  0  0  0
  138.7214   68.9972  222.8872 H   0  0  0  0  0  0  0  0  0  0  0  0
  138.8750   67.4944  224.8467 H   0  0  0  0  0  0  0  0  0  0  0  0
  139.5920   67.1374  227.1261 H   0  0  0  0  0  0  0  0  0  0  0  0
  141.5917   70.2957  229.2426 H   0  0  0  0  0  0  0  0  0  0  0  0
  141.3917   71.7085  227.2438 H   0  0  0  0  0  0  0  0  0  0  0  0
  1  2  2  0
  2  3  1  0
  3  4  1  0
  4  5  1  0
  5  6  2  0
  5  7  1  0
  7  8  1  0
  8  9  1  0
  9 10  1  0
  9 11  1  0
 11 12  1  0
 12 13  1  0
 13 14  2  0
 13 15  1  0
 15 16  1  0
 16 17  1  0
 17 18  1  0
 18 19  1  0
 19 20  1  0
 20 21  1  0
 21 22  1  0
 22 23  2  0
 23 24  1  0
 24 25  2  0
 25 26  1  0
 26 27  2  0
  2 28  1  0
 28 29  2  0
 29 30  1  0
 30 31  2  0
 31 32  1  0
 32 33  2  0
 33 34  1  0
 33 35  1  0
 35 36  2  0
 36 37  1  0
 37 38  2  0
 12  7  1  0
 21 16  1  0
 27 22  1  0
 38 28  1  0
 37 31  1  0
  3 39  1  0
  4 40  1  0
  4 41  1  0
  8 42  1  0
  8 43  1  0
  9 44  1  6
 10 45  1  0
 11 46  1  0
 11 47  1  0
 12 48  1  1
 15 49  1  0
 16 50  1  6
 17 51  1  0
 17 52  1  0
 18 53  1  0
 18 54  1  0
 19 55  1  0
 19 56  1  0
 20 57  1  0
 20 58  1  0
 21 59  1  6
 23 60  1  0
 24 61  1  0
 25 62  1  0
 26 63  1  0
 27 64  1  0
 29 65  1  0
 30 66  1  0
 32 67  1  0
 35 68  1  0
 36 69  1  0
M  END
>  <smiles>  (29) 
O=C(NCC(=O)N1C[C@H](O)C[C@H]1C(=O)N[C@@H]1CCCC[C@H]1c1ccccc1)c1ccc2cc(F)ccc2n1

>  <score_type>  (29) 
oracle

>  <origin>  (29) 
autodockgpu

>  <m_score__min__energy>  (29) 
-10.26

>  <m_primary>  (29) 
energy

>  <rmsd>  (29) 
1.822599089796536

>  <m_score__min__rmsd>  (29) 
1.822599089796536

>  <meeko>  (29) 
{"free_energy": -9.14, "intermolecular_energy": -11.52, "internal_energy": -3.22, "cluster_size": 10, "cluster_id": 3, "rank_in_cluster": 5}

>  <energy>  (29) 
-8.54

>  <cluster_rmsd>  (29) 
0.66

>  <cluster>  (29) 
4

$$$$

     RDKit          3D

 69 73  0  0  0  0  0  0  0  0999 V2000
  143.0120   76.3990  217.8130 O   0  0  0  0  0  0  0  0  0  0  0  0
  142.7570   77.2270  218.7280 C   0  0  0  0  0  0  0  0  0  0  0  0
  142.8070   76.7130  220.0650 N   0  0  0  0  0  0  0  0  0  0  0  0
  143.1440   75.3120  220.2040 C   0  0  0  0  0  0  0  0  0  0  0  0
  142.0120   74.4160  219.8860 C   0  0  0  0  0  0  0  0  0  0  0  0
  142.0620   73.4980  219.0280 O   0  0  0  0  0  0  0  0  0  0  0  0
  140.8010   74.5970  220.5810 N   0  0  0  0  0  0  0  0  0  0  0  0
  140.3740   73.7850  221.6940 C   0  0  0  0  0  0  0  0  0  0  0  0
  138.9260   74.1290  221.9600 C   0  0  2  0  0  0  0  0  0  0  0  0
  138.1710   72.9720  222.1920 O   0  0  0  0  0  0  0  0  0  0  0  0
  138.4990   74.8130  220.6960 C   0  0  0  0  0  0  0  0  0  0  0  0
  139.7540   75.5970  220.3450 C   0  0  1  0  0  0  0  0  0  0  0  0
  139.9190   76.6490  221.4050 C   0  0  0  0  0  0  0  0  0  0  0  0
  140.9740   76.6580  222.1260 O   0  0  0  0  0  0  0  0  0  0  0  0
  138.8970   77.5930  221.5610 N   0  0  0  0  0  0  0  0  0  0  0  0
  138.9420   78.6640  222.5550 C   0  0  2  0  0  0  0  0  0  0  0  0
  137.5410   78.8100  223.0680 C   0  0  0  0  0  0  0  0  0  0  0  0
  137.2820   80.0590  223.8480 C   0  0  0  0  0  0  0  0  0  0  0  0
  137.7630   81.2930  223.1790 C   0  0  0  0  0  0  0  0  0  0  0  0
  138.6820   81.1090  222.0220 C   0  0  0  0  0  0  0  0  0  0  0  0
  139.5580   79.9100  222.0360 C   0  0  1  0  0  0  0  0  0  0  0  0
  140.8940   80.1820  222.6780 C   0  0  0  0  0  0  0  0  0  0  0  0
  141.0520   81.2540  223.5390 C   0  0  0  0  0  0  0  0  0  0  0  0
  142.2920   81.5040  224.1320 C   0  0  0  0  0  0  0  0  0  0  0  0
  143.3680   80.6690  223.8520 C   0  0  0  0  0  0  0  0  0  0  0  0
  143.2160   79.6040  222.9990 C   0  0  0  0  0  0  0  0  0  0  0  0
  141.9850   79.3700  222.4200 C   0  0  0  0  0  0  0  0  0  0  0  0
  142.4310   78.6170  218.4620 C   0  0  0  0  0  0  0  0  0  0  0  0
  142.4720   79.0420  217.1460 C   0  0  0  0  0  0  0  0  0  0  0  0
  142.1800   80.3400  216.7900 C   0  0  0  0  0  0  0  0  0  0  0  0
  141.8400   81.2260  217.7690 C   0  0  0  0  0  0  0  0  0  0  0  0
  141.5350   82.5510  217.4650 C   0  0  0  0  0  0  0  0  0  0  0  0
  141.1900   83.4620  218.4490 C   0  0  0  0  0  0  0  0  0  0  0  0
  140.9060   84.7280  218.0920 F   0  0  0  0  0  0  0  0  0  0  0  0
  141.1530   83.0230  219.7630 C   0  0  0  0  0  0  0  0  0  0  0  0
  141.4580   81.7060  220.0440 C   0  0  0  0  0  0  0  0  0  0  0  0
  141.8050   80.7840  219.0870 C   0  0  0  0  0  0  0  0  0  0  0  0
  142.0950   79.5050  219.4070 N   0  0  0  0  0  0  0  0  0  0  0  0
  142.6090   77.3340  220.8840 H   0  0  0  0  0  0  0  0  0  0  0  0
  143.9766   75.0816  219.5230 H   0  0  0  0  0  0  0  0  0  0  0  0
  143.4172   75.1399  221.2555 H   0  0  0  0  0  0  0  0  0  0  0  0
  140.4691   72.7184  221.4423 H   0  0  0  0  0  0  0  0  0  0  0  0
  140.9936   73.9780  222.5822 H   0  0  0  0  0  0  0  0  0  0  0  0
  138.7856   74.7545  222.8539 H   0  0  0  0  0  0  0  0  0  0  0  0
  137.9170   73.0310  223.1530 H   0  0  0  0  0  0  0  0  0  0  0  0
  138.2450   74.0861  219.9104 H   0  0  0  0  0  0  0  0  0  0  0  0
  137.5953   75.4313  220.8007 H   0  0  0  0  0  0  0  0  0  0  0  0
  139.7555   76.0509  219.3430 H   0  0  0  0  0  0  0  0  0  0  0  0
  138.0280   77.5830  220.9640 H   0  0  0  0  0  0  0  0  0  0  0  0
  139.6114   78.4151  223.3916 H   0  0  0  0  0  0  0  0  0  0  0  0
  136.8585   78.7984  222.2054 H   0  0  0  0  0  0  0  0  0  0  0  0
  137.3789   77.9733  223.7635 H   0  0  0  0  0  0  0  0  0  0  0  0
  136.1973   80.1505  224.0062 H   0  0  0  0  0  0  0  0  0  0  0  0
  137.8389   79.9685  224.7923 H   0  0  0  0  0  0  0  0  0  0  0  0
  136.8809   81.8437  222.8203 H   0  0  0  0  0  0  0  0  0  0  0  0
  138.3560   81.8227  223.9391 H   0  0  0  0  0  0  0  0  0  0  0  0
  138.0641   81.0570  221.1134 H   0  0  0  0  0  0  0  0  0  0  0  0
  139.3715   81.9648  222.0683 H   0  0  0  0  0  0  0  0  0  0  0  0
  139.7232   79.7037  220.9682 H   0  0  0  0  0  0  0  0  0  0  0  0
  140.1978   81.9118  223.7573 H   0  0  0  0  0  0  0  0  0  0  0  0
  142.4164   82.3562  224.8163 H   0  0  0  0  0  0  0  0  0  0  0  0
  144.3462   80.8627  224.3164 H   0  0  0  0  0  0  0  0  0  0  0  0
  144.0674   78.9432  222.7790 H   0  0  0  0  0  0  0  0  0  0  0  0
  141.8680   78.5164  221.7361 H   0  0  0  0  0  0  0  0  0  0  0  0
  142.7459   78.3219  216.3608 H   0  0  0  0  0  0  0  0  0  0  0  0
  142.2203   80.6556  215.7370 H   0  0  0  0  0  0  0  0  0  0  0  0
  141.5692   82.8819  216.4165 H   0  0  0  0  0  0  0  0  0  0  0  0
  140.8835   83.7163  220.5734 H   0  0  0  0  0  0  0  0  0  0  0  0
  141.4210   81.3768  221.0929 H   0  0  0  0  0  0  0  0  0  0  0  0
  1  2  2  0
  2  3  1  0
  3  4  1  0
  4  5  1  0
  5  6  2  0
  5  7  1  0
  7  8  1  0
  8  9  1  0
  9 10  1  0
  9 11  1  0
 11 12  1  0
 12 13  1  0
 13 14  2  0
 13 15  1  0
 15 16  1  0
 16 17  1  0
 17 18  1  0
 18 19  1  0
 19 20  1  0
 20 21  1  0
 21 22  1  0
 22 23  2  0
 23 24  1  0
 24 25  2  0
 25 26  1  0
 26 27  2  0
  2 28  1  0
 28 29  2  0
 29 30  1  0
 30 31  2  0
 31 32  1  0
 32 33  2  0
 33 34  1  0
 33 35  1  0
 35 36  2  0
 36 37  1  0
 37 38  2  0
 12  7  1  0
 21 16  1  0
 27 22  1  0
 38 28  1  0
 37 31  1  0
  3 39  1  0
  4 40  1  0
  4 41  1  0
  8 42  1  0
  8 43  1  0
  9 44  1  1
 10 45  1  0
 11 46  1  0
 11 47  1  0
 12 48  1  6
 15 49  1  0
 16 50  1  1
 17 51  1  0
 17 52  1  0
 18 53  1  0
 18 54  1  0
 19 55  1  0
 19 56  1  0
 20 57  1  0
 20 58  1  0
 21 59  1  6
 23 60  1  0
 24 61  1  0
 25 62  1  0
 26 63  1  0
 27 64  1  0
 29 65  1  0
 30 66  1  0
 32 67  1  0
 35 68  1  0
 36 69  1  0
M  END
>  <smiles>  (30) 
O=C(NCC(=O)N1C[C@H](O)C[C@H]1C(=O)N[C@@H]1CCCC[C@H]1c1ccccc1)c1ccc2cc(F)ccc2n1

>  <score_type>  (30) 
oracle

>  <origin>  (30) 
autodockgpu

>  <m_score__min__energy>  (30) 
-10.26

>  <m_primary>  (30) 
energy

>  <rmsd>  (30) 
8.728693885629363

>  <m_score__min__rmsd>  (30) 
8.728693885629363

>  <meeko>  (30) 
{"free_energy": -7.29, "intermolecular_energy": -9.68, "internal_energy": -4.54, "cluster_size": 2, "cluster_id": 10, "rank_in_cluster": 1}

>  <energy>  (30) 
-8.57

>  <cluster_rmsd>  (30) 
0.0

>  <cluster>  (30) 
5

$$$$

     RDKit          3D

 69 73  0  0  0  0  0  0  0  0999 V2000
  140.5860   73.7380  222.3450 O   0  0  0  0  0  0  0  0  0  0  0  0
  140.0600   72.5950  222.3030 C   0  0  0  0  0  0  0  0  0  0  0  0
  139.4930   72.2160  221.0420 N   0  0  0  0  0  0  0  0  0  0  0  0
  139.5940   73.1870  219.9730 C   0  0  0  0  0  0  0  0  0  0  0  0
  140.9300   73.2060  219.3410 C   0  0  0  0  0  0  0  0  0  0  0  0
  141.5040   72.1840  218.8820 O   0  0  0  0  0  0  0  0  0  0  0  0
  141.6070   74.4350  219.2440 N   0  0  0  0  0  0  0  0  0  0  0  0
  141.8100   75.1570  218.0120 C   0  0  0  0  0  0  0  0  0  0  0  0
  142.8000   76.2600  218.3050 C   0  0  2  0  0  0  0  0  0  0  0  0
  143.7560   76.3580  217.2850 O   0  0  0  0  0  0  0  0  0  0  0  0
  143.4260   75.8250  219.5960 C   0  0  0  0  0  0  0  0  0  0  0  0
  142.2290   75.2210  220.3160 C   0  0  1  0  0  0  0  0  0  0  0  0
  141.2880   76.3540  220.6180 C   0  0  0  0  0  0  0  0  0  0  0  0
  140.0340   76.1990  220.4310 O   0  0  0  0  0  0  0  0  0  0  0  0
  141.8310   77.5510  221.1010 N   0  0  0  0  0  0  0  0  0  0  0  0
  141.0210   78.7210  221.4310 C   0  0  2  0  0  0  0  0  0  0  0  0
  141.8470   79.9140  221.0580 C   0  0  0  0  0  0  0  0  0  0  0  0
  141.3600   81.2170  221.6070 C   0  0  0  0  0  0  0  0  0  0  0  0
  141.0600   81.1780  223.0610 C   0  0  0  0  0  0  0  0  0  0  0  0
  140.9810   79.8310  223.6890 C   0  0  0  0  0  0  0  0  0  0  0  0
  140.5270   78.7070  222.8300 C   0  0  1  0  0  0  0  0  0  0  0  0
  139.0350   78.5010  222.8940 C   0  0  0  0  0  0  0  0  0  0  0  0
  138.1920   79.5670  223.1560 C   0  0  0  0  0  0  0  0  0  0  0  0
  136.8100   79.3730  223.2160 C   0  0  0  0  0  0  0  0  0  0  0  0
  136.2850   78.1010  223.0100 C   0  0  0  0  0  0  0  0  0  0  0  0
  137.1180   77.0410  222.7500 C   0  0  0  0  0  0  0  0  0  0  0  0
  138.4820   77.2490  222.6950 C   0  0  0  0  0  0  0  0  0  0  0  0
  140.0200   71.7050  223.4510 C   0  0  0  0  0  0  0  0  0  0  0  0
  139.3900   70.4850  223.2910 C   0  0  0  0  0  0  0  0  0  0  0  0
  139.2990   69.5710  224.3180 C   0  0  0  0  0  0  0  0  0  0  0  0
  139.8500   69.8870  225.5240 C   0  0  0  0  0  0  0  0  0  0  0  0
  139.7880   69.0000  226.5970 C   0  0  0  0  0  0  0  0  0  0  0  0
  140.3430   69.3080  227.8290 C   0  0  0  0  0  0  0  0  0  0  0  0
  140.2490   68.4090  228.8260 F   0  0  0  0  0  0  0  0  0  0  0  0
  140.9720   70.5340  227.9740 C   0  0  0  0  0  0  0  0  0  0  0  0
  141.0230   71.3980  226.8980 C   0  0  0  0  0  0  0  0  0  0  0  0
  140.4800   71.1180  225.6690 C   0  0  0  0  0  0  0  0  0  0  0  0
  140.5550   71.9940  224.6450 N   0  0  0  0  0  0  0  0  0  0  0  0
  139.0360   71.2820  220.9210 H   0  0  0  0  0  0  0  0  0  0  0  0
  138.8453   72.9433  219.2049 H   0  0  0  0  0  0  0  0  0  0  0  0
  139.4206   74.1810  220.4109 H   0  0  0  0  0  0  0  0  0  0  0  0
  142.2122   74.4833  217.2411 H   0  0  0  0  0  0  0  0  0  0  0  0
  140.8615   75.5697  217.6378 H   0  0  0  0  0  0  0  0  0  0  0  0
  142.3348   77.2548  218.3685 H   0  0  0  0  0  0  0  0  0  0  0  0
  144.5890   75.9910  217.6900 H   0  0  0  0  0  0  0  0  0  0  0  0
  144.2156   75.0774  219.4294 H   0  0  0  0  0  0  0  0  0  0  0  0
  143.9257   76.6331  220.1503 H   0  0  0  0  0  0  0  0  0  0  0  0
  142.4692   74.6598  221.2311 H   0  0  0  0  0  0  0  0  0  0  0  0
  142.8670   77.6740  221.2540 H   0  0  0  0  0  0  0  0  0  0  0  0
  140.0802   78.7382  220.8613 H   0  0  0  0  0  0  0  0  0  0  0  0
  142.8701   79.7494  221.4269 H   0  0  0  0  0  0  0  0  0  0  0  0
  141.7858   79.9999  219.9631 H   0  0  0  0  0  0  0  0  0  0  0  0
  142.1345   81.9784  221.4326 H   0  0  0  0  0  0  0  0  0  0  0  0
  140.4173   81.4509  221.0906 H   0  0  0  0  0  0  0  0  0  0  0  0
  141.8488   81.7424  223.5798 H   0  0  0  0  0  0  0  0  0  0  0  0
  140.0508   81.6042  223.1606 H   0  0  0  0  0  0  0  0  0  0  0  0
  141.9856   79.5793  224.0598 H   0  0  0  0  0  0  0  0  0  0  0  0
  140.2074   79.9250  224.4653 H   0  0  0  0  0  0  0  0  0  0  0  0
  141.0163   77.8301  223.2791 H   0  0  0  0  0  0  0  0  0  0  0  0
  138.6119   80.5708  223.3176 H   0  0  0  0  0  0  0  0  0  0  0  0
  136.1408   80.2207  223.4248 H   0  0  0  0  0  0  0  0  0  0  0  0
  135.1972   77.9439  223.0557 H   0  0  0  0  0  0  0  0  0  0  0  0
  136.7027   76.0355  222.5870 H   0  0  0  0  0  0  0  0  0  0  0  0
  139.1459   76.3969  222.4876 H   0  0  0  0  0  0  0  0  0  0  0  0
  138.9482   70.2365  222.3147 H   0  0  0  0  0  0  0  0  0  0  0  0
  138.7922   68.6063  224.1678 H   0  0  0  0  0  0  0  0  0  0  0  0
  139.2857   68.0306  226.4627 H   0  0  0  0  0  0  0  0  0  0  0  0
  141.4257   70.8160  228.9356 H   0  0  0  0  0  0  0  0  0  0  0  0
  141.5276   72.3660  227.0336 H   0  0  0  0  0  0  0  0  0  0  0  0
  1  2  2  0
  2  3  1  0
  3  4  1  0
  4  5  1  0
  5  6  2  0
  5  7  1  0
  7  8  1  0
  8  9  1  0
  9 10  1  0
  9 11  1  0
 11 12  1  0
 12 13  1  0
 13 14  2  0
 13 15  1  0
 15 16  1  0
 16 17  1  0
 17 18  1  0
 18 19  1  0
 19 20  1  0
 20 21  1  0
 21 22  1  0
 22 23  2  0
 23 24  1  0
 24 25  2  0
 25 26  1  0
 26 27  2  0
  2 28  1  0
 28 29  2  0
 29 30  1  0
 30 31  2  0
 31 32  1  0
 32 33  2  0
 33 34  1  0
 33 35  1  0
 35 36  2  0
 36 37  1  0
 37 38  2  0
 12  7  1  0
 21 16  1  0
 27 22  1  0
 38 28  1  0
 37 31  1  0
  3 39  1  0
  4 40  1  0
  4 41  1  0
  8 42  1  0
  8 43  1  0
  9 44  1  1
 10 45  1  0
 11 46  1  0
 11 47  1  0
 12 48  1  1
 15 49  1  0
 16 50  1  6
 17 51  1  0
 17 52  1  0
 18 53  1  0
 18 54  1  0
 19 55  1  0
 19 56  1  0
 20 57  1  0
 20 58  1  0
 21 59  1  1
 23 60  1  0
 24 61  1  0
 25 62  1  0
 26 63  1  0
 27 64  1  0
 29 65  1  0
 30 66  1  0
 32 67  1  0
 35 68  1  0
 36 69  1  0
M  END
>  <smiles>  (31) 
O=C(NCC(=O)N1C[C@H](O)C[C@H]1C(=O)N[C@@H]1CCCC[C@H]1c1ccccc1)c1ccc2cc(F)ccc2n1

>  <score_type>  (31) 
oracle

>  <origin>  (31) 
autodockgpu

>  <m_score__min__energy>  (31) 
-10.26

>  <m_primary>  (31) 
energy

>  <rmsd>  (31) 
2.9283144966744654

>  <m_score__min__rmsd>  (31) 
2.9283144966744654

>  <meeko>  (31) 
{"free_energy": -9.77, "intermolecular_energy": -12.16, "internal_energy": -2.51, "cluster_size": 5, "cluster_id": 2, "rank_in_cluster": 1}

>  <energy>  (31) 
-8.51

>  <cluster_rmsd>  (31) 
0.86

>  <cluster>  (31) 
5

$$$$

     RDKit          3D

 69 73  0  0  0  0  0  0  0  0999 V2000
  139.3130   73.1410  221.5310 O   0  0  0  0  0  0  0  0  0  0  0  0
  140.2980   72.6220  222.1210 C   0  0  0  0  0  0  0  0  0  0  0  0
  141.5780   72.8540  221.5180 N   0  0  0  0  0  0  0  0  0  0  0  0
  141.5850   73.6520  220.3110 C   0  0  0  0  0  0  0  0  0  0  0  0
  141.7590   75.0960  220.5800 C   0  0  0  0  0  0  0  0  0  0  0  0
  142.8530   75.7060  220.4570 O   0  0  0  0  0  0  0  0  0  0  0  0
  140.6400   75.8380  221.0000 N   0  0  0  0  0  0  0  0  0  0  0  0
  140.0960   75.8030  222.3340 C   0  0  0  0  0  0  0  0  0  0  0  0
  138.7620   76.5130  222.2850 C   0  0  2  0  0  0  0  0  0  0  0  0
  137.7930   75.8080  223.0110 O   0  0  0  0  0  0  0  0  0  0  0  0
  138.4380   76.5320  220.8220 C   0  0  0  0  0  0  0  0  0  0  0  0
  139.8150   76.7650  220.2170 C   0  0  1  0  0  0  0  0  0  0  0  0
  140.2340   78.1520  220.6140 C   0  0  0  0  0  0  0  0  0  0  0  0
  139.4710   79.1410  220.3500 O   0  0  0  0  0  0  0  0  0  0  0  0
  141.4620   78.3070  221.2690 N   0  0  0  0  0  0  0  0  0  0  0  0
  141.9780   79.6030  221.7050 C   0  0  2  0  0  0  0  0  0  0  0  0
  142.9470   79.3110  222.8100 C   0  0  0  0  0  0  0  0  0  0  0  0
  143.3510   80.4970  223.6260 C   0  0  0  0  0  0  0  0  0  0  0  0
  142.2050   81.3200  224.0910 C   0  0  0  0  0  0  0  0  0  0  0  0
  140.8890   81.0520  223.4500 C   0  0  0  0  0  0  0  0  0  0  0  0
  140.9040   80.5690  222.0460 C   0  0  1  0  0  0  0  0  0  0  0  0
  140.8300   81.6970  221.0490 C   0  0  0  0  0  0  0  0  0  0  0  0
  140.1310   82.8520  221.3510 C   0  0  0  0  0  0  0  0  0  0  0  0
  140.0640   83.8960  220.4250 C   0  0  0  0  0  0  0  0  0  0  0  0
  140.7030   83.7670  219.1960 C   0  0  0  0  0  0  0  0  0  0  0  0
  141.3980   82.6230  218.8930 C   0  0  0  0  0  0  0  0  0  0  0  0
  141.4550   81.6000  219.8180 C   0  0  0  0  0  0  0  0  0  0  0  0
  140.1630   71.8370  223.3350 C   0  0  0  0  0  0  0  0  0  0  0  0
  139.3950   70.6890  223.2710 C   0  0  0  0  0  0  0  0  0  0  0  0
  139.2050   69.8760  224.3670 C   0  0  0  0  0  0  0  0  0  0  0  0
  139.7950   70.2210  225.5460 C   0  0  0  0  0  0  0  0  0  0  0  0
  139.6370   69.4350  226.6850 C   0  0  0  0  0  0  0  0  0  0  0  0
  140.2300   69.7730  227.8910 C   0  0  0  0  0  0  0  0  0  0  0  0
  140.0390   68.9740  228.9560 F   0  0  0  0  0  0  0  0  0  0  0  0
  140.9970   70.9270  227.9410 C   0  0  0  0  0  0  0  0  0  0  0  0
  141.1420   71.6910  226.8000 C   0  0  0  0  0  0  0  0  0  0  0  0
  140.5640   71.3780  225.5950 C   0  0  0  0  0  0  0  0  0  0  0  0
  140.7330   72.1560  224.5050 N   0  0  0  0  0  0  0  0  0  0  0  0
  142.4480   72.4590  221.9440 H   0  0  0  0  0  0  0  0  0  0  0  0
  142.4113   73.3119  219.6695 H   0  0  0  0  0  0  0  0  0  0  0  0
  140.6085   73.5214  219.8218 H   0  0  0  0  0  0  0  0  0  0  0  0
  139.9579   74.7611  222.6587 H   0  0  0  0  0  0  0  0  0  0  0  0
  140.7751   76.2914  223.0483 H   0  0  0  0  0  0  0  0  0  0  0  0
  138.7887   77.5183  222.7307 H   0  0  0  0  0  0  0  0  0  0  0  0
  138.0870   74.8580  222.9590 H   0  0  0  0  0  0  0  0  0  0  0  0
  138.0094   75.5743  220.4916 H   0  0  0  0  0  0  0  0  0  0  0  0
  137.6864   77.2825  220.5359 H   0  0  0  0  0  0  0  0  0  0  0  0
  139.8731   76.6387  219.1258 H   0  0  0  0  0  0  0  0  0  0  0  0
  142.0890   77.4870  221.4870 H   0  0  0  0  0  0  0  0  0  0  0  0
  142.5010   80.1270  220.8914 H   0  0  0  0  0  0  0  0  0  0  0  0
  142.4845   78.5748  223.4838 H   0  0  0  0  0  0  0  0  0  0  0  0
  143.8641   78.9442  222.3258 H   0  0  0  0  0  0  0  0  0  0  0  0
  143.9028   80.1400  224.5081 H   0  0  0  0  0  0  0  0  0  0  0  0
  143.9658   81.1389  222.9779 H   0  0  0  0  0  0  0  0  0  0  0  0
  142.0902   81.1518  225.1720 H   0  0  0  0  0  0  0  0  0  0  0  0
  142.4582   82.3536  223.8126 H   0  0  0  0  0  0  0  0  0  0  0  0
  140.3744   80.2918  224.0560 H   0  0  0  0  0  0  0  0  0  0  0  0
  140.3895   82.0312  223.4077 H   0  0  0  0  0  0  0  0  0  0  0  0
  139.9782   79.9798  221.9703 H   0  0  0  0  0  0  0  0  0  0  0  0
  139.6262   82.9487  222.3235 H   0  0  0  0  0  0  0  0  0  0  0  0
  139.5092   84.8147  220.6663 H   0  0  0  0  0  0  0  0  0  0  0  0
  140.6510   84.5860  218.4635 H   0  0  0  0  0  0  0  0  0  0  0  0
  141.9049   82.5222  217.9220 H   0  0  0  0  0  0  0  0  0  0  0  0
  142.0115   80.6841  219.5703 H   0  0  0  0  0  0  0  0  0  0  0  0
  138.9214   70.4166  222.3163 H   0  0  0  0  0  0  0  0  0  0  0  0
  138.5898   68.9672  224.2919 H   0  0  0  0  0  0  0  0  0  0  0  0
  139.0257   68.5224  226.6257 H   0  0  0  0  0  0  0  0  0  0  0  0
  141.4845   71.2305  228.8792 H   0  0  0  0  0  0  0  0  0  0  0  0
  141.7555   72.6021  226.8601 H   0  0  0  0  0  0  0  0  0  0  0  0
  1  2  2  0
  2  3  1  0
  3  4  1  0
  4  5  1  0
  5  6  2  0
  5  7  1  0
  7  8  1  0
  8  9  1  0
  9 10  1  0
  9 11  1  0
 11 12  1  0
 12 13  1  0
 13 14  2  0
 13 15  1  0
 15 16  1  0
 16 17  1  0
 17 18  1  0
 18 19  1  0
 19 20  1  0
 20 21  1  0
 21 22  1  0
 22 23  2  0
 23 24  1  0
 24 25  2  0
 25 26  1  0
 26 27  2  0
  2 28  1  0
 28 29  2  0
 29 30  1  0
 30 31  2  0
 31 32  1  0
 32 33  2  0
 33 34  1  0
 33 35  1  0
 35 36  2  0
 36 37  1  0
 37 38  2  0
 12  7  1  0
 21 16  1  0
 27 22  1  0
 38 28  1  0
 37 31  1  0
  3 39  1  0
  4 40  1  0
  4 41  1  0
  8 42  1  0
  8 43  1  0
  9 44  1  1
 10 45  1  0
 11 46  1  0
 11 47  1  0
 12 48  1  6
 15 49  1  0
 16 50  1  6
 17 51  1  0
 17 52  1  0
 18 53  1  0
 18 54  1  0
 19 55  1  0
 19 56  1  0
 20 57  1  0
 20 58  1  0
 21 59  1  1
 23 60  1  0
 24 61  1  0
 25 62  1  0
 26 63  1  0
 27 64  1  0
 29 65  1  0
 30 66  1  0
 32 67  1  0
 35 68  1  0
 36 69  1  0
M  END
>  <smiles>  (32) 
O=C(NCC(=O)N1C[C@H](O)C[C@H]1C(=O)N[C@@H]1CCCC[C@H]1c1ccccc1)c1ccc2cc(F)ccc2n1

>  <score_type>  (32) 
oracle

>  <origin>  (32) 
autodockgpu

>  <m_score__min__energy>  (32) 
-10.26

>  <m_primary>  (32) 
energy

>  <rmsd>  (32) 
2.535129336572746

>  <m_score__min__rmsd>  (32) 
2.535129336572746

>  <meeko>  (32) 
{"free_energy": -9.14, "intermolecular_energy": -11.53, "internal_energy": -3.35, "cluster_size": 10, "cluster_id": 3, "rank_in_cluster": 3}

>  <energy>  (32) 
-8.2

>  <cluster_rmsd>  (32) 
0.0

>  <cluster>  (32) 
6

$$$$

     RDKit          3D

 69 73  0  0  0  0  0  0  0  0999 V2000
  143.2470   75.9070  218.0680 O   0  0  0  0  0  0  0  0  0  0  0  0
  142.8180   76.7750  218.8740 C   0  0  0  0  0  0  0  0  0  0  0  0
  142.6640   76.3430  220.2320 N   0  0  0  0  0  0  0  0  0  0  0  0
  143.0190   74.9680  220.5130 C   0  0  0  0  0  0  0  0  0  0  0  0
  141.8800   74.0390  220.3590 C   0  0  0  0  0  0  0  0  0  0  0  0
  141.9620   72.9130  219.8030 O   0  0  0  0  0  0  0  0  0  0  0  0
  140.6250   74.4300  220.8610 N   0  0  0  0  0  0  0  0  0  0  0  0
  139.9210   73.7430  221.9150 C   0  0  0  0  0  0  0  0  0  0  0  0
  138.5210   74.3130  221.9540 C   0  0  2  0  0  0  0  0  0  0  0  0
  137.5700   73.2940  222.0980 O   0  0  0  0  0  0  0  0  0  0  0  0
  138.3920   74.9940  220.6250 C   0  0  0  0  0  0  0  0  0  0  0  0
  139.7910   75.5640  220.4480 C   0  0  1  0  0  0  0  0  0  0  0  0
  139.9630   76.6270  221.4960 C   0  0  0  0  0  0  0  0  0  0  0  0
  140.9810   76.5950  222.2660 O   0  0  0  0  0  0  0  0  0  0  0  0
  138.9860   77.6270  221.5860 N   0  0  0  0  0  0  0  0  0  0  0  0
  139.0420   78.7130  222.5620 C   0  0  2  0  0  0  0  0  0  0  0  0
  137.6440   78.8790  223.0760 C   0  0  0  0  0  0  0  0  0  0  0  0
  137.3970   80.1430  223.8370 C   0  0  0  0  0  0  0  0  0  0  0  0
  137.8860   81.3620  223.1450 C   0  0  0  0  0  0  0  0  0  0  0  0
  138.8010   81.1520  221.9890 C   0  0  0  0  0  0  0  0  0  0  0  0
  139.6670   79.9460  222.0210 C   0  0  1  0  0  0  0  0  0  0  0  0
  141.0070   80.2180  222.6550 C   0  0  0  0  0  0  0  0  0  0  0  0
  142.1010   79.4300  222.3430 C   0  0  0  0  0  0  0  0  0  0  0  0
  143.3430   79.6850  222.9320 C   0  0  0  0  0  0  0  0  0  0  0  0
  143.4720   80.7340  223.8360 C   0  0  0  0  0  0  0  0  0  0  0  0
  142.3890   81.5180  224.1490 C   0  0  0  0  0  0  0  0  0  0  0  0
  141.1690   81.2540  223.5580 C   0  0  0  0  0  0  0  0  0  0  0  0
  142.4940   78.1320  218.4700 C   0  0  0  0  0  0  0  0  0  0  0  0
  142.4850   78.4100  217.1150 C   0  0  0  0  0  0  0  0  0  0  0  0
  142.1910   79.6650  216.6290 C   0  0  0  0  0  0  0  0  0  0  0  0
  141.9010   80.6570  217.5180 C   0  0  0  0  0  0  0  0  0  0  0  0
  141.5960   81.9450  217.0820 C   0  0  0  0  0  0  0  0  0  0  0  0
  141.3000   82.9640  217.9730 C   0  0  0  0  0  0  0  0  0  0  0  0
  141.0140   84.1870  217.4900 F   0  0  0  0  0  0  0  0  0  0  0  0
  141.3130   82.6720  219.3280 C   0  0  0  0  0  0  0  0  0  0  0  0
  141.6170   81.3890  219.7390 C   0  0  0  0  0  0  0  0  0  0  0  0
  141.9150   80.3640  218.8770 C   0  0  0  0  0  0  0  0  0  0  0  0
  142.2060   79.1240  219.3240 N   0  0  0  0  0  0  0  0  0  0  0  0
  142.3130   77.0010  220.9660 H   0  0  0  0  0  0  0  0  0  0  0  0
  143.8175   74.6628  219.8207 H   0  0  0  0  0  0  0  0  0  0  0  0
  143.3469   74.9186  221.5618 H   0  0  0  0  0  0  0  0  0  0  0  0
  139.8841   72.6640  221.7042 H   0  0  0  0  0  0  0  0  0  0  0  0
  140.4285   73.8802  222.8812 H   0  0  0  0  0  0  0  0  0  0  0  0
  138.3523   74.9934  222.8017 H   0  0  0  0  0  0  0  0  0  0  0  0
  137.4710   73.1850  223.0830 H   0  0  0  0  0  0  0  0  0  0  0  0
  138.1446   74.2779  219.8275 H   0  0  0  0  0  0  0  0  0  0  0  0
  137.5894   75.7448  220.5785 H   0  0  0  0  0  0  0  0  0  0  0  0
  140.0074   75.9663  219.4473 H   0  0  0  0  0  0  0  0  0  0  0  0
  138.1480   77.6510  220.9480 H   0  0  0  0  0  0  0  0  0  0  0  0
  139.7114   78.4719  223.4009 H   0  0  0  0  0  0  0  0  0  0  0  0
  136.9592   78.8593  222.2154 H   0  0  0  0  0  0  0  0  0  0  0  0
  137.4770   78.0550  223.7854 H   0  0  0  0  0  0  0  0  0  0  0  0
  136.3136   80.2457  223.9972 H   0  0  0  0  0  0  0  0  0  0  0  0
  137.9555   80.0638  224.7813 H   0  0  0  0  0  0  0  0  0  0  0  0
  137.0071   81.9129  222.7789 H   0  0  0  0  0  0  0  0  0  0  0  0
  138.4852   81.8998  223.8945 H   0  0  0  0  0  0  0  0  0  0  0  0
  138.1808   81.0904  221.0826 H   0  0  0  0  0  0  0  0  0  0  0  0
  139.4975   82.0029  222.0196 H   0  0  0  0  0  0  0  0  0  0  0  0
  139.8275   79.7202  220.9564 H   0  0  0  0  0  0  0  0  0  0  0  0
  141.9930   78.6001  221.6291 H   0  0  0  0  0  0  0  0  0  0  0  0
  144.2128   79.0598  222.6820 H   0  0  0  0  0  0  0  0  0  0  0  0
  144.4471   80.9368  224.3029 H   0  0  0  0  0  0  0  0  0  0  0  0
  142.4921   82.3481  224.8634 H   0  0  0  0  0  0  0  0  0  0  0  0
  140.3035   81.8837  223.8117 H   0  0  0  0  0  0  0  0  0  0  0  0
  142.7198   77.6043  216.4038 H   0  0  0  0  0  0  0  0  0  0  0  0
  142.1902   79.8625  215.5469 H   0  0  0  0  0  0  0  0  0  0  0  0
  141.5901   82.1581  216.0029 H   0  0  0  0  0  0  0  0  0  0  0  0
  141.0838   83.4533  220.0676 H   0  0  0  0  0  0  0  0  0  0  0  0
  141.6204   81.1769  220.8184 H   0  0  0  0  0  0  0  0  0  0  0  0
  1  2  2  0
  2  3  1  0
  3  4  1  0
  4  5  1  0
  5  6  2  0
  5  7  1  0
  7  8  1  0
  8  9  1  0
  9 10  1  0
  9 11  1  0
 11 12  1  0
 12 13  1  0
 13 14  2  0
 13 15  1  0
 15 16  1  0
 16 17  1  0
 17 18  1  0
 18 19  1  0
 19 20  1  0
 20 21  1  0
 21 22  1  0
 22 23  2  0
 23 24  1  0
 24 25  2  0
 25 26  1  0
 26 27  2  0
  2 28  1  0
 28 29  2  0
 29 30  1  0
 30 31  2  0
 31 32  1  0
 32 33  2  0
 33 34  1  0
 33 35  1  0
 35 36  2  0
 36 37  1  0
 37 38  2  0
 12  7  1  0
 21 16  1  0
 27 22  1  0
 38 28  1  0
 37 31  1  0
  3 39  1  0
  4 40  1  0
  4 41  1  0
  8 42  1  0
  8 43  1  0
  9 44  1  1
 10 45  1  0
 11 46  1  0
 11 47  1  0
 12 48  1  6
 15 49  1  0
 16 50  1  1
 17 51  1  0
 17 52  1  0
 18 53  1  0
 18 54  1  0
 19 55  1  0
 19 56  1  0
 20 57  1  0
 20 58  1  0
 21 59  1  6
 23 60  1  0
 24 61  1  0
 25 62  1  0
 26 63  1  0
 27 64  1  0
 29 65  1  0
 30 66  1  0
 32 67  1  0
 35 68  1  0
 36 69  1  0
M  END
>  <smiles>  (33) 
O=C(NCC(=O)N1C[C@H](O)C[C@H]1C(=O)N[C@@H]1CCCC[C@H]1c1ccccc1)c1ccc2cc(F)ccc2n1

>  <score_type>  (33) 
oracle

>  <origin>  (33) 
autodockgpu

>  <m_score__min__energy>  (33) 
-10.26

>  <m_primary>  (33) 
energy

>  <rmsd>  (33) 
8.62440320114512

>  <m_score__min__rmsd>  (33) 
8.62440320114512

>  <meeko>  (33) 
{"free_energy": -7.19, "intermolecular_energy": -9.58, "internal_energy": -4.46, "cluster_size": 2, "cluster_id": 10, "rank_in_cluster": 2}

>  <energy>  (33) 
-8.1

>  <cluster_rmsd>  (33) 
0.66

>  <cluster>  (33) 
6

$$$$

     RDKit          3D

 69 73  0  0  0  0  0  0  0  0999 V2000
  140.7970   72.0780  221.3970 O   0  0  0  0  0  0  0  0  0  0  0  0
  140.0280   72.2690  222.3760 C   0  0  0  0  0  0  0  0  0  0  0  0
  139.1050   73.3570  222.2390 N   0  0  0  0  0  0  0  0  0  0  0  0
  139.1670   74.1010  220.9990 C   0  0  0  0  0  0  0  0  0  0  0  0
  139.1400   75.5650  221.2080 C   0  0  0  0  0  0  0  0  0  0  0  0
  138.1690   76.1840  221.7150 O   0  0  0  0  0  0  0  0  0  0  0  0
  140.2630   76.3170  220.8170 N   0  0  0  0  0  0  0  0  0  0  0  0
  141.0730   77.0960  221.7200 C   0  0  0  0  0  0  0  0  0  0  0  0
  141.9860   77.9490  220.8690 C   0  0  2  0  0  0  0  0  0  0  0  0
  142.0520   79.2580  221.3630 O   0  0  0  0  0  0  0  0  0  0  0  0
  141.3320   77.9090  219.5200 C   0  0  0  0  0  0  0  0  0  0  0  0
  140.8350   76.4720  219.4750 C   0  0  1  0  0  0  0  0  0  0  0  0
  142.0520   75.5930  219.4230 C   0  0  0  0  0  0  0  0  0  0  0  0
  143.0720   75.9670  218.7520 O   0  0  0  0  0  0  0  0  0  0  0  0
  142.0200   74.3810  220.1240 N   0  0  0  0  0  0  0  0  0  0  0  0
  143.1400   73.4420  220.1510 C   0  0  2  0  0  0  0  0  0  0  0  0
  144.2610   74.1570  220.8420 C   0  0  0  0  0  0  0  0  0  0  0  0
  145.6040   73.5170  220.6940 C   0  0  0  0  0  0  0  0  0  0  0  0
  145.9470   73.1640  219.2930 C   0  0  0  0  0  0  0  0  0  0  0  0
  144.8340   73.1980  218.3050 C   0  0  0  0  0  0  0  0  0  0  0  0
  143.4700   72.8970  218.8110 C   0  0  1  0  0  0  0  0  0  0  0  0
  143.1280   71.4320  218.7040 C   0  0  0  0  0  0  0  0  0  0  0  0
  143.2430   70.6050  219.8070 C   0  0  0  0  0  0  0  0  0  0  0  0
  142.9260   69.2480  219.7050 C   0  0  0  0  0  0  0  0  0  0  0  0
  142.4950   68.7330  218.4870 C   0  0  0  0  0  0  0  0  0  0  0  0
  142.3790   69.5510  217.3900 C   0  0  0  0  0  0  0  0  0  0  0  0
  142.6960   70.8890  217.5070 C   0  0  0  0  0  0  0  0  0  0  0  0
  140.0610   71.4480  223.5740 C   0  0  0  0  0  0  0  0  0  0  0  0
  139.5790   70.1560  223.4760 C   0  0  0  0  0  0  0  0  0  0  0  0
  139.5670   69.2990  224.5550 C   0  0  0  0  0  0  0  0  0  0  0  0
  140.0470   69.7460  225.7500 C   0  0  0  0  0  0  0  0  0  0  0  0
  140.0580   68.9220  226.8730 C   0  0  0  0  0  0  0  0  0  0  0  0
  140.5420   69.3630  228.0950 C   0  0  0  0  0  0  0  0  0  0  0  0
  140.5260   68.5190  229.1430 F   0  0  0  0  0  0  0  0  0  0  0  0
  141.0210   70.6600  228.1780 C   0  0  0  0  0  0  0  0  0  0  0  0
  141.0020   71.4610  227.0530 C   0  0  0  0  0  0  0  0  0  0  0  0
  140.5270   71.0480  225.8330 C   0  0  0  0  0  0  0  0  0  0  0  0
  140.5270   71.8660  224.7590 N   0  0  0  0  0  0  0  0  0  0  0  0
  138.4300   73.5850  223.0060 H   0  0  0  0  0  0  0  0  0  0  0  0
  140.0987   73.8375  220.4770 H   0  0  0  0  0  0  0  0  0  0  0  0
  138.2789   73.8341  220.4074 H   0  0  0  0  0  0  0  0  0  0  0  0
  140.4331   77.7354  222.3458 H   0  0  0  0  0  0  0  0  0  0  0  0
  141.6544   76.4440  222.3884 H   0  0  0  0  0  0  0  0  0  0  0  0
  143.0254   77.5893  220.8521 H   0  0  0  0  0  0  0  0  0  0  0  0
  143.0150   79.3920  221.5800 H   0  0  0  0  0  0  0  0  0  0  0  0
  140.5000   78.6255  219.4540 H   0  0  0  0  0  0  0  0  0  0  0  0
  141.9969   78.1830  218.6877 H   0  0  0  0  0  0  0  0  0  0  0  0
  140.1526   76.2401  218.6440 H   0  0  0  0  0  0  0  0  0  0  0  0
  141.1760   74.0760  220.6780 H   0  0  0  0  0  0  0  0  0  0  0  0
  142.8917   72.5280  220.7105 H   0  0  0  0  0  0  0  0  0  0  0  0
  144.3211   75.1755  220.4309 H   0  0  0  0  0  0  0  0  0  0  0  0
  144.0254   74.1332  221.9162 H   0  0  0  0  0  0  0  0  0  0  0  0
  146.3649   74.2155  221.0722 H   0  0  0  0  0  0  0  0  0  0  0  0
  145.5762   72.5768  221.2643 H   0  0  0  0  0  0  0  0  0  0  0  0
  146.7187   73.8692  218.9506 H   0  0  0  0  0  0  0  0  0  0  0  0
  146.2700   72.1131  219.3297 H   0  0  0  0  0  0  0  0  0  0  0  0
  144.8099   74.2070  217.8677 H   0  0  0  0  0  0  0  0  0  0  0  0
  145.0591   72.3884  217.5951 H   0  0  0  0  0  0  0  0  0  0  0  0
  142.8163   73.4566  218.1258 H   0  0  0  0  0  0  0  0  0  0  0  0
  143.5852   71.0172  220.7677 H   0  0  0  0  0  0  0  0  0  0  0  0
  143.0167   68.5910  220.5826 H   0  0  0  0  0  0  0  0  0  0  0  0
  142.2458   67.6650  218.4020 H   0  0  0  0  0  0  0  0  0  0  0  0
  142.0367   69.1436  216.4273 H   0  0  0  0  0  0  0  0  0  0  0  0
  142.6028   71.5407  216.6258 H   0  0  0  0  0  0  0  0  0  0  0  0
  139.1938   69.8018  222.5085 H   0  0  0  0  0  0  0  0  0  0  0  0
  139.1780   68.2750  224.4541 H   0  0  0  0  0  0  0  0  0  0  0  0
  139.6728   67.8951  226.7881 H   0  0  0  0  0  0  0  0  0  0  0  0
  141.4124   71.0480  229.1299 H   0  0  0  0  0  0  0  0  0  0  0  0
  141.3890   72.4870  227.1394 H   0  0  0  0  0  0  0  0  0  0  0  0
  1  2  2  0
  2  3  1  0
  3  4  1  0
  4  5  1  0
  5  6  2  0
  5  7  1  0
  7  8  1  0
  8  9  1  0
  9 10  1  0
  9 11  1  0
 11 12  1  0
 12 13  1  0
 13 14  2  0
 13 15  1  0
 15 16  1  0
 16 17  1  0
 17 18  1  0
 18 19  1  0
 19 20  1  0
 20 21  1  0
 21 22  1  0
 22 23  2  0
 23 24  1  0
 24 25  2  0
 25 26  1  0
 26 27  2  0
  2 28  1  0
 28 29  2  0
 29 30  1  0
 30 31  2  0
 31 32  1  0
 32 33  2  0
 33 34  1  0
 33 35  1  0
 35 36  2  0
 36 37  1  0
 37 38  2  0
 12  7  1  0
 21 16  1  0
 27 22  1  0
 38 28  1  0
 37 31  1  0
  3 39  1  0
  4 40  1  0
  4 41  1  0
  8 42  1  0
  8 43  1  0
  9 44  1  6
 10 45  1  0
 11 46  1  0
 11 47  1  0
 12 48  1  6
 15 49  1  0
 16 50  1  1
 17 51  1  0
 17 52  1  0
 18 53  1  0
 18 54  1  0
 19 55  1  0
 19 56  1  0
 20 57  1  0
 20 58  1  0
 21 59  1  6
 23 60  1  0
 24 61  1  0
 25 62  1  0
 26 63  1  0
 27 64  1  0
 29 65  1  0
 30 66  1  0
 32 67  1  0
 35 68  1  0
 36 69  1  0
M  END
>  <smiles>  (34) 
O=C(NCC(=O)N1C[C@H](O)C[C@H]1C(=O)N[C@@H]1CCCC[C@H]1c1ccccc1)c1ccc2cc(F)ccc2n1

>  <score_type>  (34) 
oracle

>  <origin>  (34) 
autodockgpu

>  <m_score__min__energy>  (34) 
-10.26

>  <m_primary>  (34) 
energy

>  <rmsd>  (34) 
5.940242330956533

>  <m_score__min__rmsd>  (34) 
5.940242330956533

>  <meeko>  (34) 
{"free_energy": -8.2, "intermolecular_energy": -10.59, "internal_energy": -3.43, "cluster_size": 2, "cluster_id": 6, "rank_in_cluster": 1}

>  <energy>  (34) 
-8.07

>  <cluster_rmsd>  (34) 
0.0

>  <cluster>  (34) 
7

$$$$

     RDKit          3D

 69 73  0  0  0  0  0  0  0  0999 V2000
  140.3260   72.9800  222.5600 O   0  0  0  0  0  0  0  0  0  0  0  0
  140.1170   73.9030  221.7290 C   0  0  0  0  0  0  0  0  0  0  0  0
  140.1590   73.5200  220.3490 N   0  0  0  0  0  0  0  0  0  0  0  0
  140.4340   72.1250  220.0760 C   0  0  0  0  0  0  0  0  0  0  0  0
  141.8740   71.7980  220.1580 C   0  0  0  0  0  0  0  0  0  0  0  0
  142.3210   70.6950  220.5660 O   0  0  0  0  0  0  0  0  0  0  0  0
  142.8050   72.7750  219.7580 N   0  0  0  0  0  0  0  0  0  0  0  0
  143.7030   72.6310  218.6390 C   0  0  0  0  0  0  0  0  0  0  0  0
  144.7000   73.7630  218.7260 C   0  0  2  0  0  0  0  0  0  0  0  0
  146.0000   73.3060  218.4680 O   0  0  0  0  0  0  0  0  0  0  0  0
  144.5610   74.2330  220.1420 C   0  0  0  0  0  0  0  0  0  0  0  0
  143.0620   74.0900  220.3550 C   0  0  1  0  0  0  0  0  0  0  0  0
  142.3970   75.1020  219.4660 C   0  0  0  0  0  0  0  0  0  0  0  0
  141.7980   74.7140  218.4070 O   0  0  0  0  0  0  0  0  0  0  0  0
  142.4620   76.4500  219.8390 N   0  0  0  0  0  0  0  0  0  0  0  0
  141.8560   77.5260  219.0580 C   0  0  2  0  0  0  0  0  0  0  0  0
  142.9640   78.1200  218.2430 C   0  0  0  0  0  0  0  0  0  0  0  0
  142.6510   79.4420  217.6170 C   0  0  0  0  0  0  0  0  0  0  0  0
  142.0620   80.4250  218.5620 C   0  0  0  0  0  0  0  0  0  0  0  0
  141.5880   79.8940  219.8690 C   0  0  0  0  0  0  0  0  0  0  0  0
  141.0980   78.4920  219.8920 C   0  0  1  0  0  0  0  0  0  0  0  0
  139.6140   78.3970  219.6480 C   0  0  0  0  0  0  0  0  0  0  0  0
  138.7980   79.4930  219.8670 C   0  0  0  0  0  0  0  0  0  0  0  0
  137.4220   79.4030  219.6400 C   0  0  0  0  0  0  0  0  0  0  0  0
  136.8770   78.2040  219.1930 C   0  0  0  0  0  0  0  0  0  0  0  0
  137.6830   77.1140  218.9750 C   0  0  0  0  0  0  0  0  0  0  0  0
  139.0400   77.2190  219.2040 C   0  0  0  0  0  0  0  0  0  0  0  0
  139.8500   75.2740  222.1280 C   0  0  0  0  0  0  0  0  0  0  0  0
  138.5270   75.6690  222.2090 C   0  0  0  0  0  0  0  0  0  0  0  0
  138.1690   76.9480  222.5780 C   0  0  0  0  0  0  0  0  0  0  0  0
  139.1540   77.8430  222.8690 C   0  0  0  0  0  0  0  0  0  0  0  0
  138.8490   79.1490  223.2470 C   0  0  0  0  0  0  0  0  0  0  0  0
  139.8400   80.0710  223.5460 C   0  0  0  0  0  0  0  0  0  0  0  0
  139.4810   81.3170  223.9050 F   0  0  0  0  0  0  0  0  0  0  0  0
  141.1610   79.6610  223.4590 C   0  0  0  0  0  0  0  0  0  0  0  0
  141.4420   78.3630  223.0830 C   0  0  0  0  0  0  0  0  0  0  0  0
  140.4800   77.4320  222.7820 C   0  0  0  0  0  0  0  0  0  0  0  0
  140.8010   76.1720  222.4180 N   0  0  0  0  0  0  0  0  0  0  0  0
  139.9960   74.2250  219.5930 H   0  0  0  0  0  0  0  0  0  0  0  0
  139.8916   71.5099  220.8091 H   0  0  0  0  0  0  0  0  0  0  0  0
  140.1055   71.9179  219.0468 H   0  0  0  0  0  0  0  0  0  0  0  0
  144.2237   71.6636  218.6942 H   0  0  0  0  0  0  0  0  0  0  0  0
  143.1531   72.6637  217.6869 H   0  0  0  0  0  0  0  0  0  0  0  0
  144.5172   74.5598  217.9900 H   0  0  0  0  0  0  0  0  0  0  0  0
  146.5490   74.1350  218.4190 H   0  0  0  0  0  0  0  0  0  0  0  0
  145.1293   73.5960  220.8358 H   0  0  0  0  0  0  0  0  0  0  0  0
  144.9477   75.2471  220.3211 H   0  0  0  0  0  0  0  0  0  0  0  0
  142.7259   74.2077  221.3958 H   0  0  0  0  0  0  0  0  0  0  0  0
  142.9580   76.7660  220.7140 H   0  0  0  0  0  0  0  0  0  0  0  0
  141.0723   77.1475  218.3853 H   0  0  0  0  0  0  0  0  0  0  0  0
  143.8372   78.2515  218.8990 H   0  0  0  0  0  0  0  0  0  0  0  0
  143.1424   77.4215  217.4122 H   0  0  0  0  0  0  0  0  0  0  0  0
  143.5828   79.8642  217.2126 H   0  0  0  0  0  0  0  0  0  0  0  0
  141.8999   79.2578  216.8348 H   0  0  0  0  0  0  0  0  0  0  0  0
  142.8271   81.1875  218.7697 H   0  0  0  0  0  0  0  0  0  0  0  0
  141.1599   80.8044  218.0597 H   0  0  0  0  0  0  0  0  0  0  0  0
  142.4256   79.9640  220.5786 H   0  0  0  0  0  0  0  0  0  0  0  0
  140.7105   80.5064  220.1237 H   0  0  0  0  0  0  0  0  0  0  0  0
  141.2995   78.1707  220.9245 H   0  0  0  0  0  0  0  0  0  0  0  0
  139.2342   80.4387  220.2211 H   0  0  0  0  0  0  0  0  0  0  0  0
  136.7741   80.2748  219.8137 H   0  0  0  0  0  0  0  0  0  0  0  0
  135.7944   78.1286  219.0131 H   0  0  0  0  0  0  0  0  0  0  0  0
  137.2513   76.1661  218.6212 H   0  0  0  0  0  0  0  0  0  0  0  0
  139.6820   76.3431  219.0289 H   0  0  0  0  0  0  0  0  0  0  0  0
  137.7371   74.9410  221.9720 H   0  0  0  0  0  0  0  0  0  0  0  0
  137.1100   77.2399  222.6363 H   0  0  0  0  0  0  0  0  0  0  0  0
  137.7947   79.4563  223.3097 H   0  0  0  0  0  0  0  0  0  0  0  0
  141.9769   80.3626  223.6872 H   0  0  0  0  0  0  0  0  0  0  0  0
  142.4969   78.0576  223.0211 H   0  0  0  0  0  0  0  0  0  0  0  0
  1  2  2  0
  2  3  1  0
  3  4  1  0
  4  5  1  0
  5  6  2  0
  5  7  1  0
  7  8  1  0
  8  9  1  0
  9 10  1  0
  9 11  1  0
 11 12  1  0
 12 13  1  0
 13 14  2  0
 13 15  1  0
 15 16  1  0
 16 17  1  0
 17 18  1  0
 18 19  1  0
 19 20  1  0
 20 21  1  0
 21 22  1  0
 22 23  2  0
 23 24  1  0
 24 25  2  0
 25 26  1  0
 26 27  2  0
  2 28  1  0
 28 29  2  0
 29 30  1  0
 30 31  2  0
 31 32  1  0
 32 33  2  0
 33 34  1  0
 33 35  1  0
 35 36  2  0
 36 37  1  0
 37 38  2  0
 12  7  1  0
 21 16  1  0
 27 22  1  0
 38 28  1  0
 37 31  1  0
  3 39  1  0
  4 40  1  0
  4 41  1  0
  8 42  1  0
  8 43  1  0
  9 44  1  6
 10 45  1  0
 11 46  1  0
 11 47  1  0
 12 48  1  1
 15 49  1  0
 16 50  1  6
 17 51  1  0
 17 52  1  0
 18 53  1  0
 18 54  1  0
 19 55  1  0
 19 56  1  0
 20 57  1  0
 20 58  1  0
 21 59  1  1
 23 60  1  0
 24 61  1  0
 25 62  1  0
 26 63  1  0
 27 64  1  0
 29 65  1  0
 30 66  1  0
 32 67  1  0
 35 68  1  0
 36 69  1  0
M  END
>  <smiles>  (35) 
O=C(NCC(=O)N1C[C@H](O)C[C@H]1C(=O)N[C@@H]1CCCC[C@H]1c1ccccc1)c1ccc2cc(F)ccc2n1

>  <score_type>  (35) 
oracle

>  <origin>  (35) 
autodockgpu

>  <m_score__min__energy>  (35) 
-10.26

>  <m_primary>  (35) 
energy

>  <rmsd>  (35) 
6.304787535925487

>  <m_score__min__rmsd>  (35) 
6.304787535925487

>  <meeko>  (35) 
{"free_energy": -6.94, "intermolecular_energy": -9.33, "internal_energy": -5.25, "cluster_size": 12, "cluster_id": 9, "rank_in_cluster": 10}

>  <energy>  (35) 
-7.96

>  <cluster_rmsd>  (35) 
0.0

>  <cluster>  (35) 
8

$$$$

     RDKit          3D

 69 73  0  0  0  0  0  0  0  0999 V2000
  140.3070   72.9600  222.5760 O   0  0  0  0  0  0  0  0  0  0  0  0
  140.1530   73.8750  221.7240 C   0  0  0  0  0  0  0  0  0  0  0  0
  140.2050   73.4640  220.3520 N   0  0  0  0  0  0  0  0  0  0  0  0
  140.4260   72.0530  220.1110 C   0  0  0  0  0  0  0  0  0  0  0  0
  141.8590   71.6900  220.1090 C   0  0  0  0  0  0  0  0  0  0  0  0
  142.2890   70.5290  220.3330 O   0  0  0  0  0  0  0  0  0  0  0  0
  142.8040   72.6980  219.8420 N   0  0  0  0  0  0  0  0  0  0  0  0
  143.8420   72.5970  218.8470 C   0  0  0  0  0  0  0  0  0  0  0  0
  144.7860   73.7550  219.0740 C   0  0  2  0  0  0  0  0  0  0  0  0
  146.1200   73.3380  218.9800 O   0  0  0  0  0  0  0  0  0  0  0  0
  144.4520   74.2000  220.4660 C   0  0  0  0  0  0  0  0  0  0  0  0
  142.9420   74.0110  220.4830 C   0  0  1  0  0  0  0  0  0  0  0  0
  142.3680   75.0170  219.5260 C   0  0  0  0  0  0  0  0  0  0  0  0
  141.9530   74.6330  218.3810 O   0  0  0  0  0  0  0  0  0  0  0  0
  142.3080   76.3560  219.9340 N   0  0  0  0  0  0  0  0  0  0  0  0
  141.7710   77.4250  219.0950 C   0  0  2  0  0  0  0  0  0  0  0  0
  142.9330   77.9600  218.3150 C   0  0  0  0  0  0  0  0  0  0  0  0
  142.6890   79.2700  217.6370 C   0  0  0  0  0  0  0  0  0  0  0  0
  142.0900   80.3000  218.5240 C   0  0  0  0  0  0  0  0  0  0  0  0
  141.5410   79.8230  219.8230 C   0  0  0  0  0  0  0  0  0  0  0  0
  141.0070   78.4370  219.8660 C   0  0  1  0  0  0  0  0  0  0  0  0
  139.5330   78.3790  219.5570 C   0  0  0  0  0  0  0  0  0  0  0  0
  138.7360   79.4960  219.7390 C   0  0  0  0  0  0  0  0  0  0  0  0
  137.3700   79.4400  219.4510 C   0  0  0  0  0  0  0  0  0  0  0  0
  136.8150   78.2540  218.9820 C   0  0  0  0  0  0  0  0  0  0  0  0
  137.6020   77.1440  218.8000 C   0  0  0  0  0  0  0  0  0  0  0  0
  138.9500   77.2150  219.0880 C   0  0  0  0  0  0  0  0  0  0  0  0
  139.9360   75.2640  222.0920 C   0  0  0  0  0  0  0  0  0  0  0  0
  138.6310   75.7180  222.1290 C   0  0  0  0  0  0  0  0  0  0  0  0
  138.3200   77.0180  222.4660 C   0  0  0  0  0  0  0  0  0  0  0  0
  139.3360   77.8740  222.7700 C   0  0  0  0  0  0  0  0  0  0  0  0
  139.0790   79.1980  223.1180 C   0  0  0  0  0  0  0  0  0  0  0  0
  140.1020   80.0800  223.4290 C   0  0  0  0  0  0  0  0  0  0  0  0
  139.7890   81.3480  223.7570 F   0  0  0  0  0  0  0  0  0  0  0  0
  141.4050   79.6110  223.3870 C   0  0  0  0  0  0  0  0  0  0  0  0
  141.6380   78.2950  223.0410 C   0  0  0  0  0  0  0  0  0  0  0  0
  140.6440   77.4020  222.7280 C   0  0  0  0  0  0  0  0  0  0  0  0
  140.9190   76.1230  222.3950 N   0  0  0  0  0  0  0  0  0  0  0  0
  140.0860   74.1600  219.5800 H   0  0  0  0  0  0  0  0  0  0  0  0
  139.9188   71.4780  220.8998 H   0  0  0  0  0  0  0  0  0  0  0  0
  140.0239   71.8203  219.1139 H   0  0  0  0  0  0  0  0  0  0  0  0
  144.3799   71.6439  218.9577 H   0  0  0  0  0  0  0  0  0  0  0  0
  143.4178   72.6295  217.8326 H   0  0  0  0  0  0  0  0  0  0  0  0
  144.6763   74.5576  218.3299 H   0  0  0  0  0  0  0  0  0  0  0  0
  146.5890   74.1040  218.5500 H   0  0  0  0  0  0  0  0  0  0  0  0
  144.9456   73.5694  221.2201 H   0  0  0  0  0  0  0  0  0  0  0  0
  144.7816   75.2220  220.7043 H   0  0  0  0  0  0  0  0  0  0  0  0
  142.4711   74.1031  221.4728 H   0  0  0  0  0  0  0  0  0  0  0  0
  142.6510   76.6680  220.8810 H   0  0  0  0  0  0  0  0  0  0  0  0
  141.0068   77.0510  218.3978 H   0  0  0  0  0  0  0  0  0  0  0  0
  143.7792   78.0859  219.0064 H   0  0  0  0  0  0  0  0  0  0  0  0
  143.1280   77.2310  217.5146 H   0  0  0  0  0  0  0  0  0  0  0  0
  143.6503   79.6512  217.2622 H   0  0  0  0  0  0  0  0  0  0  0  0
  141.9670   79.0834  216.8284 H   0  0  0  0  0  0  0  0  0  0  0  0
  142.8690   81.0448  218.7442 H   0  0  0  0  0  0  0  0  0  0  0  0
  141.2246   80.6924  217.9698 H   0  0  0  0  0  0  0  0  0  0  0  0
  142.3476   79.8903  220.5679 H   0  0  0  0  0  0  0  0  0  0  0  0
  140.6717   80.4682  220.0178 H   0  0  0  0  0  0  0  0  0  0  0  0
  141.1516   78.1412  220.9156 H   0  0  0  0  0  0  0  0  0  0  0  0
  139.1797   80.4310  220.1117 H   0  0  0  0  0  0  0  0  0  0  0  0
  136.7373   80.3284  219.5943 H   0  0  0  0  0  0  0  0  0  0  0  0
  135.7396   78.2052  218.7557 H   0  0  0  0  0  0  0  0  0  0  0  0
  137.1624   76.2067  218.4281 H   0  0  0  0  0  0  0  0  0  0  0  0
  139.5770   76.3233  218.9409 H   0  0  0  0  0  0  0  0  0  0  0  0
  137.8164   75.0212  221.8822 H   0  0  0  0  0  0  0  0  0  0  0  0
  137.2739   77.3573  222.4891 H   0  0  0  0  0  0  0  0  0  0  0  0
  138.0381   79.5525  223.1467 H   0  0  0  0  0  0  0  0  0  0  0  0
  142.2447   80.2799  223.6267 H   0  0  0  0  0  0  0  0  0  0  0  0
  142.6795   77.9421  223.0147 H   0  0  0  0  0  0  0  0  0  0  0  0
  1  2  2  0
  2  3  1  0
  3  4  1  0
  4  5  1  0
  5  6  2  0
  5  7  1  0
  7  8  1  0
  8  9  1  0
  9 10  1  0
  9 11  1  0
 11 12  1  0
 12 13  1  0
 13 14  2  0
 13 15  1  0
 15 16  1  0
 16 17  1  0
 17 18  1  0
 18 19  1  0
 19 20  1  0
 20 21  1  0
 21 22  1  0
 22 23  2  0
 23 24  1  0
 24 25  2  0
 25 26  1  0
 26 27  2  0
  2 28  1  0
 28 29  2  0
 29 30  1  0
 30 31  2  0
 31 32  1  0
 32 33  2  0
 33 34  1  0
 33 35  1  0
 35 36  2  0
 36 37  1  0
 37 38  2  0
 12  7  1  0
 21 16  1  0
 27 22  1  0
 38 28  1  0
 37 31  1  0
  3 39  1  0
  4 40  1  0
  4 41  1  0
  8 42  1  0
  8 43  1  0
  9 44  1  6
 10 45  1  0
 11 46  1  0
 11 47  1  0
 12 48  1  1
 15 49  1  0
 16 50  1  6
 17 51  1  0
 17 52  1  0
 18 53  1  0
 18 54  1  0
 19 55  1  0
 19 56  1  0
 20 57  1  0
 20 58  1  0
 21 59  1  1
 23 60  1  0
 24 61  1  0
 25 62  1  0
 26 63  1  0
 27 64  1  0
 29 65  1  0
 30 66  1  0
 32 67  1  0
 35 68  1  0
 36 69  1  0
M  END
>  <smiles>  (36) 
O=C(NCC(=O)N1C[C@H](O)C[C@H]1C(=O)N[C@@H]1CCCC[C@H]1c1ccccc1)c1ccc2cc(F)ccc2n1

>  <score_type>  (36) 
oracle

>  <origin>  (36) 
autodockgpu

>  <m_score__min__energy>  (36) 
-10.26

>  <m_primary>  (36) 
energy

>  <rmsd>  (36) 
6.35073525009996

>  <m_score__min__rmsd>  (36) 
6.35073525009996

>  <meeko>  (36) 
{"free_energy": -7.16, "intermolecular_energy": -9.55, "internal_energy": -5.23, "cluster_size": 12, "cluster_id": 9, "rank_in_cluster": 9}

>  <energy>  (36) 
-7.67

>  <cluster_rmsd>  (36) 
0.0

>  <cluster>  (36) 
9

$$$$

     RDKit          3D

 69 73  0  0  0  0  0  0  0  0999 V2000
  138.5450   72.3750  222.0410 O   0  0  0  0  0  0  0  0  0  0  0  0
  139.6420   72.2280  222.6430 C   0  0  0  0  0  0  0  0  0  0  0  0
  140.7450   72.9790  222.1200 N   0  0  0  0  0  0  0  0  0  0  0  0
  140.4680   73.8130  220.9690 C   0  0  0  0  0  0  0  0  0  0  0  0
  140.8040   75.2340  221.1980 C   0  0  0  0  0  0  0  0  0  0  0  0
  141.1720   75.6990  222.3080 O   0  0  0  0  0  0  0  0  0  0  0  0
  140.7090   76.1270  220.1140 N   0  0  0  0  0  0  0  0  0  0  0  0
  139.4770   76.7140  219.6500 C   0  0  0  0  0  0  0  0  0  0  0  0
  139.7760   77.3760  218.3250 C   0  0  2  0  0  0  0  0  0  0  0  0
  138.7650   77.1070  217.3920 O   0  0  0  0  0  0  0  0  0  0  0  0
  141.0750   76.7500  217.9140 C   0  0  0  0  0  0  0  0  0  0  0  0
  141.7840   76.6360  219.2550 C   0  0  1  0  0  0  0  0  0  0  0  0
  142.0730   78.0380  219.7140 C   0  0  0  0  0  0  0  0  0  0  0  0
  142.4150   78.9230  218.8600 O   0  0  0  0  0  0  0  0  0  0  0  0
  141.9510   78.3220  221.0800 N   0  0  0  0  0  0  0  0  0  0  0  0
  142.2040   79.6450  221.6470 C   0  0  2  0  0  0  0  0  0  0  0  0
  142.9290   79.4090  222.9370 C   0  0  0  0  0  0  0  0  0  0  0  0
  143.0000   80.5940  223.8470 C   0  0  0  0  0  0  0  0  0  0  0  0
  141.6930   81.2660  224.0560 C   0  0  0  0  0  0  0  0  0  0  0  0
  140.5920   80.8880  223.1280 C   0  0  0  0  0  0  0  0  0  0  0  0
  140.9770   80.4730  221.7550 C   0  0  1  0  0  0  0  0  0  0  0  0
  140.9980   81.6300  220.7890 C   0  0  0  0  0  0  0  0  0  0  0  0
  141.4020   81.4420  219.4790 C   0  0  0  0  0  0  0  0  0  0  0  0
  141.4200   82.5160  218.5870 C   0  0  0  0  0  0  0  0  0  0  0  0
  141.0300   83.7780  219.0230 C   0  0  0  0  0  0  0  0  0  0  0  0
  140.6280   83.9700  220.3210 C   0  0  0  0  0  0  0  0  0  0  0  0
  140.6150   82.8980  221.1920 C   0  0  0  0  0  0  0  0  0  0  0  0
  139.7970   71.3570  223.7950 C   0  0  0  0  0  0  0  0  0  0  0  0
  139.3870   70.0430  223.6610 C   0  0  0  0  0  0  0  0  0  0  0  0
  139.4910   69.1370  224.6940 C   0  0  0  0  0  0  0  0  0  0  0  0
  140.0150   69.5580  225.8800 C   0  0  0  0  0  0  0  0  0  0  0  0
  140.1430   68.6850  226.9590 C   0  0  0  0  0  0  0  0  0  0  0  0
  140.6730   69.0980  228.1700 C   0  0  0  0  0  0  0  0  0  0  0  0
  140.7710   68.2060  229.1740 F   0  0  0  0  0  0  0  0  0  0  0  0
  141.0790   70.4170  228.2910 C   0  0  0  0  0  0  0  0  0  0  0  0
  140.9440   71.2660  227.2100 C   0  0  0  0  0  0  0  0  0  0  0  0
  140.4210   70.8820  226.0000 C   0  0  0  0  0  0  0  0  0  0  0  0
  140.3080   71.7470  224.9700 N   0  0  0  0  0  0  0  0  0  0  0  0
  141.6920   72.9160  222.5600 H   0  0  0  0  0  0  0  0  0  0  0  0
  141.0591   73.4448  220.1176 H   0  0  0  0  0  0  0  0  0  0  0  0
  139.3876   73.7557  220.7704 H   0  0  0  0  0  0  0  0  0  0  0  0
  138.7125   75.9340  219.5188 H   0  0  0  0  0  0  0  0  0  0  0  0
  139.0917   77.4447  220.3764 H   0  0  0  0  0  0  0  0  0  0  0  0
  139.8312   78.4726  218.3908 H   0  0  0  0  0  0  0  0  0  0  0  0
  139.1290   77.4450  216.5290 H   0  0  0  0  0  0  0  0  0  0  0  0
  140.9194   75.7626  217.4548 H   0  0  0  0  0  0  0  0  0  0  0  0
  141.6315   77.3202  217.1556 H   0  0  0  0  0  0  0  0  0  0  0  0
  142.7036   76.0324  219.2465 H   0  0  0  0  0  0  0  0  0  0  0  0
  141.6680   77.5880  221.7820 H   0  0  0  0  0  0  0  0  0  0  0  0
  142.8312   80.2587  220.9837 H   0  0  0  0  0  0  0  0  0  0  0  0
  142.4162   78.5969  223.4733 H   0  0  0  0  0  0  0  0  0  0  0  0
  143.9672   79.1657  222.6667 H   0  0  0  0  0  0  0  0  0  0  0  0
  143.3783   80.2591  224.8241 H   0  0  0  0  0  0  0  0  0  0  0  0
  143.6652   81.3274  223.3678 H   0  0  0  0  0  0  0  0  0  0  0  0
  141.3601   81.0371  225.0791 H   0  0  0  0  0  0  0  0  0  0  0  0
  141.8815   82.3323  223.8625 H   0  0  0  0  0  0  0  0  0  0  0  0
  140.0452   80.0507  223.5862 H   0  0  0  0  0  0  0  0  0  0  0  0
  140.0050   81.8084  222.9930 H   0  0  0  0  0  0  0  0  0  0  0  0
  140.1659   79.7907  221.4608 H   0  0  0  0  0  0  0  0  0  0  0  0
  141.7102   80.4423  219.1390 H   0  0  0  0  0  0  0  0  0  0  0  0
  141.7407   82.3650  217.5457 H   0  0  0  0  0  0  0  0  0  0  0  0
  141.0439   84.6268  218.3235 H   0  0  0  0  0  0  0  0  0  0  0  0
  140.3190   84.9682  220.6646 H   0  0  0  0  0  0  0  0  0  0  0  0
  140.2923   83.0557  222.2317 H   0  0  0  0  0  0  0  0  0  0  0  0
  138.9651   69.7111  222.7008 H   0  0  0  0  0  0  0  0  0  0  0  0
  139.1584   68.0965  224.5644 H   0  0  0  0  0  0  0  0  0  0  0  0
  139.8147   67.6413  226.8458 H   0  0  0  0  0  0  0  0  0  0  0  0
  141.5039   70.7838  229.2370 H   0  0  0  0  0  0  0  0  0  0  0  0
  141.2742   72.3089  227.3250 H   0  0  0  0  0  0  0  0  0  0  0  0
  1  2  2  0
  2  3  1  0
  3  4  1  0
  4  5  1  0
  5  6  2  0
  5  7  1  0
  7  8  1  0
  8  9  1  0
  9 10  1  0
  9 11  1  0
 11 12  1  0
 12 13  1  0
 13 14  2  0
 13 15  1  0
 15 16  1  0
 16 17  1  0
 17 18  1  0
 18 19  1  0
 19 20  1  0
 20 21  1  0
 21 22  1  0
 22 23  2  0
 23 24  1  0
 24 25  2  0
 25 26  1  0
 26 27  2  0
  2 28  1  0
 28 29  2  0
 29 30  1  0
 30 31  2  0
 31 32  1  0
 32 33  2  0
 33 34  1  0
 33 35  1  0
 35 36  2  0
 36 37  1  0
 37 38  2  0
 12  7  1  0
 21 16  1  0
 27 22  1  0
 38 28  1  0
 37 31  1  0
  3 39  1  0
  4 40  1  0
  4 41  1  0
  8 42  1  0
  8 43  1  0
  9 44  1  1
 10 45  1  0
 11 46  1  0
 11 47  1  0
 12 48  1  6
 15 49  1  0
 16 50  1  6
 17 51  1  0
 17 52  1  0
 18 53  1  0
 18 54  1  0
 19 55  1  0
 19 56  1  0
 20 57  1  0
 20 58  1  0
 21 59  1  6
 23 60  1  0
 24 61  1  0
 25 62  1  0
 26 63  1  0
 27 64  1  0
 29 65  1  0
 30 66  1  0
 32 67  1  0
 35 68  1  0
 36 69  1  0
M  END
>  <smiles>  (37) 
O=C(NCC(=O)N1C[C@H](O)C[C@H]1C(=O)N[C@@H]1CCCC[C@H]1c1ccccc1)c1ccc2cc(F)ccc2n1

>  <score_type>  (37) 
oracle

>  <origin>  (37) 
autodockgpu

>  <m_score__min__energy>  (37) 
-10.26

>  <m_primary>  (37) 
energy

>  <rmsd>  (37) 
2.0519056668707294

>  <m_score__min__rmsd>  (37) 
2.0519056668707294

>  <meeko>  (37) 
{"free_energy": -8.65, "intermolecular_energy": -11.04, "internal_energy": -3.03, "cluster_size": 10, "cluster_id": 3, "rank_in_cluster": 9}

>  <energy>  (37) 
-7.53

>  <cluster_rmsd>  (37) 
0.7

>  <cluster>  (37) 
9

$$$$

     RDKit          3D

 69 73  0  0  0  0  0  0  0  0999 V2000
  140.6430   73.3060  222.2930 O   0  0  0  0  0  0  0  0  0  0  0  0
  140.3930   72.0730  222.3630 C   0  0  0  0  0  0  0  0  0  0  0  0
  140.3390   71.3760  221.1120 N   0  0  0  0  0  0  0  0  0  0  0  0
  140.5790   72.1680  219.9230 C   0  0  0  0  0  0  0  0  0  0  0  0
  141.8350   71.8020  219.2360 C   0  0  0  0  0  0  0  0  0  0  0  0
  141.9880   70.7470  218.5670 O   0  0  0  0  0  0  0  0  0  0  0  0
  142.9300   72.6800  219.3310 N   0  0  0  0  0  0  0  0  0  0  0  0
  143.8010   73.0160  218.2320 C   0  0  0  0  0  0  0  0  0  0  0  0
  144.9840   73.7540  218.8160 C   0  0  2  0  0  0  0  0  0  0  0  0
  146.1840   73.3070  218.2470 O   0  0  0  0  0  0  0  0  0  0  0  0
  144.9140   73.4130  220.2740 C   0  0  0  0  0  0  0  0  0  0  0  0
  143.4110   73.4150  220.5070 C   0  0  1  0  0  0  0  0  0  0  0  0
  142.9480   74.8360  220.3430 C   0  0  0  0  0  0  0  0  0  0  0  0
  143.8100   75.7640  220.1780 O   0  0  0  0  0  0  0  0  0  0  0  0
  141.5710   75.0880  220.3760 N   0  0  0  0  0  0  0  0  0  0  0  0
  141.0000   76.4250  220.2280 C   0  0  2  0  0  0  0  0  0  0  0  0
  141.7220   77.0580  219.0780 C   0  0  0  0  0  0  0  0  0  0  0  0
  141.5370   78.5360  218.9520 C   0  0  0  0  0  0  0  0  0  0  0  0
  141.7520   79.2760  220.2210 C   0  0  0  0  0  0  0  0  0  0  0  0
  141.8080   78.4610  221.4660 C   0  0  0  0  0  0  0  0  0  0  0  0
  141.0160   77.2050  221.4900 C   0  0  1  0  0  0  0  0  0  0  0  0
  139.6270   77.4120  222.0380 C   0  0  0  0  0  0  0  0  0  0  0  0
  138.7790   76.3330  222.2190 C   0  0  0  0  0  0  0  0  0  0  0  0
  137.4920   76.5280  222.7270 C   0  0  0  0  0  0  0  0  0  0  0  0
  137.0670   77.8130  223.0490 C   0  0  0  0  0  0  0  0  0  0  0  0
  137.9060   78.8850  222.8710 C   0  0  0  0  0  0  0  0  0  0  0  0
  139.1750   78.6770  222.3680 C   0  0  0  0  0  0  0  0  0  0  0  0
  140.1700   71.3860  223.6240 C   0  0  0  0  0  0  0  0  0  0  0  0
  139.4460   70.2090  223.5900 C   0  0  0  0  0  0  0  0  0  0  0  0
  139.1800   69.4830  224.7310 C   0  0  0  0  0  0  0  0  0  0  0  0
  139.6490   69.9480  225.9240 C   0  0  0  0  0  0  0  0  0  0  0  0
  139.4090   69.2540  227.1080 C   0  0  0  0  0  0  0  0  0  0  0  0
  139.8780   69.7140  228.3280 C   0  0  0  0  0  0  0  0  0  0  0  0
  139.6140   68.9990  229.4370 F   0  0  0  0  0  0  0  0  0  0  0  0
  140.6020   70.8960  228.3470 C   0  0  0  0  0  0  0  0  0  0  0  0
  140.8290   71.5680  227.1620 C   0  0  0  0  0  0  0  0  0  0  0  0
  140.3740   71.1340  225.9420 C   0  0  0  0  0  0  0  0  0  0  0  0
  140.6200   71.8240  224.8080 N   0  0  0  0  0  0  0  0  0  0  0  0
  140.1370   70.3500  221.0800 H   0  0  0  0  0  0  0  0  0  0  0  0
  139.7409   72.0191  219.2263 H   0  0  0  0  0  0  0  0  0  0  0  0
  140.6667   73.2187  220.2366 H   0  0  0  0  0  0  0  0  0  0  0  0
  144.1396   72.1006  217.7247 H   0  0  0  0  0  0  0  0  0  0  0  0
  143.2768   73.6378  217.4913 H   0  0  0  0  0  0  0  0  0  0  0  0
  144.9556   74.8373  218.6272 H   0  0  0  0  0  0  0  0  0  0  0  0
  146.7200   74.1360  218.1180 H   0  0  0  0  0  0  0  0  0  0  0  0
  145.3521   72.4249  220.4782 H   0  0  0  0  0  0  0  0  0  0  0  0
  145.4724   74.1012  220.9256 H   0  0  0  0  0  0  0  0  0  0  0  0
  143.0891   73.0105  221.4779 H   0  0  0  0  0  0  0  0  0  0  0  0
  140.8630   74.3190  220.5110 H   0  0  0  0  0  0  0  0  0  0  0  0
  139.9239   76.3844  220.0036 H   0  0  0  0  0  0  0  0  0  0  0  0
  142.7969   76.8577  219.1982 H   0  0  0  0  0  0  0  0  0  0  0  0
  141.2945   76.6159  218.1660 H   0  0  0  0  0  0  0  0  0  0  0  0
  142.2515   78.9127  218.2053 H   0  0  0  0  0  0  0  0  0  0  0  0
  140.4912   78.7044  218.6556 H   0  0  0  0  0  0  0  0  0  0  0  0
  142.7050   79.8184  220.1339 H   0  0  0  0  0  0  0  0  0  0  0  0
  140.8675   79.9199  220.3350 H   0  0  0  0  0  0  0  0  0  0  0  0
  142.8606   78.1921  221.6387 H   0  0  0  0  0  0  0  0  0  0  0  0
  141.3563   79.0965  222.2420 H   0  0  0  0  0  0  0  0  0  0  0  0
  141.5726   76.5669  222.1922 H   0  0  0  0  0  0  0  0  0  0  0  0
  139.1193   75.3190  221.9621 H   0  0  0  0  0  0  0  0  0  0  0  0
  136.8186   75.6703  222.8715 H   0  0  0  0  0  0  0  0  0  0  0  0
  136.0541   77.9708  223.4480 H   0  0  0  0  0  0  0  0  0  0  0  0
  137.5702   79.9008  223.1269 H   0  0  0  0  0  0  0  0  0  0  0  0
  139.8434   79.5390  222.2261 H   0  0  0  0  0  0  0  0  0  0  0  0
  139.0710   69.8408  222.6236 H   0  0  0  0  0  0  0  0  0  0  0  0
  138.6018   68.5486  224.6803 H   0  0  0  0  0  0  0  0  0  0  0  0
  138.8328   68.3176  227.0734 H   0  0  0  0  0  0  0  0  0  0  0  0
  140.9914   71.2943  229.2955 H   0  0  0  0  0  0  0  0  0  0  0  0
  141.4068   72.5034  227.1979 H   0  0  0  0  0  0  0  0  0  0  0  0
  1  2  2  0
  2  3  1  0
  3  4  1  0
  4  5  1  0
  5  6  2  0
  5  7  1  0
  7  8  1  0
  8  9  1  0
  9 10  1  0
  9 11  1  0
 11 12  1  0
 12 13  1  0
 13 14  2  0
 13 15  1  0
 15 16  1  0
 16 17  1  0
 17 18  1  0
 18 19  1  0
 19 20  1  0
 20 21  1  0
 21 22  1  0
 22 23  2  0
 23 24  1  0
 24 25  2  0
 25 26  1  0
 26 27  2  0
  2 28  1  0
 28 29  2  0
 29 30  1  0
 30 31  2  0
 31 32  1  0
 32 33  2  0
 33 34  1  0
 33 35  1  0
 35 36  2  0
 36 37  1  0
 37 38  2  0
 12  7  1  0
 21 16  1  0
 27 22  1  0
 38 28  1  0
 37 31  1  0
  3 39  1  0
  4 40  1  0
  4 41  1  0
  8 42  1  0
  8 43  1  0
  9 44  1  1
 10 45  1  0
 11 46  1  0
 11 47  1  0
 12 48  1  1
 15 49  1  0
 16 50  1  6
 17 51  1  0
 17 52  1  0
 18 53  1  0
 18 54  1  0
 19 55  1  0
 19 56  1  0
 20 57  1  0
 20 58  1  0
 21 59  1  1
 23 60  1  0
 24 61  1  0
 25 62  1  0
 26 63  1  0
 27 64  1  0
 29 65  1  0
 30 66  1  0
 32 67  1  0
 35 68  1  0
 36 69  1  0
M  END
>  <smiles>  (38) 
O=C(NCC(=O)N1C[C@H](O)C[C@H]1C(=O)N[C@@H]1CCCC[C@H]1c1ccccc1)c1ccc2cc(F)ccc2n1

>  <score_type>  (38) 
oracle

>  <origin>  (38) 
autodockgpu

>  <m_score__min__energy>  (38) 
-10.26

>  <m_primary>  (38) 
energy

>  <rmsd>  (38) 
4.18093843669961

>  <m_score__min__rmsd>  (38) 
4.18093843669961

>  <meeko>  (38) 
{"free_energy": -9.2, "intermolecular_energy": -11.59, "internal_energy": -3.03, "cluster_size": 11, "cluster_id": 1, "rank_in_cluster": 5}

>  <energy>  (38) 
-7.37

>  <cluster_rmsd>  (38) 
0.94

>  <cluster>  (38) 
9

$$$$

     RDKit          3D

 69 73  0  0  0  0  0  0  0  0999 V2000
  140.3290   73.5360  222.3440 O   0  0  0  0  0  0  0  0  0  0  0  0
  140.1300   72.2920  222.3160 C   0  0  0  0  0  0  0  0  0  0  0  0
  139.8950   71.7280  221.0190 N   0  0  0  0  0  0  0  0  0  0  0  0
  139.9150   72.6500  219.9030 C   0  0  0  0  0  0  0  0  0  0  0  0
  141.2650   72.8220  219.3260 C   0  0  0  0  0  0  0  0  0  0  0  0
  142.1000   71.8880  219.2040 O   0  0  0  0  0  0  0  0  0  0  0  0
  141.6460   74.1030  218.8850 N   0  0  0  0  0  0  0  0  0  0  0  0
  140.9690   74.8410  217.8480 C   0  0  0  0  0  0  0  0  0  0  0  0
  141.8480   76.0200  217.5010 C   0  0  2  0  0  0  0  0  0  0  0  0
  141.9210   76.1970  216.1130 O   0  0  0  0  0  0  0  0  0  0  0  0
  143.1790   75.6340  218.0700 C   0  0  0  0  0  0  0  0  0  0  0  0
  142.7600   74.9340  219.3540 C   0  0  1  0  0  0  0  0  0  0  0  0
  142.1640   75.9860  220.2470 C   0  0  0  0  0  0  0  0  0  0  0  0
  142.7500   77.1140  220.3710 O   0  0  0  0  0  0  0  0  0  0  0  0
  140.9720   75.6830  220.9170 N   0  0  0  0  0  0  0  0  0  0  0  0
  140.2960   76.6220  221.8100 C   0  0  2  0  0  0  0  0  0  0  0  0
  138.9490   76.0290  222.0890 C   0  0  0  0  0  0  0  0  0  0  0  0
  137.9630   76.9650  222.7120 C   0  0  0  0  0  0  0  0  0  0  0  0
  137.8640   78.2750  222.0200 C   0  0  0  0  0  0  0  0  0  0  0  0
  138.9360   78.5920  221.0360 C   0  0  0  0  0  0  0  0  0  0  0  0
  140.2790   78.0100  221.2860 C   0  0  1  0  0  0  0  0  0  0  0  0
  141.1590   78.9250  222.0980 C   0  0  0  0  0  0  0  0  0  0  0  0
  141.7640   80.0200  221.5070 C   0  0  0  0  0  0  0  0  0  0  0  0
  142.5800   80.8670  222.2620 C   0  0  0  0  0  0  0  0  0  0  0  0
  142.7820   80.6010  223.6120 C   0  0  0  0  0  0  0  0  0  0  0  0
  142.1840   79.5150  224.2030 C   0  0  0  0  0  0  0  0  0  0  0  0
  141.3810   78.6880  223.4440 C   0  0  0  0  0  0  0  0  0  0  0  0
  140.1360   71.4670  223.5120 C   0  0  0  0  0  0  0  0  0  0  0  0
  139.6050   70.1950  223.4120 C   0  0  0  0  0  0  0  0  0  0  0  0
  139.5630   69.3360  224.4890 C   0  0  0  0  0  0  0  0  0  0  0  0
  140.0630   69.7610  225.6840 C   0  0  0  0  0  0  0  0  0  0  0  0
  140.0470   68.9340  226.8050 C   0  0  0  0  0  0  0  0  0  0  0  0
  140.5500   69.3530  228.0260 C   0  0  0  0  0  0  0  0  0  0  0  0
  140.5060   68.5080  229.0720 F   0  0  0  0  0  0  0  0  0  0  0  0
  141.0800   70.6310  228.1100 C   0  0  0  0  0  0  0  0  0  0  0  0
  141.0870   71.4350  226.9880 C   0  0  0  0  0  0  0  0  0  0  0  0
  140.5930   71.0440  225.7680 C   0  0  0  0  0  0  0  0  0  0  0  0
  140.6210   71.8640  224.6960 N   0  0  0  0  0  0  0  0  0  0  0  0
  139.7220   70.7020  220.9060 H   0  0  0  0  0  0  0  0  0  0  0  0
  139.2440   72.2680  219.1195 H   0  0  0  0  0  0  0  0  0  0  0  0
  139.5877   73.6310  220.2780 H   0  0  0  0  0  0  0  0  0  0  0  0
  140.8247   74.2037  216.9631 H   0  0  0  0  0  0  0  0  0  0  0  0
  139.9777   75.1761  218.1871 H   0  0  0  0  0  0  0  0  0  0  0  0
  141.4725   76.9739  217.8999 H   0  0  0  0  0  0  0  0  0  0  0  0
  142.5480   75.4870  215.8050 H   0  0  0  0  0  0  0  0  0  0  0  0
  143.7222   74.9529  217.3984 H   0  0  0  0  0  0  0  0  0  0  0  0
  143.8676   76.4785  218.2204 H   0  0  0  0  0  0  0  0  0  0  0  0
  143.5638   74.3922  219.8740 H   0  0  0  0  0  0  0  0  0  0  0  0
  140.4910   74.7510  220.8110 H   0  0  0  0  0  0  0  0  0  0  0  0
  140.8415   76.7472  222.7569 H   0  0  0  0  0  0  0  0  0  0  0  0
  138.5283   75.6746  221.1364 H   0  0  0  0  0  0  0  0  0  0  0  0
  139.1131   75.2240  222.8204 H   0  0  0  0  0  0  0  0  0  0  0  0
  136.9722   76.4875  222.6949 H   0  0  0  0  0  0  0  0  0  0  0  0
  138.3138   77.1674  223.7347 H   0  0  0  0  0  0  0  0  0  0  0  0
  136.9029   78.2983  221.4855 H   0  0  0  0  0  0  0  0  0  0  0  0
  137.9657   79.0304  222.8131 H   0  0  0  0  0  0  0  0  0  0  0  0
  138.5983   78.2348  220.0519 H   0  0  0  0  0  0  0  0  0  0  0  0
  139.0792   79.6799  221.1127 H   0  0  0  0  0  0  0  0  0  0  0  0
  140.7096   77.9213  220.2777 H   0  0  0  0  0  0  0  0  0  0  0  0
  141.6021   80.2248  220.4384 H   0  0  0  0  0  0  0  0  0  0  0  0
  143.0593   81.7382  221.7916 H   0  0  0  0  0  0  0  0  0  0  0  0
  143.4244   81.2642  224.2099 H   0  0  0  0  0  0  0  0  0  0  0  0
  142.3436   79.3063  225.2712 H   0  0  0  0  0  0  0  0  0  0  0  0
  140.9051   77.8183  223.9206 H   0  0  0  0  0  0  0  0  0  0  0  0
  139.2041   69.8583  222.4446 H   0  0  0  0  0  0  0  0  0  0  0  0
  139.1348   68.3280  224.3865 H   0  0  0  0  0  0  0  0  0  0  0  0
  139.6241   67.9222  226.7184 H   0  0  0  0  0  0  0  0  0  0  0  0
  141.4908   71.0007  229.0611 H   0  0  0  0  0  0  0  0  0  0  0  0
  141.5122   72.4457  227.0762 H   0  0  0  0  0  0  0  0  0  0  0  0
  1  2  2  0
  2  3  1  0
  3  4  1  0
  4  5  1  0
  5  6  2  0
  5  7  1  0
  7  8  1  0
  8  9  1  0
  9 10  1  0
  9 11  1  0
 11 12  1  0
 12 13  1  0
 13 14  2  0
 13 15  1  0
 15 16  1  0
 16 17  1  0
 17 18  1  0
 18 19  1  0
 19 20  1  0
 20 21  1  0
 21 22  1  0
 22 23  2  0
 23 24  1  0
 24 25  2  0
 25 26  1  0
 26 27  2  0
  2 28  1  0
 28 29  2  0
 29 30  1  0
 30 31  2  0
 31 32  1  0
 32 33  2  0
 33 34  1  0
 33 35  1  0
 35 36  2  0
 36 37  1  0
 37 38  2  0
 12  7  1  0
 21 16  1  0
 27 22  1  0
 38 28  1  0
 37 31  1  0
  3 39  1  0
  4 40  1  0
  4 41  1  0
  8 42  1  0
  8 43  1  0
  9 44  1  1
 10 45  1  0
 11 46  1  0
 11 47  1  0
 12 48  1  1
 15 49  1  0
 16 50  1  1
 17 51  1  0
 17 52  1  0
 18 53  1  0
 18 54  1  0
 19 55  1  0
 19 56  1  0
 20 57  1  0
 20 58  1  0
 21 59  1  6
 23 60  1  0
 24 61  1  0
 25 62  1  0
 26 63  1  0
 27 64  1  0
 29 65  1  0
 30 66  1  0
 32 67  1  0
 35 68  1  0
 36 69  1  0
M  END
>  <smiles>  (39) 
O=C(NCC(=O)N1C[C@H](O)C[C@H]1C(=O)N[C@@H]1CCCC[C@H]1c1ccccc1)c1ccc2cc(F)ccc2n1

>  <score_type>  (39) 
oracle

>  <origin>  (39) 
autodockgpu

>  <m_score__min__energy>  (39) 
-10.26

>  <m_primary>  (39) 
energy

>  <rmsd>  (39) 
3.0358646944540735

>  <m_score__min__rmsd>  (39) 
3.0358646944540735

>  <meeko>  (39) 
{"free_energy": -8.84, "intermolecular_energy": -11.23, "internal_energy": -3.33, "cluster_size": 11, "cluster_id": 1, "rank_in_cluster": 11}

>  <energy>  (39) 
-7.28

>  <cluster_rmsd>  (39) 
1.53

>  <cluster>  (39) 
9

$$$$

     RDKit          3D

 69 73  0  0  0  0  0  0  0  0999 V2000
  139.5390   74.3690  220.7400 O   0  0  0  0  0  0  0  0  0  0  0  0
  140.0580   75.3320  221.3640 C   0  0  0  0  0  0  0  0  0  0  0  0
  141.4760   75.2560  221.5590 N   0  0  0  0  0  0  0  0  0  0  0  0
  142.1380   74.0880  221.0180 C   0  0  0  0  0  0  0  0  0  0  0  0
  143.1680   74.4290  220.0140 C   0  0  0  0  0  0  0  0  0  0  0  0
  144.3930   74.1700  220.1480 O   0  0  0  0  0  0  0  0  0  0  0  0
  142.7640   75.0820  218.8350 N   0  0  0  0  0  0  0  0  0  0  0  0
  141.5610   74.7690  218.1040 C   0  0  0  0  0  0  0  0  0  0  0  0
  141.6470   75.4960  216.7820 C   0  0  2  0  0  0  0  0  0  0  0  0
  141.2380   74.6680  215.7280 O   0  0  0  0  0  0  0  0  0  0  0  0
  143.1020   75.8370  216.6720 C   0  0  0  0  0  0  0  0  0  0  0  0
  143.4370   76.1710  218.1180 C   0  0  1  0  0  0  0  0  0  0  0  0
  142.6920   77.4320  218.4560 C   0  0  0  0  0  0  0  0  0  0  0  0
  142.8880   78.4850  217.7620 O   0  0  0  0  0  0  0  0  0  0  0  0
  141.7990   77.4000  219.5350 N   0  0  0  0  0  0  0  0  0  0  0  0
  141.0180   78.5600  219.9600 C   0  0  2  0  0  0  0  0  0  0  0  0
  139.8260   78.6090  219.0530 C   0  0  0  0  0  0  0  0  0  0  0  0
  139.0600   79.8930  219.0860 C   0  0  0  0  0  0  0  0  0  0  0  0
  139.9130   81.1010  218.9530 C   0  0  0  0  0  0  0  0  0  0  0  0
  141.3790   80.9030  219.1170 C   0  0  0  0  0  0  0  0  0  0  0  0
  141.8190   79.8080  220.0180 C   0  0  1  0  0  0  0  0  0  0  0  0
  142.0200   80.2760  221.4370 C   0  0  0  0  0  0  0  0  0  0  0  0
  142.5870   79.4350  222.3780 C   0  0  0  0  0  0  0  0  0  0  0  0
  142.7720   79.8720  223.6920 C   0  0  0  0  0  0  0  0  0  0  0  0
  142.3830   81.1590  224.0490 C   0  0  0  0  0  0  0  0  0  0  0  0
  141.8210   81.9970  223.1190 C   0  0  0  0  0  0  0  0  0  0  0  0
  141.6440   81.5510  221.8240 C   0  0  0  0  0  0  0  0  0  0  0  0
  139.2830   76.4560  221.8610 C   0  0  0  0  0  0  0  0  0  0  0  0
  137.9330   76.4820  221.5640 C   0  0  0  0  0  0  0  0  0  0  0  0
  137.1120   77.5040  221.9890 C   0  0  0  0  0  0  0  0  0  0  0  0
  137.6550   78.5150  222.7240 C   0  0  0  0  0  0  0  0  0  0  0  0
  136.8710   79.5730  223.1790 C   0  0  0  0  0  0  0  0  0  0  0  0
  137.4100   80.6080  223.9260 C   0  0  0  0  0  0  0  0  0  0  0  0
  136.6000   81.6020  224.3370 F   0  0  0  0  0  0  0  0  0  0  0  0
  138.7640   80.5700  224.2160 C   0  0  0  0  0  0  0  0  0  0  0  0
  139.5240   79.5120  223.7560 C   0  0  0  0  0  0  0  0  0  0  0  0
  139.0140   78.4760  223.0140 C   0  0  0  0  0  0  0  0  0  0  0  0
  139.7950   77.4610  222.5840 N   0  0  0  0  0  0  0  0  0  0  0  0
  141.9870   76.0150  222.0670 H   0  0  0  0  0  0  0  0  0  0  0  0
  142.6184   73.5420  221.8433 H   0  0  0  0  0  0  0  0  0  0  0  0
  141.3742   73.4765  220.5154 H   0  0  0  0  0  0  0  0  0  0  0  0
  141.4928   73.6842  217.9351 H   0  0  0  0  0  0  0  0  0  0  0  0
  140.6677   75.0793  218.6659 H   0  0  0  0  0  0  0  0  0  0  0  0
  140.9952   76.3806  216.7304 H   0  0  0  0  0  0  0  0  0  0  0  0
  140.9500   73.8250  216.1730 H   0  0  0  0  0  0  0  0  0  0  0  0
  143.6903   74.9813  216.3092 H   0  0  0  0  0  0  0  0  0  0  0  0
  143.3239   76.6446  215.9589 H   0  0  0  0  0  0  0  0  0  0  0  0
  144.5097   76.2831  218.3344 H   0  0  0  0  0  0  0  0  0  0  0  0
  141.6400   76.5280  220.1050 H   0  0  0  0  0  0  0  0  0  0  0  0
  140.6791   78.4628  221.0020 H   0  0  0  0  0  0  0  0  0  0  0  0
  140.1743   78.4456  218.0224 H   0  0  0  0  0  0  0  0  0  0  0  0
  139.1361   77.8298  219.4091 H   0  0  0  0  0  0  0  0  0  0  0  0
  138.3357   79.8866  218.2581 H   0  0  0  0  0  0  0  0  0  0  0  0
  138.5723   79.9509  220.0703 H   0  0  0  0  0  0  0  0  0  0  0  0
  139.7430   81.5208  217.9506 H   0  0  0  0  0  0  0  0  0  0  0  0
  139.6147   81.7594  219.7822 H   0  0  0  0  0  0  0  0  0  0  0  0
  141.7991   80.7008  218.1207 H   0  0  0  0  0  0  0  0  0  0  0  0
  141.7380   81.8259  219.5959 H   0  0  0  0  0  0  0  0  0  0  0  0
  142.7977   79.5197  219.6068 H   0  0  0  0  0  0  0  0  0  0  0  0
  142.8933   78.4184  222.0905 H   0  0  0  0  0  0  0  0  0  0  0  0
  143.2225   79.2026  224.4396 H   0  0  0  0  0  0  0  0  0  0  0  0
  142.5267   81.5069  225.0826 H   0  0  0  0  0  0  0  0  0  0  0  0
  141.5143   83.0147  223.4024 H   0  0  0  0  0  0  0  0  0  0  0  0
  141.1930   82.2257  221.0814 H   0  0  0  0  0  0  0  0  0  0  0  0
  137.5013   75.6624  220.9707 H   0  0  0  0  0  0  0  0  0  0  0  0
  136.0405   77.5037  221.7401 H   0  0  0  0  0  0  0  0  0  0  0  0
  135.7975   79.5870  222.9393 H   0  0  0  0  0  0  0  0  0  0  0  0
  139.2290   81.3735  224.8061 H   0  0  0  0  0  0  0  0  0  0  0  0
  140.5970   79.4991  223.9977 H   0  0  0  0  0  0  0  0  0  0  0  0
  1  2  2  0
  2  3  1  0
  3  4  1  0
  4  5  1  0
  5  6  2  0
  5  7  1  0
  7  8  1  0
  8  9  1  0
  9 10  1  0
  9 11  1  0
 11 12  1  0
 12 13  1  0
 13 14  2  0
 13 15  1  0
 15 16  1  0
 16 17  1  0
 17 18  1  0
 18 19  1  0
 19 20  1  0
 20 21  1  0
 21 22  1  0
 22 23  2  0
 23 24  1  0
 24 25  2  0
 25 26  1  0
 26 27  2  0
  2 28  1  0
 28 29  2  0
 29 30  1  0
 30 31  2  0
 31 32  1  0
 32 33  2  0
 33 34  1  0
 33 35  1  0
 35 36  2  0
 36 37  1  0
 37 38  2  0
 12  7  1  0
 21 16  1  0
 27 22  1  0
 38 28  1  0
 37 31  1  0
  3 39  1  0
  4 40  1  0
  4 41  1  0
  8 42  1  0
  8 43  1  0
  9 44  1  1
 10 45  1  0
 11 46  1  0
 11 47  1  0
 12 48  1  6
 15 49  1  0
 16 50  1  1
 17 51  1  0
 17 52  1  0
 18 53  1  0
 18 54  1  0
 19 55  1  0
 19 56  1  0
 20 57  1  0
 20 58  1  0
 21 59  1  6
 23 60  1  0
 24 61  1  0
 25 62  1  0
 26 63  1  0
 27 64  1  0
 29 65  1  0
 30 66  1  0
 32 67  1  0
 35 68  1  0
 36 69  1  0
M  END
>  <smiles>  (40) 
O=C(NCC(=O)N1C[C@H](O)C[C@H]1C(=O)N[C@@H]1CCCC[C@H]1c1ccccc1)c1ccc2cc(F)ccc2n1

>  <score_type>  (40) 
oracle

>  <origin>  (40) 
autodockgpu

>  <m_score__min__energy>  (40) 
-10.26

>  <m_primary>  (40) 
energy

>  <rmsd>  (40) 
6.433652114349949

>  <m_score__min__rmsd>  (40) 
6.433652114349949

>  <meeko>  (40) 
{"free_energy": -6.58, "intermolecular_energy": -8.97, "internal_energy": -4.8, "cluster_size": 1, "cluster_id": 11, "rank_in_cluster": 1}

>  <energy>  (40) 
-7.25

>  <cluster_rmsd>  (40) 
1.51

>  <cluster>  (40) 
9

$$$$

     RDKit          3D

 69 73  0  0  0  0  0  0  0  0999 V2000
  139.9300   73.3020  222.4500 O   0  0  0  0  0  0  0  0  0  0  0  0
  139.6500   74.1530  221.5650 C   0  0  0  0  0  0  0  0  0  0  0  0
  139.9370   73.7650  220.2150 N   0  0  0  0  0  0  0  0  0  0  0  0
  140.5100   72.4490  220.0320 C   0  0  0  0  0  0  0  0  0  0  0  0
  141.8410   72.3110  220.6610 C   0  0  0  0  0  0  0  0  0  0  0  0
  142.0900   71.5260  221.6130 O   0  0  0  0  0  0  0  0  0  0  0  0
  142.8970   73.1020  220.1710 N   0  0  0  0  0  0  0  0  0  0  0  0
  143.5640   72.8790  218.9130 C   0  0  0  0  0  0  0  0  0  0  0  0
  144.7910   73.7600  218.9020 C   0  0  2  0  0  0  0  0  0  0  0  0
  145.9020   73.0650  218.4060 O   0  0  0  0  0  0  0  0  0  0  0  0
  144.9720   74.1130  220.3470 C   0  0  0  0  0  0  0  0  0  0  0  0
  143.5270   74.2700  220.7960 C   0  0  1  0  0  0  0  0  0  0  0  0
  142.9820   75.4800  220.0910 C   0  0  0  0  0  0  0  0  0  0  0  0
  143.5510   75.8990  219.0270 O   0  0  0  0  0  0  0  0  0  0  0  0
  141.8550   76.1080  220.6360 N   0  0  0  0  0  0  0  0  0  0  0  0
  141.2330   77.2900  220.0420 C   0  0  2  0  0  0  0  0  0  0  0  0
  140.5090   76.8070  218.8230 C   0  0  0  0  0  0  0  0  0  0  0  0
  140.0740   77.8820  217.8790 C   0  0  0  0  0  0  0  0  0  0  0  0
  141.1480   78.8510  217.5430 C   0  0  0  0  0  0  0  0  0  0  0  0
  142.3680   78.8170  218.3950 C   0  0  0  0  0  0  0  0  0  0  0  0
  142.1960   78.3950  219.8080 C   0  0  1  0  0  0  0  0  0  0  0  0
  141.9430   79.5610  220.7290 C   0  0  0  0  0  0  0  0  0  0  0  0
  141.0920   80.5830  220.3470 C   0  0  0  0  0  0  0  0  0  0  0  0
  140.8590   81.6620  221.2020 C   0  0  0  0  0  0  0  0  0  0  0  0
  141.4890   81.7050  222.4420 C   0  0  0  0  0  0  0  0  0  0  0  0
  142.3340   80.6930  222.8250 C   0  0  0  0  0  0  0  0  0  0  0  0
  142.5540   79.6330  221.9690 C   0  0  0  0  0  0  0  0  0  0  0  0
  139.0730   75.4500  221.8750 C   0  0  0  0  0  0  0  0  0  0  0  0
  137.7630   75.6730  221.4950 C   0  0  0  0  0  0  0  0  0  0  0  0
  137.1250   76.8690  221.7430 C   0  0  0  0  0  0  0  0  0  0  0  0
  137.8140   77.8560  222.3830 C   0  0  0  0  0  0  0  0  0  0  0  0
  137.2180   79.0850  222.6590 C   0  0  0  0  0  0  0  0  0  0  0  0
  137.9060   80.0980  223.3080 C   0  0  0  0  0  0  0  0  0  0  0  0
  137.2750   81.2630  223.5460 F   0  0  0  0  0  0  0  0  0  0  0  0
  139.2190   79.8600  223.6830 C   0  0  0  0  0  0  0  0  0  0  0  0
  139.7910   78.6350  223.4000 C   0  0  0  0  0  0  0  0  0  0  0  0
  139.1310   77.6170  222.7580 C   0  0  0  0  0  0  0  0  0  0  0  0
  139.7310   76.4350  222.5020 N   0  0  0  0  0  0  0  0  0  0  0  0
  139.7340   74.4130  219.4180 H   0  0  0  0  0  0  0  0  0  0  0  0
  139.8322   71.7056  220.4770 H   0  0  0  0  0  0  0  0  0  0  0  0
  140.6366   72.2903  218.9509 H   0  0  0  0  0  0  0  0  0  0  0  0
  143.8566   71.8225  218.8225 H   0  0  0  0  0  0  0  0  0  0  0  0
  142.9007   73.1188  218.0689 H   0  0  0  0  0  0  0  0  0  0  0  0
  144.6848   74.6434  218.2552 H   0  0  0  0  0  0  0  0  0  0  0  0
  146.5820   73.7730  218.2380 H   0  0  0  0  0  0  0  0  0  0  0  0
  145.4802   73.3079  220.8980 H   0  0  0  0  0  0  0  0  0  0  0  0
  145.5975   75.0012  220.5199 H   0  0  0  0  0  0  0  0  0  0  0  0
  143.3830   74.3561  221.8831 H   0  0  0  0  0  0  0  0  0  0  0  0
  141.3880   75.7580  221.5140 H   0  0  0  0  0  0  0  0  0  0  0  0
  140.5143   77.7602  220.7294 H   0  0  0  0  0  0  0  0  0  0  0  0
  141.1768   76.1238  218.2778 H   0  0  0  0  0  0  0  0  0  0  0  0
  139.5890   76.3234  219.1832 H   0  0  0  0  0  0  0  0  0  0  0  0
  139.7298   77.4083  216.9478 H   0  0  0  0  0  0  0  0  0  0  0  0
  139.2758   78.4479  218.3816 H   0  0  0  0  0  0  0  0  0  0  0  0
  141.4598   78.6570  216.5061 H   0  0  0  0  0  0  0  0  0  0  0  0
  140.7051   79.8438  217.7108 H   0  0  0  0  0  0  0  0  0  0  0  0
  143.0800   78.1219  217.9262 H   0  0  0  0  0  0  0  0  0  0  0  0
  142.7053   79.8626  218.4499 H   0  0  0  0  0  0  0  0  0  0  0  0
  143.1728   77.9582  220.0631 H   0  0  0  0  0  0  0  0  0  0  0  0
  140.5969   80.5452  219.3655 H   0  0  0  0  0  0  0  0  0  0  0  0
  140.1815   82.4732  220.8972 H   0  0  0  0  0  0  0  0  0  0  0  0
  141.3092   82.5536  223.1184 H   0  0  0  0  0  0  0  0  0  0  0  0
  142.8313   80.7267  223.8056 H   0  0  0  0  0  0  0  0  0  0  0  0
  143.2322   78.8247  222.2801 H   0  0  0  0  0  0  0  0  0  0  0  0
  137.2133   74.8719  220.9792 H   0  0  0  0  0  0  0  0  0  0  0  0
  136.0816   77.0241  221.4311 H   0  0  0  0  0  0  0  0  0  0  0  0
  136.1750   79.2555  222.3540 H   0  0  0  0  0  0  0  0  0  0  0  0
  139.7992   80.6383  224.2004 H   0  0  0  0  0  0  0  0  0  0  0  0
  140.8339   78.4658  223.7063 H   0  0  0  0  0  0  0  0  0  0  0  0
  1  2  2  0
  2  3  1  0
  3  4  1  0
  4  5  1  0
  5  6  2  0
  5  7  1  0
  7  8  1  0
  8  9  1  0
  9 10  1  0
  9 11  1  0
 11 12  1  0
 12 13  1  0
 13 14  2  0
 13 15  1  0
 15 16  1  0
 16 17  1  0
 17 18  1  0
 18 19  1  0
 19 20  1  0
 20 21  1  0
 21 22  1  0
 22 23  2  0
 23 24  1  0
 24 25  2  0
 25 26  1  0
 26 27  2  0
  2 28  1  0
 28 29  2  0
 29 30  1  0
 30 31  2  0
 31 32  1  0
 32 33  2  0
 33 34  1  0
 33 35  1  0
 35 36  2  0
 36 37  1  0
 37 38  2  0
 12  7  1  0
 21 16  1  0
 27 22  1  0
 38 28  1  0
 37 31  1  0
  3 39  1  0
  4 40  1  0
  4 41  1  0
  8 42  1  0
  8 43  1  0
  9 44  1  6
 10 45  1  0
 11 46  1  0
 11 47  1  0
 12 48  1  1
 15 49  1  0
 16 50  1  1
 17 51  1  0
 17 52  1  0
 18 53  1  0
 18 54  1  0
 19 55  1  0
 19 56  1  0
 20 57  1  0
 20 58  1  0
 21 59  1  1
 23 60  1  0
 24 61  1  0
 25 62  1  0
 26 63  1  0
 27 64  1  0
 29 65  1  0
 30 66  1  0
 32 67  1  0
 35 68  1  0
 36 69  1  0
M  END
>  <smiles>  (41) 
O=C(NCC(=O)N1C[C@H](O)C[C@H]1C(=O)N[C@@H]1CCCC[C@H]1c1ccccc1)c1ccc2cc(F)ccc2n1

>  <score_type>  (41) 
oracle

>  <origin>  (41) 
autodockgpu

>  <m_score__min__energy>  (41) 
-10.26

>  <m_primary>  (41) 
energy

>  <rmsd>  (41) 
6.292619043706316

>  <m_score__min__rmsd>  (41) 
6.292619043706316

>  <meeko>  (41) 
{"free_energy": -7.37, "intermolecular_energy": -9.76, "internal_energy": -4.38, "cluster_size": 12, "cluster_id": 9, "rank_in_cluster": 3}

>  <energy>  (41) 
-7.24

>  <cluster_rmsd>  (41) 
1.56

>  <cluster>  (41) 
9

$$$$

     RDKit          3D

 69 73  0  0  0  0  0  0  0  0999 V2000
  140.3510   73.3620  221.9590 O   0  0  0  0  0  0  0  0  0  0  0  0
  140.5470   72.1280  222.1220 C   0  0  0  0  0  0  0  0  0  0  0  0
  141.0520   71.4220  220.9830 N   0  0  0  0  0  0  0  0  0  0  0  0
  141.2780   72.2060  219.7870 C   0  0  0  0  0  0  0  0  0  0  0  0
  142.3190   73.2400  219.9690 C   0  0  0  0  0  0  0  0  0  0  0  0
  143.3130   73.1090  220.7280 O   0  0  0  0  0  0  0  0  0  0  0  0
  142.1960   74.4450  219.2530 N   0  0  0  0  0  0  0  0  0  0  0  0
  141.1860   74.7000  218.2560 C   0  0  0  0  0  0  0  0  0  0  0  0
  141.5750   75.9790  217.5510 C   0  0  2  0  0  0  0  0  0  0  0  0
  141.4070   75.8580  216.1650 O   0  0  0  0  0  0  0  0  0  0  0  0
  143.0210   76.1420  217.9110 C   0  0  0  0  0  0  0  0  0  0  0  0
  143.0240   75.6520  219.3510 C   0  0  1  0  0  0  0  0  0  0  0  0
  142.2350   76.6500  220.1510 C   0  0  0  0  0  0  0  0  0  0  0  0
  142.3660   77.8970  219.9090 O   0  0  0  0  0  0  0  0  0  0  0  0
  141.3730   76.1660  221.1430 N   0  0  0  0  0  0  0  0  0  0  0  0
  140.5540   77.0350  221.9840 C   0  0  2  0  0  0  0  0  0  0  0  0
  139.2530   76.3160  222.1760 C   0  0  0  0  0  0  0  0  0  0  0  0
  138.1430   77.1540  222.7270 C   0  0  0  0  0  0  0  0  0  0  0  0
  137.9670   78.4500  222.0230 C   0  0  0  0  0  0  0  0  0  0  0  0
  139.0680   78.8690  221.1110 C   0  0  0  0  0  0  0  0  0  0  0  0
  140.4400   78.4160  221.4530 C   0  0  1  0  0  0  0  0  0  0  0  0
  141.1740   79.4090  222.3170 C   0  0  0  0  0  0  0  0  0  0  0  0
  142.5500   79.3400  222.4470 C   0  0  0  0  0  0  0  0  0  0  0  0
  143.2280   80.2620  223.2490 C   0  0  0  0  0  0  0  0  0  0  0  0
  142.5120   81.2500  223.9170 C   0  0  0  0  0  0  0  0  0  0  0  0
  141.1460   81.3220  223.7900 C   0  0  0  0  0  0  0  0  0  0  0  0
  140.4900   80.4030  222.9950 C   0  0  0  0  0  0  0  0  0  0  0  0
  140.2810   71.4500  223.3790 C   0  0  0  0  0  0  0  0  0  0  0  0
  139.5420   70.2820  223.3310 C   0  0  0  0  0  0  0  0  0  0  0  0
  139.2360   69.5650  224.4670 C   0  0  0  0  0  0  0  0  0  0  0  0
  139.6800   70.0270  225.6700 C   0  0  0  0  0  0  0  0  0  0  0  0
  139.4000   69.3420  226.8500 C   0  0  0  0  0  0  0  0  0  0  0  0
  139.8430   69.7990  228.0800 C   0  0  0  0  0  0  0  0  0  0  0  0
  139.5400   69.0920  229.1840 F   0  0  0  0  0  0  0  0  0  0  0  0
  140.5830   70.9710  228.1140 C   0  0  0  0  0  0  0  0  0  0  0  0
  140.8500   71.6350  226.9330 C   0  0  0  0  0  0  0  0  0  0  0  0
  140.4210   71.2030  225.7030 C   0  0  0  0  0  0  0  0  0  0  0  0
  140.7060   71.8850  224.5730 N   0  0  0  0  0  0  0  0  0  0  0  0
  141.2430   70.3940  221.0320 H   0  0  0  0  0  0  0  0  0  0  0  0
  141.5913   71.5302  218.9776 H   0  0  0  0  0  0  0  0  0  0  0  0
  140.3368   72.7219  219.5459 H   0  0  0  0  0  0  0  0  0  0  0  0
  141.1468   73.8688  217.5366 H   0  0  0  0  0  0  0  0  0  0  0  0
  140.1922   74.7929  218.7183 H   0  0  0  0  0  0  0  0  0  0  0  0
  140.9599   76.8417  217.8467 H   0  0  0  0  0  0  0  0  0  0  0  0
  142.3310   75.9080  215.7980 H   0  0  0  0  0  0  0  0  0  0  0  0
  143.6677   75.5219  217.2728 H   0  0  0  0  0  0  0  0  0  0  0  0
  143.4061   77.1642  217.7811 H   0  0  0  0  0  0  0  0  0  0  0  0
  144.0212   75.5027  219.7906 H   0  0  0  0  0  0  0  0  0  0  0  0
  141.2670   75.1350  221.3380 H   0  0  0  0  0  0  0  0  0  0  0  0
  141.0214   77.2103  222.9642 H   0  0  0  0  0  0  0  0  0  0  0  0
  138.9323   75.9241  221.1995 H   0  0  0  0  0  0  0  0  0  0  0  0
  139.4434   75.5294  222.9210 H   0  0  0  0  0  0  0  0  0  0  0  0
  137.2052   76.5848  222.6462 H   0  0  0  0  0  0  0  0  0  0  0  0
  138.4038   77.3876  223.7698 H   0  0  0  0  0  0  0  0  0  0  0  0
  137.0460   78.3826  221.4253 H   0  0  0  0  0  0  0  0  0  0  0  0
  137.9434   79.2105  222.8174 H   0  0  0  0  0  0  0  0  0  0  0  0
  138.8322   78.4834  220.1082 H   0  0  0  0  0  0  0  0  0  0  0  0
  139.1023   79.9655  221.1919 H   0  0  0  0  0  0  0  0  0  0  0  0
  140.9424   78.3695  220.4755 H   0  0  0  0  0  0  0  0  0  0  0  0
  143.1120   78.5567  221.9173 H   0  0  0  0  0  0  0  0  0  0  0  0
  144.3218   80.2068  223.3515 H   0  0  0  0  0  0  0  0  0  0  0  0
  143.0420   81.9770  224.5499 H   0  0  0  0  0  0  0  0  0  0  0  0
  140.5800   82.1045  224.3167 H   0  0  0  0  0  0  0  0  0  0  0  0
  139.3959   80.4625  222.8981 H   0  0  0  0  0  0  0  0  0  0  0  0
  139.1879   69.9144  222.3566 H   0  0  0  0  0  0  0  0  0  0  0  0
  138.6456   68.6390  224.4044 H   0  0  0  0  0  0  0  0  0  0  0  0
  138.8116   68.4138  226.8038 H   0  0  0  0  0  0  0  0  0  0  0  0
  140.9532   71.3675  229.0709 H   0  0  0  0  0  0  0  0  0  0  0  0
  141.4397   72.5623  226.9808 H   0  0  0  0  0  0  0  0  0  0  0  0
  1  2  2  0
  2  3  1  0
  3  4  1  0
  4  5  1  0
  5  6  2  0
  5  7  1  0
  7  8  1  0
  8  9  1  0
  9 10  1  0
  9 11  1  0
 11 12  1  0
 12 13  1  0
 13 14  2  0
 13 15  1  0
 15 16  1  0
 16 17  1  0
 17 18  1  0
 18 19  1  0
 19 20  1  0
 20 21  1  0
 21 22  1  0
 22 23  2  0
 23 24  1  0
 24 25  2  0
 25 26  1  0
 26 27  2  0
  2 28  1  0
 28 29  2  0
 29 30  1  0
 30 31  2  0
 31 32  1  0
 32 33  2  0
 33 34  1  0
 33 35  1  0
 35 36  2  0
 36 37  1  0
 37 38  2  0
 12  7  1  0
 21 16  1  0
 27 22  1  0
 38 28  1  0
 37 31  1  0
  3 39  1  0
  4 40  1  0
  4 41  1  0
  8 42  1  0
  8 43  1  0
  9 44  1  1
 10 45  1  0
 11 46  1  0
 11 47  1  0
 12 48  1  1
 15 49  1  0
 16 50  1  1
 17 51  1  0
 17 52  1  0
 18 53  1  0
 18 54  1  0
 19 55  1  0
 19 56  1  0
 20 57  1  0
 20 58  1  0
 21 59  1  6
 23 60  1  0
 24 61  1  0
 25 62  1  0
 26 63  1  0
 27 64  1  0
 29 65  1  0
 30 66  1  0
 32 67  1  0
 35 68  1  0
 36 69  1  0
M  END
>  <smiles>  (42) 
O=C(NCC(=O)N1C[C@H](O)C[C@H]1C(=O)N[C@@H]1CCCC[C@H]1c1ccccc1)c1ccc2cc(F)ccc2n1

>  <score_type>  (42) 
oracle

>  <origin>  (42) 
autodockgpu

>  <m_score__min__energy>  (42) 
-10.26

>  <m_primary>  (42) 
energy

>  <rmsd>  (42) 
3.102479685583727

>  <m_score__min__rmsd>  (42) 
3.102479685583727

>  <meeko>  (42) 
{"free_energy": -9.12, "intermolecular_energy": -11.5, "internal_energy": -2.97, "cluster_size": 11, "cluster_id": 1, "rank_in_cluster": 6}

>  <energy>  (42) 
-7.23

>  <cluster_rmsd>  (42) 
1.56

>  <cluster>  (42) 
9

$$$$

     RDKit          3D

 69 73  0  0  0  0  0  0  0  0999 V2000
  140.0480   73.5170  222.2610 O   0  0  0  0  0  0  0  0  0  0  0  0
  140.1230   72.2590  222.2530 C   0  0  0  0  0  0  0  0  0  0  0  0
  140.2340   71.6500  220.9600 N   0  0  0  0  0  0  0  0  0  0  0  0
  140.2470   72.5490  219.8250 C   0  0  0  0  0  0  0  0  0  0  0  0
  141.3810   72.2990  218.9100 C   0  0  0  0  0  0  0  0  0  0  0  0
  141.3260   71.5260  217.9180 O   0  0  0  0  0  0  0  0  0  0  0  0
  142.5980   72.9600  219.1570 N   0  0  0  0  0  0  0  0  0  0  0  0
  143.5520   73.3170  218.1350 C   0  0  0  0  0  0  0  0  0  0  0  0
  144.8140   73.7500  218.8440 C   0  0  2  0  0  0  0  0  0  0  0  0
  145.9470   73.2070  218.2220 O   0  0  0  0  0  0  0  0  0  0  0  0
  144.6380   73.2000  220.2260 C   0  0  0  0  0  0  0  0  0  0  0  0
  143.1460   73.4120  220.4400 C   0  0  1  0  0  0  0  0  0  0  0  0
  142.9240   74.8970  220.5030 C   0  0  0  0  0  0  0  0  0  0  0  0
  143.8320   75.6890  220.0790 O   0  0  0  0  0  0  0  0  0  0  0  0
  141.7110   75.3600  221.0290 N   0  0  0  0  0  0  0  0  0  0  0  0
  141.3780   76.7780  221.1410 C   0  0  2  0  0  0  0  0  0  0  0  0
  140.7950   76.9580  222.5100 C   0  0  0  0  0  0  0  0  0  0  0  0
  140.0830   78.2550  222.7280 C   0  0  0  0  0  0  0  0  0  0  0  0
  139.1090   78.5880  221.6580 C   0  0  0  0  0  0  0  0  0  0  0  0
  139.1930   77.7870  220.4060 C   0  0  0  0  0  0  0  0  0  0  0  0
  140.5290   77.2640  220.0250 C   0  0  1  0  0  0  0  0  0  0  0  0
  141.2800   78.2090  219.1220 C   0  0  0  0  0  0  0  0  0  0  0  0
  141.8020   77.7630  217.9210 C   0  0  0  0  0  0  0  0  0  0  0  0
  142.4970   78.6410  217.0860 C   0  0  0  0  0  0  0  0  0  0  0  0
  142.6630   79.9680  217.4700 C   0  0  0  0  0  0  0  0  0  0  0  0
  142.1470   80.4150  218.6610 C   0  0  0  0  0  0  0  0  0  0  0  0
  141.4630   79.5350  219.4760 C   0  0  0  0  0  0  0  0  0  0  0  0
  140.1010   71.4620  223.4670 C   0  0  0  0  0  0  0  0  0  0  0  0
  139.5200   70.2090  223.3970 C   0  0  0  0  0  0  0  0  0  0  0  0
  139.4480   69.3770  224.4930 C   0  0  0  0  0  0  0  0  0  0  0  0
  139.9680   69.8090  225.6760 C   0  0  0  0  0  0  0  0  0  0  0  0
  139.9230   69.0080  226.8160 C   0  0  0  0  0  0  0  0  0  0  0  0
  140.4470   69.4340  228.0260 C   0  0  0  0  0  0  0  0  0  0  0  0
  140.3730   68.6140  229.0910 F   0  0  0  0  0  0  0  0  0  0  0  0
  141.0260   70.6920  228.0810 C   0  0  0  0  0  0  0  0  0  0  0  0
  141.0620   71.4690  226.9400 C   0  0  0  0  0  0  0  0  0  0  0  0
  140.5490   71.0710  225.7310 C   0  0  0  0  0  0  0  0  0  0  0  0
  140.6050   71.8650  224.6410 N   0  0  0  0  0  0  0  0  0  0  0  0
  140.3020   70.6110  220.8630 H   0  0  0  0  0  0  0  0  0  0  0  0
  139.3088   72.4219  219.2650 H   0  0  0  0  0  0  0  0  0  0  0  0
  140.3542   73.5724  220.2139 H   0  0  0  0  0  0  0  0  0  0  0  0
  143.7587   72.4495  217.4910 H   0  0  0  0  0  0  0  0  0  0  0  0
  143.1621   74.1241  217.4974 H   0  0  0  0  0  0  0  0  0  0  0  0
  144.9653   74.8395  218.8338 H   0  0  0  0  0  0  0  0  0  0  0  0
  146.6110   73.9500  218.2260 H   0  0  0  0  0  0  0  0  0  0  0  0
  144.9046   72.1338  220.2726 H   0  0  0  0  0  0  0  0  0  0  0  0
  145.2754   73.6755  220.9860 H   0  0  0  0  0  0  0  0  0  0  0  0
  142.7269   72.9182  221.3291 H   0  0  0  0  0  0  0  0  0  0  0  0
  140.9640   74.7030  221.3770 H   0  0  0  0  0  0  0  0  0  0  0  0
  142.2695   77.4141  221.0380 H   0  0  0  0  0  0  0  0  0  0  0  0
  140.0789   76.1418  222.6860 H   0  0  0  0  0  0  0  0  0  0  0  0
  141.6442   76.9521  223.2091 H   0  0  0  0  0  0  0  0  0  0  0  0
  139.5424   78.1980  223.6843 H   0  0  0  0  0  0  0  0  0  0  0  0
  140.8474   79.0460  222.7246 H   0  0  0  0  0  0  0  0  0  0  0  0
  138.0991   78.4537  222.0727 H   0  0  0  0  0  0  0  0  0  0  0  0
  139.3488   79.6190  221.3588 H   0  0  0  0  0  0  0  0  0  0  0  0
  138.5196   76.9246  220.5188 H   0  0  0  0  0  0  0  0  0  0  0  0
  138.9222   78.4872  219.6021 H   0  0  0  0  0  0  0  0  0  0  0  0
  140.2914   76.3547  219.4534 H   0  0  0  0  0  0  0  0  0  0  0  0
  141.6692   76.7127  217.6224 H   0  0  0  0  0  0  0  0  0  0  0  0
  142.9105   78.2855  216.1307 H   0  0  0  0  0  0  0  0  0  0  0  0
  143.2105   80.6625  216.8159 H   0  0  0  0  0  0  0  0  0  0  0  0
  142.2773   81.4646  218.9633 H   0  0  0  0  0  0  0  0  0  0  0  0
  141.0531   79.8965  220.4306 H   0  0  0  0  0  0  0  0  0  0  0  0
  139.1032   69.8665  222.4384 H   0  0  0  0  0  0  0  0  0  0  0  0
  138.9803   68.3845  224.4145 H   0  0  0  0  0  0  0  0  0  0  0  0
  139.4597   68.0123  226.7534 H   0  0  0  0  0  0  0  0  0  0  0  0
  141.4521   71.0673  229.0231 H   0  0  0  0  0  0  0  0  0  0  0  0
  141.5283   72.4632  227.0038 H   0  0  0  0  0  0  0  0  0  0  0  0
  1  2  2  0
  2  3  1  0
  3  4  1  0
  4  5  1  0
  5  6  2  0
  5  7  1  0
  7  8  1  0
  8  9  1  0
  9 10  1  0
  9 11  1  0
 11 12  1  0
 12 13  1  0
 13 14  2  0
 13 15  1  0
 15 16  1  0
 16 17  1  0
 17 18  1  0
 18 19  1  0
 19 20  1  0
 20 21  1  0
 21 22  1  0
 22 23  2  0
 23 24  1  0
 24 25  2  0
 25 26  1  0
 26 27  2  0
  2 28  1  0
 28 29  2  0
 29 30  1  0
 30 31  2  0
 31 32  1  0
 32 33  2  0
 33 34  1  0
 33 35  1  0
 35 36  2  0
 36 37  1  0
 37 38  2  0
 12  7  1  0
 21 16  1  0
 27 22  1  0
 38 28  1  0
 37 31  1  0
  3 39  1  0
  4 40  1  0
  4 41  1  0
  8 42  1  0
  8 43  1  0
  9 44  1  1
 10 45  1  0
 11 46  1  0
 11 47  1  0
 12 48  1  1
 15 49  1  0
 16 50  1  1
 17 51  1  0
 17 52  1  0
 18 53  1  0
 18 54  1  0
 19 55  1  0
 19 56  1  0
 20 57  1  0
 20 58  1  0
 21 59  1  6
 23 60  1  0
 24 61  1  0
 25 62  1  0
 26 63  1  0
 27 64  1  0
 29 65  1  0
 30 66  1  0
 32 67  1  0
 35 68  1  0
 36 69  1  0
M  END
>  <smiles>  (43) 
O=C(NCC(=O)N1C[C@H](O)C[C@H]1C(=O)N[C@@H]1CCCC[C@H]1c1ccccc1)c1ccc2cc(F)ccc2n1

>  <score_type>  (43) 
oracle

>  <origin>  (43) 
autodockgpu

>  <m_score__min__energy>  (43) 
-10.26

>  <m_primary>  (43) 
energy

>  <rmsd>  (43) 
3.7619433117654983

>  <m_score__min__rmsd>  (43) 
3.7619433117654983

>  <meeko>  (43) 
{"free_energy": -9.06, "intermolecular_energy": -11.44, "internal_energy": -2.92, "cluster_size": 11, "cluster_id": 1, "rank_in_cluster": 9}

>  <energy>  (43) 
-7.22

>  <cluster_rmsd>  (43) 
1.53

>  <cluster>  (43) 
9

$$$$

     RDKit          3D

 69 73  0  0  0  0  0  0  0  0999 V2000
  139.5710   73.4620  222.2570 O   0  0  0  0  0  0  0  0  0  0  0  0
  140.2450   72.4030  222.3620 C   0  0  0  0  0  0  0  0  0  0  0  0
  141.0710   72.0750  221.2380 N   0  0  0  0  0  0  0  0  0  0  0  0
  141.0340   72.9970  220.1220 C   0  0  0  0  0  0  0  0  0  0  0  0
  141.6050   74.3200  220.4530 C   0  0  0  0  0  0  0  0  0  0  0  0
  142.0590   74.6250  221.5860 O   0  0  0  0  0  0  0  0  0  0  0  0
  141.6460   75.3020  219.4460 N   0  0  0  0  0  0  0  0  0  0  0  0
  140.6100   75.5020  218.4630 C   0  0  0  0  0  0  0  0  0  0  0  0
  141.1650   76.4490  217.4240 C   0  0  2  0  0  0  0  0  0  0  0  0
  140.8410   76.0180  216.1310 O   0  0  0  0  0  0  0  0  0  0  0  0
  142.6430   76.3900  217.6620 C   0  0  0  0  0  0  0  0  0  0  0  0
  142.6950   76.2920  219.1790 C   0  0  1  0  0  0  0  0  0  0  0  0
  142.1940   77.6030  219.7160 C   0  0  0  0  0  0  0  0  0  0  0  0
  142.1510   78.6230  218.9490 O   0  0  0  0  0  0  0  0  0  0  0  0
  141.7870   77.6550  221.0550 N   0  0  0  0  0  0  0  0  0  0  0  0
  141.2820   78.8690  221.6910 C   0  0  2  0  0  0  0  0  0  0  0  0
  142.3740   79.8870  221.5650 C   0  0  0  0  0  0  0  0  0  0  0  0
  142.2130   81.0980  222.4280 C   0  0  0  0  0  0  0  0  0  0  0  0
  141.9020   80.7840  223.8450 C   0  0  0  0  0  0  0  0  0  0  0  0
  141.4960   79.3830  224.1450 C   0  0  0  0  0  0  0  0  0  0  0  0
  140.7900   78.6380  223.0720 C   0  0  1  0  0  0  0  0  0  0  0  0
  139.2920   78.7810  223.1630 C   0  0  0  0  0  0  0  0  0  0  0  0
  138.7310   79.9110  223.7330 C   0  0  0  0  0  0  0  0  0  0  0  0
  137.3420   80.0400  223.8160 C   0  0  0  0  0  0  0  0  0  0  0  0
  136.5260   79.0270  223.3230 C   0  0  0  0  0  0  0  0  0  0  0  0
  137.0790   77.9050  222.7570 C   0  0  0  0  0  0  0  0  0  0  0  0
  138.4530   77.7910  222.6820 C   0  0  0  0  0  0  0  0  0  0  0  0
  140.1980   71.5550  223.5410 C   0  0  0  0  0  0  0  0  0  0  0  0
  139.6040   70.3130  223.4110 C   0  0  0  0  0  0  0  0  0  0  0  0
  139.5090   69.4360  224.4700 C   0  0  0  0  0  0  0  0  0  0  0  0
  140.0190   69.8120  225.6770 C   0  0  0  0  0  0  0  0  0  0  0  0
  139.9500   68.9640  226.7810 C   0  0  0  0  0  0  0  0  0  0  0  0
  140.4630   69.3330  228.0140 C   0  0  0  0  0  0  0  0  0  0  0  0
  140.3660   68.4700  229.0420 F   0  0  0  0  0  0  0  0  0  0  0  0
  141.0560   70.5800  228.1290 C   0  0  0  0  0  0  0  0  0  0  0  0
  141.1140   71.4050  227.0230 C   0  0  0  0  0  0  0  0  0  0  0  0
  140.6120   71.0640  225.7920 C   0  0  0  0  0  0  0  0  0  0  0  0
  140.6920   71.9030  224.7370 N   0  0  0  0  0  0  0  0  0  0  0  0
  141.6630   71.2130  221.2430 H   0  0  0  0  0  0  0  0  0  0  0  0
  141.6085   72.5645  219.2896 H   0  0  0  0  0  0  0  0  0  0  0  0
  139.9783   73.1496  219.8532 H   0  0  0  0  0  0  0  0  0  0  0  0
  140.3423   74.5429  217.9956 H   0  0  0  0  0  0  0  0  0  0  0  0
  139.7026   75.9158  218.9270 H   0  0  0  0  0  0  0  0  0  0  0  0
  140.7588   77.4681  217.5042 H   0  0  0  0  0  0  0  0  0  0  0  0
  139.9420   75.6000  216.2270 H   0  0  0  0  0  0  0  0  0  0  0  0
  143.0930   75.5066  217.1854 H   0  0  0  0  0  0  0  0  0  0  0  0
  143.2014   77.2413  217.2455 H   0  0  0  0  0  0  0  0  0  0  0  0
  143.6839   76.0527  219.5973 H   0  0  0  0  0  0  0  0  0  0  0  0
  141.8240   76.8100  221.6850 H   0  0  0  0  0  0  0  0  0  0  0  0
  140.3769   79.2434  221.1904 H   0  0  0  0  0  0  0  0  0  0  0  0
  143.3247   79.4021  221.8316 H   0  0  0  0  0  0  0  0  0  0  0  0
  142.3420   80.2445  220.5252 H   0  0  0  0  0  0  0  0  0  0  0  0
  143.1501   81.6733  222.3974 H   0  0  0  0  0  0  0  0  0  0  0  0
  141.3589   81.6653  222.0296 H   0  0  0  0  0  0  0  0  0  0  0  0
  142.7998   81.0058  224.4406 H   0  0  0  0  0  0  0  0  0  0  0  0
  141.0240   81.3990  224.0919 H   0  0  0  0  0  0  0  0  0  0  0  0
  142.4076   78.8202  224.3943 H   0  0  0  0  0  0  0  0  0  0  0  0
  140.7635   79.4680  224.9612 H   0  0  0  0  0  0  0  0  0  0  0  0
  141.0503   77.5892  223.2777 H   0  0  0  0  0  0  0  0  0  0  0  0
  139.3803   80.7094  224.1216 H   0  0  0  0  0  0  0  0  0  0  0  0
  136.8962   80.9379  224.2688 H   0  0  0  0  0  0  0  0  0  0  0  0
  135.4323   79.1254  223.3869 H   0  0  0  0  0  0  0  0  0  0  0  0
  136.4334   77.1043  222.3669 H   0  0  0  0  0  0  0  0  0  0  0  0
  138.8920   76.8902  222.2283 H   0  0  0  0  0  0  0  0  0  0  0  0
  139.1954   70.0163  222.4338 H   0  0  0  0  0  0  0  0  0  0  0  0
  139.0316   68.4531  224.3439 H   0  0  0  0  0  0  0  0  0  0  0  0
  139.4765   67.9773  226.6706 H   0  0  0  0  0  0  0  0  0  0  0  0
  141.4760   70.9093  229.0908 H   0  0  0  0  0  0  0  0  0  0  0  0
  141.5892   72.3907  227.1350 H   0  0  0  0  0  0  0  0  0  0  0  0
  1  2  2  0
  2  3  1  0
  3  4  1  0
  4  5  1  0
  5  6  2  0
  5  7  1  0
  7  8  1  0
  8  9  1  0
  9 10  1  0
  9 11  1  0
 11 12  1  0
 12 13  1  0
 13 14  2  0
 13 15  1  0
 15 16  1  0
 16 17  1  0
 17 18  1  0
 18 19  1  0
 19 20  1  0
 20 21  1  0
 21 22  1  0
 22 23  2  0
 23 24  1  0
 24 25  2  0
 25 26  1  0
 26 27  2  0
  2 28  1  0
 28 29  2  0
 29 30  1  0
 30 31  2  0
 31 32  1  0
 32 33  2  0
 33 34  1  0
 33 35  1  0
 35 36  2  0
 36 37  1  0
 37 38  2  0
 12  7  1  0
 21 16  1  0
 27 22  1  0
 38 28  1  0
 37 31  1  0
  3 39  1  0
  4 40  1  0
  4 41  1  0
  8 42  1  0
  8 43  1  0
  9 44  1  1
 10 45  1  0
 11 46  1  0
 11 47  1  0
 12 48  1  6
 15 49  1  0
 16 50  1  6
 17 51  1  0
 17 52  1  0
 18 53  1  0
 18 54  1  0
 19 55  1  0
 19 56  1  0
 20 57  1  0
 20 58  1  0
 21 59  1  1
 23 60  1  0
 24 61  1  0
 25 62  1  0
 26 63  1  0
 27 64  1  0
 29 65  1  0
 30 66  1  0
 32 67  1  0
 35 68  1  0
 36 69  1  0
M  END
>  <smiles>  (44) 
O=C(NCC(=O)N1C[C@H](O)C[C@H]1C(=O)N[C@@H]1CCCC[C@H]1c1ccccc1)c1ccc2cc(F)ccc2n1

>  <score_type>  (44) 
oracle

>  <origin>  (44) 
autodockgpu

>  <m_score__min__energy>  (44) 
-10.26

>  <m_primary>  (44) 
energy

>  <rmsd>  (44) 
2.7170639283109517

>  <m_score__min__rmsd>  (44) 
2.7170639283109517

>  <meeko>  (44) 
{"free_energy": -9.36, "intermolecular_energy": -11.75, "internal_energy": -2.71, "cluster_size": 5, "cluster_id": 2, "rank_in_cluster": 5}

>  <energy>  (44) 
-7.16

>  <cluster_rmsd>  (44) 
1.59

>  <cluster>  (44) 
9

$$$$

     RDKit          3D

 69 73  0  0  0  0  0  0  0  0999 V2000
  140.2950   73.0210  222.4300 O   0  0  0  0  0  0  0  0  0  0  0  0
  140.0830   73.9770  221.6370 C   0  0  0  0  0  0  0  0  0  0  0  0
  140.1250   73.6490  220.2420 N   0  0  0  0  0  0  0  0  0  0  0  0
  140.4030   72.2670  219.9140 C   0  0  0  0  0  0  0  0  0  0  0  0
  141.8140   71.8950  220.1470 C   0  0  0  0  0  0  0  0  0  0  0  0
  142.1800   70.7890  220.6230 O   0  0  0  0  0  0  0  0  0  0  0  0
  142.8150   72.8290  219.8200 N   0  0  0  0  0  0  0  0  0  0  0  0
  143.7980   72.6390  218.7830 C   0  0  0  0  0  0  0  0  0  0  0  0
  144.8290   73.7310  218.9470 C   0  0  2  0  0  0  0  0  0  0  0  0
  146.1260   73.2200  218.8040 O   0  0  0  0  0  0  0  0  0  0  0  0
  144.5900   74.2220  220.3430 C   0  0  0  0  0  0  0  0  0  0  0  0
  143.0730   74.1390  220.4290 C   0  0  1  0  0  0  0  0  0  0  0  0
  142.5280   75.1680  219.4780 C   0  0  0  0  0  0  0  0  0  0  0  0
  142.3340   74.8570  218.2550 O   0  0  0  0  0  0  0  0  0  0  0  0
  142.2490   76.4460  219.9790 N   0  0  0  0  0  0  0  0  0  0  0  0
  141.7170   77.5290  219.1560 C   0  0  2  0  0  0  0  0  0  0  0  0
  142.8320   77.9420  218.2450 C   0  0  0  0  0  0  0  0  0  0  0  0
  142.6260   79.2460  217.5430 C   0  0  0  0  0  0  0  0  0  0  0  0
  142.2030   80.3490  218.4440 C   0  0  0  0  0  0  0  0  0  0  0  0
  141.7520   79.9590  219.8080 C   0  0  0  0  0  0  0  0  0  0  0  0
  141.1170   78.6250  219.9570 C   0  0  1  0  0  0  0  0  0  0  0  0
  139.6190   78.6800  219.7970 C   0  0  0  0  0  0  0  0  0  0  0  0
  138.9260   79.8390  220.0960 C   0  0  0  0  0  0  0  0  0  0  0  0
  137.5370   79.8870  219.9470 C   0  0  0  0  0  0  0  0  0  0  0  0
  136.8560   78.7620  219.4960 C   0  0  0  0  0  0  0  0  0  0  0  0
  137.5400   77.6090  219.1980 C   0  0  0  0  0  0  0  0  0  0  0  0
  138.9120   77.5770  219.3510 C   0  0  0  0  0  0  0  0  0  0  0  0
  139.8140   75.3300  222.0910 C   0  0  0  0  0  0  0  0  0  0  0  0
  138.4900   75.7080  222.2190 C   0  0  0  0  0  0  0  0  0  0  0  0
  138.1290   76.9690  222.6410 C   0  0  0  0  0  0  0  0  0  0  0  0
  139.1130   77.8640  222.9400 C   0  0  0  0  0  0  0  0  0  0  0  0
  138.8060   79.1520  223.3720 C   0  0  0  0  0  0  0  0  0  0  0  0
  139.7950   80.0730  223.6790 C   0  0  0  0  0  0  0  0  0  0  0  0
  139.4340   81.3020  224.0910 F   0  0  0  0  0  0  0  0  0  0  0  0
  141.1170   79.6800  223.5460 C   0  0  0  0  0  0  0  0  0  0  0  0
  141.4010   78.3980  223.1170 C   0  0  0  0  0  0  0  0  0  0  0  0
  140.4400   77.4690  222.8060 C   0  0  0  0  0  0  0  0  0  0  0  0
  140.7640   76.2260  222.3900 N   0  0  0  0  0  0  0  0  0  0  0  0
  139.9600   74.3840  219.5160 H   0  0  0  0  0  0  0  0  0  0  0  0
  139.7628   71.6230  220.5348 H   0  0  0  0  0  0  0  0  0  0  0  0
  140.1986   72.1340  218.8414 H   0  0  0  0  0  0  0  0  0  0  0  0
  144.2726   71.6523  218.8885 H   0  0  0  0  0  0  0  0  0  0  0  0
  143.3325   72.6847  217.7874 H   0  0  0  0  0  0  0  0  0  0  0  0
  144.7414   74.5266  218.1925 H   0  0  0  0  0  0  0  0  0  0  0  0
  146.7040   74.0280  218.7320 H   0  0  0  0  0  0  0  0  0  0  0  0
  145.0723   73.5714  221.0874 H   0  0  0  0  0  0  0  0  0  0  0  0
  145.0000   75.2223  220.5465 H   0  0  0  0  0  0  0  0  0  0  0  0
  142.6545   74.2793  221.4366 H   0  0  0  0  0  0  0  0  0  0  0  0
  142.4100   76.6990  220.9900 H   0  0  0  0  0  0  0  0  0  0  0  0
  140.8590   77.1969  218.5531 H   0  0  0  0  0  0  0  0  0  0  0  0
  143.7512   78.0188  218.8442 H   0  0  0  0  0  0  0  0  0  0  0  0
  142.8855   77.1751  217.4583 H   0  0  0  0  0  0  0  0  0  0  0  0
  143.5720   79.5344  217.0614 H   0  0  0  0  0  0  0  0  0  0  0  0
  141.8141   79.0952  216.8164 H   0  0  0  0  0  0  0  0  0  0  0  0
  143.0568   81.0333  218.5576 H   0  0  0  0  0  0  0  0  0  0  0  0
  141.3199   80.7945  217.9626 H   0  0  0  0  0  0  0  0  0  0  0  0
  142.6325   79.9818  220.4669 H   0  0  0  0  0  0  0  0  0  0  0  0
  140.9608   80.6797  220.0620 H   0  0  0  0  0  0  0  0  0  0  0  0
  141.3428   78.3510  220.9981 H   0  0  0  0  0  0  0  0  0  0  0  0
  139.4699   80.7262  220.4523 H   0  0  0  0  0  0  0  0  0  0  0  0
  136.9863   80.8090  220.1851 H   0  0  0  0  0  0  0  0  0  0  0  0
  135.7630   78.7956  219.3772 H   0  0  0  0  0  0  0  0  0  0  0  0
  137.0002   76.7196  218.8409 H   0  0  0  0  0  0  0  0  0  0  0  0
  139.4567   76.6516  219.1124 H   0  0  0  0  0  0  0  0  0  0  0  0
  137.7015   74.9803  221.9767 H   0  0  0  0  0  0  0  0  0  0  0  0
  137.0690   77.2477  222.7347 H   0  0  0  0  0  0  0  0  0  0  0  0
  137.7507   79.4460  223.4721 H   0  0  0  0  0  0  0  0  0  0  0  0
  141.9316   80.3813  223.7795 H   0  0  0  0  0  0  0  0  0  0  0  0
  142.4568   78.1053  223.0192 H   0  0  0  0  0  0  0  0  0  0  0  0
  1  2  2  0
  2  3  1  0
  3  4  1  0
  4  5  1  0
  5  6  2  0
  5  7  1  0
  7  8  1  0
  8  9  1  0
  9 10  1  0
  9 11  1  0
 11 12  1  0
 12 13  1  0
 13 14  2  0
 13 15  1  0
 15 16  1  0
 16 17  1  0
 17 18  1  0
 18 19  1  0
 19 20  1  0
 20 21  1  0
 21 22  1  0
 22 23  2  0
 23 24  1  0
 24 25  2  0
 25 26  1  0
 26 27  2  0
  2 28  1  0
 28 29  2  0
 29 30  1  0
 30 31  2  0
 31 32  1  0
 32 33  2  0
 33 34  1  0
 33 35  1  0
 35 36  2  0
 36 37  1  0
 37 38  2  0
 12  7  1  0
 21 16  1  0
 27 22  1  0
 38 28  1  0
 37 31  1  0
  3 39  1  0
  4 40  1  0
  4 41  1  0
  8 42  1  0
  8 43  1  0
  9 44  1  6
 10 45  1  0
 11 46  1  0
 11 47  1  0
 12 48  1  1
 15 49  1  0
 16 50  1  6
 17 51  1  0
 17 52  1  0
 18 53  1  0
 18 54  1  0
 19 55  1  0
 19 56  1  0
 20 57  1  0
 20 58  1  0
 21 59  1  1
 23 60  1  0
 24 61  1  0
 25 62  1  0
 26 63  1  0
 27 64  1  0
 29 65  1  0
 30 66  1  0
 32 67  1  0
 35 68  1  0
 36 69  1  0
M  END
>  <smiles>  (45) 
O=C(NCC(=O)N1C[C@H](O)C[C@H]1C(=O)N[C@@H]1CCCC[C@H]1c1ccccc1)c1ccc2cc(F)ccc2n1

>  <score_type>  (45) 
oracle

>  <origin>  (45) 
autodockgpu

>  <m_score__min__energy>  (45) 
-10.26

>  <m_primary>  (45) 
energy

>  <rmsd>  (45) 
6.276348790882364

>  <m_score__min__rmsd>  (45) 
6.276348790882364

>  <meeko>  (45) 
{"free_energy": -7.22, "intermolecular_energy": -9.61, "internal_energy": -5.1, "cluster_size": 12, "cluster_id": 9, "rank_in_cluster": 8}

>  <energy>  (45) 
-6.94

>  <cluster_rmsd>  (45) 
1.58

>  <cluster>  (45) 
9

$$$$

     RDKit          3D

 69 73  0  0  0  0  0  0  0  0999 V2000
  140.4780   71.8960  221.9330 O   0  0  0  0  0  0  0  0  0  0  0  0
  139.6770   71.8590  222.9050 C   0  0  0  0  0  0  0  0  0  0  0  0
  138.4230   72.5230  222.7040 N   0  0  0  0  0  0  0  0  0  0  0  0
  138.2270   73.1530  221.4160 C   0  0  0  0  0  0  0  0  0  0  0  0
  138.8080   74.5110  221.3480 C   0  0  0  0  0  0  0  0  0  0  0  0
  138.4630   75.4610  222.0990 O   0  0  0  0  0  0  0  0  0  0  0  0
  139.8070   74.7650  220.3900 N   0  0  0  0  0  0  0  0  0  0  0  0
  139.5480   75.2130  219.0440 C   0  0  0  0  0  0  0  0  0  0  0  0
  140.8470   75.0960  218.2830 C   0  0  2  0  0  0  0  0  0  0  0  0
  140.6340   74.5470  217.0110 O   0  0  0  0  0  0  0  0  0  0  0  0
  141.6650   74.1780  219.1400 C   0  0  0  0  0  0  0  0  0  0  0  0
  141.2610   74.6370  220.5330 C   0  0  1  0  0  0  0  0  0  0  0  0
  141.8000   76.0290  220.7050 C   0  0  0  0  0  0  0  0  0  0  0  0
  142.8470   76.3830  220.0660 O   0  0  0  0  0  0  0  0  0  0  0  0
  141.1210   76.8960  221.5690 N   0  0  0  0  0  0  0  0  0  0  0  0
  141.5450   78.2720  221.8180 C   0  0  2  0  0  0  0  0  0  0  0  0
  141.7110   78.3910  223.3020 C   0  0  0  0  0  0  0  0  0  0  0  0
  141.8210   79.7910  223.8160 C   0  0  0  0  0  0  0  0  0  0  0  0
  140.7700   80.7020  223.2970 C   0  0  0  0  0  0  0  0  0  0  0  0
  139.9710   80.2090  222.1410 C   0  0  0  0  0  0  0  0  0  0  0  0
  140.6440   79.2770  221.2010 C   0  0  1  0  0  0  0  0  0  0  0  0
  141.3100   79.9970  220.0560 C   0  0  0  0  0  0  0  0  0  0  0  0
  142.0100   79.2870  219.0960 C   0  0  0  0  0  0  0  0  0  0  0  0
  142.6260   79.9580  218.0360 C   0  0  0  0  0  0  0  0  0  0  0  0
  142.5340   81.3430  217.9520 C   0  0  0  0  0  0  0  0  0  0  0  0
  141.8410   82.0510  218.9030 C   0  0  0  0  0  0  0  0  0  0  0  0
  141.2370   81.3740  219.9450 C   0  0  0  0  0  0  0  0  0  0  0  0
  139.9890   71.1890  224.1560 C   0  0  0  0  0  0  0  0  0  0  0  0
  140.7220   71.8950  225.0920 C   0  0  0  0  0  0  0  0  0  0  0  0
  141.0700   71.3490  226.3080 C   0  0  0  0  0  0  0  0  0  0  0  0
  140.6740   70.0760  226.5890 C   0  0  0  0  0  0  0  0  0  0  0  0
  140.9980   69.4750  227.8040 C   0  0  0  0  0  0  0  0  0  0  0  0
  140.6040   68.1800  228.1040 C   0  0  0  0  0  0  0  0  0  0  0  0
  140.9470   67.6550  229.2940 F   0  0  0  0  0  0  0  0  0  0  0  0
  139.8700   67.4850  227.1560 C   0  0  0  0  0  0  0  0  0  0  0  0
  139.5590   68.0990  225.9580 C   0  0  0  0  0  0  0  0  0  0  0  0
  139.9380   69.3780  225.6380 C   0  0  0  0  0  0  0  0  0  0  0  0
  139.6110   69.9380  224.4540 N   0  0  0  0  0  0  0  0  0  0  0  0
  137.6990   72.5390  223.4600 H   0  0  0  0  0  0  0  0  0  0  0  0
  138.7007   72.5290  220.6438 H   0  0  0  0  0  0  0  0  0  0  0  0
  137.1430   73.2482  221.2554 H   0  0  0  0  0  0  0  0  0  0  0  0
  138.7782   74.5812  218.5770 H   0  0  0  0  0  0  0  0  0  0  0  0
  139.1816   76.2502  219.0388 H   0  0  0  0  0  0  0  0  0  0  0  0
  141.3352   76.0659  218.1069 H   0  0  0  0  0  0  0  0  0  0  0  0
  139.7350   74.1230  217.0720 H   0  0  0  0  0  0  0  0  0  0  0  0
  141.3994   73.1242  218.9699 H   0  0  0  0  0  0  0  0  0  0  0  0
  142.7467   74.2230  218.9456 H   0  0  0  0  0  0  0  0  0  0  0  0
  141.5964   73.9865  221.3542 H   0  0  0  0  0  0  0  0  0  0  0  0
  140.2560   76.6000  222.0940 H   0  0  0  0  0  0  0  0  0  0  0  0
  142.5024   78.4973  221.3255 H   0  0  0  0  0  0  0  0  0  0  0  0
  140.8408   77.9190  223.7815 H   0  0  0  0  0  0  0  0  0  0  0  0
  142.6643   77.8989  223.5449 H   0  0  0  0  0  0  0  0  0  0  0  0
  141.7469   79.7649  224.9132 H   0  0  0  0  0  0  0  0  0  0  0  0
  142.7877   80.1854  223.4696 H   0  0  0  0  0  0  0  0  0  0  0  0
  140.0716   80.9094  224.1211 H   0  0  0  0  0  0  0  0  0  0  0  0
  141.3103   81.5834  222.9210 H   0  0  0  0  0  0  0  0  0  0  0  0
  139.0882   79.6918  222.5450 H   0  0  0  0  0  0  0  0  0  0  0  0
  139.7519   81.1063  221.5436 H   0  0  0  0  0  0  0  0  0  0  0  0
  139.8130   78.6799  220.7974 H   0  0  0  0  0  0  0  0  0  0  0  0
  142.0817   78.1917  219.1675 H   0  0  0  0  0  0  0  0  0  0  0  0
  143.1808   79.3935  217.2721 H   0  0  0  0  0  0  0  0  0  0  0  0
  143.0187   81.8742  217.1196 H   0  0  0  0  0  0  0  0  0  0  0  0
  141.7675   83.1465  218.8358 H   0  0  0  0  0  0  0  0  0  0  0  0
  140.6840   81.9445  220.7058 H   0  0  0  0  0  0  0  0  0  0  0  0
  141.0366   72.9229  224.8588 H   0  0  0  0  0  0  0  0  0  0  0  0
  141.6554   71.9287  227.0369 H   0  0  0  0  0  0  0  0  0  0  0  0
  141.5813   70.0427  228.5439 H   0  0  0  0  0  0  0  0  0  0  0  0
  139.5384   66.4553  227.3552 H   0  0  0  0  0  0  0  0  0  0  0  0
  138.9748   67.5304  225.2194 H   0  0  0  0  0  0  0  0  0  0  0  0
  1  2  2  0
  2  3  1  0
  3  4  1  0
  4  5  1  0
  5  6  2  0
  5  7  1  0
  7  8  1  0
  8  9  1  0
  9 10  1  0
  9 11  1  0
 11 12  1  0
 12 13  1  0
 13 14  2  0
 13 15  1  0
 15 16  1  0
 16 17  1  0
 17 18  1  0
 18 19  1  0
 19 20  1  0
 20 21  1  0
 21 22  1  0
 22 23  2  0
 23 24  1  0
 24 25  2  0
 25 26  1  0
 26 27  2  0
  2 28  1  0
 28 29  2  0
 29 30  1  0
 30 31  2  0
 31 32  1  0
 32 33  2  0
 33 34  1  0
 33 35  1  0
 35 36  2  0
 36 37  1  0
 37 38  2  0
 12  7  1  0
 21 16  1  0
 27 22  1  0
 38 28  1  0
 37 31  1  0
  3 39  1  0
  4 40  1  0
  4 41  1  0
  8 42  1  0
  8 43  1  0
  9 44  1  6
 10 45  1  0
 11 46  1  0
 11 47  1  0
 12 48  1  1
 15 49  1  0
 16 50  1  6
 17 51  1  0
 17 52  1  0
 18 53  1  0
 18 54  1  0
 19 55  1  0
 19 56  1  0
 20 57  1  0
 20 58  1  0
 21 59  1  6
 23 60  1  0
 24 61  1  0
 25 62  1  0
 26 63  1  0
 27 64  1  0
 29 65  1  0
 30 66  1  0
 32 67  1  0
 35 68  1  0
 36 69  1  0
M  END
>  <smiles>  (46) 
O=C(NCC(=O)N1C[C@H](O)C[C@H]1C(=O)N[C@@H]1CCCC[C@H]1c1ccccc1)c1ccc2cc(F)ccc2n1

>  <score_type>  (46) 
oracle

>  <origin>  (46) 
autodockgpu

>  <m_score__min__energy>  (46) 
-10.26

>  <m_primary>  (46) 
energy

>  <rmsd>  (46) 
2.973652785357801

>  <m_score__min__rmsd>  (46) 
2.973652785357801

>  <meeko>  (46) 
{"free_energy": -8.56, "intermolecular_energy": -10.95, "internal_energy": -3.24, "cluster_size": 10, "cluster_id": 3, "rank_in_cluster": 10}

>  <energy>  (46) 
-6.8

>  <cluster_rmsd>  (46) 
1.63

>  <cluster>  (46) 
9

$$$$

     RDKit          3D

 69 73  0  0  0  0  0  0  0  0999 V2000
  139.1890   71.2280  221.2270 O   0  0  0  0  0  0  0  0  0  0  0  0
  138.8260   71.6370  222.3620 C   0  0  0  0  0  0  0  0  0  0  0  0
  137.8240   72.6620  222.3630 N   0  0  0  0  0  0  0  0  0  0  0  0
  137.3500   73.1010  221.0670 C   0  0  0  0  0  0  0  0  0  0  0  0
  137.6070   74.5350  220.8190 C   0  0  0  0  0  0  0  0  0  0  0  0
  136.7010   75.3940  220.6590 O   0  0  0  0  0  0  0  0  0  0  0  0
  138.9430   74.9740  220.7550 N   0  0  0  0  0  0  0  0  0  0  0  0
  139.5480   75.5680  219.5900 C   0  0  0  0  0  0  0  0  0  0  0  0
  141.0350   75.6370  219.8520 C   0  0  2  0  0  0  0  0  0  0  0  0
  141.7610   75.2380  218.7220 O   0  0  0  0  0  0  0  0  0  0  0  0
  141.2270   74.6770  220.9870 C   0  0  0  0  0  0  0  0  0  0  0  0
  139.9680   74.9290  221.8030 C   0  0  1  0  0  0  0  0  0  0  0  0
  140.0800   76.3230  222.3540 C   0  0  0  0  0  0  0  0  0  0  0  0
  141.1780   76.7060  222.8820 O   0  0  0  0  0  0  0  0  0  0  0  0
  138.9600   77.1590  222.2630 N   0  0  0  0  0  0  0  0  0  0  0  0
  138.9460   78.5330  222.7610 C   0  0  2  0  0  0  0  0  0  0  0  0
  137.5040   78.8770  222.9830 C   0  0  0  0  0  0  0  0  0  0  0  0
  137.2240   80.3330  223.1760 C   0  0  0  0  0  0  0  0  0  0  0  0
  137.8550   81.2040  222.1520 C   0  0  0  0  0  0  0  0  0  0  0  0
  138.8950   80.5760  221.2920 C   0  0  0  0  0  0  0  0  0  0  0  0
  139.6920   79.4730  221.8880 C   0  0  1  0  0  0  0  0  0  0  0  0
  140.9540   79.9670  222.5480 C   0  0  0  0  0  0  0  0  0  0  0  0
  142.1710   79.3760  222.2600 C   0  0  0  0  0  0  0  0  0  0  0  0
  143.3400   79.8370  222.8730 C   0  0  0  0  0  0  0  0  0  0  0  0
  143.2710   80.8920  223.7770 C   0  0  0  0  0  0  0  0  0  0  0  0
  142.0650   81.4810  224.0660 C   0  0  0  0  0  0  0  0  0  0  0  0
  140.9200   81.0150  223.4510 C   0  0  0  0  0  0  0  0  0  0  0  0
  139.3790   71.1160  223.5990 C   0  0  0  0  0  0  0  0  0  0  0  0
  140.3370   71.8780  224.2420 C   0  0  0  0  0  0  0  0  0  0  0  0
  140.9230   71.4710  225.4210 C   0  0  0  0  0  0  0  0  0  0  0  0
  140.5400   70.2800  225.9630 C   0  0  0  0  0  0  0  0  0  0  0  0
  141.0990   69.8200  227.1540 C   0  0  0  0  0  0  0  0  0  0  0  0
  140.7210   68.6120  227.7160 C   0  0  0  0  0  0  0  0  0  0  0  0
  141.2980   68.2220  228.8680 F   0  0  0  0  0  0  0  0  0  0  0  0
  139.7600   67.8580  227.0610 C   0  0  0  0  0  0  0  0  0  0  0  0
  139.2170   68.3320  225.8830 C   0  0  0  0  0  0  0  0  0  0  0  0
  139.5760   69.5240  225.3050 C   0  0  0  0  0  0  0  0  0  0  0  0
  139.0190   69.9480  224.1510 N   0  0  0  0  0  0  0  0  0  0  0  0
  137.4660   73.0590  223.2630 H   0  0  0  0  0  0  0  0  0  0  0  0
  137.8589   72.5130  220.2890 H   0  0  0  0  0  0  0  0  0  0  0  0
  136.2605   72.9510  221.0446 H   0  0  0  0  0  0  0  0  0  0  0  0
  139.3489   74.9484  218.7032 H   0  0  0  0  0  0  0  0  0  0  0  0
  139.1355   76.5700  219.4007 H   0  0  0  0  0  0  0  0  0  0  0  0
  141.3881   76.6525  220.0848 H   0  0  0  0  0  0  0  0  0  0  0  0
  141.0720   75.1240  218.0120 H   0  0  0  0  0  0  0  0  0  0  0  0
  141.2757   73.6371  220.6316 H   0  0  0  0  0  0  0  0  0  0  0  0
  142.1636   74.8201  221.5459 H   0  0  0  0  0  0  0  0  0  0  0  0
  139.7825   74.2054  222.6105 H   0  0  0  0  0  0  0  0  0  0  0  0
  138.0560   76.8400  221.8250 H   0  0  0  0  0  0  0  0  0  0  0  0
  139.4929   78.6269  223.7108 H   0  0  0  0  0  0  0  0  0  0  0  0
  136.9325   78.5326  222.1085 H   0  0  0  0  0  0  0  0  0  0  0  0
  137.2103   78.3808  223.9198 H   0  0  0  0  0  0  0  0  0  0  0  0
  136.1352   80.4851  223.1379 H   0  0  0  0  0  0  0  0  0  0  0  0
  137.6541   80.6166  224.1479 H   0  0  0  0  0  0  0  0  0  0  0  0
  137.0569   81.5761  221.4927 H   0  0  0  0  0  0  0  0  0  0  0  0
  138.3814   81.9850  222.7202 H   0  0  0  0  0  0  0  0  0  0  0  0
  138.3900   80.1754  220.4007 H   0  0  0  0  0  0  0  0  0  0  0  0
  139.6222   81.3774  221.0947 H   0  0  0  0  0  0  0  0  0  0  0  0
  139.9737   78.8639  221.0164 H   0  0  0  0  0  0  0  0  0  0  0  0
  142.2193   78.5404  221.5462 H   0  0  0  0  0  0  0  0  0  0  0  0
  144.3080   79.3684  222.6419 H   0  0  0  0  0  0  0  0  0  0  0  0
  144.1880   81.2564  224.2631 H   0  0  0  0  0  0  0  0  0  0  0  0
  142.0115   82.3158  224.7803 H   0  0  0  0  0  0  0  0  0  0  0  0
  139.9555   81.4893  223.6850 H   0  0  0  0  0  0  0  0  0  0  0  0
  140.6405   72.8380  223.7991 H   0  0  0  0  0  0  0  0  0  0  0  0
  141.6837   72.0938  225.9144 H   0  0  0  0  0  0  0  0  0  0  0  0
  141.8598   70.4320  227.6605 H   0  0  0  0  0  0  0  0  0  0  0  0
  139.4334   66.8926  227.4749 H   0  0  0  0  0  0  0  0  0  0  0  0
  138.4540   67.7199  225.3797 H   0  0  0  0  0  0  0  0  0  0  0  0
  1  2  2  0
  2  3  1  0
  3  4  1  0
  4  5  1  0
  5  6  2  0
  5  7  1  0
  7  8  1  0
  8  9  1  0
  9 10  1  0
  9 11  1  0
 11 12  1  0
 12 13  1  0
 13 14  2  0
 13 15  1  0
 15 16  1  0
 16 17  1  0
 17 18  1  0
 18 19  1  0
 19 20  1  0
 20 21  1  0
 21 22  1  0
 22 23  2  0
 23 24  1  0
 24 25  2  0
 25 26  1  0
 26 27  2  0
  2 28  1  0
 28 29  2  0
 29 30  1  0
 30 31  2  0
 31 32  1  0
 32 33  2  0
 33 34  1  0
 33 35  1  0
 35 36  2  0
 36 37  1  0
 37 38  2  0
 12  7  1  0
 21 16  1  0
 27 22  1  0
 38 28  1  0
 37 31  1  0
  3 39  1  0
  4 40  1  0
  4 41  1  0
  8 42  1  0
  8 43  1  0
  9 44  1  1
 10 45  1  0
 11 46  1  0
 11 47  1  0
 12 48  1  1
 15 49  1  0
 16 50  1  1
 17 51  1  0
 17 52  1  0
 18 53  1  0
 18 54  1  0
 19 55  1  0
 19 56  1  0
 20 57  1  0
 20 58  1  0
 21 59  1  6
 23 60  1  0
 24 61  1  0
 25 62  1  0
 26 63  1  0
 27 64  1  0
 29 65  1  0
 30 66  1  0
 32 67  1  0
 35 68  1  0
 36 69  1  0
M  END
>  <smiles>  (47) 
O=C(NCC(=O)N1C[C@H](O)C[C@H]1C(=O)N[C@@H]1CCCC[C@H]1c1ccccc1)c1ccc2cc(F)ccc2n1

>  <score_type>  (47) 
oracle

>  <origin>  (47) 
autodockgpu

>  <m_score__min__energy>  (47) 
-10.26

>  <m_primary>  (47) 
energy

>  <rmsd>  (47) 
3.476973403495174

>  <m_score__min__rmsd>  (47) 
3.476973403495174

>  <meeko>  (47) 
{"free_energy": -8.73, "intermolecular_energy": -11.12, "internal_energy": -3.25, "cluster_size": 3, "cluster_id": 4, "rank_in_cluster": 1}

>  <energy>  (47) 
-5.85

>  <cluster_rmsd>  (47) 
1.88

>  <cluster>  (47) 
9

$$$$

     RDKit          3D

 69 73  0  0  0  0  0  0  0  0999 V2000
  140.2510   72.9780  222.4960 O   0  0  0  0  0  0  0  0  0  0  0  0
  140.1330   73.9280  221.6770 C   0  0  0  0  0  0  0  0  0  0  0  0
  140.2380   73.5740  220.2920 N   0  0  0  0  0  0  0  0  0  0  0  0
  140.4650   72.1740  220.0010 C   0  0  0  0  0  0  0  0  0  0  0  0
  141.8890   71.7910  220.1080 C   0  0  0  0  0  0  0  0  0  0  0  0
  142.2850   70.6420  220.4350 O   0  0  0  0  0  0  0  0  0  0  0  0
  142.8660   72.7640  219.8290 N   0  0  0  0  0  0  0  0  0  0  0  0
  143.8920   72.6230  218.8250 C   0  0  0  0  0  0  0  0  0  0  0  0
  144.8770   73.7490  219.0400 C   0  0  2  0  0  0  0  0  0  0  0  0
  146.1950   73.2860  218.9370 O   0  0  0  0  0  0  0  0  0  0  0  0
  144.5710   74.2110  220.4330 C   0  0  0  0  0  0  0  0  0  0  0  0
  143.0560   74.0740  220.4630 C   0  0  1  0  0  0  0  0  0  0  0  0
  142.5080   75.0960  219.5080 C   0  0  0  0  0  0  0  0  0  0  0  0
  142.2330   74.7550  218.3080 O   0  0  0  0  0  0  0  0  0  0  0  0
  142.3170   76.4020  219.9770 N   0  0  0  0  0  0  0  0  0  0  0  0
  141.7920   77.4820  219.1460 C   0  0  2  0  0  0  0  0  0  0  0  0
  142.9250   77.9140  218.2650 C   0  0  0  0  0  0  0  0  0  0  0  0
  142.7190   79.2190  217.5640 C   0  0  0  0  0  0  0  0  0  0  0  0
  142.2590   80.3110  218.4590 C   0  0  0  0  0  0  0  0  0  0  0  0
  141.7790   79.9090  219.8100 C   0  0  0  0  0  0  0  0  0  0  0  0
  141.1580   78.5660  219.9360 C   0  0  1  0  0  0  0  0  0  0  0  0
  139.6640   78.6020  219.7390 C   0  0  0  0  0  0  0  0  0  0  0  0
  138.9890   77.4770  219.2990 C   0  0  0  0  0  0  0  0  0  0  0  0
  137.6040   77.5140  219.1170 C   0  0  0  0  0  0  0  0  0  0  0  0
  136.9080   78.6890  219.3790 C   0  0  0  0  0  0  0  0  0  0  0  0
  137.5740   79.8070  219.8160 C   0  0  0  0  0  0  0  0  0  0  0  0
  138.9420   79.7560  219.9910 C   0  0  0  0  0  0  0  0  0  0  0  0
  139.9040   75.3010  222.0940 C   0  0  0  0  0  0  0  0  0  0  0  0
  138.5930   75.7250  222.2040 C   0  0  0  0  0  0  0  0  0  0  0  0
  138.2710   77.0070  222.5910 C   0  0  0  0  0  0  0  0  0  0  0  0
  139.2820   77.8770  222.8730 C   0  0  0  0  0  0  0  0  0  0  0  0
  139.0130   79.1860  223.2690 C   0  0  0  0  0  0  0  0  0  0  0  0
  140.0300   80.0810  223.5590 C   0  0  0  0  0  0  0  0  0  0  0  0
  139.7070   81.3320  223.9360 F   0  0  0  0  0  0  0  0  0  0  0  0
  141.3400   79.6430  223.4440 C   0  0  0  0  0  0  0  0  0  0  0  0
  141.5840   78.3420  223.0500 C   0  0  0  0  0  0  0  0  0  0  0  0
  140.5950   77.4360  222.7570 C   0  0  0  0  0  0  0  0  0  0  0  0
  140.8810   76.1730  222.3760 N   0  0  0  0  0  0  0  0  0  0  0  0
  140.1510   74.3020  219.5460 H   0  0  0  0  0  0  0  0  0  0  0  0
  139.8836   71.5684  220.7118 H   0  0  0  0  0  0  0  0  0  0  0  0
  140.1510   71.9962  218.9619 H   0  0  0  0  0  0  0  0  0  0  0  0
  144.3977   71.6523  218.9351 H   0  0  0  0  0  0  0  0  0  0  0  0
  143.4609   72.6657  217.8139 H   0  0  0  0  0  0  0  0  0  0  0  0
  144.7879   74.5520  218.2935 H   0  0  0  0  0  0  0  0  0  0  0  0
  146.7300   74.1030  218.7400 H   0  0  0  0  0  0  0  0  0  0  0  0
  145.0491   73.5668  221.1856 H   0  0  0  0  0  0  0  0  0  0  0  0
  144.9378   75.2219  220.6644 H   0  0  0  0  0  0  0  0  0  0  0  0
  142.5977   74.1857  221.4567 H   0  0  0  0  0  0  0  0  0  0  0  0
  142.5450   76.6800  220.9690 H   0  0  0  0  0  0  0  0  0  0  0  0
  140.9538   77.1418  218.5202 H   0  0  0  0  0  0  0  0  0  0  0  0
  143.8277   78.0000  218.8877 H   0  0  0  0  0  0  0  0  0  0  0  0
  143.0090   77.1516  217.4765 H   0  0  0  0  0  0  0  0  0  0  0  0
  143.6727   79.5225  217.1076 H   0  0  0  0  0  0  0  0  0  0  0  0
  141.9277   79.0611  216.8164 H   0  0  0  0  0  0  0  0  0  0  0  0
  143.1004   81.0059  218.5971 H   0  0  0  0  0  0  0  0  0  0  0  0
  141.3821   80.7465  217.9577 H   0  0  0  0  0  0  0  0  0  0  0  0
  142.6423   79.9400  220.4910 H   0  0  0  0  0  0  0  0  0  0  0  0
  140.9728   80.6185  220.0480 H   0  0  0  0  0  0  0  0  0  0  0  0
  141.3615   78.2899  220.9812 H   0  0  0  0  0  0  0  0  0  0  0  0
  139.5445   76.5505  219.0918 H   0  0  0  0  0  0  0  0  0  0  0  0
  137.0676   76.6191  218.7686 H   0  0  0  0  0  0  0  0  0  0  0  0
  135.8180   78.7228  219.2353 H   0  0  0  0  0  0  0  0  0  0  0  0
  137.0222   80.7354  220.0248 H   0  0  0  0  0  0  0  0  0  0  0  0
  139.4719   80.6548  220.3394 H   0  0  0  0  0  0  0  0  0  0  0  0
  137.7825   75.0173  221.9756 H   0  0  0  0  0  0  0  0  0  0  0  0
  137.2202   77.3223  222.6709 H   0  0  0  0  0  0  0  0  0  0  0  0
  137.9673   79.5167  223.3534 H   0  0  0  0  0  0  0  0  0  0  0  0
  142.1756   80.3237  223.6640 H   0  0  0  0  0  0  0  0  0  0  0  0
  142.6303   78.0130  222.9662 H   0  0  0  0  0  0  0  0  0  0  0  0
  1  2  2  0
  2  3  1  0
  3  4  1  0
  4  5  1  0
  5  6  2  0
  5  7  1  0
  7  8  1  0
  8  9  1  0
  9 10  1  0
  9 11  1  0
 11 12  1  0
 12 13  1  0
 13 14  2  0
 13 15  1  0
 15 16  1  0
 16 17  1  0
 17 18  1  0
 18 19  1  0
 19 20  1  0
 20 21  1  0
 21 22  1  0
 22 23  2  0
 23 24  1  0
 24 25  2  0
 25 26  1  0
 26 27  2  0
  2 28  1  0
 28 29  2  0
 29 30  1  0
 30 31  2  0
 31 32  1  0
 32 33  2  0
 33 34  1  0
 33 35  1  0
 35 36  2  0
 36 37  1  0
 37 38  2  0
 12  7  1  0
 21 16  1  0
 27 22  1  0
 38 28  1  0
 37 31  1  0
  3 39  1  0
  4 40  1  0
  4 41  1  0
  8 42  1  0
  8 43  1  0
  9 44  1  6
 10 45  1  0
 11 46  1  0
 11 47  1  0
 12 48  1  1
 15 49  1  0
 16 50  1  6
 17 51  1  0
 17 52  1  0
 18 53  1  0
 18 54  1  0
 19 55  1  0
 19 56  1  0
 20 57  1  0
 20 58  1  0
 21 59  1  1
 23 60  1  0
 24 61  1  0
 25 62  1  0
 26 63  1  0
 27 64  1  0
 29 65  1  0
 30 66  1  0
 32 67  1  0
 35 68  1  0
 36 69  1  0
M  END
>  <smiles>  (48) 
O=C(NCC(=O)N1C[C@H](O)C[C@H]1C(=O)N[C@@H]1CCCC[C@H]1c1ccccc1)c1ccc2cc(F)ccc2n1

>  <score_type>  (48) 
oracle

>  <origin>  (48) 
autodockgpu

>  <m_score__min__energy>  (48) 
-10.26

>  <m_primary>  (48) 
energy

>  <rmsd>  (48) 
6.380544004996864

>  <m_score__min__rmsd>  (48) 
6.380544004996864

>  <meeko>  (48) 
{"free_energy": -7.28, "intermolecular_energy": -9.67, "internal_energy": -5.19, "cluster_size": 12, "cluster_id": 9, "rank_in_cluster": 4}

>  <energy>  (48) 
-7.29

>  <cluster_rmsd>  (48) 
0.0

>  <cluster>  (48) 
10

$$$$

     RDKit          3D

 69 73  0  0  0  0  0  0  0  0999 V2000
  140.1620   71.8040  221.7500 O   0  0  0  0  0  0  0  0  0  0  0  0
  139.3830   71.7670  222.7400 C   0  0  0  0  0  0  0  0  0  0  0  0
  138.2470   72.6390  222.6710 N   0  0  0  0  0  0  0  0  0  0  0  0
  138.1310   73.4520  221.4790 C   0  0  0  0  0  0  0  0  0  0  0  0
  138.9240   74.6970  221.5560 C   0  0  0  0  0  0  0  0  0  0  0  0
  138.8300   75.5330  222.4920 O   0  0  0  0  0  0  0  0  0  0  0  0
  139.8410   74.9710  220.5240 N   0  0  0  0  0  0  0  0  0  0  0  0
  139.4690   75.3890  219.1950 C   0  0  0  0  0  0  0  0  0  0  0  0
  140.7130   75.3060  218.3420 C   0  0  2  0  0  0  0  0  0  0  0  0
  140.4290   74.7310  217.0960 O   0  0  0  0  0  0  0  0  0  0  0  0
  141.6240   74.4310  219.1490 C   0  0  0  0  0  0  0  0  0  0  0  0
  141.3060   74.8970  220.5620 C   0  0  1  0  0  0  0  0  0  0  0  0
  141.8040   76.3100  220.6750 C   0  0  0  0  0  0  0  0  0  0  0  0
  142.7140   76.7240  219.8800 O   0  0  0  0  0  0  0  0  0  0  0  0
  141.2410   77.1300  221.6620 N   0  0  0  0  0  0  0  0  0  0  0  0
  141.6410   78.5200  221.8700 C   0  0  2  0  0  0  0  0  0  0  0  0
  141.8440   78.6740  223.3460 C   0  0  0  0  0  0  0  0  0  0  0  0
  141.9360   80.0870  223.8270 C   0  0  0  0  0  0  0  0  0  0  0  0
  140.8500   80.9630  223.3190 C   0  0  0  0  0  0  0  0  0  0  0  0
  140.0320   80.4280  222.1960 C   0  0  0  0  0  0  0  0  0  0  0  0
  140.7010   79.4910  221.2570 C   0  0  1  0  0  0  0  0  0  0  0  0
  141.3190   80.2010  220.0800 C   0  0  0  0  0  0  0  0  0  0  0  0
  141.2120   81.5750  219.9580 C   0  0  0  0  0  0  0  0  0  0  0  0
  141.7860   82.2310  218.8650 C   0  0  0  0  0  0  0  0  0  0  0  0
  142.4650   81.4940  217.9000 C   0  0  0  0  0  0  0  0  0  0  0  0
  142.5730   80.1300  218.0180 C   0  0  0  0  0  0  0  0  0  0  0  0
  142.0010   79.4970  219.1030 C   0  0  0  0  0  0  0  0  0  0  0  0
  139.6070   70.9030  223.8850 C   0  0  0  0  0  0  0  0  0  0  0  0
  139.2130   69.5820  223.7750 C   0  0  0  0  0  0  0  0  0  0  0  0
  139.3820   68.6820  224.8050 C   0  0  0  0  0  0  0  0  0  0  0  0
  139.9560   69.1150  225.9630 C   0  0  0  0  0  0  0  0  0  0  0  0
  140.1500   68.2480  227.0360 C   0  0  0  0  0  0  0  0  0  0  0  0
  140.7310   68.6740  228.2200 C   0  0  0  0  0  0  0  0  0  0  0  0
  140.8920   67.7890  229.2200 F   0  0  0  0  0  0  0  0  0  0  0  0
  141.1210   70.0010  228.3160 C   0  0  0  0  0  0  0  0  0  0  0  0
  140.9200   70.8440  227.2410 C   0  0  0  0  0  0  0  0  0  0  0  0
  140.3460   70.4460  226.0590 C   0  0  0  0  0  0  0  0  0  0  0  0
  140.1680   71.3060  225.0330 N   0  0  0  0  0  0  0  0  0  0  0  0
  137.5490   72.6700  223.4500 H   0  0  0  0  0  0  0  0  0  0  0  0
  138.4814   72.8647  220.6174 H   0  0  0  0  0  0  0  0  0  0  0  0
  137.0740   73.7382  221.3746 H   0  0  0  0  0  0  0  0  0  0  0  0
  138.6905   74.7235  218.7936 H   0  0  0  0  0  0  0  0  0  0  0  0
  139.0662   76.4126  219.2035 H   0  0  0  0  0  0  0  0  0  0  0  0
  141.1513   76.2897  218.1179 H   0  0  0  0  0  0  0  0  0  0  0  0
  139.4500   74.8710  216.9770 H   0  0  0  0  0  0  0  0  0  0  0  0
  141.3853   73.3659  219.0125 H   0  0  0  0  0  0  0  0  0  0  0  0
  142.6864   74.5114  218.8754 H   0  0  0  0  0  0  0  0  0  0  0  0
  141.7241   74.2720  221.3648 H   0  0  0  0  0  0  0  0  0  0  0  0
  140.4900   76.7850  222.3150 H   0  0  0  0  0  0  0  0  0  0  0  0
  142.5795   78.7560  221.3470 H   0  0  0  0  0  0  0  0  0  0  0  0
  140.9979   78.1933  223.8588 H   0  0  0  0  0  0  0  0  0  0  0  0
  142.8141   78.2080  223.5733 H   0  0  0  0  0  0  0  0  0  0  0  0
  141.8933   80.0830  224.9262 H   0  0  0  0  0  0  0  0  0  0  0  0
  142.8833   80.4953  223.4449 H   0  0  0  0  0  0  0  0  0  0  0  0
  140.1695   81.1714  224.1578 H   0  0  0  0  0  0  0  0  0  0  0  0
  141.3590   81.8486  222.9107 H   0  0  0  0  0  0  0  0  0  0  0  0
  139.1724   79.9000  222.6346 H   0  0  0  0  0  0  0  0  0  0  0  0
  139.7765   81.3072  221.5864 H   0  0  0  0  0  0  0  0  0  0  0  0
  139.8736   78.8668  220.8886 H   0  0  0  0  0  0  0  0  0  0  0  0
  140.6736   82.1531  220.7234 H   0  0  0  0  0  0  0  0  0  0  0  0
  141.7013   83.3235  218.7686 H   0  0  0  0  0  0  0  0  0  0  0  0
  142.9176   82.0063  217.0382 H   0  0  0  0  0  0  0  0  0  0  0  0
  143.1103   79.5475  217.2551 H   0  0  0  0  0  0  0  0  0  0  0  0
  142.0896   78.4043  219.1935 H   0  0  0  0  0  0  0  0  0  0  0  0
  138.7509   69.2393  222.8374 H   0  0  0  0  0  0  0  0  0  0  0  0
  139.0603   67.6359  224.6948 H   0  0  0  0  0  0  0  0  0  0  0  0
  139.8340   67.1986  226.9411 H   0  0  0  0  0  0  0  0  0  0  0  0
  141.5857   70.3783  229.2389 H   0  0  0  0  0  0  0  0  0  0  0  0
  141.2374   71.8928  227.3370 H   0  0  0  0  0  0  0  0  0  0  0  0
  1  2  2  0
  2  3  1  0
  3  4  1  0
  4  5  1  0
  5  6  2  0
  5  7  1  0
  7  8  1  0
  8  9  1  0
  9 10  1  0
  9 11  1  0
 11 12  1  0
 12 13  1  0
 13 14  2  0
 13 15  1  0
 15 16  1  0
 16 17  1  0
 17 18  1  0
 18 19  1  0
 19 20  1  0
 20 21  1  0
 21 22  1  0
 22 23  2  0
 23 24  1  0
 24 25  2  0
 25 26  1  0
 26 27  2  0
  2 28  1  0
 28 29  2  0
 29 30  1  0
 30 31  2  0
 31 32  1  0
 32 33  2  0
 33 34  1  0
 33 35  1  0
 35 36  2  0
 36 37  1  0
 37 38  2  0
 12  7  1  0
 21 16  1  0
 27 22  1  0
 38 28  1  0
 37 31  1  0
  3 39  1  0
  4 40  1  0
  4 41  1  0
  8 42  1  0
  8 43  1  0
  9 44  1  6
 10 45  1  0
 11 46  1  0
 11 47  1  0
 12 48  1  1
 15 49  1  0
 16 50  1  6
 17 51  1  0
 17 52  1  0
 18 53  1  0
 18 54  1  0
 19 55  1  0
 19 56  1  0
 20 57  1  0
 20 58  1  0
 21 59  1  6
 23 60  1  0
 24 61  1  0
 25 62  1  0
 26 63  1  0
 27 64  1  0
 29 65  1  0
 30 66  1  0
 32 67  1  0
 35 68  1  0
 36 69  1  0
M  END
>  <smiles>  (49) 
O=C(NCC(=O)N1C[C@H](O)C[C@H]1C(=O)N[C@@H]1CCCC[C@H]1c1ccccc1)c1ccc2cc(F)ccc2n1

>  <score_type>  (49) 
oracle

>  <origin>  (49) 
autodockgpu

>  <m_score__min__energy>  (49) 
-10.26

>  <m_primary>  (49) 
energy

>  <rmsd>  (49) 
1.9789670259723624

>  <m_score__min__rmsd>  (49) 
1.9789670259723624

>  <meeko>  (49) 
{"free_energy": -8.83, "intermolecular_energy": -11.22, "internal_energy": -3.13, "cluster_size": 10, "cluster_id": 3, "rank_in_cluster": 7}

>  <energy>  (49) 
-7.19

>  <cluster_rmsd>  (49) 
0.45

>  <cluster>  (49) 
10

$$$$

     RDKit          3D

 69 73  0  0  0  0  0  0  0  0999 V2000
  140.8530   72.4230  221.7890 O   0  0  0  0  0  0  0  0  0  0  0  0
  139.9090   72.2810  222.6100 C   0  0  0  0  0  0  0  0  0  0  0  0
  138.7310   73.0540  222.3460 N   0  0  0  0  0  0  0  0  0  0  0  0
  138.7680   73.9010  221.1720 C   0  0  0  0  0  0  0  0  0  0  0  0
  139.7170   75.0260  221.3070 C   0  0  0  0  0  0  0  0  0  0  0  0
  139.9290   75.6400  222.3860 O   0  0  0  0  0  0  0  0  0  0  0  0
  140.4280   75.4430  220.1670 N   0  0  0  0  0  0  0  0  0  0  0  0
  139.8110   75.8900  218.9420 C   0  0  0  0  0  0  0  0  0  0  0  0
  140.9050   75.9750  217.9040 C   0  0  2  0  0  0  0  0  0  0  0  0
  140.4770   75.4390  216.6810 O   0  0  0  0  0  0  0  0  0  0  0  0
  142.0080   75.1530  218.5000 C   0  0  0  0  0  0  0  0  0  0  0  0
  141.8800   75.5120  219.9730 C   0  0  1  0  0  0  0  0  0  0  0  0
  142.2620   76.9590  220.1020 C   0  0  0  0  0  0  0  0  0  0  0  0
  142.9710   77.5080  219.1920 O   0  0  0  0  0  0  0  0  0  0  0  0
  141.8180   77.6600  221.2310 N   0  0  0  0  0  0  0  0  0  0  0  0
  142.1220   79.0690  221.4680 C   0  0  2  0  0  0  0  0  0  0  0  0
  142.4370   79.1820  222.9290 C   0  0  0  0  0  0  0  0  0  0  0  0
  142.4570   80.5780  223.4650 C   0  0  0  0  0  0  0  0  0  0  0  0
  141.2660   81.3810  223.0860 C   0  0  0  0  0  0  0  0  0  0  0  0
  140.4010   80.8230  222.0110 C   0  0  0  0  0  0  0  0  0  0  0  0
  141.0600   79.9820  220.9790 C   0  0  1  0  0  0  0  0  0  0  0  0
  141.5170   80.7850  219.7890 C   0  0  0  0  0  0  0  0  0  0  0  0
  141.2720   82.1460  219.7280 C   0  0  0  0  0  0  0  0  0  0  0  0
  141.6970   82.8890  218.6230 C   0  0  0  0  0  0  0  0  0  0  0  0
  142.3680   82.2520  217.5840 C   0  0  0  0  0  0  0  0  0  0  0  0
  142.6140   80.9020  217.6410 C   0  0  0  0  0  0  0  0  0  0  0  0
  142.1870   80.1820  218.7390 C   0  0  0  0  0  0  0  0  0  0  0  0
  139.9920   71.3930  223.7580 C   0  0  0  0  0  0  0  0  0  0  0  0
  139.5300   70.1000  223.5990 C   0  0  0  0  0  0  0  0  0  0  0  0
  139.5650   69.1820  224.6260 C   0  0  0  0  0  0  0  0  0  0  0  0
  140.0710   69.5690  225.8310 C   0  0  0  0  0  0  0  0  0  0  0  0
  140.1300   68.6820  226.9040 C   0  0  0  0  0  0  0  0  0  0  0  0
  140.6410   69.0620  228.1350 C   0  0  0  0  0  0  0  0  0  0  0  0
  140.6710   68.1590  229.1320 F   0  0  0  0  0  0  0  0  0  0  0  0
  141.1000   70.3620  228.2790 C   0  0  0  0  0  0  0  0  0  0  0  0
  141.0330   71.2250  227.2040 C   0  0  0  0  0  0  0  0  0  0  0  0
  140.5300   70.8740  225.9750 C   0  0  0  0  0  0  0  0  0  0  0  0
  140.4840   71.7520  224.9510 N   0  0  0  0  0  0  0  0  0  0  0  0
  137.9000   72.9950  222.9780 H   0  0  0  0  0  0  0  0  0  0  0  0
  139.0675   73.2904  220.3074 H   0  0  0  0  0  0  0  0  0  0  0  0
  137.7633   74.3292  221.0408 H   0  0  0  0  0  0  0  0  0  0  0  0
  139.0415   75.1719  218.6223 H   0  0  0  0  0  0  0  0  0  0  0  0
  139.3237   76.8664  219.0806 H   0  0  0  0  0  0  0  0  0  0  0  0
  141.2124   77.0075  217.6816 H   0  0  0  0  0  0  0  0  0  0  0  0
  141.3150   75.3140  216.1590 H   0  0  0  0  0  0  0  0  0  0  0  0
  141.8462   74.0781  218.3314 H   0  0  0  0  0  0  0  0  0  0  0  0
  143.0014   75.3512  218.0713 H   0  0  0  0  0  0  0  0  0  0  0  0
  142.4753   74.8905  220.6581 H   0  0  0  0  0  0  0  0  0  0  0  0
  141.2320   77.2030  221.9790 H   0  0  0  0  0  0  0  0  0  0  0  0
  142.9904   79.4019  220.8806 H   0  0  0  0  0  0  0  0  0  0  0  0
  141.6784   78.6132  223.4866 H   0  0  0  0  0  0  0  0  0  0  0  0
  143.4569   78.7897  223.0549 H   0  0  0  0  0  0  0  0  0  0  0  0
  142.5068   80.5277  224.5627 H   0  0  0  0  0  0  0  0  0  0  0  0
  143.3338   81.0776  223.0272 H   0  0  0  0  0  0  0  0  0  0  0  0
  140.6446   81.5014  223.9856 H   0  0  0  0  0  0  0  0  0  0  0  0
  141.6673   82.3201  222.6773 H   0  0  0  0  0  0  0  0  0  0  0  0
  139.6271   80.2085  222.4942 H   0  0  0  0  0  0  0  0  0  0  0  0
  140.0250   81.7006  221.4647 H   0  0  0  0  0  0  0  0  0  0  0  0
  140.2560   79.3064  220.6515 H   0  0  0  0  0  0  0  0  0  0  0  0
  140.7409   82.6447  220.5522 H   0  0  0  0  0  0  0  0  0  0  0  0
  141.5022   83.9706  218.5752 H   0  0  0  0  0  0  0  0  0  0  0  0
  142.7033   82.8328  216.7121 H   0  0  0  0  0  0  0  0  0  0  0  0
  143.1460   80.3993  216.8199 H   0  0  0  0  0  0  0  0  0  0  0  0
  142.3846   79.1007  218.7802 H   0  0  0  0  0  0  0  0  0  0  0  0
  139.1224   69.7949  222.6239 H   0  0  0  0  0  0  0  0  0  0  0  0
  139.1923   68.1579  224.4765 H   0  0  0  0  0  0  0  0  0  0  0  0
  139.7617   67.6541  226.7707 H   0  0  0  0  0  0  0  0  0  0  0  0
  141.5133   70.7022  229.2400 H   0  0  0  0  0  0  0  0  0  0  0  0
  141.4034   72.2519  227.3391 H   0  0  0  0  0  0  0  0  0  0  0  0
  1  2  2  0
  2  3  1  0
  3  4  1  0
  4  5  1  0
  5  6  2  0
  5  7  1  0
  7  8  1  0
  8  9  1  0
  9 10  1  0
  9 11  1  0
 11 12  1  0
 12 13  1  0
 13 14  2  0
 13 15  1  0
 15 16  1  0
 16 17  1  0
 17 18  1  0
 18 19  1  0
 19 20  1  0
 20 21  1  0
 21 22  1  0
 22 23  2  0
 23 24  1  0
 24 25  2  0
 25 26  1  0
 26 27  2  0
  2 28  1  0
 28 29  2  0
 29 30  1  0
 30 31  2  0
 31 32  1  0
 32 33  2  0
 33 34  1  0
 33 35  1  0
 35 36  2  0
 36 37  1  0
 37 38  2  0
 12  7  1  0
 21 16  1  0
 27 22  1  0
 38 28  1  0
 37 31  1  0
  3 39  1  0
  4 40  1  0
  4 41  1  0
  8 42  1  0
  8 43  1  0
  9 44  1  6
 10 45  1  0
 11 46  1  0
 11 47  1  0
 12 48  1  1
 15 49  1  0
 16 50  1  6
 17 51  1  0
 17 52  1  0
 18 53  1  0
 18 54  1  0
 19 55  1  0
 19 56  1  0
 20 57  1  0
 20 58  1  0
 21 59  1  6
 23 60  1  0
 24 61  1  0
 25 62  1  0
 26 63  1  0
 27 64  1  0
 29 65  1  0
 30 66  1  0
 32 67  1  0
 35 68  1  0
 36 69  1  0
M  END
>  <smiles>  (50) 
O=C(NCC(=O)N1C[C@H](O)C[C@H]1C(=O)N[C@@H]1CCCC[C@H]1c1ccccc1)c1ccc2cc(F)ccc2n1

>  <score_type>  (50) 
oracle

>  <origin>  (50) 
autodockgpu

>  <m_score__min__energy>  (50) 
-10.26

>  <m_primary>  (50) 
energy

>  <rmsd>  (50) 
1.9432938606190733

>  <m_score__min__rmsd>  (50) 
1.9432938606190733

>  <meeko>  (50) 
{"free_energy": -9.32, "intermolecular_energy": -11.71, "internal_energy": -2.99, "cluster_size": 10, "cluster_id": 3, "rank_in_cluster": 1}

>  <energy>  (50) 
-6.58

>  <cluster_rmsd>  (50) 
0.0

>  <cluster>  (50) 
11

$$$$
