
     RDKit          3D

 56 60  0  0  0  0  0  0  0  0999 V2000
  139.2830   76.4170  222.3200 O   0  0  0  0  0  0  0  0  0  0  0  0
  140.5040   76.5420  222.1170 C   0  0  0  0  0  0  0  0  0  0  0  0
  141.2620   75.3930  221.7600 N   0  0  0  0  0  0  0  0  0  0  0  0
  140.6260   74.1290  221.6410 C   0  0  0  0  0  0  0  0  0  0  0  0
  140.3010   73.7040  220.3880 N   0  0  0  0  0  0  0  0  0  0  0  0
  139.6980   72.5030  220.2720 C   0  0  0  0  0  0  0  0  0  0  0  0
  139.3550   72.0490  218.9730 N   0  0  0  0  0  0  0  0  0  0  0  0
  138.9360   70.6700  218.8380 C   0  0  0  0  0  0  0  0  0  0  0  0
  138.7390   70.2180  217.4360 C   0  0  0  0  0  0  0  0  0  0  0  0
  138.4460   71.2780  216.4950 N   0  0  0  0  0  0  0  0  0  0  0  0
  139.4250   72.3340  216.5330 C   0  0  0  0  0  0  0  0  0  0  0  0
  139.4420   72.9800  217.8820 C   0  0  0  0  0  0  0  0  0  0  0  0
  139.4400   71.7700  221.3840 N   0  0  0  0  0  0  0  0  0  0  0  0
  139.7610   72.1900  222.6180 C   0  0  0  0  0  0  0  0  0  0  0  0
  139.4850   71.4150  223.7830 N   0  0  0  0  0  0  0  0  0  0  0  0
  138.3390   70.5240  223.7850 C   0  0  0  0  0  0  0  0  0  0  0  0
  138.9230   69.1170  223.9170 C   0  0  0  0  0  0  0  0  0  0  0  0
  139.6560   69.1180  225.2150 C   0  0  0  0  0  0  0  0  0  0  0  0
  139.6770   67.9540  225.9810 C   0  0  0  0  0  0  0  0  0  0  0  0
  140.3460   67.9000  227.2000 C   0  0  0  0  0  0  0  0  0  0  0  0
  140.9940   69.0320  227.6420 C   0  0  0  0  0  0  0  0  0  0  0  0
  140.9840   70.2070  226.8890 C   0  0  0  0  0  0  0  0  0  0  0  0
  140.3100   70.2430  225.6700 C   0  0  0  0  0  0  0  0  0  0  0  0
  140.3500   71.5290  224.9370 C   0  0  0  0  0  0  0  0  0  0  0  0
  140.3610   73.3890  222.7170 N   0  0  0  0  0  0  0  0  0  0  0  0
  141.0890   77.8700  222.2580 C   0  0  0  0  0  0  0  0  0  0  0  0
  141.4590   78.2920  223.5050 C   0  0  0  0  0  0  0  0  0  0  0  0
  142.0210   79.5300  223.7460 C   0  0  0  0  0  0  0  0  0  0  0  0
  142.2190   80.3850  222.6650 C   0  0  0  0  0  0  0  0  0  0  0  0
  141.8500   79.9760  221.3870 C   0  0  0  0  0  0  0  0  0  0  0  0
  141.2890   78.7260  221.1950 C   0  0  0  0  0  0  0  0  0  0  0  0
  142.2750   75.4730  221.5880 H   0  0  0  0  0  0  0  0  0  0  0  0
  139.7034   70.0314  219.2998 H   0  0  0  0  0  0  0  0  0  0  0  0
  137.9560   70.5921  219.3314 H   0  0  0  0  0  0  0  0  0  0  0  0
  139.6584   69.7117  217.1067 H   0  0  0  0  0  0  0  0  0  0  0  0
  137.8600   69.5567  217.4431 H   0  0  0  0  0  0  0  0  0  0  0  0
  138.5050   70.8360  215.5390 H   0  0  0  0  0  0  0  0  0  0  0  0
  140.4192   71.9146  216.3193 H   0  0  0  0  0  0  0  0  0  0  0  0
  139.1640   73.0903  215.7781 H   0  0  0  0  0  0  0  0  0  0  0  0
  140.3796   73.5462  217.9834 H   0  0  0  0  0  0  0  0  0  0  0  0
  138.5522   73.6242  217.9394 H   0  0  0  0  0  0  0  0  0  0  0  0
  137.6779   70.7482  224.6351 H   0  0  0  0  0  0  0  0  0  0  0  0
  137.7329   70.6329  222.8735 H   0  0  0  0  0  0  0  0  0  0  0  0
  138.1198   68.3655  223.9282 H   0  0  0  0  0  0  0  0  0  0  0  0
  139.5819   68.8646  223.0731 H   0  0  0  0  0  0  0  0  0  0  0  0
  139.1536   67.0588  225.6142 H   0  0  0  0  0  0  0  0  0  0  0  0
  140.3570   66.9756  227.7961 H   0  0  0  0  0  0  0  0  0  0  0  0
  141.5278   69.0097  228.6035 H   0  0  0  0  0  0  0  0  0  0  0  0
  141.5067   71.1022  227.2568 H   0  0  0  0  0  0  0  0  0  0  0  0
  139.9966   72.3412  225.5892 H   0  0  0  0  0  0  0  0  0  0  0  0
  141.3790   71.7562  224.6213 H   0  0  0  0  0  0  0  0  0  0  0  0
  141.3015   77.6132  224.3562 H   0  0  0  0  0  0  0  0  0  0  0  0
  142.3047   79.8327  224.7648 H   0  0  0  0  0  0  0  0  0  0  0  0
  142.6647   81.3786  222.8204 H   0  0  0  0  0  0  0  0  0  0  0  0
  142.0045   80.6469  220.5291 H   0  0  0  0  0  0  0  0  0  0  0  0
  140.9988   78.4108  220.1819 H   0  0  0  0  0  0  0  0  0  0  0  0
  1  2  2  0
  2  3  1  0
  3  4  1  0
  4  5  2  0
  5  6  1  0
  6  7  1  0
  7  8  1  0
  8  9  1  0
  9 10  1  0
 10 11  1  0
 11 12  1  0
  6 13  2  0
 13 14  1  0
 14 15  1  0
 15 16  1  0
 16 17  1  0
 17 18  1  0
 18 19  2  0
 19 20  1  0
 20 21  2  0
 21 22  1  0
 22 23  2  0
 23 24  1  0
 14 25  2  0
  2 26  1  0
 26 27  2  0
 27 28  1  0
 28 29  2  0
 29 30  1  0
 30 31  2  0
 25  4  1  0
 31 26  1  0
 12  7  1  0
 24 15  1  0
 23 18  1  0
  3 32  1  0
  8 33  1  0
  8 34  1  0
  9 35  1  0
  9 36  1  0
 10 37  1  0
 11 38  1  0
 11 39  1  0
 12 40  1  0
 12 41  1  0
 16 42  1  0
 16 43  1  0
 17 44  1  0
 17 45  1  0
 19 46  1  0
 20 47  1  0
 21 48  1  0
 22 49  1  0
 24 50  1  0
 24 51  1  0
 27 52  1  0
 28 53  1  0
 29 54  1  0
 30 55  1  0
 31 56  1  0
M  END
