@<TRIPOS>MOLECULE
*****
 67 71 0 0 0
SMALL
GASTEIGER

@<TRIPOS>ATOM
      1 O         140.3130   74.9370  222.3330 O.2     1  UNL1       -0.2685
      2 C         141.0060   75.6480  221.5270 C.2     1  UNL1        0.2628
      3 N         141.6590   74.9240  220.4940 N.am    1  UNL1       -0.3015
      4 C         141.4560   73.4940  220.4650 C.3     1  UNL1        0.0887
      5 C         140.9450   73.0280  219.1530 C.2     1  UNL1        0.2330
      6 O         141.6590   72.5780  218.2340 O.2     1  UNL1       -0.2739
      7 N         139.5160   73.1170  218.9680 N.am    1  UNL1       -0.2957
      8 C         138.7090   72.3820  217.9920 C.3     1  UNL1        0.0151
      9 C         137.5980   73.3340  217.6890 C.3     1  UNL1       -0.0354
     10 C         137.8240   74.5770  218.5290 C.3     1  UNL1       -0.0314
     11 C         138.6000   73.9710  219.6960 C.3     1  UNL1        0.0415
     12 C         137.6460   73.2510  220.5950 C.3     1  UNL1        0.0277
     13 N         138.1970   73.3690  221.9540 N.pl3   1  UNL1       -0.3421
     14 C         138.6310   72.2700  222.7090 C.ar    1  UNL1        0.0272
     15 C         139.9470   71.8800  222.8500 C.ar    1  UNL1       -0.0401
     16 C         140.2850   70.7630  223.6200 C.ar    1  UNL1       -0.0479
     17 C         139.3120   70.0240  224.2550 C.ar    1  UNL1        0.0370
     18 C         139.5880   68.8510  225.0710 C.2     1  UNL1        0.2466
     19 O         139.2110   67.7210  224.6150 O.2     1  UNL1       -0.2700
     20 N         140.2530   68.9670  226.3250 N.am    1  UNL1       -0.2975
     21 C         140.7350   70.2090  226.9310 C.3     1  UNL1        0.0150
     22 C         141.2470   69.7520  228.3090 C.3     1  UNL1       -0.0357
     23 C         140.4150   68.4890  228.5750 C.3     1  UNL1       -0.0357
     24 C         140.5480   67.8340  227.1960 C.3     1  UNL1        0.0150
     25 C         137.9940   70.4000  224.1250 C.ar    1  UNL1       -0.0479
     26 C         137.6720   71.4990  223.3670 C.ar    1  UNL1       -0.0401
     27 C         141.0920   77.0890  221.6930 C.ar    1  UNL1        0.1260
     28 C         141.0680   77.5640  223.0130 C.ar    1  UNL1       -0.0306
     29 C         141.1550   78.9200  223.2880 C.ar    1  UNL1       -0.0503
     30 C         141.2640   79.7660  222.2070 C.ar    1  UNL1        0.0031
     31 C         141.3380   81.1310  222.4830 C.ar    1  UNL1       -0.0173
     32 C         141.4360   82.0060  221.3950 C.ar    1  UNL1        0.1241
     33 F         141.5080   83.3520  221.6750 F       1  UNL1       -0.2055
     34 C         141.4580   81.5330  220.1020 C.ar    1  UNL1       -0.0244
     35 C         141.3850   80.1840  219.8290 C.ar    1  UNL1       -0.0330
     36 C         141.2880   79.3030  220.9090 C.ar    1  UNL1        0.0720
     37 N         141.2000   77.9580  220.6740 N.ar    1  UNL1       -0.2421
     38 H         142.2550   75.4450  219.7990 H       1  UNL1        0.1496
     39 H         142.4152   72.9957  220.6690 H       1  UNL1        0.0558
     40 H         140.7048   73.2436  221.2286 H       1  UNL1        0.0558
     41 H         139.2925   72.1547  217.0876 H       1  UNL1        0.0465
     42 H         138.3564   71.4094  218.3658 H       1  UNL1        0.0465
     43 H         137.6077   73.5954  216.6205 H       1  UNL1        0.0281
     44 H         136.6233   72.8801  217.9213 H       1  UNL1        0.0281
     45 H         138.4180   75.3306  217.9913 H       1  UNL1        0.0284
     46 H         136.9088   75.1175  218.8122 H       1  UNL1        0.0284
     47 H         139.1244   74.6590  220.3755 H       1  UNL1        0.0516
     48 H         136.6502   73.7156  220.5453 H       1  UNL1        0.0479
     49 H         137.5314   72.1980  220.2981 H       1  UNL1        0.0479
     50 H         138.2720   74.3210  222.3900 H       1  UNL1        0.1461
     51 H         140.7403   72.4552  222.3503 H       1  UNL1        0.0636
     52 H         141.3409   70.4710  223.7197 H       1  UNL1        0.0626
     53 H         141.5475   70.6496  226.3345 H       1  UNL1        0.0465
     54 H         139.9601   70.9871  226.9949 H       1  UNL1        0.0465
     55 H         142.3217   69.5196  228.2760 H       1  UNL1        0.0281
     56 H         141.1403   70.5183  229.0910 H       1  UNL1        0.0281
     57 H         140.8485   67.8676  229.3724 H       1  UNL1        0.0281
     58 H         139.3863   68.6599  228.9252 H       1  UNL1        0.0281
     59 H         141.5642   67.4479  227.0276 H       1  UNL1        0.0465
     60 H         139.8976   66.9603  227.0424 H       1  UNL1        0.0465
     61 H         137.2027   69.8230  224.6258 H       1  UNL1        0.0626
     62 H         136.6134   71.7835  223.2747 H       1  UNL1        0.0636
     63 H         140.9786   76.8484  223.8437 H       1  UNL1        0.0641
     64 H         141.1378   79.3016  224.3196 H       1  UNL1        0.0625
     65 H         141.3200   81.5059  223.5170 H       1  UNL1        0.0653
     66 H         141.5355   82.2472  219.2690 H       1  UNL1        0.0647
     67 H         141.4025   79.8128  218.7937 H       1  UNL1        0.0640
@<TRIPOS>BOND
     1     1     2    2
     2     2     3   am
     3     3     4    1
     4     4     5    1
     5     5     6    2
     6     5     7   am
     7     7     8    1
     8     8     9    1
     9     9    10    1
    10    10    11    1
    11    11    12    1
    12    12    13    1
    13    13    14    1
    14    14    15   ar
    15    15    16   ar
    16    16    17   ar
    17    17    18    1
    18    18    19    2
    19    18    20   am
    20    20    21    1
    21    21    22    1
    22    22    23    1
    23    23    24    1
    24    17    25   ar
    25    25    26   ar
    26     2    27    1
    27    27    28   ar
    28    28    29   ar
    29    29    30   ar
    30    30    31   ar
    31    31    32   ar
    32    32    33    1
    33    32    34   ar
    34    34    35   ar
    35    35    36   ar
    36    36    37   ar
    37    11     7    1
    38    26    14   ar
    39    37    27   ar
    40    24    20    1
    41    36    30   ar
    42     3    38    1
    43     4    39    1
    44     4    40    1
    45     8    41    1
    46     8    42    1
    47     9    43    1
    48     9    44    1
    49    10    45    1
    50    10    46    1
    51    11    47    1
    52    12    48    1
    53    12    49    1
    54    13    50    1
    55    15    51    1
    56    16    52    1
    57    21    53    1
    58    21    54    1
    59    22    55    1
    60    22    56    1
    61    23    57    1
    62    23    58    1
    63    24    59    1
    64    24    60    1
    65    25    61    1
    66    26    62    1
    67    28    63    1
    68    29    64    1
    69    31    65    1
    70    34    66    1
    71    35    67    1
