@<TRIPOS>MOLECULE
*****
 49 52 0 0 0
SMALL
GASTEIGER

@<TRIPOS>ATOM
      1 O         140.4050   71.8970  225.1480 O.2     1  UNL1       -0.2669
      2 C         139.7770   70.8150  225.1650 C.ar    1  UNL1        0.2620
      3 C         140.0770   69.9420  226.1840 C.ar    1  UNL1        0.0649
      4 C         141.0300   70.2510  227.1300 C.ar    1  UNL1       -0.0474
      5 C         141.2820   69.3440  228.1110 C.ar    1  UNL1       -0.0609
      6 C         140.5890   68.1550  228.1330 C.ar    1  UNL1       -0.0597
      7 C         139.6240   67.8270  227.1870 C.ar    1  UNL1       -0.0355
      8 C         139.3920   68.7610  226.2100 C.ar    1  UNL1        0.0785
      9 N         138.4950   68.5150  225.2820 N.ar    1  UNL1       -0.2294
     10 C         138.1640   69.3580  224.2480 C.ar    1  UNL1        0.1369
     11 C         137.1380   68.8780  223.3830 C.2     1  UNL1       -0.0185
     12 C         135.8470   68.8590  223.4700 C.2     1  UNL1       -0.0497
     13 C         135.0820   69.4580  224.5840 C.ar    1  UNL1       -0.0068
     14 C         135.0650   70.8010  224.8490 C.ar    1  UNL1       -0.0517
     15 C         134.3170   71.2920  225.9220 C.ar    1  UNL1       -0.0430
     16 C         133.5810   70.4570  226.7400 C.ar    1  UNL1        0.0276
     17 N         133.6170   69.1300  226.4530 N.ar    1  UNL1       -0.2627
     18 C         134.3330   68.6490  225.4230 C.ar    1  UNL1        0.0347
     19 N         138.8270   70.5100  224.2130 N.ar    1  UNL1       -0.2925
     20 C         138.6220   71.5410  223.2290 C.3     1  UNL1        0.0309
     21 C         139.4970   71.4920  222.0250 C.3     1  UNL1       -0.0229
     22 C         140.7120   72.3830  222.2420 C.3     1  UNL1       -0.0486
     23 C         141.7820   72.1270  221.2280 C.3     1  UNL1       -0.0528
     24 C         141.2590   71.3930  220.0130 C.3     1  UNL1       -0.0530
     25 C         140.6930   70.0410  220.3800 C.3     1  UNL1       -0.0528
     26 C         139.9080   70.0860  221.6810 C.3     1  UNL1       -0.0486
     27 H         141.5730   71.2069  227.0925 H       1  UNL1        0.0626
     28 H         142.0356   69.5592  228.8829 H       1  UNL1        0.0618
     29 H         140.8080   67.4330  228.9335 H       1  UNL1        0.0618
     30 H         139.0778   66.8727  227.2204 H       1  UNL1        0.0639
     31 H         137.5213   68.4335  222.4527 H       1  UNL1        0.0654
     32 H         135.2834   68.3660  222.6642 H       1  UNL1        0.0625
     33 H         135.6403   71.4936  224.2171 H       1  UNL1        0.0624
     34 H         134.3141   72.3738  226.1210 H       1  UNL1        0.0633
     35 H         132.9936   70.8482  227.5838 H       1  UNL1        0.0829
     36 H         134.3241   67.5648  225.2376 H       1  UNL1        0.0835
     37 H         137.5786   71.4743  222.8871 H       1  UNL1        0.0496
     38 H         138.8764   72.4833  223.7364 H       1  UNL1        0.0496
     39 H         138.9218   71.8679  221.1660 H       1  UNL1        0.0318
     40 H         140.3986   73.4349  222.1700 H       1  UNL1        0.0268
     41 H         141.1251   72.1586  223.2365 H       1  UNL1        0.0268
     42 H         142.2012   73.0914  220.9052 H       1  UNL1        0.0265
     43 H         142.5475   71.4934  221.6998 H       1  UNL1        0.0265
     44 H         140.4671   71.9963  219.5451 H       1  UNL1        0.0265
     45 H         142.0974   71.2375  219.3181 H       1  UNL1        0.0265
     46 H         140.0247   69.7051  219.5735 H       1  UNL1        0.0265
     47 H         141.5347   69.3458  220.5151 H       1  UNL1        0.0265
     48 H         139.0062   69.4647  221.5767 H       1  UNL1        0.0268
     49 H         140.5522   69.7061  222.4877 H       1  UNL1        0.0268
@<TRIPOS>BOND
     1     1     2    2
     2     2     3   ar
     3     3     4   ar
     4     4     5   ar
     5     5     6   ar
     6     6     7   ar
     7     7     8   ar
     8     8     9   ar
     9     9    10   ar
    10    10    11    1
    11    11    12    2
    12    12    13    1
    13    13    14   ar
    14    14    15   ar
    15    15    16   ar
    16    16    17   ar
    17    17    18   ar
    18    10    19   ar
    19    19    20    1
    20    20    21    1
    21    21    22    1
    22    22    23    1
    23    23    24    1
    24    24    25    1
    25    25    26    1
    26    19     2   ar
    27    26    21    1
    28     8     3   ar
    29    18    13   ar
    30     4    27    1
    31     5    28    1
    32     6    29    1
    33     7    30    1
    34    11    31    1
    35    12    32    1
    36    14    33    1
    37    15    34    1
    38    16    35    1
    39    18    36    1
    40    20    37    1
    41    20    38    1
    42    21    39    1
    43    22    40    1
    44    22    41    1
    45    23    42    1
    46    23    43    1
    47    24    44    1
    48    24    45    1
    49    25    46    1
    50    25    47    1
    51    26    48    1
    52    26    49    1
