
 73 78  0  0  0  0  0  0  0  0999 V2000
  135.9790   70.6480  222.0290 O   0  0  0  0  0  0  0  0  0  0  0  0
  136.7280   71.2600  222.8140 C   0  0  0  0  0  0  0  0  0  0  0  0
  136.7150   70.8800  224.1960 N   0  0  0  0  0  0  0  0  0  0  0  0
  135.8350   69.7960  224.6700 C   0  0  0  0  0  0  0  0  0  0  0  0
  134.3910   70.0550  224.4430 C   0  0  0  0  0  0  0  0  0  0  0  0
  133.8310   70.9040  225.5380 C   0  0  0  0  0  0  0  0  0  0  0  0
  134.2480   70.3740  226.9170 C   0  0  0  0  0  0  0  0  0  0  0  0
  133.9280   71.4970  227.9020 C   0  0  0  0  0  0  0  0  0  0  0  0
  132.7840   72.2720  227.5000 N   0  0  0  0  0  0  0  0  0  0  0  0
  133.1490   73.0800  226.3440 C   0  0  0  0  0  0  0  0  0  0  0  0
  134.2190   72.3420  225.5190 C   0  0  0  0  0  0  0  0  0  0  0  0
  137.6310   72.3400  222.4540 C   0  0  0  0  0  0  0  0  0  0  0  0
  137.0460   73.4260  221.7930 C   0  0  0  0  0  0  0  0  0  0  0  0
  137.7850   74.4520  221.4170 N   0  0  0  0  0  0  0  0  0  0  0  0
  139.1100   74.4600  221.6680 C   0  0  0  0  0  0  0  0  0  0  0  0
  139.8290   75.6020  221.2180 N   0  0  0  0  0  0  0  0  0  0  0  0
  139.4210   76.4010  220.0790 C   0  0  0  0  0  0  0  0  0  0  0  0
  139.2250   77.8550  220.4000 C   0  0  0  0  0  0  0  0  0  0  0  0
  139.9510   78.2620  221.6030 C   0  0  0  0  0  0  0  0  0  0  0  0
  139.7520   79.5760  222.0460 C   0  0  0  0  0  0  0  0  0  0  0  0
  140.3840   80.0670  223.1640 C   0  0  0  0  0  0  0  0  0  0  0  0
  141.2280   79.2880  223.8830 C   0  0  0  0  0  0  0  0  0  0  0  0
  141.4580   77.9670  223.4760 C   0  0  0  0  0  0  0  0  0  0  0  0
  140.8100   77.4950  222.3460 C   0  0  0  0  0  0  0  0  0  0  0  0
  141.0490   76.0700  221.9020 C   0  0  0  0  0  0  0  0  0  0  0  0
  139.6730   73.4360  222.2940 N   0  0  0  0  0  0  0  0  0  0  0  0
  138.9790   72.3370  222.7140 C   0  0  0  0  0  0  0  0  0  0  0  0
  139.6720   71.3000  223.3710 N   0  0  0  0  0  0  0  0  0  0  0  0
  139.4820   69.8970  223.2060 C   0  0  0  0  0  0  0  0  0  0  0  0
  139.2780   69.1740  224.5200 C   0  0  0  0  0  0  0  0  0  0  0  0
  139.6740   69.9530  225.6980 C   0  0  0  0  0  0  0  0  0  0  0  0
  139.3300   69.4240  226.9460 C   0  0  0  0  0  0  0  0  0  0  0  0
  139.6780   70.1170  228.0790 C   0  0  0  0  0  0  0  0  0  0  0  0
  140.3540   71.3190  228.0660 C   0  0  0  0  0  0  0  0  0  0  0  0
  140.6920   71.8410  226.8390 C   0  0  0  0  0  0  0  0  0  0  0  0
  140.3450   71.1470  225.6790 C   0  0  0  0  0  0  0  0  0  0  0  0
  140.7050   71.7100  224.3420 C   0  0  0  0  0  0  0  0  0  0  0  0
  137.3510   71.3930  224.8730 H   0  0  0  0  0  0  0  0  0  0  0  0
  136.1088   68.8708  224.1417 H   0  0  0  0  0  0  0  0  0  0  0  0
  135.9797   69.7179  225.7576 H   0  0  0  0  0  0  0  0  0  0  0  0
  134.2635   70.5742  223.4817 H   0  0  0  0  0  0  0  0  0  0  0  0
  133.8558   69.0940  224.4300 H   0  0  0  0  0  0  0  0  0  0  0  0
  132.7480   70.8419  225.3554 H   0  0  0  0  0  0  0  0  0  0  0  0
  133.6773   69.4680  227.1689 H   0  0  0  0  0  0  0  0  0  0  0  0
  135.3131   70.1005  226.9432 H   0  0  0  0  0  0  0  0  0  0  0  0
  133.7254   71.0543  228.8884 H   0  0  0  0  0  0  0  0  0  0  0  0
  134.7957   72.1724  227.9329 H   0  0  0  0  0  0  0  0  0  0  0  0
  132.5900   72.9370  228.2740 H   0  0  0  0  0  0  0  0  0  0  0  0
  132.2590   73.2513  225.7206 H   0  0  0  0  0  0  0  0  0  0  0  0
  133.5501   74.0462  226.6840 H   0  0  0  0  0  0  0  0  0  0  0  0
  134.2339   72.7204  224.4863 H   0  0  0  0  0  0  0  0  0  0  0  0
  135.2255   72.4937  225.9360 H   0  0  0  0  0  0  0  0  0  0  0  0
  135.9656   73.4241  221.5861 H   0  0  0  0  0  0  0  0  0  0  0  0
  140.1950   76.3183  219.3018 H   0  0  0  0  0  0  0  0  0  0  0  0
  138.4478   76.0116  219.7456 H   0  0  0  0  0  0  0  0  0  0  0  0
  139.5829   78.4558  219.5509 H   0  0  0  0  0  0  0  0  0  0  0  0
  138.1526   78.0169  220.5839 H   0  0  0  0  0  0  0  0  0  0  0  0
  139.0716   80.2328  221.4842 H   0  0  0  0  0  0  0  0  0  0  0  0
  140.2022   81.1052  223.4787 H   0  0  0  0  0  0  0  0  0  0  0  0
  141.7277   79.6886  224.7773 H   0  0  0  0  0  0  0  0  0  0  0  0
  142.1404   77.3168  224.0431 H   0  0  0  0  0  0  0  0  0  0  0  0
  141.9040   76.0315  221.2109 H   0  0  0  0  0  0  0  0  0  0  0  0
  141.2746   75.4298  222.7676 H   0  0  0  0  0  0  0  0  0  0  0  0
  138.5964   69.7342  222.5741 H   0  0  0  0  0  0  0  0  0  0  0  0
  140.3938   69.4916  222.7431 H   0  0  0  0  0  0  0  0  0  0  0  0
  138.2113   68.9226  224.6143 H   0  0  0  0  0  0  0  0  0  0  0  0
  139.9230   68.2833  224.4963 H   0  0  0  0  0  0  0  0  0  0  0  0
  138.7896   68.4686  227.0187 H   0  0  0  0  0  0  0  0  0  0  0  0
  139.4016   69.6886  229.0537 H   0  0  0  0  0  0  0  0  0  0  0  0
  140.6127   71.8397  228.9998 H   0  0  0  0  0  0  0  0  0  0  0  0
  141.2313   72.7974  226.7727 H   0  0  0  0  0  0  0  0  0  0  0  0
  140.7459   72.8077  224.3998 H   0  0  0  0  0  0  0  0  0  0  0  0
  141.6901   71.3356  224.0268 H   0  0  0  0  0  0  0  0  0  0  0  0
  1  2  2  0
  2  3  1  0
  3  4  1  0
  4  5  1  0
  5  6  1  0
  6  7  1  0
  7  8  1  0
  8  9  1  0
  9 10  1  0
 10 11  1  0
  2 12  1  0
 12 13  2  0
 13 14  1  0
 14 15  2  0
 15 16  1  0
 16 17  1  0
 17 18  1  0
 18 19  1  0
 19 20  2  0
 20 21  1  0
 21 22  2  0
 22 23  1  0
 23 24  2  0
 24 25  1  0
 15 26  1  0
 26 27  2  0
 27 28  1  0
 28 29  1  0
 29 30  1  0
 30 31  1  0
 31 32  2  0
 32 33  1  0
 33 34  2  0
 34 35  1  0
 35 36  2  0
 36 37  1  0
 11  6  1  0
 27 12  1  0
 37 28  1  0
 25 16  1  0
 36 31  1  0
 24 19  1  0
  3 38  1  0
  4 39  1  0
  4 40  1  0
  5 41  1  0
  5 42  1  0
  6 43  1  0
  7 44  1  0
  7 45  1  0
  8 46  1  0
  8 47  1  0
  9 48  1  0
 10 49  1  0
 10 50  1  0
 11 51  1  0
 11 52  1  0
 13 53  1  0
 17 54  1  0
 17 55  1  0
 18 56  1  0
 18 57  1  0
 20 58  1  0
 21 59  1  0
 22 60  1  0
 23 61  1  0
 25 62  1  0
 25 63  1  0
 29 64  1  0
 29 65  1  0
 30 66  1  0
 30 67  1  0
 32 68  1  0
 33 69  1  0
 34 70  1  0
 35 71  1  0
 37 72  1  0
 37 73  1  0
M  END
