
     RDKit          3D

 60 62  0  0  1  0  0  0  0  0999 V2000
  140.9580   68.1110  228.1930 C   0  0  0  0  0  0  0  0  0  0  0  0
  141.1240   67.7000  226.7100 C   0  0  0  0  0  0  0  0  0  0  0  0
  139.9180   68.0950  225.9600 C   0  0  0  0  0  0  0  0  0  0  0  0
  139.2240   67.1190  225.5050 O   0  0  0  0  0  0  0  0  0  0  0  0
  139.4880   69.4150  225.7110 N   0  0  0  0  0  0  0  0  0  0  0  0
  140.1390   70.5010  226.4080 C   0  0  0  0  0  0  0  0  0  0  0  0
  139.8280   70.8570  227.6940 C   0  0  0  0  0  0  0  0  0  0  0  0
  140.4820   71.8800  228.3710 C   0  0  0  0  0  0  0  0  0  0  0  0
  141.4880   72.5910  227.7560 C   0  0  0  0  0  0  0  0  0  0  0  0
  141.8190   72.2550  226.4630 C   0  0  0  0  0  0  0  0  0  0  0  0
  141.1590   71.2270  225.7950 C   0  0  0  0  0  0  0  0  0  0  0  0
  138.4350   69.7990  224.8070 C   0  0  0  0  0  0  0  0  0  0  0  0
  137.0730   69.2690  225.1340 C   0  0  0  0  0  0  0  0  0  0  0  0
  136.0540   70.2100  224.4770 C   0  0  0  0  0  0  0  0  0  0  0  0
  136.7390   70.9360  223.4390 N   0  0  0  0  0  0  0  0  0  0  0  0
  136.4510   72.3140  223.2380 C   0  0  0  0  0  0  0  0  0  0  0  0
  137.0590   72.9850  222.3290 O   0  0  0  0  0  0  0  0  0  0  0  0
  135.4580   73.0820  224.0280 C   0  0  1  0  0  0  0  0  0  0  0  0
  135.6770   74.5040  223.7760 N   0  0  0  0  0  0  0  0  0  0  0  0
  134.0210   72.7580  223.6230 C   0  0  0  0  0  0  0  0  0  0  0  0
  133.2730   72.4640  224.8960 C   0  0  0  0  0  0  0  0  0  0  0  0
  133.4630   73.3590  225.9370 C   0  0  0  0  0  0  0  0  0  0  0  0
  132.8160   73.1680  227.1430 C   0  0  0  0  0  0  0  0  0  0  0  0
  131.9860   72.0720  227.2730 C   0  0  0  0  0  0  0  0  0  0  0  0
  131.7950   71.1730  226.2270 C   0  0  0  0  0  0  0  0  0  0  0  0
  130.8940   70.0260  226.4370 C   0  0  0  0  0  0  0  0  0  0  0  0
  132.4470   71.3710  225.0230 C   0  0  0  0  0  0  0  0  0  0  0  0
  137.7290   70.3230  222.5650 C   0  0  0  0  0  0  0  0  0  0  0  0
  138.6900   69.4220  223.3610 C   0  0  0  0  0  0  0  0  0  0  0  0
  141.2908   67.2870  228.8413 H   0  0  0  0  0  0  0  0  0  0  0  0
  141.5654   69.0054  228.3958 H   0  0  0  0  0  0  0  0  0  0  0  0
  139.8998   68.3327  228.3958 H   0  0  0  0  0  0  0  0  0  0  0  0
  142.0038   68.2049  226.2845 H   0  0  0  0  0  0  0  0  0  0  0  0
  141.2618   66.6108  226.6414 H   0  0  0  0  0  0  0  0  0  0  0  0
  139.0269   70.3102  228.2128 H   0  0  0  0  0  0  0  0  0  0  0  0
  140.1940   72.1230  229.4045 H   0  0  0  0  0  0  0  0  0  0  0  0
  142.0113   73.4030  228.2821 H   0  0  0  0  0  0  0  0  0  0  0  0
  142.6187   72.8081  225.9485 H   0  0  0  0  0  0  0  0  0  0  0  0
  141.4484   70.9827  224.7623 H   0  0  0  0  0  0  0  0  0  0  0  0
  138.4475   70.8906  224.9423 H   0  0  0  0  0  0  0  0  0  0  0  0
  136.9584   68.2504  224.7347 H   0  0  0  0  0  0  0  0  0  0  0  0
  136.9206   69.2247  226.2225 H   0  0  0  0  0  0  0  0  0  0  0  0
  135.2285   69.6259  224.0442 H   0  0  0  0  0  0  0  0  0  0  0  0
  135.6326   70.9031  225.2200 H   0  0  0  0  0  0  0  0  0  0  0  0
  135.5903   72.8160  225.0871 H   0  0  0  0  0  0  0  0  0  0  0  0
  136.5570   74.8310  224.2290 H   0  0  0  0  0  0  0  0  0  0  0  0
  135.7510   74.6940  222.7580 H   0  0  0  0  0  0  0  0  0  0  0  0
  133.5689   73.6177  223.1067 H   0  0  0  0  0  0  0  0  0  0  0  0
  133.9858   71.9009  222.9344 H   0  0  0  0  0  0  0  0  0  0  0  0
  134.1302   74.2232  225.8029 H   0  0  0  0  0  0  0  0  0  0  0  0
  132.9583   73.8704  227.9775 H   0  0  0  0  0  0  0  0  0  0  0  0
  131.4629   71.9051  228.2262 H   0  0  0  0  0  0  0  0  0  0  0  0
  130.7611   69.8568  227.5158 H   0  0  0  0  0  0  0  0  0  0  0  0
  129.9179   70.2373  225.9760 H   0  0  0  0  0  0  0  0  0  0  0  0
  131.3304   69.1277  225.9760 H   0  0  0  0  0  0  0  0  0  0  0  0
  132.3082   70.6706  224.1863 H   0  0  0  0  0  0  0  0  0  0  0  0
  137.2122   69.7158  221.8073 H   0  0  0  0  0  0  0  0  0  0  0  0
  138.3150   71.1219  222.0870 H   0  0  0  0  0  0  0  0  0  0  0  0
  138.4630   68.3596  223.1882 H   0  0  0  0  0  0  0  0  0  0  0  0
  139.7409   69.5605  223.0668 H   0  0  0  0  0  0  0  0  0  0  0  0
  1  2  1  0
  2  3  1  0
  3  4  2  0
  3  5  1  0
  5  6  1  0
  6  7  2  0
  7  8  1  0
  8  9  2  0
  9 10  1  0
 10 11  2  0
  5 12  1  0
 12 13  1  0
 13 14  1  0
 14 15  1  0
 15 16  1  0
 16 17  2  0
 16 18  1  0
 18 19  1  0
 18 20  1  0
 20 21  1  0
 21 22  2  0
 22 23  1  0
 23 24  2  0
 24 25  1  0
 25 26  1  0
 25 27  2  0
 15 28  1  0
 28 29  1  0
 11  6  1  0
 29 12  1  0
 27 21  1  0
  1 30  1  0
  1 31  1  0
  1 32  1  0
  2 33  1  0
  2 34  1  0
  7 35  1  0
  8 36  1  0
  9 37  1  0
 10 38  1  0
 11 39  1  0
 12 40  1  0
 13 41  1  0
 13 42  1  0
 14 43  1  0
 14 44  1  0
 18 45  1  1
 19 46  1  0
 19 47  1  0
 20 48  1  0
 20 49  1  0
 22 50  1  0
 23 51  1  0
 24 52  1  0
 26 53  1  0
 26 54  1  0
 26 55  1  0
 27 56  1  0
 28 57  1  0
 28 58  1  0
 29 59  1  0
 29 60  1  0
M  END
