@<TRIPOS>MOLECULE
*****
 69 74 0 0 0
SMALL
GASTEIGER

@<TRIPOS>ATOM
      1 O         138.8930   75.9460  222.2860 O.2     1  UNL1       -0.2668
      2 C         139.7850   75.6080  221.4810 C.2     1  UNL1        0.2815
      3 N         140.2660   76.3860  220.4230 N.am    1  UNL1       -0.3085
      4 C         139.8770   77.6880  220.0000 C.3     1  UNL1        0.0160
      5 C         140.1690   78.8560  220.8510 C.3     1  UNL1       -0.0129
      6 C         139.5720   78.8330  222.2070 C.3     1  UNL1       -0.0465
      7 C         140.4370   79.7770  223.0880 C.3     1  UNL1       -0.0401
      8 C         141.7350   79.0600  223.2990 C.3     1  UNL1       -0.0041
      9 N         142.3060   78.6910  222.0520 N.3     1  UNL1       -0.3157
     10 C         141.6480   79.2050  220.8760 C.3     1  UNL1        0.0001
     11 C         140.3580   74.2560  221.7030 C.ar    1  UNL1        0.2215
     12 N         141.3110   73.7580  220.8940 N.ar    1  UNL1       -0.1900
     13 C         141.8520   72.5370  221.0670 C.ar    1  UNL1        0.2231
     14 N         142.8580   72.0910  220.1590 N.pl3   1  UNL1       -0.2949
     15 C         144.0030   72.8990  219.8750 C.3     1  UNL1        0.0192
     16 C         145.3050   72.1620  219.7820 C.3     1  UNL1       -0.0115
     17 C         145.1730   70.7790  219.3220 C.ar    1  UNL1       -0.0412
     18 C         146.3240   70.0890  218.9920 C.ar    1  UNL1       -0.0582
     19 C         146.3170   68.7820  218.5470 C.ar    1  UNL1       -0.0615
     20 C         145.0840   68.1720  218.4410 C.ar    1  UNL1       -0.0614
     21 C         143.9430   68.8470  218.7640 C.ar    1  UNL1       -0.0568
     22 C         143.9690   70.1510  219.2060 C.ar    1  UNL1       -0.0269
     23 C         142.6860   70.7950  219.5320 C.3     1  UNL1        0.0402
     24 N         141.4320   71.7710  222.0880 N.ar    1  UNL1       -0.1808
     25 C         140.4710   72.2410  222.9260 C.ar    1  UNL1        0.2231
     26 N         139.9960   71.4460  224.0310 N.pl3   1  UNL1       -0.2949
     27 C         138.8020   70.6110  223.8400 C.3     1  UNL1        0.0192
     28 C         139.2070   69.1990  224.2250 C.3     1  UNL1       -0.0115
     29 C         139.6090   69.2730  225.6660 C.ar    1  UNL1       -0.0412
     30 C         139.2660   68.2380  226.5130 C.ar    1  UNL1       -0.0582
     31 C         139.6340   68.2980  227.8500 C.ar    1  UNL1       -0.0615
     32 C         140.3450   69.3860  228.3510 C.ar    1  UNL1       -0.0614
     33 C         140.6740   70.4100  227.4600 C.ar    1  UNL1       -0.0568
     34 C         140.3120   70.3610  226.1260 C.ar    1  UNL1       -0.0269
     35 C         140.7120   71.5060  225.2690 C.3     1  UNL1        0.0402
     36 N         139.9540   73.4730  222.7160 N.ar    1  UNL1       -0.1900
     37 H         141.0500   75.9250  219.8420 H       1  UNL1        0.1491
     38 H         140.3692   77.8683  219.0330 H       1  UNL1        0.0465
     39 H         138.7781   77.6386  220.0056 H       1  UNL1        0.0465
     40 H         139.6397   79.6781  220.3471 H       1  UNL1        0.0328
     41 H         138.5334   79.1934  222.1708 H       1  UNL1        0.0269
     42 H         139.5557   77.8122  222.6164 H       1  UNL1        0.0269
     43 H         140.6069   80.7336  222.5723 H       1  UNL1        0.0278
     44 H         139.9414   80.0079  224.0425 H       1  UNL1        0.0278
     45 H         142.4315   79.7217  223.8348 H       1  UNL1        0.0424
     46 H         141.5481   78.1504  223.8886 H       1  UNL1        0.0424
     47 H         143.2940   79.0240  222.0120 H       1  UNL1        0.1219
     48 H         141.7546   80.2997  220.8596 H       1  UNL1        0.0427
     49 H         142.1199   78.7453  219.9951 H       1  UNL1        0.0427
     50 H         143.8307   73.4054  218.9138 H       1  UNL1        0.0468
     51 H         144.1057   73.5878  220.7265 H       1  UNL1        0.0468
     52 H         145.9578   72.6999  219.0788 H       1  UNL1        0.0328
     53 H         145.7218   72.1213  220.7992 H       1  UNL1        0.0328
     54 H         147.2907   70.6050  219.0883 H       1  UNL1        0.0620
     55 H         147.2471   68.2539  218.2900 H       1  UNL1        0.0618
     56 H         145.0201   67.1306  218.0924 H       1  UNL1        0.0618
     57 H         142.9743   68.3347  218.6686 H       1  UNL1        0.0621
     58 H         142.1112   70.9261  218.6033 H       1  UNL1        0.0514
     59 H         142.1585   70.1458  220.2464 H       1  UNL1        0.0514
     60 H         137.9836   70.9624  224.4855 H       1  UNL1        0.0468
     61 H         138.4431   70.6561  222.8012 H       1  UNL1        0.0468
     62 H         138.3601   68.5086  224.0978 H       1  UNL1        0.0328
     63 H         140.0257   68.8242  223.5932 H       1  UNL1        0.0328
     64 H         138.7052   67.3722  226.1310 H       1  UNL1        0.0620
     65 H         139.3599   67.4734  228.5245 H       1  UNL1        0.0618
     66 H         140.6369   69.4369  229.4103 H       1  UNL1        0.0618
     67 H         141.2368   71.2799  227.8296 H       1  UNL1        0.0621
     68 H         140.4769   72.4493  225.7836 H       1  UNL1        0.0514
     69 H         141.7929   71.4569  225.0711 H       1  UNL1        0.0514
@<TRIPOS>BOND
     1     1     2    2
     2     2     3   am
     3     3     4    1
     4     4     5    1
     5     5     6    1
     6     6     7    1
     7     7     8    1
     8     8     9    1
     9     9    10    1
    10     2    11    1
    11    11    12   ar
    12    12    13   ar
    13    13    14    1
    14    14    15    1
    15    15    16    1
    16    16    17    1
    17    17    18   ar
    18    18    19   ar
    19    19    20   ar
    20    20    21   ar
    21    21    22   ar
    22    22    23    1
    23    13    24   ar
    24    24    25   ar
    25    25    26    1
    26    26    27    1
    27    27    28    1
    28    28    29    1
    29    29    30   ar
    30    30    31   ar
    31    31    32   ar
    32    32    33   ar
    33    33    34   ar
    34    34    35    1
    35    25    36   ar
    36    10     5    1
    37    36    11   ar
    38    23    14    1
    39    35    26    1
    40    22    17   ar
    41    34    29   ar
    42     3    37    1
    43     4    38    1
    44     4    39    1
    45     5    40    1
    46     6    41    1
    47     6    42    1
    48     7    43    1
    49     7    44    1
    50     8    45    1
    51     8    46    1
    52     9    47    1
    53    10    48    1
    54    10    49    1
    55    15    50    1
    56    15    51    1
    57    16    52    1
    58    16    53    1
    59    18    54    1
    60    19    55    1
    61    20    56    1
    62    21    57    1
    63    23    58    1
    64    23    59    1
    65    27    60    1
    66    27    61    1
    67    28    62    1
    68    28    63    1
    69    30    64    1
    70    31    65    1
    71    32    66    1
    72    33    67    1
    73    35    68    1
    74    35    69    1
