@<TRIPOS>MOLECULE
*****
 69 74 0 0 0
SMALL
GASTEIGER

@<TRIPOS>ATOM
      1 N         142.5570   79.9570  221.5810 N.am    1  UNL1       -0.3293
      2 C         141.2480   80.2640  222.0430 C.2     1  UNL1        0.2105
      3 O         141.0700   80.7450  223.1980 O.2     1  UNL1       -0.2760
      4 C         140.1150   79.9920  221.1070 C.3     1  UNL1        0.0252
      5 C         139.7880   78.5090  221.2250 C.3     1  UNL1       -0.0293
      6 C         140.8260   77.7880  222.0420 C.3     1  UNL1        0.0088
      7 C         140.2750   76.4560  222.5450 C.3     1  UNL1       -0.0266
      8 C         140.2100   75.6770  221.2400 C.3     1  UNL1        0.0331
      9 C         140.5090   74.2200  221.4690 C.ar    1  UNL1        0.1405
     10 N         141.3530   73.5700  220.6260 N.ar    1  UNL1       -0.1990
     11 C         141.6460   72.2700  220.7940 C.ar    1  UNL1        0.2227
     12 N         142.5340   71.6200  219.8950 N.pl3   1  UNL1       -0.2949
     13 C         143.4910   72.4190  219.1560 C.3     1  UNL1        0.0192
     14 C         144.8570   71.9720  219.6960 C.3     1  UNL1       -0.0115
     15 C         144.9620   70.5190  219.3830 C.ar    1  UNL1       -0.0412
     16 C         146.2190   69.9900  219.0770 C.ar    1  UNL1       -0.0582
     17 C         146.3250   68.6470  218.7870 C.ar    1  UNL1       -0.0615
     18 C         145.2150   67.8210  218.7920 C.ar    1  UNL1       -0.0614
     19 C         143.9670   68.3220  219.0910 C.ar    1  UNL1       -0.0568
     20 C         143.8740   69.6710  219.3810 C.ar    1  UNL1       -0.0269
     21 C         142.5080   70.1840  219.7000 C.3     1  UNL1        0.0402
     22 N         141.0670   71.6410  221.8320 N.ar    1  UNL1       -0.1808
     23 C         140.2260   72.2640  222.6800 C.ar    1  UNL1        0.2227
     24 N         139.6370   71.5310  223.7750 N.pl3   1  UNL1       -0.2949
     25 C         138.3900   70.8160  223.6100 C.3     1  UNL1        0.0192
     26 C         138.4280   69.3960  224.0760 C.3     1  UNL1       -0.0115
     27 C         139.3650   69.1700  225.1810 C.ar    1  UNL1       -0.0412
     28 C         139.3830   67.9400  225.7900 C.ar    1  UNL1       -0.0582
     29 C         140.2200   67.6120  226.8370 C.ar    1  UNL1       -0.0615
     30 C         141.0780   68.6020  227.2780 C.ar    1  UNL1       -0.0614
     31 C         141.0750   69.8450  226.6800 C.ar    1  UNL1       -0.0568
     32 C         140.2210   70.1570  225.6210 C.ar    1  UNL1       -0.0269
     33 C         140.3030   71.5080  225.0630 C.3     1  UNL1        0.0402
     34 N         139.9370   73.5620  222.5090 N.ar    1  UNL1       -0.1990
     35 C         141.2960   76.2860  220.4180 C.3     1  UNL1        0.0059
     36 N         141.8830   77.3560  221.1730 N.3     1  UNL1       -0.3125
     37 H         142.9990   79.0800  221.9240 H       1  UNL1        0.1449
     38 H         143.0940   80.5640  220.9190 H       1  UNL1        0.1449
     39 H         139.2394   80.5957  221.3878 H       1  UNL1        0.0359
     40 H         140.3872   80.2536  220.0738 H       1  UNL1        0.0359
     41 H         138.8069   78.3950  221.7093 H       1  UNL1        0.0285
     42 H         139.7740   78.0732  220.2151 H       1  UNL1        0.0285
     43 H         141.1348   78.4708  222.8473 H       1  UNL1        0.0461
     44 H         140.9546   75.9818  223.2684 H       1  UNL1        0.0287
     45 H         139.3197   76.5282  223.0856 H       1  UNL1        0.0287
     46 H         139.2169   75.7261  220.7696 H       1  UNL1        0.0392
     47 H         143.4144   72.2193  218.0770 H       1  UNL1        0.0468
     48 H         143.3226   73.4987  219.2818 H       1  UNL1        0.0468
     49 H         145.6656   72.5298  219.2011 H       1  UNL1        0.0328
     50 H         144.9468   72.1609  220.7759 H       1  UNL1        0.0328
     51 H         147.1096   70.6355  219.0678 H       1  UNL1        0.0620
     52 H         147.3113   68.2234  218.5468 H       1  UNL1        0.0618
     53 H         145.3302   66.7531  218.5548 H       1  UNL1        0.0618
     54 H         143.0783   67.6737  219.0988 H       1  UNL1        0.0621
     55 H         141.8288   69.9445  218.8685 H       1  UNL1        0.0514
     56 H         142.1581   69.7069  220.6273 H       1  UNL1        0.0514
     57 H         137.6118   71.3448  224.1799 H       1  UNL1        0.0468
     58 H         138.1842   70.7873  222.5298 H       1  UNL1        0.0468
     59 H         137.4194   69.1119  224.4106 H       1  UNL1        0.0328
     60 H         138.7726   68.7855  223.2284 H       1  UNL1        0.0328
     61 H         138.6891   67.1701  225.4216 H       1  UNL1        0.0620
     62 H         140.2051   66.6131  227.2974 H       1  UNL1        0.0618
     63 H         141.7671   68.3974  228.1106 H       1  UNL1        0.0618
     64 H         141.7680   70.6152  227.0496 H       1  UNL1        0.0621
     65 H         139.8118   72.2183  225.7443 H       1  UNL1        0.0514
     66 H         141.3579   71.7945  224.9398 H       1  UNL1        0.0514
     67 H         142.0601   75.5282  220.1900 H       1  UNL1        0.0431
     68 H         140.8870   76.6686  219.4712 H       1  UNL1        0.0431
     69 H         142.3050   78.0920  220.5930 H       1  UNL1        0.1222
@<TRIPOS>BOND
     1     1     2   am
     2     2     3    2
     3     2     4    1
     4     4     5    1
     5     5     6    1
     6     6     7    1
     7     7     8    1
     8     8     9    1
     9     9    10   ar
    10    10    11   ar
    11    11    12    1
    12    12    13    1
    13    13    14    1
    14    14    15    1
    15    15    16   ar
    16    16    17   ar
    17    17    18   ar
    18    18    19   ar
    19    19    20   ar
    20    20    21    1
    21    11    22   ar
    22    22    23   ar
    23    23    24    1
    24    24    25    1
    25    25    26    1
    26    26    27    1
    27    27    28   ar
    28    28    29   ar
    29    29    30   ar
    30    30    31   ar
    31    31    32   ar
    32    32    33    1
    33    23    34   ar
    34     8    35    1
    35    35    36    1
    36    36     6    1
    37    34     9   ar
    38    21    12    1
    39    33    24    1
    40    20    15   ar
    41    32    27   ar
    42     1    37    1
    43     1    38    1
    44     4    39    1
    45     4    40    1
    46     5    41    1
    47     5    42    1
    48     6    43    1
    49     7    44    1
    50     7    45    1
    51     8    46    1
    52    13    47    1
    53    13    48    1
    54    14    49    1
    55    14    50    1
    56    16    51    1
    57    17    52    1
    58    18    53    1
    59    19    54    1
    60    21    55    1
    61    21    56    1
    62    25    57    1
    63    25    58    1
    64    26    59    1
    65    26    60    1
    66    28    61    1
    67    29    62    1
    68    30    63    1
    69    31    64    1
    70    33    65    1
    71    33    66    1
    72    35    67    1
    73    35    68    1
    74    36    69    1
