@<TRIPOS>MOLECULE
*****
 67 72 0 0 0
SMALL
GASTEIGER

@<TRIPOS>ATOM
      1 O         139.0070   66.9980  226.1830 O.3     1  UNL1       -0.5066
      2 C         139.7080   68.1620  226.5380 C.ar    1  UNL1        0.1206
      3 C         140.4680   68.2380  227.6860 C.ar    1  UNL1        0.0213
      4 C         141.1250   69.4150  227.9670 C.ar    1  UNL1        0.1206
      5 O         141.8800   69.4340  229.1430 O.3     1  UNL1       -0.5066
      6 C         141.0740   70.5340  227.1710 C.ar    1  UNL1       -0.0167
      7 C         140.3170   70.4610  226.0240 C.ar    1  UNL1       -0.0390
      8 C         140.1420   71.5760  225.0720 C.3     1  UNL1       -0.0118
      9 C         139.6250   71.1150  223.7330 C.3     1  UNL1        0.0158
     10 N         139.0690   72.2680  223.0250 N.pl3   1  UNL1       -0.3130
     11 C         139.9920   73.0810  222.3330 C.ar    1  UNL1        0.2211
     12 N         140.9680   72.4080  221.6500 N.ar    1  UNL1       -0.1809
     13 C         141.8890   73.0580  220.9580 C.ar    1  UNL1        0.2240
     14 N         142.8780   72.3000  220.2690 N.pl3   1  UNL1       -0.2948
     15 C         143.9230   72.9810  219.5340 C.3     1  UNL1        0.0192
     16 C         145.2610   72.2890  219.8300 C.3     1  UNL1       -0.0115
     17 C         145.1370   70.8700  219.4420 C.ar    1  UNL1       -0.0412
     18 C         146.2070   70.2640  218.8500 C.ar    1  UNL1       -0.0582
     19 C         146.0660   68.9220  218.4820 C.ar    1  UNL1       -0.0615
     20 C         144.8740   68.2350  218.7140 C.ar    1  UNL1       -0.0614
     21 C         143.7890   68.8620  219.3190 C.ar    1  UNL1       -0.0568
     22 C         143.9470   70.1980  219.6790 C.ar    1  UNL1       -0.0269
     23 C         142.8060   70.8560  220.3210 C.3     1  UNL1        0.0402
     24 N         141.8650   74.4170  220.9250 N.ar    1  UNL1       -0.1807
     25 C         140.9200   75.1060  221.5860 C.ar    1  UNL1        0.2240
     26 N         140.9540   76.5170  221.5050 N.pl3   1  UNL1       -0.2948
     27 C         141.7810   77.0990  220.4590 C.3     1  UNL1        0.0192
     28 C         141.4510   78.5510  220.1980 C.3     1  UNL1       -0.0115
     29 C         141.5190   79.2760  221.4930 C.ar    1  UNL1       -0.0412
     30 C         142.1830   80.4790  221.5670 C.ar    1  UNL1       -0.0582
     31 C         142.2460   81.1610  222.7600 C.ar    1  UNL1       -0.0615
     32 C         141.6210   80.5820  223.8440 C.ar    1  UNL1       -0.0614
     33 C         140.9510   79.3700  223.7710 C.ar    1  UNL1       -0.0568
     34 C         140.8920   78.6910  222.5710 C.ar    1  UNL1       -0.0269
     35 C         140.2050   77.3860  222.4020 C.3     1  UNL1        0.0402
     36 N         139.9820   74.4200  222.2910 N.ar    1  UNL1       -0.1809
     37 C         139.6600   69.2820  225.7440 C.ar    1  UNL1       -0.0167
     38 H         138.9230   66.2410  226.8780 H       1  UNL1        0.2921
     39 H         140.5479   67.3754  228.3639 H       1  UNL1        0.0691
     40 H         142.3870   70.2530  229.4030 H       1  UNL1        0.2921
     41 H         141.6169   71.4521  227.4401 H       1  UNL1        0.0657
     42 H         139.4266   72.2948  225.4981 H       1  UNL1        0.0328
     43 H         141.1282   72.0354  224.9098 H       1  UNL1        0.0328
     44 H         140.4490   70.6822  223.1467 H       1  UNL1        0.0465
     45 H         138.8474   70.3498  223.8737 H       1  UNL1        0.0465
     46 H         138.0670   72.5140  223.0190 H       1  UNL1        0.1489
     47 H         143.7106   72.9311  218.4559 H       1  UNL1        0.0468
     48 H         143.9704   74.0367  219.8394 H       1  UNL1        0.0468
     49 H         146.0643   72.7659  219.2492 H       1  UNL1        0.0328
     50 H         145.5059   72.3726  220.8991 H       1  UNL1        0.0328
     51 H         147.1446   70.8102  218.6692 H       1  UNL1        0.0620
     52 H         146.9074   68.4004  218.0025 H       1  UNL1        0.0618
     53 H         144.7905   67.1801  218.4137 H       1  UNL1        0.0618
     54 H         142.8469   68.3254  219.5049 H       1  UNL1        0.0621
     55 H         141.8851   70.5333  219.8132 H       1  UNL1        0.0514
     56 H         142.8158   70.5661  221.3821 H       1  UNL1        0.0514
     57 H         142.8358   77.0264  220.7624 H       1  UNL1        0.0468
     58 H         141.5867   76.5410  219.5312 H       1  UNL1        0.0468
     59 H         142.1784   78.9783  219.4921 H       1  UNL1        0.0328
     60 H         140.4458   78.6423  219.7607 H       1  UNL1        0.0328
     61 H         142.6644   80.8962  220.6703 H       1  UNL1        0.0620
     62 H         142.7709   82.1240  222.8452 H       1  UNL1        0.0618
     63 H         141.6554   81.1053  224.8109 H       1  UNL1        0.0618
     64 H         140.4683   78.9513  224.6664 H       1  UNL1        0.0621
     65 H         140.1132   76.8975  223.3833 H       1  UNL1        0.0514
     66 H         139.2104   77.5659  221.9679 H       1  UNL1        0.0514
     67 H         139.0579   69.2349  224.8246 H       1  UNL1        0.0657
@<TRIPOS>BOND
     1     1     2    1
     2     2     3   ar
     3     3     4   ar
     4     4     5    1
     5     4     6   ar
     6     6     7   ar
     7     7     8    1
     8     8     9    1
     9     9    10    1
    10    10    11    1
    11    11    12   ar
    12    12    13   ar
    13    13    14    1
    14    14    15    1
    15    15    16    1
    16    16    17    1
    17    17    18   ar
    18    18    19   ar
    19    19    20   ar
    20    20    21   ar
    21    21    22   ar
    22    22    23    1
    23    13    24   ar
    24    24    25   ar
    25    25    26    1
    26    26    27    1
    27    27    28    1
    28    28    29    1
    29    29    30   ar
    30    30    31   ar
    31    31    32   ar
    32    32    33   ar
    33    33    34   ar
    34    34    35    1
    35    25    36   ar
    36     7    37   ar
    37    37     2   ar
    38    36    11   ar
    39    23    14    1
    40    35    26    1
    41    22    17   ar
    42    34    29   ar
    43     1    38    1
    44     3    39    1
    45     5    40    1
    46     6    41    1
    47     8    42    1
    48     8    43    1
    49     9    44    1
    50     9    45    1
    51    10    46    1
    52    15    47    1
    53    15    48    1
    54    16    49    1
    55    16    50    1
    56    18    51    1
    57    19    52    1
    58    20    53    1
    59    21    54    1
    60    23    55    1
    61    23    56    1
    62    27    57    1
    63    27    58    1
    64    28    59    1
    65    28    60    1
    66    30    61    1
    67    31    62    1
    68    32    63    1
    69    33    64    1
    70    35    65    1
    71    35    66    1
    72    37    67    1
