@<TRIPOS>MOLECULE
*****
 77 83 0 0 0
SMALL
GASTEIGER

@<TRIPOS>ATOM
      1 C         139.5820   69.2380  228.2090 C.ar    1  UNL1       -0.0615
      2 C         140.7360   69.9900  228.3400 C.ar    1  UNL1       -0.0614
      3 C         141.1210   70.7230  227.2360 C.ar    1  UNL1       -0.0568
      4 C         140.4150   70.7250  226.0550 C.ar    1  UNL1       -0.0269
      5 C         139.2810   69.9820  225.9340 C.ar    1  UNL1       -0.0412
      6 C         138.8760   69.2410  227.0250 C.ar    1  UNL1       -0.0582
      7 C         138.5500   70.0110  224.6470 C.3     1  UNL1       -0.0115
      8 C         139.6370   69.9430  223.5640 C.3     1  UNL1        0.0192
      9 N         140.3470   71.2020  223.6660 N.pl3   1  UNL1       -0.2948
     10 C         140.4850   72.0750  222.5660 C.ar    1  UNL1        0.2240
     11 N         140.8840   71.6670  221.3520 N.ar    1  UNL1       -0.1809
     12 C         141.0110   72.4860  220.3140 C.ar    1  UNL1        0.2213
     13 N         141.4350   72.0560  219.0330 N.pl3   1  UNL1       -0.3105
     14 C         142.7580   72.2290  218.5040 C.3     1  UNL1        0.0234
     15 C         143.8080   72.3340  219.5860 C.3     1  UNL1       -0.0331
     16 C         144.8880   71.2830  219.4190 C.3     1  UNL1       -0.0357
     17 C         144.2220   69.9480  219.5570 C.3     1  UNL1        0.0105
     18 N         145.0230   68.8400  219.8640 N.3     1  UNL1       -0.2994
     19 C         144.5350   67.5300  219.7230 C.3     1  UNL1       -0.0008
     20 C         144.9150   67.1230  218.3440 C.3     1  UNL1       -0.0390
     21 C         146.2230   67.8610  218.1360 C.3     1  UNL1       -0.0390
     22 C         146.3230   68.7860  219.3090 C.3     1  UNL1       -0.0008
     23 C         143.3160   69.7840  218.3680 C.3     1  UNL1       -0.0357
     24 C         143.1190   71.0860  217.5930 C.3     1  UNL1       -0.0331
     25 N         140.7200   73.7900  220.5090 N.ar    1  UNL1       -0.1809
     26 C         140.3190   74.2550  221.6890 C.ar    1  UNL1        0.2240
     27 N         139.9990   75.6240  221.9420 N.pl3   1  UNL1       -0.2948
     28 C         138.6660   76.0170  222.3730 C.3     1  UNL1        0.0192
     29 C         138.4240   77.4690  221.9600 C.3     1  UNL1       -0.0115
     30 C         139.4640   78.3130  222.6100 C.ar    1  UNL1       -0.0412
     31 C         139.1380   79.4640  223.2810 C.ar    1  UNL1       -0.0582
     32 C         140.1650   80.1850  223.8530 C.ar    1  UNL1       -0.0615
     33 C         141.4740   79.7560  223.7500 C.ar    1  UNL1       -0.0614
     34 C         141.8150   78.5840  223.0680 C.ar    1  UNL1       -0.0568
     35 C         140.7740   77.8590  222.4910 C.ar    1  UNL1       -0.0269
     36 C         141.0700   76.6010  221.7490 C.3     1  UNL1        0.0402
     37 N         140.2070   73.3850  222.7030 N.ar    1  UNL1       -0.1807
     38 C         140.9280   71.5520  224.9460 C.3     1  UNL1        0.0402
     39 H         139.2253   68.6333  229.0558 H       1  UNL1        0.0618
     40 H         141.3158   70.0029  229.2747 H       1  UNL1        0.0618
     41 H         142.0337   71.3333  227.3032 H       1  UNL1        0.0621
     42 H         137.9619   68.6341  226.9477 H       1  UNL1        0.0620
     43 H         137.8730   69.1476  224.5686 H       1  UNL1        0.0328
     44 H         137.9276   70.9126  224.5483 H       1  UNL1        0.0328
     45 H         140.3173   69.0992  223.7514 H       1  UNL1        0.0468
     46 H         139.2122   69.7882  222.5612 H       1  UNL1        0.0468
     47 H         140.7410   71.5640  218.4000 H       1  UNL1        0.1492
     48 H         142.7431   73.1756  217.9439 H       1  UNL1        0.0498
     49 H         143.3262   72.1983  220.5655 H       1  UNL1        0.0284
     50 H         144.2786   73.3256  219.5139 H       1  UNL1        0.0284
     51 H         145.6570   71.4041  220.1962 H       1  UNL1        0.0281
     52 H         145.3810   71.3775  218.4402 H       1  UNL1        0.0281
     53 H         143.6402   69.9603  220.4905 H       1  UNL1        0.0462
     54 H         144.9989   66.8629  220.4645 H       1  UNL1        0.0427
     55 H         143.4484   67.4746  219.8851 H       1  UNL1        0.0427
     56 H         145.0569   66.0344  218.2751 H       1  UNL1        0.0278
     57 H         144.1511   67.3609  217.5891 H       1  UNL1        0.0278
     58 H         147.0684   67.1574  218.1227 H       1  UNL1        0.0278
     59 H         146.2519   68.3981  217.1765 H       1  UNL1        0.0278
     60 H         147.0392   68.3946  220.0465 H       1  UNL1        0.0427
     61 H         146.6798   69.7831  219.0113 H       1  UNL1        0.0427
     62 H         142.3349   69.4315  218.7190 H       1  UNL1        0.0281
     63 H         143.7885   69.0604  217.6874 H       1  UNL1        0.0281
     64 H         142.3107   70.9455  216.8603 H       1  UNL1        0.0284
     65 H         144.0670   71.3333  217.0928 H       1  UNL1        0.0284
     66 H         137.9168   75.3673  221.8970 H       1  UNL1        0.0468
     67 H         138.5821   75.9197  223.4655 H       1  UNL1        0.0468
     68 H         138.4972   77.5630  220.8665 H       1  UNL1        0.0328
     69 H         137.4201   77.7923  222.2725 H       1  UNL1        0.0328
     70 H         138.0937   79.8003  223.3601 H       1  UNL1        0.0620
     71 H         139.9390   81.1133  224.3981 H       1  UNL1        0.0618
     72 H         142.2706   80.3532  224.2177 H       1  UNL1        0.0618
     73 H         142.8598   78.2487  222.9902 H       1  UNL1        0.0621
     74 H         141.1635   76.8275  220.6766 H       1  UNL1        0.0514
     75 H         142.0097   76.1766  222.1322 H       1  UNL1        0.0514
     76 H         142.0182   71.4194  224.8846 H       1  UNL1        0.0514
     77 H         140.6538   72.5959  225.1585 H       1  UNL1        0.0514
@<TRIPOS>BOND
     1     1     2   ar
     2     2     3   ar
     3     3     4   ar
     4     4     5   ar
     5     5     6   ar
     6     5     7    1
     7     7     8    1
     8     8     9    1
     9     9    10    1
    10    10    11   ar
    11    11    12   ar
    12    12    13    1
    13    13    14    1
    14    14    15    1
    15    15    16    1
    16    16    17    1
    17    17    18    1
    18    18    19    1
    19    19    20    1
    20    20    21    1
    21    21    22    1
    22    17    23    1
    23    23    24    1
    24    12    25   ar
    25    25    26   ar
    26    26    27    1
    27    27    28    1
    28    28    29    1
    29    29    30    1
    30    30    31   ar
    31    31    32   ar
    32    32    33   ar
    33    33    34   ar
    34    34    35   ar
    35    35    36    1
    36    26    37   ar
    37     9    38    1
    38     6     1   ar
    39    37    10   ar
    40    38     4    1
    41    24    14    1
    42    36    27    1
    43    22    18    1
    44    35    30   ar
    45     1    39    1
    46     2    40    1
    47     3    41    1
    48     6    42    1
    49     7    43    1
    50     7    44    1
    51     8    45    1
    52     8    46    1
    53    13    47    1
    54    14    48    1
    55    15    49    1
    56    15    50    1
    57    16    51    1
    58    16    52    1
    59    17    53    1
    60    19    54    1
    61    19    55    1
    62    20    56    1
    63    20    57    1
    64    21    58    1
    65    21    59    1
    66    22    60    1
    67    22    61    1
    68    23    62    1
    69    23    63    1
    70    24    64    1
    71    24    65    1
    72    28    66    1
    73    28    67    1
    74    29    68    1
    75    29    69    1
    76    31    70    1
    77    32    71    1
    78    33    72    1
    79    34    73    1
    80    36    74    1
    81    36    75    1
    82    38    76    1
    83    38    77    1
