
 68 73  0  0  0  0  0  0  0  0999 V2000
  140.8320   68.7340  228.4800 C   0  0  0  0  0  0  0  0  0  0  0  0
  139.9730   69.4360  227.4590 C   0  0  1  0  0  0  0  0  0  0  0  0
  140.3790   70.8460  227.1820 C   0  0  0  0  0  0  0  0  0  0  0  0
  141.0820   71.0350  225.8550 C   0  0  0  0  0  0  0  0  0  0  0  0
  140.2560   70.5510  224.7030 C   0  0  2  0  0  0  0  0  0  0  0  0
  139.5730   71.6130  224.0000 N   0  0  0  0  0  0  0  0  0  0  0  0
  140.1800   72.1630  222.8180 C   0  0  0  0  0  0  0  0  0  0  0  0
  140.8480   71.3950  221.9650 N   0  0  0  0  0  0  0  0  0  0  0  0
  141.4100   71.9080  220.8690 C   0  0  0  0  0  0  0  0  0  0  0  0
  142.1290   71.0700  219.9530 N   0  0  0  0  0  0  0  0  0  0  0  0
  141.6110   69.7400  219.7400 C   0  0  0  0  0  0  0  0  0  0  0  0
  142.2740   69.0630  218.5590 C   0  0  0  0  0  0  0  0  0  0  0  0
  143.7410   69.2080  218.7710 C   0  0  0  0  0  0  0  0  0  0  0  0
  144.6310   68.1700  218.6240 C   0  0  0  0  0  0  0  0  0  0  0  0
  145.9970   68.3420  218.8320 C   0  0  0  0  0  0  0  0  0  0  0  0
  146.4740   69.5990  219.1960 C   0  0  0  0  0  0  0  0  0  0  0  0
  145.5980   70.6520  219.3470 C   0  0  0  0  0  0  0  0  0  0  0  0
  144.2500   70.4390  219.1320 C   0  0  0  0  0  0  0  0  0  0  0  0
  143.3170   71.5860  219.2990 C   0  0  0  0  0  0  0  0  0  0  0  0
  141.3010   73.2440  220.6170 N   0  0  0  0  0  0  0  0  0  0  0  0
  140.6320   74.0420  221.4630 C   0  0  0  0  0  0  0  0  0  0  0  0
  140.4980   75.4370  221.2320 N   0  0  0  0  0  0  0  0  0  0  0  0
  139.7460   76.2740  222.1460 C   0  0  0  0  0  0  0  0  0  0  0  0
  140.7200   77.2980  222.7090 C   0  0  0  0  0  0  0  0  0  0  0  0
  141.2220   78.0780  221.5440 C   0  0  0  0  0  0  0  0  0  0  0  0
  141.5090   79.4200  221.6910 C   0  0  0  0  0  0  0  0  0  0  0  0
  141.9760   80.1630  220.6230 C   0  0  0  0  0  0  0  0  0  0  0  0
  142.1570   79.5450  219.3870 C   0  0  0  0  0  0  0  0  0  0  0  0
  141.8750   78.2020  219.2200 C   0  0  0  0  0  0  0  0  0  0  0  0
  141.4100   77.4910  220.3090 C   0  0  0  0  0  0  0  0  0  0  0  0
  141.1210   76.0380  220.0700 C   0  0  0  0  0  0  0  0  0  0  0  0
  140.0810   73.4800  222.5540 N   0  0  0  0  0  0  0  0  0  0  0  0
  139.1940   69.5510  225.1480 C   0  0  0  0  0  0  0  0  0  0  0  0
  139.8740   68.6580  226.1690 C   0  0  0  0  0  0  0  0  0  0  0  0
  140.4971   69.0077  229.4914 H   0  0  0  0  0  0  0  0  0  0  0  0
  140.7445   67.6456  228.3468 H   0  0  0  0  0  0  0  0  0  0  0  0
  141.8812   69.0365  228.3468 H   0  0  0  0  0  0  0  0  0  0  0  0
  138.9774   69.4830  227.9244 H   0  0  0  0  0  0  0  0  0  0  0  0
  141.0579   71.1741  227.9829 H   0  0  0  0  0  0  0  0  0  0  0  0
  139.4547   71.4408  227.1400 H   0  0  0  0  0  0  0  0  0  0  0  0
  142.0284   70.4745  225.8725 H   0  0  0  0  0  0  0  0  0  0  0  0
  141.2570   72.1121  225.7160 H   0  0  0  0  0  0  0  0  0  0  0  0
  140.9829   70.0774  224.0268 H   0  0  0  0  0  0  0  0  0  0  0  0
  138.6500   72.0020  224.3140 H   0  0  0  0  0  0  0  0  0  0  0  0
  141.7913   69.1384  220.6431 H   0  0  0  0  0  0  0  0  0  0  0  0
  140.5345   69.8211  219.5287 H   0  0  0  0  0  0  0  0  0  0  0  0
  141.9966   67.9992  218.5235 H   0  0  0  0  0  0  0  0  0  0  0  0
  141.9586   69.5151  217.6071 H   0  0  0  0  0  0  0  0  0  0  0  0
  144.2539   67.1780  218.3345 H   0  0  0  0  0  0  0  0  0  0  0  0
  146.6901   67.4965  218.7105 H   0  0  0  0  0  0  0  0  0  0  0  0
  147.5505   69.7512  219.3630 H   0  0  0  0  0  0  0  0  0  0  0  0
  145.9667   71.6477  219.6345 H   0  0  0  0  0  0  0  0  0  0  0  0
  143.7827   72.3653  219.9202 H   0  0  0  0  0  0  0  0  0  0  0  0
  143.0677   72.0360  218.3267 H   0  0  0  0  0  0  0  0  0  0  0  0
  138.9306   76.7820  221.6102 H   0  0  0  0  0  0  0  0  0  0  0  0
  139.2963   75.6738  222.9507 H   0  0  0  0  0  0  0  0  0  0  0  0
  140.2065   77.9621  223.4198 H   0  0  0  0  0  0  0  0  0  0  0  0
  141.5444   76.8115  223.2510 H   0  0  0  0  0  0  0  0  0  0  0  0
  141.3646   79.9034  222.6684 H   0  0  0  0  0  0  0  0  0  0  0  0
  142.2027   81.2322  220.7475 H   0  0  0  0  0  0  0  0  0  0  0  0
  142.5285   80.1326  218.5345 H   0  0  0  0  0  0  0  0  0  0  0  0
  142.0172   77.7124  218.2453 H   0  0  0  0  0  0  0  0  0  0  0  0
  140.4439   75.9424  219.2084 H   0  0  0  0  0  0  0  0  0  0  0  0
  142.0703   75.5187  219.8720 H   0  0  0  0  0  0  0  0  0  0  0  0
  138.8438   68.9566  224.2912 H   0  0  0  0  0  0  0  0  0  0  0  0
  138.3133   70.0555  225.5720 H   0  0  0  0  0  0  0  0  0  0  0  0
  140.8797   68.3841  225.8176 H   0  0  0  0  0  0  0  0  0  0  0  0
  139.2984   67.7326  226.3183 H   0  0  0  0  0  0  0  0  0  0  0  0
  1  2  1  0
  2  3  1  0
  3  4  1  0
  4  5  1  0
  5  6  1  0
  6  7  1  0
  7  8  2  0
  8  9  1  0
  9 10  1  0
 10 11  1  0
 11 12  1  0
 12 13  1  0
 13 14  2  0
 14 15  1  0
 15 16  2  0
 16 17  1  0
 17 18  2  0
 18 19  1  0
  9 20  2  0
 20 21  1  0
 21 22  1  0
 22 23  1  0
 23 24  1  0
 24 25  1  0
 25 26  2  0
 26 27  1  0
 27 28  2  0
 28 29  1  0
 29 30  2  0
 30 31  1  0
 21 32  2  0
  5 33  1  0
 33 34  1  0
 34  2  1  0
 32  7  1  0
 19 10  1  0
 31 22  1  0
 18 13  1  0
 30 25  1  0
  1 35  1  0
  1 36  1  0
  1 37  1  0
  2 38  1  1
  3 39  1  0
  3 40  1  0
  4 41  1  0
  4 42  1  0
  5 43  1  6
  6 44  1  0
 11 45  1  0
 11 46  1  0
 12 47  1  0
 12 48  1  0
 14 49  1  0
 15 50  1  0
 16 51  1  0
 17 52  1  0
 19 53  1  0
 19 54  1  0
 23 55  1  0
 23 56  1  0
 24 57  1  0
 24 58  1  0
 26 59  1  0
 27 60  1  0
 28 61  1  0
 29 62  1  0
 31 63  1  0
 31 64  1  0
 33 65  1  0
 33 66  1  0
 34 67  1  0
 34 68  1  0
M  END
